22
gdb 116397	2.52579	1.35818	0.97712	3.6415	83.24	-0.2297	0.0362	0.2659	1287.1319	0.196211	-404.407083	-404.397885	-404.396941	-404.441753	34.3	
C	 0.074753423	 1.562690371	 0.0412864005	-0.375579
C	-0.0294379471	 0.0358187967	 0.024824108	-0.150211
N	-1.4121376181	-0.4408307585	-0.0101770959	-0.088248
C	-2.0457618234	-0.694312493	 1.2826412403	-0.14371
C	-3.55946626	-0.8608309129	 1.1869619973	-0.215331
C	-3.906011583	-1.8233334707	 0.0523298876	-0.212051
C	-3.4003146384	-1.2353835742	-1.2659376253	-0.297926
C	-1.9699649513	-0.7021665642	-1.2348369614	 0.401088
O	-1.3638949094	-0.4945309837	-2.2755420278	-0.399255
H	 1.1231084609	 1.8725042936	 0.1007152346	 0.115025
H	-0.3542614768	 1.9764987995	-0.8748698857	 0.142313
H	-0.4522385843	 1.9958245302	 0.898293434	 0.110251
H	 0.4743950171	-0.3578982096	-0.859478592	 0.139606
H	 0.4500054055	-0.3924797562	 0.9130573411	 0.094614
H	-1.6036505282	-1.5976531645	 1.7333291955	 0.104222
H	-1.8023929716	 0.1381001147	 1.9542874939	 0.108768
H	-3.9353808052	-1.2182079722	 2.1510047722	 0.102448
H	-4.0281505226	 0.1130882455	 0.9977349235	 0.106272
H	-3.4324822687	-2.7959494637	 0.2392400249	 0.103319
H	-4.984785379	-2.0033062847	 0.0015438594	 0.100332
H	-3.4418587852	-1.9545397172	-2.0879410219	 0.127774
H	-4.0359797741	-0.3927580258	-1.568215753	 0.126281
