17
gdb 126987	3.18647	1.10846	0.83317	3.4026	73.11	-0.1998	0.012	0.2118	1360.7051	0.135448	-455.125734	-455.116531	-455.115587	-455.160853	32.281	
C	 0.0056876148	 1.4747778435	 0.0456014281	-0.391318
C	 0.0213458108	-0.0399441915	 0.000108067	-0.057877
O	 0.6692066476	-0.4999831881	 1.2035739929	-0.287257
C	 0.8122739039	-1.8149766989	 1.3601880244	 0.495583
C	 1.4689034305	-2.4948312818	 2.3499920555	-0.033958
N	 2.2175509449	-1.9904243713	 3.4367599363	-0.619896
C	 1.284976369	-3.8444330358	 1.9561289606	 0.027573
N	 0.583092857	-3.9781945437	 0.8540671061	-0.175778
O	 0.2922782257	-2.655454303	 0.4558463391	-0.228808
H	 1.0230196862	 1.8730518512	 0.0892642378	 0.133669
H	-0.4810444474	 1.8653146721	-0.8526404223	 0.128528
H	-0.5446971346	 1.8315929197	 0.920424736	 0.133447
H	-0.991643899	-0.4545052552	-0.0416303964	 0.128111
H	 0.5738989275	-0.4143148305	-0.8686541213	 0.127605
H	 2.3108582669	-0.9836185072	 3.3648101411	 0.245949
H	 1.7774483387	-2.1934157701	 4.3286577216	 0.244622
H	 1.6443689475	-4.7341474995	 2.4555341635	 0.129805
