19
gdb 111808	2.98837	1.41424	1.34226	1.9032	70.57	-0.2404	0.0758	0.3162	1054.168	0.160546	-460.141987	-460.134182	-460.133238	-460.174443	29.867	
C	 0.1308629025	 1.3091989504	 0.1013988014	-0.243541
O	-0.2029599456	-0.0361942427	-0.1705641256	-0.251386
C	 0.5528552012	-0.6053171065	-1.20061195	 0.137285
C	 1.9646767192	-1.1298341109	-0.8316291008	 0.026503
C	 1.6013152633	-2.1893217736	 0.2133673035	-0.07763
O	 0.3810393374	-2.7560372104	-0.3101155287	-0.279791
C	 0.103281735	-2.0391177939	-1.5173138957	 0.030547
C	 1.1655251462	-2.4337179412	-2.5473981697	-0.086562
O	 2.3602011143	-1.7876564308	-2.0387056957	-0.284845
H	 1.1662303116	 1.4196968053	 0.4552505733	 0.109142
H	 0.0008612959	 1.9452107596	-0.7875206123	 0.109695
H	-0.5463471991	 1.6549713677	 0.8854553349	 0.133353
H	 0.5886306584	 0.0409013891	-2.0885013395	 0.076627
H	 2.7355991753	-0.4148035654	-0.547222348	 0.083096
H	 2.3743508405	-2.9612430848	 0.2855101417	 0.107321
H	 1.4117699588	-1.7589686988	 1.2037322291	 0.106259
H	-0.9368191437	-2.196389231	-1.7990282359	 0.089882
H	 1.3072579945	-3.5190367599	-2.572800817	 0.11321
H	 0.9529475042	-2.0705860823	-3.5609270051	 0.100834
