18
gdb 82701	2.83012	1.60632	1.24659	2.9289	77.19	-0.2223	-0.0275	0.1948	1036.6277	0.147056	-401.88593	-401.878028	-401.877084	-401.918277	30.293	
C	-0.0989005485	 1.5392325512	-0.2180101117	-0.344078
N	 0.071167281	 0.1076026942	 0.0065893009	-0.133902
C	 1.0982625014	-0.6363359789	-0.7755854511	-0.034664
C	 2.4820288153	 0.0414722805	-0.4962292037	-0.256023
C	 2.2997794385	-0.4466164279	 0.9381553438	-0.116276
C	 1.3710956057	-1.5349879323	 0.4883643794	-0.12325
C	 0.7574731075	-0.3523818342	 1.2087131345	 0.265875
C	 0.1894603207	-0.356952961	 2.5628116548	 0.056182
O	 0.7707001128	-0.7620009062	 3.5437946673	-0.275419
H	 0.8069809257	 2.1435176464	-0.0605148928	 0.107807
H	-0.4477597772	 1.6975846972	-1.2436451289	 0.12391
H	-0.8747392099	 1.9141323578	 0.4570233777	 0.126232
H	 0.8129393084	-0.9611507231	-1.7748890945	 0.083877
H	 3.2804481631	-0.5150971349	-0.9929878207	 0.113021
H	 2.595254734	 1.1096721532	-0.7016766854	 0.100032
H	 2.9934573417	-0.461739546	 1.767555803	 0.114448
H	 1.2817752953	-2.588255979	 0.7088047017	 0.115683
H	-0.8526181857	 0.0297615829	 2.6200124157	 0.076547
