21
gdb 39617	4.38538	0.98682	0.82842	0.1186	92.61	-0.2124	0.0237	0.2362	1420.7924	0.183082	-349.959277	-349.950754	-349.94981	-349.99355	32.304	
C	 0.0080523428	 1.5050533947	-0.2182560413	-0.2082
C	 1.5265780184	 1.5226189142	 0.1446289736	-0.322432
C	 1.3738140505	 0.1043360664	 0.6736668781	 0.288896
C	-0.0495137598	-0.011475383	 0.1488146602	-0.322432
C	 2.1513662388	-0.6925395048	 1.3930858859	 0.152475
C	 3.555846247	-0.3544254083	 1.8794482203	-0.356371
C	 3.9402698747	-1.5721627063	 2.6848686462	-0.059517
C	 2.985892648	-2.5011091951	 2.6874031485	-0.059517
C	 1.7767855704	-2.0860804558	 1.8841728377	-0.356371
H	-0.5966278182	 2.1280953092	 0.4443863086	 0.104096
H	-0.2402396845	 1.7573243968	-1.2511886214	 0.098063
H	 2.1844380998	 1.6020899362	-0.72927537	 0.10554
H	 1.846017374	 2.2807563118	 0.8681130386	 0.103261
H	-0.8140228737	-0.3084029034	 0.8751774336	 0.103261
H	-0.1490998412	-0.6692671407	-0.7230780785	 0.10554
H	 4.2538842965	-0.1768317553	 1.0477563302	 0.112134
H	 3.5767263789	 0.5655935848	 2.4822468572	 0.111422
H	 4.8957186472	-1.6547047929	 3.1909574988	 0.088299
H	 3.0439898189	-3.4570916797	 3.1958750597	 0.088299
H	 0.858185722	-2.0805076942	 2.4894664739	 0.111422
H	 1.5781435793	-2.7812734745	 1.0548622502	 0.112134
