14
gdb 133572	3.66828	0.99677	0.93266	1.3663	54.95	-0.258	-0.0334	0.2246	1192.8636	0.09614	-568.207895	-568.199857	-568.198913	-568.241651	29.137	
F	 0.1295728133	 0.0885299214	 0.1352917117	-0.087124
C	-0.0193214948	 1.4232338254	 0.0426898337	 0.278019
F	 1.2032152392	 1.9499366518	-0.1248676738	-0.07862
F	-0.7240817468	 1.6692105171	-1.0721641493	-0.078622
C	-0.7014623457	 1.9930234361	 1.26165856	-0.135984
C	-2.0500849146	 1.3232567934	 1.6675778304	-0.36695
C	-1.4844782776	 1.1896031599	 3.0926991291	 0.404384
O	-1.9675372334	 0.9286561157	 4.1527705167	-0.276835
C	-0.0757045597	 1.6107977566	 2.6380564627	-0.366951
H	-0.7888321642	 3.0711613513	 1.119970248	 0.116777
H	-2.9624349261	 1.9125597238	 1.558961245	 0.142547
H	-2.2007934113	 0.3457093596	 1.199196506	 0.153405
H	 0.6023782676	 0.7539580369	 2.5770564274	 0.153405
H	 0.405507914	 2.403062591	 3.2144325425	 0.142547
