19
gdb 95137	2.23735	1.85965	1.47235	1.9594	74.76	-0.2377	-0.0147	0.223	988.8965	0.16042	-423.035013	-423.027219	-423.026274	-423.067115	30.628	
C	-0.2044922388	 1.5521488832	 0.0522118958	-0.402863
C	 0.0496033813	 0.0462919393	 0.0020755815	 0.119051
O	 0.785428529	-0.3373824874	-1.1612743534	-0.264907
C	 2.1981633451	-0.3585446317	-1.0436913028	-0.092867
C	 2.6397545085	-0.8803280311	 0.3480851183	-0.160981
C	 1.5087997345	-1.8093698309	 0.8931616973	-0.250529
C	 0.7474714916	-0.501086823	 1.2799202163	-0.163689
C	 2.1363412286	 0.1401537337	 1.3705716563	 0.436681
O	 2.6370935642	 1.0073026182	 2.028305499	-0.333224
H	 0.7268843007	 2.1151139602	 0.1622983563	 0.135754
H	-0.7023646833	 1.8757717421	-0.8655064075	 0.125624
H	-0.8472804626	 1.8031051275	 0.9024974972	 0.12047
H	-0.9102950611	-0.4743260125	-0.1041249529	 0.091601
H	 2.552312216	-1.0326050763	-1.8306894115	 0.117465
H	 2.637542743	 0.6340183994	-1.2258919637	 0.109578
H	 3.6870188106	-1.1862432086	 0.3559931184	 0.090542
H	 1.0186152337	-2.4562764309	 0.164516422	 0.11944
H	 1.8259335668	-2.3813996103	 1.7664599649	 0.113141
H	 0.082929242	-0.4668829308	 2.1446691284	 0.089712
