24
gdb 6416	2.60461	1.29502	1.0344	0.9905	82.38	-0.2428	0.0807	0.3235	1306.1697	0.220166	-351.420189	-351.409388	-351.408443	-351.456014	39.115	
C	-0.3114106069	 1.5807058022	-0.3022545459	-0.385208
C	 0.3593084917	 0.2178099239	-0.1214390736	-0.170161
C	 1.02074851	-0.3123339411	-1.396265751	 0.1504
C	 1.7685947922	-1.6255278385	-1.1472732989	-0.397013
O	-0.0130812879	-0.4945176104	-2.3604496587	-0.274306
C	 0.3793672406	-0.4356559091	-3.7294455991	 0.151662
C	-0.6332403273	-1.2664746238	-4.511616643	-0.386177
C	 0.4396187013	 1.0129608338	-4.2235429361	-0.384807
H	 0.4186502929	 2.3478523717	-0.5852761283	 0.106067
H	-1.0688797275	 1.531366778	-1.0882008039	 0.130139
H	-0.795646768	 1.9089904165	 0.6225296006	 0.107232
H	 1.1206317742	 0.2715893582	 0.6662197737	 0.089864
H	-0.3813446321	-0.5221728283	 0.2070902919	 0.101431
H	 1.7354312984	 0.4444793386	-1.7594582955	 0.060829
H	 1.0817350693	-2.3813769926	-0.7531344304	 0.120259
H	 2.2110815259	-2.0160908122	-2.0686123612	 0.112957
H	 2.5781406353	-1.4807514389	-0.4242119965	 0.109756
H	 1.3749659619	-0.8916801614	-3.8465112708	 0.0644
H	-0.6397482495	-2.2992836667	-4.1533915471	 0.117531
H	-1.6389852433	-0.8542589363	-4.3805661357	 0.121584
H	-0.3962159704	-1.2661776521	-5.579904127	 0.10893
H	 1.1460067557	 1.6080218115	-3.6370883701	 0.114562
H	 0.7586520721	 1.0522157733	-5.2704455161	 0.109629
H	-0.5474042585	 1.4798798235	-4.1444893073	 0.120438
