15
gdb 23916	3.25067	1.64547	1.44423	2.209	54.	-0.2964	0.0779	0.3743	894.1451	0.114996	-494.168657	-494.16088	-494.159936	-494.201229	28.436	
C	-0.0830872884	 1.5473503069	-0.1627744708	-0.417388
C	 0.0043970557	 0.0442199544	-0.0039852812	 0.006143
C	 1.290434626	-0.7119077628	-0.2144611296	-0.299752
C	 0.6849833219	-0.6315813767	 1.1662807641	-0.169267
C	 1.3682921147	 0.1401151058	 2.2553375688	 0.28448
F	 2.2294019697	 1.0644300944	 1.7893588713	-0.084722
F	 0.4847795136	 0.7863710747	 3.0372988565	-0.083649
F	 2.0697469429	-0.6809965628	 3.0557841461	-0.078806
H	 0.8412742174	 2.0442422845	 0.1363049035	 0.134449
H	-0.2835424649	 1.8051326537	-1.2078173284	 0.118498
H	-0.8950437453	 1.9581094138	 0.4462355589	 0.127047
H	-0.8921826916	-0.4789876719	-0.3265077874	 0.095883
H	 1.2713720065	-1.6694621745	-0.7217459228	 0.120434
H	 2.1870526763	-0.1268013163	-0.3848080212	 0.132823
H	 0.2103094955	-1.5209414931	 1.5664762721	 0.113829
