13
gdb 29225	3.25661	1.45725	1.008	5.9028	64.96	-0.2221	-0.0551	0.1671	1067.8912	0.090283	-489.945079	-489.937548	-489.936604	-489.977186	28.339	
N	 0.0989902916	 1.4454471026	 0.2279803068	-0.59673
C	 0.0274050645	 0.0559262024	 0.0790005798	 0.107671
C	-1.1023809343	-0.6863569011	 0.0448238412	 0.034406
O	-1.0966527783	-2.0290949989	-0.0120433316	-0.212299
C	 0.1142483011	-2.7597788491	-0.0453471332	 0.438536
O	 0.0292685356	-3.9519118659	-0.0816419664	-0.344608
N	 1.2766165027	-2.0255084193	-0.0394926934	-0.435196
C	 1.2306270358	-0.7333721873	 0.0213374171	 0.438937
O	 2.3761152094	-0.0421811984	 0.0157830098	-0.400634
H	 0.9318493689	 1.8394442993	-0.188232309	 0.264959
H	-0.7272907909	 1.9350580603	-0.0879868582	 0.252175
H	-2.1056362412	-0.2757821886	 0.0671266907	 0.137892
H	 3.0916600751	-0.694781286	-0.0375562135	 0.31489
