16
gdb 45180	2.87203	1.90463	1.65191	4.0855	66.78	-0.2312	-0.023	0.2082	858.6121	0.126805	-437.849676	-437.843422	-437.842478	-437.880219	25.875	
O	 0.0298446218	 0.0034637027	-0.0359511671	-0.321541
C	-0.0006423587	 1.2043164828	 0.0193225056	 0.4464
C	-1.2707038176	 2.0636362497	 0.0588867294	-0.294449
C	-0.8870296201	 3.3676658231	 0.7606304916	-0.082255
N	-0.1144120094	 2.9625208346	 1.9962299465	-0.325488
C	 1.1250648321	 3.1564418046	 1.2043476016	-0.061529
C	 0.4296905864	 3.9660626179	 0.1057088944	 0.11342
O	 0.948214819	 3.1544130025	-0.9549834798	-0.300476
C	 1.2315578213	 2.1091259946	 0.0299661802	-0.028948
H	-1.6168182591	 2.2420855306	-0.9651191892	 0.135835
H	-2.0498707711	 1.5273848018	 0.6047825276	 0.132625
H	-1.7283218618	 4.0404878151	 0.9321071759	 0.082508
H	-0.1689052603	 3.69873209	 2.695782769	 0.225034
H	 2.046091486	 3.410389935	 1.728644793	 0.091087
H	 0.4870745377	 5.0397873927	-0.0820127661	 0.088033
H	 2.1685541237	 1.5851472424	-0.1582189225	 0.099745
