17
gdb 46610	2.96482	1.50668	1.02436	3.4421	76.25	-0.242	-0.0446	0.1975	1120.069	0.137477	-421.864108	-421.85649	-421.855545	-421.89674	28.214	
O	-0.0081964433	-0.031257365	 0.0195276198	-0.327439
C	 0.0183706702	 1.1771911055	 0.0139111513	 0.288309
C	-1.2168684493	 2.1100444463	 0.0630777069	-0.322336
C	-0.6722846285	 3.562213987	 0.0364233425	-0.362721
C	 0.8118298581	 3.3542613381	-0.0241700573	 0.23155
C	 1.1867087924	 2.0708870666	-0.0361493452	 0.132823
C	 2.6764690398	 1.9620768239	-0.0968622295	-0.193573
O	 3.1243258651	 3.3297069339	-0.1189516244	-0.276721
C	 2.0182009288	 4.2339859894	-0.0761957265	-0.174048
H	-1.8676632964	 1.8866493047	-0.7873196537	 0.137165
H	-1.7946093899	 1.8913696823	 0.9658640414	 0.137244
H	-1.0361389151	 4.131912888	-0.8271329283	 0.12606
H	-0.9638574842	 4.1368245308	 0.9238272288	 0.126071
H	 3.1053903282	 1.4469337025	 0.773817089	 0.122258
H	 3.0327898613	 1.4421541434	-0.9969460601	 0.122232
H	 2.0269509125	 4.8854604079	-0.9646191533	 0.116569
H	 2.0995687303	 4.8904753448	 0.8048166586	 0.116556
