20
gdb 90734	3.09415	1.3433	1.06139	3.7887	78.86	-0.2344	0.0342	0.2686	1176.5544	0.173211	-403.193171	-403.184989	-403.184045	-403.226073	31.633	
C	-0.6272559729	 1.1146814275	-0.1837671142	-0.413221
C	 0.2865906439	-0.0997302111	-0.1289447982	 0.044691
C	 1.7001019653	 0.0169722235	-0.7757028889	-0.24632
C	 2.3063743819	-0.6398922357	 0.4914999186	-0.141071
C	 0.9607990463	-0.4426347956	 1.2396316041	-0.026095
C	 0.6083843107	-1.7970247761	 1.8766165547	-0.191636
N	 1.454918083	-2.7198843125	 1.1393072996	-0.302313
C	 2.4569594098	-2.1590643011	 0.3885024093	 0.398005
O	 3.2927148329	-2.7697719785	-0.2426386475	-0.388521
H	-0.1216841909	 2.0059819405	 0.2056397269	 0.113171
H	-0.9365566755	 1.3312939725	-1.2121897867	 0.119227
H	-1.5348345752	 0.9600519053	 0.4110020147	 0.113437
H	-0.2421211393	-0.9785983356	-0.5153386264	 0.077055
H	 1.8726675609	-0.4997798184	-1.7225615951	 0.116672
H	 2.015059241	 1.0591541452	-0.8823012433	 0.100006
H	 3.2258266436	-0.2065119809	 0.8897434388	 0.093337
H	 0.9198622778	 0.3814861312	 1.9539849236	 0.071478
H	 0.8323121976	-1.8160241467	 2.9526183467	 0.104613
H	-0.4541259983	-2.0418392805	 1.7534744689	 0.108636
H	 1.4117732973	-3.7207174131	 1.2487826342	 0.24885
