16
gdb 91153	2.43864	2.07767	1.27558	7.2779	72.4	-0.1881	-0.0388	0.1493	954.2771	0.125975	-437.821036	-437.813951	-437.813007	-437.852478	28.216	
O	 0.3484516067	 1.3097693325	 0.3101406396	-0.444696
C	 0.1148836856	-0.0541688618	 0.1178929696	 0.116398
C	-1.3824031383	-0.464190576	 0.0120304584	-0.201494
N	-1.1332245982	-1.1712734187	-1.333274226	-0.114907
H	-1.1486220209	-2.1861973462	-1.2330222227	 0.283277
C	-1.7712668	-0.7640210161	-2.5843223728	-0.102405
C	-0.9583266191	 0.0736626456	-3.2272296139	-0.15925
C	 0.2473439073	 0.3914860749	-2.3710719673	 0.349193
O	 0.9665002038	 1.3903089683	-2.5078254033	-0.445662
C	 0.2661631396	-0.5661850331	-1.3219265583	-0.228503
H	 0.6999277287	 1.6607718615	-0.5292375707	 0.308768
H	 0.6504586949	-0.6211698396	 0.8910005826	 0.074925
H	-1.8110639774	-1.1524495929	 0.7447406484	 0.127273
H	-2.0287454157	 0.3956292047	-0.1578026279	 0.159452
H	-2.7142293856	-1.2155985825	-2.8591258923	 0.142766
H	-1.1618570714	 0.5465440493	-4.1787543334	 0.134865
