18
gdb 125322	5.2599	0.77886	0.72594	2.8178	75.5	-0.245	0.0023	0.2473	1569.9152	0.147642	-435.26609	-435.25671	-435.255766	-435.302121	32.385	
C	 0.1609276961	 1.4572542157	 0.0241191276	-0.482393
C	 0.0653300227	-0.0326222528	-0.0202445978	 0.303117
C	 0.0889714655	-0.88997774	-1.0966548784	-0.190156
N	-0.0492158202	-2.1273206966	-0.5573914027	 0.081557
C	-0.0189540682	-3.425575347	-1.2040483839	-0.182563
C	 1.4098741635	-3.9786760229	-1.3297240594	-0.069869
O	 1.4165722388	-5.2301584077	-1.9864467822	-0.404932
N	-0.1444880707	-2.0466113404	 0.7842706822	-0.155335
N	-0.0794333043	-0.7869143172	 1.108823992	-0.248842
H	 1.0077436479	 1.7772917734	 0.6393564139	 0.142194
H	 0.2910134215	 1.8723424342	-0.9784874991	 0.121431
H	-0.7415121868	 1.8966194089	 0.4610298206	 0.142164
H	 0.1790949838	-0.7292093203	-2.1581045229	 0.140921
H	-0.6308017221	-4.0978618323	-0.5965423073	 0.13509
H	-0.4747142791	-3.3442680506	-2.1941421028	 0.132973
H	 2.013747113	-3.3021880959	-1.943322318	 0.121483
H	 1.8695278413	-4.0221127798	-0.3328796118	 0.121274
H	 1.0854830672	-5.8940827787	-1.37330734	 0.291886
