18
gdb 98253	3.29795	1.11473	0.85894	4.8543	71.15	-0.2446	-0.0048	0.2398	1346.3298	0.144854	-476.281084	-476.270666	-476.269722	-476.317853	35.156	
C	-0.1038249199	 1.5485313197	-0.0451788632	-0.23731
O	 0.2044144198	 0.1503992985	-0.07851254	-0.25904
C	 0.5141424665	-0.3803009809	 1.1310860419	 0.524339
O	 0.5561640719	 0.2557412718	 2.1467148982	-0.355775
N	 0.7519827442	-1.7602095187	 0.9937176365	-0.228974
C	 0.3474433302	-2.4296487393	-0.2485259414	-0.338898
C	 1.4999485709	-2.4444459575	 1.9825218447	 0.404935
C	 1.6460583016	-3.9469235779	 1.7848020012	-0.506353
O	 2.0054902696	-1.8868513022	 2.9229266689	-0.296603
H	 0.7527880945	 2.1225435862	 0.3156905182	 0.147039
H	-0.3416378155	 1.8204911288	-1.073766493	 0.131727
H	-0.956560514	 1.7416036591	 0.6102459778	 0.143499
H	 1.1424374495	-2.4105530508	-1.0023255441	 0.136539
H	 0.0809061344	-3.4646832857	-0.0424409491	 0.136618
H	-0.5243616439	-1.9275437257	-0.660733967	 0.155797
H	 2.1270284432	-4.1959286879	 0.8342975263	 0.141952
H	 2.262377459	-4.3120904863	 2.6052096213	 0.154168
H	 0.6769836179	-4.4554636712	 1.8120184027	 0.146341
