16
gdb 98006	7.59136	0.48727	0.46054	4.2457	99.73	-0.2418	-0.0459	0.196	2339.1926	0.121736	-400.738135	-400.727375	-400.726431	-400.778086	34.9	
C	-0.0917336832	 1.4415510829	 0.0475334479	-0.340345
N	-0.0065771973	 0.0005494672	-0.0781735123	-0.308579
C	 0.7121139414	-0.6085295586	-1.0669191666	 0.180458
O	 1.3408908554	-0.0120564926	-1.9243269096	-0.353589
C	 0.6617182367	-2.0605697684	-1.0075811632	 0.171731
C	 0.6630856681	-3.2730794019	-1.0177381435	-0.03899
C	 0.6584274644	-4.6302374874	-1.0207067158	-0.222743
C	 0.654539823	-5.8409545396	-1.0235582242	 0.254936
C	 0.6517751551	-7.291574906	-1.0311180157	-0.519353
H	 0.3092774138	 1.7809548938	 1.0090746618	 0.129442
H	 0.5007926977	 1.8749129976	-0.758663221	 0.174954
H	-1.1272841933	 1.7879569763	-0.0431669594	 0.129455
H	-0.4908102034	-0.5867555847	 0.5808774509	 0.255513
H	-0.1646008068	-7.6785783142	-1.6512262714	 0.162979
H	 1.5921163251	-7.6857788475	-1.4321199139	 0.163446
H	 0.5227479632	-7.692729877	-0.019715034	 0.160683
