18
gdb 76934	2.13699	1.1989	0.99635	4.3177	79.32	-0.2636	-0.0452	0.2184	1273.3876	0.145342	-401.965143	-401.955405	-401.95446	-401.999778	34.777	
C	-0.1803851399	 1.026956201	-1.8052551895	-0.426509
C	-0.0089922555	-0.1766257966	-0.903052968	-0.053868
C	 1.3356496862	-0.6454716309	-0.3637981624	-0.157185
C	 2.6009609635	 0.087739746	-0.6255694222	 0.158506
O	 3.6591980964	-0.4689516385	-0.7839246411	-0.254725
C	 0.2590709364	-0.0607987036	 0.5837698751	 0.107281
C	 0.4439293	 1.2792211617	 1.2852534964	-0.463508
C	-0.3888026592	-1.0486224498	 1.4153274649	 0.257092
N	-0.9152278391	-1.82941402	 2.0874539204	-0.338296
H	 0.4553304507	 1.8703690853	-1.5311503891	 0.127804
H	 0.0580753812	 0.7567377819	-2.8387163827	 0.141627
H	-1.2191060117	 1.3709403542	-1.7812648502	 0.138804
H	-0.6605973543	-1.0042763057	-1.1675029143	 0.126395
H	 1.4866828438	-1.7174825449	-0.3018353529	 0.132433
H	 2.5297313382	 1.1942594923	-0.6795855814	 0.075694
H	 0.8872079602	 2.0294849546	 0.6303570081	 0.130459
H	-0.5242758684	 1.6580495124	 1.6244715299	 0.147195
H	 1.0894687015	 1.1682139608	 2.160695049	 0.150801
