22
gdb 99273	4.54059	0.60251	0.58693	2.4137	81.18	-0.2424	0.0389	0.2813	1993.9393	0.191871	-441.525554	-441.514182	-441.513238	-441.563726	39.61	
C	-0.0856470618	 1.4397904345	 0.089146849	-0.332633
N	-0.0910710027	 0.0094335614	-0.1446449273	-0.313208
C	 0.8598610974	-0.6190506603	-0.8965397435	 0.416458
O	 1.7623530898	-0.0188740865	-1.4567435849	-0.380302
C	 0.7253047275	-2.1375788923	-0.9610372434	-0.322305
C	 1.1779729432	-2.7030392994	-2.3095618855	-0.186191
C	 1.4138688236	-4.2178171223	-2.2746394494	 0.133941
C	 1.8314418849	-4.765758372	-3.6393186462	-0.401693
O	 2.3595364529	-4.5724837803	-1.264942852	-0.428509
H	 0.0599017778	 1.6751788452	 1.1499156306	 0.123612
H	 0.7435054483	 1.8561487185	-0.4839486479	 0.171162
H	-1.0211670827	 1.9015138865	-0.2456990744	 0.122917
H	-0.798563783	-0.5511811015	 0.2996101263	 0.24341
H	 1.3685296897	-2.5599265562	-0.1792776662	 0.142349
H	-0.2994511153	-2.4508666971	-0.7272514421	 0.088097
H	 0.4408215657	-2.4677279177	-3.087093735	 0.09585
H	 2.1043949879	-2.1923782906	-2.599322197	 0.118066
H	 0.4896976211	-4.7194721734	-1.9585152294	 0.082721
H	 2.74944791	-4.2761982607	-3.9877287654	 0.109939
H	 2.0185341384	-5.841074749	-3.5765104056	 0.122385
H	 1.0559807831	-4.5894313613	-4.391828041	 0.115411
H	 3.2054527741	-4.1809666756	-1.5121425798	 0.278525
