19
gdb 99722	1.91132	1.68137	0.96644	2.2169	73.71	-0.2627	-0.0076	0.2551	1234.0063	0.158389	-456.428963	-456.419079	-456.418135	-456.463916	36.036	
C	-0.3409161988	 0.8676887235	-0.6504485915	-0.382515
C	-0.2727212884	-0.4891688032	 0.0517089	-0.150707
N	 0.6649892159	-0.5046063679	 1.1916625474	-0.189314
C	 0.2434485323	-0.2541758638	 2.487638159	 0.437357
C	-1.2377630691	 0.0074651009	 2.7056626553	-0.504336
O	 0.99724191	-0.243448879	 3.4521883073	-0.380024
C	 2.0344257942	-0.7428829257	 0.8078443455	 0.486503
N	 2.9349736747	-0.7885388746	 1.8091455128	-0.558869
O	 2.3058526989	-0.8947123921	-0.3687055477	-0.406128
H	 0.6423286641	 1.1306650437	-1.0457045864	 0.151797
H	-1.0468286647	 0.821147766	-1.4856613795	 0.120229
H	-0.669704495	 1.661642278	 0.0279930004	 0.11443
H	-1.255070612	-0.7984025244	 0.4069931817	 0.108469
H	 0.0811143466	-1.2434236077	-0.650113844	 0.148376
H	-1.8261893977	-0.8986103058	 2.528425462	 0.153435
H	-1.3585744025	 0.3047450572	 3.7466807183	 0.151643
H	-1.6274473166	 0.792001231	 2.0529262321	 0.148164
H	 2.6377167371	-0.615103198	 2.7612521368	 0.289811
H	 3.8937069409	-0.920523748	 1.5386432008	 0.261679
