15
gdb 131175	3.29527	1.39045	1.05174	1.9677	68.67	-0.2214	-0.0082	0.2131	1084.6295	0.115002	-450.092505	-450.084885	-450.08394	-450.125457	28.211	
O	 1.3629476031	 0.7771091974	-0.2268796104	-0.442363
C	 0.5042630904	-0.2638253649	-0.1358149723	 0.28159
C	 0.0213215162	-1.0257373533	-1.183049897	 0.29941
N	-0.7707223426	-1.9202456066	-0.5280301314	-0.259585
N	-0.7848183675	-1.7279347928	 0.7970127804	-0.126708
N	 0.0043184079	-0.7068523058	 1.0347065486	-0.273296
C	 0.2458627069	-1.0037365218	-2.6357938836	-0.122575
C	 0.4661090571	 0.2874805269	-3.3501303777	-0.239951
N	 1.5766959315	-0.6565843875	-3.1781026111	-0.317547
H	 1.5268428832	 1.087621506	 0.6728413005	 0.31138
H	-1.3195676132	-2.6688640709	-0.9212454851	 0.283044
H	-0.242062122	-1.8106514056	-3.1783611851	 0.093603
H	 0.1077495371	 0.3985238159	-4.3696719321	 0.124975
H	 0.4586250315	 1.1942417602	-2.7529796174	 0.137249
H	 2.1733746104	-0.3375733672	-2.4173919065	 0.250774
