21
gdb 57616	4.14387	0.83458	0.82502	0.2887	90.28	-0.2605	0.0339	0.2944	1475.6555	0.177819	-349.89861	-349.887799	-349.886855	-349.933858	40.584	
C	 0.0211327412	 1.5968027763	 0.0795654824	-0.4108
C	 0.048010666	 0.0609972096	 0.0816558504	 0.240957
C	 0.7884887945	-0.4604640797	 1.3223025209	-0.410803
C	-1.4049714055	-0.4979089314	 0.0535950223	-0.379729
C	-2.2243574498	-0.1133640333	 1.1960945739	 0.307326
C	-2.8981242562	 0.2052631585	 2.139691007	-0.442206
C	 0.7397921315	-0.4620820513	-1.2114590422	-0.37973
C	 2.1259900472	-0.0403669742	-1.3701574291	 0.30732
C	 3.2693912397	 0.3089154806	-1.4985883424	-0.442201
H	 1.0373768605	 1.9996975825	 0.0666911296	 0.127587
H	-0.5049419815	 1.9820161033	-0.8015056601	 0.106481
H	-0.4915068013	 1.9741611905	 0.9684074599	 0.127581
H	 0.2915839413	-0.1251496706	 2.2365728326	 0.127587
H	 0.8147372013	-1.5561640673	 1.3358350687	 0.10648
H	 1.8204286719	-0.0996574453	 1.3347902514	 0.12758
H	-1.8984412467	-0.1620160918	-0.8685128231	 0.124721
H	-1.3642701876	-1.5941358363	-0.0033960323	 0.124723
H	-3.4984571306	 0.4828044592	 2.9703184115	 0.193842
H	 0.6976745946	-1.5597087747	-1.219305373	 0.124724
H	 0.163035417	-0.1278244713	-2.0845232187	 0.124718
H	 4.2794726023	 0.6136277167	-1.6179897798	 0.193842
