16
gdb 24485	3.837	1.64	1.15708	1.7624	85.41	-0.2231	-0.0295	0.1936	1007.8567	0.128496	-363.695228	-363.689001	-363.688057	-363.725593	25.691	
C	-0.0527503691	 1.4903925507	 0.0105916771	-0.385174
C	 1.3986943358	 1.9026077341	-0.000959747	-0.087227
C	 2.2059639671	 0.8261011504	-0.0145589394	-0.184027
C	 1.3988404542	-0.3927530131	-0.0136779998	 0.288234
C	 1.7087784506	-1.7465708361	-0.0241448143	-0.239578
C	 0.6409681755	-2.6451789546	-0.0189912705	-0.096857
C	-0.6657784546	-2.1625269803	-0.0038911728	-0.036151
N	-0.9845371119	-0.856887757	 0.006387669	-0.339564
C	 0.037850328	-0.0171498883	 0.0013344585	 0.291253
H	-0.588722745	 1.859894316	 0.8945285562	 0.13927
H	-0.6053979134	 1.8696273501	-0.8588361511	 0.139266
H	 1.7203637528	 2.9361668464	 0.0017063101	 0.105349
H	 3.2891340805	 0.8402468611	-0.0247607151	 0.102161
H	 2.7359285231	-2.0977331504	-0.035850209	 0.101508
H	 0.8173740292	-3.7151666075	-0.0266123996	 0.098115
H	-1.502411613	-2.8563962717	 0.0002026077	 0.103422
