20
gdb 64491	2.97569	1.60016	1.23769	1.8115	79.33	-0.2243	0.0836	0.3079	1062.6088	0.170066	-403.03534	-403.027164	-403.02622	-403.067891	32.365	
C	 0.0505356872	 1.7270250071	 0.7209843225	-0.464555
C	-0.017881398	 0.2831538399	 0.2295280479	 0.36419
C	 1.0201375126	-0.2558194867	-0.8406996386	-0.026372
C	 2.1534407915	-0.1778760061	 0.207973284	-0.23527
C	 0.9039566579	-0.8081242651	 0.8665423	 0.011503
O	 0.7476610946	-1.6315903354	-0.3556840689	-0.313068
N	-1.4188882008	-0.0702037599	 0.1517899147	-0.115166
C	-2.2423045702	 0.5114855236	-0.9052987818	-0.236147
C	-1.969310587	-0.9516241492	-0.8647660059	-0.209711
H	 1.0622587183	 2.0756133284	 0.9250640514	 0.117744
H	-0.3919252463	 2.3985355602	-0.0216384418	 0.121697
H	-0.5397316965	 1.8200339028	 1.6372114264	 0.134322
H	 1.0742118979	-0.1085452556	-1.9209175686	 0.088779
H	 2.9504398676	-0.898767561	 0.0276535331	 0.112044
H	 2.5307626734	 0.7869563882	 0.5448664721	 0.098717
H	 0.7994997092	-1.3150104649	 1.8267183055	 0.093472
H	-3.2011154123	 0.9177422913	-0.5937915755	 0.11241
H	-1.7452580566	 1.0786706192	-1.6916246195	 0.104567
H	-1.3086383129	-1.3614782987	-1.6195221248	 0.127449
H	-2.7289407498	-1.6426490181	-0.5086655022	 0.113394
