22
gdb 60571	3.52966	0.94656	0.84187	2.9017	82.64	-0.2341	0.0617	0.2959	1456.3539	0.19393	-404.305282	-404.295467	-404.294523	-404.34026	36.582	
C	 0.0046064443	 1.5233464589	-0.2580439537	-0.414753
C	-0.0183381647	 0.0410327296	 0.0555213762	-0.01868
C	 1.237799712	-0.7887077921	-0.0324121311	-0.301313
C	 0.5890583432	-0.5590549993	 1.3115793718	-0.025135
C	 1.2709811131	 0.2848193604	 2.3686070969	 0.073279
O	 0.3135230371	 0.9192482201	 3.2167559882	-0.450236
C	 2.1709567581	-0.5627259767	 3.2526474524	 0.028431
C	 2.4928697691	-0.1486561338	 4.6365697241	-0.252261
N	 1.596308749	-1.298180394	 4.3881344764	-0.327227
H	 0.9331787322	 1.9996895759	 0.0688877276	 0.124598
H	-0.0814464761	 1.6881839818	-1.3375024281	 0.124013
H	-0.8287710234	 2.0548954511	 0.2175257238	 0.11108
H	-0.9247821615	-0.4573438986	-0.2792419543	 0.088548
H	 1.1921347537	-1.7794379376	-0.4701066312	 0.115791
H	 2.1649946039	-0.2589777832	-0.2325446253	 0.111797
H	 0.0518376314	-1.4051463978	 1.7330725717	 0.095177
H	 1.8981910813	 1.0472219638	 1.8783326369	 0.068968
H	-0.4112538943	 1.2180003389	 2.6601916986	 0.28942
H	 2.9118955932	-1.1251400053	 2.6882917536	 0.089535
H	 3.4571241269	-0.4031574449	 5.0675897052	 0.109722
H	 2.0480207036	 0.7715577714	 5.0011641755	 0.124537
H	 0.6400272378	-0.9678520985	 4.509135285	 0.234712
