19
gdb 111355	2.57578	1.41379	1.08192	1.7755	75.1	-0.2399	0.0563	0.2962	1151.8966	0.159921	-419.116468	-419.108169	-419.107224	-419.149452	31.991	
O	-0.0093383842	 1.5343278785	-0.0212334532	-0.419503
C	 0.1158696308	 0.1299288523	 0.1104697659	-0.072379
C	-1.2432810454	-0.5410828823	 0.0250576558	-0.070163
N	-1.9707286657	-0.3643895258	-1.298350621	-0.162755
C	-1.2645992385	-1.1833909357	-2.3110317967	-0.250941
C	-2.1473107465	-1.8766273852	-1.356315515	-0.097317
C	-1.4213030404	-2.0642076976	-0.0450043366	 0.339632
C	-0.5618503352	-3.1698186772	 0.4368678551	-0.313778
N	-1.8989769458	-2.9284022314	 1.0195864171	-0.375188
H	-0.5716120421	 1.6938640881	-0.7885065388	 0.296791
H	 0.8078267872	-0.2850324335	-0.6388631166	 0.087933
H	 0.5622049162	-0.055708125	 1.0946254889	 0.106755
H	-1.8933656035	-0.1087056545	 0.7940499644	 0.100082
H	-1.6384787814	-1.0026370771	-3.313916216	 0.127149
H	-0.1888743978	-1.3263872773	-2.248734676	 0.11823
H	-3.093185094	-2.3370466443	-1.6199555329	 0.111998
H	-0.4725693985	-4.0865910304	-0.1398294915	 0.123203
H	 0.317736507	-2.9165808047	 1.024117033	 0.11618
H	-1.8179234623	-2.4651969471	 1.922162474	 0.23407
