22
gdb 105799	2.2576	1.49634	1.22822	1.4227	86.04	-0.2141	0.0677	0.2817	1178.0489	0.193754	-367.125201	-367.116125	-367.11518	-367.158826	35.155	
C	-0.1233058352	 1.4852225908	 0.0251909379	-0.375978
C	 0.0459050649	-0.0400420276	 0.0314224587	-0.266328
C	 0.7260814766	-0.5362316207	-1.2123198347	 0.348273
C	-0.0139269177	-0.953007398	-2.4703651225	-0.048783
C	-0.0235206216	-0.4508677716	-3.9146243349	-0.444903
C	 0.9179175022	-1.9287350851	-1.7915347206	-0.185351
C	 2.4096392682	-1.5762356807	-1.9108125958	-0.033649
C	 2.7513648928	-0.3338267991	-2.6383588078	-0.259067
N	 2.219491911	-0.2287727051	-1.2664515623	-0.178096
H	 0.8481744864	 1.973993155	-0.0953618102	 0.134869
H	-0.7689923003	 1.8077502424	-0.7984954825	 0.110345
H	-0.5668888288	 1.8376373833	 0.9613537389	 0.108035
H	 0.6445116129	-0.3368434048	 0.9011744652	 0.105441
H	-0.9292710019	-0.5315761	 0.1308001305	 0.091742
H	-1.0272311838	-1.1880129298	-2.1436057522	 0.093075
H	 0.7274575772	-0.9446646179	-4.5356423872	 0.131943
H	-0.9984762925	-0.6629775233	-4.3644964054	 0.112675
H	 0.1316693773	 0.6308790022	-3.9832036311	 0.128583
H	 0.5881422835	-2.884049837	-1.401113753	 0.087905
H	 3.1782679101	-2.2485906145	-1.5421409221	 0.097401
H	 3.8085748996	-0.0795609756	-2.6694339709	 0.11807
H	 2.1883682694	 0.0305008073	-3.482720348	 0.123798
