19
gdb 40210	3.08397	1.41965	1.08199	1.6236	86.21	-0.2192	-0.0314	0.1878	1136.7163	0.161071	-385.885683	-385.877967	-385.877023	-385.917994	30.599	
C	-0.053282584	 1.4746866358	 0.0099805309	-0.230104
O	 1.2358514737	 0.8778916713	 0.0066201437	-0.279914
C	 0.0736332694	 0.0013295828	 0.0210407108	 0.380073
C	-0.1471200266	-0.7131695352	 1.3362802469	-0.282905
C	 0.6362057462	-2.0331481084	 1.4684721436	-0.264811
C	 0.0132609299	-3.177058331	 0.7194030153	-0.082515
C	-0.4317632063	-3.131603402	-0.5451487139	-0.072499
C	-0.3668785802	-2.0134036253	-1.4783021138	-0.09039
C	-0.1256557454	-0.7088167272	-1.261818254	-0.10059
H	-0.3364264285	 1.9894403564	 0.9279620961	 0.110034
H	-0.3398632349	 1.9851434149	-0.909304449	 0.110919
H	 0.1567890193	-0.0287925647	 2.1343365213	 0.104852
H	-1.2181294282	-0.911878735	 1.4638945854	 0.108416
H	 1.6657563873	-1.8648236267	 1.1199329514	 0.129159
H	 0.7146646637	-2.2971169159	 2.5277104988	 0.101302
H	-0.0804970244	-4.118146111	 1.2556034873	 0.090796
H	-0.8474761383	-4.0451720325	-0.964056872	 0.08624
H	-0.5269343303	-2.2958150489	-2.5172046053	 0.091163
H	-0.0670709524	-0.0588084076	-2.1314448637	 0.090774
