15
gdb 94152	1.99688	1.58317	1.28409	0.8727	74.04	-0.2629	-0.0117	0.2512	1063.8457	0.108841	-420.520895	-420.51192	-420.510976	-420.554488	33.343	
O	 0.3373040274	 1.0889720648	-0.5079872038	-0.414117
C	 0.1279880319	-0.1315362569	 0.109240364	 0.05326
C	-0.0834477088	-0.2204882334	 1.6347095615	-0.117721
O	-1.2348159775	-1.0775976928	 1.4642657238	-0.295718
C	-1.3093269916	-0.812261131	 0.036269954	 0.001127
C	-2.3467932354	 0.1672462873	-0.2826113172	 0.30105
C	-3.1319563942	 1.0452343656	-0.5268388968	-0.4392
C	-1.4290935615	-2.02125984	-0.7608665165	 0.260197
C	-1.4847467321	-3.0194401597	-1.4269548077	-0.402481
H	-0.4495101471	 1.6345168353	-0.3721780465	 0.287217
H	 0.8898676665	-0.8210096506	-0.2562874411	 0.126061
H	 0.6993479085	-0.7026039787	 2.2273253317	 0.119598
H	-0.3504038748	 0.7433994107	 2.0882801406	 0.104889
H	-3.8634766222	 1.7838528285	-0.7479911919	 0.211424
H	-1.546788549	-3.903133849	-2.0133026739	 0.204416
