19
gdb 65382	3.48234	0.89303	0.89189	2.9179	78.45	-0.251	-0.0329	0.218	1408.8088	0.15636	-423.007399	-422.997926	-422.996981	-423.042552	34.096	
C	-0.0105473084	 1.6305626097	-0.144438326	-0.470434
C	-0.0406925388	 0.1377003131	 0.0536717419	 0.254361
O	 1.1909791021	-0.6011256933	-0.0933564464	-0.289108
C	 0.5980980001	-0.5667903934	 1.1994502912	 0.021467
C	 1.3204206005	 0.1249197457	 2.3030797967	-0.019069
C	 0.7664335171	 0.0335109225	 3.7065606363	-0.267924
C	 2.0244092584	-0.7090129839	 3.350418347	-0.265902
C	-1.20098818	-0.588683881	-0.5606112367	 0.127347
O	-2.1953582597	-0.0532064946	-0.9788911757	-0.254593
H	 0.854539749	 2.0844011603	 0.3392519504	 0.127542
H	 0.0260647688	 1.8654164117	-1.2121808826	 0.139878
H	-0.9240784343	 2.0760394622	 0.2581705253	 0.143977
H	 0.1516150113	-1.5198473121	 1.4997286973	 0.088515
H	 1.8035271874	 1.0541080735	 2.0255011107	 0.096538
H	 0.8390556433	 0.9129796333	 4.3357191179	 0.122239
H	-0.1399313967	-0.5440191674	 3.8566266427	 0.119343
H	 1.9690351561	-1.7884348401	 3.256131472	 0.12065
H	 2.9704868253	-0.3435474418	 3.7326133072	 0.121861
H	-1.0560945015	-1.6918626042	-0.5998589894	 0.083312
