18
gdb 24130	5.0109	0.92698	0.88026	3.677	78.69	-0.2157	0.0334	0.2492	1344.9589	0.150296	-398.132832	-398.124943	-398.123999	-398.166292	29.408	
C	-0.1386446406	 1.6326471379	 0.0575852146	-0.292057
N	-0.2193216358	 0.2346834116	-0.3748579573	-0.080765
C	-0.196716662	-0.7695815962	 0.6851790086	-0.213722
C	-1.4557200533	-0.4696607526	-0.0518477239	-0.219482
C	 1.2862790873	 2.0700647554	 0.1398125159	 0.320842
C	 1.9867128802	 2.8677007936	 1.0086137904	-0.17992
N	 3.3006512802	 2.9904887019	 0.614570489	-0.258133
C	 3.398513197	 2.2701952118	-0.479201423	 0.011746
N	 2.207783684	 1.6994289695	-0.8157286462	-0.279771
H	-0.6909228586	 2.2271819168	-0.6835076515	 0.118251
H	-0.6240518229	 1.8085291047	 1.0324347973	 0.100737
H	 0.3659892051	-1.6730902444	 0.4701667985	 0.119804
H	-0.1213266811	-0.4198264756	 1.7129830489	 0.120515
H	-2.2279919151	 0.0794285033	 0.4841647809	 0.114229
H	-1.8264186726	-1.149363133	-0.8135961108	 0.120179
H	 1.616514074	 3.3643315651	 1.8933583706	 0.101539
H	 4.2951071729	 2.1212487945	-1.0622963126	 0.125848
H	 2.0172728013	 1.0472102858	-1.5590659594	 0.270161
