13
gdb 31910	6.50629	0.93467	0.82152	4.961	70.8	-0.248	-0.0451	0.2029	1301.3014	0.090105	-452.783862	-452.776065	-452.775121	-452.816751	27.075	
C	-0.0455663806	 1.3081914069	 0.0715406638	-0.243063
O	 0.0455533977	-0.1211586253	-0.0633251262	-0.243203
C	 0.6567109399	-0.5442615623	-1.1446833951	 0.514981
N	 1.1928132028	 0.1431936214	-2.1138306723	-0.369759
C	 1.6803863455	-0.8283793309	-2.9638603565	-0.176631
C	 1.4100073814	-2.06263168	-2.4588976607	 0.2146
O	 0.7353685278	-1.8779895142	-1.2590918379	-0.208499
C	 1.6691678016	-3.372383605	-2.8961287842	 0.225623
N	 1.8950186778	-4.4431526092	-3.2784066297	-0.332443
H	 0.9533771642	 1.7492272246	 0.1041964924	 0.155362
H	-0.6016250898	 1.7323654057	-0.7677122232	 0.155358
H	-0.5731825037	 1.4754058509	 1.0092732987	 0.151937
H	 2.1923642154	-0.5846470325	-3.881076839	 0.155738
