18
gdb 55490	5.29505	0.61476	0.5729	4.2314	83.9	-0.2309	0.0356	0.2665	1902.4414	0.146577	-401.947924	-401.938072	-401.937128	-401.985173	34.744	
N	 0.3871907163	-0.2016786129	 0.9139606073	-0.52175
C	-0.2996530339	 0.2142684943	-0.1783687341	 0.424442
O	-0.407636604	 1.3761437823	-0.5137529142	-0.362485
C	-0.9658485025	-0.9037900773	-1.0105755254	-0.484315
C	-0.7958824226	-2.2705862419	-0.5388815291	 0.028307
C	-0.6451451752	-3.3974637466	-0.1329676915	 0.119786
C	-0.4682287215	-4.7424953847	 0.3328203334	-0.16074
C	-1.0362333819	-5.1725636404	 1.6778748607	-0.254796
C	-1.658468611	-5.6866014887	 0.4150450935	-0.249074
H	 0.8458090736	 0.4869120157	 1.486198822	 0.260243
H	 0.4513353198	-1.1790561254	 1.1436854215	 0.266815
H	-2.0287509215	-0.642174942	-1.0699810965	 0.160822
H	-0.5780731424	-0.7920631065	-2.0299506544	 0.161471
H	 0.4752218438	-5.2027286845	 0.0534359566	 0.112218
H	-0.4357200785	-5.8493554063	 2.2750742346	 0.120904
H	-1.5785634134	-4.4255599968	 2.2451773271	 0.126448
H	-2.6225677493	-5.2886467773	 0.1224651532	 0.129713
H	-1.4892031358	-6.719949431	 0.1346132153	 0.121991
