20
gdb 110649	2.43482	1.55393	1.16324	1.5415	79.71	-0.2185	0.0643	0.2828	1145.52	0.169554	-403.042808	-403.033974	-403.03303	-403.076176	33.516	
C	 0.0544805458	 1.2743104699	-0.3722694759	-0.245181
O	-0.0134058075	 0.1606559129	 0.500433443	-0.243567
C	-1.1764975935	-0.5875862043	 0.3133179571	 0.076296
C	-1.4769572233	-1.641724263	-0.7252008326	-0.115707
N	-0.4521139464	-2.6926102324	-1.0761230535	-0.14637
C	 0.8377387023	-2.4416955724	-0.3834936246	-0.256569
C	-0.302347286	-2.9775374811	 0.3884802344	-0.086132
C	-1.412053402	-1.9794455728	 0.7850553147	 0.239253
C	-2.476691192	-2.3712447915	 1.7698654103	-0.497391
H	 0.9722879705	 1.8152848568	-0.1323202175	 0.129744
H	 0.0801070599	 0.962714557	-1.4257027294	 0.119429
H	-0.8044882694	 1.9473074461	-0.2290713608	 0.109895
H	-2.0766981109	 0.0196693577	 0.4651998866	 0.087468
H	-2.3252022599	-1.5641205856	-1.3966693367	 0.09627
H	 1.5870901767	-3.1671981396	-0.6905938525	 0.114886
H	 1.1932622337	-1.4361518905	-0.2196586421	 0.151178
H	-0.3395350725	-4.0019060107	 0.7484212438	 0.095016
H	-2.0795230764	-2.3853645145	 2.7925123818	 0.12674
H	-3.3161172099	-1.6697841856	 1.7487127724	 0.120087
H	-2.8678889395	-3.3716948062	 1.5524981015	 0.124655
