15
gdb 43571	3.38823	1.38423	1.13045	3.9031	72.64	-0.2591	0.0102	0.2692	1057.8476	0.112808	-416.753589	-416.74604	-416.745096	-416.78594	28.736	
N	-0.0017081812	 1.1729104783	 0.4280613375	-0.533816
C	-0.0032714797	-0.0044356463	-0.011685635	 0.435347
O	 1.1126137781	-0.6834368054	-0.4531431902	-0.248325
C	 0.739981982	-1.9474796568	-1.0344417144	-0.09281
C	 1.6023588598	-3.0156467725	-0.547449186	 0.323167
C	 2.2989719752	-3.9153359533	-0.1636232989	-0.438791
C	-0.739563898	-2.0917812157	-0.6724847275	-0.043462
C	-1.0942863647	-2.0065786179	 0.7574366206	-0.248897
N	-1.1766788636	-0.8044294324	-0.1174595153	-0.132802
H	 0.9424683916	 1.5570921507	 0.4053468017	 0.232217
H	 0.841673985	-1.8621365912	-2.1239477437	 0.128184
H	 2.9194379947	-4.7072839282	 0.1782010005	 0.211123
H	-1.3918388785	-2.5700930291	-1.3941917561	 0.121935
H	-2.0574495522	-2.3681499431	 1.099635104	 0.138889
H	-0.2912077583	-2.0440835572	 1.4878642528	 0.148042
