18
gdb 47243	2.34892	1.68934	1.10102	2.7773	83.46	-0.2151	-0.0267	0.1883	1105.021	0.150502	-401.992425	-401.984603	-401.983659	-402.024895	30.291	
O	 0.0597477806	-0.0410406298	 0.1137288438	-0.365416
C	-0.0474160497	 1.1633073151	-0.0172867865	 0.381708
C	-1.3944892167	 1.8566039898	-0.049693392	-0.30988
C	-1.8883239825	 2.1869752594	 1.3658503407	-0.259425
C	-1.244636521	 3.3608359297	 2.0403312932	-0.053872
C	-0.2878068582	 4.2091267835	 1.6333668443	-0.08679
C	 0.5800450167	 4.279899781	 0.4606266547	-0.100481
C	 1.2063472124	 3.3332120736	-0.2593547011	-0.026701
N	 1.0774173749	 1.9481140365	-0.1710488866	-0.313797
H	-1.3728101123	 2.7581006576	-0.6664923378	 0.120207
H	-2.0785794105	 1.1364623988	-0.5043404391	 0.127108
H	-2.9710382467	 2.37431441	 1.334735925	 0.111927
H	-1.7739814929	 1.2904800415	 1.9918996453	 0.131587
H	-1.687757862	 3.5878053745	 3.0091931787	 0.091542
H	-0.1037226323	 5.04511029	 2.3082524806	 0.093705
H	 0.8681059269	 5.2939772985	 0.1925622744	 0.097043
H	 1.9405835883	 3.6490004684	-0.9964529004	 0.109081
H	 1.9161550249	 1.3957629918	-0.2937168374	 0.252452
