15
gdb 28822	3.10929	1.43379	1.11038	3.8568	78.2	-0.2507	-0.0865	0.1642	1082.5131	0.112721	-416.838684	-416.830928	-416.829984	-416.871112	28.709	
C	-0.4544456439	 1.3836636062	 0.1495659131	-0.475373
C	 0.004051909	-0.0389466829	-0.0156327112	 0.289968
N	-0.0442582867	-0.5784853057	-1.1868359176	-0.269933
C	 0.3174277202	-1.8731822407	-1.4938750381	 0.017653
C	 0.271725414	-2.9681728879	-0.7046147162	-0.176443
C	-0.1544077245	-2.9079590452	 0.7075817719	 0.339038
O	-0.9332776335	-3.6780464872	 1.2176953063	-0.317453
N	 0.5267110465	-1.9405941521	 1.4699012925	-0.203858
C	 0.5739890908	-0.7001395789	 1.1736563377	-0.031606
H	 0.3520168989	 2.0082836599	 0.5519438147	 0.142409
H	-0.7773971633	 1.7847339424	-0.8112131621	 0.152274
H	-1.2840979406	 1.4407664905	 0.8641891107	 0.150232
H	 0.560989423	-1.9994632347	-2.5466155452	 0.124423
H	 0.43725023	-3.9529729176	-1.1308481628	 0.131608
H	 1.1162772201	-0.0460449162	 1.8637985062	 0.12706
