20
gdb 72335	2.26435	2.05567	1.5466	1.5454	82.62	-0.2214	0.0348	0.2562	969.3038	0.172595	-365.977436	-365.969976	-365.969032	-366.008748	30.972	
C	-0.0356277985	 1.499657141	 0.0209738456	-0.480528
C	-0.0100584469	-0.0209513182	-0.005388861	 0.351072
C	-1.3311853744	-0.6783659835	-0.4809970853	-0.323704
C	-1.6915753902	-1.6269960435	 0.6417809584	-0.046704
C	-0.8009131558	-1.6451755552	 1.6347715619	-0.073078
C	 0.3409987811	-0.7131482873	 1.3696624786	-0.103279
C	 1.6432900764	-1.2523611925	 0.721092705	-0.05908
N	 1.2519388354	-2.0681120813	-0.453180927	-0.334145
C	 1.3107066252	-0.5949484063	-0.5712851291	-0.108911
H	 0.9042225388	 1.907578106	 0.4101763729	 0.110567
H	-0.185341216	 1.9099359493	-0.9850231889	 0.112859
H	-0.8499165349	 1.8653806479	 0.6558879046	 0.118421
H	-2.1204384236	 0.0656986498	-0.6543024125	 0.090425
H	-1.1949415166	-1.2211752539	-1.4243022952	 0.112895
H	-2.5920201442	-2.2328309019	 0.6101100643	 0.086245
H	-0.87115031	-2.2679772639	 2.5200705991	 0.08609
H	 0.5616356374	-0.0130739553	 2.1823012178	 0.066647
H	 2.6038860373	-1.4022532102	 1.1995080899	 0.086244
H	 2.1127508393	-2.4358495881	-0.8573337949	 0.226469
H	 1.9591897802	-0.1203654029	-1.299995684	 0.081495
