22
gdb 61824	2.44931	0.95884	0.83627	3.7774	83.82	-0.2228	-0.0118	0.211	1497.6327	0.191322	-404.326401	-404.315999	-404.315054	-404.36314	37.504	
C	-0.5278491851	 2.5945751397	 2.085527792	-0.402988
C	-0.0713302409	 1.4952901576	 1.1201235277	 0.041824
C	 0.8410070002	 2.1035193914	 0.0281180241	-0.260042
C	 1.2235040038	 1.1115780192	-1.0471398521	 0.151808
O	 1.0927760697	 1.308857953	-2.2301366864	-0.250867
N	 0.6704778593	 0.3777264002	 1.7374742781	-0.099351
C	 0.6763442348	 0.11450888	 3.1727475415	-0.257254
C	-0.0029631849	-0.8222955213	 2.2356739263	 0.035164
C	-1.5083994404	-0.9653783387	 2.2379054623	-0.419221
H	 0.3235007225	 3.0083149152	 2.6363258707	 0.125438
H	-0.9981196095	 3.4098816909	 1.5277802319	 0.122446
H	-1.2589671916	 2.2297577249	 2.8121609556	 0.118616
H	-0.9605644658	 1.0865417941	 0.6219926702	 0.089467
H	 0.3662745303	 2.9639678793	-0.452379364	 0.109534
H	 1.7661501513	 2.4417686954	 0.5156549515	 0.119145
H	 1.6460849617	 0.1595901634	-0.6631181409	 0.090116
H	 1.6479266642	-0.1215391008	 3.6013728772	 0.113355
H	 0.0352781837	 0.7049328914	 3.8233278522	 0.108648
H	 0.5201614863	-1.7399062727	 1.9660534967	 0.08884
H	-2.0111692939	-0.0660911295	 2.6044434719	 0.121723
H	-1.8892427082	-1.1809663818	 1.2329823081	 0.127827
H	-1.8027248375	-1.7986442708	 2.8844293956	 0.125771
