19
gdb 70530	2.80969	1.50681	1.15928	2.7415	76.77	-0.2525	0.0215	0.274	1101.7631	0.160861	-419.207042	-419.198867	-419.197923	-419.23967	31.65	
C	 0.0225729736	 1.5087763101	-0.0960691165	-0.45201
C	 0.0111369945	 0.0065072122	 0.0664566936	 0.303759
C	-1.2887452834	-0.6794597456	-0.3281198765	-0.346085
C	-1.2476769225	-2.1867217965	-0.2317143588	 0.363657
N	-1.8749460263	-2.9122612619	-1.0575709099	-0.509628
O	-0.4914706995	-2.7449205949	 0.763036667	-0.250624
C	 0.139549936	-1.9155512301	 1.7425002641	-0.117725
C	 0.7547276063	-0.662408041	 1.1581684846	-0.060214
N	 1.2994254312	-0.6655068901	-0.206136059	-0.372609
H	 0.9867773593	 1.917515444	 0.215036254	 0.130952
H	-0.1407678775	 1.78657549	-1.1433053774	 0.125002
H	-0.7668373539	 1.9763116403	 0.5031707154	 0.114949
H	-2.0895018507	-0.3064016138	 0.3266879673	 0.128642
H	-1.5857642316	-0.4320754583	-1.3503549173	 0.141637
H	-1.7486065392	-3.8996808843	-0.8239887112	 0.21944
H	-0.5843357534	-1.6435334517	 2.5245095786	 0.11577
H	 0.8995666402	-2.5550800477	 2.201414339	 0.12917
H	 1.3201519586	-0.0730157712	 1.8781211567	 0.095331
H	 1.1610292585	-1.5741711793	-0.6440593036	 0.240587
