16
gdb 20846	5.31762	1.26452	1.09257	2.6084	66.95	-0.2147	0.0433	0.258	1083.2568	0.131466	-379.948469	-379.940493	-379.939549	-379.981222	29.146	
C	 0.030129077	 1.4313751251	-0.4257829819	-0.369498
C	-0.097600352	 0.0855037599	 0.3065756683	-0.281541
C	-1.4478523451	-0.5474101691	 0.1509481175	 0.373759
N	-2.2680800977	-0.6445316845	 1.1912873295	-0.302038
N	-3.3851855216	-1.2401709085	 0.6893672764	-0.253167
C	-3.2751276358	-1.5136462864	-0.6275136706	 0.459343
O	-4.312516092	-2.1112591647	-1.2540816676	-0.429667
C	-2.0300703953	-1.0813978063	-1.031450961	-0.444374
H	 1.0287300114	 1.8574468029	-0.2864630353	 0.109965
H	-0.1391512313	 1.3170689045	-1.5014017935	 0.112932
H	-0.7036721278	 2.1498185008	-0.0480776904	 0.124632
H	 0.6744225772	-0.6013523886	-0.0628655216	 0.101396
H	 0.0847821791	 0.2247561234	 1.3765210003	 0.117329
H	-4.1692263579	-1.4369184704	 1.286891433	 0.274799
H	-4.0806667423	-2.2376660024	-2.1791826416	 0.312881
H	-1.6046539659	-1.1435064657	-2.0201267616	 0.093248
