21
gdb 122708	3.2665	0.58432	0.50177	1.8437	86.98	-0.2484	-0.0167	0.2317	2178.4931	0.181532	-420.443779	-420.433284	-420.43234	-420.480513	36.552	
C	-0.0552895017	 1.5187155018	-0.2268160868	-0.382143
C	 0.0730028706	 0.02689901	 0.0916840236	-0.176
C	 0.7350623599	-0.7741022918	-1.0359642057	-0.177081
C	 0.8506754741	-2.2629021601	-0.6910896813	-0.128325
N	 1.4571026079	-3.1684037367	-1.6548963833	-0.263297
C	 1.8830607189	-2.7337958857	-2.7627293554	 0.119588
N	 2.461310528	-3.6161215344	-3.6739385628	-0.30801
C	 2.9531957127	-3.2439636577	-4.9006929887	 0.157284
O	 2.9453512752	-2.1164370143	-5.3370434127	-0.30082
H	 0.926480217	 1.9721534916	-0.4024465477	 0.116176
H	-0.6588932587	 1.6812144827	-1.126583222	 0.116176
H	-0.5306870919	 2.0621101284	 0.5956634085	 0.112815
H	 0.6520445477	-0.1021460533	 1.0156599227	 0.097985
H	-0.9214729188	-0.3909079703	 0.2969406022	 0.097984
H	 0.1527565207	-0.64791042	-1.9587063894	 0.102371
H	 1.7315134898	-0.3582817003	-1.2375491665	 0.102371
H	 1.4143185851	-2.3753179313	 0.2459504967	 0.112072
H	-0.1489774549	-2.6621538605	-0.468221395	 0.112075
H	 1.8637184107	-1.7086830065	-3.1327640338	 0.138212
H	 2.5088914399	-4.5842734361	-3.3885890373	 0.261945
H	 3.3648109879	-4.1095136256	-5.4537293953	 0.088623
