19
gdb 102770	1.70882	1.03259	0.66876	4.302	82.82	-0.2638	0.005	0.2689	1695.608	0.155355	-423.030351	-423.019291	-423.018347	-423.069397	36.659	
C	 0.4097309193	 1.6107502739	 0.158646083	-0.397364
C	 0.2359439199	 0.0926940039	 0.0909327844	-0.177086
C	-1.2339890297	-0.3417890885	 0.0389051634	-0.108343
O	-1.7940295378	 0.2210281829	-1.1773750809	-0.179933
C	-3.1300363074	 0.3811445876	-1.218433044	 0.176347
O	-3.6978967224	 0.8058811133	-2.1794895399	-0.275582
C	-1.3981425527	-1.7919776238	 0.0579853306	 0.098382
C	-1.5275566185	-2.9888972296	 0.0718027061	 0.089344
C	-1.6878197393	-4.4350378053	 0.0858069414	-0.499916
H	 1.4703689496	 1.8744439937	 0.1953938526	 0.118887
H	-0.031689584	 2.0943521008	-0.7160972017	 0.143647
H	-0.0678251527	 2.0262693314	 1.0533256746	 0.114155
H	 0.7390116514	-0.3159588285	-0.7915035009	 0.124661
H	 0.6868895937	-0.3885134439	 0.9651870941	 0.113728
H	-1.766921858	 0.1006925255	 0.8932166536	 0.109062
H	-3.6312478405	 0.0890787411	-0.2755894724	 0.082267
H	-2.7458705578	-4.7171480835	 0.0660800184	 0.155835
H	-1.2021026173	-4.8952324966	-0.7811752432	 0.157314
H	-1.2433767157	-4.8706176443	 0.9872078309	 0.154595
