16
gdb 84185	3.53101	1.16097	0.91597	3.4222	82.	-0.234	-0.0426	0.1914	1243.9073	0.123966	-396.925125	-396.916487	-396.915543	-396.95845	32.109	
C	-0.0711599315	 1.5618486921	 0.0277230435	-0.3802
C	 0.0401051456	 0.035744728	 0.0034936506	-0.051549
N	 0.8008100989	-0.4445532935	-1.1627239493	-0.308765
C	 1.7574756422	-1.1609325644	-0.697700825	 0.228692
N	 1.7900137362	-1.2811500287	 0.6947960392	-0.394148
C	 0.7509837545	-0.5286433825	 1.2370495271	 0.382393
N	 0.4242918729	-0.3184483731	 2.4456799057	-0.558097
C	 2.749868088	-1.8239704732	-1.4756674805	 0.257558
C	 3.6052231744	-2.3964506322	-2.0963815091	-0.37031
H	 0.9220494842	 2.0198045422	 0.03830679	 0.12112
H	-0.604960806	 1.9142451946	-0.8578868815	 0.128606
H	-0.6068330121	 1.8720711365	 0.9280901788	 0.142516
H	-0.969780391	-0.391300319	-0.0492326264	 0.122951
H	 2.5109683393	-1.7529844496	 1.2146767829	 0.261303
H	 1.0443786919	-0.794999266	 3.1022477401	 0.207527
H	 4.3514480624	-2.8969632012	-2.6636290362	 0.210403
