20
gdb 18927	3.42194	2.35924	1.89106	0.0312	77.76	-0.2677	0.0979	0.3656	809.607	0.180314	-311.839262	-311.832888	-311.831944	-311.869277	27.099	
C	-0.0789720735	 1.5248195247	 0.0213571097	-0.434267
C	 0.0945253052	 0.0068515206	 0.0306243353	 0.077074
C	 1.0571456275	-0.6145497239	-1.0124471461	-0.05691
C	 2.425196706	 0.0278710259	-0.6614722621	-0.241625
C	 2.2839691166	-0.8001887968	 0.6222537797	-0.01751
C	 1.5208116672	-1.8992631098	-0.1850574001	-0.021026
C	 0.5855663844	-2.1210943145	 1.0123203645	-0.24618
C	 0.8297454387	-0.6075741015	 1.2497011617	-0.050454
H	 0.844132536	 2.0598150798	 0.2589444756	 0.118919
H	-0.4272905737	 1.8773086191	-0.9562834318	 0.110807
H	-0.825653751	 1.8246966604	 0.7647308912	 0.110824
H	-0.9001511571	-0.4447455814	-0.0641560799	 0.062712
H	 0.7091455117	-0.6874877695	-2.0434063529	 0.053827
H	 3.2302549971	-0.3775623691	-1.282784825	 0.092802
H	 2.5153908952	 1.1163100002	-0.6257952766	 0.088003
H	 3.1027925416	-1.0214532995	 1.3064199135	 0.060598
H	 2.023962104	-2.696633105	-0.7317719477	 0.061639
H	-0.4451307167	-2.4580206242	 0.8587880045	 0.084905
H	 1.0701419699	-2.7526653614	 1.7634405699	 0.091261
H	 0.6768694611	-0.144150904	 2.2248609065	 0.0546
