18
gdb 12894	3.25316	1.78799	1.4952	1.0253	78.49	-0.2383	0.052	0.2902	929.3135	0.152883	-310.614065	-310.606137	-310.605193	-310.645795	30.801	
C	 0.004772727	 1.5504585445	 0.0208581916	-0.49768
C	-0.0149627474	 0.0498354502	 0.0626907102	 0.339815
C	-1.2825333589	-0.8177297922	-0.0110450039	-0.286419
C	-0.6430036137	-1.8159217728	 1.00938176	-0.230521
C	 0.6083134411	-0.9350857142	 1.0489300363	-0.107142
C	 1.1930511071	-0.7806966005	-0.3478591763	-0.258173
C	 1.1568502327	-1.814256484	-1.3425837837	 0.340999
C	 1.1201218226	-2.6797216497	-2.1785335592	-0.465797
H	 0.993462068	 1.9444486335	 0.2784808611	 0.11838
H	-0.2504177201	 1.9223599905	-0.9787643859	 0.125574
H	-0.7188931871	 1.9742055902	 0.7268208881	 0.117974
H	-2.1564397821	-0.3067157177	 0.4005131599	 0.098958
H	-1.5341081536	-1.2146061007	-0.9983688138	 0.108397
H	-1.1763008205	-1.8343238712	 1.961961261	 0.101331
H	-0.4937795273	-2.8424735593	 0.6639142974	 0.110727
H	 1.2291709533	-0.7418482695	 1.9169501309	 0.085188
H	 2.1102304238	-0.1956069498	-0.3500840443	 0.106581
H	 1.0953805749	-3.4420732772	-2.9169548897	 0.191809
