22
gdb 112977	5.01537	0.7896	0.7417	1.2056	84.47	-0.2293	0.0798	0.3091	1605.9446	0.193447	-404.29284	-404.283479	-404.282535	-404.327628	34.701	
C	 0.5812218032	 1.5529167428	-0.6766270134	-0.239525
O	-0.2300329704	 0.4050239357	-0.5789344813	-0.239052
C	 0.4468048805	-0.7794958231	-0.9043170886	 0.177315
C	 1.4299315281	-1.3912055118	 0.1388734425	-0.274206
C	 0.7945783107	-2.7782106917	-0.1549596596	 0.03728
C	-0.4204208414	-2.0480399297	-0.7898464575	-0.277485
N	 1.558571109	-3.5025838828	-1.1603134822	-0.060583
C	 2.524727286	-4.4738469181	-0.659285981	-0.223729
C	 1.2564520199	-4.9227135346	-1.2994695627	-0.223341
H	 1.4330075901	 1.5172694246	 0.0196541301	 0.105943
H	 0.9778008884	 1.6856036635	-1.6958296376	 0.103365
H	-0.0408272687	 2.415522631	-0.4251293666	 0.124036
H	 0.9227954717	-0.69494582	-1.8916285593	 0.074732
H	 2.5040557699	-1.298404526	-0.0337692563	 0.099961
H	 1.1811078145	-1.0415419443	 1.1448918086	 0.102429
H	 0.575661563	-3.4051830927	 0.7242502586	 0.050944
H	-1.2187790402	-1.8872483341	-0.0608637741	 0.108633
H	-0.8346548489	-2.473855194	-1.705546093	 0.103436
H	 3.4665755953	-4.5299352967	-1.1975077584	 0.115311
H	 2.6071992068	-4.601305734	 0.419264923	 0.10924
H	 0.4958419125	-5.3484644872	-0.6464653231	 0.10957
H	 1.25585394	-5.3123335368	-2.313411278	 0.115725
