15
gdb 42811	4.02846	1.19319	1.16785	2.3108	69.58	-0.2417	-0.0371	0.2046	1053.5616	0.11453	-416.798291	-416.791119	-416.790174	-416.830154	27.34	
O	 0.0422541891	-0.0081600189	-0.0467391476	-0.306188
C	-0.0133916991	 1.1820743144	-0.0317721623	 0.429246
C	-1.0775101561	 2.2976645317	 0.0638392131	-0.124815
C	-0.0521634641	 2.9919800768	 0.999322146	-0.238471
C	 1.0073462877	 2.3586018298	 0.0365948581	-0.163471
C	 0.6460633725	 3.0570592581	-1.297479585	-0.170506
N	-0.8581845044	 3.0449698397	-1.2021065707	-0.296172
C	 1.1660424742	 4.4257854018	-1.4130337966	 0.320663
N	 1.5992409146	 5.4938327968	-1.4951278185	-0.322134
H	-2.1251892626	 2.1460562155	 0.3105322866	 0.103891
H	-0.097814819	 4.0818084011	 1.0249779096	 0.145255
H	-0.0223062698	 2.5649155356	 2.0021905045	 0.131978
H	 2.0585699815	 2.2347332309	 0.2803614072	 0.114053
H	 1.0163837045	 2.4844008472	-2.1547768509	 0.13502
H	-1.2531522991	 2.5473722896	-1.9941421136	 0.241652
