13
gdb 4243	3.87327	2.00606	1.32158	2.387	64.38	-0.2295	-0.0273	0.2022	847.7646	0.099168	-394.857481	-394.851096	-394.850152	-394.888044	24.51	
N	-0.0812458745	 1.3445085114	 0.0105374273	-0.538947
C	-0.0439371802	 0.0662088589	 0.0035315826	 0.387275
N	 1.1371709618	-0.7048267188	-0.0073534777	-0.437263
C	 1.2566801023	-2.0828430666	-0.0153936354	 0.484792
O	 2.319432449	-2.6649302737	-0.0245882497	-0.393058
N	 0.033881255	-2.7381092914	-0.0118427254	-0.378634
C	-1.1783779398	-2.0800142343	-0.0013818954	 0.026603
C	-1.255522372	-0.7400619894	 0.0061884386	-0.157478
H	 0.8549961808	 1.752590215	 0.0073320567	 0.204622
H	 2.0249613489	-0.2229663144	-0.0098935277	 0.260924
H	 0.0886022817	-3.7434026389	-0.0175132233	 0.273938
H	-2.0518823716	-2.7202533278	 0.0002285777	 0.139921
H	-2.2029233615	-0.22277089	 0.0143773315	 0.127306
