16
gdb 32187	2.60945	1.45157	0.9383	3.9296	75.11	-0.2047	-0.0277	0.177	1194.8596	0.124709	-437.928931	-437.920697	-437.919753	-437.962078	29.948	
C	 0.8622112084	 0.5678711486	 0.1815384127	-0.249589
O	-0.5173130313	 0.8729317174	 0.0240577536	-0.262782
C	-1.3527774198	-0.1677785904	 0.1969186378	 0.449994
C	-1.1718535303	-1.4864732201	 0.4977213494	-0.328664
C	-2.4866496582	-2.0801507134	 0.5410818878	-0.155886
C	-3.4058314887	-1.1182758665	 0.2697660338	-0.081754
N	-2.7172181509	 0.0808977552	 0.0524782297	-0.138168
C	-3.3012730859	 1.3049789903	-0.254300304	 0.16649
O	-4.4899162769	 1.4633950271	-0.367172929	-0.300782
H	 1.1799901145	-0.1844822753	-0.5500341109	 0.13401
H	 1.4031328035	 1.4991245151	 0.0131341728	 0.144014
H	 1.0654179655	 0.1973421936	 1.1932869609	 0.13401
H	-0.2328194522	-1.9858956772	 0.6690429594	 0.10979
H	-2.7016521023	-3.1162302318	 0.7538754186	 0.110105
H	-4.4792125779	-1.1253327521	 0.200536181	 0.150935
H	-2.5513129174	 2.1008333096	-0.3790047135	 0.118277
