23
gdb 120646	4.34916	0.71602	0.67881	1.5142	84.48	-0.2458	0.0829	0.3287	1774.7231	0.202242	-425.390318	-425.379257	-425.378313	-425.426947	39.255	
C	 0.1553570355	 1.2506581963	 0.3074664552	-0.223616
O	-0.016798537	-0.1438545634	 0.2606469129	-0.228394
C	-1.2933472779	-0.5204230449	-0.2178728606	-0.08961
C	-1.3522348493	-2.0226223619	-0.2758250989	-0.06686
C	-1.6914724629	-2.851146732	 0.9490166209	-0.342479
C	-2.6332125394	-2.8094129433	-0.2325638196	 0.415062
C	-3.9908053168	-2.14714604	-0.1237702397	-0.45888
O	-2.6012375035	-3.9173483986	-1.0977149084	-0.280852
C	-3.2605996581	-5.0697239018	-0.6123999823	-0.245334
H	 1.1636371011	 1.4448026358	 0.6815957921	 0.125937
H	 0.0512484682	 1.7118068273	-0.6882451833	 0.101498
H	-0.5716473045	 1.7325090357	 0.981798111	 0.099466
H	-2.0773918636	-0.1140056455	 0.4427646936	 0.078957
H	-1.4632523402	-0.0880311373	-1.2196967701	 0.087866
H	-0.6041317114	-2.4604754574	-0.9294746695	 0.102582
H	-1.1212541689	-3.7582803111	 1.1135202923	 0.115036
H	-1.9784804575	-2.3247438893	 1.8540924459	 0.10875
H	-3.9555061893	-1.2614078284	 0.5144224565	 0.119631
H	-4.3512996529	-1.847484546	-1.1134072139	 0.124489
H	-4.7281893211	-2.8292862294	 0.3120686809	 0.118513
H	-2.8923310333	-5.3616150838	 0.3814933713	 0.10602
H	-4.3502044696	-4.9380996671	-0.5529215621	 0.106407
H	-3.0488379075	-5.875090494	-1.320006194	 0.125812
