16
gdb 35265	3.38266	1.01528	0.8765	2.4916	69.38	-0.2621	-0.0103	0.2517	1292.3997	0.123831	-437.841488	-437.83314	-437.832196	-437.876217	29.064	
N	-0.32351637	-1.0723121172	 0.5007521683	-0.327391
C	-0.1779623432	 0.0564681715	 0.2993580778	 0.308743
C	-0.012196325	 1.4668313695	 0.0184469272	-0.116712
O	 0.6087615895	 2.2559652684	 1.0336469491	-0.233113
C	 1.3326764541	 2.0560129055	-0.1808642567	 0.065932
C	 2.6004793053	 1.257513896	-0.1083147794	-0.085451
C	 3.2846608695	 0.9747684463	-1.4682976352	-0.084671
O	 4.3988452158	 1.8257299128	-1.1404195098	-0.267555
C	 3.8834223852	 2.0753094159	 0.1820522705	-0.083708
H	-0.8696604006	 1.9279087444	-0.4682169908	 0.144335
H	 1.3715651157	 2.940360585	-0.8206091146	 0.119456
H	 2.4591081642	 0.3844786143	 0.5296309098	 0.114808
H	 3.5870379819	-0.0676812336	-1.622032216	 0.116107
H	 2.746868275	 1.3228756688	-2.3596896847	 0.105057
H	 3.7377690734	 3.1453044217	 0.3754697795	 0.110956
H	 4.5280183691	 1.6566078306	 0.9637670949	 0.11321
