20
gdb 53289	2.41995	1.15133	0.88126	1.1806	89.5	-0.2055	0.0499	0.2554	1391.4671	0.169694	-365.935778	-365.926129	-365.925185	-365.971523	34.809	
C	-0.223289299	 1.2224486698	-0.8240221451	-0.501186
C	-0.1927246425	-0.1957176402	-0.4955434481	 0.089543
C	-0.1846706855	-1.3709783094	-0.2220475964	 0.061994
C	-0.0939406039	-2.7725742374	 0.0673272567	-0.214716
C	-0.4409484095	-3.3322386781	 1.4466677851	-0.306054
C	-1.2863325496	-3.7282569453	 0.2824460175	 0.0386
N	-2.6886736867	-3.4423608532	 0.2323460108	-0.085619
C	-3.2297494817	-2.1116374085	 0.4712834964	-0.234409
C	-3.2484035528	-2.7070771334	-0.8965117193	-0.21959
H	 0.1255476649	 1.8383201725	 0.0127472734	 0.146242
H	 0.4188730399	 1.4422576382	-1.684342057	 0.148127
H	-1.2369766404	 1.5531858606	-1.0783270398	 0.145916
H	 0.7469950324	-3.2590519966	-0.421979812	 0.107343
H	 0.2299615679	-4.0553298644	 1.8971504889	 0.117474
H	-0.8769107896	-2.6244964965	 2.1432739253	 0.127791
H	-1.0935631248	-4.7172644287	-0.1257729777	 0.101683
H	-4.1360837143	-2.0929011049	 1.0716456869	 0.110341
H	-2.5471573411	-1.2844499654	 0.6371669037	 0.130785
H	-2.5549390791	-2.2837555341	-1.6191360943	 0.123704
H	-4.1670182846	-3.1114813749	-1.3134541151	 0.112032
