18
gdb 73996	2.97481	2.14785	1.64204	0.4737	81.85	-0.2025	-0.0263	0.1762	872.3271	0.148667	-364.699528	-364.692799	-364.691854	-364.730217	28.081	
C	-0.323800994	 1.2475191469	-0.1242649244	-0.476917
C	 0.3498952962	-0.0888855454	-0.0907372991	 0.253745
C	 0.5147894361	-0.9156048938	-1.1671084851	-0.085786
C	-0.8476726203	-1.3200741529	-1.7753730592	-0.268312
C	-0.7246958444	-2.4325810004	-0.6684559595	 0.042191
C	 0.81475361	-2.3526395078	-0.6854723032	-0.091667
C	 0.7841437247	-2.3020153327	 0.8343323212	-0.042871
C	 0.3046362331	-0.9339139474	 1.1012126949	-0.104899
N	-0.7092217061	-2.1246029076	 0.8415704588	-0.198401
H	 0.2683051929	 2.000132304	 0.411223556	 0.129291
H	-0.4522954852	 1.6008359241	-1.1506415381	 0.127794
H	-1.3071831547	 1.2169756481	 0.3646466252	 0.13036
H	-1.6522607524	-0.5841155239	-1.7248393621	 0.112274
H	-0.839209033	-1.7987435867	-2.7616523309	 0.105092
H	-1.2655929492	-3.3715982396	-0.8046757789	 0.097842
H	 1.4514725052	-3.0066513877	-1.2757355992	 0.07593
H	 1.3001517644	-2.9287072045	 1.5519665552	 0.096023
H	 0.1974165569	-0.5651039425	 2.1149585186	 0.098311
