15
gdb 52049	2.57834	1.14427	0.96193	6.137	68.34	-0.2761	-0.0102	0.266	1240.2306	0.110899	-453.915217	-453.906322	-453.905378	-453.950113	30.677	
N	-0.2845153663	 0.9908106722	 0.4054451035	-0.427124
C	-0.4341969927	-0.2580226588	 0.3829880287	 0.132811
O	-0.7759198071	-0.8648381568	-0.7851423134	-0.176223
C	-0.9893789198	-2.2625629676	-0.7360313252	-0.172912
C	-2.3707455916	-2.6135014359	-0.2131762015	 0.229351
C	-2.5783934791	-3.8425536045	 0.5803241522	-0.203652
O	-2.5194016468	-2.5672090257	 1.2111512379	-0.241426
C	-3.4915426742	-2.0763937836	-0.9658153697	 0.277277
N	-4.3759324771	-1.6701246595	-1.5877959733	-0.314884
H	-0.014930965	 1.2943024538	 1.3388085338	 0.235977
H	-0.3146743327	-0.9575786665	 1.2189854706	 0.104915
H	-0.8752008514	-2.6222316538	-1.7619853031	 0.146568
H	-0.2453577235	-2.7603327337	-0.1015078093	 0.122786
H	-3.5561182768	-4.3179289106	 0.5703105121	 0.151559
H	-1.7287163761	-4.499396759	 0.7592023766	 0.134978
