16
gdb 1523	7.95294	1.3469	1.17739	1.2128	59.05	-0.2554	0.0617	0.3171	1018.8532	0.135558	-362.923114	-362.914882	-362.913937	-362.95593	28.154	
C	 0.0596017357	 1.503375379	-0.1353758812	-0.390357
C	 0.0020283671	-0.0052978476	 0.0107103811	-0.023707
O	 0.6481870101	-0.5712780792	-1.1409040432	-0.244385
C	 0.6978024591	-1.9047837969	-1.1927058151	 0.500323
N	 0.2109083097	-2.6558100237	-0.2925007482	-0.60938
O	 1.3385886547	-2.2216365048	-2.3408034237	-0.221666
C	 1.5110297658	-3.6021683537	-2.6152684599	-0.256831
H	 1.0950404707	 1.8517881458	-0.1856135405	 0.128907
H	-0.4564148253	 1.8280484409	-1.0433170799	 0.128896
H	-0.4232157888	 1.9765221192	 0.7248728284	 0.119753
H	 0.5150064406	-0.3515236833	 0.9137356519	 0.120491
H	-1.0270925209	-0.3753448984	 0.0601767867	 0.120495
H	 0.3384409925	-3.6415332822	-0.4946476813	 0.220486
H	 2.1120459105	-4.0928809005	-1.840169061	 0.131383
H	 0.5465476231	-4.1163635223	-2.7055718507	 0.131398
H	 2.0386192754	-3.6552311123	-3.5681875634	 0.144195
