16
gdb 56342	2.62048	1.00911	0.82948	3.1505	62.36	-0.2772	0.0089	0.2861	1362.882	0.122755	-512.222261	-512.212659	-512.211715	-512.258468	32.653	
N	-0.756532394	 1.0805319965	-0.3908587326	-0.560418
C	-0.5839630136	-0.1990017132	 0.0340301136	 0.502627
O	-0.2672583818	-0.536990289	 1.1513241383	-0.401195
O	-0.855049843	-1.0618161151	-0.9872984981	-0.261106
C	-0.7516932592	-2.4517482201	-0.6586840695	-0.067875
C	-2.0319242671	-2.9663120458	-0.0199827506	-0.105532
O	-3.1209510843	-2.9053855645	-0.9442213802	-0.177127
C	-3.9320929533	-1.8298010185	-0.8851765724	 0.175854
O	-4.8066032531	-1.6400357512	-1.6748259074	-0.276557
H	-0.4431850883	 1.8141601242	 0.2197614259	 0.275018
H	-0.8624350753	 1.2718863969	-1.3719945761	 0.27384
H	-0.5715044763	-2.9591938329	-1.6086094737	 0.130302
H	 0.0878141963	-2.6131553253	 0.0220569126	 0.138201
H	-1.9122391316	-4.0182199397	 0.2536005477	 0.130022
H	-2.2555295838	-2.3928811262	 0.8861338251	 0.140171
H	-3.7081142014	-1.169378816	-0.0258153227	 0.083776
