22
gdb 8482	2.88242	1.83958	1.43418	0.3167	82.66	-0.2341	0.084	0.3181	1014.2781	0.199299	-313.060515	-313.051594	-313.05065	-313.093035	34.527	
C	-0.1454418867	 1.5616828223	 0.0387098635	-0.4097
C	 0.0649174194	 0.0520555836	 0.0049064484	-0.011068
C	 1.1692356145	-0.5498585632	-0.930484829	-0.307401
C	 1.7799082591	-1.278092168	 0.2761382837	 0.325962
C	 2.3490400664	-2.6677746809	 0.2389986807	-0.497899
C	 2.1817472409	-0.247068337	 1.2984580421	-0.381594
C	 0.7293341007	-0.6478131321	 1.2063168678	 0.314348
C	-0.0256233202	-1.2294989616	 2.3684488903	-0.499555
H	 0.7864995073	 2.0963242642	 0.2495771737	 0.113159
H	-0.5247555775	 1.9263247951	-0.9225483655	 0.111051
H	-0.8718866816	 1.843422303	 0.8093757866	 0.111469
H	-0.8923565587	-0.4372200774	-0.2091275477	 0.06556
H	 0.7594317276	-1.2244997572	-1.6871700409	 0.093988
H	 1.8266704909	 0.171193674	-1.4305322478	 0.087048
H	 3.3111299989	-2.6906074458	-0.288296552	 0.117628
H	 2.5217256353	-3.0560007905	 1.2485907601	 0.113876
H	 1.6762663661	-3.3639766931	-0.2758856959	 0.111586
H	 2.7036716842	-0.6374825992	 2.1679452974	 0.100945
H	 2.5242144168	 0.7396281831	 0.9925361377	 0.097236
H	-0.4077930966	-0.443571615	 3.0320721415	 0.117837
H	-0.8850135779	-1.8217929173	 2.0317927877	 0.111346
H	 0.6124187812	-1.8826147969	 2.9735937277	 0.114177
