21
gdb 1692	4.18316	1.50735	1.39462	1.399	70.52	-0.2591	0.0702	0.3293	1003.9967	0.192703	-312.130526	-312.121063	-312.120119	-312.164135	34.351	
C	 0.0724113609	 1.5710784593	 0.065855202	-0.395503
C	-0.0292972284	 0.0433187283	 0.0250526801	-0.164444
C	-1.4616806022	-0.5144065502	-0.0812421895	 0.045651
C	-2.169439811	-0.0475236934	-1.3624999868	-0.415943
C	-1.4325726872	-2.0572042382	 0.045018102	 0.140232
C	-2.8109792409	-2.696347698	 0.2247014281	-0.41955
O	-0.7226328021	-2.6664850851	-1.0343183151	-0.437983
H	 1.1078919508	 1.8862739119	 0.2293744918	 0.111827
H	-0.2634242562	 2.033255114	-0.8675335246	 0.115573
H	-0.5323583433	 1.9891955783	 0.8792499979	 0.109247
H	 0.5604578146	-0.3520466073	-0.8101994932	 0.107822
H	 0.4295772246	-0.3640838096	 0.9354152115	 0.088446
H	-2.0353491045	-0.1415384491	 0.7805964456	 0.064048
H	-3.1879165733	-0.4407635381	-1.4378747538	 0.111383
H	-2.2454563443	 1.0420428576	-1.3984293081	 0.120938
H	-1.6147709828	-0.3625102244	-2.2543069128	 0.110801
H	-0.8285128328	-2.2993113102	 0.9286115206	 0.081728
H	-3.4505191771	-2.5289604285	-0.6495187743	 0.109407
H	-2.706170769	-3.776289836	 0.3606945325	 0.123039
H	-3.3277478302	-2.2854145807	 1.098207842	 0.114917
H	-1.2823998558	-2.6194211106	-1.8164605958	 0.278362
