15
gdb 24070	7.19516	0.7481	0.6833	4.4974	71.48	-0.2544	-0.0099	0.2444	1527.1305	0.113855	-416.85951	-416.851497	-416.850553	-416.893723	28.004	
N	 0.0042398511	-1.1680091616	-0.017176709	-0.301393
C	 0.0763729621	-0.0387003699	 0.2159626235	 0.258397
C	 0.1785898931	 1.3908382101	 0.4973104326	-0.332127
C	 1.1294216924	 2.1011886104	-0.483670192	-0.330007
C	 1.2177580806	 3.5577579692	-0.1759777545	 0.418573
N	 0.6199345795	 4.2200060987	 0.76289332	-0.309297
C	 1.0539247436	 5.5316472719	 0.5965147862	-0.116945
C	 1.9037224008	 5.5835154722	-0.4526170487	-0.039119
O	 2.0200926542	 4.3185614696	-0.9619591372	-0.180907
H	-0.8169353441	 1.8418126473	 0.4467807333	 0.172185
H	 0.5257789941	 1.533645946	 1.524959247	 0.172309
H	 2.1276110369	 1.651787066	-0.4343658959	 0.15266
H	 0.7829140103	 1.9614194081	-1.5137787009	 0.15263
H	 0.7206416929	 6.3275958793	 1.2425780682	 0.130928
H	 2.4718043524	 6.3551092327	-0.9421831928	 0.152115
