14
gdb 21076	3.53499	2.0517	1.31248	2.1221	60.32	-0.2029	0.0367	0.2396	875.3	0.107121	-415.864761	-415.856681	-415.855737	-415.897891	28.273	
C	-0.0124990695	 1.4260301106	-0.0373253986	-0.325124
N	-0.0243946264	-0.0183751564	 0.0101801013	-0.017595
N	-0.081105332	-0.7524031133	-1.1343499078	-0.283339
C	-0.0401948104	-2.0215572811	-0.7335711094	-0.083449
C	 0.067458262	-2.117439698	 0.6681414843	 0.055535
O	 0.0768755648	-3.1959905909	 1.524499858	-0.459189
C	 0.0769008117	-0.8062294771	 1.1022894962	 0.386456
O	 0.1493309373	-0.2767844465	 2.3424554638	-0.441257
H	 1.002453655	 1.8239798818	 0.0716048337	 0.13825
H	-0.4131032814	 1.7226032952	-1.0064865416	 0.157845
H	-0.6370637676	 1.8307006778	 0.7626169082	 0.146944
H	-0.0869623936	-2.8194089842	-1.4605685319	 0.109814
H	 0.8037450371	-3.7800857959	 1.2852825328	 0.301389
H	 0.1700889328	-1.018449292	 2.9603855312	 0.313721
