17
gdb 30563	4.87256	0.91893	0.77683	1.2849	81.58	-0.1877	0.0278	0.2155	1436.8273	0.138045	-414.229668	-414.221238	-414.220294	-414.263038	31.07	
C	-0.2914659893	 1.6281763294	 0.070789535	-0.310335
N	-0.0029981565	 0.2112073655	 0.0331662125	-0.222647
C	-0.9904353901	-0.5776441911	-0.1157347322	 0.097021
N	-0.8760637938	-1.9383662542	-0.1708393298	-0.413356
C	 0.2950286251	-2.6801360939	-0.0760548196	 0.363713
C	 1.5957345311	-2.2710847444	 0.0889303564	-0.17617
N	 2.3189176901	-3.4518444611	 0.112059657	-0.236815
C	 1.4442433917	-4.4783258215	-0.0354094815	 0.017799
N	 0.2061526527	-4.0485025646	-0.1526752219	-0.331792
H	 0.25170672	 2.1454269088	-0.7301314194	 0.118202
H	-1.3633543788	 1.8672121132	-0.0367253933	 0.089614
H	 0.0572303199	 2.0593177003	 1.0176788835	 0.118192
H	-2.031821155	-0.2398928918	-0.2150029148	 0.078019
H	-1.7107429677	-2.488322855	-0.287818192	 0.258186
H	 2.0316689394	-1.2959904852	 0.1854678569	 0.154572
H	 3.3158771661	-3.5265204769	 0.2197546553	 0.266359
H	 1.7555441753	-5.5115735677	-0.0511154023	 0.129437
