16
gdb 66751	2.80245	2.0598	1.48811	0.9768	70.23	-0.2401	-0.0207	0.2194	888.5814	0.124817	-400.678406	-400.671508	-400.670563	-400.709627	27.172	
C	 0.001382149	 1.5189044235	 0.016002389	-0.518435
C	 0.0586160193	 0.0172922693	-0.0075856188	 0.182405
C	-1.1289123522	-0.8456891389	 0.4653997843	-0.094457
C	-0.5863403446	-2.2376191881	 0.3523806755	-0.04002
C	 0.8358176821	-1.9842304942	-0.1742003303	-0.214496
C	 0.8444345746	-0.9270309418	 0.9888543251	-0.035426
N	-0.4364695817	-1.4764398093	 1.6351320152	-0.174976
C	 0.6989738761	-0.8003339265	-1.1552826712	 0.401377
O	 1.1077019501	-0.5401829794	-2.247093041	-0.317419
H	 0.9762206929	 1.9520458641	-0.2278844499	 0.133217
H	-0.7173929904	 1.887690877	-0.7236357253	 0.13527
H	-0.306393213	 1.8899266164	 0.9988512487	 0.131861
H	-2.1813974179	-0.5892864878	 0.481932578	 0.104102
H	-1.189396122	-3.1332577945	 0.2746495918	 0.10928
H	 1.5388967117	-2.8021522117	-0.2976207822	 0.098349
H	 1.708628976	-0.6415354282	 1.5828049311	 0.099368
