18
gdb 11303	3.39487	1.64295	1.30792	3.0627	68.37	-0.2388	-0.0201	0.2187	986.6481	0.153253	-384.961313	-384.953182	-384.952238	-384.994446	29.305	
C	-0.1142027188	 1.4646512561	 0.0577368027	-0.406173
C	 0.1111211801	-0.0350108424	 0.0975120969	 0.142883
C	 0.656062658	-0.6653535754	-1.1925099799	-0.209492
C	 1.3736596966	-1.9350869506	-0.6913565067	-0.277995
C	 1.6140644778	-1.6196529568	 0.8246000899	 0.028093
O	 1.1252762791	-0.3227267272	 1.0660139097	-0.249834
C	 0.9246968894	-2.6722539361	 1.6817922227	 0.146669
O	-0.0671931031	-2.4887894291	 2.335240067	-0.238677
H	 0.8099001229	 1.9836306356	-0.2157193609	 0.120003
H	-0.8867331052	 1.7145049242	-0.6759806588	 0.116042
H	-0.4386728726	 1.8299433267	 1.0356888933	 0.132205
H	-0.819169536	-0.543533308	 0.3933842677	 0.085845
H	-0.1284411398	-0.8826143372	-1.9214270159	 0.106124
H	 1.3717835634	 0.0208493174	-1.6570107536	 0.106309
H	 0.7455144719	-2.8232219973	-0.8142415668	 0.11461
H	 2.3098944583	-2.1251852678	-1.2188578353	 0.117247
H	 2.6832741952	-1.6370263083	 1.074531505	 0.09644
H	 1.415629473	-3.6749406337	 1.6324831931	 0.069701
