20
gdb 82776	3.46141	1.69065	1.45926	1.7597	80.17	-0.2225	0.0767	0.2993	968.9774	0.174271	-365.969074	-365.962367	-365.961423	-365.999751	28.462	
C	-0.0257447038	 1.5446435893	 0.0201007089	-0.416157
C	-0.0334631503	 0.020037363	-0.0181029065	 0.012261
C	 1.0740397473	-0.6006162975	-0.9307819634	-0.056451
C	 0.701707153	-2.0265481394	-1.3515812445	-0.245883
C	 0.9132878924	-2.809051951	-0.0730592349	-0.025731
C	 0.6724978358	-2.1625117981	 1.2446623623	-0.073922
C	 0.695802981	-0.6231863965	 1.1835180316	-0.034471
C	 1.9796118847	-0.8171799846	 0.3446739762	 0.005392
N	 2.0791115716	-2.2979319614	 0.6817488847	-0.160482
H	 0.9764487221	 1.9330928538	 0.2349477016	 0.115839
H	-0.3446725885	 1.9648891855	-0.9400871796	 0.113395
H	-0.7008668525	 1.9241054318	 0.7949871114	 0.113867
H	-1.0472645479	-0.348174195	-0.2159221286	 0.061391
H	 1.4492462036	 0.0233081849	-1.7439626114	 0.065437
H	-0.3214847569	-2.0948270286	-1.7357379055	 0.102733
H	 1.3784947157	-2.4095662712	-2.1243877227	 0.103917
H	 0.8513691681	-3.8935594692	-0.1018261599	 0.089901
H	 0.3600886749	-2.7405343553	 2.109461388	 0.088314
H	 0.6895334229	-0.1313034545	 2.1572784699	 0.066574
H	 2.9059147469	-0.2612551361	 0.4682817022	 0.074074
