18
gdb 10061	2.60463	1.14382	0.82942	2.0693	73.03	-0.2391	0.0583	0.2974	1380.6067	0.150852	-384.903651	-384.893232	-384.892287	-384.940524	34.876	
C	-0.0360689422	 1.4780994934	 0.0661727684	-0.498533
C	-0.0155842154	 0.0229739445	 0.0195957166	 0.068698
C	 0.0199896466	-1.1800048842	-0.0179091662	 0.074515
C	 0.0270661317	-2.6383181412	-0.086265345	-0.19076
C	-1.4091916197	-3.1868819127	-0.051776009	-0.087828
O	-1.330077864	-4.5996345482	 0.0688518707	-0.42068
C	 0.7857724912	-3.156562408	-1.3294940993	-0.055214
O	 2.1465777663	-2.771502886	-1.3526667254	-0.416054
H	 0.7538695927	 1.9050605729	-0.5616023293	 0.150849
H	-0.9927644868	 1.8762511836	-0.2900058077	 0.144504
H	 0.1160251033	 1.8475535049	 1.0864835707	 0.14549
H	 0.5347505212	-3.0422636558	 0.8029608726	 0.098557
H	-1.943741009	-2.7389700076	 0.7976156379	 0.100591
H	-1.9346940776	-2.886816287	-0.9716795675	 0.096831
H	-2.2219261106	-4.9565813958	 0.0333540455	 0.290378
H	 0.6656367029	-4.2462311058	-1.3774324855	 0.107551
H	 0.3361259848	-2.7239385244	-2.2293818672	 0.109996
H	 2.5907037647	-3.2107548526	-0.6204168701	 0.28111
