17
gdb 85540	2.51884	1.74216	1.16772	5.4321	68.42	-0.2742	0.0353	0.3095	1050.2136	0.136254	-458.99616	-458.988403	-458.987459	-459.028577	29.606	
C	-0.1225547862	 1.5130521962	-0.0496322034	-0.394189
C	 0.013544839	 0.0102708938	 0.135022038	 0.10449
O	 0.5734497181	-0.4981470674	-1.09925734	-0.268453
C	 0.9862640007	-1.7811206315	-1.215549125	 0.455648
O	 1.0365538849	-2.3289539822	-2.2740470175	-0.354392
O	 1.3751027174	-2.4116308852	-0.0832296979	-0.249203
C	 1.571874372	-1.701834607	 1.1241194197	 0.116607
C	 2.3766064111	-0.4328648368	 1.1475458903	-0.33558
C	 0.8680958644	-0.4015763113	 1.310729102	-0.070065
H	 0.8612146929	 1.9754454188	-0.1670870931	 0.133106
H	-0.7215663078	 1.73326521	-0.9365889288	 0.139013
H	-0.6137186104	 1.9538224826	 0.8229440429	 0.122518
H	-0.9831348626	-0.4382343904	 0.2507854835	 0.100951
H	 1.6633208874	-2.4160302078	 1.9322621695	 0.122468
H	 2.9942390204	-0.2433216654	 2.0177558071	 0.127236
H	 2.7906651003	-0.0811028104	 0.2090253146	 0.145493
H	 0.4494883186	-0.1698174059	 2.284741648	 0.104353
