20
gdb 92736	2.89528	1.31324	0.93809	3.1081	82.81	-0.212	0.0025	0.2144	1277.8496	0.17144	-403.218148	-403.209075	-403.208131	-403.251717	34.412	
C	-0.0598825187	 1.5654424552	 0.0152285702	-0.391735
C	 0.0738009666	 0.0432604877	 0.0030869193	-0.1134
C	 0.7054642055	-0.5024872558	-1.2915286742	-0.26527
C	 0.9804105052	-1.9788948434	-1.193119917	-0.201345
C	 1.2777398486	-2.5347161047	-0.0146240153	 0.391471
C	 1.6147980615	-3.9792068907	 0.2050592155	-0.4899
N	 1.3021432041	-1.7404047814	 1.1461120902	-0.398113
C	 0.8125729156	-0.4554519174	 1.2477407854	 0.416975
O	 0.9250165109	 0.1830378868	 2.2753931662	-0.371627
H	 0.9190507071	 2.0418538789	-0.1016452359	 0.12021
H	-0.7014784025	 1.9001570399	-0.8056129796	 0.105703
H	-0.4831782147	 1.9088661947	 0.9604785931	 0.13813
H	-0.92959323	-0.4038084594	 0.0869495391	 0.10477
H	 0.039693373	-0.2848869559	-2.1335073285	 0.107381
H	 1.6394345894	 0.0449447797	-1.4992906737	 0.110377
H	 0.9657844077	-2.5935207321	-2.0849488985	 0.087416
H	 2.617214198	-4.0897493918	 0.6383611041	 0.130959
H	 0.90898966	-4.4518905373	 0.8988527521	 0.134052
H	 1.5926277445	-4.5277525349	-0.7380431204	 0.137666
H	 1.7094524482	-2.108595408	 1.993450178	 0.246281
