18
gdb 106167	2.90404	1.52264	1.50499	1.1119	70.58	-0.2225	0.0541	0.2766	973.0646	0.14906	-439.004013	-438.996721	-438.995777	-439.035775	28.909	
O	-0.0363494389	 1.4144466065	-0.181273579	-0.416967
C	 0.0513503822	 0.0203566319	 0.0527708614	-0.214083
C	-1.3249604964	-0.566331319	 0.1474910628	 0.335707
C	-2.4348965631	-0.3702642979	 1.2125004547	 0.048165
C	-3.2620893049	 0.3172876185	 0.1163518084	-0.187797
N	-2.3207012089	-0.1691638274	-0.9618553878	-0.219628
C	-2.5586680057	-1.639540193	-1.2125531678	-0.189445
C	-1.8434355739	-2.025703778	 0.0938815602	 0.017901
O	-2.6891490642	-1.7965931829	 1.2439586086	-0.306343
H	-0.6277673865	 1.5084925424	-0.9407630602	 0.294429
H	 0.6156433175	-0.4900924075	-0.7457827448	 0.093127
H	 0.6037354095	-0.1199144008	 0.9881530224	 0.119483
H	-2.3410961091	 0.0590005568	 2.2120298876	 0.087868
H	-4.3032119416	 0.0025941555	 0.0046350003	 0.111601
H	-3.2063776555	 1.4086037496	 0.1748616805	 0.11576
H	-3.6070391696	-1.9337545561	-1.3118158913	 0.114083
H	-2.0046566096	-1.9490966102	-2.1050699534	 0.11191
H	-1.2680989912	-2.9507830582	 0.1758398775	 0.084229
