14
gdb 130419	4.3078	1.00542	0.82663	2.3852	72.63	-0.2538	-0.0457	0.2081	1319.1445	0.10075	-432.823363	-432.815057	-432.814113	-432.857026	29.537	
N	 0.1429991094	 1.47485128	 0.1329429513	-0.507508
C	 0.3008238648	 0.0517680663	-0.1469785537	-0.288841
C	 0.8512017266	-0.6446097711	 1.0541116111	 0.445318
N	 0.659804446	-0.3482907699	 2.3016885363	-0.355396
C	 1.3598706704	-1.3509799142	 2.946235558	 0.191449
N	 1.9424102794	-2.2127330373	 2.1410803106	-0.175106
O	 1.6041334306	-1.7376097842	 0.8738273352	-0.18833
C	 1.4523719601	-1.4584819637	 4.356427739	 0.27824
C	 1.5252487682	-1.5427688529	 5.5525087416	-0.364778
H	-0.4214174803	 1.9051476871	-0.5915997154	 0.236881
H	-0.3504213692	 1.5917268141	 1.0127264752	 0.252482
H	-0.6300520345	-0.4757984415	-0.4255314801	 0.124668
H	 0.998451132	-0.0920097836	-0.9793909804	 0.144183
H	 1.5916354866	-1.6176851294	 6.6102467913	 0.206739
