19
gdb 105314	2.41044	1.46741	1.1266	4.274	78.85	-0.2533	0.0272	0.2805	1149.8036	0.159495	-382.038729	-382.030082	-382.029138	-382.071935	32.667	
C	 0.062078832	 1.5537273374	-0.1021626577	-0.396474
C	 0.0192215162	 0.0380121059	 0.1149216865	-0.24768
C	-1.3987869584	-0.5559728835	 0.0240602667	 0.129891
C	-2.1348554245	-0.5840541274	-1.3647640558	-0.207974
N	-2.3611252876	-2.0671729544	-1.2953490748	-0.117689
C	-1.0193376306	-2.6713011875	-1.2604981943	-0.254621
C	-1.5495468372	-2.0911744235	-0.0126163067	-0.062817
C	-2.2534692471	 0.0237389897	 1.0591185204	 0.265345
N	-2.9123519569	 0.4894818494	 1.8874491001	-0.3493
H	 1.0904143409	 1.9203398502	-0.0408421463	 0.123449
H	-0.330246206	 1.8266825186	-1.0877888856	 0.12134
H	-0.5298513129	 2.0798663155	 0.6523083806	 0.147929
H	 0.6453679193	-0.4618213157	-0.6306920689	 0.105079
H	 0.4383214297	-0.2128100851	 1.0963391891	 0.119455
H	-3.0844069737	-0.0496912275	-1.372416548	 0.141861
H	-1.5276503943	-0.2676325718	-2.2193759483	 0.112926
H	-1.0413663646	-3.7536090731	-1.3419335233	 0.133788
H	-0.2062512688	-2.1936525248	-1.8018789697	 0.117614
H	-1.8440294155	-2.6915474624	 0.841335026	 0.117879
