22
gdb 111491	2.41143	1.4647	1.04962	1.2995	80.97	-0.2354	0.0722	0.3076	1207.6579	0.195545	-404.327437	-404.318378	-404.317434	-404.361334	34.931	
C	-1.0789072792	 0.9795099921	-0.0640073545	-0.397899
C	 0.0223137908	-0.0793384544	-0.1187321739	 0.034454
C	 1.175371429	 0.2687005903	-1.1032436917	-0.224834
C	 2.3898866612	-0.4773724088	-0.5692032626	-0.038103
N	 3.0315736831	 0.2218052373	 0.5650162925	-0.333022
C	 2.1126669697	-0.9139274954	 0.8221888808	-0.072524
C	 0.7081090182	-0.4753697624	 1.2356954802	 0.004311
C	 0.7476391528	 0.6033173514	 2.3200215875	-0.086964
O	-0.5466594495	 0.6848974872	 2.9088676505	-0.425045
H	-0.6898776196	 1.9464764659	 0.2720615251	 0.109448
H	-1.5080622576	 1.1284493849	-1.061329655	 0.099648
H	-1.8804081827	 0.692232358	 0.6197396097	 0.126695
H	-0.4296591512	-1.0070336279	-0.4935195816	 0.070751
H	 0.9259814044	-0.0316527163	-2.1256726318	 0.09248
H	 1.3765889348	 1.3457556497	-1.1170803866	 0.104847
H	 3.0160604541	-1.0606762375	-1.2367503261	 0.08244
H	 3.9909523251	-0.103448349	 0.6619356462	 0.226131
H	 2.5309751444	-1.8277616753	 1.2329964264	 0.081218
H	 0.174057802	-1.3253501265	 1.6748547673	 0.077697
H	 1.5013687714	 0.3244312578	 3.0732895859	 0.081215
H	 1.0619951724	 1.5646346542	 1.8951206774	 0.1039
H	-0.5620676636	 1.4510141047	 3.4894540944	 0.283157
