22
gdb 103302	2.46937	1.34401	1.31721	1.458	82.13	-0.2372	0.071	0.3082	1155.6451	0.19342	-404.271258	-404.26181	-404.260866	-404.305127	36.545	
C	 0.0309320276	 1.4272661228	 0.1741620023	-0.379434
C	-0.2533169421	-0.0458663414	-0.1494250603	-0.288981
C	 0.5921334126	-0.5735835723	-1.3164100459	 0.38053
C	 0.1100573683	 0.0610795621	-2.6358493403	-0.491232
N	 2.1509933	-0.5032827355	-1.1167936717	-0.174149
C	 1.9981046388	-1.694184888	-0.160809136	-0.250413
C	 1.0499102067	-2.0555706612	-1.3337408029	 0.298284
O	 0.1804127661	-3.1226666924	-1.4982984345	-0.473603
C	 2.2302089704	-1.574129144	-2.2172390083	-0.246362
H	 1.0780257209	 1.5655988458	 0.4578933565	 0.135393
H	-0.1645653835	 2.0758839874	-0.6855198218	 0.116841
H	-0.5993076358	 1.7713219679	 0.9997710831	 0.109163
H	-0.1263754517	-0.6429682344	 0.7557082569	 0.098761
H	-1.3057471445	-0.1688644044	-0.4317290806	 0.103936
H	 0.8374616103	 0.7884686604	-3.0088229151	 0.134582
H	-0.0587873496	-0.6839409232	-3.4173181259	 0.128381
H	-0.8334887598	 0.5910772335	-2.48912938	 0.117897
H	 2.9198068077	-2.2743360028	-0.0655585072	 0.092555
H	 1.5954833346	-1.4498706884	 0.8192682224	 0.105825
H	 0.6892291445	-3.9408662908	-1.5141947728	 0.281538
H	 2.0393043711	-1.209874435	-3.2244836603	 0.108163
H	 3.1601365975	-2.1475713459	-2.1779198476	 0.092327
