16
gdb 55201	3.36725	1.22808	0.9926	4.4984	65.73	-0.2308	0.0255	0.2563	1162.1314	0.125733	-471.262041	-471.253397	-471.252452	-471.296147	31.725	
N	 0.6617130022	-0.0714382677	 0.7215486625	-0.517999
C	-0.1682269771	 0.3924090667	-0.2454794373	 0.365915
O	-0.0286431321	 1.4520949233	-0.8245555314	-0.364404
C	-1.3573420917	-0.5126744815	-0.5801396943	-0.012443
C	-1.441899724	-0.8746162935	-2.0925488629	-0.189597
N	-1.1736317076	-2.3119927581	-2.1442600077	-0.333556
C	-1.1255214466	-2.7128503908	-0.9398927492	 0.468071
N	-1.0044005091	-4.0019519627	-0.4987659938	-0.575905
O	-1.2687488907	-1.798416521	 0.0758159382	-0.275055
H	 1.4433530885	 0.495466079	 1.0045331666	 0.264505
H	 0.4745367977	-0.946891755	 1.1774463461	 0.265339
H	-2.2580208728	-0.0112833626	-0.2163447241	 0.124439
H	-2.4332851042	-0.6542428718	-2.5042152595	 0.113624
H	-0.7130036259	-0.3031074496	-2.6731819133	 0.13601
H	-0.683025573	-4.6461020184	-1.2045328293	 0.271804
H	-0.5796513836	-4.1187255662	 0.4077446995	 0.259252
