17
gdb 52917	2.59836	1.02954	0.8392	3.6799	78.88	-0.25	-0.035	0.215	1412.8089	0.132936	-421.783926	-421.774088	-421.773143	-421.822114	32.913	
C	 0.1002141332	 1.6308545202	 0.1146576729	-0.501932
C	 0.0694165006	 0.1762332988	 0.0815679812	 0.123328
C	 0.029298822	-1.0281392573	 0.0631959442	-0.040001
C	 0.0168909159	-2.4744990641	 0.0072380248	 0.000531
C	 0.1089729695	-3.2520338964	 1.3693744863	-0.107225
O	-1.0742622776	-3.9975530067	 1.070776707	-0.263291
C	-1.3377022826	-3.2207017141	-0.1151764354	-0.113064
C	 1.0803318277	-2.9680463336	-0.9729703518	 0.109959
O	 0.8995877965	-3.8155734942	-1.8048362172	-0.240107
H	 1.1196012575	 2.0012289789	 0.2678204323	 0.154186
H	-0.2706764713	 2.0563312245	-0.824069122	 0.155628
H	-0.5216454592	 2.0219195523	 0.9271483999	 0.154953
H	 0.9897998575	-3.8927618109	 1.5005413769	 0.115603
H	-0.005602087	-2.598630883	 2.2423480254	 0.113738
H	-2.2139296136	-2.5738558963	-0.0024593361	 0.108792
H	-1.4259541632	-3.8449651251	-1.0083205883	 0.135408
H	 2.0678241641	-2.4754786229	-0.8408496699	 0.093495
