18
gdb 66488	2.95879	1.77129	1.40137	0.4188	74.38	-0.215	0.0723	0.2873	964.0943	0.147832	-401.850316	-401.84305	-401.842105	-401.881418	30.039	
C	-0.0113265228	 1.5037979323	 0.0262666967	-0.515493
C	-0.0155425851	-0.00091019	-0.0370745358	 0.335429
C	 0.2903419961	-0.8382251522	-1.299767371	-0.218521
N	-0.4855028124	-1.9735825661	-0.6757861266	-0.154256
C	 0.2365829855	-2.2478140552	 0.6020178266	-0.133021
C	 0.5803304146	-0.8309960722	 1.1300326198	-0.190581
C	-0.7256381658	-1.5011788192	 1.477108192	 0.384732
O	-1.2731620025	-1.7465509196	 2.7073929907	-0.458516
C	-1.2768669932	-0.928236795	 0.139227875	-0.16445
H	 1.0092346697	 1.8985557398	-0.0424304618	 0.120029
H	-0.5930133421	 1.9380788568	-0.7942386068	 0.116167
H	-0.4399105451	 1.8601041528	 0.9694072822	 0.125868
H	-0.244956551	-0.4794632211	-2.1848736476	 0.102563
H	 1.3290807136	-1.0671951563	-1.5577619192	 0.097909
H	 0.8479534721	-3.1244237309	 0.7736029041	 0.093744
H	 1.4377001568	-0.6261783476	 1.7571871643	 0.090738
H	-1.8071935961	-2.5476334887	 2.6494874675	 0.292198
H	-2.2978991323	-0.6923277476	-0.1580789502	 0.075459
