17
gdb 84527	2.33952	1.75349	1.43604	1.648	78.12	-0.2369	-0.0081	0.2288	987.6935	0.136006	-380.816153	-380.808153	-380.807209	-380.848389	30.865	
C	-0.3868611585	 1.4921232574	-0.0197656819	-0.403694
C	-0.0205410524	 0.0085603801	 0.0218091777	 0.02413
N	 0.6704614963	-0.4355291461	-1.2088214572	-0.198971
C	 1.6932104938	-1.097214248	-0.8542384247	 0.03414
N	 1.9334453821	-1.3144549546	 0.5444367794	-0.14523
C	 2.3345354474	-0.0372609707	 1.2382351594	-0.222684
C	 2.9134041558	 1.0622511994	 0.5216695028	 0.372433
C	 3.470922186	 1.9746779934	-0.0292096465	-0.450141
C	 0.8985443617	-0.458757217	 1.1574290069	-0.063707
H	 0.5054809004	 2.115638663	-0.095440993	 0.141987
H	-1.0246962626	 1.6913667975	-0.88465599	 0.129926
H	-0.9345793326	 1.7740000787	 0.8850244438	 0.113734
H	-0.952016038	-0.5702815034	 0.0932806791	 0.098358
H	 2.3914229706	-1.5428724368	-1.5558523458	 0.130613
H	 2.8311916827	-0.2468335949	 2.1828668233	 0.127825
H	 3.9426169598	 2.7853287163	-0.5277821388	 0.20609
H	 0.4478432674	-0.8361232041	 2.0701369557	 0.105192
