18
gdb 110960	2.87935	1.28581	1.0751	1.8934	74.27	-0.2415	-0.0005	0.241	1178.3981	0.145872	-439.018472	-439.009492	-439.008548	-439.052315	32.617	
C	 0.2219507304	 1.2891578051	 0.2251641506	-0.242519
O	-0.3046272629	 0.0837774519	-0.2906411205	-0.246928
C	 0.4800516826	-0.4829370972	-1.2826378123	 0.17213
C	 1.742593329	-1.3227646037	-0.8826359568	-0.21332
N	 0.7647264558	-2.3421579065	-0.3033502977	-0.329245
C	 0.0956936954	-1.9477715675	-1.6367418091	 0.139051
C	-1.2260187846	-2.4884427513	-2.0798216671	-0.526727
C	 1.5287544834	-2.0850574364	-2.2044446447	 0.392803
O	 2.1352050961	-2.6779484424	-3.0451799133	-0.331145
H	 1.1785656089	 1.127792563	 0.7420161274	 0.114001
H	 0.3757289137	 2.0364944398	-0.5685773023	 0.10799
H	-0.5062067184	 1.67660592	 0.9406707684	 0.134599
H	 0.6258305948	 0.1998888865	-2.1316041881	 0.079635
H	 2.6477401765	-1.0262690377	-0.358338465	 0.1004
H	 1.1536634607	-3.2884324144	-0.360298166	 0.2302
H	-2.0070238058	-2.2202572305	-1.3628969225	 0.149349
H	-1.4935676072	-2.0751018189	-3.0571994762	 0.136191
H	-1.1929037585	-3.5783059601	-2.1729193248	 0.133534
