21
gdb 107650	2.9705	1.27195	1.04342	1.6762	83.9	-0.234	0.016	0.2499	1219.2445	0.184127	-387.086689	-387.078078	-387.077134	-387.119933	33.546	
O	 0.1413743664	 1.3491949169	 0.5077794989	-0.419617
C	 0.0027628803	 0.0517182902	-0.0564029054	-0.147413
C	-1.4236728958	-0.473941388	-0.029217044	 0.325131
C	-1.8988432792	-1.1277334935	 1.2513281758	-0.322522
C	-1.6249112541	-1.9721873893	 0.0262326776	-0.077965
C	-2.7800425145	-2.5748209637	-0.7729244063	-0.229133
C	-3.0739542944	-1.7907943769	-2.0671984562	-0.257352
C	-3.134654383	-0.3042275639	-1.8077090501	-0.052348
C	-2.3984584275	 0.2823658305	-0.8625950271	-0.16642
H	-0.2454185035	 1.9804882002	-0.1060324124	 0.284659
H	 0.3868602516	 0.0292651126	-1.0882272892	 0.088125
H	 0.6429379907	-0.6023258137	 0.5457812704	 0.102049
H	-1.2030861865	-1.1729610155	 2.0831863795	 0.111358
H	-2.935900664	-0.9865831238	 1.5380190467	 0.109554
H	-0.718218341	-2.5703603424	 0.0559539558	 0.078954
H	-2.5625688659	-3.6213079397	-1.0104430051	 0.096688
H	-3.6891231426	-2.5802831756	-0.1611470051	 0.103771
H	-2.2987580291	-2.0020065379	-2.8183774826	 0.109643
H	-4.0158752668	-2.1367018773	-2.5070905552	 0.099782
H	-3.8139757228	 0.2897489394	-2.4138756968	 0.086532
H	-2.4870078382	 1.3526720715	-0.6846658493	 0.076525
