12
gdb 19583	3.64813	2.53686	2.11406	3.0219	52.63	-0.261	-0.0147	0.2463	654.783	0.083968	-418.413634	-418.408154	-418.407209	-418.443104	21.671	
O	 0.0053281962	-0.0358803678	 0.0637666972	-0.303305
C	-0.0141569667	 1.1386543963	-0.0832978411	 0.477685
C	-1.0399658952	 2.3121139814	 0.0138444202	-0.100501
O	-0.0280515247	 2.9091619553	 0.8933769138	-0.282058
C	 0.978231073	 2.3423322143	-0.0122216849	-0.100502
C	 0.6755257091	 3.0613727276	-1.3395593099	 0.039833
O	-0.0586941362	 2.2352420914	-2.2612698938	-0.242729
C	-0.7933017979	 3.0393656371	-1.3205979462	 0.039828
H	-2.0347092689	 2.2586169674	 0.4488851965	 0.109661
H	 1.9850324017	 2.3188066789	 0.396965821	 0.109661
H	 1.297173569	 3.8393288151	-1.7660615788	 0.126213
H	-1.4487718994	 3.798187243	-1.7306159239	 0.126213
