19
gdb 114368	2.83543	1.23472	1.14179	2.2938	70.38	-0.2515	0.0436	0.2951	1154.3327	0.15967	-460.117132	-460.108764	-460.10782	-460.15071	32.047	
O	-0.0185566591	 1.2267280866	-0.6113182628	-0.418982
C	 0.0521429759	-0.1383741666	-0.2373270161	-0.086074
C	-1.329462866	-0.6782799796	 0.0714379783	 0.127081
O	-2.1835902837	-0.6665538762	-1.1200980937	-0.3443
C	-2.6467233795	-2.011929415	-0.8412534038	 0.078795
C	-1.8702646078	-3.0371971125	-1.7121386355	 0.142839
O	-1.4473262005	-2.5533448142	-2.9536643298	-0.432615
C	-0.8139036997	-3.1819440808	-0.558566855	-0.290935
C	-1.6161535034	-2.1735578822	 0.3122779049	-0.122408
H	-0.6300658706	 1.2813839102	-1.3546573013	 0.29331
H	 0.5326391319	-0.741432014	-1.0211395202	 0.093592
H	 0.6797345929	-0.1896745123	 0.6595458906	 0.114918
H	-1.7884997388	-0.0417391075	 0.8395853907	 0.092783
H	-3.7347807923	-2.0655760337	-0.7600931251	 0.080419
H	-2.4253960453	-3.9643349053	-1.8842080444	 0.087663
H	-1.3750536247	-1.594223798	-2.842411873	 0.283267
H	-0.7878334182	-4.1857180785	-0.1279022659	 0.107703
H	 0.2052956758	-2.9008448041	-0.8298423651	 0.110881
H	-1.873436517	-2.4684680662	 1.327682197	 0.082062
