19
gdb 94085	4.43744	0.95553	0.83593	3.9835	72.46	-0.2581	-0.0335	0.2247	1380.2138	0.158334	-460.17149	-460.162588	-460.161644	-460.205658	32.472	
C	 0.0709096269	 1.5947515088	-0.098128395	-0.411919
C	 0.0228578853	 0.0670129248	-0.0751810028	 0.003813
C	 0.8607532037	-0.552121176	-1.2005222132	-0.08272
O	 0.8821804548	-1.9735969765	-1.095909942	-0.259491
C	 1.3653042063	-2.3897137772	 0.1533078328	 0.112199
O	 0.5705667641	-1.9291140708	 1.2131858413	-0.259489
C	 0.5294462347	-0.5048267926	 1.2545394666	-0.08272
C	 1.2684855206	-3.9154260832	 0.1696332538	 0.163206
O	 2.2125307326	-4.6419148196	 0.3109065904	-0.236563
H	 1.0946095579	 1.9640631068	 0.0329475631	 0.120888
H	-0.305419365	 1.9872164862	-1.0482763715	 0.123547
H	-0.5417936537	 2.0209528933	 0.7027334084	 0.123547
H	-1.0114765788	-0.2727550545	-0.2082168199	 0.092814
H	 0.4477522936	-0.3218682168	-2.1862136032	 0.117074
H	 1.8918789508	-0.1610361698	-1.1612142272	 0.093352
H	 2.4155670317	-2.0737429065	 0.2889525272	 0.073627
H	 1.5361143284	-0.1102522722	 1.4750915365	 0.093352
H	-0.1287903882	-0.2395657767	 2.0861250202	 0.117074
H	 0.2310412843	-4.2875574375	 0.0369056845	 0.09841
