20
gdb 55115	2.43303	1.44333	1.16551	3.3031	79.51	-0.2235	-0.0041	0.2195	1153.3199	0.169535	-403.12961	-403.120392	-403.119448	-403.16401	34.474	
C	 0.6395878754	 0.4910869039	-0.721956572	-0.490423
C	-0.2829820165	 0.240571979	 0.449867568	 0.381143
O	-0.0895024114	 0.7325546913	 1.5413657925	-0.320473
C	-1.4590978791	-0.7093129037	 0.2652163102	-0.120714
C	-2.0027415885	-1.1846150211	-1.1304649986	-0.263263
C	-1.6988186813	-2.6263874835	-0.7147387482	-0.104134
N	-0.2343269152	-2.6723114645	-0.4609576166	-0.36852
C	-1.1549843149	-2.1948881917	 0.6027791219	 0.333423
C	-1.1764994313	-2.7958798802	 1.9718540922	-0.504028
H	 0.9913945461	-0.4686328497	-1.1144041206	 0.166777
H	 0.098508918	 0.9909902915	-1.5339656842	 0.131055
H	 1.4764066849	 1.1145526651	-0.4039695413	 0.130233
H	-2.2688430294	-0.3493376831	 0.9041777571	 0.098232
H	-3.0679933207	-0.9733361609	-1.2424904541	 0.107876
H	-1.4690860962	-0.8408302584	-2.0188232173	 0.110256
H	-2.2371439009	-3.527437471	-0.9838134292	 0.095267
H	 0.0022477954	-3.6376046551	-0.2315968222	 0.226588
H	-0.3294652383	-2.4377683146	 2.5674439219	 0.145359
H	-2.0937549004	-2.5244264056	 2.5044720332	 0.129941
H	-1.1223625858	-3.8892063977	 1.9239537372	 0.115406
