17
gdb 66865	3.71425	1.78813	1.59084	3.9437	76.26	-0.2093	-0.0446	0.1647	881.3656	0.136758	-380.741629	-380.735049	-380.734105	-380.772079	27.695	
C	 0.0825525028	 1.5519302094	 0.0089069257	-0.520272
C	-0.0362241447	 0.0580676598	-0.0030609068	 0.330458
C	 0.999987376	-0.920556425	-0.5479915063	-0.065285
N	 0.491837256	-2.05461353	-1.2446121304	-0.139946
C	-0.7571366788	-2.0661532446	-0.9351095197	 0.073442
N	-1.1007015825	-3.0477560343	 0.1114982241	-0.340164
C	-0.876977798	-1.7437593495	 0.9581553121	-0.00325
C	 0.5134926462	-1.0191862551	 0.9375711367	-0.153918
C	-1.2826516115	-0.7961098576	-0.1841959743	-0.173104
H	 1.112587445	 1.8644862344	 0.2074634762	 0.126236
H	-0.2127500753	 1.976121873	-0.9575845212	 0.12993
H	-0.554746277	 1.9996813196	 0.7795756352	 0.123686
H	 2.0201159334	-0.5973480688	-0.7231880617	 0.101362
H	-2.1167202103	-3.1735663887	 0.1711729693	 0.222362
H	-1.39476372	-1.7600396266	 1.9173770136	 0.104709
H	 1.2122600166	-0.9404409693	 1.7590120179	 0.100024
H	-2.2958335577	-0.4351151666	-0.3388549006	 0.083731
