17
gdb 15051	2.69749	1.66763	1.16161	2.7131	68.9	-0.2542	0.0188	0.2731	1045.8515	0.14322	-360.011536	-360.003051	-360.002107	-360.044922	30.041	
C	-0.293048067	 1.5907118407	 0.0645836658	-0.330177
N	-0.4077584067	 0.1902386547	 0.474556044	-0.287849
C	-1.6090758078	-0.4804226945	-0.0080323367	-0.138406
C	-1.5656046972	-0.762635391	-1.4619884023	 0.265995
N	-1.4794979866	-0.9729587428	-2.595744197	-0.323223
C	-1.9127112424	-1.7644035071	 0.7682394527	 0.012761
C	-0.8373124934	-2.5929781194	 1.3593435968	-0.236596
N	-1.7202241792	-1.7785861918	 2.2175697801	-0.323541
H	 0.6458254149	 1.9956240496	 0.4503588453	 0.133094
H	-0.3150543792	 1.738842324	-1.0257968612	 0.12891
H	-1.1132258362	 2.1658940342	 0.5060542009	 0.134294
H	 0.4111775254	-0.3200685007	 0.1609504579	 0.238508
H	-2.4486572312	 0.2080468519	 0.1586163679	 0.136592
H	-2.8209216993	-2.2554099374	 0.4268926088	 0.112781
H	-0.9726638418	-3.6671058851	 1.4406269171	 0.127951
H	 0.1949166708	-2.2761719766	 1.2427683771	 0.109593
H	-1.2123235431	-0.9301242888	 2.4682792229	 0.239312
