15
gdb 14330	4.44001	1.85868	1.57135	5.1022	60.59	-0.2407	0.0166	0.2573	813.0746	0.121225	-399.820738	-399.814444	-399.8135	-399.851404	24.175	
O	 0.0294208309	-0.0249900025	 0.0180582151	-0.325068
C	-0.0474347819	 1.1658507988	 0.0496809441	 0.426642
C	-1.3020347256	 2.0335280974	 0.1691236812	-0.353783
C	-0.7608597878	 3.4290844036	 0.4246773242	-0.02293
N	-0.3660718743	 3.673464458	 1.8352904217	-0.318314
C	 1.0391229118	 3.9503902805	 1.4439519235	-0.18465
C	 0.7473125	 3.3486401646	 0.0554147995	 0.102043
O	 1.0621818066	 1.9643024727	-0.0504395998	-0.228167
H	-1.8628788459	 1.9579788303	-0.7688032309	 0.133809
H	-1.9316673775	 1.6595780047	 0.9778354602	 0.147843
H	-1.327005561	 4.23264232	-0.0555519573	 0.077238
H	-0.8503886864	 4.4323980745	 2.2990192798	 0.224828
H	 1.30133799	 5.0145584716	 1.3771964631	 0.099691
H	 1.7898419105	 3.429904687	 2.0462210628	 0.12338
H	 1.1327954905	 3.8662850988	-0.8231862771	 0.097438
