17
gdb 94130	1.9241	1.58149	1.25693	2.0112	80.81	-0.2581	-0.0032	0.2549	1117.8882	0.132157	-384.594762	-384.585314	-384.584369	-384.629136	34.858	
C	-0.4787250807	 1.3588725257	 0.0035830487	-0.42109
C	 0.084461485	-0.0449192778	-0.1058741738	-0.071282
C	 1.4625713075	-0.2519184965	-0.760498957	-0.084579
O	 1.9480822383	-1.0086806658	 0.3699618199	-0.299913
C	 0.7585963663	-0.7150189857	 1.1587869432	 0.045681
C	 1.0584240166	 0.18975196	 2.2676564405	 0.341139
C	 1.3097264399	 0.9479357841	 3.1654399262	-0.472104
C	 0.1033873597	-1.9256276613	 1.6426741172	 0.291024
C	-0.4598277211	-2.9208404622	 2.0113466988	-0.43737
H	 0.2496400105	 2.0483333856	 0.4386145567	 0.133323
H	-0.7552335251	 1.7314147787	-0.9886554841	 0.119886
H	-1.3764768858	 1.3772620105	 0.6293225933	 0.129835
H	-0.6612373626	-0.7319959197	-0.5098878467	 0.102982
H	 1.4883435937	-0.8402335396	-1.6834006523	 0.111123
H	 2.0380370579	 0.671970732	-0.9035508394	 0.105207
H	 1.5358605085	 1.6057186833	 3.9684285507	 0.203782
H	-0.9460496585	-3.8028637113	 2.3490337281	 0.202357
