14
gdb 130623	4.82188	1.27655	1.02212	3.4433	67.52	-0.2543	-0.0395	0.2148	1062.6616	0.10339	-432.887723	-432.881061	-432.880117	-432.919135	25.489	
O	 0.0120963587	 0.0538291917	 0.0042833849	-0.28381
C	-0.0072830201	 1.2509286238	 0.0105636624	 0.407016
C	-1.3220347895	 2.1053624924	 0.0331849553	-0.472195
C	-0.7528245721	 3.4780223767	 0.0321654613	 0.343464
C	 0.6165991013	 3.5284810898	 0.0135118878	 0.294254
C	 1.2450541612	 2.1754214347	-0.0018880253	-0.456885
N	 1.0253130941	 4.8231722874	 0.014285869	-0.283919
N	-0.0348687229	 5.5841986844	 0.032644952	-0.117204
N	-1.1283684708	 4.7715326818	 0.04375131	-0.325933
H	-1.9330514294	 1.8551949335	-0.8417111777	 0.152897
H	-1.9084179367	 1.8463426123	 0.9222541229	 0.152907
H	 1.871120621	 1.9497629453	 0.8687836358	 0.153616
H	 1.8471282355	 1.9586060221	-0.8915144358	 0.153612
H	-2.0432214804	 5.1923795941	 0.0584719975	 0.28218
