17
gdb 127098	3.67295	1.30349	0.97477	4.1169	80.77	-0.2212	-0.0572	0.164	1182.09	0.136931	-414.191618	-414.183034	-414.182089	-414.225513	30.26	
C	-0.0239033238	 1.4288349088	 0.0388941112	-0.340458
N	 0.0930006309	-0.0168747357	-0.0069228117	-0.13153
C	-0.1088212132	-0.7542750613	 1.2336907383	-0.341164
C	 0.0433623142	-0.6701892082	-1.2064410165	 0.432056
C	 0.0483511755	 0.006441526	-2.4550057561	-0.076067
N	 0.0559679886	-0.6653160212	-3.5865729925	-0.22999
C	 0.0471537797	-2.0022015838	-3.4695123729	 0.075459
N	 0.0023866652	-2.6830000594	-2.3320453044	-0.175414
N	-0.0104187736	-2.0145764486	-1.1872429108	-0.282872
H	 0.7281077977	 1.9087048687	-0.5961442548	 0.140373
H	-1.016694827	 1.7883553566	-0.2706047479	 0.128596
H	 0.1504824784	 1.7603834837	 1.0637043499	 0.136256
H	-1.1721840514	-0.826169543	 1.5038621599	 0.124477
H	 0.2806492497	-1.7643448481	 1.1218885755	 0.17406
H	 0.4224733641	-0.2436373635	 2.0413174523	 0.122968
H	 0.0369279322	 1.089922124	-2.5216749284	 0.11624
H	 0.062055393	-2.588937615	-4.381599681	 0.127011
