15
gdb 125407	2.98121	1.26627	0.97709	3.4277	70.56	-0.2682	-0.0241	0.2441	1166.2637	0.112711	-416.823475	-416.815222	-416.814278	-416.857129	29.24	
C	 0.320066446	 1.4516383292	 0.1647730642	-0.520139
C	 0.0954719272	-0.0232778583	 0.0543225937	 0.074623
C	-0.0786691323	-0.7866773299	-1.0560701476	 0.010172
O	-0.2506556334	-2.07941291	-0.735080922	-0.164193
N	-0.189410907	-2.2077835083	 0.6414340722	-0.195027
C	 0.012584559	-0.9960759874	 1.1001126464	 0.330996
C	 0.1024747323	-0.7937690653	 2.5892544514	-0.444017
C	 1.3470381784	-0.1388935213	 2.9987223448	 0.268609
N	 2.3236247818	 0.3934111666	 3.3106944053	-0.30817
H	 1.2672233427	 1.6751143109	 0.6658559294	 0.164885
H	 0.3413823813	 1.9169962263	-0.823626039	 0.135167
H	-0.4743698691	 1.9374204037	 0.7426045322	 0.136218
H	-0.1019164262	-0.5567433847	-2.1103331058	 0.156054
H	-0.7370938841	-0.1829489645	 2.9434018016	 0.169239
H	 0.0252069335	-1.768023487	 3.0807988534	 0.185583
