20
gdb 13819	3.47856	1.26635	1.15215	1.791	71.38	-0.2603	0.0806	0.3409	1160.3145	0.175343	-386.127469	-386.118245	-386.117301	-386.161502	33.802	
C	-0.0006578861	 1.1886683051	 0.5427001101	-0.381592
C	-0.0856710102	 0.2327504753	-0.654580955	-0.23553
C	-1.3669842766	-0.5682890723	-0.6275160113	 0.078935
O	-1.5219130751	-1.6762953757	-1.5388229462	-0.280721
C	-1.512388213	-1.9447552555	-0.1268107134	 0.028328
C	-0.3682550156	-2.8413952336	 0.3497499504	 0.098925
C	-0.8492231154	-4.287399488	 0.5152018617	-0.393934
O	 0.7332509366	-2.7764167646	-0.5399690909	-0.428259
H	 0.9085582437	 1.7939597206	 0.4910372223	 0.121486
H	-0.8552708457	 1.8739097682	 0.5718679909	 0.115928
H	 0.0170247979	 0.6397098016	 1.4899603489	 0.120847
H	-0.0627079443	 0.8097932783	-1.5879067336	 0.10398
H	 0.7708025936	-0.4433969573	-0.6651513782	 0.132735
H	-2.2690035269	 0.0475493627	-0.5774074477	 0.09014
H	-2.4884780766	-2.2257495727	 0.273149572	 0.090732
H	-0.0112662437	-2.4725647337	 1.3208740293	 0.09136
H	-1.630074656	-4.3616117604	 1.2801433217	 0.109281
H	-1.2546916745	-4.6679654219	-0.4286020391	 0.122485
H	-0.0112791123	-4.9234103524	 0.8107054361	 0.125784
H	 0.3479800402	-2.6254712938	-1.415277668	 0.28909
