25
gdb 96115	2.05619	1.68571	1.16342	0.1951	91.79	-0.2524	0.0817	0.3341	1215.1398	0.230838	-352.374058	-352.364933	-352.363989	-352.407086	36.96	
C	-0.0714704214	 1.5465034156	-0.0083800774	-0.403254
C	 0.0417603685	 0.0151716	 0.0156972628	-0.023618
C	 0.6587223105	-0.5110782405	-1.293110061	-0.209098
C	 0.8702206217	-2.0261511952	-1.2489080848	-0.200524
C	 1.9073320381	-2.4131246895	-0.1839997825	-0.222599
C	 1.692416883	-1.6939247732	 1.1472341858	-0.069947
C	 2.2626527691	-0.3095774142	 1.3719269902	-0.327459
C	 0.7675852228	-0.49272804	 1.2662223078	 0.372494
C	-0.0341086625	-0.3749322065	 2.5505435901	-0.469061
H	 0.9207503513	 2.0101909189	-0.0366038206	 0.113432
H	-0.6224868308	 1.8808475379	-0.8941799058	 0.105836
H	-0.5946290612	 1.9335612808	 0.8709806141	 0.110961
H	-0.9794993899	-0.3939099648	 0.0638002724	 0.063834
H	-0.0017012292	-0.2393127106	-2.1248878011	 0.089505
H	 1.6160618619	-0.0075891215	-1.4901651538	 0.090182
H	-0.0889686939	-2.5104729701	-1.0212204923	 0.09136
H	 1.1850670549	-2.4015450551	-2.2290907353	 0.087193
H	 1.8770264116	-3.4956297596	-0.0204684954	 0.09357
H	 2.9135746942	-2.1939720883	-0.5646173316	 0.095964
H	 1.7072889619	-2.3432761541	 2.018353005	 0.074313
H	 2.6843816854	-0.0688202591	 2.342675316	 0.099841
H	 2.7888403643	 0.147997096	 0.5393371787	 0.103007
H	-0.2858900261	 0.6661572902	 2.7819897806	 0.114518
H	-0.9742913974	-0.9357811854	 2.481920686	 0.110357
H	 0.5272659334	-0.7711457018	 3.402747822	 0.109197
