19
gdb 107090	2.45878	1.30532	1.00836	1.4811	81.79	-0.2528	0.0478	0.3006	1227.4248	0.158132	-385.822361	-385.813469	-385.812524	-385.856059	34.149	
O	 0.3528149095	 0.6119257165	-0.9500469822	-0.413948
C	-0.2431900912	 0.3637491631	 0.315022766	-0.173307
C	-1.5070248409	-0.4368854037	 0.2113784062	 0.347347
C	-2.0165202019	-1.3335573813	 1.3029439961	-0.355241
C	-1.6795527506	-1.9441410101	-0.0289352889	-0.101516
C	-2.8165088346	-1.6804979806	-1.039761815	-0.169992
C	-2.6376102129	-0.1339779276	-0.782075647	-0.306361
C	-2.5192089863	-2.0956724061	-2.3968269779	 0.297768
C	-2.2441831834	-2.4356514349	-3.517482484	-0.447215
H	 0.4508635585	-0.2388284535	-1.3922426997	 0.282871
H	 0.45665502	-0.1436698972	 0.999701121	 0.084441
H	-0.447146125	 1.3541651495	 0.7397506757	 0.112736
H	-1.3102821224	-1.5529981459	 2.0982782005	 0.114341
H	-3.0508238518	-1.2649434444	 1.6341655612	 0.107356
H	-0.9311959375	-2.7202555757	-0.1375644217	 0.095616
H	-3.7873208644	-2.0847477402	-0.7296545674	 0.10004
H	-3.5109223603	 0.3908437637	-0.3825851946	 0.097683
H	-2.2775176978	 0.3793934274	-1.6734780899	 0.132481
H	-2.018901927	-2.738455509	-4.5099040682	 0.194901
