21
gdb 115294	2.71851	1.24653	0.9369	1.1667	83.11	-0.2349	0.0223	0.2573	1331.2973	0.180432	-424.241756	-424.231607	-424.230663	-424.276935	36.08	
C	 0.0426614136	 1.2824234964	-0.2664075636	-0.236914
O	-0.0281090664	-0.1266077943	-0.1567666202	-0.241829
C	-1.3149475095	-0.6023766859	 0.1584625011	 0.137965
O	-2.2418960993	-0.3991810118	-0.8908144139	-0.269613
C	-2.5482690745	-1.6470739998	-1.5022146778	-0.162603
C	-1.927963755	-2.6971028964	-0.6172645748	 0.188918
C	-2.1137143516	-4.1525992385	-0.9004795762	-0.499222
C	-1.2348266969	-2.0973493846	 0.3528526133	 0.184928
C	-0.4107669529	-2.6718117664	 1.4575812393	-0.503607
H	 1.0875472883	 1.5384496686	-0.456363202	 0.122424
H	-0.5775924835	 1.6528613195	-1.0914692505	 0.124615
H	-0.2815426184	 1.7741761336	 0.6641030727	 0.101437
H	-1.6869641608	-0.0471121884	 1.0380598611	 0.060344
H	-3.6412714452	-1.7457668637	-1.5737556641	 0.105196
H	-2.1499379288	-1.6904424748	-2.5288802291	 0.104863
H	-3.1758878852	-4.4275670096	-0.8828085578	 0.129297
H	-1.7407219402	-4.4097489452	-1.9000420092	 0.131863
H	-1.5915410816	-4.7819514263	-0.1762177742	 0.129411
H	-0.3936651636	-3.7641258991	 1.4365018755	 0.121333
H	 0.6201345668	-2.3076767679	 1.3879884037	 0.146227
H	-0.7910742653	-2.3599124556	 2.4388671965	 0.124967
