15
gdb 52361	11.73585	0.41661	0.41486	2.0651	75.73	-0.2764	-0.0722	0.2042	2416.3131	0.109235	-457.757513	-457.747564	-457.74662	-457.795545	31.654	
O	 0.2073213821	 0.0173845872	-0.2823539699	-0.261861
C	 0.201481735	 1.2087908816	-0.2997812857	 0.170896
O	 0.87696652	 1.9539798546	 0.6024382002	-0.170856
C	 0.8321256798	 3.3736776431	 0.4751574584	-0.082974
C	 2.2199036709	 3.892922379	 0.0676000061	-0.354058
C	 2.26633219	 5.3439125286	-0.0017947556	 0.075713
C	 2.2870567127	 6.5501635238	-0.0561965101	 0.043108
C	 2.294163007	 7.9911635559	-0.1106905616	 0.022048
O	 3.2095228449	 8.653055859	-0.5411174873	-0.22196
H	-0.3501925229	 1.826655574	-1.0356831692	 0.083431
H	 0.0778205867	 3.6734741181	-0.2621787348	 0.127239
H	 0.5423332673	 3.7803569627	 1.4472390029	 0.143177
H	 2.960704782	 3.5315721096	 0.7910708529	 0.167717
H	 2.5014319114	 3.4638636159	-0.902112992	 0.155851
H	 1.3713288233	 8.4640111469	 0.2821907557	 0.102528
