17
gdb 47309	2.63729	1.49139	1.1363	2.5081	68.02	-0.2514	-0.035	0.2164	1079.5697	0.136037	-459.010683	-459.002568	-459.001624	-459.043989	30.105	
O	 0.0973995219	 0.0931406855	-0.7254513954	-0.289554
C	 0.0149227724	 1.1304381744	-0.1137447937	 0.382166
C	-1.3529296423	 1.7567112513	 0.2056952137	-0.318293
C	-1.5885959735	 2.3017224193	 1.6362179508	-0.213989
C	-1.0006744731	 3.7137590515	 1.8799738367	-0.304931
C	 0.3204596233	 3.8153564924	 1.1586969266	 0.413982
O	 0.6562214425	 4.6627707438	 0.3823410441	-0.30917
O	 1.0849948746	 2.7006518574	 1.4281911588	-0.242127
C	 1.3009288377	 1.8675044975	 0.2917899342	-0.200868
H	-1.5115018817	 2.5653249704	-0.5239620988	 0.138228
H	-2.0816439779	 0.9782966835	-0.0327834658	 0.131515
H	-2.6674617857	 2.3393741629	 1.8159492599	 0.116474
H	-1.1732074684	 1.6014312605	 2.3656497978	 0.125073
H	-1.6540077443	 4.5042716412	 1.5032681917	 0.132709
H	-0.8545375264	 3.8776384216	 2.9530060796	 0.138237
H	 2.0621509139	 1.134109031	 0.5596380409	 0.147844
H	 1.6625711771	 2.4558872161	-0.5616786812	 0.152703
