20
gdb 95005	3.02813	1.69406	1.38342	1.3056	78.6	-0.2307	0.087	0.3177	1002.1522	0.173502	-403.080003	-403.072766	-403.071822	-403.111388	29.508	
C	-0.1674985122	 1.5689897926	 0.0485445096	-0.399512
C	 0.0409216443	 0.053877025	-0.0394931909	 0.083952
O	 0.7161978706	-0.3223004691	-1.2370632344	-0.266403
C	 2.1256839735	-0.293691937	-1.1108531415	-0.120137
C	 2.5827995915	-0.8095045446	 0.2362622021	 0.028343
C	 1.6535590217	-1.7581130719	 1.0372432268	-0.091079
C	 2.3863100361	-1.198587375	 2.2696031898	-0.174787
N	 2.1754533259	 0.0745707468	 1.4390532605	-0.169268
C	 0.759468616	-0.4995359399	 1.1805184317	 0.032771
H	 0.7858244112	 2.0885097092	 0.1752909856	 0.137506
H	-0.6543387419	 1.9306301151	-0.8608186129	 0.120268
H	-0.8015132739	 1.8210118746	 0.9052091822	 0.112349
H	-0.9375497087	-0.4392515437	-0.1062321079	 0.08484
H	 2.5190981053	-0.9282100826	-1.9125663768	 0.109928
H	 2.5277499535	 0.7220942648	-1.2606220875	 0.1016
H	 3.6542935639	-1.0354833146	 0.23966557	 0.072081
H	 1.3598830433	-2.7884936479	 0.8100969897	 0.067737
H	 1.8528306937	-1.1858359848	 3.224552528	 0.099129
H	 3.4409729971	-1.4567007548	 2.4030851774	 0.099045
H	 0.1279855893	-0.4383334723	 2.0730802586	 0.071637
