17
gdb 81110	2.5361	1.72915	1.26207	4.5176	77.15	-0.2412	-0.0184	0.2228	1017.8136	0.137263	-380.835939	-380.828335	-380.82739	-380.867754	30.035	
C	-0.1415457712	 1.5340766528	-0.0337968958	-0.429679
C	 0.0028809915	 0.0243838408	-0.0228957567	 0.019423
C	 1.2914985211	-0.6035425144	-0.6827252046	-0.085193
N	 2.0143631847	-0.1691850157	 0.564131848	-0.321948
C	 0.7449299967	-0.6333593103	 1.2224623003	 0.192909
C	 0.6559558027	-2.1295995122	 0.8368896844	-0.13575
C	 1.0282377147	-2.1018073564	-0.4449807058	-0.099013
C	 0.4799736316	-0.2404451616	 2.5914276442	 0.164185
N	 0.2444346903	 0.0721113153	 3.6789004129	-0.342106
H	 0.8004510585	 2.0254787174	 0.2137676118	 0.148511
H	-0.4672170539	 1.8725863375	-1.0234868286	 0.119094
H	-0.9020281567	 1.8505868824	 0.6880459267	 0.133368
H	-0.9299716241	-0.4774756915	-0.2830941256	 0.088235
H	 1.6859733381	-0.2659353214	-1.6400134927	 0.082758
H	 2.7934719231	-0.7893894963	 0.7901536543	 0.214014
H	 0.3244227838	-2.9339455285	 1.4761006116	 0.130382
H	 1.0887843192	-2.9000218381	-1.1703966644	 0.12081
