19
gdb 30254	2.66116	1.53919	1.04306	3.7892	83.85	-0.2058	0.0436	0.2495	1178.5376	0.160589	-382.085728	-382.07717	-382.076226	-382.119296	31.479	
C	-0.3705997902	 1.4584925885	 0.0696044675	-0.395443
C	-0.0366820466	-0.0270295947	-0.0097924438	-0.164354
C	 1.1428772299	-0.4335725471	-0.9819565339	-0.187681
N	 1.8415633368	-0.9536601403	 0.2132197039	-0.004449
C	 2.8403906738	-1.5578778453	 0.9078223488	-0.04666
N	 2.5103322048	-1.611512035	 2.1868368387	-0.311635
C	 1.2598071636	-1.0326649884	 2.33466427	 0.104079
C	 0.5944431006	-0.9362532501	 3.6686802587	-0.489861
C	 0.846833522	-0.6222529719	 1.0889157255	 0.273344
H	 0.5304117585	 2.0553991941	 0.2425419626	 0.125175
H	-0.8436538847	 1.8052538396	-0.8554481628	 0.117515
H	-1.0642293398	 1.6538370967	 0.8933110873	 0.128518
H	-0.9433885189	-0.6085205307	-0.2060907855	 0.095662
H	 0.9100380007	-1.2018864103	-1.723358529	 0.12871
H	 1.6593246292	 0.4035511538	-1.4594976552	 0.12708
H	 3.7548608191	-1.9284803461	 0.4720502265	 0.127838
H	 1.1903273279	-0.3396456067	 4.3682400434	 0.130955
H	-0.3920918447	-0.4722929907	 3.5822456731	 0.109655
H	 0.4670186182	-1.9263355553	 4.1196588741	 0.131554
