14
gdb 9989	2.87127	1.36092	0.95623	2.2395	69.75	-0.2533	-0.0322	0.2211	1142.7479	0.102744	-345.334526	-345.325648	-345.324704	-345.368768	30.894	
O	-0.0215749091	-0.1111677386	-0.0247681966	-0.236976
C	 0.0089126555	 1.0889144213	-0.1154348137	 0.147327
C	 1.2891525238	 1.9003859589	-0.1218661204	-0.276581
C	 1.3026735368	 3.0143355877	-1.2131517914	-0.362613
C	 0.2268852995	 3.9909232341	-1.0058953758	 0.33924
C	-0.6608744523	 4.778773116	-0.8231679019	-0.456501
C	 2.6142201278	 3.6665545473	-1.25611387	 0.326625
C	 3.7016193234	 4.1748475426	-1.2781073817	-0.42507
H	-0.9248569242	 1.6873231198	-0.1898321069	 0.096552
H	 1.3944014339	 2.3825472894	 0.8580576313	 0.14581
H	 2.1359184343	 1.2258048208	-0.2640935244	 0.13932
H	 1.1372443611	 2.5277813185	-2.1857305056	 0.149677
H	-1.4412491557	 5.4831249283	-0.6703393815	 0.208437
H	 4.6585296252	 4.6350008039	-1.3048159313	 0.204753
