16
gdb 83474	3.3552	1.09503	0.95586	3.7089	65.81	-0.2458	-0.0017	0.2441	1215.7976	0.123521	-474.976798	-474.968595	-474.967651	-475.010059	30.227	
O	-0.0951076467	 1.3367256344	-0.0974363359	-0.432226
C	-0.2139486204	-0.0442298489	-0.1195705063	 0.082209
C	-0.4759068744	-0.8381626402	 1.1266465925	-0.161487
N	-1.2985577214	 0.0340418412	 1.9969869055	-0.353873
C	-2.4418297355	-0.0619915393	 1.0199973721	-0.24582
C	-1.5324412101	-0.7778445777	 0.0227381704	 0.323683
O	-1.9909729023	-1.7720665673	-0.841726702	-0.224913
C	-2.1499552896	-1.4246021105	-2.1479545525	 0.145863
O	-2.5678302652	-2.1905880298	-2.9592775284	-0.264375
H	-0.3112372028	 1.598729622	 0.8116317366	 0.30058
H	 0.4702069273	-0.5169832272	-0.819868515	 0.120596
H	 0.1527970251	-1.6321587212	 1.5102196489	 0.115521
H	-1.5268213647	-0.4161123692	 2.8758928045	 0.23862
H	-3.2401473093	-0.721583326	 1.3702517823	 0.128787
H	-2.8589932321	 0.9051034734	 0.7219373573	 0.121183
H	-1.8477443276	-0.3809248536	-2.34671367	 0.105651
