18
gdb 120244	3.14426	1.02918	0.85491	2.9412	73.84	-0.2398	-0.0209	0.2189	1369.1379	0.146425	-439.035186	-439.026331	-439.025387	-439.069664	31.739	
C	-0.3294628341	 1.4225462383	-0.6400632658	-0.226537
O	-0.2929638396	 0.016010806	-0.6908478544	-0.240593
C	 0.9961178393	-0.5065838404	-0.4344275413	-0.078118
C	 0.9185250034	-2.0144642697	-0.5469882928	-0.141033
C	 0.8613618302	-2.6645240274	-1.9408371779	-0.049273
N	 2.1074008365	-2.2882864059	-2.6119255156	-0.328449
C	 2.0998802637	-3.4804837343	-1.6886185949	-0.192116
C	 2.1965029916	-2.8829156511	-0.301602537	 0.431304
O	 2.8661709909	-3.1003734768	 0.6639848057	-0.308949
H	-0.0418321697	 1.8034767005	 0.3527949996	 0.105195
H	 0.3408478283	 1.8763986513	-1.3870094586	 0.106158
H	-1.3559837054	 1.7316058758	-0.8521850331	 0.125622
H	 1.7283119878	-0.1135199188	-1.1551416693	 0.112507
H	 1.3358007567	-0.2290644979	 0.577260479	 0.099721
H	 0.1256906412	-2.3975757073	 0.1061202748	 0.112725
H	-0.0234513398	-2.9590559563	-2.488449816	 0.112792
H	 2.088595306	-2.671890367	-3.5570738814	 0.241876
H	 2.4020914129	-4.4562899389	-2.0462449611	 0.117168
