17
gdb 29379	5.56348	0.8803	0.77779	1.3218	82.09	-0.1734	0.0455	0.2189	1426.1192	0.136137	-380.866638	-380.857597	-380.856653	-380.900878	33.861	
N	-0.400776254	 1.3504993897	 0.7138130462	-0.606022
C	-0.0788983747	 0.0733568664	 0.2106088211	 0.261281
C	-0.9021621108	-0.7799453252	-0.4933391594	-0.172424
N	-0.2060542528	-1.956459673	-0.6943383396	-0.2972
C	 1.0437731429	-1.8577245043	-0.1576531315	 0.349078
C	 2.0169537027	-3.0064526637	-0.1900373287	-0.465943
C	 1.8078259096	-3.9109085767	-1.3187640373	 0.289494
C	 1.593237532	-4.6553517779	-2.2382030745	-0.445855
C	 1.1551463347	-0.610245292	 0.4205535075	-0.320629
H	 0.3930576158	 1.9784960285	 0.6853226103	 0.237458
H	-1.1651792119	 1.7799147343	 0.2075149188	 0.234988
H	-1.9063715019	-0.65168607	-0.8628070205	 0.101374
H	-0.5151596703	-2.7373390505	-1.247465325	 0.259664
H	 3.0375829582	-2.6069470903	-0.2234440676	 0.147525
H	 1.9571450382	-3.591572576	 0.7400227717	 0.14685
H	 1.4346799038	-5.3152222707	-3.0549167749	 0.199468
H	 2.0160769583	-0.2316096086	 0.9517284033	 0.080895
