16
gdb 78147	2.16428	1.86681	1.31955	2.9036	70.92	-0.2751	-0.0257	0.2493	1000.1767	0.125191	-437.93334	-437.92573	-437.924786	-437.965502	29.003	
C	-0.0802382626	 1.5605085633	 0.0326333592	-0.42602
C	 0.055661115	 0.0565024835	-0.0521731151	-0.022715
C	 0.6777696193	-0.6896358512	-1.2110095659	-0.140906
C	 1.3530352084	-0.7087356887	 0.1485852893	-0.218417
C	 2.6075701807	 0.0801902409	-0.0219588109	 0.438264
O	 3.5049511443	 0.2649773616	 0.7394572096	-0.318808
O	 2.6232610243	 0.6192681849	-1.3074500253	-0.228773
C	 1.5908727626	 0.0959328544	-2.081662916	 0.418041
N	 1.489054798	 0.2620894138	-3.323434373	-0.529456
H	 0.7782288935	 2.0856647736	-0.391891323	 0.145927
H	-0.9733478887	 1.8880041063	-0.5085868363	 0.135525
H	-0.1836251067	 1.8741948988	 1.0760195017	 0.134387
H	-0.7903568729	-0.4806023699	 0.3689039616	 0.115219
H	 0.1730475508	-1.5399630358	-1.6480645601	 0.129788
H	 1.3882562265	-1.5631336843	 0.8104505926	 0.130048
H	 2.2608815777	 0.8255181087	-3.6832148984	 0.237898
