18
gdb 87286	2.74729	1.31852	1.02276	3.118	72.93	-0.2536	-0.0465	0.2071	1194.2247	0.145534	-439.043077	-439.033996	-439.033052	-439.077077	32.896	
C	 0.0902530669	 1.4814931852	-0.0722576906	-0.438178
C	 0.0972091843	-0.0122993076	 0.1028140773	 0.039231
O	 1.3448767977	-0.6858776629	-0.0408435897	-0.271562
C	 0.7274750944	-0.7424038916	 1.2450769568	 0.248506
C	 1.4024115482	 0.0443843581	 2.3390335778	 0.103002
O	 2.2058212795	 0.9236152293	 2.1648374269	-0.247024
C	 0.21918066	-2.0920764555	 1.6682897912	-0.082542
C	-0.0295739854	-3.1551586488	 0.6690829498	-0.243753
N	 1.1194820029	-3.258455994	 1.5865821054	-0.32185
H	 0.9399014275	 1.9402306527	 0.4336732886	 0.167061
H	 0.1447736392	 1.7226214209	-1.1389825968	 0.135317
H	-0.8414847855	 1.9037623947	 0.3183592582	 0.12546
H	-0.7375922311	-0.5449909642	-0.3571458893	 0.099655
H	 1.0821277114	-0.2543001471	 3.3619711397	 0.088898
H	-0.3839017171	-2.0746680411	 2.5744781433	 0.09952
H	-0.8216768224	-3.8780138352	 0.8406021325	 0.122056
H	 0.1722237792	-2.9219296865	-0.3719466941	 0.130524
H	 1.9592247204	-2.9858331363	 1.0777418232	 0.245678
