16
gdb 74666	3.66526	1.52788	1.45766	2.2984	68.3	-0.2164	0.0618	0.2782	933.2333	0.12745	-434.034576	-434.027865	-434.026921	-434.06544	27.452	
N	 0.0524425496	 1.3087694713	 0.027840555	-0.581777
C	-0.0594767664	-0.0530725619	 0.0004604575	 0.493879
N	-1.1440626867	-0.7299518325	 0.0373630695	-0.345529
C	-0.7307974313	-2.1157046685	-0.0090716685	-0.032773
C	-0.6714506494	-2.8148241762	-1.3950120974	-0.0479
N	 0.0553533578	-1.9047177038	-2.2997444318	-0.32827
C	 0.8277879758	-2.7755311445	-1.3888478656	-0.082467
C	 0.8347295616	-2.0869789474	-0.0168691169	 0.068541
O	 1.1547029256	-0.6930925662	 0.0163390824	-0.25823
H	 0.905658636	 1.6715033619	-0.3682245491	 0.262709
H	-0.7850443784	 1.7901729679	-0.260340652	 0.267425
H	-1.2059114535	-2.7350158792	 0.7559259839	 0.075235
H	-1.3413583215	-3.5715825858	-1.7845149805	 0.0947
H	 0.0758170428	-2.3437428076	-3.2189953346	 0.233114
H	 1.5513096804	-3.4853459613	-1.7706646319	 0.092274
H	 1.3823723576	-2.6093239961	 0.7683193699	 0.089068
