17
gdb 45469	3.50997	1.36863	1.06433	2.1299	74.5	-0.2429	-0.0584	0.1845	1096.1999	0.137712	-421.835448	-421.828107	-421.827163	-421.867823	27.971	
O	 0.0301245086	-0.1055776359	-0.1338384781	-0.323126
C	-0.0136049388	 1.1031640629	-0.0395732932	 0.361171
C	-1.3275623267	 1.8688745181	 0.0756525686	-0.334533
C	-1.3217177439	 3.2121598464	-0.6676606174	-0.091662
C	-1.8767320665	 4.4270454522	 0.1099832251	-0.084369
O	-0.5466605397	 4.9350447926	 0.359676764	-0.296021
C	 0.0145114368	 3.9845701898	-0.5842947755	 0.100671
C	 1.2182563293	 3.2492753994	-0.0950770447	-0.069892
C	 1.2172776363	 1.9235653145	 0.0815010253	-0.145938
H	-2.141246494	 1.218647	-0.2526146492	 0.12678
H	-1.4683256314	 2.0444001465	 1.151045907	 0.132244
H	-1.7051065286	 3.0906650103	-1.6821409471	 0.090973
H	-2.4681852502	 5.1247227689	-0.4973404041	 0.102701
H	-2.4144978018	 4.2115308661	 1.0403068683	 0.10942
H	 0.2677112197	 4.4986047703	-1.5244805863	 0.087101
H	 2.1257857073	 3.8316337706	 0.0496451588	 0.117356
H	 2.1209114936	 1.3762581474	 0.3327910286	 0.117123
