15
gdb 125047	2.32782	1.90074	1.05444	8.1458	72.69	-0.226	-0.0512	0.1749	1062.3311	0.112774	-450.128068	-450.119571	-450.118627	-450.161388	31.085	
C	-0.0114765942	 1.5428323526	 0.023862767	-0.526444
C	-0.0302952316	 0.0406919263	 0.0183134355	 0.071432
C	-1.1839932383	-0.6876152737	 0.0344918289	 0.384856
N	-2.461012056	-0.1675499414	 0.1253230578	-0.581742
N	-1.092685645	-2.0536568884	 0.0139385846	-0.307189
N	 0.0738434147	-2.7541412624	-0.005934425	-0.032986
N	 1.1641870775	-2.1307433163	-0.0240048718	-0.244075
C	 1.2257324824	-0.6846138996	-0.008344446	 0.368162
O	 2.323869546	-0.1622708072	-0.0280075837	-0.360746
H	 1.0172131689	 1.8720021414	-0.1311385222	 0.172546
H	-0.6341915975	 1.9694681666	-0.7735456306	 0.115742
H	-0.3601481293	 1.9595201088	 0.9770482679	 0.133325
H	-2.5122351702	 0.8270040674	-0.0393258623	 0.271811
H	-3.1836327949	-0.6709834894	-0.3707156081	 0.259977
H	-1.9041580724	-2.6437407847	 0.1101770778	 0.275332
