19
gdb 87692	3.14797	1.14887	0.96554	2.7197	79.79	-0.2435	0.0244	0.2679	1290.2295	0.158873	-419.207758	-419.198365	-419.197421	-419.242178	33.53	
C	-0.0922575593	 1.5295711832	-0.1155414888	-0.394737
C	-0.0180293461	 0.0309042879	 0.0390233359	-0.065406
N	 1.311494386	-0.5879835393	-0.1166435922	-0.382362
C	 0.6605761902	-0.6173443	 1.1839825496	 0.183199
C	 1.222474938	-0.0835253926	 2.5153387365	-0.250513
N	 0.6955852919	-1.3176696726	 3.1191936482	-0.100001
C	 0.69491262	-1.8084913287	 4.4702944158	-0.341868
C	 0.20553188	-1.8516120475	 1.9497142982	 0.366727
O	-0.3413986973	-2.8934364014	 1.6857012864	-0.394533
H	 0.8002304713	 2.0052323503	 0.2996067929	 0.126885
H	-0.1599378001	 1.8052091529	-1.1730973549	 0.12737
H	-0.9739324952	 1.9308651053	 0.3954377322	 0.120365
H	-0.8655531134	-0.525179603	-0.3601770064	 0.105974
H	 1.2351963628	-1.506347037	-0.5509041332	 0.247014
H	 2.3137781817	 0.0016274705	 2.5494985918	 0.120436
H	 0.7623658718	 0.8335520195	 2.9009167109	 0.111511
H	 0.1556786739	-1.1324043765	 5.1455827273	 0.128385
H	 0.1932474018	-2.7793956976	 4.4699215097	 0.161609
H	 1.7145543321	-1.9387056935	 4.8536467202	 0.129945
