18
gdb 71692	3.54613	1.51024	1.42393	1.3296	74.08	-0.2246	0.0642	0.2888	980.345	0.147926	-401.888016	-401.880624	-401.879679	-401.919221	30.365	
C	-0.0024178245	 1.492640671	 0.0063313221	-0.51614
C	 0.0494849059	-0.0009793525	 0.0251905093	 0.347556
C	 0.3731676911	-1.0257070538	-1.010687831	-0.127284
C	 1.0264019465	-1.9358987459	 0.053728964	-0.167956
C	 0.6928975047	-0.9016672885	 1.121611163	-0.180724
C	-0.1039144618	-2.1762421104	 1.0431274672	 0.369633
O	 0.0089809639	-3.091077968	 2.0787499857	-0.475086
C	-1.4221881214	-1.8745281931	 0.3451820085	-0.22995
N	-1.0343954814	-0.8105464676	-0.5810006194	-0.169039
H	 0.9991914472	 1.9232820101	 0.1119794532	 0.120632
H	-0.4344373057	 1.8429335893	-0.9348880669	 0.133477
H	-0.6206960966	 1.8753150645	 0.8271130631	 0.122719
H	 0.6244065457	-0.9398265937	-2.0609988877	 0.090935
H	 1.9009780109	-2.563465334	-0.0396819136	 0.091139
H	 1.2658631283	-0.5981029423	 1.9860950697	 0.096228
H	-0.0637012226	-3.9768460123	 1.7064214817	 0.287412
H	-1.8197589343	-2.7324375206	-0.2094739613	 0.095622
H	-2.1876417159	-1.5139917119	 1.0397139725	 0.110827
