22
gdb 58875	2.51937	1.39529	1.06768	2.4992	82.15	-0.2162	0.0638	0.28	1224.9695	0.193272	-404.310472	-404.300798	-404.299854	-404.34459	36.929	
C	-0.0264023617	 1.50800735	 0.3937777745	-0.413071
C	-0.0374736934	 0.0302740171	-0.0076824986	-0.013506
O	 0.6574858213	-0.7739688304	 0.9459805206	-0.442973
C	-1.4306455713	-0.5283198259	-0.0992003847	 0.395559
N	-2.177691611	-0.9123959877	 1.1221648479	-0.3888
C	-1.9173342972	-1.9224130978	 0.0602468756	-0.115881
C	-3.0054169433	-1.7189628643	-0.9964428639	-0.236961
C	-2.4840034559	-0.2449712444	-1.1930172978	-0.044418
C	-3.4637259591	 0.9010247631	-0.9798170998	-0.412095
H	 1.0016191829	 1.8836601397	 0.462594485	 0.102778
H	-0.5503484492	 2.1176824414	-0.3485082036	 0.128661
H	-0.5155495723	 1.6449961545	 1.3624471329	 0.134033
H	 0.439207589	-0.0710378042	-0.9975434353	 0.069277
H	 1.4955068772	-0.345396021	 1.1443497303	 0.286105
H	-1.4600426512	-1.0666362321	 1.8319083385	 0.235207
H	-1.3594996691	-2.8215204983	 0.2893394842	 0.097691
H	-2.8767804585	-2.3349314727	-1.8892543071	 0.096538
H	-4.0298597612	-1.8181603585	-0.6270209434	 0.10265
H	-1.9923197461	-0.1563873507	-2.1681408469	 0.06636
H	-3.8972502074	 0.8437603582	 0.0220251687	 0.138897
H	-2.9756998656	 1.8763895681	-1.0883829783	 0.105128
H	-4.2782032369	 0.8579007958	-1.7113396691	 0.10882
