17
gdb 105729	2.28043	1.53688	1.19897	4.326	75.17	-0.2344	0.0104	0.2448	1086.2332	0.136021	-417.972699	-417.96402	-417.963076	-418.006018	32.674	
O	 0.058513789	 1.3794919203	 0.0565909425	-0.420862
C	 0.0050419835	-0.0222835007	 0.0367310921	-0.065125
C	-1.4542456699	-0.5380527365	-0.0507254628	 0.045458
C	-1.5254729225	-2.0850300365	 0.1942022251	-0.243641
N	-1.9719530866	-2.1374448256	 1.5910843715	-0.2968
C	-2.4215219054	-0.8782681386	 1.9182776766	 0.06288
N	-2.181938674	 0.0754885193	 1.1015514464	-0.283737
C	-2.0693965085	-0.1555365663	-1.3191143088	 0.349241
C	-2.5677760176	 0.1135222618	-2.3787250251	-0.460012
H	-0.628979666	 1.6582223969	 0.6768483633	 0.294422
H	 0.5743677553	-0.3642597834	-0.8339855079	 0.108715
H	 0.4559640151	-0.4672930883	 0.9403888186	 0.085571
H	-2.2414996564	-2.5621241391	-0.4823403	 0.123895
H	-0.5498130042	-2.5649711563	 0.0685612606	 0.121873
H	-2.4746170654	-2.9466066079	 1.9234037771	 0.250102
H	-2.9188302074	-0.7286070505	 2.8729792551	 0.132346
H	-3.0067754291	 0.3744242813	-3.3098183342	 0.195673
