20
gdb 119503	4.13859	1.05967	1.03964	2.4594	78.41	-0.2029	0.0735	0.2763	1249.0424	0.170612	-403.044182	-403.03564	-403.034696	-403.077665	32.648	
C	 0.5526717533	 0.9497720326	-0.3508532489	-0.236796
O	 1.1251621779	 0.2925692092	 0.7621435325	-0.230881
C	 0.2270199139	-0.5644891536	 1.4479184589	-0.225161
C	 0.3221408749	-1.9825268177	 0.963423539	 0.345698
N	 1.6378561154	-2.630585001	 0.7511979514	-0.379716
C	 0.6378977947	-2.5727840617	-0.3523022881	-0.11535
C	-0.4202030493	-3.6940819966	-0.1345193906	-0.05466
C	-0.1721607275	-4.4824634405	 1.123910995	-0.289157
C	-0.7458753253	-3.0937810695	 1.2266715866	-0.121842
H	-0.2416599904	 1.6447389876	-0.0390832831	 0.1105
H	 1.3504398926	 1.5206037869	-0.8323992793	 0.129828
H	 0.129079688	 0.2451687972	-1.0791034463	 0.110847
H	 0.5003625149	-0.5210325225	 2.5110897947	 0.115633
H	-0.8083727487	-0.2008308805	 1.3622819719	 0.095635
H	 2.2863214557	-1.8607574168	 0.5774488546	 0.234251
H	 0.8868171587	-2.11034405	-1.2984837576	 0.09234
H	-1.1092857414	-4.0134986979	-0.9051627771	 0.086745
H	-0.8906406121	-5.2766219264	 1.3030639737	 0.104729
H	 0.8379826641	-4.6840798148	 1.4555042223	 0.143283
H	-1.7195461094	-2.884770184	 1.6514786705	 0.084075
