19
gdb 66435	2.53485	1.70073	1.34191	1.5932	79.39	-0.2081	0.0709	0.2789	1040.5042	0.156719	-385.786445	-385.77781	-385.776866	-385.818969	33.809	
C	 0.0580229723	 1.5203630156	-0.0360327801	-0.521251
C	 0.0120730116	 0.0260398997	-0.0119467776	 0.309632
C	 0.842044607	-1.0053224421	-0.7645378287	-0.136362
C	 0.8808774562	-0.9623790292	 0.7601418289	-0.252917
C	-0.3209963734	-1.9716682691	 0.7942011346	 0.336822
O	-0.6571822269	-2.9915064192	 1.6470251414	-0.451679
C	-0.3396564694	-2.0133168156	-0.7175124059	-0.201783
C	-1.1956992292	-0.9778352756	 0.0356116013	 0.189882
C	-2.6769351261	-0.7845394323	 0.0336181257	-0.531
H	 1.095702753	 1.8712438772	-0.0668743772	 0.121624
H	-0.4550019163	 1.9277352972	-0.9151983099	 0.119874
H	-0.4103263155	 1.9549433608	 0.8553236053	 0.116914
H	 1.6487299541	-0.8636451472	-1.4733510583	 0.080523
H	 1.7161857142	-0.7698555633	 1.4221430681	 0.082449
H	-1.0323730397	-2.6080585675	 2.4487341106	 0.286422
H	-0.6633003666	-2.8041317984	-1.3813806709	 0.086185
H	-3.1844203975	-1.7516464055	 0.1218733588	 0.128021
H	-3.0078605662	-0.1595005151	 0.8724612934	 0.114157
H	-3.0279202516	-0.3101338405	-0.8904738696	 0.122487
