14
gdb 133181	2.44835	1.75962	1.03027	2.0383	69.32	-0.2436	-0.0595	0.184	1063.5979	0.100384	-477.950828	-477.943243	-477.942299	-477.983011	28.356	
C	 0.1227358336	 1.4835525512	 0.0534474723	-0.47735
C	 0.0000174844	-0.0090348048	 0.0236265745	 0.183031
C	-0.0798816539	-0.7149735129	-1.1182975007	 0.022499
O	-0.1918592196	-2.0609889181	-1.2143804283	-0.239136
N	-0.2326009925	-2.8297869144	-0.066506343	-0.133398
C	-0.1594286087	-2.1958764529	 1.04163838	 0.299557
F	-0.1995238174	-2.9566763885	 2.1248350552	-0.048367
C	-0.0363717852	-0.7501860568	 1.2743268238	 0.11891
N	 0.0320126215	-0.1896752361	 2.4261574245	-0.527906
H	 1.0363335899	 1.7798698062	 0.5787859912	 0.152048
H	 0.1374522586	 1.9057400204	-0.9542032059	 0.12061
H	-0.709319167	 1.9226987327	 0.6131543805	 0.15205
H	-0.0635811093	-0.2804594559	-2.1110642707	 0.147353
H	-0.0110800144	-0.89104818	 3.1670075065	 0.230098
