16
gdb 69714	3.98528	1.3693	1.25844	4.7477	68.55	-0.2427	0.0211	0.2638	1014.9271	0.123938	-437.857365	-437.849891	-437.848947	-437.889113	29.052	
C	-0.1473534087	 1.4949443821	 0.0508622428	-0.507207
C	 0.1439164563	 0.0315721517	 0.0118767004	 0.402161
O	-0.7212892857	-0.8705503979	 0.7039136796	-0.268826
C	 0.6822702883	-0.9295057479	 0.9916647998	-0.047769
C	 1.3593335939	-1.7851319034	-0.1123444299	-0.245695
C	 0.7986289576	-0.7862113382	-1.166659461	-0.074531
N	 0.0409208789	-1.8907709129	-1.7452461657	-0.313398
C	 0.4117644518	-2.8226666304	-0.7801954778	 0.43494
O	 0.0905561307	-3.9601283933	-0.5905884164	-0.349883
H	 0.7239205027	 2.0723097732	-0.2747529652	 0.129331
H	-0.982566978	 1.7414580652	-0.6148009547	 0.13403
H	-0.415890639	 1.805783195	 1.0638652913	 0.141237
H	 0.982624298	-0.8134930528	 2.0262770067	 0.115115
H	 2.4195080812	-2.0032245601	-0.0109757311	 0.106799
H	 1.4388860067	-0.225509069	-1.8481199241	 0.09336
H	-0.8254468046	-1.8696152414	-2.2660164048	 0.250335
