18
gdb 80262	2.65011	1.53161	1.37358	3.2649	79.26	-0.218	-0.0566	0.1613	1022.5513	0.148467	-401.952958	-401.945049	-401.944105	-401.985358	30.557	
C	 0.0441880831	 1.6760489952	-0.0298199593	-0.43141
C	 0.0194421173	 0.1670474507	-0.0388339587	 0.00943
C	 0.5007720706	-0.6963610946	-1.1897515728	-0.098387
C	 1.1439319463	-0.1095910272	-2.3714315503	-0.015731
C	 2.2881849526	 0.5920233276	-2.3154094523	-0.201727
C	 3.0152966311	 0.7649589422	-1.0499551103	 0.355331
O	 3.987364343	 1.4863914362	-0.9391395439	-0.334994
C	 2.5331775782	-0.0681192153	 0.147038206	-0.269603
N	 1.1994012973	-0.6707184422	 0.1042220265	-0.121444
H	 0.7636987309	 2.1029315997	-0.7312242997	 0.141844
H	-0.9470796831	 2.0623756973	-0.2873699879	 0.127789
H	 0.2900628211	 2.0446252925	 0.9724114405	 0.133667
H	-0.8335037737	-0.2484527866	 0.4980440234	 0.101454
H	-0.0575466923	-1.611105413	-1.3820986342	 0.101287
H	 0.6508828721	-0.2799170587	-3.3260334314	 0.112348
H	 2.7416779174	 1.0317191624	-3.1975367102	 0.112716
H	 3.2613823278	-0.880569649	 0.2669837449	 0.138979
H	 2.6211206303	 0.5524198529	 1.0440579996	 0.138452
