17
gdb 51325	4.86131	1.02062	0.97629	1.671	74.51	-0.2586	0.0207	0.2794	1228.7304	0.137232	-417.940349	-417.932865	-417.931921	-417.973642	27.981	
N	-0.0131085718	 1.3304442952	-0.0739028259	-0.44123
C	-0.0175532781	 0.0733501628	 0.0242010023	 0.120785
O	-1.1617295792	-0.6155404788	-0.1634405953	-0.202974
C	-1.1056628031	-2.0310089282	-0.1290603695	 0.170392
C	-2.2450477033	-2.7670625463	 0.5297556056	-0.098448
C	-3.3198165985	-2.9710121144	-0.4845235096	-0.028898
C	-2.9025357835	-2.3125040403	-1.788085362	-0.237753
C	-1.4994525037	-2.808296369	-1.3977113132	-0.064824
N	-2.1361683367	-3.8984209206	-0.4727395352	-0.168063
H	 0.9211860121	 1.6896739357	 0.1104370089	 0.230548
H	 0.8426806138	-0.5678770317	 0.2643332176	 0.087539
H	-0.1408525739	-2.3733013141	 0.2611825503	 0.097346
H	-2.3903009297	-2.9613519147	 1.5855031675	 0.102321
H	-4.3031911141	-3.3204773865	-0.1918449124	 0.103167
H	-3.2893304901	-2.8678226114	-2.6455679441	 0.115412
H	-3.0527739223	-1.2387976196	-1.9241529984	 0.126073
H	-0.7557730579	-3.0929385582	-2.1386991866	 0.088608
