19
gdb 65232	2.87414	1.2343	1.10906	2.0736	76.2	-0.2506	0.025	0.2756	1176.5107	0.159764	-419.179035	-419.170375	-419.169431	-419.212946	32.438	
C	 0.1306364068	 1.4652362432	-0.432000598	-0.493673
C	 0.0724923374	-0.0133757766	-0.1059032199	 0.330644
C	 1.2553120776	-0.854123867	-0.4243068512	-0.270959
N	 0.9253766876	-0.5416789185	 0.9794590809	-0.355759
C	-1.2941224644	-0.6666005022	-0.139688733	-0.166881
C	-2.4501668431	-0.0682803407	 0.6969119895	-0.102341
O	-3.2322738013	 0.1387804557	-0.5225073596	-0.258122
C	-2.21213337	-0.3518053868	-1.3107653628	 0.425891
N	-2.1236470591	-0.4590223385	-2.5569776018	-0.547058
H	 1.164395598	 1.8234779376	-0.4122476435	 0.114704
H	-0.2749354067	 1.6590393885	-1.4297417287	 0.150034
H	-0.4415733301	 2.0624390266	 0.2870970167	 0.121654
H	 1.1277283789	-1.8954912454	-0.7060065234	 0.123062
H	 2.1122124533	-0.3669047217	-0.8817286037	 0.114528
H	 1.5401842574	 0.1930729195	 1.3217428837	 0.228572
H	-1.1811343289	-1.7407255157	 0.0203148648	 0.112275
H	-2.9593293025	-0.7529758384	 1.3780498262	 0.125504
H	-2.2485858637	 0.8822887785	 1.1956742553	 0.120447
H	-2.9702979771	-0.122448208	-3.0195418716	 0.227478
