18
gdb 83463	2.81119	1.33667	1.08083	2.962	73.14	-0.2332	0.0188	0.252	1145.8476	0.146877	-439.062112	-439.053389	-439.052444	-439.095946	32.024	
C	 0.0179582959	 1.5676128439	 0.0656624095	-0.428926
C	 0.0614111249	 0.0616062497	 0.1617907081	-0.029417
C	 1.2439086237	-0.7871013258	-0.2019861355	-0.005676
O	 2.4764208896	-0.123449943	 0.0895828252	-0.278479
C	 2.160635687	-0.0913753639	 1.5059145932	-0.136511
C	 0.7846272333	-0.7074649422	 1.2481252979	 0.302004
N	 0.1293853762	-1.634551659	 2.0916090704	-0.397218
C	-0.9940880531	-1.3391455576	 2.8171311906	 0.134685
O	-1.5910978492	-0.2877636927	 2.7921113299	-0.307435
H	 1.0188732796	 1.9980264055	 0.1490425928	 0.131626
H	-0.3941905497	 1.8776288691	-0.8998932781	 0.117909
H	-0.6145264837	 1.9783130311	 0.8578553785	 0.141671
H	-0.8734652023	-0.4399997522	-0.0793527861	 0.103372
H	 1.2612496302	-1.5896810784	-0.9311612523	 0.107875
H	 2.8307122335	-0.7581483596	 2.062675087	 0.102874
H	 2.2044946318	 0.9177553635	 1.9299198088	 0.11663
H	 0.5630316108	-2.5314203371	 2.2563708322	 0.247863
H	-1.3104427583	-2.2032364115	 3.435758498	 0.077152
