17
gdb 129774	3.29372	1.54706	1.08178	4.7637	75.36	-0.2029	0.0138	0.2168	1084.3633	0.140309	-414.198143	-414.190718	-414.189774	-414.230016	28.381	
N	 0.0200058586	 1.4186793428	 0.2698328972	-0.595818
C	-0.0740827803	 0.0309739932	 0.1296733947	 0.135529
C	-1.1771175061	-0.7775638587	-0.0604152409	 0.329805
C	-2.6520978226	-0.8450164466	-0.300653835	-0.370312
C	-2.9486956725	-2.3587505436	-0.0467796221	-0.21459
C	-1.6040215758	-3.1012213491	-0.2676284105	-0.171265
N	-0.6502121002	-2.0277154405	-0.0367018008	 0.073578
N	 0.6628676218	-2.0362544969	 0.1584046209	-0.19128
N	 1.0219303736	-0.7705299132	 0.2583504139	-0.257455
H	 0.9945405686	 1.6955569273	 0.2911569284	 0.252223
H	-0.459923576	 1.9278492231	-0.4616093536	 0.243025
H	-3.2317307343	-0.200716204	 0.3661203052	 0.129387
H	-2.9100135778	-0.5578675021	-1.3282677034	 0.119924
H	-3.267649642	-2.4944622629	 0.9900308569	 0.128382
H	-3.740200529	-2.7466094985	-0.6907009728	 0.11631
H	-1.4402716313	-3.9246083707	 0.4300974845	 0.141478
H	-1.4986316348	-3.4852140994	-1.2884340926	 0.13108
