22
gdb 102479	1.95224	1.30365	0.87354	2.2589	80.5	-0.2324	0.0641	0.2965	1432.1386	0.192294	-441.532554	-441.521349	-441.520405	-441.57	38.507	
C	-0.07519642	 1.5576538975	-0.0039524403	-0.373565
C	 0.0020873803	 0.0283973221	-0.037991562	-0.153652
N	 0.6805868037	-0.4915069523	-1.2232496963	-0.141359
C	 2.1213770555	-0.7303226904	-1.1678627145	-0.154156
C	 2.480298333	-2.1387042657	-0.687798612	-0.374255
C	 0.038063442	-0.7539875965	-2.3956099127	 0.524163
O	 0.5611111994	-1.2068849743	-3.3941903677	-0.435691
O	-1.2848579789	-0.4408241729	-2.3206410982	-0.265399
C	-2.024357909	-0.7181593437	-3.5106747733	-0.232185
H	 0.9221032954	 2.0068420254	-0.0487295754	 0.118726
H	-0.6572559624	 1.9266009491	-0.8524597992	 0.132714
H	-0.5579800456	 1.8959346658	 0.9187916152	 0.113817
H	 0.5468225923	-0.3409357549	 0.8377395378	 0.10474
H	-1.0018426891	-0.3969572171	 0.0073379445	 0.129115
H	 2.5231626603	-0.5680664502	-2.169745805	 0.138624
H	 2.560306565	 0.0243433286	-0.5056440429	 0.100677
H	 2.0775401414	-2.3385139535	 0.3107205629	 0.113495
H	 2.0782399151	-2.8840070399	-1.3790849047	 0.140203
H	 3.5674480301	-2.2609308091	-0.6434437278	 0.114451
H	-1.6266007302	-0.1538837189	-4.3579517206	 0.137749
H	-1.9885110932	-1.7832368652	-3.7544762304	 0.136284
H	-3.0497254553	-0.4125792139	-3.2983552374	 0.125505
