19
gdb 88539	3.29159	1.38353	1.22557	2.9899	75.82	-0.2286	0.0718	0.3005	1075.3509	0.159321	-422.939218	-422.931553	-422.930609	-422.971385	31.06	
O	 0.0007779743	 1.468639416	 0.2453555925	-0.437251
C	-0.034214577	 0.0829377042	 0.1227816989	 0.145715
C	-0.5724036728	-0.816461982	 1.2030037905	-0.344881
C	-1.3290724362	-0.6675789665	-0.1117219345	-0.239647
C	-2.594488272	 0.1072765203	-0.1214187275	 0.430997
C	-3.1414022897	 1.0890252734	-1.2002613824	-0.255088
C	-3.9689282791	 1.2555508235	 0.0891471713	 0.048692
C	-4.0560659097	-0.2809499536	 0.2359957695	-0.25868
O	-2.7111031144	 1.2262770171	 0.8807438039	-0.354531
H	-0.8562488985	 1.7608571016	 0.5935527426	 0.295076
H	 0.8383264618	-0.2632630071	-0.4222825989	 0.103263
H	-0.0741712565	-1.7570246976	 1.4119055732	 0.111147
H	-1.0192362373	-0.3324607689	 2.065195257	 0.131786
H	-1.318340562	-1.4992931204	-0.8106436844	 0.092315
H	-2.4762969839	 1.9162387879	-1.4490692497	 0.119332
H	-3.6359148861	 0.6586748901	-2.0741226828	 0.098244
H	-4.6986626182	 2.0190068877	 0.3550114699	 0.102219
H	-4.6321170855	-0.8333680493	-0.5100631083	 0.099185
H	-4.2060596769	-0.6465549365	 1.2522108893	 0.112107
