17
gdb 12316	3.11772	2.11952	1.31913	3.7195	71.61	-0.2382	-0.0247	0.2135	927.6248	0.144123	-363.921701	-363.914137	-363.913193	-363.953407	28.466	
C	 0.0190823859	 1.498005071	 0.0682554733	-0.471397
C	-0.0243259565	-0.0003531551	-0.0130307072	 0.219987
C	-1.1448272563	-0.7280014908	 0.0707966946	-0.163869
C	-1.1418440543	-2.2315180572	 0.0092706934	-0.246993
C	 0.0727986751	-2.7337339722	-0.7706429999	-0.167077
N	 1.2680387509	-2.0410639956	-0.3116366004	-0.3309
C	 1.305591799	-0.6791988929	-0.132408219	 0.349059
O	 2.3581040439	-0.0686421554	-0.035428396	-0.374152
H	 0.6645369482	 1.8196733232	 0.89106681	 0.145529
H	 0.4513150294	 1.9272228942	-0.8420079301	 0.136434
H	-0.9813714918	 1.9139944756	 0.2117015608	 0.109832
H	-2.1004453343	-0.230936772	 0.223904305	 0.09472
H	-1.1319165404	-2.6411845585	 1.0300939487	 0.123951
H	-2.0581459431	-2.6007793025	-0.4632991995	 0.111723
H	 0.2114650182	-3.8084404164	-0.6218170079	 0.112235
H	-0.0931113541	-2.5687107159	-1.8473250037	 0.106449
H	 2.1698084702	-2.4450932896	-0.5194070521	 0.24447
