16
gdb 79698	2.88165	1.76668	1.42402	3.3024	67.47	-0.2367	-0.0129	0.2239	916.3191	0.126509	-437.840068	-437.833512	-437.832568	-437.870795	27.216	
O	 0.2738141086	 1.4192072684	-0.2625504361	-0.43859
C	 0.0557648422	 0.0720398894	-0.0424444972	 0.155757
C	 0.1863808529	-0.5874227345	 1.3887802452	-0.219436
C	-0.9633381033	 0.0248171596	 2.1916424891	-0.042083
N	-1.4920564204	 1.3152128528	 1.6774212287	-0.369144
C	-2.0725387262	 0.0394909068	 1.1827942625	-0.042082
C	-1.3908028115	-0.5665415718	-0.0457144532	-0.219437
C	-0.6480527304	-1.7231218331	 0.7052447585	 0.425982
O	-0.6557349079	-2.9121483174	 0.6963821872	-0.305078
H	-0.3023778852	 1.8748727848	 0.3775945078	 0.301235
H	 0.6884797721	-0.4769572755	-0.7460884571	 0.106711
H	 1.1448952777	-0.7610310183	 1.8698909396	 0.088661
H	-1.1161274438	-0.2338995443	 3.2319479668	 0.112658
H	-2.1191012349	 1.711780516	 2.3726088427	 0.243526
H	-3.0974008975	-0.2076907838	 1.4299250943	 0.112657
H	-1.9627602723	-0.719887039	-0.9565971788	 0.088661
