19
gdb 46764	2.45011	1.854	1.26694	2.6864	79.16	-0.2339	-0.0143	0.2196	1026.1628	0.161702	-385.941491	-385.934144	-385.9332	-385.973585	29.24	
O	-0.1040506708	 0.2331376648	 0.626922772	-0.324255
C	-0.0861990372	 1.3820726391	 0.2657468832	 0.405235
C	-1.3034341445	 2.3026388795	 0.1493959201	-0.313957
C	-0.8162377969	 3.5187075772	-0.6482470005	-0.236813
C	 0.7031167188	 3.6139279142	-0.3489962905	-0.062579
C	 1.069525294	 4.2758832094	 0.9626634695	-0.069682
C	 1.8675368937	 3.5177224577	 1.7143242523	-0.0679
C	 2.1952699644	 2.1982649171	 1.0545651809	-0.267426
C	 1.1870845747	 2.1584458527	-0.1203997506	-0.126605
H	-2.1556602093	 1.7744852417	-0.2840020522	 0.125498
H	-1.5853457067	 2.5807333063	 1.1729547927	 0.1366
H	-0.9662039598	 3.3492987744	-1.7201934852	 0.103607
H	-1.3455827365	 4.4407111374	-0.3918406229	 0.102399
H	 1.2173855625	 4.1137083456	-1.1791558517	 0.078879
H	 0.7294538453	 5.2742671564	 1.2188094334	 0.091541
H	 2.2799318076	 3.8057000798	 2.675345689	 0.095876
H	 3.2346148916	 2.1827120277	 0.7009216771	 0.107443
H	 2.0759297761	 1.3308345869	 1.7129042654	 0.126409
H	 1.6071204132	 1.6849319522	-1.0131691719	 0.09573
