23
gdb 59061	2.08272	1.23733	1.03111	2.3746	82.49	-0.2458	0.0595	0.3053	1335.3021	0.202205	-425.41411	-425.402904	-425.40196	-425.449885	41.436	
C	-0.0087270786	 1.5247147266	-0.1650422766	-0.395655
C	 0.0259711495	 0.0164496764	 0.0982870778	 0.115497
O	 0.6983516074	-0.2696600742	 1.3275208343	-0.433715
C	-1.3618150176	-0.590062158	 0.0600536599	-0.125724
C	-1.9175466293	-1.2266820934	-1.2046698376	 0.048426
O	-1.1025652354	-1.3543152198	-2.3364098854	-0.420948
C	-1.5940858378	-2.0950123999	-0.01889208	 0.278948
C	-0.4044101769	-3.0359086264	-0.0922053229	-0.448549
C	-2.7660680892	-2.641877112	 0.7759189978	-0.452912
H	 0.9997287534	 1.9432823171	-0.1097017361	 0.123128
H	-0.424815253	 1.7446088529	-1.15467522	 0.101951
H	-0.6337961271	 2.0365647261	 0.5773255484	 0.104833
H	 0.647597103	-0.4575156397	-0.6657395472	 0.095749
H	 0.1403880516	 0.0520516511	 2.0441012646	 0.272609
H	-2.0890842279	-0.0377284353	 0.6568194321	 0.064469
H	-2.9711182583	-1.0581432757	-1.4314913501	 0.078926
H	-1.0674523046	-0.4994642194	-2.7783754743	 0.288891
H	 0.3242094997	-2.7165254903	-0.8375949451	 0.134611
H	 0.0991465232	-3.0970908877	 0.8770911272	 0.124001
H	-0.7387506381	-4.0416205603	-0.370708456	 0.105893
H	-3.1259306764	-3.5847394165	 0.3477129775	 0.116609
H	-2.4747600032	-2.8378899969	 1.8146511635	 0.115586
H	-3.6068359343	-1.9404730146	 0.7940397582	 0.107375
