21
gdb 121760	6.90949	0.49542	0.469	4.7566	77.58	-0.2452	-0.01	0.2352	2314.8571	0.178279	-461.357303	-461.34582	-461.344875	-461.397617	38.056	
C	 0.0409689681	 1.4362050199	-0.1011407453	-0.225827
O	 0.0005074179	 0.0330403359	 0.0089380561	-0.209279
C	 0.6067160519	-0.6131606354	-1.0665248749	-0.145527
C	 0.5314377665	-2.1297308151	-0.8907702823	 0.343464
O	 0.0033042099	-2.6412303053	 0.0634554577	-0.271338
C	 1.1761245256	-2.9365462561	-2.0134412878	-0.315643
C	 1.0683057923	-4.4465313592	-1.8110801531	-0.160984
C	 1.7202895591	-5.2310508001	-2.9412379433	-0.077479
O	 1.5639176047	-6.6115636151	-2.6569287314	-0.418601
H	 1.0749505566	 1.8153849801	-0.1356875004	 0.104246
H	-0.4843537427	 1.7923848668	-1.0018374303	 0.104272
H	-0.4557192006	 1.8435239494	 0.7822003977	 0.134999
H	 0.1267990366	-0.3504424391	-2.0284131967	 0.102577
H	 1.6705064055	-0.3273044699	-1.1724129302	 0.102325
H	 0.712972982	-2.6307684515	-2.9628963187	 0.119031
H	 2.227325409	-2.6235579881	-2.0956614469	 0.119697
H	 1.5340340044	-4.7289113909	-0.8620018204	 0.123712
H	 0.0162979787	-4.7374100354	-1.7319984599	 0.12317
H	 1.2481407688	-4.9652226483	-3.9024460905	 0.080739
H	 2.7863355018	-4.9575942477	-3.0201752779	 0.080826
H	 1.9767708039	-7.1145699848	-3.3647675716	 0.285619
