21
gdb 1575	3.43194	1.63212	1.19581	0.9463	71.94	-0.2462	0.0873	0.3335	1080.5854	0.192354	-312.128429	-312.118892	-312.117948	-312.162923	33.462	
C	-0.0505906575	 1.4991021601	-0.0720224089	-0.382289
C	-0.0035076284	-0.0051723174	 0.1434255717	-0.034777
O	-1.3042996696	-0.5216595417	-0.0479931937	-0.255852
C	-1.4150056002	-1.9401158317	 0.0017130736	 0.161192
C	-1.3917001802	-2.4582094504	 1.4429622737	-0.402444
C	-2.7145495107	-2.308116797	-0.7181207189	-0.171102
C	-2.7319665563	-1.8935736189	-2.1908434316	-0.384613
H	 0.9423931309	 1.9368767527	 0.0684425702	 0.111733
H	-0.3945337954	 1.7316495064	-1.0839315714	 0.124071
H	-0.73919644	 1.9658885221	 0.6381277943	 0.12546
H	 0.6985613059	-0.4748493466	-0.5664701592	 0.082787
H	 0.3682409211	-0.2279624106	 1.1562521775	 0.085763
H	-0.5668550045	-2.3814428082	-0.5517977775	 0.057214
H	-2.2284633596	-2.0372278915	 2.0096820797	 0.120751
H	-1.4761249826	-3.5496176241	 1.4603858262	 0.112138
H	-0.4631488464	-2.1903899024	 1.955121836	 0.113948
H	-2.8649507183	-3.3905508657	-0.6270745408	 0.090343
H	-3.5450158186	-1.8287240679	-0.1845882836	 0.101508
H	-3.689181181	-2.1406566253	-2.6599998105	 0.107114
H	-2.5694660399	-0.8172931378	-2.2856016379	 0.13056
H	-1.9433684686	-2.4043565841	-2.7553765389	 0.106494
