17
gdb 61358	2.89655	0.89597	0.75192	1.4565	76.71	-0.2581	-0.0625	0.1956	1491.9262	0.131129	-421.819231	-421.809124	-421.80818	-421.855594	34.933	
C	-0.2815249868	 1.7209049956	 0.1645092006	-0.415791
C	 0.0028876895	 0.2240299257	-0.050763305	-0.080763
C	 0.8010040854	-0.4159907147	 1.0842747432	-0.311214
C	 2.2801603989	-0.0792968841	 1.0464070107	 0.221742
O	 2.800409791	 0.5569351043	 0.1537862218	-0.296106
C	 3.0572111639	-0.5910915785	 2.1632585608	 0.249211
C	 3.6815087025	-1.0242203539	 3.0967403152	-0.379894
C	-1.2860961314	-0.5270096961	-0.321277403	 0.146749
O	-1.6115614524	-1.5653586554	 0.1957373367	-0.248661
H	 0.657478627	 2.2758659332	 0.2153727829	 0.149426
H	-0.8723259299	 2.1331817905	-0.6599173939	 0.123291
H	-0.8364934379	 1.8879441559	 1.0941038294	 0.124235
H	 0.5919784328	 0.1407333316	-0.9770388891	 0.12659
H	 0.4037153083	-0.1284592063	 2.0661175101	 0.135307
H	 0.698304747	-1.5082981494	 1.0532949991	 0.157677
H	 4.2478839873	-1.400588943	 3.9140155813	 0.216698
H	-1.9427991751	-0.0345634555	-1.0754762111	 0.081503
