21
gdb 53052	3.06291	0.92755	0.73008	0.2505	100.81	-0.2038	-0.0005	0.2034	1613.7873	0.181733	-349.9696	-349.959474	-349.958529	-350.005934	35.953	
C	-0.1139932823	 1.48322742	 0.0120619893	-0.50896
C	-0.0308771354	 0.0309491902	 0.022286901	 0.215271
C	 0.0473011849	-1.1750173104	 0.0299123484	-0.173372
C	 0.0790743497	-2.5903181941	 0.0480533499	 0.142515
C	 1.1751213181	-3.3707796468	-0.0292935727	 0.220795
C	 2.5920909393	-2.9167083371	-0.1540977596	-0.514238
C	 0.803284458	-4.8362618736	-0.0328776684	-0.285917
C	-0.6796365274	-4.8440015317	 0.4069079315	-0.215034
C	-1.196643429	-3.4182411121	 0.1058249972	-0.320498
H	 0.450032723	 1.9219108173	 0.8434478305	 0.14759
H	 0.2909979568	 1.9017726595	-0.9167101457	 0.147245
H	-1.151917022	 1.8227029483	 0.1022396174	 0.147738
H	 2.6626629585	-1.8265324465	-0.1509843945	 0.13352
H	 3.2067636494	-3.3078739799	 0.6671581574	 0.122728
H	 3.0448693954	-3.2896839158	-1.0825812998	 0.123565
H	 0.9360417116	-5.2567836865	-1.0415618801	 0.104177
H	 1.4442796051	-5.4331814109	 0.6275511793	 0.098977
H	-1.2668891808	-5.6215682113	-0.0881876144	 0.095518
H	-0.737106463	-5.0315171701	 1.4837938273	 0.105228
H	-1.8973640683	-3.0515178247	 0.8627777746	 0.106121
H	-1.7237197316	-3.3653582239	-0.8566278387	 0.107032
