18
gdb 12667	3.2896	1.82827	1.34429	1.8606	67.6	-0.2364	-0.0265	0.2099	944.7617	0.153762	-384.97428	-384.966197	-384.965253	-385.006874	30.352	
C	-0.1465222797	 1.5544556083	-0.0100350652	-0.406058
C	 0.0732156812	 0.0438052534	 0.0177506883	 0.016634
C	 0.8843120918	-0.5164205286	-1.1764195282	-0.222851
C	 1.2780668968	-1.9348450507	-0.7336490236	-0.325936
C	 1.4440301552	-1.8202102361	 0.7791383167	 0.383093
O	 2.035440762	-2.5765121151	 1.5081658013	-0.326123
C	 0.8236533663	-0.4832428191	 1.247496102	 0.028804
O	 1.9123880072	 0.3849488205	 1.5542713117	-0.43704
H	 0.8074300522	 2.084593168	 0.0400358349	 0.138419
H	-0.6600206191	 1.8513520433	-0.9303688951	 0.1097
H	-0.7577075177	 1.8840895165	 0.8363147397	 0.114666
H	-0.9047350562	-0.4588343704	 0.0186662757	 0.07528
H	 0.314016034	-0.4985149963	-2.1084989543	 0.100454
H	 1.7822177008	 0.0933629895	-1.3240861669	 0.11804
H	 0.4615810382	-2.6458778649	-0.9220768646	 0.130711
H	 2.1757154967	-2.347199916	-1.1998193513	 0.129804
H	 0.1764055408	-0.6264434613	 2.1235730934	 0.07748
H	 2.4807683395	-0.0893656908	 2.1730658556	 0.294922
