16
gdb 28251	4.56545	1.21928	0.98521	13.4634	84.54	-0.1263	-0.0149	0.1114	1141.5754	0.126449	-437.84818	-437.840845	-437.839901	-437.880144	28.215	
O	 0.1214910721	 0.1007424795	 0.0951500165	-0.401806
C	-0.0794311169	 1.2896060226	 0.0553880302	 0.390001
C	-1.216325379	 2.1484281501	 0.0693007704	-0.581048
C	-0.7488734783	 3.465814252	-0.0496623366	 0.327966
C	 0.6157228421	 3.4389263047	-0.1395731236	 0.264455
C	 1.2639401663	 4.7556047865	-0.0011023634	-0.332048
N	 0.061300984	 5.6259278527	-0.3952224819	-0.248818
H	 0.1040695197	 6.5551742853	 0.0345229109	 0.279527
H	 0.0612090723	 5.7239188172	-1.4087167353	 0.310288
C	-1.2231098472	 4.8697295224	 0.0148381967	-0.338861
O	 1.1117063561	 2.1963594979	-0.064838149	-0.301441
H	-2.2283142286	 1.7810274299	 0.0961311505	 0.080709
H	 1.5500946467	 5.0934870383	 1.0172164653	 0.120345
H	 2.1016772819	 4.9890494193	-0.6706992561	 0.143022
H	-2.0197317092	 5.1726487614	-0.6731862601	 0.145171
H	-1.4842318819	 5.2313136402	 1.0207509456	 0.142538
