17
gdb 84739	2.36112	1.82475	1.0424	3.569	78.98	-0.2088	-0.0636	0.1452	1109.6059	0.136918	-418.045781	-418.037366	-418.036422	-418.079475	30.822	
C	-0.35455765	 1.4130515913	 0.0132938983	-0.33041
N	-0.0182765742	-0.0038093753	-0.0234908382	-0.1191
C	 0.0071674591	-0.6993983187	-1.2302513955	 0.028232
C	 0.3035733416	-1.9946612022	-1.3562100696	-0.158628
C	 0.6464947583	-2.8439683355	-0.1731903131	-0.38146
C	 0.6247727211	-2.1039666568	 1.1527686487	 0.328599
O	 0.8800526288	-2.654187916	 2.198134652	-0.308626
C	 0.2702384907	-0.6154327672	 1.1805414103	 0.275182
N	 0.2397971925	 0.0455578897	 2.2741853079	-0.519363
H	 0.4691464581	 1.9906023218	 0.443202286	 0.149884
H	-0.5560845086	 1.757935228	-1.0015774304	 0.124515
H	-1.2338307525	 1.5813833729	 0.6421623728	 0.149833
H	-0.2405009005	-0.0885803775	-2.0899463054	 0.116612
H	 0.2962193998	-2.4450650766	-2.3405808086	 0.100211
H	-0.0360336048	-3.7001551349	-0.0709817107	 0.152101
H	 1.6439790997	-3.2970307018	-0.2684980942	 0.152094
H	 0.4833844308	-0.5977290213	 3.0305875096	 0.240322
