23
gdb 88945	2.76991	0.99909	0.91037	1.9693	82.14	-0.2485	0.0696	0.3181	1423.0936	0.202604	-425.414375	-425.403657	-425.402713	-425.44978	40.661	
C	-0.1219378935	 1.5034006456	 0.0538359742	-0.421781
C	-0.0014022086	-0.024775735	-0.0222651761	 0.344003
C	 1.2430455488	-0.5042748267	 0.7278591749	-0.381374
O	-1.1092616725	-0.6286947839	 0.6653530189	-0.461601
C	 0.0037169306	-0.4754761764	-1.5008616298	-0.230926
C	 0.0944308508	-1.9757204427	-1.6865379509	-0.009887
C	 0.3273846379	-2.5605958013	-3.0672220536	-0.355475
C	 1.4028163288	-2.6383316658	-2.0129261526	 0.109898
O	 2.5262094391	-1.8080026107	-2.1158062262	-0.418706
H	 0.7475699718	 1.9938642882	-0.3953284678	 0.115688
H	-1.0133885536	 1.853587456	-0.4812268981	 0.097468
H	-0.2012772091	 1.8233195501	 1.0967297679	 0.118324
H	 1.2456217524	-0.1061524542	 1.7466506652	 0.108043
H	 1.2543905988	-1.5945822968	 0.7893662591	 0.122211
H	 2.1531851253	-0.184444516	 0.2147603289	 0.123977
H	-1.9185070237	-0.2824331972	 0.2733865489	 0.271372
H	-0.922630191	-0.1086844156	-1.9671469808	 0.075636
H	 0.8329913533	 0.0092404099	-2.0252229173	 0.107696
H	-0.5640490126	-2.5366358745	-1.0306520874	 0.097691
H	-0.196356269	-3.4652623989	-3.3575767328	 0.107561
H	 0.4959981668	-1.8535804411	-3.8740752532	 0.108993
H	 1.6019162865	-3.6094782616	-1.5598457044	 0.083452
H	 3.0671458326	-2.1285640412	-2.844567447	 0.287737
