17
gdb 110811	2.36062	1.57833	1.19673	5.5772	72.62	-0.2348	0.0151	0.2499	1077.9634	0.136009	-417.945909	-417.937513	-417.936569	-417.979261	30.757	
C	 0.0972126403	 0.9823268267	-0.4329661219	-0.235275
O	-0.1972398837	 0.0270445961	 0.5733972055	-0.229161
C	-1.379698399	-0.6524488653	 0.357395291	 0.149369
C	-1.5493889941	-1.6745452847	-0.7264782276	-0.089935
N	-0.2344783613	-2.2858909555	-1.0092664905	-0.31611
C	-0.2183173517	-2.8617976749	 0.3769555619	-0.140417
C	 1.0128596136	-2.6475387562	 1.1434511527	 0.323195
N	 1.983702339	-2.5500909373	 1.761974504	-0.333303
C	-1.4956184871	-2.0909071568	 0.7568029736	-0.165926
H	 1.043779805	 1.4493223544	-0.1545889405	 0.137002
H	 0.2027867578	 0.5019531764	-1.4131174611	 0.127055
H	-0.6811551729	 1.7575832903	-0.4908082829	 0.102151
H	-2.2889836043	-0.0792438136	 0.5574720884	 0.09492
H	-2.3563137501	-1.6852062894	-1.4493945859	 0.104505
H	-0.3111205796	-3.0342316215	-1.6895328993	 0.234528
H	-0.4245844015	-3.9368662689	 0.3698308225	 0.126756
H	-2.2405867806	-2.4619006598	 1.4482049101	 0.110646
