19
gdb 117119	2.52797	0.99238	0.73858	3.0057	78.95	-0.2441	-0.0182	0.2259	1545.7942	0.154303	-422.992972	-422.982181	-422.981237	-423.030009	37.354	
C	 0.2152836189	 0.987127389	 0.848709835	-0.226448
O	-0.0412329585	 0.0204628679	-0.1438528441	-0.213607
C	-0.8318437911	-1.0308253977	 0.3196784263	-0.165353
C	-1.0057493931	-2.0729863617	-0.7765337229	 0.364034
O	-0.3815965699	-2.0486875938	-1.8037193477	-0.276807
C	-2.0839013168	-3.1587895015	-0.51951539	-0.262839
C	-1.9000601292	-4.3590364847	-1.4641954721	-0.384202
C	-2.1645825077	-3.5607604774	 0.8819575427	 0.324603
C	-2.224088377	-3.9194925907	 2.0281437496	-0.477066
H	 0.8416725762	 1.7574849471	 0.3936899304	 0.134282
H	-0.7122794507	 1.4533394327	 1.2172365807	 0.105203
H	 0.7482643652	 0.5558832676	 1.7107287197	 0.106794
H	-0.3838309228	-1.5356212981	 1.1937667822	 0.126163
H	-1.8294734131	-0.6895072718	 0.651986186	 0.108297
H	-3.031278436	-2.6569182046	-0.7768694265	 0.1358
H	-0.9774992271	-4.894309026	-1.2269249629	 0.134577
H	-2.7390922694	-5.0507624406	-1.3628467331	 0.123035
H	-1.8353709599	-4.0096122795	-2.4955664725	 0.141299
H	-2.2801662379	-4.2317851762	 3.0417112792	 0.202233
