20
gdb 80679	3.81142	1.0311	0.99275	0.8725	79.87	-0.2283	0.0768	0.3051	1281.8373	0.171205	-403.074434	-403.066126	-403.065182	-403.107519	32.296	
O	-0.1654673134	 1.3773646788	-0.0229008775	-0.422454
C	-0.0588258783	-0.0119451975	 0.1316151595	 0.090997
C	-0.4856473404	-0.7370914581	 1.3749657725	-0.111424
C	-1.6730146772	-0.0251681201	 2.0343753625	-0.257871
C	-2.4753140804	-0.1358591364	 0.7013647456	 0.0696
C	-1.2834959845	-0.8550600654	 0.0538444733	-0.105218
N	-3.6284462706	-1.011623085	 0.8343712957	-0.069647
C	-4.9026047992	-0.3459445556	 1.0924902362	-0.225552
C	-4.6117284767	-0.93422904	-0.2435595723	-0.227569
H	 0.5018797859	 1.7893464825	 0.53587341	 0.285787
H	 0.8102774107	-0.4503976835	-0.3612041571	 0.086695
H	 0.156284434	-1.4648906235	 1.8581080769	 0.080512
H	-2.1459543155	-0.6315736441	 2.8081586144	 0.114204
H	-1.486029272	 0.9827580522	 2.4158929637	 0.087073
H	-2.7362412521	 0.8257194288	 0.2321782906	 0.063507
H	-1.3775135251	-1.6882290722	-0.632440635	 0.089371
H	-5.56847753	-0.8510350399	 1.786139106	 0.114093
H	-4.9047823954	 0.7405198993	 1.165881528	 0.110693
H	-4.4204466344	-0.2395161598	-1.0599486579	 0.112984
H	-5.0611928352	-1.8767954804	-0.5425206752	 0.114221
