18
gdb 13366	6.26686	0.94831	0.86911	1.6291	76.83	-0.2397	0.0566	0.2963	1346.3923	0.153939	-347.78715	-347.778331	-347.777387	-347.823644	29.91	
C	 0.1715904558	 1.5842350853	-0.3695515593	-0.498313
C	 0.1053014712	 0.1473680827	-0.1430478322	 0.075308
C	 0.0553784855	-1.0421922632	 0.0397823555	 0.050819
C	-0.0264113441	-2.4758212363	 0.266632553	-0.162214
C	 0.3833309927	-2.9423902215	 1.6912458619	-0.246169
C	-0.5027544181	-4.1911762126	 1.9297160095	-0.077771
O	-1.3482869199	-4.3320036056	 0.7883756762	-0.246606
C	-1.4492625695	-3.0675122812	 0.1660167227	-0.082954
H	 0.7963267665	 1.8224283407	-1.2376050473	 0.147561
H	-0.8232092263	 2.0052226153	-0.5532647446	 0.147428
H	 0.5958108677	 2.105621593	 0.495813385	 0.146885
H	 0.5972788391	-3.000653406	-0.4673398535	 0.104518
H	 1.4508658172	-3.1618492822	 1.7553429367	 0.11354
H	 0.1609051066	-2.1562981741	 2.4165718075	 0.1159
H	 0.0739200781	-5.1161014986	 2.0262125001	 0.108484
H	-1.1082410232	-4.0726855791	 2.8398034897	 0.096008
H	-2.1671053943	-2.4100529054	 0.6832041387	 0.092152
H	-1.7875109752	-3.2175252313	-0.8619192196	 0.115425
