16
gdb 18559	3.83136	1.96185	1.58777	3.0492	64.11	-0.2396	-0.025	0.2146	821.3093	0.131769	-383.751666	-383.74506	-383.744116	-383.782888	25.217	
O	 0.0905544985	 0.1121772571	-0.7632008941	-0.29512
C	 0.0236311605	 1.1824358962	-0.232999192	 0.419075
C	-1.1209360973	 2.003772231	 0.3781928362	-0.358051
C	-0.1000585702	 3.150103015	 0.6585991556	-0.040289
C	 0.30611785	 3.3240023124	 2.1242006416	-0.093096
O	 1.124166681	 2.1988276114	 2.4257597357	-0.247399
C	 1.9553554363	 1.9879951471	 1.2930091063	-0.097198
C	 1.0655299854	 2.2743823472	 0.0684561206	-0.170633
H	-1.9218870899	 2.2386316833	-0.3288217049	 0.131168
H	-1.5644812138	 1.5433998681	 1.2672672762	 0.136698
H	-0.3161807907	 4.0910665387	 0.1536418023	 0.082465
H	 0.8702970331	 4.2618888094	 2.25732095	 0.091507
H	-0.5340158246	 3.3209396799	 2.8240800903	 0.114079
H	 2.8133361351	 2.6792860877	 1.3016933204	 0.096342
H	 2.3300733368	 0.9620968545	 1.3317843144	 0.130157
H	 1.6258531097	 2.6327955808	-0.7971343485	 0.100293
