16
gdb 45861	2.6402	1.82172	1.2084	2.1255	70.72	-0.2542	-0.0285	0.2257	994.3072	0.127443	-434.09055	-434.083211	-434.082267	-434.122475	28.129	
O	 0.0691777011	-0.0308209902	 0.0938905455	-0.374433
C	 0.0546533137	 1.1808691986	 0.0135750041	 0.390304
N	-1.1177510664	 1.9070162375	-0.0711272647	-0.361178
C	-1.1494433444	 3.3056242746	-0.0852352307	 0.097209
N	-0.1600059946	 4.070679371	-0.2806266637	-0.235838
C	 1.121229688	 3.4284040045	-0.5682467806	-0.243448
C	 1.2826710507	 2.0417061357	 0.0331957714	 0.175333
C	 2.2102465269	 1.7574420912	 1.1752907872	-0.259167
N	 2.5589652901	 1.3593060013	-0.1865350972	-0.345358
H	-1.9768086792	 1.3812843419	 0.0082761384	 0.26258
H	-2.1413495854	 3.7228846365	 0.0839604981	 0.128029
H	 1.2271228205	 3.3630139546	-1.6613292287	 0.128699
H	 1.9298977045	 4.0790074211	-0.2240082219	 0.125519
H	 2.7891215907	 2.5821874509	 1.5828527324	 0.127632
H	 1.9202749303	 0.9877714359	 1.8846641704	 0.133473
H	 2.3585773435	 0.3651023749	-0.3013422201	 0.250643
