17
gdb 42656	2.60649	1.95271	1.78074	3.2094	75.24	-0.2195	-0.0208	0.1988	868.0155	0.139676	-384.723798	-384.717568	-384.716624	-384.754091	26.488	
O	 0.0030856835	 0.0312110198	 0.0541418925	-0.343887
C	-0.026671714	 1.2344358893	 0.0172364126	 0.451823
C	-1.2302524632	 2.1201518723	 0.0651206383	-0.181924
C	-0.7475474851	 3.4308842715	 0.6668144522	-0.070634
C	 0.7349443981	 3.2826446109	 0.9908258674	-0.231924
C	 1.1891946637	 2.1899131971	-0.0209604784	-0.198108
C	 1.1981393178	 2.8058631937	-1.4060571126	-0.104994
C	 0.0610014917	 3.3997341225	-1.7760858189	-0.055202
C	-1.071809574	 3.3726293503	-0.8124544637	-0.074047
H	-2.2096391759	 1.6934123969	 0.2312103688	 0.105847
H	-1.3887415616	 4.0154645821	 1.315113994	 0.098965
H	 1.2915394105	 4.2170575058	 0.8716955353	 0.107322
H	 0.8643027224	 2.9271512328	 2.0183189338	 0.112577
H	 2.1133195174	 1.6787203544	 0.2411125508	 0.087498
H	 2.0860506265	 2.7643325124	-2.0252948083	 0.101655
H	-0.0646332742	 3.9024618702	-2.7285167429	 0.098835
H	-2.0059894636	 3.829459358	-1.1173037112	 0.096197
