16
gdb 56926	2.27835	1.22843	0.96271	3.4857	75.05	-0.2782	-0.0074	0.2707	1250.8565	0.121617	-400.702368	-400.693119	-400.692175	-400.736986	33.132	
C	-0.2749269868	 1.3341455667	 0.0985400045	-0.397425
C	 0.1602911309	-0.1154084499	-0.2023551725	-0.204035
C	 0.9535344304	-0.206579718	-1.4264325026	 0.322757
C	 1.6311009455	-0.2693355709	-2.4167208613	-0.46197
C	 0.9633726586	-0.673616502	 0.9633740065	 0.083488
O	 0.2485139447	-0.9508471575	 2.1626243049	-0.233556
C	 0.8195319259	-2.0588628101	 1.4582565694	-0.107468
C	-0.1099395916	-2.9859706681	 0.8493719803	 0.311637
N	-0.837274663	-3.7440863094	 0.3677500287	-0.326753
H	 0.5963263476	 1.9838191934	 0.2232149288	 0.129551
H	-0.8767832221	 1.726528831	-0.7240205502	 0.136597
H	-0.8687323307	 1.3595270808	 1.0158646169	 0.139342
H	-0.7398245553	-0.7320387229	-0.3143393866	 0.136435
H	 2.2135000183	-0.335164154	-3.3025572738	 0.205191
H	 1.9361471399	-0.2046685721	 1.1173834724	 0.121525
H	 1.6642534876	-2.5347253669	 1.9523505847	 0.144685
