20
gdb 9918	4.76024	0.93204	0.8785	1.3197	72.28	-0.2526	0.0883	0.3409	1386.3971	0.174489	-386.112513	-386.102958	-386.102014	-386.147578	33.504	
C	-0.3364117031	 1.2722065165	-0.0394270415	-0.228772
O	 0.0910625779	-0.0639398384	 0.0634189061	-0.230577
C	 0.577232325	-0.5793799673	-1.1571500973	-0.051224
C	 0.9805862532	-2.0331473704	-0.9253290779	-0.274989
C	 1.4523791353	-2.7321312887	-2.1876258697	 0.419359
C	 2.744910948	-2.2454361915	-2.8094870889	-0.46098
C	 1.0096801202	-4.1109014878	-2.446351097	-0.229353
O	 0.4037477905	-3.0132706439	-3.132826365	-0.277061
H	 0.483612259	 1.9431354404	-0.342821206	 0.101231
H	-1.1556808375	 1.385287034	-0.7672742795	 0.104797
H	-0.6953143691	 1.5788100931	 0.946215307	 0.125728
H	-0.198311303	-0.5292463533	-1.9388679493	 0.103699
H	 1.4336768926	 0.0214889429	-1.5073298089	 0.082506
H	 1.7685798358	-2.0699233556	-0.1635639617	 0.106191
H	 0.1129108399	-2.5626586099	-0.5203411532	 0.112614
H	 3.5750674952	-2.338140282	-2.1008358332	 0.121782
H	 2.9823426467	-2.8279616994	-3.7028499464	 0.126813
H	 2.6722980619	-1.1936202775	-3.1035463389	 0.129048
H	 1.6218773506	-4.7671607359	-3.0645253193	 0.108503
H	 0.3733691209	-4.6204871353	-1.7235556793	 0.110685
