18
gdb 97275	2.3948	1.16118	0.80519	4.0925	81.97	-0.2464	-0.0201	0.2263	1418.8671	0.145351	-435.287855	-435.277795	-435.276851	-435.323498	34.885	
C	-0.0386821617	 1.157451305	 0.3831029855	-0.317753
N	 0.1259005072	-0.2779321111	 0.2917737825	-0.231755
C	 0.4688555263	-0.7576937982	-0.8278041626	 0.113172
N	 0.6064218583	-2.1341913991	-1.0378252778	-0.168032
C	 0.1239496607	-2.9856409012	-0.0041973959	 0.086046
N	 0.6266726052	-4.1211978526	 0.2205894256	-0.396328
C	 1.1066473443	-2.6586250025	-2.2629210473	 0.423545
C	 1.8305744007	-1.6815589123	-3.1774650727	-0.506826
O	 0.9638124373	-3.8145615664	-2.5614646029	-0.296824
H	 0.608578059	 1.5486738942	 1.1759265393	 0.135015
H	 0.1909218673	 1.6925190901	-0.5525910485	 0.10005
H	-1.0699021553	 1.3929595433	 0.6699901121	 0.133805
H	 0.6639037066	-0.1456937782	-1.7116535324	 0.105059
H	-0.6834953773	-2.5066454404	 0.551397546	 0.130671
H	 0.1220865468	-4.5716890877	 0.9842890768	 0.236087
H	 1.1306654323	-0.9979670005	-3.6694395101	 0.150266
H	 2.5729724983	-1.0821147169	-2.643944955	 0.146332
H	 2.3208962439	-2.2777197055	-3.9463715226	 0.15747
