20
gdb 107721	3.27101	1.31394	1.12708	2.1757	78.67	-0.2448	0.0841	0.3289	1153.5493	0.171217	-403.099337	-403.090957	-403.090012	-403.132063	32.843	
C	 0.1905108941	 1.4928534436	 0.0155917531	-0.495626
C	 0.0653733843	-0.0016436659	-0.0169248814	 0.350288
C	-1.2322147641	-0.7306038467	 0.4071944137	-0.284532
C	-0.2895327291	-1.8240579806	 0.8696675687	-0.086875
N	 0.8699416484	-0.8762842224	 1.0166448871	-0.241728
C	 0.853595225	-1.9065768139	-0.0901814711	 0.302047
C	 1.8839028281	-2.9954478551	-0.0749793722	-0.167162
O	 3.1898225145	-2.4751752904	-0.2623784364	-0.417519
C	 0.6459376674	-0.8544719658	-1.1665346244	-0.329021
H	 1.2266987697	 1.8024366208	-0.154067494	 0.125325
H	-0.4313642558	 1.9457766028	-0.7655824074	 0.122433
H	-0.1309601364	 1.8933064359	 0.9823464997	 0.125372
H	-1.7062220346	-0.2352271751	 1.2592227521	 0.108865
H	-1.9815055223	-0.9509865314	-0.3604625977	 0.096365
H	-0.4742253125	-2.5958200115	 1.6090414098	 0.093238
H	 1.8064753014	-3.5584538839	 0.8689401577	 0.090451
H	 1.7114738996	-3.7013121342	-0.8953356508	 0.112475
H	 3.2915527591	-1.777461132	 0.3965246141	 0.290229
H	 0.0051536961	-1.0781632651	-2.026321845	 0.092204
H	 1.610032717	-0.4692855891	-1.5084798656	 0.11317
