19
gdb 91117	2.79984	1.81201	1.45992	2.7864	73.13	-0.2369	0.0677	0.3047	950.8741	0.162102	-423.020205	-423.013022	-423.012078	-423.051764	29.093	
O	 0.069079624	 1.4198865969	-0.1650548422	-0.431257
C	 0.0378527427	 0.0200465433	-0.009974818	 0.150592
C	 0.7169840789	-0.5358139887	 1.2710952089	-0.291639
C	-0.0550694682	-1.8187871334	 1.5662354466	-0.051447
C	-1.4644075951	-1.7199603078	 2.1211005846	-0.0702
C	-2.0758086358	-0.3461299918	 2.3266562703	-0.093317
O	-2.158517993	 0.265970546	 1.0416219204	-0.26085
C	-1.4145587429	-0.4878095731	 0.0849763815	 0.061927
C	-1.2616317871	-1.9049763558	 0.6450653317	-0.09967
H	 0.9851226612	 1.6877321814	-0.2845796163	 0.283042
H	 0.4897526266	-0.4843962223	-0.881517354	 0.060021
H	 1.7803681197	-0.7389117276	 1.1136173	 0.091072
H	 0.6425704162	 0.2044832013	 2.075676981	 0.111442
H	 0.4989271127	-2.7170354016	 1.8146198179	 0.083025
H	-1.820626333	-2.5398773913	 2.7341373028	 0.089968
H	-3.0877386627	-0.4258232236	 2.7436389171	 0.100225
H	-1.4827719305	 0.2846879864	 3.0051658542	 0.097962
H	-1.9399451683	-0.4197646054	-0.8704578688	 0.081849
H	-1.5594415152	-2.787491033	 0.0947713622	 0.087256
