18
gdb 7053	5.26504	0.80432	0.7326	2.8808	78.3	-0.2436	-0.0245	0.2191	1540.1736	0.14996	-347.796419	-347.786268	-347.785323	-347.833902	33.666	
C	 0.0543777931	 1.4849724678	 0.0098167017	-0.498263
C	 0.0183317724	 0.0291677033	-0.0020663477	 0.090463
C	-0.0086046413	-1.1748592346	-0.0027163974	 0.052978
C	-0.058278843	-2.6356155689	-0.0289131661	-0.178296
C	-1.5044755745	-3.1514452717	 0.1158842375	-0.381876
C	 0.6104420931	-3.1839823164	-1.316210405	-0.265064
C	 0.8052618187	-4.6825144312	-1.2677037635	 0.155774
O	 0.4878475251	-5.4531724231	-2.1357888508	-0.238187
H	 1.0838466479	 1.8579209233	 0.0481620598	 0.148242
H	-0.4153200346	 1.9025222851	-0.8876008118	 0.148913
H	-0.4762706432	 1.8889692361	 0.8790412021	 0.148949
H	 0.5217350702	-3.0124159581	 0.8268752965	 0.105706
H	-2.1184492703	-2.8095754767	-0.7225759692	 0.131348
H	-1.5282689294	-4.2459606149	 0.131881402	 0.123259
H	-1.9549372567	-2.7826483194	 1.0405163968	 0.128011
H	 0.0311136284	-2.9231722963	-2.2060480491	 0.128036
H	 1.6060061304	-2.7304516885	-1.4137384876	 0.129996
H	 1.2979481938	-5.0461707658	-0.3331973081	 0.070013
