16
gdb 84263	3.07054	1.5189	1.11059	2.2586	70.29	-0.2475	-0.0395	0.2081	1068.4226	0.124237	-437.875158	-437.867459	-437.866515	-437.907531	28.858	
C	-0.1037427346	 1.5627299887	-0.0765440859	-0.381973
C	 0.0710998055	 0.0513054133	-0.0166994447	-0.06817
N	 0.9451639265	-0.4493050461	-1.1165103267	-0.30469
C	 1.5818985457	-1.4024931133	-0.586305687	 0.417949
O	 2.7889041486	-1.9978086843	-0.8295932921	-0.266886
C	 2.959000662	-2.1469174682	 0.6398300537	-0.124349
C	 1.4714128904	-1.7449086512	 0.8530147592	-0.270475
C	 0.7862369843	-0.4317312912	 1.3052177143	 0.352366
O	 0.79558968	 0.1217164059	 2.3639707646	-0.281115
H	 0.8695416555	 2.0608076723	-0.0918418342	 0.128804
H	-0.6479957906	 1.844529559	-0.9806479177	 0.13011
H	-0.6576755677	 1.9111618622	 0.7989045885	 0.132264
H	-0.9166092991	-0.4329308971	-0.0509419065	 0.109585
H	 3.2217212838	-3.1721695705	 0.9011169288	 0.139926
H	 3.7065980089	-1.4364421992	 0.9974943747	 0.14773
H	 0.8334302009	-2.5928910903	 1.1148506909	 0.138925
