19
gdb 72943	2.65999	1.71898	1.47832	0.4362	73.57	-0.2317	0.0691	0.3008	972.3255	0.159733	-422.965173	-422.957518	-422.956574	-422.997433	30.521	
O	 0.0667377202	 1.343890333	-0.1951642409	-0.482352
C	-0.0127306179	-0.0396217902	-0.0046431782	 0.388224
C	 0.4278750835	-0.9915254384	-1.1493829002	-0.296265
C	-0.9839858857	-1.660332918	-1.1134607436	-0.233739
C	-1.4202808469	-0.7155145853	 0.0423424954	-0.075762
C	-1.1646780046	-1.1542708845	 1.5228891523	-0.087115
C	-0.410886018	-2.4677596372	 1.7946121736	-0.091829
O	 0.8759395429	-1.8298514992	 1.5845936841	-0.291245
C	 0.2553746972	-0.5340158307	 1.4566143178	 0.036089
H	 0.9984999315	 1.5938778197	-0.1976264335	 0.277439
H	 0.6246244639	-0.4438521364	-2.0739137418	 0.099588
H	 1.2713198728	-1.6428370106	-0.916336339	 0.113881
H	-1.5616935737	-1.4978943911	-2.025887454	 0.104755
H	-0.9986055816	-2.7299379857	-0.8951361938	 0.102159
H	-2.3296704217	-0.1347435187	-0.1114114876	 0.076761
H	-1.9213997755	-0.853684535	 2.2461291822	 0.079736
H	-0.5069579825	-2.8205030532	 2.8293433646	 0.102181
H	-0.5728137511	-3.3127980808	 1.1169167715	 0.106491
H	 0.6582022174	 0.2103222322	 2.1517698312	 0.071004
