15
gdb 66759	2.84326	2.0576	1.50775	4.3599	67.37	-0.2232	-0.0114	0.2118	861.8335	0.112776	-420.555904	-420.549279	-420.548335	-420.586654	26.974	
O	-0.0635023254	 1.3887155217	-0.0177797785	-0.470545
C	-0.007257578	 0.0166735524	-0.0538197893	 0.276302
C	 1.0382548301	-0.7818634485	 0.7553148286	-0.162175
C	 0.6688389475	-2.2285295601	 0.3550706756	-0.05816
C	 1.6722368275	-1.440779766	-0.4475241825	-0.115192
C	 0.4530044331	-0.9202680689	-1.2790627936	-0.133178
C	-0.5081770405	-1.9848213768	-0.6111321431	-0.200853
C	-1.3093201592	-0.8105619179	-0.0147519559	 0.411588
O	-2.4631488841	-0.5657291016	 0.172173463	-0.320666
H	 0.8309275982	 1.7368275013	 0.0683808984	 0.289767
H	 1.453305974	-0.5425281294	 1.7264228044	 0.098914
H	 0.8241812144	-3.0629303824	 1.0259951438	 0.102601
H	 2.7066482301	-1.6433898409	-0.688063921	 0.098926
H	 0.3979705961	-0.6196686443	-2.3207042096	 0.091967
H	-0.9748045838	-2.8135354087	-1.1354232202	 0.090705
