19
gdb 33252	5.34145	0.75349	0.68388	1.2639	79.78	-0.1676	0.0596	0.2272	1623.507	0.16072	-419.222533	-419.213418	-419.212474	-419.257003	33.855	
O	-0.0313604693	 1.4118933967	-0.199425202	-0.420979
C	-0.0213965244	 0.0119779278	 0.0622510618	-0.097043
C	-1.4628264312	-0.4671968574	 0.0350201071	-0.1124
N	-2.0382002138	-0.2309158289	-1.2747279018	-0.402949
C	-3.3919789942	-0.5424370539	-1.4516123915	 0.321012
C	-4.1910631419	-1.3222568036	-0.6374405505	-0.175731
N	-5.4338077585	-1.4094808514	-1.2372864952	-0.247104
C	-5.4392959122	-0.6933427064	-2.3995236724	-0.062659
C	-4.189316617	-0.1440543036	-2.5675653964	-0.260193
H	 0.8723507144	 1.6978044183	-0.3581589956	 0.290758
H	 0.5540176002	-0.5274540678	-0.703963348	 0.09819
H	 0.4205929748	-0.2068765683	 1.0460719845	 0.087721
H	-1.4784560865	-1.5438278487	 0.2483695049	 0.102119
H	-2.0270445929	 0.031885452	 0.8434970045	 0.092418
H	-1.8095602037	 0.7027523194	-1.5914316185	 0.235194
H	-3.9878695287	-1.81769868	 0.2963292872	 0.102295
H	-6.2163907169	-1.9136600261	-0.8629769126	 0.255633
H	-6.3228455884	-0.6324422059	-3.0144474314	 0.111649
H	-3.8672156698	 0.4696025481	-3.395175414	 0.08207
