19
gdb 39085	3.23662	1.67484	1.58608	1.9673	78.98	-0.2374	0.0058	0.2432	933.4431	0.162369	-385.838216	-385.831738	-385.830794	-385.868592	28.037	
C	-0.054132025	 1.5594791408	-0.130821442	-0.210479
C	 1.4834275143	 1.7822798685	-0.1322137654	-0.252592
C	 1.9238523237	 0.2989975531	 0.039276774	 0.433051
O	 1.0450144983	-0.3368692973	-0.9741087479	-0.371477
C	-0.01581712	 0.0326423124	 0.0011067208	-0.016657
C	 1.0365022603	-0.3032514707	 1.1043788424	 0.043058
C	 1.6986905713	 0.1522178045	 2.4113348274	-0.362783
C	 3.1661771629	 0.0725788691	 1.9250897091	-0.040549
C	 3.3009664619	 0.066470878	 0.5857452221	-0.239952
H	-0.5646669286	 2.044102918	 0.7067299023	 0.096796
H	-0.5377078	 1.8678969624	-1.0601056764	 0.10698
H	 1.8570683303	 2.1785811086	-1.0789331297	 0.10709
H	 1.8368597825	 2.4278827874	 0.6752209649	 0.100726
H	-0.9310103211	-0.5444961077	-0.1293285332	 0.07831
H	 1.1718113781	-1.3856092866	 1.0358982921	 0.099559
H	 1.4525290493	 1.1810191271	 2.7050443583	 0.115924
H	 1.5043275404	-0.4886786117	 3.2763073233	 0.107211
H	 3.9959354221	 0.0772036078	 2.6241519595	 0.099822
H	 4.2382243095	 0.0705762562	 0.0435313686	 0.105961
