17
gdb 88305	2.5232	1.11354	0.96962	1.9438	74.49	-0.2615	-0.0443	0.2172	1278.0208	0.13459	-418.011042	-418.001759	-418.000815	-418.04637	32.782	
C	 0.9048861547	 1.8539122595	-0.2187415745	-0.406843
C	 0.0543165494	 0.6665999974	 0.15333925	 0.012925
N	 0.6406083335	-0.6560131385	 0.0021803784	-0.311898
C	 0.3158997887	-0.200959355	 1.3662213297	-0.152983
C	 1.4602712593	 0.0697614297	 2.2853565844	 0.416354
O	 2.5898755351	 0.2897123039	 1.9291112268	-0.293085
C	 1.1366894476	 0.0431845813	 3.8025065999	-0.436954
C	-0.1323016594	 0.6645574289	 4.1596430631	 0.258814
N	-1.1433014847	 1.1621918366	 4.4171437619	-0.307337
H	 1.9464849979	 1.6847528997	 0.0564500182	 0.163033
H	 0.854424801	 2.0173222888	-1.3003890954	 0.125891
H	 0.5421153862	 2.7599000084	 0.2772910051	 0.123896
H	-1.0064517009	 0.7716070423	-0.0737519171	 0.102882
H	-0.0526689689	-1.3369836803	-0.2969054776	 0.242454
H	-0.5705320315	-0.6046332156	 1.8489565801	 0.107107
H	 1.1169873459	-1.008179222	 4.1191765158	 0.176346
H	 1.9639391761	 0.5284667848	 4.3256912913	 0.179398
