18
gdb 78441	3.13067	1.52475	1.3155	4.0693	76.64	-0.2314	0.0054	0.2368	1026.5955	0.148341	-401.904871	-401.89759	-401.896646	-401.936276	29.453	
C	-0.1474058627	 1.3517870799	-0.0464285107	-0.326413
N	 0.0367729641	-0.0919787317	 0.0264382561	-0.097905
C	 1.4183045087	-0.5593528298	-0.1860487969	-0.01942
C	 0.8196464223	-0.5667026143	 1.1814119248	-0.01942
C	 0.681084067	-2.0712277728	 1.4542738381	-0.186374
C	 2.066215739	-2.5908003776	 0.9014963223	-0.248357
C	 1.530752901	-2.060800885	-0.4864862044	-0.186376
C	 0.1808234445	-2.5658268681	 0.0761990053	 0.456708
O	-0.6874035747	-3.2856237472	-0.307779562	-0.326418
H	 0.7134748445	 1.9280365431	 0.3335929046	 0.099594
H	-0.3185221375	 1.6391076604	-1.0882785969	 0.13077
H	-1.0301460044	 1.6303617153	 0.5370535157	 0.130771
H	 2.180944981	 0.1462697662	-0.4980843219	 0.095361
H	 1.1049260032	 0.1330588132	 1.9597687321	 0.095361
H	 0.2520775589	-2.4110493564	 2.3939718286	 0.085463
H	 2.9532728402	-2.0882772789	 1.2925519032	 0.109379
H	 2.1784542705	-3.6760299823	 0.9448075367	 0.121816
H	 1.9315346645	-2.3904402539	-1.4421374848	 0.085462
