17
gdb 45494	3.02067	1.74333	1.53724	4.671	70.27	-0.2592	0.01	0.2692	912.7143	0.13965	-421.875575	-421.869202	-421.868258	-421.906308	26.145	
O	 0.0201331764	 0.0134253912	-0.4480313784	-0.350008
C	 0.0384357586	 1.1549913577	-0.0877295949	 0.44166
O	-1.1000124023	 1.8401321359	 0.2286881007	-0.238952
C	-0.8030492909	 3.1891593126	 0.661341761	 0.073396
C	-0.8217844802	 3.2063823157	 2.1930910544	-0.204359
C	 0.5049512042	 2.5023488337	 2.5785180211	-0.248297
C	 1.4333416293	 2.7831131369	 1.3923697479	-0.046636
C	 0.6681472174	 3.4536486533	 0.2874659277	-0.097273
C	 1.2124654758	 2.0729222573	 0.0534264019	-0.20382
H	-1.5269656136	 3.8502385741	 0.1837721994	 0.095487
H	-0.8093056537	 4.2472690192	 2.5355639477	 0.105444
H	-1.7138688046	 2.722341555	 2.5973308877	 0.117746
H	 0.9249002354	 2.9069806738	 3.5026667811	 0.107958
H	 0.3576757374	 1.4296299994	 2.7376155668	 0.127408
H	 2.4630825536	 3.059393079	 1.586770722	 0.100962
H	 0.9803621643	 4.3349471737	-0.2565983402	 0.102018
H	 2.0744499729	 1.8643156016	-0.5660399458	 0.117267
