21
gdb 114385	3.43864	1.07401	0.99468	2.5297	78.77	-0.2385	0.0667	0.3052	1294.0865	0.181138	-424.179961	-424.170606	-424.169662	-424.213781	35.787	
C	 0.459781423	 1.7583286888	-0.5901182859	-0.46695
C	 0.4239771948	 0.2531653224	-0.4109220245	 0.30505
C	-0.7306197724	-0.4298887383	-1.1295802537	-0.452377
C	 1.6777536284	-0.5650808882	-0.3787793327	 0.05321
O	 2.7628638434	 0.1225946372	 0.2585365778	-0.320487
C	 2.0667037162	 0.0409999335	 1.5439314909	 0.113125
C	 2.1225208673	 1.337211405	 2.3320782921	-0.092369
O	 3.4707170767	 1.7098812381	 2.5630628686	-0.421659
C	 0.8100766903	-0.4979788572	 0.8666643471	-0.219463
H	 1.436121387	 2.1670928896	-0.3279975775	 0.132392
H	 0.2664960516	 2.0108143734	-1.6391219883	 0.110953
H	-0.3051775737	 2.2575856191	 0.0148974878	 0.114908
H	-0.7158725451	-0.1925543835	-2.1989104078	 0.120002
H	-0.68723066	-1.51908239	-1.0260271896	 0.115482
H	-1.6934982279	-0.0965375424	-0.7263732193	 0.122226
H	 1.9301247211	-1.3742728238	-1.0562859731	 0.101135
H	 2.550852006	-0.7467398017	 2.1371211765	 0.09178
H	 1.5631365785	 2.1353966004	 1.8292162926	 0.094141
H	 1.6638884207	 1.1782530427	 3.3148896573	 0.108913
H	 3.8986349612	 1.7310782084	 1.6989282507	 0.294814
H	 0.159550423	-1.2490649534	 1.2958755912	 0.095176
