21
gdb 59551	2.53896	1.32776	1.03895	1.4494	78.26	-0.2405	0.068	0.3085	1231.1407	0.180996	-424.193836	-424.184377	-424.183433	-424.227773	36.451	
C	 0.090123198	 1.5470828031	-0.0024330111	-0.408776
C	 0.0299281792	 0.0242309159	 0.0884755507	 0.109932
O	 0.5966296032	-0.452952242	 1.3177316127	-0.438689
C	-1.3778260356	-0.5396757811	-0.0615995427	-0.058783
C	-2.1325111656	-0.5655694536	-1.4380807042	-0.269354
C	-2.333771298	-2.0812098461	-1.2773248356	-0.111851
C	-0.9754578815	-2.7448172565	-1.2161267228	-0.340779
C	-1.5246385728	-2.0616114404	 0.0085767457	 0.413828
O	-1.765301658	-2.7440207686	 1.1872443152	-0.46873
H	 1.115400338	 1.900735883	 0.1376486334	 0.123679
H	-0.2688491778	 1.897511826	-0.9756587385	 0.122463
H	-0.5411292038	 2.0075845749	 0.7684589267	 0.105891
H	 0.6763750248	-0.4058783415	-0.6857052616	 0.086788
H	 0.1194456817	-0.0240474669	 2.0375296927	 0.276737
H	-2.0267346917	-0.0867226155	 0.6991994159	 0.066076
H	-3.0554121969	 0.0170869501	-1.4254615919	 0.105299
H	-1.5429377696	-0.2696309129	-2.3132462377	 0.094504
H	-3.2328084971	-2.6314867528	-1.5241052512	 0.092569
H	-1.0037487542	-3.827139542	-1.1429365291	 0.114402
H	-0.1382861967	-2.3507250323	-1.7890610684	 0.099532
H	-0.9222389257	-2.7829931909	 1.6553919918	 0.285263
