15
gdb 4963	3.30645	2.30892	1.37098	0.9766	70.71	-0.2271	-0.0146	0.2125	863.281	0.121061	-362.743721	-362.736874	-362.73593	-362.774607	26.183	
C	-0.0365882555	 1.5483839754	-0.0197186695	-0.490004
C	-0.0007305116	 0.0455591534	-0.0373084308	 0.187676
C	-0.0865950695	-0.7108764677	-1.196933098	-0.146669
C	-0.0467591681	-2.1067366351	-1.1408770602	-0.132912
C	 0.0803303159	-2.7043920923	 0.1017996994	-0.010942
N	 0.1659317272	-2.0063562215	 1.2426103545	-0.362978
C	 0.125462667	-0.6856873313	 1.1592866788	 0.372413
O	 0.2128506551	 0.0095817474	 2.3171867087	-0.414351
H	 0.8748806181	 1.9616730286	 0.4256026367	 0.13951
H	-0.1387883832	 1.9490724237	-1.031513802	 0.117992
H	-0.8719343468	 1.9181424895	 0.5847236805	 0.139522
H	-0.1855154936	-0.2052270112	-2.1532782297	 0.100361
H	-0.1129206575	-2.7077715539	-2.0398172823	 0.096137
H	 0.1163700973	-3.7858573363	 0.2024109968	 0.108388
H	 0.2924228652	-0.6549992388	 3.0157404372	 0.295855
