22
gdb 60573	2.84102	1.02864	0.87629	2.2573	82.65	-0.2401	0.0718	0.312	1428.8113	0.193117	-404.305011	-404.294888	-404.293944	-404.340756	37.134	
C	 0.0937833641	 1.5289670594	-0.2286061799	-0.389573
C	 0.1240610669	 0.0402676359	 0.0201730829	-0.000981
N	 1.4437320431	-0.6161087761	 0.0902462904	-0.340567
C	 0.5826574338	-0.5910964609	 1.2856328089	-0.034051
C	 1.0878477568	 0.1892421916	 2.4850909863	 0.112598
O	-0.0014621049	 0.7667436099	 3.2077729881	-0.436767
C	 1.9694624271	-0.6624649188	 3.3719607541	 0.00182
C	 3.4443402473	-0.7852252488	 3.0796374906	-0.258636
C	 2.9746264276	-0.012409471	 4.2858955844	-0.27901
H	 0.9387866056	 2.0302478711	 0.2474324724	 0.127211
H	 0.1456541669	 1.7383878226	-1.3024897455	 0.113186
H	-0.8304974189	 1.9667368328	 0.1617218878	 0.124379
H	-0.6597640616	-0.5088112374	-0.5019134884	 0.07754
H	 1.4204270804	-1.5309725655	-0.3509415913	 0.228454
H	 0.082834008	-1.5235789127	 1.5570046956	 0.065828
H	 1.6737008995	 1.0404327286	 2.125337843	 0.086368
H	-0.4688454254	 0.0524962928	 3.6539842825	 0.273632
H	 1.4792147547	-1.559516866	 3.7499424144	 0.067321
H	 3.9195512572	-1.7473413831	 3.2354686822	 0.10737
H	 3.8311352689	-0.2311700107	 2.2317460167	 0.1277
H	 3.0459684716	 1.0699031308	 4.261528497	 0.117969
H	 3.1319342115	-0.4442088146	 5.2681161878	 0.108211
