20
gdb 90892	2.43391	1.90884	1.40166	2.5411	76.6	-0.2188	0.0587	0.2774	996.0993	0.171799	-403.112323	-403.104386	-403.103442	-403.144118	32.228	
C	-0.0904291534	 1.5882381184	-0.0060211061	-0.434439
C	 0.0376608863	 0.0660465234	-0.0042562676	-0.001409
C	 0.8537122396	-0.5325847087	-1.1807992418	-0.269925
C	 1.5138579696	-1.7720783902	-0.5837359633	-0.020107
C	 1.0972816502	-1.9842532838	 0.8158633745	-0.099711
N	 2.5235430813	-1.6161800485	 0.5103297712	-0.150983
C	 2.2887160845	-0.2786177849	 1.1554643028	-0.220856
C	 0.7551477277	-0.5313564874	 1.2232657837	 0.38283
O	 0.1011177388	-0.3823885337	 2.4509741737	-0.50206
H	 0.8893436603	 2.0775948857	 0.0290282711	 0.120759
H	-0.6021103282	 1.938877795	-0.9077737855	 0.123947
H	-0.676924583	 1.9428924547	 0.8501757248	 0.106274
H	-0.9684420737	-0.3739546582	-0.0154349806	 0.079356
H	 0.2131506912	-0.8037639616	-2.0251988312	 0.105923
H	 1.5983082524	 0.175886664	-1.5635599784	 0.104951
H	 1.751115868	-2.6138403555	-1.2253633287	 0.09647
H	 0.805273977	-2.9035044659	 1.3088957645	 0.096185
H	 2.7392778921	-0.2956096211	 2.1505080873	 0.113425
H	 2.6681220795	 0.5836725292	 0.5951998308	 0.089431
H	-0.0310383103	 0.557604619	 2.6145638486	 0.279939
