18
gdb 81294	2.31847	1.7496	1.60002	3.479	72.43	-0.2524	0.0137	0.266	963.5407	0.149349	-439.079409	-439.071799	-439.070855	-439.111345	29.643	
C	-0.1783453557	 1.6203960621	-0.0103371413	-0.440212
C	 0.0346549561	 0.1160243248	-0.0138654358	 0.004639
C	 0.8397897245	-0.6159900188	-1.1155253755	 0.046143
C	 2.0968331197	 0.1395145483	-1.5088938355	-0.083978
O	 2.8184366994	 0.5980058042	-0.3469458315	-0.270828
C	 2.3721049035	 0.2240597111	 0.8896206166	 0.44345
N	 2.9611147356	 0.5480098101	 1.959658399	-0.53459
C	 1.0986003463	-0.5800204545	 0.8753971716	-0.02178
O	 1.2449132599	-1.6163654549	-0.1408007618	-0.29391
H	 0.7562604807	 2.1742130658	-0.1328630229	 0.138279
H	-0.8563636904	 1.9150134275	-0.8184321099	 0.121443
H	-0.6328170913	 1.9404317639	 0.9325760301	 0.133418
H	-0.9116306442	-0.4136872158	 0.1233297061	 0.098366
H	 0.326360241	-1.0383033132	-1.9840423904	 0.088391
H	 2.7654326647	-0.5180908012	-2.0747224352	 0.127684
H	 1.8656461296	 1.0195897237	-2.1197135901	 0.1164
H	 3.7943887947	 1.1045262835	 1.754082696	 0.220688
H	 0.8519121759	-0.9600314066	 1.8655934304	 0.106398
