19
gdb 121658	2.99139	0.81298	0.69372	2.7856	72.74	-0.2473	-0.0307	0.2166	1635.4948	0.156112	-460.13728	-460.12725	-460.126306	-460.174033	34.285	
C	 1.4511495937	 0.6457273015	 0.0469880539	-0.237839
O	 0.157087031	 0.0928798222	-0.0074256969	-0.229513
C	-0.1498516968	-0.5555768593	-1.2252522056	-0.068166
C	 0.4582175697	-1.9581991157	-1.3200218796	-0.328784
C	 0.0142528268	-2.6951714072	-2.5675778313	 0.354023
O	-0.7936010147	-2.245326292	-3.3505471262	-0.310763
C	 0.5964496541	-4.0622325763	-2.8174330716	-0.002869
C	 2.0578161468	-4.2768074001	-2.870371786	-0.176717
O	 1.2979962496	-4.7009736585	-1.7493803131	-0.214947
H	 2.2435311226	-0.1181147349	 0.0248191478	 0.10176
H	 1.6272582533	 1.3474934105	-0.7836076343	 0.105015
H	 1.5288552715	 1.1913294452	 0.9907057099	 0.130193
H	-1.239229585	-0.6297671495	-1.2696064954	 0.125368
H	 0.1683068223	 0.0536365045	-2.084703582	 0.098147
H	 1.5541833225	-1.9283898977	-1.2876588939	 0.12347
H	 0.1666803814	-2.5585960704	-0.4488697025	 0.151072
H	-0.0398482676	-4.7055646358	-3.4230440019	 0.121551
H	 2.4437162831	-5.0684113118	-3.5102776046	 0.134136
H	 2.7359770356	-3.4432940448	-2.6953516568	 0.124865
