18
gdb 48854	2.91696	1.40945	1.16148	2.5821	72.59	-0.2358	-0.0294	0.2064	1088.5981	0.14851	-439.062789	-439.054933	-439.053988	-439.095306	29.92	
O	-0.1365331451	 0.0467803113	 0.2999194709	-0.265316
C	 0.012484931	 1.1593421313	-0.142054875	 0.122168
C	 1.2647571789	 1.9544956316	 0.0105089784	 0.184507
C	 1.1367437102	 3.4275517627	 0.2557285561	-0.272403
N	 1.458548057	 2.9493056341	-1.0737943276	-0.132769
C	 2.8357150648	 3.1717592287	-1.5604043477	-0.160089
C	 3.8424279197	 2.1429156729	-1.0415794799	-0.085868
O	 3.6684661329	 1.9217890751	 0.3476206954	-0.241374
C	 2.4648547274	 1.2157995167	 0.582745693	-0.173995
H	-0.7864101743	 1.6868735416	-0.7081030392	 0.086176
H	 0.1572340635	 3.8862107597	 0.3716165298	 0.119853
H	 1.933034772	 3.8665022145	 0.8537934814	 0.132904
H	 2.8157311323	 3.1440728841	-2.6559095664	 0.113709
H	 3.1478307304	 4.1789516697	-1.2645452144	 0.11575
H	 3.7346405767	 1.190580912	-1.5855515503	 0.099084
H	 4.8651235597	 2.5016179843	-1.187539239	 0.115799
H	 2.3662451823	 1.0977352214	 1.6649319504	 0.127844
H	 2.5133279207	 0.2096991383	 0.1394883039	 0.11402
