18
gdb 70099	2.49905	1.90845	1.34465	1.3655	77.17	-0.2367	-0.0028	0.234	988.1631	0.147819	-401.910419	-401.902674	-401.901729	-401.942231	30.793	
C	-0.082228276	 1.4903918308	-0.0118191501	-0.490681
C	 0.0662536543	-0.0065272717	-0.0100410276	 0.19354
N	-0.5173139166	-0.8353136996	 1.0702502583	-0.368075
C	 0.9695090382	-0.7774557909	 0.8883099226	-0.147919
C	 1.4943041988	-1.9274998798	 0.0952228189	-0.06365
C	 0.9697270297	-1.9309797179	-1.1345336345	-0.164126
C	 0.0666188817	-0.762940922	-1.3301336226	 0.430433
C	-1.0415663788	-0.7114861822	-2.2910933479	-0.241223
O	 0.1728713734	-0.0047662558	-2.5494331028	-0.288115
H	 0.6253068481	 1.9515977309	-0.7054977536	 0.145129
H	-1.0904980838	 1.7882873271	-0.3221637245	 0.12571
H	 0.0942841354	 1.8971101994	 0.9890415777	 0.111699
H	-0.7711157047	-0.210833483	 1.8369179291	 0.223012
H	 1.5659514953	-0.3044256749	 1.6612939087	 0.091586
H	 2.1725829153	-2.6699166326	 0.4974035961	 0.106913
H	 1.1351353072	-2.6705058928	-1.9082621779	 0.106607
H	-1.2348439905	-1.5650730066	-2.9398398322	 0.115078
H	-1.9109937071	-0.0930868784	-2.0697990576	 0.114082
