18
gdb 121526	5.66418	0.46119	0.42991	5.2415	80.42	-0.2493	-0.0151	0.2342	2420.5034	0.145092	-439.084783	-439.073638	-439.072693	-439.124734	36.868	
N	-0.0439151089	 1.3548942598	 0.0003395224	-0.520411
C	 0.0656761658	-0.006950501	-0.0307821741	 0.258681
O	 1.1325165191	-0.5885292702	-0.0768205289	-0.334292
C	-1.2149982796	-0.6983414074	-0.0168776935	 0.108666
C	-2.2478950487	-1.3203757644	-0.0056234582	-0.00382
C	-3.4786939791	-2.098815389	 0.0065285222	-0.368377
C	-3.2332465772	-3.61971297	 0.0161160342	-0.157394
C	-4.537210789	-4.4072620881	 0.0265805368	-0.074198
O	-4.2070247598	-5.7850449951	 0.036999252	-0.419186
H	 0.8020768715	 1.8981370563	 0.0538108972	 0.264288
H	-0.9332958	 1.807521546	 0.1166418342	 0.263626
H	-4.0751403543	-1.8122694239	 0.8835379241	 0.134936
H	-4.0828350699	-1.8247144915	-0.8692281521	 0.135892
H	-2.6478415248	-3.9061801402	-0.8630227476	 0.127096
H	-2.6413571303	-3.8941412139	 0.8947964763	 0.126449
H	-5.1323460296	-4.1302369592	 0.9131883486	 0.085053
H	-5.1376470821	-4.1448357384	-0.8608502443	 0.085356
H	-5.0236664831	-6.2925741899	 0.0420285306	 0.287634
