18
gdb 128089	3.94624	1.01784	0.87869	1.359	73.51	-0.2214	-0.0224	0.199	1337.8638	0.147877	-435.255779	-435.246888	-435.245944	-435.290233	31.783	
C	 0.1785929533	 1.4762838717	 0.2045054354	-0.316475
N	-0.1457542722	 0.0909880251	-0.0952388049	-0.278188
C	 0.5534137572	-0.4848308926	-1.2340398336	-0.07368
C	 2.0984803813	-0.5138985332	-1.148071356	-0.404864
C	 0.0552463564	-1.8802869889	-1.4848345085	 0.390372
N	-0.6089604906	-2.5781581492	-0.6028701311	-0.185776
O	-0.8167547824	-3.809332836	-1.2445866407	-0.155067
C	-0.2478809976	-3.6967101182	-2.4437532724	 0.102815
N	 0.310082686	-2.5518823196	-2.667701055	-0.309544
H	 1.228560355	 1.6697420053	 0.4813461114	 0.098896
H	-0.0534556596	 2.0999197705	-0.666995011	 0.120994
H	-0.4526575497	 1.8179721129	 1.0299897986	 0.123831
H	-0.031236379	-0.4982340976	 0.7218480164	 0.230761
H	 0.2810287931	 0.105679288	-2.1197777691	 0.109682
H	 2.4987349184	 0.4996596719	-1.0660024492	 0.122277
H	 2.4219411262	-1.0871086064	-0.2724952968	 0.118545
H	 2.5239425824	-0.9780507028	-2.0418668244	 0.139211
H	-0.3094892684	-4.5522554308	-3.1004848392	 0.16621
