19
gdb 52961	5.85411	0.76539	0.72826	1.982	88.26	-0.2301	0.0293	0.2594	1629.7648	0.156942	-385.836318	-385.826782	-385.825838	-385.871838	34.348	
C	-0.0188883937	 1.5034585824	 0.1244079922	-0.513033
C	-0.0387741886	 0.0530793726	 0.0203540547	 0.298987
C	-0.0624871742	-1.1495634897	-0.0543382095	-0.21589
C	-0.0459094012	-2.5651284911	-0.1840541413	 0.297517
C	 0.774696316	-3.427494445	-1.1627451968	-0.338148
C	-0.3816867917	-4.4955681849	-1.1351854017	 0.002698
C	-0.0551060263	-5.9087828795	-0.6747136633	-0.405619
C	-1.1213528053	-3.5859205554	-0.1373819621	-0.068147
O	-0.2639559442	-3.3879944338	 0.9855956037	-0.284487
H	 0.8775688755	 1.922095525	-0.3460479412	 0.15182
H	-0.891798647	 1.9521668535	-0.362736052	 0.150622
H	-0.0226692535	 1.8216548899	 1.1727402976	 0.155648
H	 0.9034781124	-2.9632049672	-2.1422749414	 0.113226
H	 1.7446298088	-3.7458716799	-0.7731146589	 0.109807
H	-0.9022763223	-4.5060457934	-2.0981504449	 0.078716
H	 0.41017381	-5.8855110549	 0.3146340106	 0.134326
H	-0.9586688232	-6.5254224472	-0.6142987003	 0.113728
H	 0.6367361929	-6.3984682834	-1.3680609066	 0.114724
H	-2.1873113842	-3.470020948	 0.0282808712	 0.103506
