19
gdb 67371	2.24212	1.94097	1.90253	1.8956	78.48	-0.2316	0.0025	0.2341	916.1699	0.160969	-385.870831	-385.863721	-385.862777	-385.901837	29.35	
C	-0.0117253267	 1.5292701922	 0.0402425143	-0.52687
C	 0.0110901541	 0.0242619856	 0.0092226974	 0.307461
C	 0.6949709198	-0.88357081	-1.0456110384	 0.070887
C	 1.5424108863	-1.5548484132	 0.0614464515	-0.245402
C	 0.6855515776	-0.8045160545	 1.1568721286	-0.13271
C	-0.4405663373	-1.6162773858	 1.7415200607	-0.078426
C	-1.5196152291	-1.6169092634	 0.9540515171	-0.078228
C	-1.2605771546	-0.8102881603	-0.2916991602	 0.02941
O	-0.542420929	-1.5696643546	-1.3280355901	-0.32299
H	 0.9980096807	 1.9401703121	 0.1504103794	 0.118757
H	-0.4415252421	 1.9400352538	-0.8799983672	 0.123364
H	-0.611255956	 1.8938538491	 0.8828284546	 0.123982
H	 1.1922757248	-0.5402518592	-1.9568374608	 0.070703
H	 1.5247439355	-2.6458817088	 0.0853804501	 0.107355
H	 2.5793027029	-1.2055037362	 0.0434887583	 0.097955
H	 1.2761394753	-0.2554030612	 1.8940539073	 0.068722
H	-0.3416322966	-2.1741107845	 2.6671246368	 0.098397
H	-2.4359588627	-2.1674477059	 1.1311601111	 0.097994
H	-2.1334644831	-0.3143321252	-0.7282552108	 0.069639
