22
gdb 57373	1.90789	1.67805	1.21168	2.9757	81.93	-0.2463	-0.0236	0.2227	1162.8161	0.191552	-404.339174	-404.329052	-404.328108	-404.373535	38.593	
C	-0.2596130936	 1.482513424	 0.0195206202	-0.439603
C	-0.0205618013	-0.0389839242	-0.0389695915	 0.157765
C	 0.8166358931	-0.4363625973	 1.1970176285	-0.41987
C	-1.3894646675	-0.751627947	-0.0004181105	-0.41534
C	 0.730200693	-0.4653002606	-1.3179575911	 0.21509
C	 0.4589964204	 0.1807789762	-2.6478605856	-0.280323
N	 1.7366772651	 0.4043842993	-1.9834343117	-0.35569
C	 1.1559161844	-1.8989567442	-1.4685236384	 0.155938
O	 0.7927101632	-2.8348345096	-0.800672644	-0.277588
H	 0.6732127777	 2.0552492532	 0.0696549763	 0.113012
H	-0.8526997374	 1.8544421765	-0.8214509865	 0.115611
H	-0.8179886477	 1.7179238474	 0.9307390653	 0.124378
H	 0.3121112839	-0.1094851918	 2.1121200821	 0.107985
H	 0.9564977206	-1.5166136048	 1.2519766019	 0.146839
H	 1.8034670754	 0.0392985704	 1.1726988263	 0.108731
H	-2.0087113684	-0.4573505183	-0.8549529278	 0.1048
H	-1.2683883935	-1.8353985179	-0.0178335718	 0.149665
H	-1.929545491	-0.4789520047	 0.9126449023	 0.106957
H	 0.5092634957	-0.4105706643	-3.5589624614	 0.125295
H	-0.2792490929	 0.9758165644	-2.6711642287	 0.126034
H	 1.7418366298	 1.3164535226	-1.5362401144	 0.239116
H	 1.8716160309	-2.0289834793	-2.3106237993	 0.091196
