18
gdb 9008	6.23853	0.82148	0.75374	0.8882	83.44	-0.2454	0.0456	0.291	1510.3962	0.150376	-310.619753	-310.609724	-310.60878	-310.655643	34.743	
C	 0.0487973693	 1.4960949695	 0.0154757653	-0.498087
C	 0.0382151534	 0.0402507703	-0.0198224786	 0.091179
C	 0.0447930781	-1.1639117434	-0.0493719086	 0.040278
C	 0.0282544883	-2.6217438265	-0.0724296364	-0.351261
C	-1.4105766287	-3.2186304329	-0.0261280263	-0.151523
C	-2.2432689544	-2.8060897169	-1.2536538469	-0.3841
C	-1.3414683198	-4.6723317657	 0.1052606338	 0.322097
C	-1.2649645826	-5.8688578065	 0.1958448795	-0.465256
H	 0.873601886	 1.872848639	 0.630513725	 0.148345
H	 0.1641211887	 1.9199726362	-0.9882670307	 0.147195
H	-0.8826649866	 1.8910916337	 0.436027852	 0.147216
H	 0.5300008017	-2.9938331599	-0.9746930943	 0.132879
H	 0.5967080525	-3.0155893283	 0.7778589751	 0.135631
H	-1.8978437918	-2.8143519498	 0.8705964178	 0.114806
H	-1.79623237	-3.2005339935	-2.1715163296	 0.123146
H	-3.261748102	-3.1950935997	-1.1786480048	 0.124087
H	-2.2846494962	-1.7164110083	-1.3268313823	 0.129577
H	-1.2093508859	-6.9253854973	 0.2855660503	 0.193791
