18
gdb 98735	3.21075	0.92915	0.80198	5.0363	75.06	-0.2442	-0.0432	0.201	1462.0758	0.144882	-439.084432	-439.074708	-439.073764	-439.121106	33.738	
C	 0.2480147951	 1.5789425089	 0.0444146749	-0.381433
C	 0.0151550732	 0.0842790197	 0.2412698176	-0.292386
C	-1.06670042	-0.4869262664	-0.6590562072	 0.422254
O	-1.6741712482	 0.1850711061	-1.4603180687	-0.310851
C	-1.3382105499	-1.9629247589	-0.492528307	-0.130449
N	-2.7487161778	-2.3643253038	-0.3933937427	-0.312732
C	-1.9961488574	-2.7832120179	-1.57496377	-0.126342
C	-2.4398086	-2.1992093401	-2.8855579844	 0.173998
O	-2.0664165569	-2.6482947865	-3.9404325203	-0.262196
H	 1.0351148548	 1.9383283974	 0.7126217974	 0.113445
H	 0.5412992834	 1.7942405773	-0.9860331615	 0.13705
H	-0.6649743799	 2.1443075319	 0.2469973303	 0.136589
H	 0.9339929527	-0.4924106744	 0.059294169	 0.128247
H	-0.2598034142	-0.1472990776	 1.280641235	 0.128122
H	-0.6210148985	-2.4991389986	 0.1261873691	 0.099792
H	-2.8492189957	-3.1330167222	 0.264261477	 0.248939
H	-1.6417982584	-3.8091124446	-1.6560419477	 0.111359
H	-3.1483565824	-1.3572922401	-2.8010738909	 0.116594
