23
gdb 115844	2.64428	1.22626	1.08822	1.2815	84.79	-0.2413	0.0652	0.3066	1268.6192	0.207202	-388.292569	-388.28349	-388.282546	-388.326101	35.483	
C	-0.0100171162	 1.6022447601	 0.0357407848	-0.381747
C	 0.0664008562	 0.0723354522	 0.0240150933	-0.18212
C	 0.7598932586	-0.5020079924	-1.2202826449	 0.047242
C	 2.2596560808	-0.1295389076	-1.3538604594	-0.2242
C	 2.9149839753	-1.2817279719	-2.1493715726	-0.218984
C	 2.0375454459	-2.5064368526	-1.9148083118	-0.08881
C	 1.6749556937	-2.86832442	-0.5072518309	 0.093661
O	 2.4479039449	-2.3620009141	 0.5479083255	-0.418009
C	 0.7174704018	-2.0256560536	-1.3218223895	-0.122271
H	 0.9875332886	 2.0530849046	 0.0283946433	 0.120168
H	-0.5485931888	 1.976125719	-0.8426724069	 0.111943
H	-0.5326428894	 1.9676595586	 0.9254026064	 0.108322
H	 0.5975983771	-0.2742388069	 0.9200270125	 0.079718
H	-0.9489009577	-0.3401862986	 0.0897715301	 0.087662
H	 0.2269907535	-0.1175848324	-2.1030404362	 0.065407
H	 2.4004809893	 0.8375142926	-1.8446189787	 0.087965
H	 2.7094445231	-0.0665210124	-0.360826572	 0.112965
H	 2.9172017833	-1.0586949287	-3.2227649986	 0.094682
H	 3.9561552578	-1.4435251185	-1.852604833	 0.104484
H	 2.0774115633	-3.3065947953	-2.6466214346	 0.079383
H	 1.3632290612	-3.9035723126	-0.3616552056	 0.081431
H	 1.8730597801	-2.2641567407	 1.3138859504	 0.28745
H	-0.2284981523	-2.4818180788	-1.5992222913	 0.073658
