20
gdb 77157	3.22806	1.03048	0.84548	3.841	80.62	-0.2398	0.0392	0.279	1395.4715	0.170756	-403.164949	-403.155784	-403.15484	-403.199431	33.962	
C	-0.0574343057	 1.5626789194	-0.0440437057	-0.408786
C	 0.0111571387	 0.0424410203	-0.013032907	-0.170886
C	 0.7598862389	-0.6988159668	-1.1733134476	 0.039161
N	 1.6703018765	-1.2235032262	-0.1423836886	-0.338507
C	 1.0905262072	-0.5702895858	 0.9168936347	 0.428737
O	 1.3597088721	-0.5044609166	 2.087166304	-0.369739
C	 0.0027706783	-1.734258744	-1.9576848824	 0.01667
C	-0.6285254274	-1.3640533952	-3.2769327206	-0.268524
C	 0.571218655	-2.2751078687	-3.2485409314	-0.276514
H	 0.9228531766	 1.9994048712	-0.2619936742	 0.121786
H	-0.7641655788	 1.9146381111	-0.8022107507	 0.118993
H	-0.3823785462	 1.9444966556	 0.9283086083	 0.139053
H	-0.9752254171	-0.3918332002	 0.1771042682	 0.098833
H	 1.2603557532	-0.0012945239	-1.858884489	 0.073903
H	 2.4933283731	-1.8056048396	-0.2021860751	 0.245682
H	-0.5427085817	-2.4422177373	-1.3389825791	 0.087979
H	-1.5963655333	-1.7887089681	-3.5174116271	 0.117831
H	-0.4867264462	-0.3517152669	-3.6415457937	 0.114808
H	 1.5182410418	-1.8724824334	-3.5941656144	 0.112071
H	 0.4283279449	-3.3263926049	-3.4712411785	 0.117447
