21
gdb 85945	2.53204	1.3456	1.09656	1.8347	79.82	-0.2423	0.0248	0.2671	1200.4565	0.181621	-424.241961	-424.232618	-424.231674	-424.275287	36.617	
C	 0.0119441893	 1.5433372643	 0.0121326872	-0.428904
C	-0.0018862796	 0.011345692	-0.0000183019	 0.324154
O	-1.3553550727	-0.4585095068	 0.072695087	-0.464478
C	 0.6812430432	-0.5337504142	-1.2726191111	-0.268754
C	 1.0402427656	-1.993045838	-1.1820220196	-0.064863
C	 1.0187174042	-2.6823972533	-0.0443832354	-0.066578
C	 0.6202321086	-2.0862980885	 1.2822463791	 0.072114
O	 1.4950574669	-2.5049629781	 2.3334055571	-0.442672
C	 0.6843546178	-0.5600367237	 1.2458786844	-0.203515
H	 1.033018432	 1.9356399628	 0.0538953242	 0.115813
H	-0.4610388514	 1.9422067432	-0.8939913403	 0.100223
H	-0.5418746794	 1.9164927912	 0.8781293639	 0.122845
H	-1.8217024935	-0.1390070813	-0.7069256379	 0.273721
H	 0.0179791276	-0.3597548177	-2.1328195729	 0.087989
H	 1.5865433811	 0.0530003034	-1.4857694214	 0.108122
H	 1.3378207582	-2.4808129941	-2.1076745296	 0.084245
H	 1.2860132124	-3.7378687127	-0.0381666477	 0.073965
H	-0.4120601609	-2.3905263758	 1.5138083269	 0.089774
H	 1.3854614357	-3.4540954735	 2.4484003667	 0.277936
H	 1.7389101904	-0.2637790599	 1.2499969452	 0.105404
H	 0.2197145046	-0.1498686295	 2.147369586	 0.103457
