18
gdb 90836	3.07032	1.91028	1.45202	1.2882	74.04	-0.2259	0.0501	0.276	927.5445	0.148245	-401.809072	-401.802275	-401.801331	-401.839897	28.251	
C	-0.2109834866	 1.508586957	-0.0156172591	-0.406857
C	 0.0556554709	 0.0094324333	 0.0899260768	-0.141738
C	 1.0884525676	-0.562835116	-0.9950895193	-0.171751
N	 2.2492689972	-1.1838910056	-0.236230099	-0.17895
C	 1.5253905661	-1.836202221	 0.9212913218	-0.073287
C	 2.3224477864	-1.2001038294	 2.0747661119	 0.00065
O	 1.1153927447	-0.536594555	 2.6769852007	-0.40333
C	 0.9271882663	-0.4493062468	 1.2332644665	 0.483608
C	 2.4187219952	-0.2047477231	 0.9032757449	-0.070847
H	 0.7212030631	 2.0811329065	 0.0355381973	 0.118316
H	-0.7011796488	 1.751496699	-0.9639327467	 0.119424
H	-0.861528106	 1.8532701607	 0.7942268382	 0.128815
H	-0.8868831149	-0.5456010402	 0.0474223889	 0.08656
H	 0.6307965632	-1.3254061606	-1.6299437303	 0.113321
H	 1.4689765015	 0.2386215979	-1.6346266952	 0.11281
H	 1.01956337	-2.7993804167	 0.861191292	 0.089378
H	 3.0550512617	-1.5919701322	 2.7774592001	 0.103636
H	 2.9623597124	 0.7358311725	 0.8247961106	 0.090242
