16
gdb 49256	2.79488	1.37254	0.94588	0.8124	75.81	-0.25	-0.0804	0.1696	1181.5943	0.126215	-434.108724	-434.100928	-434.099984	-434.141329	29.155	
N	 0.1554680694	 1.3032660234	-0.0143251449	-0.517467
C	 0.0782455962	 0.0458608901	-0.1881500527	 0.389169
C	-1.2054230666	-0.7148895596	 0.0542215346	-0.277744
C	-1.3521767094	-1.906171463	-0.9056350177	-0.180815
N	-0.161703613	-2.7494757251	-0.9784196067	-0.275885
C	 0.9497543949	-2.1393927144	-0.8194865271	 0.27348
N	 1.1270087174	-0.794660333	-0.5598525522	-0.38786
C	 2.2165761055	-2.9183343833	-0.9604395675	 0.134944
O	 3.3075915122	-2.4078271504	-0.8710806061	-0.272176
H	 1.10139975	 1.6514057755	-0.1888040206	 0.208741
H	-1.1786668839	-1.088370124	 1.086311313	 0.133549
H	-2.045100285	-0.0228558771	-0.0214036155	 0.138973
H	-2.2032260504	-2.5280855512	-0.6145337185	 0.122613
H	-1.5644795641	-1.546950328	-1.92404392	 0.128625
H	 2.0849402923	-0.4680506284	-0.5453500585	 0.262614
H	 2.0550356545	-3.9926782217	-1.1626928996	 0.119239
