16
gdb 63411	3.14362	1.15502	1.0247	4.7558	68.47	-0.2522	-0.0437	0.2086	1189.0844	0.12186	-475.060133	-475.050907	-475.049963	-475.094393	32.47	
C	-0.1014608712	 1.5910662148	-0.0013851406	-0.452265
C	-0.0481260673	 0.0710651604	-0.0131860956	 0.247192
O	-1.3212703373	-0.5220779243	 0.1229416752	-0.463196
C	 0.7399584126	-0.6000216735	-1.1764498314	-0.211238
N	 1.7073035896	-1.1010941352	-0.1752087543	-0.141203
C	 2.8470805629	-1.8732275527	-0.3258206994	 0.154738
O	 3.5572886819	-2.2374412089	 0.5729809349	-0.2647
C	 1.0178075494	-0.5589469178	 0.9284838703	 0.397486
O	 1.1882362614	-0.6105364111	 2.1085558281	-0.326187
H	 0.8868088235	 2.0286612976	-0.1731842077	 0.130539
H	-0.7874767659	 1.9460404643	-0.7758348118	 0.135898
H	-0.4587285231	 1.9453821506	 0.9710785864	 0.136007
H	-1.6334195037	-0.3473565294	 1.0187536131	 0.296919
H	 0.1725204939	-1.3906382025	-1.6707699546	 0.141736
H	 1.1776214214	 0.0828788989	-1.9081583558	 0.127277
H	 3.0279338918	-2.1141379812	-1.3929102967	 0.090997
