18
gdb 6910	4.79506	1.11754	1.04307	4.8364	73.53	-0.2483	0.0272	0.2755	1170.9432	0.152057	-343.97241	-343.963538	-343.962594	-344.005944	32.155	
C	 0.2666233885	 0.940338492	-1.8471583494	-0.457993
C	 0.277012254	-0.3314358959	-1.0181005587	 0.329712
C	-1.0791071993	-0.7175005762	-0.4608385064	-0.435684
C	 1.2662403098	-1.4036849479	-1.3416244135	-0.286048
N	 1.390089149	-0.6369778567	-0.1007994988	-0.109663
C	 2.5124459365	 0.2834659814	 0.0142914726	-0.287519
C	 3.6660602703	-0.3961540375	 0.6176221702	 0.281592
N	 4.5862609683	-0.9207790993	 1.0777054786	-0.301386
H	 1.2333953132	 1.1644757285	-2.3032376854	 0.120139
H	-0.4596864601	 0.8425267157	-2.6604923115	 0.130364
H	-0.0371017486	 1.8017093084	-1.2409115775	 0.124798
H	-1.7876298822	-0.9189636741	-1.2719009981	 0.11753
H	-0.99797582	-1.6091549708	 0.1643846969	 0.132123
H	-1.4924534769	 0.0910350239	 0.1526333993	 0.11907
H	 1.0142694445	-2.4539460085	-1.2216110207	 0.122754
H	 1.9820663153	-1.1997208336	-2.1373180088	 0.111888
H	 2.8505310279	 0.7218395329	-0.9380720904	 0.132909
H	 2.2248949998	 1.1158527975	 0.6672298518	 0.155413
