18
gdb 31668	2.43866	1.36538	0.88576	2.7541	77.11	-0.1816	0.0505	0.2321	1298.7262	0.146743	-439.096095	-439.086551	-439.085607	-439.130617	34.317	
C	 0.0332704246	 1.2349060652	-0.1827588657	-0.24325
O	 0.0208773072	-0.1718774118	-0.0582346376	-0.283578
C	 0.6695963782	-0.6667260846	 1.0346293864	 0.216781
C	 1.371865296	-0.0400756141	 2.0429785107	-0.228693
N	 1.86437811	-1.0238380511	 2.8727764726	 0.005641
C	 2.4893382863	-0.7850945739	 4.1520577031	-0.331654
C	 1.4624864646	-2.2609876032	 2.4127756252	-0.176925
C	 0.727897886	-2.0674612037	 1.2678598364	 0.19727
O	 0.1741699171	-3.0298468409	 0.4761950183	-0.458008
H	 1.060340952	 1.6163521963	-0.2685605954	 0.118793
H	-0.5212395512	 1.4804504477	-1.0902213189	 0.130539
H	-0.4496144425	 1.7136787494	 0.6805363205	 0.118359
H	 1.5625495341	 1.0007737921	 2.2410481514	 0.114822
H	 1.7577964237	-0.6960544542	 4.9661099263	 0.130979
H	 3.1700728318	-1.6078736994	 4.3868801096	 0.136933
H	 3.0735481082	 0.1380738613	 4.1079321936	 0.133534
H	 1.7327433139	-3.1680694548	 2.9267236568	 0.117796
H	-0.2586796101	-2.5747033402	-0.2549460331	 0.300658
