20
gdb 54609	2.44159	1.41798	0.92447	3.2612	84.44	-0.2352	-0.0188	0.2163	1275.2401	0.171316	-403.21482	-403.205363	-403.204418	-403.249272	34.974	
C	-0.0197879151	 1.5164229366	 0.1111886644	-0.50743
C	 0.0595518933	 0.0299188164	-0.0172180706	 0.230908
C	 0.0888625509	-0.7263996575	-1.1317963098	 0.153713
C	 0.1154544681	-2.2108275693	-0.7970324129	-0.334259
C	 0.4644754753	-2.2342910981	 0.708724313	-0.220232
C	 0.0626744327	-0.836252001	 1.224627723	-0.285015
C	 0.0443778182	-0.2139231799	-2.5274455767	 0.306208
N	-0.0752038593	-1.1864217058	-3.4921260826	-0.532222
O	 0.1315847273	 0.9644654887	-2.8405000469	-0.374696
H	 0.8642312169	 1.8947992183	 0.6413609743	 0.124338
H	-0.0846424458	 2.0000004403	-0.8610897441	 0.174578
H	-0.8855330857	 1.7951463478	 0.7264955789	 0.11907
H	-0.8667527163	-2.6718488742	-0.9846218827	 0.101122
H	 0.8431472274	-2.7701883128	-1.3959676325	 0.107046
H	-0.025915212	-3.0490185849	 1.2469275684	 0.099073
H	 1.5439431977	-2.3698159788	 0.8278813007	 0.109894
H	 0.7392590404	-0.4522152584	 1.9969557275	 0.10653
H	-0.9414479764	-0.8348908821	 1.6747231371	 0.110009
H	-0.3504046788	-2.125970612	-3.2655870224	 0.255446
H	-0.2335009489	-0.8631133634	-4.4329388162	 0.255916
