18
gdb 83039	2.25612	1.77759	1.35403	5.5752	79.04	-0.2061	-0.0227	0.1834	1017.6446	0.149491	-401.974468	-401.966401	-401.965457	-402.006883	31.12	
C	-0.2006245345	 1.5543033338	-0.0968661996	-0.420653
C	-0.0043364493	 0.05957245	 0.0160508066	-0.036553
C	 1.3274652741	-0.6177271742	-0.2149164248	-0.029481
N	 2.5257482388	 0.149781005	-0.3767005262	-0.282721
C	 3.0506166138	 0.8992398495	 0.6249655729	 0.027158
C	 2.5618533539	 0.9401166404	 1.8918997172	-0.252388
C	 1.3971247955	 0.1645726756	 2.2796039765	 0.385197
O	 0.9846672784	 0.0775276624	 3.4264491119	-0.373228
C	 0.7168970511	-0.6147110044	 1.1773372943	-0.18552
H	 0.652750328	 2.1145820606	 0.2883070318	 0.1367
H	-0.3548577071	 1.8448429172	-1.1420106853	 0.112929
H	-1.0839901587	 1.8658558043	 0.4696846722	 0.131576
H	-0.848005838	-0.5223339373	-0.3463830382	 0.0967
H	 1.3423233341	-1.546508323	-0.7771012031	 0.104637
H	 2.892157027	 0.261356114	-1.306322246	 0.255126
H	 3.9272232284	 1.4748292903	 0.3415772596	 0.122755
H	 3.0641738716	 1.5236449633	 2.6519608863	 0.098316
H	 0.2760571129	-1.5351419176	 1.543843194	 0.10945
