23
gdb 40138	2.65574	1.40818	1.199	0.0975	89.53	-0.2568	0.0882	0.345	1178.4469	0.206519	-351.121956	-351.113415	-351.112471	-351.155102	34.187	
C	 0.0277547398	 1.4955855273	-0.0219319902	-0.322374
C	 1.3308698544	 0.7305873113	 0.0387431584	-0.333845
C	 0.0263894561	-0.0061545447	 0.0319922456	 0.311138
C	-0.6115155973	-0.8490813645	 1.1429349531	-0.30835
C	-1.4734993953	-1.5422767519	 0.0480277653	-0.286181
C	-0.5445085168	-0.9362527712	-1.0461477336	 0.326092
C	-1.1358716354	-0.4926201984	-2.4062338478	-0.291
C	-0.5831463732	-1.799326975	-3.037794931	-0.210753
C	 0.3626332411	-1.9394841945	-1.8154058692	-0.275829
H	-0.2915141063	 2.0376275724	 0.8630980617	 0.107817
H	-0.2345595974	 1.9791498665	-0.9579830797	 0.109402
H	 1.9433950686	 0.6996344041	-0.8577729701	 0.106693
H	 1.9003967912	 0.7557474091	 0.9627598641	 0.108638
H	 0.0980955628	-1.5344901148	 1.617311794	 0.099794
H	-1.1509395461	-0.3104883241	 1.9269630649	 0.095354
H	-1.5423089718	-2.6328247443	 0.0861059638	 0.093615
H	-2.4853330537	-1.1291332271	-0.0012650113	 0.09887
H	-2.2144663448	-0.3149705424	-2.4471518107	 0.091753
H	-0.6253967749	 0.3927473099	-2.801236099	 0.095002
H	-1.3381684882	-2.5898655467	-3.0630216978	 0.102023
H	-0.1239669058	-1.7288436478	-4.0265448578	 0.09378
H	 1.3507399129	-1.5124592146	-2.0157309271	 0.096567
H	 0.4970523298	-2.9337288784	-1.3795128259	 0.091796
