20
gdb 126720	3.13864	1.10103	0.88378	2.2664	84.62	-0.1861	0.0357	0.2218	1384.356	0.171334	-399.357501	-399.347608	-399.346664	-399.39282	35.633	
C	 0.2549520992	 1.4934646001	 0.1303981371	-0.3706
C	-0.1237721333	 0.0397051947	-0.1619941457	-0.138469
N	 0.6228131084	-0.5271063229	-1.2689235496	 0.056541
C	 1.7503207832	-1.2940889258	-1.2114668236	-0.111441
C	 2.1584782041	-1.4965109207	-2.5152827681	 0.084224
N	 3.300433722	-2.1692722075	-2.9912654749	-0.610578
C	 1.2070856926	-0.7990297661	-3.3018665926	 0.331825
C	 1.1614184471	-0.6873916407	-4.7917210651	-0.504873
N	 0.2856561797	-0.2170322579	-2.5302160277	-0.335963
H	 1.3103780701	 1.5753088719	 0.4069779983	 0.122916
H	 0.0814380019	 2.1109522773	-0.7542612635	 0.144726
H	-0.3497607335	 1.8850906396	 0.9545108369	 0.1145
H	 0.0548756066	-0.5928735875	 0.7130319805	 0.112429
H	-1.1854340976	-0.032497338	-0.4145962491	 0.128371
H	 2.1589984634	-1.6312361832	-0.2717308693	 0.113369
H	 3.6579644591	-2.8445121033	-2.3274857381	 0.238535
H	 3.1231437569	-2.6452154659	-3.8676848658	 0.241315
H	 1.0332182626	-1.6654448052	-5.2742961773	 0.114594
H	 0.3228818124	-0.0547060899	-5.0901748704	 0.139482
H	 2.0846001753	-0.250575639	-5.1905736121	 0.129097
