19
gdb 93496	2.47959	1.42482	1.07919	3.1616	71.24	-0.2658	0.0027	0.2686	1158.4981	0.159309	-460.207509	-460.198643	-460.197699	-460.241072	33.216	
C	-0.0159440215	 1.5911908788	 0.0251328898	-0.411074
C	-0.0040142235	 0.0624491465	 0.0707462071	-0.003457
C	 0.5885229497	-0.5397892063	-1.2125033279	-0.345866
C	 0.9410233988	-2.0209357191	-1.1697248128	 0.388535
O	 1.0794964155	-2.6911745321	-2.1538409665	-0.312254
O	 1.227946081	-2.5706349316	 0.0471778291	-0.239976
C	 0.7013639205	-2.0030311277	 1.2618802798	-0.110013
C	 0.78011547	-0.4849225604	 1.2755459061	 0.114813
O	 2.1287927505	-0.0335530484	 1.2969236711	-0.442296
H	 1.007217443	 1.9774387047	 0.0144396606	 0.136625
H	-0.5339182779	 1.955570485	-0.8676287513	 0.115658
H	-0.5238262037	 2.0064179972	 0.9017039123	 0.115157
H	-1.0370331777	-0.2966621851	 0.1793339742	 0.080196
H	-0.0599651485	-0.3854132984	-2.0776555289	 0.139563
H	 1.5316961961	-0.0268379546	-1.447322874	 0.141136
H	-0.3357250438	-2.336280763	 1.3911998114	 0.118027
H	 1.3075207338	-2.4332026611	 2.0625847586	 0.130504
H	 0.3259314276	-0.1241292129	 2.2062563109	 0.092331
H	 2.6512383002	-0.6241551116	 0.7431206106	 0.292394
