22
gdb 87391	2.02441	1.53698	1.07138	2.6083	82.85	-0.2226	0.0707	0.2933	1236.2366	0.19271	-404.307131	-404.297415	-404.296471	-404.34122	37.002	
C	-0.7556629326	 1.2707977569	-0.0649388388	-0.410962
C	 0.0428880146	-0.0227556748	-0.1613430931	-0.048191
C	 1.4319960964	 0.0354135467	-0.8684585219	-0.288298
C	 2.022258271	-0.8889427816	 0.2345409457	 0.086744
O	 3.2979521329	-0.6230924949	 0.7582761579	-0.429613
C	 0.7750775129	-0.5906215783	 1.0771120708	 0.311585
C	 0.7508383582	-0.0586101857	 2.4667184178	-0.329022
N	 0.2972291721	-1.4173958993	 2.164903503	-0.132489
C	-1.1339508693	-1.6718144584	 2.2522988184	-0.32188
H	-0.1652493722	 2.0636186134	 0.4069438541	 0.111896
H	-1.0468349989	 1.6198777091	-1.0620969567	 0.117853
H	-1.6729459645	 1.1442339919	 0.5199273929	 0.118381
H	-0.5769040135	-0.8063233814	-0.6139712628	 0.078615
H	 1.4925799801	-0.3087703143	-1.9028224194	 0.103062
H	 1.864072356	 1.0407260719	-0.806650044	 0.091412
H	 2.0416798432	-1.9382235788	-0.0758928629	 0.095905
H	 3.3076327855	 0.2931610351	 1.0557977461	 0.275838
H	 1.6690637072	 0.0106709451	 3.0456314317	 0.114235
H	-0.0019936891	 0.6920397069	 2.7067156179	 0.105217
H	-1.7627748898	-0.8122546386	 1.9693726228	 0.102304
H	-1.3916033575	-2.5129129224	 1.6003977718	 0.122685
H	-1.3846218025	-1.9519159285	 3.2802364888	 0.124724
