22
gdb 109564	2.27701	1.33801	0.91799	3.6022	84.5	-0.2366	0.0396	0.2762	1356.5617	0.193026	-404.387076	-404.376653	-404.375709	-404.422622	37.199	
C	-0.0743585081	 1.6613685001	-0.0932420862	-0.387459
C	 0.0419569611	 0.1427104754	 0.0864228068	-0.193965
C	 0.6760568503	-0.520770905	-1.1345555074	-0.161921
C	 0.7560366829	-2.0869946727	-1.2385534162	 0.019624
C	 0.1986695558	-2.9385199902	-0.1058478189	-0.404075
N	-0.1024037455	-1.9754770068	-2.4276543516	-0.075925
C	-0.5628574536	-2.942813962	-3.3890353382	-0.349831
C	-0.2027193051	-0.6080855318	-2.4036395823	 0.420258
O	-0.7788329473	 0.1702677119	-3.1243773068	-0.391438
H	 0.9144254162	 2.1225173906	-0.1941877795	 0.111922
H	-0.6459681657	 1.8981218911	-0.9947430364	 0.152946
H	-0.5717100254	 2.1215487665	 0.7658330494	 0.108441
H	 0.6386931681	-0.0861193158	 0.9786363496	 0.095851
H	-0.954585291	-0.2786378242	 0.2628153176	 0.102532
H	 1.6410604731	-0.0513955111	-1.3547418078	 0.093716
H	 1.7664898454	-2.4345636633	-1.495286228	 0.076345
H	-0.8160671991	-2.6348245893	 0.1651533607	 0.12504
H	 0.1706917162	-3.9949214961	-0.3935054237	 0.119038
H	 0.833901748	-2.8566023594	 0.7819665357	 0.125126
H	-1.2057271527	-3.7017323306	-2.9276727919	 0.127619
H	-1.1418998564	-2.4059135031	-4.1444543813	 0.16149
H	 0.274802853	-3.4523765843	-3.8828099236	 0.124666
