15
gdb 48224	2.64235	1.35132	0.95786	1.9757	80.35	-0.2476	-0.0497	0.1979	1188.6456	0.112012	-412.951174	-412.942149	-412.941205	-412.985374	32.178	
N	 0.1995699625	 1.1818900836	-0.6376319997	-0.440312
C	 0.1069803759	 0.0203224851	-0.140669468	 0.085755
N	-1.1241072092	-0.6443952859	-0.0362388211	-0.107781
C	-1.1279602921	-2.0308338373	 0.1878832555	 0.108699
N	-0.0514205751	-2.7026546004	 0.2113344752	-0.471646
C	-2.3699488398	 0.0027409091	-0.2034705945	 0.239205
N	-3.3617542546	-0.6844897575	-0.6269721032	-0.497164
C	-2.480162595	 1.3736772814	 0.2051006568	 0.306501
C	-2.747070658	 2.4865897309	 0.5747446475	-0.441456
H	 1.1666247253	 1.4999158007	-0.5986101883	 0.235644
H	 0.9178606241	-0.6065419954	 0.2296118289	 0.149673
H	-2.1391421048	-2.407973844	 0.3343895759	 0.144255
H	-0.252482574	-3.6744644617	 0.4368624008	 0.236679
H	-4.2075011347	-0.1170209076	-0.6136281664	 0.239508
H	-2.9372461807	 3.4831615289	 0.8901388005	 0.212441
