19
gdb 26417	4.28579	0.90077	0.78137	1.974	77.73	-0.2138	0.0283	0.2421	1460.1247	0.158985	-423.055465	-423.046494	-423.04555	-423.089766	33.35	
C	-0.0304784237	 1.538323373	 0.148244431	-0.399984
C	-0.1345579768	 0.0194929198	 0.0056579708	 0.137674
O	-1.4634009492	-0.3683994037	-0.3426995531	-0.427519
C	 0.7800119129	-0.5207085362	-1.1027249913	-0.322047
C	 0.875251524	-2.016605731	-1.1469474714	 0.25336
C	 2.0028129459	-2.7650062825	-1.0041907891	-0.107231
O	 1.7274122505	-4.0934495089	-1.1041080262	-0.145338
C	 0.3874090025	-4.195779728	-1.3155780896	-0.000622
C	-0.1867451812	-2.9675558789	-1.3526771579	-0.271962
H	 0.9807554784	 1.8409799165	 0.4395444043	 0.114523
H	-0.2850725141	 2.029252133	-0.7965420232	 0.124383
H	-0.7208203862	 1.9037000711	 0.917062538	 0.103562
H	 0.1573020004	-0.4554181802	 0.9560025971	 0.070339
H	-2.044940322	-0.1292639089	 0.385419614	 0.281645
H	 0.3973831153	-0.1325789157	-2.0559286734	 0.114655
H	 1.7809592675	-0.0976134333	-0.9657118309	 0.098084
H	 3.037986593	-2.5124510994	-0.8394891359	 0.125924
H	 0.0072805022	-5.1991667796	-1.4156548666	 0.129598
H	-1.2296303295	-2.7355768172	-1.4905178964	 0.120958
