19
gdb 73656	2.76371	1.53026	1.23164	2.3913	75.17	-0.2433	-0.0225	0.2208	1064.6613	0.15955	-423.048065	-423.039774	-423.03883	-423.080861	31.965	
O	 0.2332351986	 1.2289739749	-0.5919846888	-0.491352
C	 0.1218889221	-0.0644280097	-0.0717306358	 0.331436
C	 0.8732743252	-1.0881160634	-0.9532224937	-0.25682
C	-0.2122446606	-1.6178940687	-1.9060508521	-0.199808
C	-1.4542751619	-1.8060211751	-1.0041050125	-0.234978
C	-1.2946526772	-0.7566482641	 0.1164355557	-0.054371
C	-0.849588368	-1.2310656678	 1.5427969891	-0.364185
C	 0.2733457059	-0.1920444649	 1.4402162151	 0.311921
O	 0.8088397875	 0.5369595904	 2.2316505253	-0.321263
H	 0.388877279	 1.8221249334	 0.1539294516	 0.292429
H	 1.7127324288	-0.6020518049	-1.4537082222	 0.119298
H	 1.2722873334	-1.9074218363	-0.3437771744	 0.101991
H	-0.4189932388	-0.8616786011	-2.6714661187	 0.117471
H	 0.0838534189	-2.5351287731	-2.4229274765	 0.096492
H	-2.3865100737	-1.6749682197	-1.5597955664	 0.106217
H	-1.4761382539	-2.8166487449	-0.5807840871	 0.100251
H	-2.1073697119	-0.0315337961	 0.1727858987	 0.08751
H	-1.5377226594	-1.0798882882	 2.3765591292	 0.131674
H	-0.4940886038	-2.2655995107	 1.5565415135	 0.126086
