23
gdb 64264	2.50583	1.52028	1.44542	1.3014	84.01	-0.2551	0.0736	0.3287	1079.8277	0.207714	-388.29519	-388.286834	-388.285889	-388.327288	34.815	
C	-0.2940336804	 1.58185088	 0.1027928522	-0.429968
C	 0.0096528204	 0.0816444122	-0.0021026176	 0.396069
O	-1.2217591105	-0.6453312228	 0.1239705367	-0.481559
C	 0.7002123819	-0.2854225893	-1.3495834832	-0.265134
C	 2.2411690486	-0.4193236462	-1.2632215095	-0.21215
C	 2.6777933265	-0.8661229984	 0.1410512541	 0.002998
C	 1.5798558201	-1.7523221266	 0.8026780479	-0.239629
C	 0.871046549	-0.417782556	 1.1723531592	-0.007742
C	 2.2815539132	 0.2315331409	 1.1627183887	-0.23442
H	 0.5963140824	 2.1984083973	-0.050039323	 0.115821
H	-1.0227959942	 1.8686899938	-0.6650862606	 0.098867
H	-0.7209892233	 1.8216887056	 1.0813078728	 0.118747
H	-1.7957768013	-0.3799593618	-0.6026328761	 0.269692
H	 0.2832514913	-1.2532771022	-1.6420640781	 0.109215
H	 0.4162337339	 0.4250607636	-2.1342835796	 0.083096
H	 2.5762122049	-1.1390675855	-2.0187397795	 0.093506
H	 2.7339133536	 0.5310373806	-1.5035533377	 0.093318
H	 3.7104695772	-1.2239743507	 0.147370613	 0.054757
H	 1.036698189	-2.475650531	 0.1906898353	 0.099763
H	 1.9617259351	-2.2546876962	 1.6952395166	 0.092287
H	 0.2830643443	-0.3771499496	 2.0921616366	 0.064208
H	 2.7809629955	 0.0921108343	 2.1254192139	 0.09329
H	 2.3852422529	 1.276967618	 0.8590523179	 0.084967
