15
gdb 2604	3.50837	2.55708	1.76821	3.1603	58.28	-0.2577	-0.029	0.2286	733.868	0.124281	-345.651111	-345.643927	-345.642983	-345.682205	26.217	
O	 0.155105591	 1.2981983667	-0.2816984328	-0.423466
C	 0.0495812005	-0.0533878558	 0.112054596	-0.145751
C	-1.3814015361	-0.5627240233	 0.0821549997	 0.241122
C	-1.977400111	-1.0898972942	-1.2218236765	-0.291002
C	-1.6517980973	-2.0471336296	-0.1280500004	-0.311285
C	-2.3254275301	 0.1640538253	 0.9567788012	 0.117266
O	-2.0392649292	 1.1536547746	 1.5950354283	-0.288163
H	-0.3400529858	 1.7998747558	 0.3787066292	 0.296954
H	 0.6616932025	-0.6363542455	-0.5848151575	 0.101856
H	 0.4606097251	-0.2111167256	 1.1215422915	 0.098471
H	-3.0208414053	-0.8748288907	-1.426691759	 0.127552
H	-1.3285023371	-1.0359770957	-2.0883862151	 0.140248
H	-0.7769161471	-2.6801390126	-0.2294408098	 0.132355
H	-2.467664769	-2.4981228534	 0.4273915759	 0.125912
H	-3.3572565713	-0.2548277762	 0.9913332091	 0.077929
