23
gdb 89521	2.17644	1.6683	1.23604	1.2025	84.18	-0.247	0.0779	0.3248	1142.8284	0.206817	-388.30249	-388.293705	-388.292761	-388.335399	35.443	
C	-0.7853305188	 1.2807349494	 0.1028458033	-0.414375
C	 0.0279228158	-0.0012672929	-0.009732926	 0.049533
C	 1.2834663647	 0.0050939372	-0.9307018157	-0.310685
C	 2.1270491135	-0.6380294937	 0.2144177636	 0.436994
O	 2.4694795208	-1.9936955191	 0.0055489876	-0.498144
C	 3.2699034006	 0.2224805185	 0.7716634601	-0.277985
C	 2.5626672988	 1.3123989048	 1.5968020823	-0.214866
C	 1.3616392438	 0.5750961428	 2.2324382213	-0.223332
C	 0.9176212455	-0.4688684627	 1.1917023401	-0.054724
H	-0.1616886705	 2.1420304354	 0.3657415497	 0.114365
H	-1.2754884431	 1.5114272184	-0.8498039886	 0.111669
H	-1.5683543674	 1.193410521	 0.8646347849	 0.113344
H	-0.642171747	-0.817701565	-0.2964803756	 0.075016
H	 1.2134209587	-0.6103917204	-1.83126193	 0.091425
H	 1.6173224609	 1.0083409271	-1.2161965346	 0.087346
H	 3.1414868057	-2.0262207676	-0.6841670531	 0.271113
H	 3.8799225804	-0.4125798338	 1.4252749874	 0.100451
H	 3.9232259017	 0.6278440817	-0.0097045009	 0.083321
H	 3.2182377351	 1.7733773099	 2.3411769533	 0.095459
H	 2.2143017424	 2.1184198124	 0.9399458272	 0.100423
H	 1.6938603512	 0.0541621509	 3.1377533725	 0.098386
H	 0.5600565435	 1.2554994507	 2.535551275	 0.09442
H	 0.5763390636	-1.3959186251	 1.6557252262	 0.070845
