16
gdb 98110	5.01893	0.77641	0.68071	4.333	70.9	-0.2641	-0.1053	0.1588	1588.4212	0.120493	-437.931753	-437.921729	-437.920785	-437.968679	33.53	
C	-0.0367487188	 1.5741214011	 0.0407573617	-0.386719
C	 0.0170970798	 0.05085046	-0.0313116579	-0.278972
C	 0.7229127583	-0.4640864557	-1.2609325699	 0.29707
O	 1.2088145353	 0.2308572749	-2.1231628598	-0.282692
C	 0.817427136	-2.0040015827	-1.4033521096	 0.291949
O	 0.3514837618	-2.7409515987	-0.5757568047	-0.248368
C	 1.5438378065	-2.4730987692	-2.6688017585	-0.455606
C	 1.619342339	-3.9222328804	-2.7824351849	 0.284569
N	 1.6867165846	-5.0700139055	-2.8856864013	-0.29166
H	 0.9687176723	 2.0029248744	 0.0498429268	 0.135025
H	-0.5610972879	 1.9901675813	-0.8234624245	 0.13504
H	-0.556737824	 1.894266886	 0.9469934778	 0.122863
H	 0.517921456	-0.3866191819	 0.8425419641	 0.147742
H	-0.984426456	-0.3991511318	-0.014605522	 0.147755
H	 1.0389477119	-2.0432311906	-3.5415427755	 0.191007
H	 2.5473669952	-2.0323592213	-2.6794504219	 0.190996
