15
gdb 25761	2.77909	1.59149	1.01369	3.6988	71.	-0.1993	0.0117	0.211	1090.2596	0.115224	-450.21057	-450.202246	-450.201301	-450.243478	30.962	
N	-0.0650167307	 1.3068676323	-0.0054346638	-0.542176
C	 0.0358426231	-0.0472052493	 0.0261797546	 0.339058
O	 1.1149923534	-0.643532483	 0.0346600542	-0.416873
C	-1.239489157	-0.7615024851	 0.0422523663	 0.140563
C	-1.3636002382	-2.1384851368	 0.049874617	 0.288924
N	-0.4007676095	-3.1200996716	 0.1515053919	-0.608739
N	-2.7143653107	-2.3750310203	 0.0322270475	-0.312262
C	-3.347747149	-1.1467716314	 0.0177349278	-0.006847
N	-2.4917367747	-0.1652987639	 0.0256687592	-0.333979
H	 0.7731812745	 1.8606103213	-0.0250861307	 0.256229
H	-0.9728355117	 1.7405280196	-0.0187768035	 0.271671
H	 0.5149512599	-2.6804388949	 0.07082186	 0.280858
H	-0.5099541799	-3.8991749015	-0.4854041551	 0.244819
H	-3.1559657384	-3.2776137094	 0.0901840865	 0.266333
H	-4.423502241	-1.0626648558	-0.0081153419	 0.13242
