19
gdb 127097	4.1251	1.06926	0.86867	3.968	81.48	-0.1907	0.0096	0.2004	1355.9105	0.159324	-415.378427	-415.368933	-415.367989	-415.413102	33.488	
C	 0.1667976679	 1.3872766683	 0.0524497457	-0.328717
N	-0.2804669241	 0.0116729187	 0.0024045291	-0.15025
C	-0.0017636572	-0.7932364444	 1.18262499	-0.33597
C	-0.183571068	-0.6177713858	-1.2252435592	 0.404463
C	 0.0313776614	-0.0791187116	-2.4827461607	-0.226553
N	-0.0351288713	-1.1556891952	-3.3151214846	 0.079038
C	 0.1100842966	-1.1985752369	-4.7539058318	-0.329755
N	-0.2575647513	-2.2803964049	-2.6295976418	-0.145173
N	-0.3466426009	-1.9654677932	-1.3630449989	-0.294768
H	 1.2539406745	 1.4988579823	-0.1060377914	 0.105404
H	-0.3515800201	 1.9799676069	-0.7085331914	 0.1254
H	-0.0808295338	 1.8103715673	 1.0295385764	 0.125266
H	-0.4134718477	-0.2899350605	 2.0624529557	 0.114747
H	-0.4765152335	-1.7679245678	 1.0736897298	 0.164072
H	 1.0772200457	-0.9523393949	 1.3452471993	 0.105486
H	 0.2183337887	 0.9166178852	-2.8423079192	 0.131521
H	 1.0922875948	-0.8224976476	-5.055411851	 0.143249
H	 0.0109635778	-2.2410454054	-5.0560514103	 0.168498
H	-0.6670836397	-0.6015172204	-5.2402038157	 0.144043
