20
gdb 76988	3.08648	1.19871	1.01991	4.2499	79.99	-0.2225	-0.0183	0.2043	1233.3371	0.169362	-403.120491	-403.11116	-403.110216	-403.154813	34.575	
C	-0.1245774832	 1.5356846275	 0.0198344058	-0.42216
C	 0.046121552	 0.0237263624	-0.0291017971	-0.037905
C	 1.186385676	-0.6270426158	-0.9389708942	-0.099409
C	 2.1208384759	 0.3004813247	-1.6723081705	 0.148217
O	 2.0726030628	 0.4962661074	-2.8631378849	-0.264899
C	 1.7267528808	-1.2965118107	 0.3321476197	-0.144017
N	 2.0651424902	-0.1860882225	 1.2640624953	-0.370529
C	 0.6725384333	-0.6881628357	 1.1878238444	 0.347531
C	-0.0514055061	-1.1966546382	 2.3954080709	-0.512634
H	 0.7871305981	 2.0199214177	 0.3784190995	 0.138821
H	-0.3643921007	 1.9372304922	-0.9700027621	 0.128002
H	-0.9429820834	 1.8080351935	 0.6953581703	 0.11249
H	-0.9004066162	-0.4575625383	-0.2934309969	 0.08357
H	 0.7534731307	-1.3253049153	-1.6575003853	 0.091326
H	 2.8708250271	 0.8085958258	-1.0319752595	 0.095992
H	 2.2252568392	-2.2555156391	 0.41007255	 0.097874
H	 2.4959628637	-0.60595823	 2.0872660359	 0.227492
H	-0.3656522662	-0.3725495672	 3.0467453638	 0.132543
H	-0.9483718937	-1.7566098467	 2.1100866319	 0.127854
H	 0.5865226598	-1.8636819017	 2.9858493928	 0.119841
