16
gdb 85488	3.36573	1.25234	1.08183	8.7159	72.53	-0.2042	-0.0052	0.199	1101.4073	0.125505	-434.040485	-434.032579	-434.031635	-434.072972	29.94	
N	-0.5650295865	 0.2822164964	 0.2558935244	-0.404507
H	-0.9321384667	-0.466526588	 0.9067576298	 0.314744
H	 0.3864446948	 0.0393154245	-0.0290841273	 0.324234
H	-1.1681289189	 0.3934022149	-0.5572657544	 0.316217
C	-0.5907549838	 1.4782379328	 1.2007282139	-0.055993
C	-2.03622685	 1.7123306407	 1.5828626068	-0.355392
C	-2.2978368056	 0.4629503982	 2.5325007396	 0.331477
O	-3.4298313953	 0.0931245364	 2.7828036295	-0.396303
N	-1.1120305215	-0.0953044625	 2.8979481316	-0.3805
C	-0.0694926745	 0.8445825196	 2.5377911474	-0.122899
C	 1.2321637807	 0.1976105783	 2.3098140715	 0.276403
N	 2.2307218383	-0.2948013255	 1.9951641434	-0.337574
H	-0.0100886612	 2.2892768235	 0.7591503999	 0.11516
H	-2.1284821483	 2.6522314728	 2.1362219243	 0.139643
H	-2.7440611182	 1.7414594329	 0.7499144126	 0.111934
H	 0.0844653767	 1.6657234349	 3.2588433071	 0.123357
