17
gdb 45263	3.06329	1.70121	1.35738	4.4566	71.39	-0.2338	0.0436	0.2774	954.8482	0.139002	-418.011473	-418.004483	-418.003539	-418.042898	27.864	
O	-0.0499067472	-0.0162915059	 0.0104145272	-0.365811
C	-0.0246272155	 1.1829655537	-0.0005895771	 0.450554
N	-1.0059908291	 2.1420767892	-0.0630838769	-0.323899
C	-0.1102979807	 3.3029979764	-0.0738628924	 0.027889
C	-0.0707096251	 4.2225270272	 1.1684094135	-0.237223
C	 1.0200035769	 3.6634427499	 2.071747796	-0.029275
N	 0.7657390355	 2.283650743	 2.5148460718	-0.324166
C	 1.7051941349	 2.5227217877	 1.3980332974	-0.042526
C	 1.0782568528	 2.2833940315	 0.0370688085	-0.209732
H	-2.0110350092	 2.0673890881	-0.0086945848	 0.2461
H	-0.175365617	 3.8720955407	-1.0062636989	 0.086572
H	 0.1915252742	 5.2411776385	 0.8628298117	 0.102892
H	-1.0411565426	 4.266121509	 1.6730719975	 0.112124
H	 1.5537294437	 4.3360485352	 2.7371261085	 0.087884
H	 1.2899269518	 2.0884222887	 3.3639225902	 0.234271
H	 2.7593057328	 2.3168963371	 1.5469675027	 0.091146
H	 1.8005056539	 2.2562843399	-0.7790328949	 0.093202
