19
gdb 78697	5.29225	1.11815	1.10687	2.668	81.32	-0.2255	0.08	0.3055	1172.0269	0.159827	-381.935807	-381.928312	-381.927368	-381.967437	30.182	
C	-0.1820342782	 1.600347802	 0.0493339762	-0.41857
C	-0.0354239708	 0.0947075362	-0.0335982604	 0.060823
C	 0.8562431231	-0.5690066633	-1.0838513901	-0.072883
C	 2.1204942826	-0.2256963852	-0.2305618152	-0.148434
N	 1.0409725494	-0.5324244916	 0.8598162468	-0.174389
C	 1.0785945493	-1.7627425062	-0.1030226241	-0.114417
C	 2.5851819851	-1.6677718315	-0.2130443463	 0.450773
C	 3.6439121716	-2.3936498644	-0.9309987569	-0.340208
N	 3.5946346205	-2.35570431	 0.5570845377	-0.382866
H	 0.7666539996	 2.1169972014	-0.1249272973	 0.115038
H	-0.901156412	 1.9578782648	-0.6956633541	 0.118073
H	-0.5495611495	 1.892372559	 1.0385366209	 0.129599
H	-1.004446832	-0.3949980613	 0.1278274702	 0.071189
H	 0.7778753824	-0.6064678328	-2.1763238787	 0.064796
H	 2.700688822	 0.697457865	-0.2084021487	 0.083532
H	 0.4275651533	-2.6198758766	 0.0708657048	 0.088348
H	 3.4552276834	-3.3725633985	-1.3634060298	 0.122453
H	 4.4074354949	-1.8127561045	-1.4434881163	 0.112944
H	 4.2840107954	-1.7032768626	 0.9230768613	 0.234195
