21
gdb 41620	3.37609	1.49088	1.26477	0.4332	88.54	-0.2207	0.0235	0.2442	1074.6877	0.18555	-349.928313	-349.92112	-349.920176	-349.959737	29.988	
C	-0.020944363	 1.5908813135	-0.1583725313	-0.216095
C	 1.4832381207	 1.5992436152	 0.2305818709	-0.22852
C	 1.3756020144	 0.1167461483	 0.6965801464	-0.040545
C	-0.0271176423	 0.0382571049	-0.0393686937	-0.043841
C	 0.3045616643	-0.684955473	-1.3349543369	-0.259942
C	 1.5032890994	-1.2554578815	-1.2481901731	 0.312567
C	 2.7637277765	-1.5954208978	-2.0116986842	-0.317891
C	 3.5163859466	-0.8013809089	-0.8772572901	-0.251173
C	 2.2409929029	-0.9649939695	 0.0321928537	-0.045036
H	-0.6524186898	 2.0608745395	 0.6011427529	 0.095611
H	-0.2824939981	 2.0121932496	-1.1333863225	 0.091628
H	 2.1349484269	 1.7233473199	-0.6374490694	 0.100452
H	 1.7904861915	 2.321740501	 0.9902036757	 0.0948
H	 1.3229427106	 0.0300909891	 1.7839966425	 0.058459
H	-0.8800594956	-0.3883150117	 0.5005794596	 0.065853
H	-0.3243675977	-0.6157482395	-2.2167372437	 0.086368
H	 3.0166016679	-2.6608556214	-1.9825466903	 0.110152
H	 2.8521093512	-1.2404918769	-3.0413921368	 0.108019
H	 4.4468228657	-1.2372221917	-0.5059103059	 0.098028
H	 3.694570475	 0.235946715	-1.1685387511	 0.111093
H	 2.3667073628	-1.8423417442	 0.6793898972	 0.070014
