17
gdb 33499	2.65382	1.19488	0.91299	2.1564	73.75	-0.2633	0.0169	0.2802	1267.5448	0.133035	-421.739104	-421.730184	-421.72924	-421.77352	32.574	
C	-0.6048254703	-1.1408665638	 0.2921359125	-0.438058
C	-0.3545662749	 0.0294042029	 0.1801696436	 0.325418
C	-0.0900235334	 1.4441388286	 0.0442329161	 0.18523
C	-1.1356382952	 2.2585046503	-0.700531754	-0.32299
C	-1.2449765385	 1.8567776541	-2.1548561806	 0.104551
C	-2.2620229242	 0.9120740668	-2.6288981871	-0.166977
O	-2.4048365053	 2.3179954382	-2.8477230139	-0.240382
C	 0.7963445792	 2.098759828	 1.0295157717	-0.21391
O	 1.2755649667	 1.786868763	-0.2734310393	-0.2606
H	-0.812953468	-2.1777766887	 0.3922828492	 0.202781
H	-2.1113359431	 2.1421509553	-0.2171649157	 0.117455
H	-0.8557742056	 3.3156734581	-0.6383132995	 0.118337
H	-0.3186918207	 1.9407857798	-2.7237655408	 0.108408
H	-2.0741427866	 0.315741537	-3.5201366948	 0.117706
H	-2.9594957592	 0.4761285818	-1.9155107215	 0.11623
H	 0.6536847438	 3.1578587417	 1.2412708039	 0.119763
H	 1.2182373655	 1.5066701767	 1.8390681902	 0.127038
