22
gdb 66927	2.17684	1.88934	1.50212	1.6562	84.9	-0.2302	0.0819	0.312	1039.8043	0.193466	-367.158875	-367.150061	-367.149117	-367.191367	35.235	
C	 0.0264841439	 1.5096174297	 0.1021471644	-0.511654
C	-0.0508570026	 0.016224347	 0.0388080564	 0.342888
C	 0.10156162	-1.0020546552	 1.1024874727	-0.118287
C	-0.425795604	-2.0536046063	 0.05161977	-0.117029
C	 1.025082129	-2.0842069928	-0.4399523063	-0.169667
N	 1.2551016874	-0.7398090942	 0.1872469507	-0.205377
C	-1.0698446629	-0.8541026908	-0.7250640854	 0.275217
C	-2.4948141671	-0.5980043931	-0.2222344882	-0.445967
C	-1.0398978327	-0.8459542966	-2.2539758814	-0.469911
H	 0.7868698042	 1.820495274	 0.8234517047	 0.13396
H	 0.2994938318	 1.931045866	-0.871900992	 0.123393
H	-0.933276575	 1.9439849364	 0.4016950922	 0.11826
H	 0.1600347809	-0.9588322076	 2.1825886662	 0.091845
H	-1.0092988658	-2.9542791658	 0.2423999216	 0.063949
H	 1.6394938709	-2.8119185431	 0.0977056191	 0.104618
H	 1.2315932011	-2.1601483486	-1.5126406571	 0.094018
H	-2.5492803343	-0.6378723962	 0.8703758415	 0.11652
H	-2.8600742134	 0.3845435153	-0.5415284483	 0.112796
H	-3.1850107132	-1.3489225155	-0.6229852836	 0.111412
H	-1.6262115257	-1.6783059164	-2.6610242222	 0.11293
H	-1.4809803854	 0.0804952057	-2.6392126336	 0.114918
H	-0.027576827	-0.915710542	-2.6577039614	 0.121166
