11
gdb 21676	7.44166	1.38185	1.16648	1.8092	63.22	-0.2431	-0.0548	0.1884	933.8303	0.072523	-393.548849	-393.542122	-393.541177	-393.579608	24.916	
N	 0.0011162362	 1.3575493552	 0.1467392228	-0.601129
C	-0.018659336	-0.0059279263	 0.0432430074	 0.386611
N	-1.1269687638	-0.7157107432	-0.0155744003	-0.184448
O	-0.6532930374	-2.0372675204	-0.0379696809	-0.204089
C	 0.6850555544	-1.9607878052	-0.0034689325	 0.29184
N	 1.143267243	-0.7413923665	 0.0461439435	-0.35866
C	 1.4218280145	-3.1652000069	-0.0230027862	 0.244725
C	 2.0385773953	-4.1963563267	-0.0403138173	-0.328691
H	 0.8510008582	 1.7875865276	-0.1836259054	 0.271023
H	-0.845089541	 1.8247498461	-0.1412708381	 0.269939
H	 2.5884210566	-5.1058283837	-0.0546386029	 0.21288
