14
gdb 13153	4.24991	1.43935	1.17166	3.357	64.52	-0.2556	-0.0667	0.1889	982.876	0.105343	-382.487565	-382.479665	-382.47872	-382.52132	27.121	
O	 0.1953978553	-0.0969165928	 0.5813845682	-0.281252
C	 0.0292467987	 1.0602615919	 0.2636392984	 0.233882
C	 1.1336603522	 1.9019445973	-0.1688798037	 0.251108
C	 2.0285362121	 2.6216488068	-0.5302219495	-0.408214
C	-1.3214771149	 1.7437787508	 0.2587688238	-0.154593
C	-1.9302146879	 2.0044407025	-1.1491560539	-0.074264
O	-3.0147279282	 1.1007795198	-0.88590989	-0.266171
C	-2.5484854367	 0.8374428872	 0.456869626	-0.093915
H	 2.8331891904	 3.2401737343	-0.8473040735	 0.219416
H	-1.2717119593	 2.6354754759	 0.8885562501	 0.11287
H	-2.2730525366	 3.0318544697	-1.3202214514	 0.110241
H	-1.3158529435	 1.6856935875	-2.0001706276	 0.115206
H	-2.3097062877	-0.2180562899	 0.6168780338	 0.132685
H	-3.264921744	 1.177853189	 1.2130268094	 0.103001
