12
gdb 4637	5.36204	1.46864	1.15287	4.3522	62.41	-0.2219	-0.0581	0.1638	931.77	0.085498	-414.735211	-414.728577	-414.727633	-414.766201	24.303	
O	-0.011607428	-0.0643563504	-0.0002745948	-0.306767
C	-0.025932942	 1.1513722607	 0.0100601921	 0.075394
C	 1.16874185	 1.9617128005	 0.0028287362	 0.239116
C	 1.3119585749	 3.3177603145	 0.0123691281	-0.138061
N	 2.6541121921	 3.589546954	-0.0014913231	-0.327933
C	 3.4205719612	 2.403721974	-0.0196948676	 0.464329
O	 4.6258815108	 2.3119441919	-0.0350390009	-0.408969
N	 2.4516539464	 1.4190785878	-0.0166723997	-0.407079
H	-0.9727233988	 1.7305383856	 0.0257795684	 0.077864
H	 0.5577212588	 4.087114625	 0.0274662458	 0.164008
H	 3.0888146509	 4.4964679467	 0.0004753775	 0.28094
H	 2.6455435737	 0.4319934496	-0.027267862	 0.287158
