23
gdb 100062	3.01422	1.05612	0.95297	2.1977	81.	-0.2444	0.056	0.3003	1364.3269	0.20373	-425.408919	-425.398558	-425.397614	-425.44412	38.47	
C	 0.3767590362	 1.269031026	 0.4458224855	-0.392569
C	 0.0109823126	-0.218188206	 0.4226428537	-0.202723
C	-1.4515627075	-0.522901804	 0.0263175299	 0.306382
C	-2.4559412189	 0.1233932878	 0.9855071732	-0.406343
O	-1.7474181557	 0.0445871118	-1.2553085661	-0.456947
C	-1.6702178918	-2.0461280522	 0.0059976613	-0.024135
C	-2.9601700693	-2.5787787957	-0.6577382417	-0.098873
O	-2.201944178	-3.3936745512	-1.5795513215	-0.271486
C	-0.9547403858	-2.88998212	-1.0756616306	-0.106579
H	 1.4535177241	 1.3995693734	 0.5892211336	 0.110518
H	 0.0943821591	 1.7500184506	-0.494592134	 0.1268
H	-0.1290944315	 1.7997420624	 1.257685528	 0.11946
H	 0.6685800974	-0.7372319918	-0.2891582933	 0.088953
H	 0.2126642412	-0.6716349975	 1.4012257658	 0.095665
H	-2.3772811168	 1.2119611609	 0.9488496645	 0.128096
H	-3.4782617529	-0.1448608497	 0.7043647997	 0.12442
H	-2.2809669533	-0.2073032372	 2.0136461183	 0.111185
H	-1.1091440063	-0.2943576714	-1.8923988785	 0.280529
H	-1.5115601713	-2.441152014	 1.0129769056	 0.077434
H	-3.6210696958	-3.1844878732	-0.0271598389	 0.096931
H	-3.5458869577	-1.8147270928	-1.1810146418	 0.113891
H	-0.4032192555	-2.3220082183	-1.8412206006	 0.076693
H	-0.2987752027	-3.6904929579	-0.7126798619	 0.102699
