15
gdb 124193	4.49589	0.79029	0.74087	1.3469	74.3	-0.253	-0.0261	0.2269	1532.5119	0.112114	-416.785594	-416.776882	-416.775938	-416.822764	29.237	
C	-0.0183911475	 1.4837986061	-0.0511026469	-0.496195
C	-0.0090826699	 0.0292104775	 0.0000937448	 0.05547
C	-0.0000140373	-1.1729149468	 0.0394232822	 0.081185
C	 0.005584375	-2.6323861341	 0.0927561754	-0.446876
C	-1.3747423821	-3.2217557531	 0.0344121535	 0.381856
N	-1.8682646977	-3.9209195599	 1.021239911	-0.168966
O	-3.142359471	-4.2825336648	 0.5604085177	-0.151962
C	-3.254663863	-3.7515942601	-0.6573520284	 0.108953
N	-2.21659463	-3.0888974059	-1.0522271298	-0.29439
H	 0.968843511	 1.8772991001	-0.3168898779	 0.149737
H	-0.7325089979	 1.8484583177	-0.7974314192	 0.15202
H	-0.2983858425	 1.9150067892	 0.9161798299	 0.149869
H	 0.5848149679	-3.0355002711	-0.7479032532	 0.153827
H	 0.4847498989	-2.9856297094	 1.0118809942	 0.158238
H	-4.1808304836	-3.9241101354	-1.1859605432	 0.167233
