24
gdb 118112	2.04788	1.09177	0.79918	1.4983	86.38	-0.2243	0.081	0.3054	1531.8001	0.215447	-405.515973	-405.50511	-405.504166	-405.552028	39.965	
C	-2.0155885192	 3.0305216638	-1.0894702061	-0.383978
C	-1.2747023293	 1.7591584503	-0.6616657081	 0.040873
C	-0.50874332	 2.0115048798	 0.6470142572	-0.183849
C	 0.3471141677	 0.8480502228	 1.1473797481	-0.0737
O	 1.1023779677	 1.1924817352	 2.3011862171	-0.4199
N	-2.2570867237	 0.6883439566	-0.4589539392	-0.086814
C	-2.9783077328	 0.161518243	-1.6116159022	-0.25542
C	-2.0156420561	-0.7004410633	-0.8708260232	 0.032181
C	-0.75240976	-1.190234585	-1.5468808668	-0.418804
H	-1.3150934349	 3.8620159554	-1.210730585	 0.112449
H	-2.5375526868	 2.8858472159	-2.0397125446	 0.111728
H	-2.7583341279	 3.3091316743	-0.3350568919	 0.122603
H	-0.5463779915	 1.5078210807	-1.4519162717	 0.058471
H	 0.1482879427	 2.8790149717	 0.5139647453	 0.098471
H	-1.2418894889	 2.2755235489	 1.4216652937	 0.090335
H	-0.2797868484	-0.0353766471	 1.3354543816	 0.097232
H	 1.0873173021	 0.5695470448	 0.3887329321	 0.104908
H	 0.4791579972	 1.3942962242	 3.0064295957	 0.279531
H	-4.0538773745	 0.0491466239	-1.4965479598	 0.109588
H	-2.6649426517	 0.4827545276	-2.6055965944	 0.102764
H	-2.4258306323	-1.4145113539	-0.156946686	 0.088157
H	-0.3869128851	-0.4958528796	-2.30757668	 0.122379
H	 0.0525128703	-1.3619151344	-0.8250309886	 0.127515
H	-0.9561914845	-2.1440893456	-2.0456113131	 0.12328
