15
gdb 44188	5.29425	1.01676	0.93143	1.2778	70.61	-0.2658	0.0066	0.2724	1191.737	0.114093	-416.826044	-416.818558	-416.817613	-416.858506	27.922	
O	-0.0961138132	 0.0339615413	 0.1773017717	-0.343222
C	-0.0221998701	 1.2211923949	 0.0347640594	 0.415664
N	-0.9837294345	 2.2196267023	-0.0437738458	-0.315322
C	-0.0399698059	 3.3248816747	-0.0781984666	 0.003103
C	 0.4221457016	 3.8270198034	 1.3453064683	-0.168609
C	 1.5964868832	 2.7853706416	 1.3074283397	-0.255886
C	 1.110245836	 2.2690337705	-0.0768309573	-0.184463
C	 0.8339663453	 5.2178956843	 1.3983491796	 0.268753
N	 1.163837647	 6.3262878344	 1.4087877684	-0.317952
H	-1.9624803075	 2.1980389108	 0.2106089362	 0.254736
H	-0.1996101315	 4.0758437698	-0.8503663737	 0.116367
H	-0.3268481911	 3.6412196517	 2.1186121498	 0.130025
H	 2.571635087	 3.2699649014	 1.2578005293	 0.14314
H	 1.6046823246	 2.0531309236	 2.1158369158	 0.137521
H	 1.835321229	 2.152171175	-0.8784080746	 0.116146
