16
gdb 123635	4.0183	1.55117	1.21651	3.5188	74.32	-0.2209	0.0204	0.2413	982.7377	0.129493	-396.919708	-396.913409	-396.912465	-396.950245	25.755	
C	-0.0497758782	 1.5575111114	-0.0080320046	-0.366767
C	 1.4528357299	 1.9013429096	-0.030413452	-0.012788
N	 2.2055034006	 1.461318742	 1.1609048732	-0.323346
C	 2.2739584242	 0.6472552923	-0.0870648515	-0.240503
C	 1.2621892047	-0.4294569685	-0.0748921624	 0.437679
C	-0.0272376754	 0.0481966124	 0.002122758	 0.205204
C	-0.8293459448	-1.1055993939	 0.0807932066	-0.155988
N	-0.0858111122	-2.2158218901	 0.0374108972	-0.229231
N	 1.1938782792	-1.7764623707	-0.0467212521	-0.344735
H	-0.5325599949	 1.9897757384	 0.8751660712	 0.125032
H	-0.5521148009	 1.9711265277	-0.8909431342	 0.109567
H	 1.7789807168	 2.8033178149	-0.5378656166	 0.091631
H	 3.0540859054	 2.0213583339	 1.2307048748	 0.229959
H	 3.2083366212	 0.5782687173	-0.6326229506	 0.096355
H	-1.9032380736	-1.1989562255	 0.1524380569	 0.107593
H	 1.935433428	-2.4547627213	-0.0759475541	 0.270338
