17
gdb 55973	3.49454	0.88322	0.81967	2.4333	70.77	-0.2538	-0.0368	0.2171	1435.1762	0.132229	-458.977275	-458.967895	-458.966951	-459.013161	32.412	
C	-0.181811213	 1.4898913781	 0.0488675745	-0.479385
C	 0.0461583631	-0.0051015023	 0.1282179386	 0.394968
O	 0.1414978382	-0.5939333918	 1.1785094337	-0.289408
C	 0.1774231103	-0.7367397053	-1.2118525345	-0.333951
C	-0.1476097934	-2.216272134	-1.1122772976	 0.023156
O	-1.5654495743	-2.5164178391	-1.2093391354	-0.294066
C	-1.4051686643	-3.4100754585	-2.3295449724	-0.188654
C	 0.0929395235	-3.0839464692	-2.3543988061	 0.325233
O	 1.0273277647	-3.3430878492	-3.048673324	-0.272065
H	 0.5365903215	 1.9579344418	-0.6331702313	 0.139156
H	-1.18035759	 1.6833782938	-0.3609333298	 0.150532
H	-0.1046233339	 1.9351390789	 1.0412048691	 0.147593
H	-0.4385611726	-0.2569371943	-1.9793421901	 0.122432
H	 1.223290728	-0.627557282	-1.5342945652	 0.151222
H	 0.2851544263	-2.6261887817	-0.1903857427	 0.133317
H	-1.6469166033	-4.4530458534	-2.0870565501	 0.135604
H	-1.9761923008	-3.1011552319	-3.2140326065	 0.134316
