23
gdb 120141	2.78225	0.97736	0.87544	1.4486	85.94	-0.2482	0.0729	0.3211	1477.9767	0.205493	-388.262783	-388.253128	-388.252184	-388.29775	36.541	
C	 0.0278808658	 1.5130100409	-0.1052659122	-0.379713
C	 0.2714622558	 0.003485917	-0.0295044855	-0.155202
C	 0.5103426988	-0.4946088418	 1.4023004577	-0.205961
C	 0.7129643594	-1.9971006571	 1.4669926878	 0.004546
C	 1.9806401331	-2.7319793672	 1.1301567806	-0.067222
C	 3.217874032	-1.9723439174	 1.6230358294	-0.286757
C	 2.6630072294	-2.096346018	 3.0860720269	 0.121831
O	 2.4415979576	-0.9316961925	 3.8564580451	-0.426697
C	 1.4030989079	-2.7712085381	 2.5614536887	-0.110154
H	 0.8828979693	 2.0712733392	 0.2925414855	 0.111727
H	-0.1346245689	 1.8430631104	-1.1363559637	 0.107002
H	-0.8524714591	 1.8019551041	 0.4797830229	 0.112509
H	-0.5863851361	-0.5288765812	-0.4623284494	 0.08816
H	 1.1352364102	-0.2631687552	-0.6526526924	 0.095102
H	 1.3614712392	 0.0281399787	 1.8457907719	 0.111283
H	-0.352482356	-0.2309533366	 2.0290835088	 0.091606
H	-0.1593185336	-2.5472422391	 1.1123578285	 0.079956
H	 2.0046044574	-3.5364542868	 0.4052543641	 0.081794
H	 4.1547750725	-2.5163057234	 1.482315222	 0.09657
H	 3.3415486812	-0.9534296124	 1.2441780272	 0.097776
H	 3.2678108353	-2.81895065	 3.6507149065	 0.071909
H	 3.294440097	-0.611635139	 4.1678732894	 0.281114
H	 0.9000593718	-3.5845987744	 3.0716034002	 0.078823
