21
gdb 89878	3.47137	0.88776	0.81014	3.6065	85.89	-0.2421	-0.0144	0.2277	1495.6321	0.181112	-387.084963	-387.075759	-387.074815	-387.11932	34.65	
C	-1.1076826202	 0.9886889879	-0.0591392749	-0.40853
C	 0.0036717434	-0.0415490769	 0.0611354355	 0.058549
C	 1.2506990214	 0.0984002337	-0.8665747854	-0.314072
C	 2.1256321269	-0.2375057159	 0.3505062578	 0.355369
C	 3.089145513	-1.3607589491	 0.4522273251	-0.356145
C	 3.5921144663	 0.076967075	 0.6023482195	-0.173307
C	 4.399881572	 0.6484176899	-0.4929697532	 0.169002
O	 5.2718692324	 1.4720230005	-0.3562225572	-0.274203
C	 0.9521642827	 0.0295406849	 1.2991899947	-0.310817
H	-0.7107296893	 2.0065948856	 0.0277449009	 0.115281
H	-1.6186612362	 0.9113762178	-1.0252703916	 0.117219
H	-1.8595818029	 0.8556409812	 0.7266331685	 0.116915
H	-0.4099771657	-1.0513606762	-0.0278286483	 0.077045
H	 1.3130349296	-0.5690615601	-1.7301268793	 0.102504
H	 1.3846914061	 1.1298867062	-1.2099752034	 0.107554
H	 3.0991434578	-1.9729391382	 1.347965991	 0.125301
H	 3.3672908252	-1.8861283186	-0.4575243123	 0.121258
H	 3.8648880325	 0.4197653082	 1.5954007602	 0.102306
H	 4.139070863	 0.251049601	-1.5034221123	 0.060939
H	 0.9853418535	 1.0373708745	 1.7272495924	 0.105899
H	 0.7869662289	-0.6898346516	 2.1058796724	 0.101933
