21
gdb 91757	2.43777	1.74365	1.55664	1.8694	76.32	-0.2493	0.0719	0.3212	995.8112	0.185906	-424.240766	-424.233227	-424.232283	-424.272308	30.901	
C	-0.3835056346	 1.5219454528	 0.0109421921	-0.416932
C	 0.004817892	 0.0442157954	-0.0233506825	 0.021043
C	 0.7485853012	-0.4529715582	-1.3060135431	-0.269598
C	 1.9307977581	-1.3043111609	-0.7768265344	 0.116101
C	 1.429930839	-1.7857485168	 0.5928357598	-0.231484
C	 0.9253318303	-0.4381094189	 1.1271960937	 0.107432
O	 2.0582348078	 0.4094005256	 1.3584461476	-0.27364
C	 2.8611424059	 0.6262910435	 0.2180711387	 0.022069
O	 3.113752866	-0.5278896112	-0.5428800716	-0.268639
H	 0.4861006588	 2.1809441792	-0.0493896957	 0.127898
H	-1.0496473523	 1.7666368429	-0.8228516648	 0.113471
H	-0.9110687238	 1.7636893936	 0.9395053178	 0.116522
H	-0.9184638775	-0.5399808798	 0.0782281747	 0.077055
H	 0.0968104824	-1.0738195781	-1.9272461085	 0.10066
H	 1.1049642034	 0.3663170961	-1.9372177283	 0.111375
H	 2.2364498764	-2.0953335354	-1.4636022758	 0.076725
H	 0.6101233184	-2.5060613721	 0.4967788919	 0.092632
H	 2.2283642677	-2.2161658581	 1.1995685363	 0.108023
H	 0.4078530899	-0.4868588806	 2.0878388866	 0.073606
H	 2.4059567232	 1.4006030792	-0.419989602	 0.078151
H	 3.8283060476	 0.9839719415	 0.5804189273	 0.117531
