17
gdb 1279	7.77081	1.15858	1.03409	2.0071	61.83	-0.265	0.02	0.285	1145.5681	0.146096	-346.903261	-346.894413	-346.893469	-346.937865	29.339	
C	-0.0104588185	 1.475205719	 0.0888186626	-0.383592
C	 0.1309594491	-0.047636045	 0.0144895594	-0.189442
C	 0.6922240287	-0.4995593634	-1.3237812679	-0.039528
O	 0.7885388112	-1.93620369	-1.2998808049	-0.241435
C	 1.2727688814	-2.512436617	-2.4196946021	 0.42496
C	 1.3231445235	-4.014391299	-2.26732484	-0.477867
O	 1.6126567654	-1.8938328439	-3.3965176882	-0.35056
H	 0.9567184629	 1.9727425168	-0.0413264087	 0.120645
H	-0.6839166094	 1.8519792867	-0.688618705	 0.120645
H	-0.4150730979	 1.7833293216	 1.0568732021	 0.119886
H	 0.7884975994	-0.4066318878	 0.8146040646	 0.108192
H	-0.842381211	-0.5266768144	 0.171159445	 0.108192
H	 0.0486474231	-0.19770012	-2.1573745143	 0.118184
H	 1.6854758194	-0.0772216879	-1.5115810968	 0.118185
H	 0.3222409992	-4.4047792255	-2.0624514234	 0.14825
H	 1.7161855258	-4.4586508946	-3.180875398	 0.147032
H	 1.9566410179	-4.2845591955	-1.4176966943	 0.148251
