20
gdb 91547	2.88509	1.32389	1.0893	2.122	79.24	-0.2338	0.0717	0.3055	1174.1951	0.171751	-403.084641	-403.076121	-403.075176	-403.118386	32.775	
O	 0.6398882984	 1.1170458261	-0.0016722787	-0.434557
C	 0.3222774559	-0.2330508207	 0.2628558831	 0.047651
C	 0.015803832	-0.6668693204	 1.7402017563	-0.270597
C	-1.3945535853	-1.0533550438	 1.2906295827	-0.110081
C	-2.0792024412	 0.1504021476	 0.7076529867	-0.335519
C	-1.1015836332	-0.6083076141	-0.1543302703	 0.380663
C	-1.4062191999	-1.2305881816	-1.4688522847	-0.137944
C	-2.7037456796	-1.0482273584	-2.16711767	-0.243996
N	-1.4973999971	-0.3797940944	-2.6789514977	-0.317299
H	 1.5560436464	 1.2702501324	 0.2505108476	 0.284324
H	 1.0549618373	-0.9079698964	-0.1999234733	 0.072657
H	 0.6318486643	-1.5070846073	 2.0692109425	 0.099359
H	 0.0712860676	 0.134382061	 2.4840770085	 0.096348
H	-1.9500627373	-1.924251774	 1.6160129337	 0.090129
H	-3.1245091083	 0.0090337501	 0.4560378282	 0.112098
H	-1.8309780543	 1.1468868442	 1.0621327453	 0.120071
H	-0.8655164898	-2.156729315	-1.6621166453	 0.084115
H	-3.0870199487	-1.8448294435	-2.7991358252	 0.115744
H	-3.4702851138	-0.4456694966	-1.6894596482	 0.109374
H	-1.5023204633	 0.5946086048	-2.3835578314	 0.237459
