16
gdb 33621	3.43411	1.63813	1.44093	4.4078	76.68	-0.2619	0.0152	0.2771	921.6829	0.126615	-363.556332	-363.55001	-363.549065	-363.586943	26.072	
N	 0.0252339567	-1.1734639488	-0.0092396357	-0.349574
C	-0.0063731603	-0.0161383399	 0.0168246578	 0.114577
C	-0.045153954	 1.4093144743	 0.0524090535	 0.299779
C	-0.6918625912	 2.3404394991	 1.1280721973	-0.171717
C	-0.9346196592	 3.3291887043	 0.0125940135	-0.069883
C	 0.3834750994	 3.3458023359	 0.7908181911	-0.069902
C	 1.2213561585	 2.3652206049	-0.0617674776	-0.110045
C	 0.8830345745	 2.6402530359	-1.5454174253	-0.247911
C	-0.5742576924	 2.3427620525	-1.1221289607	-0.110103
H	-1.2284784526	 2.1269864572	 2.0415174913	 0.109577
H	-1.6173482387	 4.1666077378	-0.0132326961	 0.100053
H	 0.7200940532	 4.1960954196	 1.3667943327	 0.100064
H	 2.209443832	 2.0691384245	 0.2838201593	 0.091446
H	 1.1112372151	 3.6288626569	-1.9527921987	 0.103701
H	 1.2801706478	 1.859924963	-2.2013554683	 0.118517
H	-1.3482998786	 2.0246247226	-1.8171533042	 0.09142
