18
gdb 55944	4.05127	1.01056	0.90789	16.2069	75.39	-0.152	-0.0191	0.133	1274.862	0.147319	-438.998187	-438.989934	-438.98899	-439.032356	31.078	
O	-0.1468848237	 0.1172143923	 0.6215478634	-0.469583
C	 0.0161370973	 1.2370582087	 0.0851928055	 0.367392
O	 1.019927178	 1.901134104	-0.1713545775	-0.453476
C	-1.3634062833	 1.9524568842	-0.3221523891	-0.398947
C	-2.5267842171	 0.9938252427	-0.1660524061	 0.040608
C	-2.7643017162	 0.3439754439	 1.246574805	-0.223489
C	-4.1735718364	 0.9427526937	 1.2580875299	-0.054945
N	-3.9975763064	 2.4356780146	 1.1127723516	-0.261184
H	-4.8204395474	 3.0114421964	 1.2432991714	 0.314609
H	-3.1130072347	 2.8667444143	 1.3844111518	 0.313272
C	-3.9719491861	 1.5404487678	-0.0969290195	-0.07351
H	-1.4597144016	 2.841500767	 0.3251196296	 0.061459
H	-1.2913155348	 2.3308227564	-1.3463446916	 0.108184
H	-2.4780225245	 0.2098608344	-0.9227332514	 0.126238
H	-2.7857644626	-0.7431699836	 1.2048569246	 0.158748
H	-2.0856936976	 0.6433542423	 2.0433731052	 0.15834
H	-5.0799852356	 0.645067071	 1.7734743312	 0.1437
H	-4.6818949572	 1.8014672	-0.8730326639	 0.142585
