21
gdb 38666	2.83566	1.7321	1.27969	0.3823	87.89	-0.2315	0.0297	0.2612	1050.2235	0.185687	-349.947549	-349.940256	-349.939312	-349.978898	30.518	
C	-0.0020558724	 1.4642449491	 0.1519557869	-0.359708
C	 1.3439179862	 0.8049236285	-0.0211779319	-0.088926
C	 1.7649050199	 0.1030541109	 1.2716120738	-0.241418
C	 0.4351317769	-0.7460314424	 1.214809161	-0.099242
C	 0.6505034155	-2.2095652599	 0.9933950662	-0.06602
C	 0.5169969863	-2.8050736028	-0.1938452573	-0.061062
C	 0.1100737255	-2.10043922	-1.4644356412	-0.248758
C	-0.6099468801	-0.7633463173	-1.2028368354	-0.331003
C	 0.048021019	-0.0140330758	-0.0811295168	 0.390827
H	-0.2981233769	 1.8676274443	 1.1191782715	 0.098421
H	-0.3366595971	 2.0565286803	-0.6949930209	 0.105432
H	 2.0086873031	 1.0882917231	-0.8294518597	 0.078846
H	 2.6502298793	-0.5261849232	 1.1571251111	 0.103539
H	 1.896580437	 0.7451142749	 2.1495207632	 0.090716
H	-0.2389870167	-0.5783821945	 2.0654164782	 0.063696
H	 0.9596395812	-2.7947953207	 1.8576039953	 0.081008
H	 0.7252806563	-3.8695157666	-0.2784924996	 0.081721
H	 1.0069341444	-1.9214711517	-2.0756937684	 0.10996
H	-0.5277615723	-2.7585523936	-2.0671794949	 0.09786
H	-0.6379366736	-0.1584188329	-2.1163389723	 0.092515
H	-1.6547555815	-0.9676506195	-0.9304003589	 0.101598
