18
gdb 30646	3.96556	0.98991	0.85854	2.0174	73.52	-0.2398	0.0047	0.2445	1342.5154	0.147726	-439.116309	-439.107338	-439.106394	-439.151363	32.173	
C	-0.3455790536	 1.3425233342	 0.0664669176	-0.411617
C	 0.0746901157	-0.1355695237	-0.0457535025	-0.113583
C	 0.8848719952	-0.4129737384	-1.3256235343	-0.074327
O	 0.1400126396	-0.1260241626	-2.4986021304	-0.421981
C	 0.849655434	-0.5697183024	 1.1558956468	 0.411315
N	 2.109354338	-0.8631488201	 1.2490276764	-0.315152
C	 2.300906605	-1.1831739492	 2.5886557469	-0.116595
C	 1.1250701408	-1.061107894	 3.2429928906	-0.045515
O	 0.1795156045	-0.6675736264	 2.3366897729	-0.183972
H	 0.5326236799	 1.9973748009	 0.090757726	 0.123512
H	-0.9697984131	 1.6213510218	-0.7873698723	 0.117374
H	-0.9246774869	 1.5183196367	 0.9763877443	 0.133552
H	-0.8387602308	-0.7421504589	-0.0939601867	 0.107569
H	 1.8301906594	 0.1446695289	-1.293948657	 0.110532
H	 1.1407295004	-1.4747309773	-1.372227236	 0.123315
H	 0.161091732	 0.8239249964	-2.6434819918	 0.286421
H	 3.2654088814	-1.4754274892	 2.9719770722	 0.124189
H	 0.7931150585	-1.2016719468	 4.2569107773	 0.144964
