15
gdb 130157	5.68912	1.01156	0.85962	3.6858	72.23	-0.1987	-0.0051	0.1936	1270.4249	0.11657	-446.346314	-446.338435	-446.337491	-446.3787	29.672	
N	 0.0432913273	 1.3705496802	 0.1484003392	-0.585799
C	 0.0216384972	-0.0088820381	 0.0559627233	 0.400315
N	-1.1030432374	-0.7093316521	 0.0335233784	-0.30669
N	-0.6258119932	-1.9968242031	 0.0136053725	-0.24211
C	 0.712161805	-1.9771451106	 0.0150674991	 0.506756
N	 1.5172217452	-3.1002461402	-0.0064057442	-0.397634
C	 1.0844078394	-4.399562661	-0.0336910737	 0.091566
N	-0.1546143657	-4.7095437876	-0.0490880803	-0.475401
N	 1.1779916637	-0.7389773286	 0.0410498615	-0.414003
H	 0.8667896382	 1.7781927204	-0.269885337	 0.253797
H	-0.8103711743	 1.8022317787	-0.1755067287	 0.255109
H	-1.207483219	-2.8216644673	-0.0063728086	 0.294778
H	 2.505351483	-2.9079812995	 0.0110600714	 0.275818
H	 1.9177972747	-5.1086273207	-0.0409363884	 0.109259
H	-0.2743809038	-5.7179485307	-0.0691274646	 0.234238
