18
gdb 48949	3.56923	1.40629	1.34917	3.3925	75.83	-0.2463	-0.0232	0.2231	1006.06	0.150403	-401.960842	-401.954004	-401.95306	-401.992113	27.604	
O	-0.1261394441	 0.0726612171	 0.2603202814	-0.266499
C	 0.0331423589	 1.2435720471	 0.0103588007	 0.056235
C	 1.3524733969	 1.9016812107	-0.0403188051	 0.265811
C	 2.6496702765	 1.2498200021	 0.4186627582	-0.292196
C	 3.547061984	 2.4851968805	 0.1938829059	-0.06695
C	 3.226851394	 2.8445389237	-1.2735965422	-0.234513
C	 1.713396014	 2.9196845975	-1.0973824474	-0.074586
N	 1.3959648762	 3.3726857219	 0.2623743054	-0.161258
C	 2.7172310029	 3.5606304756	 0.9213514279	-0.155729
H	-0.8215570723	 1.9209472865	-0.205891313	 0.079908
H	 2.6085872649	 0.9235532118	 1.4614479608	 0.114238
H	 2.9228078275	 0.3930738214	-0.202860288	 0.116083
H	 4.5973717044	 2.3945705207	 0.4639805923	 0.076602
H	 3.6591054816	 3.7993426367	-1.589517503	 0.108534
H	 3.5281178015	 2.0695462983	-1.9843739696	 0.110965
H	 1.0324554946	 3.2074874349	-1.8895365721	 0.101566
H	 2.6215415218	 3.3924865633	 1.9974010445	 0.112102
H	 3.0676540967	 4.5823217399	 0.7477997032	 0.109684
