20
gdb 15723	2.63285	1.94439	1.30246	1.9058	71.22	-0.2397	0.0776	0.3173	1011.1828	0.176774	-386.135802	-386.127025	-386.12608	-386.169404	31.453	
C	 0.2914950936	 1.1794780694	 0.4178677808	-0.235364
O	 0.1777754589	-0.1952867946	 0.1369798792	-0.245353
C	 0.5403997343	-0.5526817205	-1.1868682627	 0.089707
C	 2.0638662163	-0.6840400153	-1.3628029357	-0.08257
O	 2.4060390537	-2.0421016226	-1.0922168149	-0.264926
C	 1.2240345373	-2.7831317664	-0.8046235	-0.067908
C	 0.0719658791	-1.9971354938	-1.4417647541	-0.013925
C	-1.3222449925	-2.3426087778	-0.9284329755	-0.41267
H	 1.3276985002	 1.5420452284	 0.3436648253	 0.106959
H	-0.3315752578	 1.7834389401	-0.2607733896	 0.104553
H	-0.0547325234	 1.3296814938	 1.4433728796	 0.129134
H	 0.1047784017	 0.1648173747	-1.8980757243	 0.060791
H	 2.3672794604	-0.431835785	-2.3887753729	 0.093019
H	 2.60562987	-0.0215845537	-0.6765699129	 0.100449
H	 1.341402854	-3.7900528584	-1.2181874273	 0.099963
H	 1.0748831164	-2.8689467909	 0.2827113245	 0.096793
H	 0.1166890556	-2.1558045127	-2.5268571189	 0.080079
H	-1.4016544751	-2.142894711	 0.1420396655	 0.136927
H	-2.088631969	-1.7503259041	-1.4387066335	 0.112592
H	-1.5487737237	-3.3993967294	-1.1039865123	 0.111751
