20
gdb 56892	3.31229	0.93794	0.78298	3.6199	79.79	-0.2946	0.0136	0.3082	1475.786	0.169944	-403.151229	-403.141572	-403.140628	-403.186199	35.324	
C	-0.7896783855	 1.0850520512	-0.0933621444	-0.409897
C	 0.2498185696	-0.0098938339	 0.0871420079	 0.062055
C	 1.4784365231	-0.032602662	-0.8698002154	-0.257695
C	 2.3992994515	-0.3217213677	 0.3474080203	-0.012169
C	 1.2336668965	 0.0936958207	 1.2903215155	-0.253234
C	 2.7944254048	-1.8002277812	 0.4541605093	-0.020313
O	 3.5991491464	-2.2381461964	-0.6247746457	-0.411751
C	 3.4560399266	-2.0657744753	 1.7514393189	 0.258749
N	 3.9985370652	-2.2469347686	 2.7557357727	-0.321659
H	-0.3193083406	 2.075220974	-0.0990066648	 0.112597
H	-1.3308983682	 0.967581129	-1.0387379125	 0.118231
H	-1.5272253017	 1.0710245917	 0.7166841403	 0.118762
H	-0.2468338266	-0.9864831823	 0.0884027577	 0.075418
H	 1.4906404826	-0.7705550173	-1.6752916087	 0.114381
H	 1.6762733336	 0.9536787482	-1.299597279	 0.100651
H	 3.3089557892	 0.2835836851	 0.4204114578	 0.076018
H	 1.3466027065	 1.1238160474	 1.6393856892	 0.107465
H	 1.0467146872	-0.5422905657	 2.1601237183	 0.112522
H	 1.8937280698	-2.4236381173	 0.408973482	 0.136721
H	 4.41189563	-1.7188866898	-0.6228770395	 0.293147
