20
gdb 108787	2.87686	1.12895	0.99432	3.0763	76.44	-0.2546	0.0217	0.2763	1295.4509	0.169726	-440.311963	-440.302282	-440.301338	-440.346986	35.296	
C	 0.1162400829	 1.4650470607	 0.0939745104	-0.414989
C	-0.0110181836	-0.0615538595	 0.0315017852	 0.270993
C	-1.4841817192	-0.4857858534	 0.0085952809	-0.414963
C	 0.7926242604	-0.6685189205	-1.1642293849	-0.147661
O	 1.791141342	-1.5155020796	-0.5483883647	-0.254848
C	 1.5867794932	-1.4059116821	 0.7838017221	 0.380712
C	 2.4983080631	-2.1931812152	 1.6763339821	-0.129638
O	 2.1860703368	-1.9952659045	 3.0296738564	-0.421891
N	 0.6544711347	-0.6592850499	 1.2116700228	-0.36086
H	 1.1675452415	 1.7664545853	 0.1249932762	 0.119122
H	-0.3506416773	 1.9299618739	-0.7812788176	 0.113066
H	-0.3738946635	 1.8508991893	 0.9919346412	 0.129026
H	-1.993890278	-0.0725814603	-0.8686991961	 0.11306
H	-1.5742967227	-1.5757463986	-0.0216898215	 0.119122
H	-1.9967377435	-0.1278286007	 0.9055881492	 0.129032
H	 0.1802683623	-1.2897150694	-1.8241160812	 0.117878
H	 1.3100191173	 0.0863340873	-1.7632524741	 0.11786
H	 2.4183359804	-3.257033459	 1.403724416	 0.119973
H	 3.5366253992	-1.8954243507	 1.4624939657	 0.119966
H	 1.4374259539	-1.381056613	 3.042275412	 0.295041
