16
gdb 28219	4.89163	1.21833	0.99363	1.8316	72.46	-0.2244	0.0019	0.2262	1157.9166	0.125637	-437.907775	-437.900091	-437.899147	-437.94041	27.746	
C	 0.0204617483	 1.4321695793	 0.091609441	-0.493768
C	 0.0025676116	-0.0442724316	-0.0630764089	 0.34203
N	-0.0740451222	-0.7447093062	-1.1570394223	-0.376924
C	-0.0506084309	-2.0535995272	-0.7046129196	 0.20486
C	 0.0384261986	-2.0716105333	 0.6303416005	 0.249827
C	 0.0691682253	-3.4462245093	 1.1908609714	-0.174809
O	-0.0143035198	-4.2450355097	-0.005391312	-0.287286
C	-0.0916895945	-3.4536994474	-1.2169064586	-0.17678
O	 0.0758863867	-0.7966259706	 1.0925328958	-0.220958
H	 0.940362956	 1.7674688528	 0.5818790661	 0.147675
H	-0.0435796861	 1.8890278558	-0.8961039491	 0.160227
H	-0.8221680994	 1.7763764146	 0.7002973627	 0.147672
H	 0.9946999853	-3.6892307142	 1.7327557929	 0.119535
H	-0.7786339369	-3.6807267512	 1.8508384821	 0.119512
H	-1.0188287207	-3.7045452385	-1.7496886022	 0.11958
H	 0.7536184688	-3.7130978734	-1.86845283	 0.119606
