21
gdb 66215	4.29014	0.68702	0.6608	1.0727	85.59	-0.2501	0.0544	0.3046	1766.8903	0.179095	-387.038478	-387.028169	-387.027225	-387.074577	37.801	
C	 0.1227622278	 1.5851966635	 0.3935329177	-0.457299
C	-0.0156985079	 0.1168457582	 0.0544504539	 0.453416
C	 1.1492858024	-0.6420762086	-0.5357168604	-0.317431
C	 0.687566741	-0.9125668433	 0.8843645402	-0.31162
O	-1.2990549924	-0.2822462506	-0.3548867947	-0.288374
C	-1.6938135547	 0.1763417398	-1.6342131889	-0.069926
C	-3.0144273363	-0.52553086	-1.9725190755	-0.347856
C	-3.5432788078	-0.1134902687	-3.2653856578	 0.287789
C	-3.9554532156	 0.245218143	-4.3358412688	-0.450742
H	 1.1184798159	 1.7941782089	 0.7945318849	 0.118135
H	-0.0183697131	 2.2227827312	-0.4856599698	 0.120389
H	-0.6181271867	 1.8732385492	 1.1467395397	 0.124917
H	 0.924973772	-1.3992013457	-1.278635171	 0.116345
H	 2.0880604877	-0.1206131326	-0.6890106803	 0.111738
H	 1.3074322162	-0.5761863318	 1.7082821344	 0.110505
H	 0.1520140782	-1.8377084595	 1.0624154081	 0.122035
H	-1.842415966	 1.26517645	-1.6447962408	 0.103775
H	-0.931720637	-0.0639736323	-2.3890984451	 0.101829
H	-2.8510972512	-1.609544207	-1.9543034607	 0.136717
H	-3.7381251435	-0.3075933934	-1.1781106	 0.14017
H	-4.3320487988	 0.5530569294	-5.2795635349	 0.195486
