11
gdb 556	9.33153	2.61233	2.34471	4.2848	46.71	-0.2807	-0.0024	0.2783	539.6838	0.085545	-285.275928	-285.270351	-285.269407	-285.30544	18.731	
N	-0.2913880431	-1.1767861362	-0.2616893336	-0.31332
C	-0.1189904349	-0.0420563471	-0.1273134804	 0.273353
C	 0.0799594667	 1.3996639502	 0.0562623328	 0.013156
C	-0.1886915861	 1.9509531374	 1.4821872979	-0.287429
C	 1.3150628367	 2.2920389154	 1.4715343498	-0.060203
O	 1.4689338415	 1.7659095748	 0.1291439832	-0.269905
H	-0.4363403869	 1.9286441802	-0.7537523376	 0.129281
H	-0.868053134	 2.8025138567	 1.5094183295	 0.131059
H	-0.50202384	 1.2057346693	 2.2120461106	 0.141436
H	 1.5656700906	 3.356956716	 1.515497339	 0.118414
H	 1.9316220395	 1.7445291535	 2.1921287989	 0.124158
