20
gdb 119582	2.71887	1.31813	1.05595	2.0868	75.34	-0.2396	0.0644	0.304	1198.3192	0.170851	-440.224075	-440.21511	-440.214166	-440.25804	33.726	
C	-0.2285474231	 0.5715037785	 0.3705906075	-0.253585
O	 0.9324867288	 0.3924230666	-0.4201148169	-0.224619
C	 0.7255823536	-0.4190934444	-1.5588606669	-0.228969
C	 0.5394127297	-1.8793132177	-1.2538960864	 0.31628
N	 1.5891891715	-2.6447386112	-0.5321146573	-0.384316
C	 1.160689659	-3.0841576333	-1.8807832359	-0.1066
C	-0.0934277778	-3.928173953	-1.6636381856	-0.256401
C	-0.7445030553	-2.6826736432	-0.9462519731	 0.083715
O	-1.0874872529	-2.8015374047	 0.4074986632	-0.426809
H	-1.0304796217	 1.0612353429	-0.2049595388	 0.09892
H	-0.6144870241	-0.3777828501	 0.7646139184	 0.136439
H	 0.0520295624	 1.221192143	 1.2030312159	 0.124412
H	-0.1351137328	-0.0540911231	-2.1449142505	 0.091341
H	 1.62393838	-0.2922439948	-2.1753114632	 0.102844
H	 2.4584176315	-2.1191945386	-0.6155579372	 0.237502
H	 1.8716595232	-3.1316219243	-2.6969477759	 0.097456
H	-0.609524805	-4.1932882709	-2.5891948824	 0.105071
H	 0.0335199643	-4.8167011981	-1.0405157728	 0.106975
H	-1.6251989348	-2.30922804	-1.4741512366	 0.089215
H	-0.2540408365	-2.9979349436	 0.8595559243	 0.291129
