20
gdb 85005	2.15234	1.65715	1.00588	3.527	85.82	-0.2333	-0.015	0.2183	1226.2454	0.169862	-403.20158	-403.191933	-403.190989	-403.235919	35.329	
C	-0.0677916975	 1.550846055	-0.0026550879	-0.396436
C	 0.0472628621	 0.0279082473	 0.0244973805	 0.019958
O	 0.8349894455	-0.4120814629	-1.0934227529	-0.257091
C	 1.8940339591	-1.155900406	-0.642254661	 0.339772
N	 2.7765801824	-1.6921733108	-1.3775834705	-0.55237
C	 1.8284704338	-1.2285950395	 0.8274265311	 0.138699
C	 2.8589055542	-1.9804262537	 1.602462525	-0.492406
C	 0.7494623848	-0.5442504826	 1.2347679062	 0.189981
C	 0.223657051	-0.3269775768	 2.6150256711	-0.503965
H	 0.9176875735	 2.010705112	 0.1151458398	 0.128145
H	-0.4948808145	 1.8771902897	-0.9543975153	 0.133746
H	-0.7191841627	 1.9020410805	 0.8035107331	 0.119937
H	-0.9560669808	-0.4119239081	-0.0840544423	 0.096364
H	 2.5917301979	-1.4955781661	-2.3621901352	 0.218252
H	 2.9031391624	-3.0214632377	 1.2663652357	 0.147457
H	 3.8537545086	-1.5590022126	 1.4238032065	 0.146318
H	 2.6609163892	-1.9650474	 2.6766762534	 0.115583
H	 0.8115048053	-0.8639886342	 3.3623907248	 0.135978
H	 0.2309399309	 0.7368995371	 2.8822520686	 0.137989
H	-0.8175520851	-0.6634999706	 2.6969726593	 0.134088
