17
gdb 42979	2.79522	1.74994	1.29631	2.1939	73.31	-0.2329	-0.0207	0.2122	991.3291	0.135924	-421.818545	-421.811122	-421.810177	-421.850509	29.294	
O	 0.0640457516	 0.1093152468	 0.3717722176	-0.344897
C	 0.0095207079	 1.2961062814	 0.151397907	 0.351381
C	-1.1905220391	 2.1251276182	-0.1691765947	-0.195072
C	-1.4012122446	 3.335477932	 0.7540716593	-0.321728
C	-0.6278185428	 3.4859414655	-0.5092678559	 0.090663
O	 0.7789680537	 3.4787475064	-0.409524	-0.300952
C	 1.1873319987	 2.2282181151	 0.0958320142	 0.306568
C	 2.2690877972	 2.1541317337	 1.1503500387	-0.312749
C	 2.5517154421	 1.7088577499	-0.2594396534	-0.311131
H	-2.0409171413	 1.6611799055	-0.6504161295	 0.118356
H	-2.4123704997	 3.7253671984	 0.7826586565	 0.130299
H	-0.8680740866	 3.3686037341	 1.6978468332	 0.136732
H	-0.9834740994	 4.093895546	-1.3320588541	 0.114834
H	 2.6803745776	 3.1044134036	 1.4711101873	 0.130386
H	 2.1591670574	 1.3982411575	 1.9203996271	 0.135527
H	 2.6207747694	 0.6450128557	-0.4589883675	 0.140468
H	 3.1580685679	 2.3553137701	-0.8832136358	 0.131316
