19
gdb 58348	2.12438	1.41919	1.03235	1.1242	73.36	-0.2136	-0.0451	0.1685	1218.1722	0.156902	-456.368958	-456.358891	-456.357947	-456.403895	36.399	
C	 0.3351628379	-0.1594180342	 1.7674239136	-0.327632
N	 0.0567762485	-0.0678724283	 0.338833018	-0.054975
C	 1.1592458425	-0.5569518383	-0.4851595243	-0.335325
C	-1.251320937	-0.537844437	-0.0594179788	-0.20166
C	-1.670798323	 0.1816284128	-1.3442007013	 0.154484
O	-2.5956924616	-0.1215675234	-2.0588683146	-0.265097
C	-1.4504857122	-2.0847044617	-0.0644934053	 0.39262
N	-2.6005585736	-2.514735082	-0.6431098183	-0.522074
O	-0.6479366739	-2.816694373	 0.4826808131	-0.361274
H	 1.2515235774	 0.3993224465	 1.9862417172	 0.115012
H	-0.4803718615	 0.3078510951	 2.3301203596	 0.110297
H	 0.4584549704	-1.1919935178	 2.1210861721	 0.135289
H	 1.3885210258	-1.6182648483	-0.3214512641	 0.138146
H	 0.9227474913	-0.416559196	-1.5463573838	 0.109944
H	 2.0536599661	 0.0361958252	-0.2685482424	 0.11869
H	-1.9769541848	-0.1671520642	 0.6836509866	 0.141155
H	-1.0497116472	 1.0781203573	-1.5464048004	 0.117537
H	-3.0902746234	-1.8960978615	-1.2765328036	 0.27711
H	-2.7225049017	-3.5121883612	-0.7284136234	 0.257753
