21
gdb 39479	2.3247	1.69625	1.20561	1.6707	83.58	-0.2308	0.0049	0.2357	1101.4122	0.185495	-387.06159	-387.05368	-387.052736	-387.093661	31.949	
C	-0.1506466694	 1.3380459312	-0.3781413858	-0.298151
C	 1.2660113346	 0.9255314094	-0.0963027836	-0.015636
C	 2.0604138713	 1.3622440237	 1.141733575	-0.259782
C	 2.2396688466	 0.3519538135	 2.2937151801	-0.058184
O	 1.318190634	 0.4945115811	 3.3628987613	-0.247941
C	-0.0549823924	 0.5092943331	 2.9871028849	-0.129434
C	-0.4924286355	-0.732068601	 2.2570221642	-0.104937
C	-0.3702928398	-0.9689100832	 0.9469374736	-0.038153
C	 0.1626520138	-0.1350823991	-0.1624599922	-0.049483
H	-0.6978649761	 1.8456429009	 0.4081765085	 0.124203
H	-0.4219466582	 1.6600608778	-1.378088382	 0.111479
H	 1.8902284942	 0.8900637487	-0.9849172098	 0.090705
H	 3.065131995	 1.6155426089	 0.7869116813	 0.103153
H	 1.6612895396	 2.2931649619	 1.5599059632	 0.115497
H	 2.2263106785	-0.6719715671	 1.8947639089	 0.097571
H	 3.2143492282	 0.510151313	 2.7656563742	 0.102314
H	-0.6008526342	 0.6057345427	 3.9299392642	 0.10738
H	-0.2729747755	 1.4112287062	 2.400195071	 0.087459
H	-0.8862038442	-1.5335662035	 2.8768559119	 0.08777
H	-0.7020680027	-1.9480974003	 0.604600018	 0.088227
H	 0.1998886422	-0.7013780379	-1.0881748569	 0.085943
