15
gdb 56132	4.87978	0.71288	0.62441	6.1775	65.42	-0.2457	-0.0682	0.1775	1650.4514	0.110161	-491.143971	-491.134125	-491.133181	-491.180717	33.011	
N	 0.0054424512	 1.2809908071	 0.0077464848	-0.522237
C	 0.0438523944	-0.0735234292	 0.0007134516	 0.409678
O	 1.0789400359	-0.7155246413	-0.0148631889	-0.359885
C	-1.3248500192	-0.7581292649	 0.014139092	-0.24714
N	-1.1135295941	-2.1809781964	 0.0070610699	-0.327142
C	-2.1448735884	-3.0601421012	 0.0064259749	 0.326447
O	-3.3178633986	-2.7444544172	 0.0151403018	-0.356997
C	-1.670567854	-4.5227789329	-0.0065357395	 0.0857
O	-2.4307411625	-5.447977055	-0.0087353535	-0.207447
H	 0.874863541	 1.7883854938	-0.0006616146	 0.273524
H	-0.857651011	 1.7959847962	 0.0209617661	 0.272063
H	-1.8951017163	-0.4492901163	 0.9003774205	 0.150224
H	-1.9150471747	-0.4439408455	-0.8570441185	 0.150496
H	-0.1405985707	-2.4622097764	-0.005630141	 0.269029
H	-0.5644824129	-4.6670262707	-0.0131722055	 0.083687
