21
gdb 116079	2.5258	1.21149	0.86469	3.9528	79.82	-0.2142	0.0318	0.246	1371.0666	0.184929	-420.447891	-420.438798	-420.437853	-420.482091	34.218	
C	-0.0872318788	 1.5628308943	-0.0588003892	-0.401587
C	-0.0315361859	 0.033719264	 0.016645692	-0.173043
C	 0.7363421038	-0.517706317	 1.2263662337	 0.04411
C	 0.6424775267	-2.0481922011	 1.3105868537	-0.178195
N	 1.5382715655	-2.6344826799	 2.300147845	-0.293069
C	 2.9315604971	-2.3126818863	 1.999554058	-0.281842
C	 3.2252337909	-0.8683976482	 1.584884986	 0.38076
O	 4.3556731437	-0.4163326606	 1.5807617576	-0.377718
N	 2.1454701425	-0.132931692	 1.1795078202	-0.315785
H	 0.9048772617	 2.0066817498	-0.1961082394	 0.120681
H	-0.6986616755	 1.8867583658	-0.9059639127	 0.124685
H	-0.5238058038	 1.9909519117	 0.8502257925	 0.120777
H	-1.0543882854	-0.3603458377	 0.0657112952	 0.102664
H	 0.4201167016	-0.3703782037	-0.8976671368	 0.107305
H	 0.2763351458	-0.0996055084	 2.1394395198	 0.071788
H	-0.3897351124	-2.3329020818	 1.5383144434	 0.107394
H	 0.8923816248	-2.4800846047	 0.3320906878	 0.110538
H	 1.3003921999	-2.2799815946	 3.2218609286	 0.220132
H	 3.5655537315	-2.5407565173	 2.8593936243	 0.134055
H	 3.2798101519	-2.9546788696	 1.1785915689	 0.13501
H	 2.3720503345	 0.8284508772	 0.9658678612	 0.24134
