17
gdb 37930	2.96519	2.15548	2.05933	2.5409	68.88	-0.2306	0.0588	0.2893	784.3322	0.139549	-421.771826	-421.766225	-421.765281	-421.80152	24.287	
C	-0.0190465639	 1.5504260679	 0.0311681337	-0.080235
O	 1.3498888955	 1.994636941	-0.0009909703	-0.263398
C	 2.1900833089	 0.8696790865	 0.0129231626	 0.104954
C	 2.3350576855	 0.122929923	 1.3995864293	 0.059827
O	 1.1552031364	 0.3102088719	 2.2070302489	-0.28401
C	 0.440085963	-0.6327764029	 1.381429597	 0.085039
C	 0.0272570656	 0.0215416227	 0.0126232799	-0.08756
C	 1.4275374371	-0.3510875683	-0.550826002	-0.101812
C	 1.753878619	-1.1658462646	 0.7458062819	-0.10583
H	-0.4996114323	 1.9336372567	 0.9376943521	 0.114842
H	-0.537629687	 1.9568586442	-0.8465236567	 0.095511
H	 3.1482099149	 1.122997373	-0.4472341823	 0.080688
H	 3.2583543561	 0.2244643695	 1.9714999328	 0.07811
H	-0.3013114905	-1.2036996911	 1.9423684175	 0.079664
H	-0.8324159323	-0.4553726191	-0.4605407165	 0.07719
H	 1.5593574368	-0.6770512339	-1.5805645333	 0.069911
H	 2.1528816871	-2.1725503764	 0.8256930253	 0.077109
