16
gdb 127485	3.18417	1.47857	1.01754	3.996	79.61	-0.1962	-0.0665	0.1297	1122.0963	0.126078	-430.253861	-430.245615	-430.244671	-430.286754	30.834	
C	 0.0200262225	 1.4070668477	-0.0509945346	-0.302147
N	 0.0428798775	-0.0452296282	-0.0162045096	-0.036909
N	 0.0019394148	-0.6760606184	-1.2039156991	-0.265021
C	 0.0415232901	-1.9752484313	-1.1929310004	 0.337135
N	 0.1096976479	-2.6727156646	-2.3993646426	-0.570395
C	 0.0977950099	-2.684733688	 0.0612193897	-0.024064
N	 0.1026433184	-2.0879824589	 1.2018841255	-0.294184
C	 0.069267923	-0.6873285621	 1.2258884205	 0.43909
N	 0.0658628948	 0.0245289227	 2.2909999531	-0.57321
H	 0.8974605185	 1.8055539421	 0.4661186243	 0.15139
H	 0.0126707938	 1.711183427	-1.0965694636	 0.13603
H	-0.8654050598	 1.7820238325	 0.4708805347	 0.149437
H	-0.0769256478	-2.0747643158	-3.1944200294	 0.257341
H	-0.461543704	-3.5070858009	-2.4283293345	 0.253861
H	 0.1396961749	-3.7752555832	 0.0540981928	 0.12133
H	 0.0948977454	-0.6015010808	 3.0934341632	 0.220316
