19
gdb 84922	2.30843	1.92649	1.37777	2.3787	75.89	-0.2434	0.0088	0.2522	996.4343	0.161061	-423.002056	-422.994498	-422.993554	-423.033628	30.916	
O	 0.0778360422	 1.3046772509	-0.3692456732	-0.434751
C	-0.0212466924	-0.076963469	-0.0343259184	 0.063096
C	 0.7969574562	-0.3985691467	 1.2085307843	-0.091056
C	 0.4495447442	-0.109847579	 2.4633528245	-0.04379
C	-0.7989385959	 0.5791623116	 2.9497411125	-0.144665
O	-1.6542172231	 1.0960468111	 1.9382295807	-0.257298
C	-2.2813321365	 0.0757586087	 1.2025081638	 0.103451
C	-2.6084272247	 0.3646424269	-0.2297830392	-0.335016
C	-1.4676650044	-0.5662721614	 0.1173847936	-0.069172
H	-0.2531444736	 1.7877830606	 0.3992160485	 0.283425
H	 0.4238190282	-0.5942727214	-0.8901268471	 0.086401
H	 1.7653878792	-0.8626103113	 1.039805202	 0.092279
H	 1.1360699928	-0.3671228019	 3.2695023439	 0.093796
H	-1.3651434853	-0.1047282235	 3.6054698322	 0.108237
H	-0.5193162502	 1.4398269294	 3.5704707136	 0.122126
H	-2.9735437532	-0.5236817982	 1.7937295239	 0.086491
H	-3.5244512963	-0.0517564092	-0.6331998874	 0.113036
H	-2.3277791675	 1.3363058773	-0.6180784131	 0.135006
H	-1.5987926596	-1.6316851447	-0.0481050249	 0.088402
