18
gdb 70712	2.36618	1.88318	1.23198	4.1605	72.15	-0.2362	0.0218	0.258	1023.5862	0.149827	-439.121718	-439.113976	-439.113032	-439.15358	31.055	
O	-0.0307854661	 1.3763623886	 0.0993894192	-0.477147
C	-0.0287956387	-0.0057023717	-0.006599144	 0.351061
C	-0.5079457624	-0.6362217226	-1.3035808416	-0.354682
C	-1.334024961	-0.7563018991	-0.0417444217	-0.096568
C	-1.4025685776	-2.0622259119	 0.7236400536	-0.223334
C	-0.070606937	-2.8251280296	 0.6773448332	-0.179073
N	 1.049618117	-1.9518508948	 1.0045970817	-0.325469
C	 1.1234532744	-0.6230133746	 0.73234003	 0.355857
O	 2.0622014775	 0.0809889748	 1.0847362631	-0.411077
H	 0.8567957569	 1.5839153793	 0.4378858415	 0.293163
H	-0.8465937183	 0.0778050075	-2.0453311487	 0.12973
H	 0.0030472219	-1.5034790507	-1.7072421594	 0.116911
H	-2.2195529202	-0.1302779438	 0.0071620007	 0.106646
H	-1.6592757143	-1.8509444575	 1.7686069786	 0.116029
H	-2.187211644	-2.7129330318	 0.3208234274	 0.109725
H	-0.0866226275	-3.6451981945	 1.4009010662	 0.118243
H	 0.0661043228	-3.2812611236	-0.3126581351	 0.117432
H	 1.8576617565	-2.3353851538	 1.4709150954	 0.252552
