21
gdb 69499	3.05897	1.50311	1.24595	1.2872	81.54	-0.2329	0.0834	0.3164	1098.3032	0.183458	-383.239663	-383.231258	-383.230314	-383.271965	33.564	
C	-0.050385963	 1.5147399083	 0.0263608379	-0.471458
C	-0.0398477311	 0.0102824035	 0.1140074588	 0.345957
C	-1.2889909806	-0.7768129382	-0.2926691896	-0.251262
N	-1.3179259774	-2.0321128876	 0.4932180687	-0.135166
C	-1.5281840407	-1.7921007463	 1.9315585138	-0.286
C	-0.1536480655	-2.0290262821	 1.4203139249	 0.314162
C	 0.567938278	-3.3336060552	 1.6600716986	-0.471509
C	 0.6506481923	-0.7831600582	 1.1659034224	-0.144249
N	 1.2435648144	-0.6576058806	-0.1800706973	-0.383958
H	 0.9124199877	 1.9240245035	 0.3414031527	 0.131206
H	-0.2307114182	 1.8434040047	-1.0038120535	 0.121482
H	-0.8383381703	 1.9420538705	 0.6565249716	 0.113374
H	-2.2027663359	-0.1980221705	-0.113428403	 0.105329
H	-1.2694895491	-1.0286430637	-1.3610285544	 0.105596
H	-1.7928459189	-0.7852601732	 2.2500848417	 0.107231
H	-2.0554327952	-2.5868980172	 2.4527477192	 0.113297
H	-0.139968835	-4.1655653919	 1.6869795862	 0.12921
H	 1.2988712401	-3.5340796322	 0.869111411	 0.119782
H	 1.1071223675	-3.3074661615	 2.6135747402	 0.119888
H	 1.2247419573	-0.3348633324	 1.9728010731	 0.088051
H	 1.0883584236	-1.5124086998	-0.713182033	 0.229038
