22
gdb 99269	4.22348	0.66341	0.59616	3.0901	81.26	-0.239	0.0384	0.2773	1928.8728	0.192094	-441.529507	-441.518365	-441.517421	-441.567249	39.381	
C	 0.1233158742	 1.4534873944	 0.2366478301	-0.366568
C	 0.091750805	-0.0517296046	-0.0323029281	-0.295368
C	 0.7917699695	-0.4153694495	-1.3413516247	 0.419708
O	 0.7959904611	 0.327300537	-2.3091961758	-0.381693
N	 1.3923214559	-1.6399374356	-1.3483289109	-0.322286
C	 1.9879971456	-2.2220366158	-2.5324005931	-0.159519
C	 1.5267234509	-3.6726158103	-2.7085851527	 0.123028
C	 2.1736622761	-4.3462973546	-3.9141463215	-0.407696
O	 1.753455259	-4.410468888	-1.5027625395	-0.435781
H	 1.1436623218	 1.7980946115	 0.4309376526	 0.119475
H	-0.247830855	 1.9944074263	-0.6361116383	 0.144926
H	-0.4929639991	 1.7081110798	 1.1034122189	 0.106568
H	 0.5270256496	-0.6130018168	 0.802582533	 0.097245
H	-0.9487114833	-0.3911766068	-0.1235101098	 0.127198
H	 1.3153358919	-2.2479197712	-0.5479277812	 0.246678
H	 1.6989027831	-1.6022474872	-3.3846638062	 0.143898
H	 3.0878940875	-2.1994114534	-2.4680898048	 0.091004
H	 0.4366149653	-3.6759011187	-2.8237394105	 0.099754
H	 3.2673240652	-4.3444863381	-3.8230989939	 0.110882
H	 1.8383229856	-5.3835225262	-3.9946042851	 0.129604
H	 1.917558275	-3.8242026577	-4.8413175067	 0.128975
H	 2.7018865354	-4.5713891046	-1.4345583217	 0.279968
