13
gdb 129347	7.13102	0.86912	0.77618	2.488	63.35	-0.2289	-0.0157	0.2132	1346.8246	0.090153	-486.097603	-486.089522	-486.088578	-486.131322	28.086	
N	-0.1548351358	 1.2851004049	 0.1086018712	-0.415646
C	-0.0336155218	 0.0470699411	-0.0508826874	 0.117603
O	-1.1630986225	-0.7281339734	 0.1040941002	-0.222783
C	-1.0173369405	-2.0625187032	 0.0763131922	 0.545015
N	 0.0807402831	-2.739732463	 0.1404028981	-0.320877
N	-0.3609436226	-4.0553440945	 0.0602074871	-0.308697
C	-1.7279999132	-4.1922186492	-0.0146168048	 0.475176
O	-2.4158007896	-5.1837858668	-0.0688567352	-0.408744
N	-2.1335507597	-2.8403995119	-0.018920333	-0.440409
H	 0.7375902815	 1.747683965	-0.0548730284	 0.247013
H	 0.8488691488	-0.5383638438	-0.3118246525	 0.155435
H	 0.29756502	-4.8086776456	 0.1455080302	 0.285737
H	-3.0883827878	-2.5296960796	-0.0715363677	 0.291177
