18
gdb 11678	3.35314	1.64903	1.38806	1.8663	67.78	-0.2477	0.0649	0.3125	945.6611	0.153752	-384.879218	-384.871329	-384.870385	-384.911403	30.104	
O	 0.0789606482	 1.3663544546	 0.048995988	-0.413459
C	-0.0150841083	-0.0525603714	 0.0505758737	-0.203266
C	-1.4359921699	-0.549060593	 0.0420173972	 0.27496
C	-2.5431732796	-0.3017341475	 1.1080607826	-0.246452
C	-3.2314156044	-1.1717126242	 0.0194747726	-0.098887
C	-2.5397556055	-0.2535619896	-1.0324596528	-0.305472
C	-1.9345295645	-2.0363883449	 0.0361066856	 0.149312
O	-1.612372423	-2.9167014617	-1.0028083231	-0.4507
H	-0.3335519801	 1.6832034058	-0.7609801958	 0.282313
H	 0.5346656369	-0.4939625496	-0.7967113606	 0.090893
H	 0.4871988216	-0.3830013536	 0.9667421715	 0.113991
H	-2.3927222229	-0.7614680144	 2.0892029163	 0.092527
H	-2.8965430099	 0.7269719902	 1.1956318864	 0.101766
H	-4.2645811735	-1.5203152666	 0.0085705893	 0.075621
H	-2.9051007744	 0.7760236181	-1.0842865533	 0.096249
H	-2.3906338628	-0.6443000185	-2.0451867068	 0.074876
H	-1.7489091147	-2.5887866094	 0.9615413338	 0.083194
H	-1.8402616232	-2.5136188343	-1.8465435346	 0.282534
