22
gdb 104765	2.49292	1.03238	0.85714	3.4233	84.2	-0.2445	-0.0275	0.2169	1451.9932	0.192204	-404.340167	-404.329824	-404.32888	-404.375822	37.692	
C	 0.9306937626	 0.4855948333	 1.2289992888	-0.376311
C	 0.0737164475	-0.1988039036	 0.1558739889	-0.256902
C	 0.8481245212	-0.571076068	-1.1162626656	 0.332633
C	 0.7675789133	 0.4278858257	-2.2673272814	-0.251429
C	 1.3137699942	 1.8271416524	-1.9528213272	-0.386854
N	 2.1093959276	-1.2781038162	-0.9017465248	-0.362399
C	 1.0010473128	-2.0133243181	-1.5457370252	-0.174567
C	 0.4499922941	-3.1555141801	-0.7666347357	 0.165976
O	-0.1918090227	-4.051549324	-1.2570849496	-0.262341
H	 1.771199079	-0.155802131	 1.5051828799	 0.138604
H	 1.3395796277	 1.4392964297	 0.8840372757	 0.116256
H	 0.334594429	 0.6831907931	 2.1250981157	 0.111904
H	-0.3829946373	-1.0905659538	 0.5939345608	 0.107852
H	-0.7627285914	 0.4494147349	-0.1306743104	 0.102106
H	 1.3133792838	 0.0146491143	-3.1249900345	 0.094507
H	-0.27962118	 0.5115188783	-2.5846234036	 0.111774
H	 2.3533000482	 1.7856467407	-1.6110761672	 0.120532
H	 1.2812668843	 2.4556721332	-2.8479085013	 0.119276
H	 0.7263589016	 2.3283739435	-1.1785468755	 0.128972
H	 2.8043653062	-1.0169123821	-1.5971728526	 0.236369
H	 1.0293447581	-2.1950233563	-2.6177963909	 0.098573
H	 0.6891308103	-3.1287514558	 0.3185779756	 0.085468
