21
gdb 118824	2.63307	0.90923	0.77648	2.8583	82.32	-0.2456	-0.0192	0.2264	1546.0098	0.179369	-424.216145	-424.205735	-424.204791	-424.252123	36.888	
C	-0.1635422528	 1.3789963588	-0.0136491121	-0.226763
O	-0.2252360965	-0.0210202625	-0.1506861741	-0.235378
C	 0.7858949792	-0.5348163465	-0.9933787442	-0.132716
C	 0.6717778301	-2.0455214421	-0.9940670008	 0.321527
C	 0.8452776307	-2.6755453723	 0.3759606829	-0.456087
C	-0.2596635331	-2.6901885523	-1.9650998617	-0.325322
C	 1.2440978966	-2.8427042302	-2.1762025815	-0.149108
C	 1.8817804475	-2.2077234936	-3.3506512996	 0.154322
O	 2.8643825525	-2.6399156356	-3.9033362295	-0.271115
H	 0.7938473115	 1.705475003	 0.4223563228	 0.106902
H	-0.2903332416	 1.8905538631	-0.9810487441	 0.105613
H	-0.9760473935	 1.6781359577	 0.6525851825	 0.129948
H	 0.6764854248	-0.1205095655	-2.0074686588	 0.085544
H	 1.7810748069	-0.2309443105	-0.6240993534	 0.092867
H	 0.1074405605	-2.2672546023	 1.0712575237	 0.142671
H	 0.7178405592	-3.7608526388	 0.3317256393	 0.115714
H	 1.8429370705	-2.4685947004	 0.7792188153	 0.120541
H	-0.8079757024	-3.5761122521	-1.6651572688	 0.1256
H	-0.7886313542	-2.0509680615	-2.6654876465	 0.123253
H	 1.6946016375	-3.7951387579	-1.9163597137	 0.105482
H	 1.3768469067	-1.2887923185	-3.727611898	 0.066506
