19
gdb 49435	2.83522	1.65598	1.433	2.6393	77.52	-0.2374	-0.0189	0.2185	979.159	0.160906	-385.880068	-385.872753	-385.871809	-385.91199	29.012	
O	-0.5754047232	 0.6649993619	 0.7862009487	-0.253451
C	 0.1375964646	 0.9397104514	-0.1476204145	 0.139354
C	 1.2442495424	 1.9633261373	-0.1345433034	-0.085089
C	 1.4385301724	 2.8934758256	-1.3384939448	-0.105259
C	 0.5101801667	 4.0976849407	-1.2572209352	-0.026066
C	-0.7542627572	 4.0170180942	-0.4006230644	-0.247439
C	-0.2194703853	 3.7386802432	 1.0313643533	-0.204198
C	 1.2087263951	 3.2266704228	 0.7975393793	-0.06921
C	 1.74546111	 4.0555182028	-0.4057943867	-0.079088
H	 0.0271061634	 0.4067509195	-1.1235605517	 0.070266
H	 2.1752268199	 1.4038546932	 0.0338541677	 0.105114
H	 1.9315373406	 2.6273094714	-2.2664634766	 0.08503
H	 0.5144305926	 4.7252928271	-2.141834607	 0.083984
H	-1.316508777	 4.9544844976	-0.4470901176	 0.098993
H	-1.4315945865	 3.2270987921	-0.7437563046	 0.106259
H	-0.1746570606	 4.6701301478	 1.6067036782	 0.093207
H	-0.8326527628	 3.0243028142	 1.5830077768	 0.127305
H	 1.8229037772	 3.1607855613	 1.6946145597	 0.072881
H	 2.5675524675	 4.7580275659	-0.4185974272	 0.087407
