15
gdb 127811	2.52172	1.90379	1.09219	1.7959	74.84	-0.2334	-0.0373	0.1961	1037.1366	0.114311	-446.264894	-446.256913	-446.255969	-446.297616	29.366	
C	-0.3851427246	 1.3467731439	-0.0234903778	-0.311761
N	-0.0075014833	-0.059919193	 0.0040921636	-0.069918
N	 0.0278895837	-0.6705369101	-1.2116410842	-0.086164
N	 0.3397050181	-1.879965796	-1.3100394013	-0.093134
N	 0.6444434138	-2.5752770787	-0.1654011876	-0.32773
C	 0.6585136485	-2.0994078326	 1.1284706715	 0.357725
N	 0.9453600377	-2.7428519324	 2.1902948779	-0.528331
C	 0.28482113	-0.6578156089	 1.2239951877	 0.383851
N	 0.2223605527	 0.0151901945	 2.3011428222	-0.523264
H	 0.4159489994	 1.9578719491	 0.3998158491	 0.154239
H	-0.5656987448	 1.6138259953	-1.0632870967	 0.151095
H	-1.2836666071	 1.5050937232	 0.57821152	 0.154052
H	 0.8818614356	-3.5375090195	-0.355059622	 0.270448
H	 1.1853397762	-3.7175557758	 2.0074995375	 0.217811
H	 0.4708859441	-0.6024441591	 3.0757656901	 0.251081
