23
gdb 121956	5.43042	0.522	0.49935	1.6951	88.99	-0.259	0.0547	0.3137	2197.7506	0.202489	-388.259999	-388.248536	-388.247592	-388.297472	40.843	
C	 0.0518741055	 1.629821584	 0.0350533128	-0.392645
C	-0.0031591621	 0.0978461383	 0.0146785747	 0.029217
C	-1.4418600962	-0.4481941506	 0.0500519761	-0.18613
C	-2.2262898571	-0.0995257244	 1.3190382435	-0.183915
C	-3.5979901401	-0.7612460073	 1.3589765041	-0.071824
O	-4.2433571311	-0.3592703111	 2.5578662912	-0.421582
C	 0.730478435	-0.4670138588	-1.2287529003	-0.364004
C	 2.152400411	-0.1483542202	-1.272711794	 0.300502
C	 3.3255197223	 0.1152850868	-1.2866964867	-0.442297
H	 1.0847784444	 1.9801451525	-0.0409231235	 0.130218
H	-0.5093106947	 2.0508397184	-0.8085764007	 0.108377
H	-0.37412113	 2.036618838	 0.955917584	 0.119094
H	 0.5258484344	-0.2783973282	 0.900607312	 0.08482
H	-1.9859112815	-0.0790229172	-0.8317321791	 0.092213
H	-1.4035112649	-1.5416233962	-0.0537200738	 0.089482
H	-1.6645866968	-0.4129663674	 2.2079449395	 0.105177
H	-2.3701654758	 0.9827296586	 1.4050677476	 0.111428
H	-4.1811947285	-0.4611956315	 0.4723413288	 0.082814
H	-3.4840313524	-1.8571970645	 1.3154267424	 0.082726
H	-5.1099578687	-0.7746847858	 2.58739609	 0.284867
H	 0.6077739679	-1.5575308795	-1.2549433655	 0.124343
H	 0.2428340989	-0.0848666159	-2.1365845955	 0.124909
H	 4.3620254903	 0.343805562	-1.3096511576	 0.192209
