17
gdb 127402	3.0357	1.69668	1.12529	4.6826	75.44	-0.1919	0.0022	0.1942	1049.3976	0.139306	-414.171484	-414.164018	-414.163074	-414.203381	28.309	
C	-0.1024264547	 1.5072038807	-0.013170977	-0.33605
N	 0.0986473606	 0.0703252344	 0.032326035	-0.16521
C	 0.7306853907	-0.5427440297	-1.1633076394	-0.154035
C	 1.3764473473	-1.8951815126	-0.6940214248	-0.363869
C	 1.5444557589	-1.5767913458	 0.7576224306	 0.281489
C	 0.8082791065	-0.4779016921	 1.103296312	 0.388369
N	 0.8888329926	-0.241413351	 2.4290395639	-0.318506
N	 1.6595819439	-1.1787770502	 2.946140808	-0.133349
N	 2.041751187	-2.0028786477	 1.9388228506	-0.319329
H	 0.8325525253	 2.0640423547	-0.1998333994	 0.103875
H	-0.8155115524	 1.7548575478	-0.8051832692	 0.120576
H	-0.5166266502	 1.8394211645	 0.9411344452	 0.153059
H	-0.0040368041	-0.6839112374	-1.9605797804	 0.114897
H	 1.5254534249	 0.1199639095	-1.5444291126	 0.099978
H	 0.6904924644	-2.738041193	-0.8490714272	 0.12831
H	 2.296016549	-2.1118707156	-1.2444881379	 0.122841
H	 2.6492054103	-2.7754721764	 2.1573838728	 0.276955
