15
gdb 27649	3.05175	1.2806	0.90883	7.5317	77.37	-0.2127	0.0018	0.2145	1221.7303	0.114219	-413.053853	-413.045276	-413.044332	-413.087105	31.1	
C	-0.0345806805	 1.4861564042	 0.0377191864	-0.50433
C	 0.0072628304	-0.0018570135	-0.0304146886	 0.331622
N	-0.0327507281	-0.72811789	-1.1126366546	-0.342076
C	 0.0135436293	-2.0499419718	-0.685446434	 0.125373
C	-0.0224958181	-3.1740478601	-1.5411192831	 0.191626
N	-0.0530841453	-4.1390847078	-2.1841871108	-0.364936
C	 0.0941887916	-2.1065798324	 0.6939672913	 0.263586
N	 0.2493723965	-3.1634953975	 1.5766241595	-0.613926
N	 0.086643985	-0.7991564854	 1.1005032316	-0.32726
H	 0.862985464	 1.898825267	 0.5128716817	 0.135769
H	-0.0975805518	 1.8761548493	-0.9785563622	 0.16703
H	-0.9035069613	 1.8436966388	 0.6022915913	 0.135468
H	 0.238031098	-4.0543181459	 1.0948029444	 0.275645
H	-0.4209577307	-3.1757004319	 2.3367287868	 0.257517
H	 0.2037972509	-0.4851510528	 2.0501588002	 0.268892
