21
gdb 82904	2.95729	1.81796	1.57079	1.2943	80.05	-0.2541	0.0771	0.3313	942.4634	0.188173	-387.08518	-387.078713	-387.077769	-387.115509	28.84	
O	-0.0099738835	 1.4343246908	-0.110012931	-0.452097
C	 0.0136222709	 0.0246780638	 0.0242733234	 0.178319
C	 0.3767020891	-0.5402970208	 1.4289276173	-0.098603
C	-0.6631391642	 0.2600314154	 2.2430646535	-0.195747
C	-1.8617671916	-0.4619139396	 1.5811429854	-0.032582
C	-1.5767804587	-1.866962256	 2.1655427977	-0.195408
C	-0.2624817163	-2.0283359243	 1.3659752535	-0.033722
C	-0.9152336703	-2.0782636924	-0.0413228997	-0.210854
C	-1.3938584275	-0.6098500924	 0.0368817006	-0.055697
H	 0.8947583499	 1.7551527211	-0.0332434762	 0.277997
H	 0.6300710147	-0.3987941989	-0.7776938343	 0.056482
H	 1.4230073935	-0.4864095064	 1.7341121482	 0.048816
H	-0.6272029871	 0.0973925933	 3.3223966622	 0.080211
H	-0.5992209524	 1.327383498	 2.0388465993	 0.104695
H	-2.8541593903	-0.0392289794	 1.7328477682	 0.05847
H	-1.4670897518	-1.842390352	 3.2523538532	 0.086158
H	-2.3043365666	-2.6430795643	 1.9145885486	 0.085068
H	 0.4049304877	-2.8439983072	 1.6433798385	 0.056871
H	-0.2359428616	-2.2540692533	-0.8788023287	 0.087574
H	-1.7109583373	-2.824487575	-0.0925858248	 0.089675
H	-2.0950699267	-0.2523383505	-0.7158694849	 0.064375
