21
gdb 92373	2.11832	1.90817	1.50357	1.4888	76.63	-0.2362	0.0638	0.3	1011.0264	0.183997	-424.243571	-424.23544	-424.234496	-424.275569	33.179	
C	-0.2462374098	 1.5434957269	-0.049291107	-0.428326
C	 0.024261592	 0.048480551	 0.0105128446	 0.123866
O	 0.7120578804	-0.3899752327	-1.1790209901	-0.30117
C	 1.8237456237	-1.1916934077	-0.7362542164	 0.106668
C	 2.9152679322	-0.2376746735	-0.2064996817	-0.216522
C	 2.2914779663	 0.2394251164	 1.1422268756	-0.279052
C	 0.9235023331	-0.4864504683	 1.1579678698	 0.36773
O	 0.2855078408	-0.5707371991	 2.4073640943	-0.498209
C	 1.2984287798	-1.8489878941	 0.5447992631	-0.265878
H	 0.6741469976	 2.123346053	-0.1578393275	 0.121624
H	-0.8868341741	 1.7715615845	-0.9059174231	 0.130288
H	-0.7709356248	 1.876182693	 0.8542235211	 0.104301
H	-0.9403116092	-0.4773463925	 0.0833499267	 0.073882
H	 2.1245436645	-1.8406305636	-1.5592092559	 0.073654
H	 3.8659656121	-0.7577296738	-0.0539841263	 0.097514
H	 3.0836707716	 0.5763900747	-0.9148478054	 0.106113
H	 2.8738762699	-0.096685032	 2.0050017106	 0.103998
H	 2.1993416124	 1.3265042878	 1.2124553986	 0.093696
H	 0.1819442419	 0.3219351107	 2.7531149666	 0.279206
H	 0.4357783057	-2.4978679964	 0.3782124522	 0.107312
H	 2.0613793939	-2.3803807545	 1.1190939903	 0.099306
