19
gdb 75262	2.70826	1.69307	1.11373	1.2932	83.77	-0.2292	0.0186	0.2478	1107.8021	0.160376	-385.902505	-385.89466	-385.893716	-385.934747	30.445	
C	 0.0492500261	 1.5013899902	 0.018377757	-0.498995
C	 0.0349523034	 0.0089282782	 0.0004072424	 0.292232
C	 0.0196151616	-0.8135166111	-1.0574304978	-0.164204
C	-0.0021073367	-2.2937610385	-0.6824810785	-0.373977
C	 0.3353400515	-2.1813196553	 0.7772633944	 0.293452
C	 1.1822777176	-2.7299472345	 1.6373665275	-0.246245
C	 1.4027276372	-1.7620335029	 2.7818559318	-0.111249
O	 0.8314856414	-0.5226897741	 2.3439164101	-0.285691
C	-0.0636033002	-0.8139575234	 1.2738313493	 0.002669
H	 0.8937714531	 1.8672426525	 0.6137366726	 0.14268
H	 0.1244028524	 1.9206906362	-0.9886707251	 0.119705
H	-0.8585105064	 1.8988543056	 0.4906593082	 0.126572
H	 0.0021929705	-0.4847977059	-2.0919298502	 0.089046
H	-0.9941806232	-2.7338166156	-0.8626732591	 0.116633
H	 0.717205413	-2.8972899735	-1.2468045199	 0.11606
H	 1.727987524	-3.6594349308	 1.5346905777	 0.100515
H	 0.9287473451	-2.0907771595	 3.7226720232	 0.098246
H	 2.4692503616	-1.605490379	 2.9912181874	 0.110378
H	-1.101056822	-0.7685246287	 1.6592142191	 0.072173
