23
gdb 111687	2.39609	1.29142	1.12858	1.4401	84.94	-0.2243	0.0801	0.3043	1260.8506	0.206366	-388.283061	-388.273689	-388.272745	-388.317663	35.391	
C	-0.0160478149	 1.6436258453	 0.318152876	-0.376163
C	-0.3280871078	 0.153919882	 0.1239450877	-0.209105
C	 0.4879246325	-0.4422251879	-1.0064608389	-0.031649
C	 1.8807812426	-0.9963126621	-0.8331479603	 0.082322
O	 2.3040361523	-1.3445681145	 0.46227842	-0.262632
C	 1.5150938592	-2.4251052563	 0.9645013261	-0.097228
C	 0.6612859283	-2.9887180757	-0.200657744	-0.001352
C	-0.7583237346	-3.3886957803	 0.2122238092	-0.405807
C	 0.7826246079	-1.9168000502	-1.2790212143	-0.134993
H	 1.0378036155	 1.7870631296	 0.576180882	 0.128385
H	-0.217230274	 2.21299855	-0.5962045405	 0.110276
H	-0.6240013129	 2.0746908904	 1.1197315452	 0.108031
H	-0.1372044802	-0.3703073014	 1.0631404908	 0.107205
H	-1.3972643205	 0.0277741775	-0.0905571862	 0.095558
H	 0.3696236796	 0.1138720002	-1.936634683	 0.079996
H	 2.7071349749	-0.6732088181	-1.457515001	 0.091899
H	 2.1928976961	-3.1755882773	 1.3880227645	 0.102243
H	 0.8719104717	-2.0675739441	 1.7798555354	 0.097692
H	 1.1618653445	-3.8807228381	-0.598357648	 0.079193
H	-1.3155144168	-2.5340790128	 0.606693821	 0.122944
H	-1.3160138979	-3.7871299194	-0.6411729857	 0.115957
H	-0.7393410368	-4.1647627947	 0.9855662764	 0.11323
H	 0.7122244216	-2.250155052	-2.3088832523	 0.083997
