15
gdb 131272	5.1014	1.07797	0.92774	1.9017	67.99	-0.2138	0.0363	0.2501	1205.9247	0.114877	-450.122785	-450.115197	-450.114252	-450.155355	28.246	
O	 0.3028376406	 1.2824000979	 0.0358922255	-0.42153
C	 0.129344855	-0.0416051332	-0.0146146346	 0.462376
N	 0.2938832967	-0.824457638	-1.0561875516	-0.417007
C	-0.0172753184	-2.0563773101	-0.536206715	 0.390941
N	-0.3485678797	-2.0715913742	 0.7438533069	-0.297512
N	-0.2530786429	-0.7355857891	 1.0669407143	-0.257647
N	-0.0506417707	-3.1894094037	-1.3379595023	-0.132781
C	 1.203547808	-3.7477497342	-1.8386738434	-0.222121
C	 0.4138366801	-4.4542478004	-0.7880605417	-0.217316
H	 0.5566569776	 1.5621695257	-0.8529356456	 0.320864
H	-0.4641681269	-0.4106397078	 1.9942525347	 0.28318
H	 1.1783198339	-4.0864550113	-2.869670053	 0.123657
H	 2.1262868879	-3.2614638078	-1.5335453034	 0.12655
H	 0.7975762206	-4.4415896739	 0.2279346491	 0.135944
H	-0.1888550317	-5.3193769399	-1.04659564	 0.122403
