22
gdb 122237	2.68578	0.83067	0.70215	1.8939	89.14	-0.2428	0.044	0.2869	1706.8974	0.192149	-367.158781	-367.148363	-367.147419	-367.194811	38.276	
C	 0.1181275081	 1.5138161296	 0.2777891466	-0.381601
C	 0.0199678637	 0.0267682043	-0.073036629	-0.164631
C	-1.3914119835	-0.5399714057	 0.1119516136	-0.158596
C	-1.492256653	-2.0296728752	-0.239545838	-0.28386
C	-2.8951836266	-2.6019625101	-0.0712128905	 0.098841
C	-3.04522005	-4.0206002582	 0.3752389133	-0.273975
N	-3.3735478733	-2.9282528152	 1.2984703857	-0.333492
C	-3.896728445	-2.0398482451	-0.9475746165	 0.354673
C	-4.6987433672	-1.5721715755	-1.7115568976	-0.462221
H	 1.1350173722	 1.8921877133	 0.1343235635	 0.111394
H	-0.5522701547	 2.112468271	-0.3486214483	 0.116901
H	-0.1599285353	 1.6932886534	 1.3223102016	 0.1145
H	 0.3376226177	-0.1268264072	-1.112938099	 0.096378
H	 0.7264536116	-0.5431457176	 0.545624014	 0.091484
H	-1.7139952249	-0.3875216283	 1.1509330669	 0.094538
H	-2.0991201312	 0.0213519863	-0.5101993807	 0.114161
H	-1.1690360571	-2.1849286501	-1.2766596305	 0.109798
H	-0.8055287067	-2.6096372936	 0.391594126	 0.088394
H	-3.897720711	-4.5994282491	 0.0337746105	 0.128533
H	-2.1332849685	-4.5922739062	 0.5303620516	 0.113294
H	-2.6055728884	-2.7856096564	 1.9516965399	 0.231227
H	-5.4208227368	-1.1607898745	-2.3725257732	 0.19426
