17
gdb 85309	2.46752	1.76972	1.33583	3.0758	67.18	-0.2397	-0.03	0.2097	978.624	0.137233	-458.964254	-458.956947	-458.956003	-458.996111	28.945	
O	 0.0371901148	 1.3683327385	-0.3637577789	-0.435553
C	 0.0610031437	-0.0073995108	-0.0350566819	 0.140932
C	 0.7048317265	-0.2599585551	 1.3560475558	-0.369954
C	-0.3176116963	-0.4531135494	 2.4810964502	 0.423864
O	-0.0617568208	-0.3268194249	 3.6518392487	-0.316922
C	-1.6996578255	-0.8298937215	 1.9528012948	-0.009171
C	-1.5807146248	-1.8248048446	 0.7784231807	-0.282682
C	-1.3786113129	-0.531963692	-0.0336291235	 0.05979
O	-2.0661708624	 0.2306267894	 1.0123520246	-0.309916
H	-0.6339699623	 1.7641750798	 0.2094953454	 0.289156
H	 0.6505990821	-0.4946321486	-0.8186653736	 0.090514
H	 1.3075294001	-1.1771532102	 1.334126989	 0.134532
H	 1.3878559653	 0.5538353049	 1.6097691772	 0.143784
H	-2.4309492908	-0.9759304087	 2.7485484395	 0.101766
H	-0.7802530161	-2.5670374854	 0.7966453347	 0.115662
H	-2.5350595098	-2.3047612838	 0.5583227852	 0.128243
H	-1.8596523006	-0.4146066674	-1.0070701179	 0.095956
