22
gdb 121803	3.29536	0.71349	0.6737	3.507	83.53	-0.2962	0.0198	0.316	1781.0746	0.191236	-404.37378	-404.362624	-404.36168	-404.410451	39.975	
C	 0.1135643784	 1.5689994161	-0.1044665711	-0.381695
C	 0.0386460553	 0.0410075665	-0.0482873887	-0.171564
C	-1.3979602341	-0.481583387	 0.0738609011	-0.180243
C	-1.4602502942	-2.0110271436	 0.1464484817	-0.212165
C	-2.8921773091	-2.5964931486	 0.066331	 0.185094
C	-3.8042813724	-2.128709649	 1.2065427506	-0.399453
O	-3.5467648914	-2.2132404802	-1.1390094162	-0.437094
C	-2.7826111442	-4.0779010847	 0.1088063829	 0.252738
N	-2.6759938291	-5.2288387361	 0.1140661059	-0.337398
H	 1.1480119201	 1.9139504706	-0.1954497703	 0.115095
H	-0.4457335885	 1.9613905783	-0.9609101073	 0.116546
H	-0.3094056947	 2.0200398183	 0.8000174742	 0.115737
H	 0.5029567665	-0.3833344354	-0.9482688586	 0.096825
H	 0.6328242152	-0.3253511491	 0.7992773781	 0.098677
H	-1.8608353072	-0.044388658	 0.9669385276	 0.101043
H	-1.9916753648	-0.1386498296	-0.7814224024	 0.110342
H	-0.8795649452	-2.4414324268	-0.6808257535	 0.102919
H	-0.9860603217	-2.3724833698	 1.0667201732	 0.116768
H	-3.94931394	-1.049197277	 1.1352787905	 0.13885
H	-4.7785018065	-2.6149296407	 1.1265941662	 0.144842
H	-3.365197264	-2.3707708157	 2.1771717798	 0.132522
H	-3.0296554684	-2.5410139684	-1.8839671237	 0.291613
