15
gdb 45117	2.95607	1.68837	1.15238	5.4795	67.68	-0.2563	-0.0409	0.2154	1008.4915	0.114589	-453.962344	-453.95502	-453.954076	-453.995	27.797	
N	-0.084688298	 1.1831293009	 0.7648087748	-0.458189
C	-0.000223153	 0.1458491787	 0.053309774	 0.283322
O	-1.0876816989	-0.2343598068	-0.6699321734	-0.232133
C	-1.1504742413	-1.5129233421	-1.2404119636	 0.097318
C	-0.5587355158	-1.7638040855	-2.6029552854	-0.327081
C	 0.0831751438	-2.3480116809	-1.3537860836	-0.02457
N	 1.2744426031	-1.7665257556	-0.8250773731	-0.339246
C	 1.3115840478	-0.6303776805	-0.0805775269	 0.333471
O	 2.3242038078	-0.2049924346	 0.440041348	-0.363307
H	 0.834771949	 1.3432298991	 1.1828001994	 0.252768
H	-2.0841894651	-2.0002290995	-0.981437147	 0.125777
H	-1.0862752526	-2.4260031812	-3.2798559095	 0.130037
H	-0.0375143483	-0.9338346894	-3.0666262671	 0.139911
H	-0.0073110481	-3.414737	-1.1722250877	 0.121067
H	 2.1642434597	-2.2208395226	-0.976419679	 0.260856
