18
gdb 50782	4.47505	0.5577	0.51694	2.8869	82.51	-0.2485	-0.029	0.2196	2076.2464	0.145526	-401.898025	-401.888143	-401.887199	-401.936763	33.526	
O	-0.7349947231	 1.3100419935	 0.8069056068	-0.230298
C	 0.0838866506	 2.0479313603	 0.33144754	 0.17024
C	 1.268046294	 1.5707546635	-0.5132867691	-0.412484
C	 1.5472158678	 2.4677079949	-1.6251714714	 0.051493
C	 1.7275244596	 3.2376446438	-2.5332520243	 0.083206
C	 1.977880797	 4.1772321375	-3.6237501282	-0.390717
C	 2.5794816098	 5.4926682986	-3.1514710225	 0.04842
C	 2.2768049222	 6.7469002024	-3.8812185843	-0.248269
N	 1.7342445587	 6.5175369868	-2.5287813613	-0.306217
H	 0.0479368301	 3.1484090653	 0.4839719323	 0.095968
H	 2.1366604097	 1.522291261	 0.16173826	 0.155507
H	 1.0632044145	 0.5464559043	-0.8414090411	 0.153802
H	 2.6526355548	 3.7141635268	-4.3565935339	 0.138613
H	 1.0414975049	 4.3816426772	-4.1613290425	 0.123661
H	 3.5514330866	 5.3886526398	-2.6742188615	 0.103099
H	 3.0201493116	 7.5357901376	-3.9499586169	 0.122655
H	 1.6024581302	 6.6877982201	-4.7324928064	 0.110916
H	 0.7559420911	 6.2431223566	-2.5883376157	 0.230403
