20
gdb 36434	4.15887	0.94205	0.87427	4.2456	82.76	-0.2795	0.0385	0.3181	1363.8363	0.172351	-366.004126	-365.995781	-365.994837	-366.037925	31.603	
N	 0.007302726	-1.1366287427	-0.2686402641	-0.309974
C	-0.0221272951	 0.0085043232	-0.1145456555	 0.261858
C	-0.0284689935	 1.4577237683	 0.0778644894	-0.369065
C	 1.3885827307	 2.0471017461	 0.084099404	 0.039431
C	 2.2286638659	 2.0436356796	-1.2273618891	-0.255605
C	 2.6484094832	 3.5197012401	-0.9558986061	-0.005103
C	 1.8579844268	 4.5737257428	-1.761809592	-0.2187
C	 0.6970755908	 4.4841900298	-0.7248665566	-0.237278
C	 1.5769263944	 3.5814969709	 0.1947078765	-0.055903
H	-0.6325385707	 1.90519807	-0.7193348436	 0.147732
H	-0.5374539463	 1.6816486243	 1.0233003278	 0.149287
H	 1.9571501153	 1.5629647016	 0.8841741782	 0.094273
H	 3.0360250715	 1.3099409157	-1.258123009	 0.114988
H	 1.6321428523	 1.9259661469	-2.1381987717	 0.101888
H	 3.7122465761	 3.6877848903	-0.7859275448	 0.068414
H	 2.3394742944	 5.5552922984	-1.7570452146	 0.103328
H	 1.6216699278	 4.3140184248	-2.7981622479	 0.098094
H	 0.4170417373	 5.4382704328	-0.2734565197	 0.10856
H	-0.2192669301	 4.0185681907	-1.098520377	 0.097409
H	 1.7798328133	 3.9820395865	 1.1892259658	 0.066366
