21
gdb 106003	3.20046	1.57902	1.37774	0.2895	84.75	-0.2317	0.0872	0.3188	1037.111	0.183893	-349.88885	-349.881372	-349.880428	-349.920645	30.882	
C	-0.0795691813	 1.5220109825	-0.1329807342	-0.383713
C	-0.0162803629	-0.0053383008	-0.0071847281	-0.33526
C	 0.7117691216	-0.5108176644	 1.2065963101	 0.407231
C	 0.9319266581	-2.0106863288	 1.5872043807	-0.182418
C	 0.9094070209	-1.5688527989	 3.0315386492	-0.064403
C	 2.2230077331	-1.5767796903	 2.2403810828	-0.064424
C	 2.1945534786	-0.1502306724	 1.6467299712	-0.108049
C	 1.6527171032	 0.7839146138	 2.7560457992	-0.250021
C	 0.4105861652	-0.1395003147	 2.7211129779	-0.108014
H	 0.9222713052	 1.9599891388	-0.1905727397	 0.120567
H	-0.6221612663	 1.8140590989	-1.0372363576	 0.111392
H	-0.5930992276	 1.9725170575	 0.7226862892	 0.120567
H	-1.0375174499	-0.4118534204	 0.0021163572	 0.098723
H	 0.4632767432	-0.4242256334	-0.903189071	 0.098722
H	 0.6442905571	-2.9433216178	 1.1189435457	 0.079898
H	 0.7622485911	-2.1636215121	 3.9234741414	 0.08037
H	 3.0749305852	-2.1775828528	 2.5305811737	 0.080371
H	 2.9784042774	 0.1463600753	 0.9495229493	 0.057664
H	 2.2166456249	 0.8547306478	 3.6917023244	 0.087017
H	 1.4319656248	 1.7867922649	 2.3794846006	 0.096125
H	-0.5696243814	 0.1677141771	 3.0862136979	 0.057655
