22
gdb 116381	2.39741	1.31476	0.89725	3.6075	82.96	-0.235	0.0318	0.2668	1349.4	0.196432	-404.409568	-404.400387	-404.399443	-404.443903	34.642	
C	 0.8630074709	-0.286313499	 1.308217947	-0.396701
C	 0.0225478316	-0.0196480664	 0.0566749453	-0.174861
C	 0.6965683868	-0.4577615034	-1.2545763015	-0.086051
C	 0.8855339221	-1.9781421452	-1.3788024937	-0.211771
C	 1.4035063159	-2.3526079592	-2.7680511292	-0.211383
C	 0.389572991	-1.9358691169	-3.8297849828	-0.14686
N	-0.0313782179	-0.5569541443	-3.6254401982	-0.317578
C	-0.0431634075	 0.1534574617	-2.4557605527	 0.401704
O	-0.5736642155	 1.249975943	-2.3981163124	-0.38426
H	 1.0504993079	-1.3537647211	 1.4652362325	 0.112434
H	 1.8356318154	 0.2155446183	 1.2461665953	 0.112784
H	 0.354766517	 0.0891980061	 2.201733643	 0.11492
H	-0.9471077867	-0.5274209005	 0.1464425774	 0.092109
H	-0.2000672171	 1.0466243842	-0.028620193	 0.12844
H	 1.6951607226	 0.0067263001	-1.2868667326	 0.099106
H	 1.5746387586	-2.3324474443	-0.6061450504	 0.102808
H	-0.0738009269	-2.4828603794	-1.196498797	 0.099063
H	 2.3597924244	-1.8483321216	-2.954565456	 0.107239
H	 1.5841160015	-3.4292547169	-2.8478454877	 0.101545
H	 0.8211581159	-2.0260546559	-4.8330414556	 0.109622
H	-0.4783276051	-2.613025747	-3.7928513341	 0.105476
H	-0.552532955	-0.1053940625	-4.3638730139	 0.242217
