16
gdb 45074	2.53033	1.67326	1.15028	1.716	73.9	-0.2333	-0.0332	0.2001	1048.0343	0.123574	-400.705882	-400.698027	-400.697083	-400.738607	30.01	
O	 0.0083371667	 0.0123202878	-0.341490561	-0.285394
C	-0.0262359581	 1.1667046998	-0.0278318402	 0.368518
C	-1.2739085067	 1.9938710916	 0.3102122952	-0.274961
N	-0.8465599609	 3.2604442186	 0.9048670334	-0.103004
C	-0.0309888907	 3.0806509977	 2.1154900262	-0.246163
C	 0.6347275484	 3.3336166818	 0.8163518477	-0.02718
C	 1.2012412359	 2.1275026001	 0.07859469	-0.320299
C	 2.3707101035	 1.5129614026	 0.6788497054	 0.346097
C	 3.3315833861	 1.0039023005	 1.1894182316	-0.446526
H	-1.8230722743	 2.1910905315	-0.6194331521	 0.141446
H	-1.9398493032	 1.4313254458	 0.9710883767	 0.14462
H	-0.1181359221	 3.8781551495	 2.8464482657	 0.127892
H	 0.0551569408	 2.0819739306	 2.5421097192	 0.126162
H	 1.0520002145	 4.3097330588	 0.5926841476	 0.10886
H	 1.4340520274	 2.4167300957	-0.9575856015	 0.138255
H	 4.1826727527	 0.5510318375	 1.6345756461	 0.201676
