21
gdb 95037	2.5922	1.69119	1.22031	1.2867	82.76	-0.2364	0.0273	0.2638	1088.619	0.185174	-387.114347	-387.106444	-387.1055	-387.147326	31.188	
C	-0.020175612	 1.5675182132	-0.1820877905	-0.417235
C	 0.1733096465	 0.0652558791	-0.0725813528	 0.144882
O	 0.9285051602	-0.3884512459	-1.1924322072	-0.253428
C	 1.2472949446	-1.7403731247	-0.9207658688	-0.093511
C	 1.5854602622	-1.7998764916	 0.5926149606	-0.070218
C	 3.0480557374	-1.6205502301	 0.9051587405	-0.071788
C	 3.3089915658	-0.4696281166	 1.5182913029	-0.05658
C	 2.069716276	 0.3514376787	 1.761657382	-0.272027
C	 0.9118922534	-0.5038294242	 1.1670621204	-0.050319
H	 0.9376663563	 2.085661844	-0.2726176578	 0.129754
H	-0.6125616388	 1.8033473555	-1.0704451782	 0.12415
H	-0.5475670468	 1.9535031808	 0.6956330497	 0.113998
H	-0.8221297623	-0.4158868727	-0.1018206232	 0.056993
H	 0.3868936914	-2.3917750799	-1.1483374822	 0.079746
H	 2.0811808467	-2.0305381721	-1.5659006869	 0.103636
H	 1.1883956341	-2.722206228	 1.0305740194	 0.073048
H	 3.7879282187	-2.3644001251	 0.627521692	 0.089257
H	 4.2949120158	-0.1311282908	 1.8193518249	 0.090233
H	 1.9160941022	 0.5412297556	 2.8316853414	 0.101669
H	 2.1516320483	 1.339447888	 1.2949609009	 0.107025
H	 0.1836586303	-0.7394160731	 1.9462297631	 0.070715
