18
gdb 79898	4.11518	1.4361	1.24687	1.345	71.4	-0.2208	0.0841	0.3049	1024.2063	0.149185	-438.998625	-438.991571	-438.990627	-439.029792	28.405	
C	 0.0114795096	 1.5079344558	-0.2385666073	-0.329592
N	 0.0275988363	 0.0694614396	 0.0257810657	-0.110437
C	-1.0344139241	-0.5179788769	 0.9209485368	-0.10077
C	-0.0725030762	-1.7320010142	 1.0705240866	 0.154387
O	-0.2482331065	-2.5641723746	 2.1860693192	-0.269335
C	 0.0453413985	-1.8791083234	 3.3789098697	 0.016523
O	-0.5297724114	-0.5963140973	 3.4110993081	-0.274357
C	-0.3316949745	 0.070232386	 2.1845248579	 0.128054
C	 0.7984672927	-0.4371937241	 1.2160132507	-0.143385
H	 0.9696915826	 1.7849322762	-0.689779129	 0.125461
H	-0.7710674005	 1.7097593662	-0.9768797039	 0.126785
H	-0.1588861587	 2.1695874455	 0.6228210654	 0.104909
H	-2.0930409174	-0.5196955704	 0.6587725121	 0.083154
H	 0.0903194778	-2.332407448	 0.1763794589	 0.10076
H	-0.3711468756	-2.4550048415	 4.2075247605	 0.122955
H	 1.1402306075	-1.7906462449	 3.4874849768	 0.089104
H	-0.4188867224	 1.1380829576	 2.373289372	 0.09061
H	 1.8827062223	-0.3314263315	 1.2803713298	 0.085172
