17
gdb 7754	3.60964	1.74779	1.2261	3.0307	71.19	-0.217	-0.0037	0.2133	973.64	0.143805	-363.920518	-363.913058	-363.912114	-363.952167	28.565	
C	-0.0273733503	 1.5778288965	-0.0022969088	-0.400668
C	 0.0148310891	 0.0452991483	 0.0310831247	-0.037337
C	 0.6910169989	-0.5219551066	-1.2318084971	-0.318501
C	 0.9813865269	-2.0167136662	-1.1772493582	 0.389003
O	 0.9697382188	-2.7501896733	-2.1437355491	-0.360603
N	 1.333141913	-2.4722485093	 0.0771759211	-0.326835
C	 1.3048589666	-1.6843312663	 1.2331420047	 0.003417
C	 0.7134106438	-0.4892717119	 1.2591732525	-0.106345
H	 0.9850368868	 1.996143814	-0.0235556165	 0.118491
H	-0.5612873844	 1.9376653107	-0.8875642505	 0.117097
H	-0.5362348305	 1.9753373492	 0.8819054212	 0.115538
H	-1.0271907349	-0.3147811258	 0.0485807731	 0.092322
H	 0.1045027845	-0.3318775635	-2.1330373435	 0.127497
H	 1.6635219772	-0.0261282291	-1.3677385103	 0.125868
H	 1.6201806076	-3.4378461408	 0.1258414587	 0.25388
H	 1.7904926268	-2.1267046368	 2.0951314284	 0.11529
H	 0.7093182303	 0.089551701	 2.1752740196	 0.091885
