16
gdb 18237	4.8119	1.63589	1.34147	3.2542	68.41	-0.237	0.0205	0.2575	927.3358	0.132002	-379.904123	-379.896913	-379.895969	-379.935859	26.516	
C	 0.1154289152	 1.406065594	 0.0926386502	-0.329392
N	 0.2017990713	-0.045496136	 0.0775610765	-0.342914
C	 0.5213675379	-0.6304696306	-0.9901886223	 0.510364
O	 0.8321643631	-0.0132306463	-2.1797098932	-0.262518
C	 0.8464958136	-0.9537471565	-3.2678896753	-0.08248
C	 0.8002492185	-2.3281682237	-2.6319241485	-0.059795
N	 1.9242486961	-2.5271650894	-1.7066214815	-0.329926
C	 0.5956829363	-2.1038495946	-1.1815425818	-0.168771
H	 1.0322861293	 1.8248357396	 0.5259338437	 0.128019
H	-0.0239705445	 1.8525010533	-0.8990154078	 0.119851
H	-0.7121830604	 1.7056387412	 0.7431614144	 0.118607
H	-0.029702303	-0.7793362086	-3.9039393744	 0.112384
H	 1.7574917407	-0.783096792	-3.848613404	 0.126622
H	 0.3647214761	-3.1635458692	-3.1678435485	 0.105292
H	 2.0323386462	-3.5224235168	-1.521379193	 0.239593
H	 0.031095634	-2.7547103045	-0.5278787044	 0.115065
