17
gdb 115471	3.54576	1.00424	0.83793	2.3864	72.77	-0.2361	-0.0766	0.1595	1336.9133	0.136735	-455.160264	-455.151644	-455.1507	-455.194134	31.136	
O	 0.4587392174	 1.1752156921	 0.094537936	-0.4217
C	 0.1605485749	-0.1942815174	-0.0424376658	-0.05022
C	-1.3560115932	-0.4389802956	-0.0407818663	 0.004679
C	-1.742999992	-1.9504217543	-0.0727650428	-0.210075
N	-2.1658330987	-2.1627987723	 1.3138775856	-0.335152
C	-2.3250024944	-0.9291243589	 1.8853540991	 0.276598
C	-2.9624491687	-0.8011399238	 3.222987381	 0.115157
O	-3.4369541071	-1.7432370088	 3.8100026742	-0.258973
N	-1.9051379255	 0.0923951487	 1.2272913222	-0.316172
H	-0.081263889	 1.4907218352	 0.8303918207	 0.293903
H	 0.5898413825	-0.5264921804	-0.994498224	 0.106735
H	 0.6176827445	-0.7987532382	 0.7599101803	 0.089045
H	-1.7885578305	 0.1197727323	-0.8765444863	 0.098592
H	-2.5565013143	-2.1528074477	-0.7803472367	 0.114966
H	-0.8957015488	-2.5937968702	-0.3340151835	 0.118939
H	-2.7657930198	-2.9225573765	 1.5947026878	 0.26174
H	-2.9790395473	 0.2327457359	 3.6158949387	 0.111938
