22
gdb 60352	3.26582	0.70978	0.68302	4.4856	84.22	-0.2764	0.02	0.2964	1779.8069	0.191082	-404.363629	-404.352518	-404.351574	-404.400969	39.143	
C	-0.1361958386	 1.5319591534	 0.0252006432	-0.382385
C	 0.0164664997	 0.0059720837	 0.0282089732	 0.017993
C	 0.7164694109	-0.4965800301	-1.2406338213	-0.395241
C	 0.7728389246	-0.4749518879	 1.2651532831	-0.051763
O	 0.0315911548	-0.1112405789	 2.4225652764	-0.255615
C	 0.6104669108	-0.5270056907	 3.6431105462	-0.005251
C	 1.6650525424	 0.4587673277	 4.1672875416	-0.397465
C	-0.4856920093	-0.6782269753	 4.6181164335	 0.278889
N	-1.3204600718	-0.8000415998	 5.4066436796	-0.316233
H	 0.8431788877	 2.0214672161	-0.0448878886	 0.106755
H	-0.73365942	 1.8617479814	-0.8303988542	 0.112799
H	-0.623315259	 1.8776391929	 0.9396505351	 0.133284
H	-0.9845734247	-0.4419556022	 0.0773539503	 0.091034
H	 1.7321346238	-0.0906784498	-1.3189690926	 0.114467
H	 0.7894099049	-1.5892056038	-1.2584888689	 0.11384
H	 0.1679727252	-0.1837003216	-2.1340500261	 0.120102
H	 0.8999396812	-1.5694001224	 1.2364922157	 0.092208
H	 1.7788838781	-0.0249208132	 1.2864354292	 0.089907
H	 1.0694825947	-1.5217350639	 3.5225244855	 0.115298
H	 2.0650886832	 0.1188965646	 5.1264243005	 0.139305
H	 2.4909485359	 0.534624699	 3.4559104937	 0.130045
H	 1.2183576655	 1.4467183206	 4.2993346949	 0.148027
