16
gdb 52048	2.50232	1.16248	0.96705	3.8294	73.29	-0.2611	0.0118	0.273	1256.05	0.121398	-437.812687	-437.80349	-437.802546	-437.847621	32.656	
N	-0.2077855799	 0.9749331273	 0.4408147759	-0.43901
C	-0.4234612939	-0.2665891729	 0.4207033837	 0.131419
O	-0.7082239025	-0.872869485	-0.7579659242	-0.177077
C	-0.981738639	-2.2643516239	-0.7043085183	-0.171802
C	-2.3831272839	-2.5672222455	-0.2018994123	 0.169179
C	-2.6061587502	-3.8072304593	 0.5714280574	-0.207943
O	-2.5110740808	-2.5534400956	 1.2367095778	-0.255757
C	-3.4712022259	-1.9722806552	-0.9371058311	 0.321507
C	-4.3602690346	-1.4780206861	-1.5756750178	-0.420202
H	 0.0038870872	 1.2725441063	 1.3909994013	 0.23057
H	-0.4075869175	-0.9546798567	 1.2740458155	 0.107049
H	-0.8671700117	-2.626080955	-1.7292736364	 0.134618
H	-0.2584930024	-2.7831666873	-0.0625532289	 0.114568
H	-3.5951373119	-4.2595993162	 0.5581654677	 0.134383
H	-1.7744113323	-4.4929702337	 0.7308946955	 0.120805
H	-5.1463021604	-1.0297033911	-2.1322935358	 0.207694
