21
gdb 76698	3.10198	0.79557	0.74388	4.4179	84.24	-0.2324	0.0365	0.2689	1609.2389	0.181091	-383.261169	-383.250858	-383.249913	-383.297342	36.709	
C	 0.0701547489	 1.3219352266	 0.6371802325	-0.415783
C	 0.3321742068	-0.1483633548	 0.3895996529	-0.005457
C	 0.4549982135	-0.7492371939	-0.9755872798	-0.005464
C	 0.3084276435	 0.0479660869	-2.2541153654	-0.420994
N	 1.6232040287	-0.6624906275	-0.0828453165	-0.112826
C	 2.716191599	 0.250759329	-0.3697714525	-0.137887
C	 3.8779593125	-0.5635542218	-0.9758138043	-0.331488
C	 5.0455166398	 0.2645188977	-1.2641194992	 0.250535
N	 5.9575701906	 0.9391860971	-1.4845693618	-0.306667
H	 0.5164858357	 1.6367876432	 1.5868285443	 0.128597
H	 0.4638798019	 1.9729945306	-0.1455028892	 0.122477
H	-1.0079819152	 1.5005150111	 0.7083046197	 0.126432
H	-0.1002652669	-0.7837804758	 1.1630693099	 0.090891
H	 0.1082387262	-1.7767131183	-1.0859546791	 0.091036
H	 0.548093235	 1.1069645068	-2.1443569232	 0.12641
H	 0.9462241024	-0.3601046246	-3.0465424672	 0.125266
H	-0.7268539193	-0.0175207929	-2.6048629978	 0.12936
H	 2.4709479436	 1.0763533438	-1.0512861924	 0.106823
H	 3.0498721434	 0.7006871745	 0.5711560482	 0.124992
H	 4.1572666439	-1.3641395915	-0.2838723647	 0.1614
H	 3.5482845959	-1.0461224163	-1.9024626346	 0.152347
