22
gdb 86392	2.46002	1.53924	1.15181	2.7069	82.55	-0.233	0.0731	0.3061	1180.0247	0.193736	-404.347324	-404.338058	-404.337114	-404.380674	35.88	
C	 0.2159265066	 1.5702292003	-0.0780952006	-0.402181
C	 0.0529294867	 0.063224227	 0.0473630005	 0.148104
O	 0.6424065192	-0.553705319	-1.0991167315	-0.29063
C	 1.1717389797	-1.8368050207	-0.766486196	 0.112178
C	 2.3790764444	-2.1034785802	-1.6521703558	-0.407521
C	 1.4533504878	-1.7831531489	 0.7344449707	 0.312601
C	 1.6296533916	-3.0603994215	 1.51061244	-0.501449
N	 2.2287350393	-0.5686005147	 1.0785325704	-0.36763
C	 0.7551872083	-0.5792766551	 1.2305264986	-0.133698
H	 1.2769692705	 1.8290361581	-0.0491216892	 0.138582
H	-0.2075546452	 1.9198842008	-1.0236200705	 0.122055
H	-0.3008998956	 2.0824741424	 0.740152426	 0.104516
H	-1.0190966674	-0.1959452502	 0.1058150044	 0.060602
H	 0.4044620258	-2.6141259415	-0.9339910003	 0.057392
H	 3.167544643	-1.3817976178	-1.4258790318	 0.138677
H	 2.7619832114	-3.1167226863	-1.490989735	 0.105123
H	 2.1035245657	-2.0072414875	-2.7057654638	 0.122598
H	 2.5477737323	-3.5815483937	 1.2156121597	 0.129622
H	 1.6887810927	-2.8629133151	 2.5860050742	 0.115736
H	 0.791197401	-3.7447121158	 1.3403377193	 0.126521
H	 2.6542342575	-0.7005375983	 1.9941276953	 0.224195
H	 0.3119409947	-0.5275666326	 2.2201219455	 0.084606
