19
gdb 95893	3.04599	1.12665	0.86458	3.7459	81.42	-0.2495	-0.057	0.1925	1335.4631	0.159161	-423.051411	-423.04274	-423.041796	-423.084887	32.222	
C	-0.0588347746	 1.5530416666	-0.0046236125	-0.404965
C	 0.0178215399	 0.0193840475	 0.0011718873	-0.044296
C	 0.7335365086	-0.5208104877	-1.2474676194	-0.089371
O	 0.981012418	-1.909170401	-1.1463360944	-0.247304
C	 1.9048748524	-2.2247249337	-0.1223909518	-0.167521
C	 1.5962824674	-1.516472983	 1.1730491361	 0.16297
C	 2.2911013686	-1.9548171632	 2.3915916797	 0.097836
O	 3.1116473745	-2.8452556884	 2.4246003428	-0.277516
C	 0.7156408497	-0.5077598387	 1.2233588488	-0.124622
H	 0.9418826592	 1.9980888655	 0.0039387429	 0.125192
H	-0.5813646981	 1.9132649736	-0.8964934375	 0.123689
H	-0.5987652205	 1.9236024911	 0.8722834487	 0.122311
H	-1.0096897311	-0.3748023789	 0.0030443609	 0.105225
H	 0.1191815694	-0.379350265	-2.1411883027	 0.11164
H	 1.6773329939	 0.0324324928	-1.3935322394	 0.089499
H	 1.8612214727	-3.3078366497	 0.023824541	 0.137103
H	 2.9362676297	-1.9891739284	-0.4365286652	 0.112034
H	 2.0052708364	-1.3959039203	 3.3116373079	 0.068998
H	 0.499710414	-0.0321609589	 2.1801626269	 0.0991
