20
gdb 70314	3.08347	1.54598	1.29355	1.74	78.11	-0.2188	0.0891	0.3079	1052.948	0.172258	-403.119368	-403.111564	-403.11062	-403.151131	31.449	
C	 0.3743035751	 1.2989748668	-0.3656984958	-0.463698
C	-0.1737663405	-0.0259764846	 0.110779363	 0.384235
C	-1.6812105059	-0.1793801292	 0.0285074677	-0.297096
C	-2.2577923443	-1.4135698985	 0.707411013	-0.015671
C	-1.7754146927	-2.7918238517	 0.4034150481	-0.251363
N	-1.5103923247	-2.1773283412	 1.7087829174	-0.105082
C	-0.1430484868	-1.7819479343	 2.0364338377	-0.195223
C	 0.5636602959	-0.8314448902	 1.093162953	-0.000979
O	 0.5963767681	-1.1736395054	-0.3018871908	-0.292972
H	 1.465707364	 1.3030030088	-0.3106319916	 0.128781
H	 0.0836086968	 1.4841172618	-1.4058926413	 0.125607
H	-0.0112793239	 2.1244062554	 0.2421525875	 0.121549
H	-2.1244980353	 0.7126563115	 0.490054736	 0.108078
H	-1.9896169584	-0.1585183251	-1.0254632205	 0.115003
H	-3.3107525106	-1.2998359324	 0.9620910262	 0.087228
H	-2.473967755	-3.6254722012	 0.4281122276	 0.103706
H	-0.9537472291	-2.8866429154	-0.2975837628	 0.138295
H	-0.1631345396	-1.2991151778	 3.0238789764	 0.109043
H	 0.45484979	-2.6947858235	 2.1494387969	 0.117085
H	 1.509080357	-0.4395533336	 1.4755437224	 0.083474
