15
gdb 31355	3.02955	1.34548	0.94245	5.8094	68.69	-0.264	-0.0511	0.2129	1189.4061	0.11267	-454.003271	-453.995181	-453.994237	-454.037218	28.523	
C	-0.0963851312	 1.5072511068	 0.1697443809	-0.376179
C	 0.0160601192	-0.0019693136	-0.0317575356	-0.291122
C	 0.7358734492	-0.3940042085	-1.2854996088	 0.428508
N	 1.2206719412	 0.4230496994	-2.1290395364	-0.336331
C	 1.8824128655	-0.0784936315	-3.280606484	 0.399003
O	 2.3570954382	 0.6596351268	-4.0984946748	-0.309249
N	 1.9639740484	-1.4945405813	-3.4325918133	-0.286714
C	 1.4435887753	-2.2090827548	-2.5270031599	 0.127822
O	 0.8067312506	-1.7633743795	-1.4111831143	-0.203358
H	 0.8911560922	 1.9711536408	 0.2194491296	 0.143608
H	-0.6357169637	 1.9744722329	-0.6571398684	 0.143629
H	-0.6298953988	 1.7195696126	 1.0997539147	 0.119156
H	 0.5379288461	-0.4801389879	 0.8075096215	 0.14107
H	-0.9734948354	-0.4766363015	-0.0613045459	 0.141093
H	 1.4558790333	-3.2958291507	-2.5538526753	 0.159065
