16
gdb 49598	3.07628	1.49948	1.21291	4.3845	68.18	-0.2382	-0.0206	0.2175	1013.2724	0.12485	-437.841228	-437.834022	-437.833078	-437.873436	27.548	
O	-0.1278469574	 0.041111415	 0.0448039176	-0.255589
C	-0.0106135968	 1.2401722262	 0.020284719	 0.157563
C	 1.3267956167	 1.9613789965	-0.0031285998	-0.114546
C	 1.4879721267	 2.874379998	-1.2309708789	-0.079231
N	 0.4706705176	 3.9319741541	-1.3642779815	-0.311641
C	 1.7840504593	 4.2640631631	-0.7804481506	-0.079645
C	 1.7921386669	 4.264029597	 0.7341584087	 0.047922
O	 0.5412406379	 3.9280348177	 1.3345898372	-0.228401
C	 1.5167395443	 2.8927287764	 1.203784876	-0.003731
H	-0.8863290433	 1.9182378872	 0.0071779594	 0.117001
H	 2.1172822044	 1.2045296475	 0.0000596177	 0.097057
H	 1.92222468	 2.4487615604	-2.1297142115	 0.103844
H	 0.4429453572	 4.2458529579	-2.3317947829	 0.23849
H	 2.465843879	 4.9156538786	-1.3148906647	 0.096422
H	 2.4077641476	 4.9726979883	 1.2803898197	 0.103972
H	 1.8872098	 2.479847156	 2.1391767845	 0.110512
