21
gdb 72091	2.78374	1.68696	1.52666	1.41	80.39	-0.2167	0.0824	0.2991	1001.0401	0.185753	-387.105948	-387.098484	-387.09754	-387.137436	30.689	
C	-0.0468181966	 1.5305928667	 0.0842417495	-0.49348
C	-0.0303540962	 0.0245770443	 0.0338049173	 0.289636
C	 0.0158348576	-0.6929945586	-1.3106986804	-0.285956
C	-0.3793782416	-2.1292218078	-0.9088252728	 0.066131
C	 0.8163612422	-2.8687633458	-0.2996160349	-0.204951
C	 1.4278715165	-2.0196940827	 0.85008635	-0.231143
C	 0.5622635758	-0.8079146021	 1.1704233737	-0.123645
C	-0.9183927487	-0.8578439789	 0.8753820626	 0.064504
O	-1.3682584955	-1.9583996598	 0.1205442201	-0.269142
H	 0.8995965185	 1.9572424176	-0.2695474761	 0.115463
H	-0.8490086608	 1.9389722515	-0.5423677722	 0.115845
H	-0.2061783544	 1.891951707	 1.1056060429	 0.114058
H	-0.7185222441	-0.2520906928	-1.9943833006	 0.099182
H	 0.9961463188	-0.6638363455	-1.7984904227	 0.096345
H	-0.8426655811	-2.7037183744	-1.7140709589	 0.075943
H	 0.4619291727	-3.8322748319	 0.0776737	 0.105772
H	 1.5610338818	-3.0786621535	-1.0751178259	 0.092612
H	 1.5436663603	-2.6327488769	 1.750063216	 0.104833
H	 2.4356390842	-1.6800068858	 0.5841074244	 0.099676
H	 0.8525443512	-0.2449038146	 2.0537029882	 0.075773
H	-1.6665970606	-0.4941954157	 1.5700434899	 0.092546
