21
gdb 95890	2.89443	1.10396	0.84207	3.5503	88.4	-0.2453	-0.0481	0.1972	1397.2815	0.183297	-387.137417	-387.128575	-387.127631	-387.170977	33.683	
C	-0.0346451572	 1.5667076049	 0.0114170763	-0.401373
C	 0.0232009659	 0.0303229734	 0.001632193	-0.019953
C	 0.6548897735	-0.5174888967	-1.2909774288	-0.200597
C	 0.9780093966	-2.0119826406	-1.1742395268	-0.226585
C	 1.982838583	-2.2699389304	-0.0435875856	-0.292284
C	 1.6177789329	-1.5097871561	 1.2067123363	 0.19892
C	 2.2522261553	-1.902077727	 2.4772154651	 0.092847
O	 3.0535843089	-2.8022139985	 2.5958764118	-0.278421
C	 0.7361266341	-0.4979869685	 1.2166809579	-0.110788
H	 0.9723972743	 1.9962234261	-0.0212651622	 0.122361
H	-0.5878207852	 1.9377589904	-0.8570911287	 0.118424
H	-0.5310863243	 1.9416492956	 0.9124742217	 0.115571
H	-1.0162733781	-0.3333196205	 0.0579578765	 0.094164
H	-0.0156154555	-0.3282114489	-2.1363783456	 0.095068
H	 1.5805834454	 0.0380691262	-1.4949998942	 0.098443
H	 0.0526286729	-2.5672284127	-0.9725467615	 0.10001
H	 1.3714701812	-2.3937841898	-2.1219234079	 0.097891
H	 2.0537076285	-3.3360022779	 0.1956142135	 0.124254
H	 2.9948473301	-1.9784432301	-0.3568846921	 0.117618
H	 1.9350496028	-1.2948139629	 3.3560255626	 0.061947
H	 0.5109792147	-0.0118436161	 2.1667816986	 0.092483
