20
gdb 63731	2.69734	1.28358	1.17021	3.9606	80.95	-0.2288	-0.0254	0.2034	1182.9543	0.169246	-403.135299	-403.125898	-403.124953	-403.169465	35.102	
C	-0.5352099882	 1.5412526645	 0.150727022	-0.439181
C	 0.0014950882	 0.1201675737	-0.0262121673	 0.198644
C	-1.1033223215	-0.929083564	 0.1301076892	-0.435852
C	 0.9352163521	-0.1015001773	-1.2736238499	-0.399712
C	 2.0824603054	-0.5104244929	-0.3325840798	 0.23762
C	 3.0364830617	-1.64850951	-0.4714529731	-0.287675
N	 3.5243089919	-0.2684717703	-0.4458477113	-0.349952
C	 1.230001654	-0.1837939332	 0.8730467373	 0.338001
O	 1.4084468098	-0.1705926336	 2.057189081	-0.313652
H	 0.2576956852	 2.2880831381	 0.0413095842	 0.119784
H	-1.3103088272	 1.757625288	-0.5928785871	 0.116356
H	-0.9723566675	 1.6623348733	 1.1467360838	 0.134285
H	-1.8960334666	-0.7674884206	-0.6088781557	 0.117595
H	-0.7174292362	-1.9447911615	-0.0052875055	 0.117477
H	-1.5485682559	-0.8698852181	 1.1281231939	 0.133759
H	 0.6005656266	-0.8715957909	-1.9726154707	 0.107795
H	 1.134255604	 0.8206910442	-1.8273423182	 0.107988
H	 3.2867676631	-2.2366641412	 0.4070358517	 0.139296
H	 3.0235152514	-2.1940377002	-1.4121275195	 0.119861
H	 3.7326212997	 0.0467662722	-1.391491225	 0.237563
