21
gdb 76230	2.46227	1.41937	1.13446	0.7323	80.36	-0.2383	0.0217	0.26	1187.5018	0.181059	-424.249691	-424.239954	-424.23901	-424.284042	37.113	
C	-0.2412588138	 1.5129861965	 0.1088035727	-0.489245
C	-0.0655167732	 0.0311315841	 0.0052539419	 0.284815
C	-0.033546438	-0.7218476035	-1.0951508527	-0.174918
C	 0.1403597581	-2.1905490223	-0.813382524	-0.283263
C	 0.4196198242	-2.2623310202	 0.7081649434	 0.357784
C	-0.3682304084	-3.3530551273	 1.4299794176	-0.455231
O	 1.823857983	-2.4980931418	 0.8448574312	-0.472134
C	 0.0917202591	-0.818153123	 1.2492120156	-0.004142
O	 1.0853823259	-0.3391988052	 2.1486976075	-0.439971
H	 0.5688791179	 1.9599616748	 0.6954245819	 0.131607
H	-0.2650139641	 1.9883309603	-0.8754007374	 0.11953
H	-1.173407017	 1.7636460902	 0.6320508673	 0.124826
H	-0.1462079013	-0.3382747793	-2.1047469927	 0.087402
H	-0.7588319573	-2.7605674991	-1.0806794218	 0.102245
H	 0.9729375355	-2.6387080514	-1.3665271573	 0.119686
H	-0.0983744345	-4.3412048971	 1.04537764	 0.122352
H	-0.158364969	-3.3328464103	 2.5064265729	 0.113986
H	-1.4461870095	-3.2113206642	 1.2997987857	 0.116656
H	 2.0099794319	-2.4945333099	 1.7917044851	 0.276769
H	-0.8315194534	-0.8253108102	 1.842866547	 0.083297
H	 1.9131182539	-0.357588861	 1.6509776262	 0.277947
