15
gdb 12683	2.79084	2.36827	1.54167	2.6761	56.96	-0.259	0.0159	0.275	816.9323	0.120634	-436.976757	-436.969625	-436.96868	-437.007976	27.261	
O	-0.0206298076	 1.4297873739	 0.2166982942	-0.443314
C	 0.0606536153	 0.0309221085	 0.069776614	 0.106082
C	 0.5966438016	-0.5781888648	 1.3857899927	-0.182229
N	-0.613538924	-0.7998748535	 2.1734987431	-0.313545
C	-1.7590193955	-0.6702472138	 1.4619082043	 0.396541
O	-2.9058689795	-0.6101876202	 1.859883029	-0.399328
C	-1.3581046047	-0.5612248827	-0.014704128	-0.002021
O	-2.2555033811	 0.2724798357	-0.7054630858	-0.444085
H	-0.8282246074	 1.6909094359	-0.2505643144	 0.293951
H	 0.693937817	-0.2445922715	-0.7835928177	 0.078102
H	 1.1385394481	-1.5147738751	 1.2045435591	 0.111796
H	 1.2694180908	 0.1298590097	 1.876083492	 0.136229
H	-0.6239183657	-0.8305685212	 3.1805474426	 0.260329
H	-1.3306797533	-1.5692095711	-0.4566554147	 0.099815
H	-3.057811364	 0.2862941802	-0.1580827606	 0.301677
