13
gdb 5008	3.42423	2.445	1.42685	1.5523	65.5	-0.1993	-0.0292	0.1701	798.7629	0.098594	-394.853556	-394.84695	-394.846006	-394.884043	25.439	
N	 0.0165028487	 1.32634465	 0.0898085091	-0.541424
C	-0.0434080028	-0.0250413998	 0.0326261076	 0.29776
N	-1.179369778	-0.667885634	 0.0197877343	-0.343306
C	-1.1393896361	-2.0384105888	-0.0010745145	-0.054183
C	 0.0159604403	-2.7424131596	-0.0166187969	-0.03854
N	 1.2094715353	-2.0449024814	-0.0160218155	-0.343207
C	 1.2930504042	-0.6746447708	 0.0027835623	 0.387811
O	 2.3501894574	-0.0562896523	-0.0124454129	-0.409684
H	 0.9209268496	 1.7470616925	-0.0490754934	 0.277084
H	-0.8240490025	 1.8604548512	-0.0450198723	 0.264074
H	-2.094731825	-2.5491726101	-0.0047695047	 0.111086
H	 0.0796727517	-3.8211840167	-0.0318372048	 0.127269
H	 2.0939701572	-2.5328617002	-0.0386950882	 0.265259
