16
gdb 74236	2.66022	1.39026	0.99349	4.284	78.53	-0.2366	-0.0052	0.2314	1186.8233	0.12345	-396.922287	-396.913455	-396.91251	-396.956017	32.47	
C	-0.051162689	 1.4942097454	 0.0320273066	-0.492846
C	 0.0067330623	 0.0038589175	-0.0245560703	 0.373318
N	 0.0255045406	-0.6894063542	-1.0987465964	-0.280761
C	 0.0814849551	-2.1094936323	-0.6810018183	-0.231455
C	 1.2339924629	-2.8015911102	-1.2442061805	 0.380319
C	 2.1854307333	-3.3689117825	-1.706530346	-0.473573
C	 0.084502112	-2.0958527601	 0.8640892118	 0.378252
N	 0.1047993584	-3.1133080194	 1.6169394507	-0.534209
N	 0.0353603673	-0.7367624154	 1.1583952568	-0.376423
H	 0.8193321269	 1.897218337	 0.5615495592	 0.142099
H	-0.0669889496	 1.8901296899	-0.9830195902	 0.165282
H	-0.9477092019	 1.8306757572	 0.5642833951	 0.141069
H	-0.8360264156	-2.6091255754	-1.0195185809	 0.144233
H	 3.0239907771	-3.8765106659	-2.1145914218	 0.19938
H	 0.0885810967	-2.8613754251	 2.6064685417	 0.20913
H	 0.0510151336	-0.3519318065	 2.0880766324	 0.256183
