18
gdb 113613	3.57811	0.66641	0.59374	4.3301	87.63	-0.2622	-0.0612	0.2011	1854.6412	0.145745	-401.902614	-401.892745	-401.891801	-401.939028	33.926	
C	 0.2798975237	 1.5539787963	 0.0987466927	-0.380028
C	-0.254681877	 0.1506613774	-0.2080732964	-0.19063
C	 0.5079596554	-0.5069385667	-1.3333797099	 0.017751
N	 1.787060987	-1.1256032304	-0.9960640923	-0.313758
C	 0.6742148239	-1.9985542334	-1.4544643196	-0.284931
C	 0.1124953315	-2.910213536	-0.5049858924	 0.187746
C	-0.3927240554	-3.6990265976	 0.2600000686	 0.036161
C	-0.9658076342	-4.6136650742	 1.2096908856	 0.018447
O	-1.6185670384	-5.5904921363	 0.9176536497	-0.233196
H	 1.3351703827	 1.5091520731	 0.3846979949	 0.132184
H	 0.1935528681	 2.2141786257	-0.771583925	 0.112621
H	-0.2759104803	 2.0140152121	 0.9207646486	 0.118659
H	-0.1827621747	-0.481364609	 0.6820650517	 0.117813
H	-1.3159477945	 0.2001098305	-0.4814482621	 0.105407
H	 0.4432961565	 0.0089170214	-2.2921260293	 0.094617
H	 2.4580852022	-1.0221442153	-1.7530874736	 0.241581
H	 0.729678702	-2.3856239605	-2.4695233106	 0.120557
H	-0.7599498086	-4.3511008471	 2.2676333993	 0.098998
