18
gdb 71756	3.52057	1.87486	1.59379	0.703	73.55	-0.2274	0.0658	0.2932	886.7344	0.149807	-401.876449	-401.870059	-401.869115	-401.906806	27.029	
C	-0.0096496747	 1.5106612854	-0.1225337332	-0.521044
C	-0.0531141773	 0.01863441	-0.0143018413	 0.458203
O	 0.216724159	-0.7202072875	-1.2208424018	-0.331301
C	-0.3612106667	-1.8577587635	-0.5332782178	 0.07767
C	 0.6321511724	-2.2336207926	 0.5833503933	-0.078657
C	-0.277434917	-2.5781212661	 1.7824218841	-0.184876
N	-0.7086253699	-1.1349650836	 1.7824617816	-0.155818
C	 0.6390551107	-0.7733006713	 1.1508966118	-0.072811
C	-1.2254723862	-0.9104860751	 0.3903892233	-0.117589
H	 0.9995699098	 1.8453121525	-0.3858651692	 0.131453
H	-0.7007638779	 1.8649469219	-0.8926244902	 0.131154
H	-0.2850770765	 1.9665736005	 0.8329779924	 0.13691
H	-0.7546271229	-2.62460886	-1.1979547953	 0.083637
H	 1.5236397757	-2.7944142094	 0.3040370505	 0.074235
H	-1.0813589551	-3.309449623	 1.6413603486	 0.101942
H	 0.265666656	-2.8031610341	 2.704275179	 0.112192
H	 1.4385126546	-0.4012770166	 1.789899612	 0.076564
H	-2.2895410241	-0.7510250976	 0.2260773321	 0.078136
