18
gdb 70494	2.76463	1.50579	1.13252	0.9876	86.85	-0.2192	-0.0255	0.1937	1110.078	0.146787	-364.770211	-364.761846	-364.760902	-364.802725	32.672	
C	 0.0654812309	 1.5211197673	 0.0223482715	-0.483476
C	-0.011775539	 0.0164344509	-0.0180636625	 0.209566
C	-0.8804467691	-0.7764063648	 0.8990591306	-0.275681
N	 0.5776300747	-0.7778207538	 1.0858458128	-0.138117
C	 1.2690516858	-1.9330810547	 0.4763209157	-0.206715
C	 1.030450962	-1.8239140897	-1.0089485338	-0.212419
C	 0.3291106358	-0.7159017097	-1.2952138474	 0.18178
C	-0.0704968416	-0.2537709571	-2.5705731021	 0.21564
C	-0.4285578966	 0.1794510619	-3.6366990291	-0.432651
H	 1.0603363977	 1.8703787193	-0.2731565515	 0.124165
H	-0.6645802258	 1.962027055	-0.6639461917	 0.128818
H	-0.1399486585	 1.8857600383	 1.0315792128	 0.126919
H	-1.4299755846	-0.2781352108	 1.6940680436	 0.113306
H	-1.3580542869	-1.6679848916	 0.4977498057	 0.110069
H	 2.3395254817	-1.8857968425	 0.7199621142	 0.119771
H	 0.8930209782	-2.8738556108	 0.8997064958	 0.11806
H	 1.3694708035	-2.5555671835	-1.7320111105	 0.107252
H	-0.7374397381	 0.5489997862	-4.582981624	 0.193712
