16
gdb 31166	2.19896	1.62648	0.96222	1.5005	68.31	-0.1797	0.0346	0.2143	1157.8251	0.123856	-475.033073	-475.023992	-475.023047	-475.066827	33.362	
N	-0.077547514	 1.3072014755	-0.3825317409	-0.59941
C	-0.1226811863	-0.0565890918	-0.1665982907	 0.329098
C	-1.1742691806	-0.933430458	-0.0905717825	-0.02526
C	-2.6270768803	-0.5761453592	-0.0858315382	-0.194702
O	-2.9278375938	 0.5269703084	-0.942880293	-0.412271
C	-0.5560213789	-2.2343920563	 0.0096609703	 0.227049
O	-1.1823675008	-3.4395391386	 0.099087987	-0.442468
C	 0.7876859793	-2.0530895146	 0.0051304117	-0.144817
O	 1.0576683529	-0.6982764759	-0.118291158	-0.176692
H	 0.6294349411	 1.7917162474	 0.1543543075	 0.25473
H	-0.9933221379	 1.7305743189	-0.313146018	 0.263232
H	-3.2381210235	-1.4560130578	-0.3555295397	 0.079579
H	-2.9744643119	-0.2532594729	 0.9039930745	 0.12283
H	-2.5705753926	 0.3129413304	-1.8126075708	 0.288505
H	-2.1319951889	-3.2960601962	 0.1440744016	 0.296971
H	 1.6358949461	-2.708141519	 0.0740582292	 0.133626
