22
gdb 123070	6.75151	0.44329	0.43896	2.5898	85.73	-0.2453	0.0207	0.2659	2558.0924	0.190925	-441.467664	-441.456152	-441.455208	-441.507083	38.176	
C	-0.5010662076	 1.1412928689	 0.1021791969	-0.384276
C	-0.6712108193	-0.2879495749	-0.4125987022	-0.038916
O	 0.1278413727	-0.5884597201	-1.5413850752	-0.244131
C	 1.4959173024	-0.7916870119	-1.2609401449	-0.048567
C	 2.166608433	-1.2615740671	-2.5507073086	-0.170536
N	 3.5939181953	-1.4015592022	-2.344921146	-0.215839
C	 4.1053387081	-2.5258212682	-2.5820176067	 0.131721
O	 5.4255887956	-2.7317630842	-2.4119830906	-0.191873
C	 5.8846071688	-4.0451442548	-2.7072376168	-0.249172
H	 0.5057406864	 1.3192364188	 0.491300119	 0.123324
H	-0.6910271101	 1.8601889661	-0.7004419176	 0.125408
H	-1.2101540495	 1.3343663485	 0.9141213495	 0.113165
H	-0.4689742301	-1.0092001947	 0.3967765586	 0.083982
H	-1.7055629747	-0.4433200115	-0.7379385664	 0.103748
H	 1.9900166434	 0.1266144786	-0.9124788985	 0.103461
H	 1.6225654599	-1.5528323191	-0.4723289604	 0.080974
H	 1.6793270121	-2.1902375709	-2.8921193717	 0.086803
H	 1.9892504232	-0.4987140346	-3.3186502868	 0.115732
H	 3.5476180678	-3.4064920667	-2.9400802683	 0.073164
H	 5.4214961119	-4.7906989482	-2.0492930184	 0.127159
H	 5.6886863793	-4.3145368258	-3.752278948	 0.127714
H	 6.9617163814	-4.0395901961	-2.5367442068	 0.146954
