18
gdb 95658	2.30153	1.54094	1.15708	1.2053	68.36	-0.2195	-0.0315	0.188	1091.8671	0.148748	-476.227995	-476.21942	-476.218476	-476.261108	32.753	
O	 0.0333287083	 1.4410619825	-0.0101367913	-0.434538
C	 0.0542027264	 0.0302225129	-0.0030596384	 0.110384
C	 0.8421056873	-0.5452087302	 1.192339385	-0.194826
N	 0.8189183246	-2.0067131601	 1.2538694604	-0.292686
C	-0.5431811742	-2.5529731952	 1.3220095662	-0.253985
C	-1.3808512569	-2.0589283453	 0.1470001354	 0.356534
O	-1.9567681932	-2.7838261874	-0.6316841468	-0.313127
C	-1.3788031009	-0.5320088859	-0.0100481071	-0.021309
O	-2.0276739532	 0.0671108907	 1.120474617	-0.445135
H	-0.6358371215	 1.6970173465	 0.6381323839	 0.290572
H	 0.5455965782	-0.2824586312	-0.9333104558	 0.091897
H	 1.8794224262	-0.2033958189	 1.1386165975	 0.114339
H	 0.4149474556	-0.153418456	 2.1230001801	 0.117852
H	 1.298371265	-2.3959608501	 0.4468564717	 0.225732
H	-0.5139831253	-3.6446303795	 1.3102198734	 0.124269
H	-0.999204868	-2.2237155405	 2.2632522382	 0.130121
H	-1.8899068405	-0.2652746798	-0.9423692881	 0.091341
H	-2.9766880479	-0.0609832727	 1.0276293188	 0.302567
