17
gdb 79542	2.43619	1.86142	1.26674	4.2986	77.3	-0.2502	0.0065	0.2568	1006.1859	0.136459	-380.821007	-380.813235	-380.812291	-380.85309	30.041	
C	-0.2090598427	 1.5007530811	 0.0194964724	-0.427801
C	 0.0548079925	 0.0180974241	-0.0926311553	 0.018655
C	 0.653331976	-0.6818477137	-1.2533753722	-0.065783
C	 1.7496664331	 0.0960396435	-1.9291343515	-0.146119
C	 3.0727425794	-0.5639054832	-1.6432886334	-0.319565
C	 2.3999388938	 0.213602092	-0.5426343752	 0.239459
C	 3.009211556	 1.3272501195	 0.111802106	 0.224787
N	 3.4998441773	 2.2312644044	 0.6426338975	-0.354727
N	 1.3748112632	-0.6341409755	 0.112389592	-0.189035
H	 0.4895607857	 2.1075040915	-0.5579508232	 0.139351
H	-1.2202331849	 1.7155576728	-0.3416921725	 0.126663
H	-0.1517980495	 1.8201389015	 1.0646968323	 0.142907
H	-0.6960808633	-0.5856487938	 0.4152068221	 0.106259
H	 0.2557168911	-1.6198355121	-1.6289394728	 0.11016
H	 1.6329797846	 0.8492535709	-2.6990876088	 0.119448
H	 3.1385226642	-1.6421299001	-1.532503477	 0.13542
H	 3.9406700734	-0.0858773329	-2.0854450504	 0.139921
