17
gdb 39195	2.61641	2.33511	1.59714	1.4435	70.48	-0.2464	-0.0048	0.2416	855.1659	0.139483	-421.818007	-421.811805	-421.810861	-421.848611	25.456	
C	 0.2714743735	 1.522626805	 0.285455626	-0.099602
O	 1.2495159675	 2.0289138324	-0.6232826528	-0.269426
C	 2.0664822962	 0.9529412158	-1.1001943229	 0.055112
C	 3.2178976605	 0.6447415827	-0.1593574199	-0.089064
C	 3.0571065372	-0.5068593931	 0.4930602755	-0.080143
C	 1.7788476129	-1.1946014411	 0.091764381	 0.074683
O	 0.6595337378	-0.8655193633	 0.9764529103	-0.315448
C	 0.0916576397	 0.0226961465	-0.0178328456	 0.094996
C	 1.1956792785	-0.3181193636	-1.0347693668	-0.13364
H	 0.5874834516	 1.6372533306	 1.3306569492	 0.110353
H	-0.6438274148	 2.101749295	 0.1266890216	 0.105682
H	 2.3945965181	 1.2421086775	-2.1027982666	 0.08382
H	 4.0284636599	 1.3495040785	-0.0096905729	 0.106546
H	 3.71254754	-0.8953786311	 1.2645728575	 0.106024
H	 1.8527978006	-2.276165581	-0.0507529512	 0.081544
H	-0.9405760016	-0.2586287644	-0.2434544706	 0.085261
H	 0.9274176225	-0.7701608663	-1.9862954718	 0.083303
