19
gdb 36491	4.06971	1.00758	0.88531	2.8325	78.57	-0.243	0.0336	0.2766	1304.6396	0.161613	-382.071572	-382.063539	-382.062595	-382.104671	30.624	
N	-0.0284231656	-1.1702972182	-0.0448613278	-0.309606
C	-0.0326973817	-0.0155432993	 0.0017244391	 0.266487
C	-0.0105812016	 1.4453274103	 0.0586800769	-0.363109
C	 1.4181462358	 2.0219792005	-0.0004663636	 0.019153
C	 2.1838064141	 1.7189906953	-1.3079565057	-0.258872
C	 3.1482779947	 2.9190561497	-1.443559149	-0.159589
N	 2.5464833197	 4.076222133	-0.7469080418	-0.095165
C	 1.1514572991	 4.3300751495	-1.131891894	-0.25222
C	 1.4596937847	 3.5425169676	 0.092166948	-0.04021
H	-0.6075992309	 1.8373462405	-0.7727615973	 0.15057
H	-0.5098306288	 1.7614205014	 0.9818957398	 0.152791
H	 1.9796233907	 1.6179037535	 0.8503150395	 0.100354
H	 2.7064038464	 0.761191542	-1.2725174683	 0.125811
H	 1.489735215	 1.6679723919	-2.1531952879	 0.110325
H	 4.1004383002	 2.7067033784	-0.9460276488	 0.114961
H	 3.368881155	 3.1772828581	-2.4835221725	 0.112008
H	 0.8392418153	 5.3658216291	-1.0382278156	 0.121877
H	 0.7428990481	 3.8180803304	-2.0001614339	 0.109873
H	 1.3339793097	 3.9967512165	 1.0716177931	 0.094561
