18
gdb 38068	3.55018	1.44588	1.27797	1.0273	77.	-0.2362	-0.0008	0.2354	1029.9574	0.149416	-401.905906	-401.898656	-401.897712	-401.937808	28.71	
C	-0.0207885459	 1.3764543209	-0.3295534608	-0.077929
C	 1.4357561827	 1.54548587	 0.1380847596	-0.334533
C	 1.2666385288	 0.1292857363	 0.7453498662	 0.471152
O	-0.082262746	 0.0354328009	 0.2027773273	-0.332046
C	 2.1883144478	-0.9759671898	 0.2941650076	-0.151126
C	 2.6768495022	-1.6792267238	 1.3193585163	-0.060535
C	 2.1820603216	-1.132805827	 2.6168281638	-0.088794
N	 2.6246863195	 0.2794057191	 2.8447463126	-0.337384
C	 1.2942759649	 0.0013774291	 2.2670008948	-0.141786
H	-0.7539452867	 2.0393852523	 0.1470792378	 0.099145
H	-0.1853845749	 1.3921082151	-1.4132788191	 0.102977
H	 2.1738827618	 1.6070647696	-0.6630213728	 0.112038
H	 1.6317611289	 2.3334073637	 0.8659203891	 0.11824
H	 2.425904366	-1.1227279032	-0.7533385803	 0.099181
H	 3.37385258	-2.5057029133	 1.2478975344	 0.104735
H	 2.0204331646	-1.7708119237	 3.4785065537	 0.093645
H	 2.503378991	 0.5022119321	 3.832703772	 0.228298
H	 0.3942743036	 0.2438063917	 2.8215660778	 0.094722
