21
gdb 88182	3.3053	1.19513	1.04409	1.3062	86.45	-0.2266	0.0236	0.2502	1242.7768	0.1834	-387.084682	-387.076168	-387.075224	-387.117596	33.296	
C	-0.0682386735	 1.5353658118	-0.0765252954	-0.41439
C	 0.0357572699	 0.0268141099	 0.0059842812	-0.041784
C	 1.3405698833	-0.6863773412	-0.2195477532	-0.333715
C	 0.7108323962	-0.6883553148	 1.1654372342	 0.312808
C	 1.3457501306	 0.1090250917	 2.2933031298	-0.17235
O	 2.1073820543	-0.7295073254	 3.1478180656	-0.246853
C	 1.3127498814	-1.6906433067	 3.8155140078	-0.122199
C	 0.34738429	-2.392809538	 2.8996944137	-0.10874
C	 0.1032365994	-1.943783275	 1.6691438033	-0.108658
H	 0.8431792977	 2.0300843946	 0.2708681746	 0.118374
H	-0.233716248	 1.8507230234	-1.1126908481	 0.119541
H	-0.9032998809	 1.9152604676	 0.5223787245	 0.119873
H	-0.8435649223	-0.4888512066	-0.375363033	 0.082182
H	 1.3454289375	-1.6127913243	-0.783757849	 0.11108
H	 2.2327354626	-0.0808047407	-0.3511193886	 0.112301
H	 2.0404957731	 0.8650263111	 1.9198197638	 0.103063
H	 0.5602336077	 0.6240060304	 2.8727922857	 0.087201
H	 2.0153769133	-2.4090154607	 4.2545829186	 0.115306
H	 0.7674429159	-1.225360921	 4.6588962927	 0.09317
H	-0.1345581547	-3.2884000593	 3.2815541488	 0.090018
H	-0.5654874835	-2.4828967168	 1.001478413	 0.08377
