22
gdb 107821	3.22129	1.39492	1.22538	1.5492	84.26	-0.2322	0.0821	0.3143	1128.1366	0.196296	-367.186293	-367.17833	-367.177386	-367.218466	32.312	
C	 0.0534099238	 1.5456164189	 0.0822317469	-0.384641
C	-0.0349009017	 0.0202862658	-0.0466044831	-0.283061
C	-1.4529641073	-0.52631465	-0.0378845116	 0.344409
C	-2.2615985982	-0.4271738742	 1.3052900364	-0.295052
C	-2.6412693015	-1.9027529301	 1.1363578312	-0.041146
C	-1.6556247568	-2.0761014708	 0.0282514583	-0.113492
N	-3.0772579145	-2.2305397421	-0.230868883	-0.09988
C	-3.5610636183	-1.0953745721	-1.0500265897	-0.168592
C	-2.3727523409	-0.1110012797	-1.1961410036	-0.261658
H	 1.0962108258	 1.8762761751	 0.1087909054	 0.112658
H	-0.4329898916	 2.0486519157	-0.7595092896	 0.119096
H	-0.4295939475	 1.8947946875	 1.0012254763	 0.118915
H	 0.4601293326	-0.2974364934	-0.9748419185	 0.094078
H	 0.5291718726	-0.4445361451	 0.7727454176	 0.095091
H	-1.5977117638	-0.294230105	 2.1644181138	 0.100819
H	-3.0677108718	 0.3129137407	 1.3620626095	 0.089671
H	-2.9372250613	-2.5861370628	 1.9251512533	 0.087669
H	-0.9470853241	-2.8623025954	-0.2079033311	 0.081941
H	-3.8938170573	-1.4850867065	-2.0162167782	 0.106327
H	-4.4291419579	-0.6359871591	-0.5665623314	 0.104745
H	-2.68850342	 0.9349571056	-1.1313991957	 0.098649
H	-1.8634256105	-0.248070503	-2.1580306132	 0.093454
