17
gdb 107529	2.00067	1.6611	1.10183	5.0092	72.48	-0.239	0.0137	0.2527	1119.8285	0.136218	-417.959008	-417.950469	-417.949525	-417.99268	31.542	
O	 0.0132665769	 1.4637810591	 0.1844716661	-0.405854
C	 0.0391506511	 0.057174895	-0.0017688585	-0.175816
C	-1.3362387221	-0.5366285678	-0.0249824792	 0.294012
C	-2.0680754937	-1.0567176859	 1.1992173838	-0.3294
C	-1.881006006	-1.9568551466	 0.0210917384	-0.078776
N	-2.9502332325	-1.6539502666	-0.9592120492	-0.320381
C	-2.3574028056	-0.2837180001	-1.1534623886	-0.192419
C	-3.3016703018	 0.8236462519	-0.988942266	 0.31407
N	-4.0353395029	 1.7039655513	-0.8404979455	-0.330572
H	-0.4839714938	 1.6469656683	 0.9891753613	 0.290892
H	 0.543754216	-0.0960013547	-0.9628619485	 0.111452
H	 0.6430187386	-0.4512256035	 0.7674610032	 0.092689
H	-1.4177301575	-1.2518439458	 2.0467607168	 0.120716
H	-3.0666422993	-0.7083943728	 1.4473027372	 0.140688
H	-1.3751306384	-2.9140184311	 0.0486256053	 0.109868
H	-2.8449919477	-2.1954047392	-1.811011606	 0.2338
H	-1.8488400914	-0.1756216716	-2.1170027904	 0.125032
