19
gdb 118734	3.0226	0.93239	0.83008	2.9872	71.7	-0.2717	0.0107	0.2824	1423.3905	0.157373	-460.194226	-460.18472	-460.183776	-460.228996	34.738	
C	-0.0814465164	 1.8002922076	-0.3072486538	-0.442948
C	-0.0171192395	 0.287995969	-0.1739575243	 0.404935
C	-1.3704263309	-0.4070987289	-0.0711921656	-0.250209
C	-2.2224543249	 0.0289946151	 1.127461984	-0.074186
O	-3.4346185249	-0.7019144536	 1.2091921059	-0.415697
C	 1.0140029613	-0.416823197	-1.0872141044	-0.475158
C	 1.7454574404	-0.7107355184	 0.2202139667	 0.443653
O	 2.7374040353	-1.2650418697	 0.5700521592	-0.319003
O	 0.8217085057	-0.0748985057	 1.0051356132	-0.277282
H	 0.923725588	 2.2205591626	-0.4000339651	 0.129435
H	-0.656929575	 2.0788648916	-1.1959558231	 0.129342
H	-0.5565899917	 2.2555086276	 0.5653916613	 0.141707
H	-1.9330897554	-0.2363134563	-0.996675513	 0.115138
H	-1.1959536083	-1.4887993873	 0.0000926849	 0.095459
H	-1.6305504846	-0.0565221975	 2.0498586925	 0.114527
H	-2.5212566361	 1.0766157962	 1.0255651598	 0.114884
H	-3.2181836521	-1.6090671065	 1.4470993105	 0.28449
H	 0.6643650897	-1.3045294895	-1.6173083977	 0.140225
H	 1.5659825993	 0.2274889006	-1.7738498512	 0.140687
