17
gdb 72831	2.71384	1.59187	1.31083	4.6561	69.36	-0.2551	0.0047	0.2598	1011.2478	0.13758	-455.125746	-455.117834	-455.11689	-455.158687	29.765	
N	 0.090268668	 1.4602366941	-0.0965351439	-0.576138
C	 0.0073861659	 0.0210656	 0.0125994189	 0.198937
C	 0.2094331522	-0.8960462802	-1.2267390764	-0.121024
O	-1.0828227371	-1.5059814531	-1.034208887	-0.285289
C	-1.3953567968	-0.6284616713	 0.0738065555	 0.022586
C	-1.4409577972	-1.3860564472	 1.3782297435	 0.414907
N	-2.4678639683	-1.9091205096	 1.8881385847	-0.533046
O	-0.1765798908	-1.4533899564	 1.9008131586	-0.245798
C	 0.6882952639	-0.4779072206	 1.3016833119	-0.115011
H	 1.0596201599	 1.7666500929	-0.0951913006	 0.234044
H	-0.3118148133	 1.7768304795	-0.9739840933	 0.237481
H	 0.2663852556	-0.350979289	-2.1788046362	 0.09541
H	 1.0251106324	-1.6282554354	-1.1810600574	 0.10552
H	-2.282970457	-0.0179787968	-0.1039716828	 0.104418
H	-2.2350859165	-2.3869787275	 2.7613427309	 0.225071
H	 1.6570860076	-0.9538209797	 1.124849345	 0.116663
H	 0.8166036416	 0.35825677	 1.9980536786	 0.121267
