19
gdb 68570	2.69352	1.927	1.53722	1.4628	79.36	-0.231	0.0032	0.2342	945.9298	0.160531	-385.901181	-385.893908	-385.892964	-385.932166	30.498	
C	 0.0293804072	 1.5426280613	 0.0591512104	-0.460385
C	-0.0265648863	 0.0272529934	-0.0055652659	 0.329134
C	 0.7027585464	-0.5575087378	-1.2484027111	-0.281853
C	 1.0654705336	-2.0133468409	-1.0523071049	-0.05311
C	 0.8152877533	-2.6488576283	 0.0925119024	-0.059099
C	 0.1453220007	-1.8573966173	 1.2064885481	-0.035505
O	 0.6289219995	-0.5146050313	 1.1531167705	-0.275987
C	-1.3324391124	-1.687235964	 0.844790064	-0.083199
C	-1.4231792729	-0.5840034752	 0.1094924399	-0.118298
H	 1.0686896288	 1.8814886905	 0.1086517954	 0.124594
H	-0.4345197815	 1.9839988571	-0.828907965	 0.112865
H	-0.4966905388	 1.9049887087	 0.9463332467	 0.125435
H	 0.0763940479	-0.4441774896	-2.1449897251	 0.102886
H	 1.6138910702	 0.0262075196	-1.4401117632	 0.109971
H	 1.5341488932	-2.5254025741	-1.8888311582	 0.089712
H	 1.0437315979	-3.6997173906	 0.238561877	 0.088772
H	 0.3444924676	-2.2627506414	 2.2014417583	 0.079508
H	-2.1064312304	-2.4097497571	 1.0680237423	 0.10585
H	-2.2940935839	-0.1931755428	-0.4011543316	 0.098711
