17
gdb 130310	2.99448	1.33396	0.97772	3.6047	74.21	-0.2285	0.0076	0.2361	1184.9707	0.137508	-417.989403	-417.981409	-417.980465	-418.022471	30.419	
N	 0.1779149626	 1.3228964434	-0.1987022569	-0.58944
C	 0.0720781372	-0.0509309218	-0.0756746787	 0.336499
N	-1.0917181117	-0.6613306955	-0.0883558937	-0.231116
O	-0.7970214168	-2.014084937	 0.1426536734	-0.178517
C	 0.5279485227	-2.1487199181	 0.2722937506	-0.001517
C	 1.1653574655	-0.9570551883	 0.143711368	 0.103344
C	 2.5996823417	-0.6134915875	 0.2294691131	-0.14747
C	 3.6633314465	-1.6028455643	-0.1736015426	-0.268452
C	 3.4184461376	-0.390345286	-1.0324524011	-0.260991
H	 1.0045722422	 1.6239246323	-0.6956006997	 0.257002
H	-0.6615683332	 1.7565274984	-0.5589009694	 0.260015
H	 0.8846687719	-3.1504924181	 0.4584537297	 0.144903
H	 2.8570577998	 0.0411974288	 1.0589651751	 0.104847
H	 4.5706515272	-1.6417043265	 0.4180025396	 0.118261
H	 3.3415559023	-2.5629523624	-0.5607587711	 0.117584
H	 2.9231238789	-0.5433004904	-1.9849648813	 0.119366
H	 4.1577406457	 0.402897863	-1.0272427052	 0.115681
