16
gdb 9142	5.42957	0.8028	0.74372	2.808	71.48	-0.2543	-0.0414	0.2129	1520.7503	0.127402	-383.719529	-383.710162	-383.709218	-383.756085	31.628	
C	-0.5712858226	 1.3961344448	 0.1090333549	-0.36623
C	 0.4728306911	 0.2917851337	-0.1372326338	-0.315564
C	 1.0604899804	-0.2283658867	 1.0923062099	 0.047598
C	 1.5149586676	-0.6469164226	 2.1267994534	 0.077854
C	 2.1073621339	-1.1697601506	 3.3628270437	-0.108928
O	 1.4569632509	-2.3039608782	 3.8693619047	-0.410545
C	 3.5784274194	-1.4873906352	 3.0720036496	 0.145248
O	 4.0207433448	-2.595664862	 3.2332698585	-0.25187
H	-0.1225330167	 2.24715648	 0.6283194866	 0.12867
H	-0.9815109837	 1.7491257515	-0.8415543206	 0.117988
H	-1.3944219212	 1.0215440815	 0.7230016305	 0.13429
H	 0.0118167242	-0.5364441072	-0.6900738867	 0.138119
H	 1.2721395435	 0.676007964	-0.7838182378	 0.133001
H	 2.101347871	-0.3699228869	 4.1244069787	 0.121337
H	 2.1010822506	-3.0258561096	 3.7864468849	 0.296297
H	 4.1907009668	-0.6476539263	 2.6919233535	 0.112734
