22
gdb 60545	2.61699	1.24436	1.07584	2.3336	82.63	-0.2358	0.0768	0.3126	1251.216	0.192684	-404.303554	-404.294018	-404.293073	-404.337582	36.844	
C	-0.2833801721	 1.5027834724	 0.2872365058	-0.388593
C	-0.077445631	 0.0063771172	 0.0438930099	-0.034727
N	 0.723355945	-0.1863017558	-1.1740264093	-0.078347
C	 0.4578186791	-1.3762124865	-1.9756901601	-0.21898
C	 0.0515390695	-0.0269346107	-2.4567543407	-0.227758
C	 0.6994517979	-0.6425599747	 1.1803364456	 0.477464
O	 2.0034082425	-0.1436510351	 1.2962128746	-0.4815
C	 0.0353006893	-0.9861673502	 2.472419493	-0.324166
C	 0.474674578	-2.0954544294	 1.5313531206	-0.332882
H	 0.6809242759	 1.9928908258	 0.4401728512	 0.133595
H	-0.7868663009	 1.9749157217	-0.5614756102	 0.10748
H	-0.8947087891	 1.6602194519	 1.1801572962	 0.11792
H	-1.0606420773	-0.4892953793	-0.0459503052	 0.052602
H	 1.3283148529	-1.8739742167	-2.3928657762	 0.118232
H	-0.3343362808	-2.0457304226	-1.6465464864	 0.1142
H	-1.0130854906	 0.2011300198	-2.4471021668	 0.1132
H	 0.6174096239	 0.4809267641	-3.2325648048	 0.119155
H	 2.3430262453	-0.1202895592	 0.3900603051	 0.283343
H	 0.6212091787	-0.8309507509	 3.3710708723	 0.123842
H	-1.0268502548	-0.7930980662	 2.5835634544	 0.107965
H	-0.2914822923	-2.6593832453	 1.0096474729	 0.101846
H	 1.3525241108	-2.6647743204	 1.8139661481	 0.116108
