27
gdb 102494	1.65646	1.32448	0.93229	1.3301	91.99	-0.2598	0.0755	0.3352	1475.0837	0.249189	-390.695833	-390.6839	-390.682955	-390.732167	44.907	
C	 0.0817401272	 0.7150398602	-1.2957748688	-0.388632
C	-0.2182936069	 0.3899758552	 0.1721703172	-0.204796
C	-1.5703151946	-0.3341468637	 0.3807668222	 0.068952
C	-1.4038973641	-1.8193390188	 0.0195149271	-0.116997
O	-2.6379095657	-2.3271597683	-0.4753058702	-0.418025
C	-2.2056822463	-0.0823531651	 1.7916302647	 0.240826
C	-2.6396784849	 1.394772821	 1.8963798036	-0.411602
C	-3.4686016652	-0.9450151447	 1.9909140182	-0.389795
C	-1.2106893641	-0.3938722805	 2.9274632622	-0.407149
H	 1.0642749982	 1.1859002889	-1.4024291354	 0.109701
H	 0.0765720141	-0.1800126384	-1.9267171689	 0.117428
H	-0.6654118396	 1.4053018906	-1.7023582213	 0.11708
H	 0.5924388516	-0.2257248109	 0.5840969309	 0.093601
H	-0.1967676646	 1.3240813966	 0.7407997675	 0.097837
H	-2.2811635	 0.0643038372	-0.3564119139	 0.077049
H	-0.621067608	-1.9221874861	-0.7465864865	 0.084225
H	-1.0640993126	-2.3894543579	 0.8985309814	 0.0851
H	-2.5273744932	-3.2670298134	-0.6469081823	 0.283093
H	-3.3649190784	 1.6461472122	 1.1145102166	 0.109225
H	-3.1174402856	 1.5834056008	 2.8639967936	 0.106274
H	-1.799343353	 2.089758036	 1.8100310813	 0.108305
H	-3.2428771376	-2.013706716	 1.9987062662	 0.106891
H	-3.9427795644	-0.6931413218	 2.9464391327	 0.093659
H	-4.1967664388	-0.775974831	 1.1926062489	 0.115379
H	-0.3254707096	 0.2478311618	 2.886847094	 0.108915
H	-1.686410413	-0.2347311378	 3.9012541862	 0.107304
H	-0.8722361811	-1.4351101061	 2.8990483328	 0.106152
