13
gdb 35622	2.18064	1.88937	1.12117	2.7074	67.82	-0.2832	-0.0171	0.2661	1017.9953	0.088879	-415.581052	-415.57317	-415.572225	-415.614678	28.042	
C	-0.1057247179	-1.2009853326	 0.1467808322	-0.433391
C	-0.0568928312	-0.0031669875	 0.0919521849	 0.3734
C	 0.0130428782	 1.4469654324	 0.0016207852	-0.221541
N	-0.7303241562	 2.118066333	 1.0903909853	-0.235143
C	 0.0836933998	 2.9054330135	 1.649425498	 0.130785
O	 1.3644041257	 3.0008846012	 1.2019200174	-0.211327
C	 1.4752771972	 2.0554331063	 0.1181781765	-0.065492
C	 2.5435139713	 1.0997612889	 0.4138596979	 0.305985
N	 3.4055974153	 0.3605119945	 0.6219822034	-0.310594
H	-0.140485739	-2.2612605755	 0.2063689511	 0.213769
H	-0.421468891	 1.7646539175	-0.9530350081	 0.136646
H	-0.138491394	 3.5552574005	 2.4877146213	 0.16495
H	 1.7412949817	 2.6087428778	-0.7861226349	 0.151955
