19
gdb 72345	2.29798	1.65563	1.32178	0.8846	86.54	-0.2236	0.0159	0.2395	1067.8847	0.158537	-348.725085	-348.716652	-348.715707	-348.757563	33.367	
C	 0.0110672162	 1.4930494569	-0.0162626793	-0.484246
C	-0.0297567984	-0.0140046505	 0.0626605345	 0.316436
C	-1.3615438966	-0.7264667851	-0.2108885581	-0.338464
C	-1.3563056168	-1.9020100787	 0.7411141976	-0.06258
C	-0.2570070244	-1.9267582113	 1.4973538143	-0.077904
C	 0.6608600756	-0.8065157917	 1.1545435072	-0.124727
C	 1.2373354336	-0.7970341732	-0.274516185	-0.280764
C	 1.2328458783	-1.9439736609	-1.1301082551	 0.356443
C	 1.231668133	-2.8885685843	-1.8760412627	-0.461559
H	 0.9942448407	 1.8823074172	 0.2667987259	 0.116059
H	-0.2044537193	 1.8435612522	-1.0323856049	 0.123355
H	-0.7313713276	 1.9406923006	 0.6544424804	 0.1196
H	-2.2090580156	-0.0530265162	-0.0233872241	 0.102351
H	-1.4445217135	-1.0516133498	-1.2559034141	 0.122255
H	-2.1489114386	-2.6410698047	 0.7577585208	 0.094947
H	-0.0160514915	-2.6766616259	 2.2413421294	 0.095404
H	 1.2654006036	-0.3301879155	 1.9196911805	 0.086542
H	 2.1177826672	-0.1676200141	-0.3832738764	 0.106539
H	 1.2379315543	-3.7288872748	-2.524574431	 0.190313
