19
gdb 116668	2.15274	0.91851	0.67698	5.7727	81.79	-0.2733	-0.0063	0.267	1673.3722	0.156618	-419.215821	-419.205134	-419.20419	-419.25317	35.99	
C	-0.1097726118	 1.5461550731	 0.1716625227	-0.399783
C	-0.0101822761	 0.0284733544	 0.0204755489	-0.165889
C	 0.7967228584	-0.3857050503	-1.2305577807	-0.129305
N	 2.182834443	 0.0430305499	-1.1132440429	-0.20749
C	 2.6588356056	 0.7027358471	-2.0779268319	 0.146837
O	 3.9230523817	 1.1399021474	-2.0429115021	-0.187258
C	 4.3633965926	 1.8658872182	-3.1890355268	-0.254338
C	 0.7543408844	-1.8507329056	-1.3944008549	 0.296357
N	 0.6986569935	-2.996622335	-1.5307135965	-0.326857
H	 0.8813432132	 1.996294778	 0.273047073	 0.136635
H	-0.604481349	 2.0019338688	-0.6940282487	 0.110762
H	-0.6917693376	 1.8053414576	 1.0604657993	 0.123097
H	 0.4775145309	-0.412321735	 0.895289164	 0.130526
H	-1.0081780098	-0.4162572358	-0.0546147398	 0.115209
H	 0.3026823191	 0.0446486274	-2.1207683387	 0.10205
H	 2.1023056626	 0.9673648372	-2.9909496196	 0.084497
H	 3.7646193832	 2.7712061655	-3.3417701981	 0.132707
H	 5.3971221588	 2.1487076259	-2.99038537	 0.155063
H	 4.3262253272	 1.2450160711	-4.0912787572	 0.137181
