18
gdb 38614	2.59658	2.35612	1.65975	0.5323	73.37	-0.2327	0.0772	0.3099	859.4021	0.150782	-401.886304	-401.880056	-401.879112	-401.91648	26.847	
C	 0.0012379704	 1.4359158988	 0.009641788	-0.396116
C	 1.3657182596	 0.7364846309	 0.0616997422	-0.094575
C	 2.217474652	 0.2567919613	-1.1065012727	-0.183584
N	 1.5088561175	-0.8902879289	-1.7269298033	-0.113124
C	 0.9028043407	-1.9704669507	-0.8809339098	-0.057535
C	 0.801132811	-1.9927211228	 0.6616276128	-0.122222
O	-0.1588839334	-0.9740245683	 1.0228819737	-0.291235
C	 0.0766237604	-0.0437084467	-0.0001918175	 0.407594
C	 0.1080015668	-0.8051894121	-1.3204164668	-0.133344
H	-0.2813788049	 1.950157329	 0.9222248641	 0.130035
H	-0.3441618266	 1.9184047628	-0.9009538789	 0.120758
H	 1.8396860687	 0.7943084912	 1.0355239355	 0.098447
H	 2.3545024153	 0.9979806802	-1.9030156041	 0.110407
H	 3.214005225	-0.0433753056	-0.7661733326	 0.108982
H	 0.8873957168	-2.9247021769	-1.3955922376	 0.105821
H	 0.4168916452	-2.9578457945	 1.0021679913	 0.116949
H	 1.7601161948	-1.795691295	 1.1587313523	 0.103466
H	-0.6912520092	-0.7807213227	-2.0538690566	 0.089276
