20
gdb 89857	2.70585	1.19419	0.97472	1.8562	86.31	-0.2392	0.0353	0.2745	1286.5681	0.169569	-365.944847	-365.935747	-365.934803	-365.978825	35.002	
C	-0.4568122048	 1.4124943374	-0.0101252165	-0.392642
C	-0.0528117267	-0.0566185041	 0.0474821797	 0.035794
C	 1.1423663926	-0.4368145318	-0.8868187216	-0.309316
C	 2.0340768991	-0.4953541813	 0.3522803786	 0.386352
C	 0.8217989331	-0.4392222394	 1.2875855732	-0.33032
N	 3.248127018	-1.2803660618	 0.4756168811	-0.375756
C	 3.3385605574	 0.2046653404	 0.5642083522	-0.335289
C	 4.0121963136	 0.8946203043	-0.4988300846	 0.390342
C	 4.5478557432	 1.5045112275	-1.3864049973	-0.448663
H	 0.4137250784	 2.06639128	 0.1161925509	 0.120965
H	-0.9160844066	 1.6561342638	-0.9742082446	 0.116452
H	-1.1773562488	 1.6583603118	 0.7777429886	 0.11221
H	-0.9340410756	-0.690613115	-0.0790372142	 0.07059
H	 1.0319048482	-1.4154911541	-1.3615152908	 0.107389
H	 1.4222677817	 0.2971094545	-1.6473334685	 0.112743
H	 0.8560097322	 0.284044536	 2.1081801337	 0.10003
H	 0.5688518595	-1.4231502297	 1.6964789434	 0.103083
H	 3.324248675	-1.6728108621	 1.4124903258	 0.231933
H	 3.491573916	 0.6310036196	 1.5541454277	 0.107017
H	 5.0333801745	 2.0299490838	-2.1709551868	 0.197086
