17
gdb 31357	3.70485	1.13215	0.87982	7.7245	81.04	-0.2007	0.001	0.2017	1282.8362	0.137979	-418.06047	-418.052019	-418.051074	-418.093839	31.528	
C	 0.1506393313	 1.4426846304	-0.1393405206	-0.347762
N	-0.215743236	 0.0703048862	 0.1760761295	-0.361743
C	 0.5053634675	-0.6880616593	 1.0848688827	 0.488317
C	 0.6114971006	-2.0488284497	 1.0268348487	-0.382417
C	 1.3093439869	-2.8260075012	 2.0386760203	 0.393521
O	 1.4126198274	-4.050541081	 2.0086050645	-0.417528
C	 1.9018775927	-2.0060544897	 3.1089113859	-0.246649
C	 1.7798087365	-0.6653243943	 3.1140867349	 0.017933
N	 1.0994257022	-0.0008143046	 2.1165243488	-0.385689
H	 1.2134600343	 1.5683294998	-0.3931327021	 0.131201
H	-0.4476425402	 1.7708906376	-0.9912282384	 0.145159
H	-0.0923262878	 2.1206770554	 0.688219693	 0.131137
H	-0.4979337849	-0.4733456834	-0.6246043776	 0.254331
H	 0.1613812797	-2.5855311482	 0.1992161892	 0.086904
H	 2.4473474304	-2.5124016433	 3.8953173023	 0.107635
H	 2.2010145348	-0.0251518178	 3.8801784108	 0.126441
H	 0.9662782147	 0.9921375731	 2.1921997479	 0.259209
