14
gdb 21723	5.01043	1.42603	1.12527	2.2104	59.21	-0.2393	-0.0072	0.2321	1003.743	0.109084	-412.040981	-412.033336	-412.032392	-412.073872	27.276	
N	 0.220130022	 1.2282424344	-0.6174962298	-0.485177
C	-0.1971759775	 0.3125814725	 0.4315076041	-0.285016
C	-1.483015555	-0.425260878	 0.1717665612	 0.425348
N	-2.2714605864	-0.3041165425	-0.8536234406	-0.36859
C	-3.2686565655	-1.2095888223	-0.5512755637	 0.40891
N	-4.2975909004	-1.4483830578	-1.4238962561	-0.584443
N	-3.1204316916	-1.8452086859	 0.5879710582	-0.213883
O	-1.8976054951	-1.3147759918	 1.0726727658	-0.205849
H	 0.3151522631	 0.7168270715	-1.4902860215	 0.24072
H	-0.5197738974	 1.9038488076	-0.7859055562	 0.240174
H	 0.5926051858	-0.4274455077	 0.6072934873	 0.147137
H	-0.3016324039	 0.86242168	 1.3748589163	 0.146094
H	-4.5157115657	-0.6702312752	-2.0268440091	 0.266753
H	-5.1050492124	-1.8978404148	-1.0192441358	 0.267824
