17
gdb 60866	2.75453	1.25237	1.11149	2.4911	64.33	-0.2577	-0.0449	0.2129	1130.8589	0.133009	-496.073882	-496.064761	-496.063816	-496.108261	32.923	
O	-0.2031210768	 1.3805463498	 0.1334360403	-0.43041
C	 0.0052488294	 0.0056512715	-0.0024907902	 0.004376
C	 0.789995767	-0.2862771764	-1.2702210635	 0.133226
O	 1.1477178027	 0.611892579	-1.9958179243	-0.265599
C	 0.7361336547	-0.5669881685	 1.2242969981	 0.311589
O	 0.7742204888	-1.9617444438	 1.0225612064	-0.484924
C	 2.0606653433	 0.1305586823	 1.6262179044	-0.126311
O	 1.5196551332	 0.5170415593	 2.9018820039	-0.266956
C	 0.2368930672	-0.067425069	 2.6024623132	-0.132257
H	 0.2103644844	 1.7849709614	-0.6471641993	 0.299599
H	-0.9523217293	-0.5382418066	-0.0840191981	 0.108874
H	 1.0158075791	-1.3456530901	-1.482783481	 0.126233
H	 1.2227527741	-2.371075654	 1.7699025025	 0.29232
H	 2.9202473629	-0.5475017239	 1.7176124666	 0.095193
H	 2.3413028751	 0.9973333815	 1.0170478978	 0.113505
H	-0.5620623746	 0.6800259963	 2.5748526495	 0.128063
H	-0.0316510514	-0.8752106788	 3.2971816038	 0.093479
