18
gdb 56956	2.1673	1.39759	1.15186	3.867	78.41	-0.2457	0.0085	0.2542	1161.4122	0.145064	-401.906483	-401.896961	-401.896017	-401.941042	34.384	
C	 0.3171131678	 1.5135856095	 0.0063245767	-0.390318
C	 0.1185637373	-0.0181556944	-0.013914858	-0.174673
C	 0.7123380754	-0.6128715761	-1.2082771701	 0.299802
C	 1.2121923077	-1.0832645885	-2.1949227245	-0.441014
C	 0.6124718637	-0.6544454922	 1.2881101127	-0.006268
C	 1.0149277212	-2.1013216128	 1.3863012001	-0.260411
N	 1.9854553592	-1.0441978853	 1.5179465208	-0.057264
C	 3.1247788186	-0.8692287009	 0.7562586434	 0.147467
O	 3.8708110142	-1.7576394374	 0.4259493321	-0.297539
H	 1.3800948484	 1.7686127787	 0.0249568876	 0.135555
H	-0.1264024253	 1.9692814204	-0.8820380722	 0.133918
H	-0.1578233218	 1.9457533092	 0.8924355102	 0.120841
H	-0.963928289	-0.2111307641	-0.0407975575	 0.121569
H	 1.661526102	-1.5064032326	-3.0596324509	 0.209074
H	 0.1327246997	-0.2113829394	 2.1610446212	 0.103986
H	 0.7846663411	-2.663710306	 2.2872605603	 0.126093
H	 1.0482456051	-2.6771212947	 0.4652241519	 0.148102
H	 3.3305381148	 0.2009473168	 0.5643293061	 0.081081
