20
gdb 102870	2.12074	0.9632	0.69009	2.605	86.67	-0.2512	0.0205	0.2717	1676.4743	0.166771	-403.111061	-403.100161	-403.099216	-403.148035	38.002	
C	-0.7428030278	 1.2706659051	 0.5589524623	-0.395647
C	-0.260242936	-0.1333541977	 0.1910594392	-0.183851
C	 0.6296815788	-0.1476715209	-1.0585721064	-0.084911
O	 1.789973949	 0.6439535722	-0.7521952725	-0.20703
C	 2.5627628285	 1.0081159231	-1.8007128818	 0.137046
N	 3.5978728525	 1.6956605613	-1.6170788081	-0.207963
C	 4.3699075682	 2.0619282741	-2.7857634275	-0.314924
C	 1.0020593361	-1.5068894783	-1.4563148817	 0.341492
C	 1.3024205015	-2.6246025494	-1.7792765246	-0.447546
H	 0.1030505581	 1.9354383897	 0.7484200492	 0.146559
H	-1.3445863389	 1.7072096749	-0.246128299	 0.113066
H	-1.363627046	 1.2392433352	 1.4587412526	 0.117301
H	 0.3115428301	-0.5740765584	 1.0142502515	 0.125523
H	-1.1088422566	-0.7983268332	-0.0006182068	 0.1133
H	 0.0865602144	 0.3301194622	-1.888315166	 0.107717
H	 2.2017481078	 0.6572240444	-2.7792666338	 0.083143
H	 3.9548218162	 1.6849622756	-3.7350562124	 0.095851
H	 4.4419300589	 3.1536286432	-2.8515858286	 0.127221
H	 5.3928910984	 1.6821790924	-2.6837415139	 0.128766
H	 1.5721746768	-3.6112187257	-2.0662001519	 0.204886
