21
gdb 118418	1.61619	1.13696	0.7695	2.1415	75.6	-0.2445	-0.018	0.2265	1545.871	0.178887	-461.370443	-461.358997	-461.358053	-461.408505	39.184	
C	-0.972782864	 1.6876733467	 0.3708875177	-0.4823
C	-0.4374138276	 0.2798474554	 0.18821021	 0.384902
O	 0.7466539494	 0.0562598005	 0.0680884572	-0.313597
C	-1.4705083394	-0.8484502266	 0.1229919507	-0.110468
C	-1.8175339089	-1.0651982455	-1.3737991376	-0.078394
O	-2.900158956	-1.9530896409	-1.5693452705	-0.419256
C	-0.9559636072	-2.1401947862	 0.7668342712	-0.179902
C	-0.7798254995	-2.0435077683	 2.2777775504	-0.087277
O	-0.4024931415	-3.3292949757	 2.7453904983	-0.4199
H	-0.1738237122	 2.4160288972	 0.2270257857	 0.142502
H	-1.7982364565	 1.8904328128	-0.3200631583	 0.139954
H	-1.380764974	 1.7914283527	 1.3838011414	 0.143961
H	-2.3949621782	-0.5203902045	 0.6150180659	 0.08132
H	-2.1297786122	-0.1167149942	-1.8236227744	 0.111012
H	-0.9126268465	-1.398446037	-1.9025386809	 0.110847
H	-2.5914395626	-2.8471359945	-1.3952997647	 0.290986
H	-1.661539315	-2.9559551993	 0.5709639142	 0.091326
H	 0.0048300022	-2.4095277949	 0.317250276	 0.127395
H	-0.0117943782	-1.2921339009	 2.5152497564	 0.09953
H	-1.7242841083	-1.71347366	 2.7429080615	 0.080752
H	-0.2093773636	-3.2640679669	 3.6849800799	 0.286606
