18
gdb 81149	2.47379	1.66607	1.23687	5.6409	76.34	-0.2367	0.0234	0.2601	1043.8408	0.150547	-398.103957	-398.096039	-398.095095	-398.136156	31.089	
N	 0.2795277472	 1.4236526341	 0.1424627993	-0.531866
C	 0.0832916953	-0.0005746431	 0.026484206	 0.047503
C	-1.3667359953	-0.6201385415	-0.0404994011	-0.091131
C	-1.384972066	-0.2023796572	-1.5404471171	-0.287696
C	 0.125742198	-0.5911550548	-1.426863102	 0.217972
N	 0.1211600485	-2.0421545937	-1.127288689	-0.335895
C	-1.0159446296	-2.1112505556	-0.1463867184	-0.175497
C	 1.1058451781	-0.1793739682	-2.4079898834	 0.191091
N	 1.8634872515	 0.1679829047	-3.2085656537	-0.342861
H	-0.4259301245	 1.9587207442	-0.3521744821	 0.232788
H	 0.2336128622	 1.7012287501	 1.1168248915	 0.238091
H	 0.7766121528	-0.5027726574	 0.7057047159	 0.099718
H	-2.1516105429	-0.3265891837	 0.6558426108	 0.074302
H	-1.9905878092	-0.78838064	-2.2368811388	 0.103781
H	-1.5591005867	 0.8614896487	-1.7052219514	 0.113765
H	-0.1050996212	-2.5613095336	-1.9699463571	 0.229044
H	-0.677184155	-2.5351685978	 0.8045685424	 0.112187
H	-1.8468953131	-2.7197543751	-0.5181611716	 0.104702
