20
gdb 96620	2.72149	1.16871	0.84524	1.1371	81.74	-0.2323	-0.0189	0.2134	1398.3387	0.16941	-436.497965	-436.487148	-436.486204	-436.534521	37.77	
C	 0.5838638838	 1.5901413276	 0.1282217054	-0.344954
N	 0.4970745564	 0.1446504726	 0.2272755188	-0.301488
C	 0.5689994726	-0.5211350519	-0.8635533994	 0.267539
N	 0.6932103115	-0.0150644221	-2.1308671268	-0.531372
C	 0.5624786427	-2.0549628604	-0.9139785209	 0.405136
O	 1.0177853392	-2.5693152006	-1.9351737896	-0.412741
N	 0.0981215117	-2.8005486024	 0.1222407997	-0.107657
C	 0.1988463014	-4.250278544	 0.0156380152	-0.341778
C	-0.6033368745	-2.3344792924	 1.3104395306	-0.339213
H	 1.5471326845	 1.9229252084	-0.2935085141	 0.108779
H	-0.2122895584	 2.013240765	-0.5042002778	 0.117757
H	 0.494565182	 2.0310011223	 1.1239227929	 0.124515
H	 1.0298767937	 0.9265322872	-2.240146706	 0.254069
H	 1.0004707002	-0.7004196576	-2.808276206	 0.27332
H	 0.6552960218	-4.6545893002	 0.9263848095	 0.123384
H	-0.7965039296	-4.6995278412	-0.0953203937	 0.123708
H	 0.8056185197	-4.5045635033	-0.8500819436	 0.16788
H	-0.6816122984	-1.2528108045	 1.3020652771	 0.179608
H	-1.5988146279	-2.7960608477	 1.3500367663	 0.112718
H	-0.0548233823	-2.640080155	 2.2103513723	 0.120792
