27
gdb 121916	3.40124	0.67347	0.59115	0.9123	94.28	-0.2482	0.0844	0.3326	2034.4607	0.24913	-390.699494	-390.687336	-390.686391	-390.737779	43.542	
C	-0.0477016647	 1.5405093937	 0.0902812039	-0.385272
C	-0.0042449235	 0.0227735039	 0.0287308866	-0.026409
O	 0.6733075086	-0.4568174743	 1.1698902627	-0.244592
C	 0.7779027523	-1.8657302798	 1.2090439955	-0.062715
C	 1.5175641226	-2.2795529528	 2.4867723612	 0.027474
C	 0.7591193932	-1.7475320367	 3.713350606	-0.406736
C	 1.7486690041	-3.8117904468	 2.542663242	 0.044499
C	 2.5624234318	-4.336568008	 1.3473281927	-0.396422
C	 2.4369972601	-4.240007979	 3.8488114087	-0.397108
H	 0.9652942722	 1.9522876608	 0.1140056646	 0.125707
H	-0.5667634303	 1.9437633455	-0.7844400779	 0.112949
H	-0.5731165915	 1.8733256418	 0.9900238532	 0.125363
H	-1.026338077	-0.3921057909	-0.0107725901	 0.082987
H	 0.5105819684	-0.3117209189	-0.8886577728	 0.082474
H	-0.2284732071	-2.3235960949	 1.1923898885	 0.077181
H	 1.3078757884	-2.2166200868	 0.3112199508	 0.083059
H	 2.5030062446	-1.7918323677	 2.4534563859	 0.074745
H	-0.1784237523	-2.2984533479	 3.8611563367	 0.103436
H	 1.3478577934	-1.8365027352	 4.629314608	 0.110992
H	 0.5112764634	-0.6942180098	 3.5696532992	 0.131277
H	 0.7594636322	-4.2941770838	 2.5155981211	 0.067874
H	 3.5328877581	-3.8295379712	 1.2823464797	 0.112498
H	 2.7587500768	-5.4079991676	 1.4591329371	 0.10834
H	 2.0498746288	-4.199765125	 0.3917711128	 0.114184
H	 1.8359976555	-4.0097954766	 4.731587881	 0.116093
H	 2.6216252509	-5.3192171212	 3.8484762267	 0.107393
H	 3.4066222209	-3.739753241	 3.9626159962	 0.110728
