18
gdb 44209	3.8469	1.1831	1.11952	3.9788	76.75	-0.2414	0.008	0.2495	1139.6451	0.148614	-401.92877	-401.921144	-401.9202	-401.961125	29.762	
O	-0.0257324229	 0.1050931796	-0.1622152475	-0.34354
C	 0.0198837602	 1.2933212903	-0.0211708032	 0.428107
N	-0.9994156435	 2.2713581761	 0.0167321485	-0.344138
C	-0.0298697215	 3.3662699055	 0.1131344946	-0.087676
C	 1.1037881389	 2.3472676307	 0.1516455913	-0.322377
C	 0.9632824215	 3.3375710222	-1.0017688807	 0.36179
C	 0.699903055	 3.1304860663	-2.4997843528	-0.297779
C	 1.3771393939	 4.5110219262	-2.7519130947	-0.206378
C	 1.9360336167	 4.4888603312	-1.297972846	-0.305558
H	-1.779611234	 2.2675383255	-0.6315271377	 0.240465
H	-0.2028360007	 4.2041784649	 0.7771441695	 0.110907
H	 1.9840170003	 2.3040206579	 0.7778901253	 0.113777
H	 1.2743463759	 2.2968095912	-2.9131739726	 0.119884
H	-0.3423482529	 3.0207205693	-2.8103493709	 0.099156
H	 2.112648891	 4.55557808	-3.5568687173	 0.106626
H	 0.6471069304	 5.3098050185	-2.9018218021	 0.108723
H	 1.8236709383	 5.3974908562	-0.7001396787	 0.105861
H	 2.9828547435	 4.1736238185	-1.257008585	 0.112147
