20
gdb 40359	3.74004	1.30819	1.20935	2.1389	78.29	-0.2336	0.0844	0.3179	1093.8565	0.172733	-403.089189	-403.081779	-403.080835	-403.121106	30.166	
C	-0.1837730856	 1.2347590819	-0.3730641614	-0.231693
C	 1.217250565	 1.0252964292	 0.0859803516	-0.23586
N	 0.2482352655	-0.0686577283	 0.1164697145	-0.166061
C	-0.2158298248	-0.5175678639	 1.3937038392	 0.329671
C	-0.5653685078	 0.3523040401	 2.6692984001	-0.29559
C	-1.2423485544	-0.9824540938	 3.060607577	 0.105649
C	-1.6254537446	-1.1588676103	 1.5719310029	-0.277404
O	-0.1365474365	-1.884217487	 3.2346656012	-0.277934
C	 0.6492927907	-1.603216679	 2.0588697076	-0.10567
H	-0.8270154594	 1.8397964997	 0.2617793234	 0.112402
H	-0.4158323751	 1.2798138402	-1.4331112764	 0.118921
H	 2.0259861602	 0.9192069333	-0.6310937529	 0.119232
H	 1.4994741003	 1.4841712071	 1.0313902736	 0.11703
H	 0.2476879375	 0.7008871044	 3.3103329091	 0.099364
H	-1.280260936	 1.1510256256	 2.4640317339	 0.100497
H	-1.9420428801	-1.086796568	 3.8869181621	 0.08267
H	-2.4305342172	-0.4964638032	 1.2481724663	 0.098647
H	-1.7783315991	-2.176802302	 1.2070291679	 0.103807
H	 0.7503749297	-2.498101062	 1.4350416192	 0.106219
H	 1.6469389017	-1.2460147439	 2.3410320612	 0.096102
