17
gdb 53463	4.31662	0.47464	0.44838	2.8786	86.72	-0.2456	-0.0282	0.2174	2388.9844	0.131521	-384.645783	-384.634789	-384.633845	-384.687746	35.389	
C	-0.074782266	 1.3887173606	-0.5614604727	-0.495924
C	-0.011925762	-0.0198689143	-0.1991470616	 0.065369
C	 0.0380560329	-1.1835755847	 0.1003821876	 0.083639
C	 0.1069651207	-2.6006894948	 0.4641198614	-0.496181
C	-1.2046351034	-3.2424092079	 0.5868866924	 0.101355
C	-2.2795198006	-3.7691550989	 0.7074131399	 0.042918
C	-3.5757699149	-4.425884795	 0.7892822741	-0.412805
C	-3.9875560595	-5.0670930173	-0.5382499254	 0.170347
O	-4.5679892313	-6.1148064307	-0.6195472844	-0.230562
H	 0.3910892488	 2.0183072961	 0.2044923219	 0.149116
H	 0.4422014233	 1.5801689732	-1.5081290997	 0.149093
H	-1.1122261711	 1.720971421	-0.677387785	 0.150683
H	 0.7065894408	-3.1433646397	-0.2802090526	 0.15842
H	 0.6506993923	-2.7118865226	 1.4128821885	 0.159221
H	-3.6077606981	-5.1971234091	 1.5657541079	 0.154009
H	-4.3563520325	-3.6902317808	 1.0384220986	 0.156283
H	-3.7156752795	-4.4705830052	-1.435965251	 0.095019
