17
gdb 88035	2.39447	1.36048	1.08115	3.0938	73.09	-0.2683	-0.01	0.2582	1164.3459	0.135287	-417.968225	-417.959554	-417.95861	-418.002006	31.386	
C	-0.0282461897	 1.5688060521	-0.0020060862	-0.398119
C	-0.083570768	 0.0697951873	 0.1537409881	-0.065797
N	 1.140791718	-0.686376148	-0.1999415654	-0.375656
C	 0.6992321367	-0.6504390858	 1.1778378772	 0.25889
C	 1.5103740257	-0.1643861465	 2.3727588853	-0.132294
O	 0.9837430696	-1.2494026962	 3.1861266675	-0.280205
C	 0.267300232	-1.8221831454	 2.0791147851	-0.084215
C	-1.1692552971	-1.9685655833	 2.3275154898	 0.286728
N	-2.3091514949	-2.078241208	 2.4840127362	-0.324427
H	 0.9581163129	 1.9508802221	 0.2747531176	 0.128521
H	-0.2202826247	 1.8558942114	-1.0405914788	 0.131306
H	-0.7817410574	 2.0519307857	 0.6285621046	 0.130479
H	-1.0361359861	-0.3901354617	-0.1072643307	 0.110305
H	 0.9161253738	-1.5761786741	-0.6392728085	 0.23928
H	 2.59656626	-0.2365173939	 2.2510088416	 0.123589
H	 1.2428201506	 0.814746962	 2.7838940469	 0.124656
H	 0.6812062987	-2.7976765377	 1.7872339899	 0.126959
