18
gdb 15537	3.44438	1.77512	1.3126	0.6034	78.4	-0.2429	0.021	0.2639	960.45	0.153629	-310.650675	-310.642725	-310.641781	-310.682714	30.563	
C	 0.4534831956	 1.5573522646	-0.3490092835	-0.388533
C	 0.0284494088	 0.1357662931	 0.052031176	-0.037282
C	 0.1989923828	-0.8443192007	-1.0888189598	-0.065348
C	 1.2341481906	-1.6630721014	-0.9148066849	-0.073073
C	 1.939071613	-1.4173106378	 0.3959789119	-0.261761
C	 0.9129677111	-0.5315368238	 1.1678773999	-0.178586
C	 1.5093751344	 0.3768208007	 2.1340726297	 0.323889
C	 2.0091438558	 1.1198878978	 2.9371791014	-0.468194
H	 1.496337023	 1.580231693	-0.6810041448	 0.119646
H	-0.1678229922	 1.9216978514	-1.1737585395	 0.108219
H	 0.3504611296	 2.2497425204	 0.4907995535	 0.126194
H	-1.012408533	 0.1791541932	 0.3945289114	 0.079753
H	-0.4328347266	-0.8109305736	-1.9702486459	 0.091797
H	 1.5744193073	-2.4050345	-1.6287881355	 0.093782
H	 2.1733526442	-2.3332587773	 0.948280621	 0.110592
H	 2.8911335458	-0.8918570303	 0.2462568904	 0.11839
H	 0.2524551889	-1.2188676736	 1.7106061051	 0.109034
H	 2.449778521	 1.7745618444	 3.6475075437	 0.191484
