21
gdb 61521	2.73489	1.04167	0.83508	4.6409	83.58	-0.2384	0.0352	0.2736	1432.3487	0.18102	-383.264276	-383.254159	-383.253215	-383.299852	37.502	
C	-0.0221886191	-3.0118300252	 0.3805662789	-0.398776
C	 0.5885571946	-2.3235079319	 1.6176328256	-0.114154
N	 0.8890484422	-0.9024692076	 1.455730852	-0.330449
C	 2.2490426625	-0.5368210527	 1.1384255061	 0.337753
C	 2.821359304	-0.9777315535	-0.2005285638	-0.453392
C	 2.6700624974	 0.8058773338	 1.6827117962	-0.303425
C	 3.1808902772	-0.461472974	 2.3261721475	-0.277612
C	-0.3168130299	-2.507375002	 2.7744934215	 0.287153
N	-1.036341317	-2.6593000046	 3.6659067355	-0.326674
H	 0.6679379584	-2.947710713	-0.4634136853	 0.130037
H	-0.2366054317	-4.0650584876	 0.5830044439	 0.139331
H	-0.9622743116	-2.5256690261	 0.1015869361	 0.13406
H	 1.527889289	-2.8250869132	 1.877359781	 0.134493
H	 0.2194128519	-0.4547963994	 0.8403318327	 0.221718
H	 2.206410703	-0.6090003971	-1.0302032502	 0.112363
H	 3.8355595443	-0.5914234044	-0.3405700695	 0.118122
H	 2.8748929717	-2.0696485865	-0.2800740119	 0.11604
H	 3.3597155439	 1.4003410725	 1.0934759856	 0.111289
H	 1.9240595364	 1.3723075474	 2.2268811548	 0.12333
H	 2.7744738386	-0.7249114888	 3.2953518214	 0.126776
H	 4.2198403542	-0.733714796	 2.1761276921	 0.112017
