18
gdb 39908	4.04405	1.48291	1.36484	1.199	84.96	-0.2035	-0.0379	0.1656	986.8076	0.148565	-364.671369	-364.664553	-364.663609	-364.702235	28.536	
C	-0.1273069306	 1.455375691	 0.1178397992	-0.315217
C	 1.2633993124	 0.904148298	-0.0201754558	-0.313796
C	 0.0748769667	-0.0415947855	 0.0304312737	 0.350908
C	-0.3741138198	-0.9402151055	 1.1378911226	-0.203736
C	-0.6260226698	-2.1693154181	 0.620726361	-0.00914
C	-2.0515014856	-2.3475654123	 0.0843565361	-0.165231
N	-1.4833823312	-1.8803311895	-1.2624913444	-0.163951
C	-0.1197893616	-2.2809973797	-0.824331659	-0.081523
C	-0.2869724437	-0.8745930045	-1.1905540187	-0.094172
H	-0.4285844763	 1.8698827982	 1.0741200906	 0.119247
H	-0.5727979178	 1.9441169438	-0.7424059652	 0.121847
H	 1.7739215745	 1.0241815471	-0.9703147071	 0.117303
H	 1.9149558506	 0.9209779907	 0.8457819004	 0.124243
H	-0.975996295	-0.5333073389	 1.9473256289	 0.09602
H	-2.4070976601	-3.3687111299	-0.0835835023	 0.116789
H	-2.8396733956	-1.7304499255	 0.5247157097	 0.110225
H	 0.4531211938	-3.0712952535	-1.2966112111	 0.093214
H	-0.0969837509	-0.5033599759	-2.1937299086	 0.096971
