19
gdb 55063	3.53601	0.8161	0.75513	4.1923	78.63	-0.2454	-0.0268	0.2186	1543.5563	0.156272	-423.048233	-423.038417	-423.037473	-423.084216	34.464	
C	-0.0951219069	 1.4946350394	 0.0413382743	-0.483779
C	 0.1532904637	-0.0010395244	 0.0544543882	 0.39484
O	 0.4801578667	-0.5859099711	 1.0689225662	-0.326963
C	-0.0301872595	-0.7069648948	-1.2480197986	-0.141637
C	 0.7052929867	-2.0156337066	-1.4740402809	-0.284037
C	-0.7788329235	-2.0483831044	-1.3071097714	-0.016103
C	-1.4342772522	-2.6699548773	-0.0884916429	-0.313718
C	-1.4836545045	-4.1792120131	-0.2006786236	 0.165419
O	-2.4699685973	-4.8501313446	-0.0391918313	-0.240974
H	 0.5921582861	 1.9848793778	-0.6580018267	 0.142448
H	-1.1107110273	 1.7078326651	-0.3114992494	 0.14258
H	 0.0439222794	 1.9047240675	 1.0419022049	 0.144105
H	-0.1786665787	-0.0626833395	-2.1078233264	 0.092254
H	 1.1348390494	-2.1902868678	-2.4536095445	 0.122786
H	 1.307734571	-2.3435514277	-0.6333212438	 0.142343
H	-1.3512412086	-2.1664687384	-2.2235424624	 0.106981
H	-0.8433181654	-2.4199315655	 0.8013802817	 0.160928
H	-2.4534847653	-2.3005449229	 0.059098054	 0.11781
H	-0.5038393238	-4.6493340216	-0.4496830773	 0.074717
