17
gdb 32014	2.87369	1.34945	0.97684	2.1052	80.21	-0.2322	-0.0512	0.181	1210.9169	0.136939	-418.056106	-418.047861	-418.046917	-418.089698	30.388	
C	 0.4592352717	 0.6648588883	-0.7133375457	-0.383322
C	-0.3642203318	 0.3665711218	 0.5516960214	-0.270295
C	 0.4663352249	-0.2044349674	 1.6603724305	 0.423021
N	 0.6750568859	 0.4155654983	 2.7626905624	-0.323694
C	 1.4771626057	-0.2334391081	 3.6935020714	-0.018639
C	 2.0264452166	-1.4450306011	 3.4864730167	-0.141912
C	 1.7873761093	-2.1351420597	 2.2390705958	 0.374367
N	 2.2472171204	-3.2727932656	 1.9266655334	-0.534569
O	 0.9636787706	-1.4269122003	 1.3448607281	-0.256606
H	 0.9381625844	-0.2416896552	-1.0916800973	 0.135938
H	-0.1884468724	 1.0639038125	-1.4983177852	 0.125706
H	 1.2384891509	 1.4043448118	-0.5067187143	 0.132564
H	-0.8332451655	 1.2742311701	 0.9354084319	 0.135568
H	-1.1564278644	-0.3519367182	 0.3096977314	 0.127379
H	 1.6367366811	 0.310250569	 4.6189758343	 0.122629
H	 2.6501116964	-1.9428790639	 4.2164584873	 0.12876
H	 1.9387191364	-3.5495809622	 0.994550148	 0.223105
