17
gdb 75299	2.36735	1.97112	1.18964	2.3154	74.16	-0.2439	-0.0097	0.2342	1028.5239	0.137167	-418.045	-418.037258	-418.036314	-418.077443	29.11	
C	-0.046733765	 1.4853215163	 0.0406640173	-0.474764
C	-0.0653086492	-0.0001519933	-0.0634168524	 0.312629
N	-0.125096291	-0.6815419952	-1.1374925551	-0.255119
C	-0.0197390964	-2.1161217092	-0.8125764822	-0.199113
C	 0.0004147563	-2.2058298966	 0.7347112883	 0.010252
C	 1.3148934931	-2.4355018538	 1.5313217226	-0.390084
C	 1.2687508829	-0.9241695477	 1.828885	 0.388479
O	 1.9704123592	-0.1162473756	 2.3586068094	-0.311996
N	 0.0244002343	-0.771592928	 1.1391915984	-0.156588
H	 0.830270382	 1.8019644675	 0.6157223484	 0.162404
H	-0.0223429175	 1.9308834087	-0.9536678707	 0.148011
H	-0.9292526304	 1.8385844894	 0.5840683186	 0.146403
H	-0.8726662638	-2.6549615802	-1.2350816027	 0.122533
H	 0.8822491261	-2.5245939544	-1.285869593	 0.116536
H	-0.864836235	-2.7365450337	 1.1367224242	 0.097642
H	 1.2620706087	-3.0907207611	 2.4033704921	 0.139545
H	 2.1815906557	-2.7119092531	 0.9248560469	 0.143229
