18
gdb 12483	2.78855	2.22676	1.5227	2.8939	67.04	-0.2661	-0.0034	0.2628	880.8268	0.15562	-384.980094	-384.97271	-384.971766	-385.011959	28.035	
O	 0.4703526773	 0.0950911112	-0.0731680159	-0.311164
C	-0.0253748936	 1.1816560453	 0.0300512184	 0.407611
C	-1.5037491895	 1.4912056404	-0.0164205065	-0.300843
C	-1.7885352994	 2.629654551	-1.0279777742	-0.188933
C	-0.8652559608	 2.6538939298	-2.2703385596	-0.207134
C	 0.4922286911	 3.3577157847	-2.0537048926	-0.184261
C	 1.4334695868	 2.6442739338	-1.0813972371	-0.094135
O	 0.7220010052	 2.3318621704	 0.1301288279	-0.249176
H	-2.0234059508	 0.5680211952	-0.2839379039	 0.126744
H	-1.8449265915	 1.7849319652	 0.9827441592	 0.130768
H	-2.8283490227	 2.5300393425	-1.3560466388	 0.103499
H	-1.7144830498	 3.5960864969	-0.5192898726	 0.110304
H	-0.7055318128	 1.6315297066	-2.6396237345	 0.110032
H	-1.3864695784	 3.1842125833	-3.0746015095	 0.10174
H	 1.0088074244	 3.466848783	-3.0155584074	 0.099796
H	 0.302448408	 4.3721232971	-1.6814188995	 0.106346
H	 1.8383618266	 1.7187499111	-1.5066252137	 0.12359
H	 2.2701321398	 3.2852428225	-0.7936802998	 0.115217
