19
gdb 8423	3.48312	1.87953	1.59093	2.2889	71.57	-0.2246	0.0694	0.294	893.8929	0.164146	-365.01303	-365.004808	-365.003863	-365.04484	31.996	
C	-0.1457983923	 1.5216250688	-0.1040683681	-0.310928
N	 0.0900345974	 0.095563234	 0.0896362493	-0.084074
C	 1.3611401948	-0.5467354293	-0.1212821923	-0.033849
C	 2.5548357454	 0.2997452902	 0.3581253651	-0.329392
C	 1.9324272373	 0.2829455017	 1.80309795	 0.387905
C	 2.738435359	-0.5660086675	 2.7820485602	-0.441838
O	 1.5796576803	 1.5252426426	 2.3886861928	-0.471325
C	 0.7166289719	-0.4866487811	 1.2494983536	-0.07657
H	 0.6615962212	 2.1780059852	 0.235125049	 0.12239
H	-0.3290373613	 1.69415053	-1.1697211683	 0.111484
H	-1.0510995496	 1.7967623012	 0.4451169312	 0.123302
H	 1.4177165436	-1.3814620127	-0.8119346192	 0.090147
H	 3.5113586812	-0.2258422841	 0.3029778114	 0.098947
H	 2.6618266163	 1.2836727597	-0.1057043686	 0.099942
H	 3.6898202827	-0.0770442719	 3.0265307498	 0.106116
H	 2.1753937795	-0.7062199265	 3.7103686773	 0.124987
H	 2.9684577615	-1.5500459294	 2.3631956991	 0.123709
H	 2.3765512086	 1.9169777861	 2.7627668028	 0.275391
H	 0.1749592027	-1.246202017	 1.806302435	 0.083656
