16
gdb 124184	5.15756	0.77768	0.68145	4.3932	77.97	-0.2465	0.0008	0.2473	1594.6042	0.124569	-396.908314	-396.899423	-396.898478	-396.944407	30.484	
C	 0.2415136698	 1.334532047	-0.7773685317	-0.497731
C	 0.0731522503	-0.0109982674	-0.245843852	 0.073253
C	-0.0524397397	-1.1216996173	 0.2010466093	 0.061092
C	-0.2050346561	-2.4687022511	 0.742812276	-0.470672
C	-1.4666598968	-3.1566439217	 0.3006403677	 0.319956
C	-2.4777881279	-2.7189717069	-0.5198551584	-0.145475
N	-3.3409282224	-3.7621102652	-0.5525544085	-0.160213
N	-2.9045398279	-4.7897808008	 0.1967771269	-0.116979
N	-1.7679797817	-4.4225420494	 0.714152087	-0.251007
H	 1.1749721506	 1.7849397432	-0.4223485486	 0.151831
H	 0.2727832145	 1.3314472498	-1.8725325539	 0.147129
H	-0.5793021806	 1.9920272295	-0.4702330288	 0.147129
H	 0.655396085	-3.087535494	 0.455875183	 0.152131
H	-0.1852715246	-2.4355640597	 1.8401437794	 0.152133
H	-2.6379288737	-1.7975004131	-1.0513637067	 0.155514
H	-4.2160635887	-3.8472328329	-1.0440198105	 0.281909
