18
gdb 44483	3.60011	1.61045	1.48251	3.5132	74.25	-0.2381	-0.0147	0.2234	930.2551	0.151371	-401.943525	-401.937223	-401.936279	-401.974011	26.679	
O	 0.0239487257	 0.0450898841	-0.201610549	-0.325028
C	-0.0270268268	 1.2286537527	-0.0100611958	 0.437689
C	-1.2896791678	 2.0986343343	 0.1623014806	-0.373097
C	-0.6830398306	 3.4474865508	 0.5154435216	 0.019395
C	 0.1604782366	 4.2465774895	-0.5393013144	-0.04459
C	 1.0837784895	 4.5162834096	 0.6684595646	-0.169976
N	 0.6705231207	 3.1542856565	 1.169286194	-0.143788
C	 1.1193384746	 2.2272566085	 0.0747092512	-0.098237
C	 0.9500110194	 3.117738904	-1.220756205	-0.260675
H	-1.8956014257	 2.0893018297	-0.7484792598	 0.134034
H	-1.9049728589	 1.7005144116	 0.9746750267	 0.141549
H	-1.2932226788	 4.0852981351	 1.1561109219	 0.08595
H	-0.2549175056	 5.0341844673	-1.1699467671	 0.067508
H	 2.1553706605	 4.6498782243	 0.493517872	 0.10237
H	 0.7167853533	 5.2800650651	 1.358186248	 0.110658
H	 2.1025596515	 1.7929563069	 0.2406770179	 0.090395
H	 0.4072496751	 2.6089609092	-2.022374525	 0.114171
H	 1.9077733372	 3.4559905707	-1.6233984421	 0.111673
