15
gdb 29737	3.34606	1.34238	0.96385	5.5655	77.7	-0.2085	-0.0103	0.1982	1138.3079	0.11333	-416.861552	-416.852954	-416.85201	-416.895448	30.666	
C	 0.0113547881	 1.4407471554	 0.0331699539	-0.350437
N	 0.0248319438	-0.0116223196	 0.0205317007	-0.121442
C	 0.1206281156	-0.7838109684	-1.0907329817	 0.372392
O	 0.1956247323	-0.1493184218	-2.2807281017	-0.432729
C	 0.121344121	-2.1233293566	-0.7407570555	-0.285524
C	 0.0219585122	-2.1645621128	 0.6671241358	-0.222106
C	-0.0356938106	-0.8613217245	 1.1288676274	 0.187914
C	-0.1413824859	-0.3635869971	 2.4395743382	 0.207315
N	-0.229109351	 0.0647304405	 3.5155237542	-0.37441
H	 0.9728894364	 1.842382756	-0.2997509792	 0.149956
H	-0.7736846764	 1.8181494032	-0.626574818	 0.152428
H	-0.1820642124	 1.7767524555	 1.052043983	 0.171289
H	 0.2453695424	-0.8081509087	-2.9803206199	 0.315591
H	 0.1845505133	-2.9595696836	-1.4190284384	 0.105563
H	-0.0078632188	-3.0436202572	 1.2909362512	 0.1242
