16
gdb 34384	2.62364	1.68673	1.33265	5.5726	73.25	-0.2431	-0.0011	0.242	981.3318	0.126637	-396.942007	-396.934556	-396.933612	-396.974293	28.388	
N	 0.1430999233	-1.1204703965	-0.2933235245	-0.345641
C	 0.0562796864	 0.0174252674	-0.1090994059	 0.246816
C	-0.0001556158	 1.4614779348	 0.0868508306	 0.18379
C	-0.438777975	 2.2914228009	-1.1670092385	-0.262782
C	 0.9505016852	 2.9958456099	-1.1982534045	-0.216367
C	 1.3782288092	 2.2514986788	 0.0920060158	-0.065641
N	 1.2551381751	 3.0190384523	 1.3294362294	-0.29561
C	 0.0844503964	 2.6261031198	 1.9508087498	 0.058857
N	-0.6892958545	 1.8115305416	 1.3371700477	-0.281095
H	-0.6795477185	 1.6933429045	-2.047011688	 0.127071
H	-1.2854623938	 2.9379007772	-0.9322239675	 0.127594
H	 1.5559463953	 2.7269590985	-2.0667940477	 0.117196
H	 0.9350065892	 4.082753292	-1.0999331764	 0.113258
H	 2.3100659819	 1.6848691309	 0.0477423383	 0.101887
H	 2.0725743309	 3.2068811	 1.8903580809	 0.252985
H	-0.1614449053	 3.0494477079	 2.9205185606	 0.13768
