21
gdb 84068	2.27604	1.5211	1.00388	3.1019	85.95	-0.2324	-0.0365	0.1959	1252.1821	0.181629	-387.146492	-387.136821	-387.135877	-387.181075	35.808	
C	-0.0374216573	 1.5909805261	-0.1685784479	-0.389956
C	 0.0113289708	 0.0637374595	 0.0215547146	-0.05801
C	 0.6869301143	-0.607228598	-1.1529165521	-0.153939
C	 1.831429881	-1.2355668117	-0.8504940154	 0.202134
C	 2.7928055914	-1.9502086753	-1.7428323206	-0.492687
C	 2.0743498197	-1.1056564366	 0.6096763068	 0.325263
O	 3.0646234861	-1.4699777227	 1.2050452031	-0.341944
C	 0.8394880345	-0.4402632287	 1.2392965785	-0.10839
C	 1.2046098125	 0.5475569444	 2.3474595782	-0.40451
H	 0.9670990786	 2.0132446499	-0.2695240356	 0.122868
H	-0.5955775324	 1.8432704102	-1.0762134838	 0.114303
H	-0.5318986055	 2.080689618	 0.6751632738	 0.12183
H	-1.0269834793	-0.2855765438	 0.0989492319	 0.082573
H	 0.2722169721	-0.5309758454	-2.1548025814	 0.101808
H	 3.7919026643	-1.5091825488	-1.6587449012	 0.143962
H	 2.8955777561	-2.9986504645	-1.4415697092	 0.140116
H	 2.4796446581	-1.9162238909	-2.7893277433	 0.119194
H	 0.28235111	-1.2685208725	 1.699530035	 0.106342
H	 1.7399752581	 1.4182512208	 1.9584468712	 0.11984
H	 0.3173563704	 0.9033927899	 2.8794877299	 0.110561
H	 1.8636593466	 0.0500341202	 3.0638154678	 0.138641
