17
gdb 127235	5.7245	0.92507	0.8453	3.5446	77.13	-0.2294	0.0175	0.2469	1360.5265	0.136942	-418.001876	-417.993543	-417.992599	-418.036193	29.529	
C	-0.1605241102	 1.4390185993	 0.1269603884	-0.319479
N	-0.0230565786	 0.004856521	-0.007271102	 0.060871
C	-0.1035465913	-0.7373491127	-1.1390978657	-0.148826
C	 0.1670412056	-2.046682326	-0.7862739092	 0.200972
C	 0.3962694022	-1.9814909641	 0.6076166357	-0.084755
N	 0.2828009	-0.7412398141	 1.0724936712	-0.267172
C	 0.1985648547	-3.2327284356	-1.661044212	-0.043021
C	 1.2605105139	-4.2530368958	-1.5790696943	-0.180906
O	-0.0333550688	-4.5028420834	-1.0351005971	-0.233141
H	 0.817924078	 1.9303416311	 0.1485274127	 0.144554
H	-0.7372190788	 1.8261620912	-0.7152953438	 0.138455
H	-0.6855455287	 1.6576825733	 1.0580481314	 0.158566
H	-0.3441198496	-0.2900602751	-2.0911074811	 0.132093
H	 0.609368703	-2.7969721448	 1.2821599759	 0.123671
H	-0.300845074	-3.1167187734	-2.6236192375	 0.088155
H	 1.520705756	-4.837339485	-2.4615010685	 0.11417
H	 2.0592358165	-4.1236596658	-0.8501408643	 0.115794
