18
gdb 53019	4.68887	0.95286	0.90545	1.6313	86.74	-0.2386	0.0251	0.2637	1358.0922	0.1478	-364.733726	-364.725452	-364.724508	-364.768305	30.711	
C	-0.0280758051	 1.4774798312	-0.004364922	-0.513813
C	-0.0023478665	 0.0232755523	-0.0156021372	 0.366719
C	 0.020073831	-1.1817902174	-0.0313066214	-0.357119
C	 0.0454838784	-2.6120399742	-0.042773726	 0.260319
C	 1.1982887572	-3.4158977986	 0.612789271	-0.280546
C	 0.9037935157	-4.4399687131	-0.4626731359	-0.048297
C	-0.5679338086	-4.4641202841	-0.7119899005	-0.048298
C	-1.2326305211	-3.4557897495	 0.2009814832	-0.280546
N	 0.2870220193	-3.4278342189	-1.3895522702	-0.186968
H	 0.7540166086	 1.8860449412	 0.6450490867	 0.149976
H	 0.1337646631	 1.8789845315	-1.010895739	 0.155332
H	-0.9915854191	 1.8573883302	 0.3529206602	 0.149977
H	 2.1584072992	-2.9251642328	 0.4401825276	 0.120092
H	 1.0962380934	-3.685253211	 1.6691684354	 0.098354
H	 1.5649573265	-5.2083215333	-0.8460596445	 0.098186
H	-1.0411259742	-5.2510886107	-1.2875408873	 0.098186
H	-1.4755686085	-3.7274576862	 1.2334936157	 0.098354
H	-2.0975095494	-2.9950045268	-0.2807873458	 0.120092
