19
gdb 37975	2.58888	1.98211	1.42058	1.2121	73.87	-0.2296	0.0778	0.3075	954.8412	0.162125	-422.981856	-422.974939	-422.973995	-423.012978	28.354	
C	-0.0556875206	 1.3593139892	-0.0404315346	-0.075386
C	 1.329353834	 2.0020640071	 0.0637334932	-0.234178
C	 2.1458499779	 1.558254999	 1.2659051571	 0.127234
O	 1.4049368143	 1.5282381205	 2.5287095018	-0.307167
C	 1.9138959005	 0.2198450156	 2.802371593	 0.073009
C	 1.3974828835	-0.7780250948	 1.8106868559	-0.058914
C	 0.0171385872	-0.6991523982	 1.1595906187	-0.116269
O	-0.0211013681	-0.053783526	-0.1000309326	-0.241027
C	 2.5791353607	 0.1022855672	 1.4505008228	-0.162161
H	-0.6767130338	 1.6884956306	 0.8045810428	 0.104311
H	-0.539416369	 1.6959127201	-0.9639525432	 0.09969
H	 1.9127199948	 1.7743729891	-0.8373040405	 0.109939
H	 1.1989568871	 3.0923286135	 0.0918487369	 0.100862
H	 3.0136136757	 2.2183071139	 1.3939297239	 0.083887
H	 2.2438349794	 0.0082676207	 3.8130849361	 0.101326
H	 1.7296223784	-1.7889070723	 2.0392258779	 0.091755
H	-0.3419320543	-1.7167293126	 0.9769198215	 0.10372
H	-0.6892097402	-0.2135501321	 1.8486903854	 0.102542
H	 3.5430557724	-0.2973663005	 1.165961584	 0.096829
