21
gdb 117151	3.87405	0.66216	0.62987	0.2553	75.54	-0.2427	-0.0126	0.2301	1821.3228	0.178904	-461.371822	-461.36041	-461.359466	-461.409852	39.143	
C	-0.0406733626	 1.516216187	 0.1033538174	-0.398335
C	 0.0523580459	-0.0206441475	 0.0014008868	-0.06776
C	 0.7002306683	-0.4519819789	-1.3152148252	-0.078674
O	-0.1318469288	 0.0042137547	-2.3728172495	-0.42693
C	 0.8405647186	-0.5660567011	 1.1889278124	 0.3647
O	 2.03864682	-0.7473911872	 1.1255660879	-0.324285
C	 0.0547969668	-0.8560977647	 2.4546343438	-0.288833
C	 0.9320112397	-1.1965621896	 3.6495689642	-0.076035
O	 0.0660442667	-1.4666297907	 4.7425705806	-0.424604
H	 0.960815477	 1.9580908086	 0.1327293724	 0.127135
H	-0.5645673332	 1.904606566	-0.7719252344	 0.145146
H	-0.5804103113	 1.8315636422	 1.001069871	 0.11603
H	-0.9659203496	-0.4280952993	 0.0345311159	 0.090019
H	 1.7113458454	-0.0279428535	-1.3770287323	 0.10727
H	 0.804166514	-1.5475669691	-1.3347492265	 0.089884
H	 0.3139804565	-0.1790144238	-3.2044637266	 0.288942
H	-0.5956116792	-0.0042383981	 2.6894029016	 0.130893
H	-0.6294197145	-1.6908516866	 2.2470626392	 0.13504
H	 1.5652150358	-2.0604233595	 3.4053796106	 0.104715
H	 1.6069483327	-0.3548314074	 3.8637871336	 0.098359
H	 0.6086156517	-1.6996129615	 5.5013776169	 0.287324
