19
gdb 7982	3.34317	1.66301	1.20901	3.7584	72.24	-0.2355	0.0373	0.2727	1037.4668	0.166365	-365.127497	-365.119206	-365.118262	-365.160086	31.111	
C	-0.1511081559	 1.583050617	 0.0151024623	-0.399138
C	 0.0546575197	 0.0713166354	 0.0183324377	 0.052621
C	 0.8401643419	-0.4692615625	-1.198706127	-0.226614
C	 1.5751153781	-1.7126186496	-0.6694428282	-0.097697
C	 2.8963089537	-2.0671070485	-1.3451899059	-0.400224
C	 1.7384211948	-1.4134348431	 0.8299197358	 0.414072
O	 2.4666797098	-1.9872722533	 1.6112375876	-0.390336
N	 0.891103974	-0.3795709968	 1.1239683598	-0.317345
H	 0.8112887702	 2.1030215229	-0.0227107649	 0.125236
H	-0.7438205564	 1.8837448431	-0.8548151705	 0.122767
H	-0.685974351	 1.9154198601	 0.9113313811	 0.115973
H	-0.9320602449	-0.4173018866	 0.064929037	 0.078371
H	 0.1867040028	-0.6727096416	-2.0504005094	 0.104187
H	 1.5733920112	 0.2836427503	-1.513036584	 0.10498
H	 0.9046085557	-2.5828553286	-0.7211814344	 0.099268
H	 3.5696995445	-1.2034256078	-1.3648144198	 0.117166
H	 3.3938153528	-2.8658638792	-0.7892010324	 0.141651
H	 2.740252261	-2.3993407555	-2.3759781686	 0.109595
H	 0.7273071577	-0.1154099257	 2.0832283538	 0.245467
