19
gdb 9609	3.02394	1.47524	1.19803	4.3165	76.65	-0.28	0.0316	0.3117	1081.2152	0.164488	-327.944318	-327.935367	-327.934423	-327.977669	32.848	
C	 0.1666685424	 1.4936490764	 0.2388408335	-0.386815
C	-0.1871541011	 0.0565616823	-0.1636346274	-0.251536
C	 0.6486638586	-0.4764996367	-1.3193384235	 0.350832
C	 0.4457618457	 0.2140200611	-2.655649529	-0.461979
C	 2.0140065274	-1.0201307244	-1.0109503184	-0.313959
C	 0.8987905793	-1.9862305074	-1.3957703402	-0.227651
C	 0.3573460495	-2.8817690391	-0.4141630454	 0.291703
N	-0.0853568859	-3.6041662989	 0.3746613091	-0.349656
H	 1.2237590932	 1.5785386962	 0.5123078229	 0.119028
H	-0.0271831913	 2.2052060631	-0.5696562697	 0.119614
H	-0.4283769061	 1.8069469553	 1.1015345155	 0.121201
H	-0.0652113001	-0.6013917825	 0.7030503069	 0.121814
H	-1.248298218	 0.0006785353	-0.4384292747	 0.106508
H	 0.7334064863	 1.2687885435	-2.6016398377	 0.12916
H	 1.048973603	-0.2506234299	-3.4416760848	 0.117703
H	-0.6042185813	 0.1682726707	-2.9649216526	 0.127023
H	 2.8124690445	-0.8887863324	-1.7329162313	 0.123966
H	 2.3372720073	-1.0375505554	 0.0238032152	 0.13509
H	 0.9476011268	-2.4143629173	-2.3916804185	 0.127952
