18
gdb 79238	2.42908	1.67899	1.41447	3.4571	70.97	-0.2197	0.0579	0.2776	996.9328	0.147513	-439.012336	-439.004221	-439.003277	-439.044401	32.341	
C	 0.0321059747	 1.6020275601	 0.0198570664	-0.525445
C	-0.0827002398	 0.1082716715	 0.0726559436	 0.159165
N	 0.5251763989	-0.6957565641	-1.0512041677	-0.36072
C	-0.493611944	-1.7289382459	-0.7544237806	-0.13857
C	-0.5232262456	-1.8314417931	 0.787169657	-0.186598
C	 0.4230328701	-0.7358619803	 1.2836424423	 0.183824
O	 1.7978387644	-0.9578178242	 1.373279856	-0.451851
C	-1.3854323366	-0.8304820271	 0.0585540246	 0.307926
O	-2.7326242243	-0.6258588432	 0.201403555	-0.442756
H	 1.0861151534	 1.8990485447	 0.0551929279	 0.141035
H	-0.4079421	 2.0163022046	-0.8948516781	 0.109846
H	-0.4773778348	 2.0585731772	 0.8739196325	 0.133356
H	 0.2860774081	-0.2468589002	-1.9342642445	 0.212571
H	-0.692599468	-2.5798208388	-1.3926291639	 0.101098
H	-0.8408483094	-2.742144134	 1.2782792128	 0.094584
H	 0.0794252644	-0.318660729	 2.2341066256	 0.088272
H	 2.0781897418	-1.1165819557	 0.4588981477	 0.282685
H	-3.0739644034	-0.2343562926	-0.6106818468	 0.291577
