18
gdb 79476	2.18636	1.90809	1.21556	4.2362	81.4	-0.2964	0.0207	0.3171	1055.6425	0.148369	-364.75967	-364.752007	-364.751062	-364.791684	29.973	
C	-0.1621425916	 1.5984550533	 0.0029026852	-0.426757
C	-0.0344893907	 0.0847474205	 0.0057378838	-0.05542
C	 1.184801397	-0.5923966824	-0.6591193787	-0.073699
C	 2.1394150045	-0.3013097693	 0.5556000219	-0.082945
C	 2.5830724459	-1.7728905506	 0.6545719608	-0.275388
C	 1.0940587235	-1.8517101302	 0.271857602	-0.078358
C	 0.7172332943	-0.6121272555	 1.1709839362	 0.25248
C	 0.3771757793	-0.6396846985	 2.5678806098	 0.152259
N	 0.0914718633	-0.6509677228	 3.689365353	-0.353067
H	 0.7885102517	 2.0884529838	 0.2357023295	 0.11997
H	-0.4912414121	 1.9558002415	-0.9786392303	 0.122713
H	-0.8998490324	 1.9298724418	 0.74095943	 0.133379
H	-0.9919958835	-0.3937044536	-0.2327057749	 0.080363
H	 1.4788511125	-0.6002612156	-1.7084518951	 0.08339
H	 2.7174267723	 0.6043354159	 0.7351767924	 0.092408
H	 3.296265643	-2.1152332405	-0.1006197478	 0.102817
H	 2.8598719808	-2.1404625734	 1.6465526369	 0.115704
H	 0.4536993923	-2.7210171545	 0.1200393253	 0.090149
