17
gdb 26329	3.46029	1.03946	0.94138	3.3922	70.54	-0.2097	0.0429	0.2526	1278.0455	0.1365	-455.189798	-455.181001	-455.180057	-455.22351	33.004	
C	 0.0202617543	 1.5234990004	-0.0883382753	-0.388589
C	-0.0031715244	-0.0007220507	 0.0904902198	 0.02548
O	 0.5755689218	-0.3693007281	 1.3391030948	-0.437987
C	-1.3925909396	-0.5575081521	-0.0191514861	 0.297
C	-1.9875187769	-1.2780881028	-1.0104298163	-0.219979
N	-3.2861099489	-1.522101613	-0.5645878256	-0.305028
C	-3.3839046857	-0.9486616911	 0.6580104695	 0.451329
O	-4.5350049184	-1.0323093988	 1.3444999996	-0.423456
N	-2.283365383	-0.3547697377	 1.032411559	-0.43281
H	 1.0380414965	 1.8969905238	 0.0549617544	 0.115934
H	-0.3253332994	 1.8077711196	-1.0878456203	 0.105941
H	-0.6350917128	 1.9989542652	 0.6482099499	 0.121401
H	 0.6243299944	-0.461832017	-0.681458339	 0.08147
H	-0.128794903	-0.2752394162	 1.9925521689	 0.287656
H	-1.636947341	-1.6383744855	-1.9623911443	 0.132106
H	-4.0110278339	-2.0354649024	-1.0356251412	 0.273935
H	-4.3925650902	-0.5605100335	 2.1744540221	 0.315598
