19
gdb 83762	2.40492	1.86272	1.42655	1.4255	73.77	-0.2376	0.0724	0.31	983.8573	0.159558	-422.995459	-422.987459	-422.986515	-423.027583	31.527	
C	-0.2751532805	 1.5893192371	-0.0495305791	-0.427534
C	 0.0157738645	 0.0955738896	 0.004055964	-0.059529
C	 1.0745573711	-0.5429936593	-0.9646011749	 0.066648
O	 2.138724742	 0.3539677518	-1.2654454912	-0.26232
C	 2.8778118394	 0.5766329894	-0.0593630373	-0.106892
C	 2.3218507733	-0.422266357	 0.9424442711	-0.149703
C	 1.5415505223	-1.4653911129	 0.1857932234	-0.148384
C	 0.8135263057	-0.54866305	 1.1459631296	 0.362429
O	 0.2852119223	-0.9147831848	 2.3712762504	-0.465071
H	 0.6392907739	 2.1863399542	-0.051509296	 0.124939
H	-0.8349471267	 1.84365424	-0.9559055127	 0.11946
H	-0.8836903456	 1.897152338	 0.8084513646	 0.108721
H	-0.9175497523	-0.4730278868	-0.0916138424	 0.07827
H	 0.7122839079	-0.970018885	-1.8984018439	 0.08194
H	 3.9423304048	 0.391362217	-0.2548196023	 0.103242
H	 2.769504152	 1.6208539286	 0.2620355637	 0.095958
H	 2.9274859844	-0.7392171464	 1.7837566796	 0.093757
H	 1.7132958432	-2.5323802725	 0.1896122832	 0.097402
H	 0.352771218	-0.163038601	 2.96986829	 0.286668
