17
gdb 30137	3.74868	1.07028	1.05901	0.8731	74.06	-0.2323	0.005	0.2372	1201.6557	0.137646	-418.014085	-418.00624	-418.005295	-418.047126	29.174	
C	 1.0656472811	 1.1158585885	-0.7076238992	-0.398056
C	 0.095278196	 0.1486764646	-0.0804892519	 0.022674
N	 0.6322541865	-1.1300902666	 0.4058708186	-0.34129
C	 0.0745031355	-0.1804101575	 1.3827610295	-0.172394
C	 1.0201986702	 0.3827628976	 2.3638810839	 0.28963
C	 2.3407135275	 0.1283018461	 2.5412207644	-0.111187
O	 2.7840342706	 0.8902271209	 3.5886922467	-0.140143
C	 1.6878992115	 1.567824179	 3.9934116023	 0.072957
N	 0.6155463861	 1.3175529253	 3.3182530257	-0.315679
H	 2.0016361745	 1.1499921262	-0.1457056269	 0.12748
H	 1.2956950629	 0.8169268237	-1.7357071418	 0.119769
H	 0.6405347243	 2.124755881	-0.7333235495	 0.12073
H	-0.8828600441	 0.1138626983	-0.5596305512	 0.086433
H	-0.0200043692	-1.8904295606	 0.238440712	 0.235005
H	-0.909060246	-0.3852147966	 1.8011391928	 0.094899
H	 3.0554837925	-0.5155627544	 2.0621868862	 0.159902
H	 1.81295203	 2.2395039843	 4.8282803984	 0.14927
