17
gdb 32654	2.10046	1.62591	0.98506	6.4507	79.63	-0.2398	-0.0555	0.1842	1188.8902	0.136756	-418.055243	-418.046845	-418.045901	-418.088792	30.279	
C	 0.0426978244	 1.5485556192	 0.052515795	-0.376533
C	 0.0121094557	 0.0211615163	-0.0238860698	-0.174982
N	 0.6977647338	-0.5067851801	-1.203973282	-0.021526
C	 0.085207397	-0.8310878152	-2.3788374223	-0.117434
C	 1.089266115	-1.2226457445	-3.2419228551	-0.090976
N	 2.296591795	-1.1442042337	-2.6309330443	-0.270904
C	 2.0522986034	-0.7065155933	-1.4013398838	 0.227992
C	 3.0575714276	-0.4685536841	-0.3635168586	 0.083929
O	 4.2470623129	-0.6241772867	-0.507059383	-0.256596
H	 1.0686158128	 1.9196892851	 0.1240998813	 0.140867
H	-0.4192102206	 1.991515472	-0.8341759567	 0.137115
H	-0.5071384682	 1.8883844347	 0.9350963274	 0.131173
H	 0.4606748755	-0.4221428661	 0.868338792	 0.139887
H	-1.0195517472	-0.338046456	-0.0692295776	 0.130348
H	-0.9850623265	-0.7636160961	-2.493617041	 0.136973
H	 0.988270495	-1.5596265769	-4.262869595	 0.119594
H	 2.6432257246	-0.1204174246	 0.6091649533	 0.061073
