11
gdb 247	8.72614	2.55084	1.99804	5.2585	46.05	-0.2443	0.0042	0.2484	586.8385	0.085659	-318.641916	-318.635509	-318.634565	-318.672134	22.001	
N	-0.1557751057	 1.3813635039	-0.0862621912	-0.562884
C	 0.1795452363	 0.0305142073	-0.0147657383	 0.460151
O	 1.3125311404	-0.3708713887	 0.0564007595	-0.330653
N	-0.9700145861	-0.7744989619	 0.0339927446	-0.337473
C	-1.0479648902	-2.1625501724	 0.0026474195	 0.088287
N	-0.0818379123	-2.9332642801	-0.2734104313	-0.399588
H	 0.6525596041	 1.9600639668	-0.2612870531	 0.26547
H	-0.9623114342	 1.6367385393	-0.6372449843	 0.249029
H	-1.8334408677	-0.300271792	 0.2432861511	 0.250944
H	-2.0723159705	-2.4850843965	 0.2326925505	 0.089751
H	-0.3967882839	-3.9012099558	-0.236058877	 0.226968
