16
gdb 72762	3.20246	1.52268	1.23863	5.2397	72.47	-0.2397	-0.029	0.2107	1010.2039	0.125234	-437.894561	-437.887183	-437.886239	-437.92617	28.914	
C	-0.1922371106	 1.6455345349	-0.1602643452	-0.431198
C	-0.0605085259	 0.1414408834	 0.0215201854	 0.331354
C	 0.8456611706	-0.5343310864	-1.0885778813	-0.239284
N	 1.9682969069	-0.4502166644	-0.077732984	-0.367454
C	 1.0038901358	-0.393047502	 0.9193763824	 0.308472
C	 0.4877206498	-0.9668767778	 2.0141171997	-0.433997
C	-0.9820454452	-0.9498947841	 1.8041223653	 0.418189
O	-1.8628318002	-1.3957229263	 2.4778097079	-0.338352
O	-1.2602649812	-0.3995671334	 0.5310670485	-0.292565
H	 0.7627521457	 2.0835750837	-0.461556824	 0.132914
H	-0.9372333168	 1.8581098485	-0.932900661	 0.136256
H	-0.5208257022	 2.1106012194	 0.7725568361	 0.138484
H	 0.543849938	-1.5639575145	-1.2975369566	 0.135332
H	 1.0257353314	 0.0270743051	-2.0077377912	 0.123459
H	 2.6863039705	-1.1637743529	-0.0440467689	 0.252959
H	 0.9405459336	-1.5690380633	 2.7855669967	 0.12543
