23
gdb 121095	3.47829	0.8208	0.69829	0.9068	90.52	-0.2247	0.0339	0.2586	1705.6479	0.205138	-388.303566	-388.293514	-388.29257	-388.339097	36.524	
C	-0.0481846568	 1.4214331882	 0.0140331929	-0.224988
O	-0.0133390503	 0.0159514997	 0.0184331127	-0.233966
C	 0.6248001005	-0.5240409663	-1.1196108933	-0.061971
C	 0.6366836335	-2.0452148836	-1.0004964979	-0.030885
C	 1.2702849755	-2.7421252423	-2.2343293417	-0.238601
C	 2.0627527316	-3.9456171849	-1.6693709816	-0.297772
C	 2.25148027	-3.5950140456	-0.2062830078	 0.324429
C	 3.1738043299	-4.3793862088	 0.6726485668	-0.489141
C	 1.4724787528	-2.5696820414	 0.1438969604	-0.165207
H	 0.9639294	 1.8572127849	 0.0036032431	 0.101913
H	-0.5964571672	 1.8149668546	-0.8572240418	 0.100899
H	-0.5599141116	 1.7413168147	 0.925322091	 0.124483
H	 0.0941576355	-0.2158692945	-2.0381531116	 0.080054
H	 1.6590524103	-0.1446018477	-1.1971008972	 0.079761
H	-0.4102472724	-2.3575529873	-0.870018679	 0.08127
H	 0.5282438241	-3.031232244	-2.9829932201	 0.096441
H	 1.9641455761	-2.047203903	-2.7223795651	 0.098325
H	 1.5025067388	-4.8872540982	-1.7666003603	 0.101061
H	 3.0141226531	-4.1063249805	-2.1914565133	 0.096241
H	 4.2042296064	-4.3483046563	 0.2953430757	 0.121175
H	 3.17502579	-4.0011034693	 1.6985187926	 0.12223
H	 2.8882472297	-5.4392402031	 0.7015924738	 0.122227
H	 1.3979677905	-2.1525602753	 1.1420256516	 0.092022
