18
gdb 47413	2.78232	1.60888	1.25094	3.2127	70.89	-0.2323	0.0056	0.2379	1035.8498	0.150017	-439.109229	-439.101491	-439.100547	-439.141751	29.338	
O	-0.0608761331	 0.107561545	-0.5677722194	-0.357427
C	-0.0028889464	 1.2432240331	-0.1855187425	 0.399606
O	-1.0926517569	 1.9418902718	 0.216250708	-0.22239
C	-0.7229789881	 3.2916909599	 0.5743398501	-0.08956
C	 0.6461683494	 3.5291977706	-0.0750742938	-0.310579
C	 1.2453146916	 2.1255163078	-0.0877895894	 0.210198
C	 2.1928337286	 1.6613959183	 1.066761047	-0.290682
C	 3.0537172793	 1.0177510316	-0.0441778236	-0.151321
N	 2.3052153989	 1.8076112834	-1.0602309541	-0.359943
H	-1.5113892435	 3.9543810069	 0.2127984316	 0.129368
H	-0.6811893333	 3.3604657664	 1.6673481895	 0.120218
H	 0.530021377	 3.8793357906	-1.1062934891	 0.123424
H	 1.2531044487	 4.2582738137	 0.4651685478	 0.114544
H	 2.6749134739	 2.5074955527	 1.5609171426	 0.112412
H	 1.7706733413	 0.9923571373	 1.8171411334	 0.122017
H	 4.1280677988	 1.2242455006	-0.0257805311	 0.103466
H	 2.8937170373	-0.0625599932	-0.1187763744	 0.119944
H	 1.9707841067	 1.2520717235	-1.8427918827	 0.226703
