14
gdb 67925	2.10151	1.78859	1.18252	6.466	67.16	-0.2959	-0.0294	0.2666	1036.712	0.099809	-436.696962	-436.689074	-436.688129	-436.72957	28.843	
C	-0.0902987403	 1.4972720805	 0.0564028023	-0.492227
C	 0.0558089727	 0.0151054744	 0.0786343515	 0.441432
O	-1.1526137548	-0.7841231692	-0.0434010756	-0.279603
C	-0.6851850852	-1.664181103	 0.9319441468	 0.476874
O	-1.2701816254	-2.5529499783	 1.448433426	-0.303371
C	 0.655041787	-0.977286141	 1.0459524432	-0.334976
C	 1.2266199501	-0.8064350388	-0.3807244512	-0.258313
C	 1.1374039745	-1.8249338221	-1.3946253233	 0.322393
N	 1.0851185151	-2.6324174577	-2.2197245374	-0.324433
H	 0.8725304206	 1.9787524556	 0.2460998188	 0.140806
H	-0.4538769313	 1.8275655045	-0.9214976815	 0.159299
H	-0.8044943836	 1.8207592042	 0.8184326878	 0.15386
H	 1.2718423441	-0.8721081436	 1.9265805888	 0.144134
H	 2.1734021265	-0.2715220756	-0.376806486	 0.154125
