19
gdb 63359	2.53476	1.45499	1.14621	3.9691	77.48	-0.2363	-0.0109	0.2254	1133.0298	0.157782	-423.062265	-423.053319	-423.052375	-423.095817	34.248	
C	-0.0892562515	 1.5808133851	-0.0738466348	-0.429587
C	-0.0238101378	 0.0535767011	 0.0390560908	 0.314264
O	-1.3562067758	-0.4799980976	 0.1484873775	-0.458424
C	 0.5363016987	-0.5723715332	-1.249083825	-0.313035
C	 0.7896539508	-2.062044513	-1.0954937856	 0.38759
O	 0.4143528017	-2.8782694672	-1.9009297263	-0.308802
C	 1.6065576868	-2.4631243087	 0.1309225832	-0.357486
C	 1.5196603757	-1.4912590451	 1.2740310631	-0.07011
C	 0.8044637947	-0.3690083407	 1.2359687884	-0.099798
H	 0.9087035482	 2.0166090901	-0.1874119371	 0.118047
H	-0.7017894735	 1.8695912136	-0.9322243356	 0.127263
H	-0.541868157	 2.009571127	 0.8277902026	 0.106427
H	-1.688710071	-0.2704125092	 1.0280183908	 0.276152
H	-0.1533979183	-0.4145818035	-2.081053279	 0.127476
H	 1.4926214264	-0.0888497507	-1.4872010992	 0.116431
H	 1.2963195593	-3.4700429569	 0.4328327442	 0.141398
H	 2.6535295774	-2.5689683599	-0.1940272786	 0.137096
H	 2.0722573041	-1.7508453218	 2.1742077263	 0.098896
H	 0.773069221	 0.2853050505	 2.1051185443	 0.086203
