21
gdb 53379	3.63157	0.77586	0.7259	1.2951	88.13	-0.2359	0.0646	0.3006	1664.3937	0.182239	-387.083111	-387.073164	-387.07222	-387.120391	35.798	
C	 0.2048721891	 1.5703720616	-0.4219886074	-0.498924
C	 0.1007094011	 0.1395622986	-0.171740309	 0.099845
C	 0.0148292211	-1.04436343	 0.0336557089	 0.030901
C	-0.096548671	-2.4724923292	 0.2945004728	-0.152115
C	 0.3927177885	-2.9170882327	 1.696250212	-0.199384
C	-0.2436548744	-4.3035110976	 1.8430069624	-0.237127
C	-1.6813243668	-4.0926631619	 1.3291505132	 0.129762
O	-2.5168592617	-3.5228172968	 2.3369955883	-0.438752
C	-1.553192657	-3.034029408	 0.2097388555	-0.218093
H	 0.562791473	 2.1058935205	 0.4646207196	 0.14481
H	 0.902276405	 1.7841708326	-1.2398610573	 0.143622
H	-0.7656145944	 1.9994989661	-0.6957557531	 0.145304
H	 0.5144484202	-3.0068681153	-0.4462392443	 0.093078
H	 1.4821610533	-2.9139492014	 1.7789473182	 0.097414
H	-0.010530276	-2.2395978543	 2.4548645153	 0.118058
H	 0.2747966248	-5.0289759463	 1.2025520693	 0.093451
H	-0.2238793663	-4.6962396016	 2.8650360881	 0.083048
H	-2.1255449881	-5.0277066158	 0.9600208233	 0.058061
H	-2.570052508	-4.1508940103	 3.0647592128	 0.277975
H	-2.2866550525	-2.2475028554	 0.3957208977	 0.128633
H	-1.7564445998	-3.4529451928	-0.7784431662	 0.100431
