18
gdb 62978	2.27418	1.63887	1.2949	4.6762	75.7	-0.2509	0.0087	0.2596	1049.0994	0.147813	-398.088317	-398.079708	-398.078764	-398.121102	33.047	
C	-0.0787781708	 1.6438128799	-0.0469268524	-0.441275
C	 0.0124666364	 0.125585484	-0.0205807957	 0.277202
N	-1.2862649795	-0.4222335251	 0.3469520355	-0.546977
C	 0.7072705412	-0.5736844195	-1.2085980163	-0.069607
C	 2.1561009904	-0.3124663911	-1.2766216297	-0.259353
N	 1.6828945466	-1.3271774541	-0.3133872665	-0.135754
C	 1.1215026614	-0.5625375067	 0.8662925595	-0.161738
C	 2.0669447082	 0.2817856006	 1.5826716968	 0.311039
N	 2.8129002549	 0.9770386901	 2.1283829942	-0.339865
H	 0.8893637972	 2.1109408197	-0.2348617171	 0.135787
H	-0.766313505	 1.9635598816	-0.8386718498	 0.115758
H	-0.4612593507	 2.0142133415	 0.908105425	 0.143532
H	-2.0065803403	-0.0457411142	-0.2631893575	 0.231634
H	-1.2980411196	-1.4315134806	 0.2234026064	 0.235928
H	 0.1682745118	-1.0865738241	-2.0005757132	 0.096639
H	 2.7056601176	-0.7564596626	-2.1008378602	 0.133807
H	 2.5800582997	 0.6156621929	-0.9032454598	 0.138733
H	 0.6661476305	-1.2648658125	 1.5676254208	 0.13451
