14
gdb 127358	3.39825	1.73531	1.1571	3.1321	69.98	-0.2293	-0.0314	0.1979	978.8758	0.103637	-432.860327	-432.853458	-432.852513	-432.89199	25.459	
C	 0.0290927569	 1.4499291274	 0.0440641299	-0.344412
N	 0.0018189754	 0.0019782954	 0.0205704671	-0.154294
C	-0.1135709165	-0.8316429498	-1.090584304	 0.005026
N	-0.1142175896	-2.1131755171	-0.8476209307	-0.35911
C	 0.0100488792	-2.1703878487	 0.5355422121	 0.149252
C	 0.0958990836	-2.9637553438	 1.6390618202	-0.036154
O	 0.2088591169	-2.1787271418	 2.7339917576	-0.175071
N	 0.2018401645	-0.8076047153	 2.3886736774	-0.293498
C	 0.0828729041	-0.8622300393	 1.0854454009	 0.449411
H	 0.9669937801	 1.8129156307	 0.4751384642	 0.156843
H	-0.0566415522	 1.821362947	-0.978914991	 0.145388
H	-0.8035909858	 1.8436960285	 0.6346950996	 0.156826
H	-0.195145401	-0.3934806955	-2.0772790547	 0.14048
H	 0.0942780743	-4.0248175377	 1.8277567214	 0.159313
