17
gdb 68562	2.52181	1.64807	1.37323	1.7473	78.29	-0.2338	0.002	0.2358	1000.9724	0.134851	-384.616448	-384.608517	-384.607573	-384.648416	31.881	
O	-0.0873936736	 1.4059944586	 0.0629423458	-0.484345
C	 0.014276904	 0.0237701365	 0.0085633077	 0.366065
C	 0.3432502375	-0.7827460697	-1.3021881057	-0.280503
C	-0.3088224591	-1.9312343864	-0.4625164974	-0.095598
C	 0.6788587842	-2.0149051172	 0.7101417402	-0.070234
C	 0.8912086065	-0.736693286	 1.023733178	-0.16195
C	-1.311917434	-0.8219249234	 0.0601672162	-0.210357
C	-2.0395520698	-0.9963523484	 1.2990035528	 0.322733
C	-2.6686862958	-1.140309369	 2.3136214996	-0.443954
H	 0.7987636833	 1.7784021361	 0.1217427814	 0.282916
H	-0.2546832089	-0.4658534965	-2.1618514448	 0.099907
H	 1.3955510503	-0.9016436993	-1.5660337214	 0.093284
H	-0.6773501802	-2.8477630777	-0.916686509	 0.075924
H	 1.0687717079	-2.9184213438	 1.1559938198	 0.107237
H	 1.4910636965	-0.28528319	 1.8016764054	 0.102805
H	-1.9914037706	-0.5059744955	-0.7388331975	 0.106702
H	-3.2179045783	-1.2640826284	 3.2137883789	 0.189366
