13
gdb 320	6.47877	3.57961	3.5684	1.7613	50.04	-0.2445	0.0682	0.3126	459.4671	0.109323	-286.408473	-286.403385	-286.402441	-286.436586	19.785	
O	-0.0766208983	 1.3850264559	 0.0061758304	-0.459576
C	 0.016833426	 0.0050671057	-0.0104386987	 0.348297
C	 0.6735172935	-0.9759879143	 0.9965214841	-0.228123
N	 0.0174553259	-1.9136833081	-0.0270377183	-0.134215
C	-1.182034839	-0.9498820129	 0.0415970069	-0.193016
C	 0.5683548589	-0.9579301061	-1.0949375935	-0.228122
H	 0.811880088	 1.755823942	-0.0352283156	 0.282219
H	 1.7644195667	-1.0517476176	 1.0165957371	 0.096549
H	 0.2430747341	-1.0530093629	 1.9980862636	 0.104923
H	-1.7450088905	-1.0213587715	 0.9753596917	 0.104796
H	-1.8358938299	-1.0057533664	-0.8320777725	 0.104797
H	 0.039556995	-1.0180618196	-2.0494541211	 0.104923
H	 1.6516765097	-1.0323887841	-1.2256335141	 0.096549
