22
gdb 56025	3.98871	0.79997	0.78314	3.4442	84.15	-0.2389	0.0394	0.2783	1593.7979	0.194922	-404.407821	-404.397741	-404.396797	-404.446327	35.412	
C	 0.3609797681	 1.4120963995	-0.2944770826	-0.484664
C	 0.1648721625	-0.097370238	-0.277764742	 0.406364
O	 0.9921981089	-0.8570979467	-0.7500569408	-0.376444
N	-0.9968177682	-0.5249768451	 0.3011835231	-0.330336
C	-1.3672274266	-1.9214101847	 0.4134828634	 0.060615
C	-1.6160738199	-2.3926627795	 1.8609627872	-0.214021
C	-2.4611282133	-3.6834396895	 1.7240685533	-0.204322
C	-3.0019572965	-3.6913209173	 0.2610214153	-0.203115
C	-2.6740290544	-2.2998269684	-0.3059384012	-0.214242
H	 1.2954355601	 1.6494697075	 0.2206998612	 0.151523
H	 0.4693239182	 1.7399913554	-1.3317536466	 0.151413
H	-0.4546207106	 1.9714139738	 0.1717670432	 0.106739
H	-1.6342642938	 0.1622257804	 0.6704749692	 0.236189
H	-0.5333160075	-2.4761308093	-0.0251733226	 0.124526
H	-0.6849262583	-2.539867918	 2.4139591194	 0.106595
H	-2.1843523673	-1.6185024207	 2.3927330141	 0.085198
H	-1.8565398751	-4.5739934089	 1.9160325129	 0.10515
H	-3.2750242832	-3.6980236723	 2.4539772088	 0.100257
H	-2.4848474945	-4.4581777774	-0.324954554	 0.106478
H	-4.0689351307	-3.922811249	 0.209946892	 0.097335
H	-3.4574491232	-1.5784510609	-0.0347629362	 0.083772
H	-2.5762750348	-2.2829249709	-1.3946307671	 0.104988
