16
gdb 25760	2.79397	1.52482	0.9887	3.0489	75.13	-0.1833	0.0142	0.1975	1128.2519	0.126681	-434.146111	-434.137802	-434.136858	-434.178697	32.237	
N	 0.0035863662	 1.3317415457	-0.0787776503	-0.544563
C	 0.0132062589	-0.0431067752	-0.029231139	 0.323967
O	 1.0811823656	-0.6598029428	-0.0558252361	-0.413501
C	-1.282018713	-0.710543974	 0.0132166242	 0.131091
C	-1.3943174125	-2.1002577721	 0.0550280369	 0.301494
N	-0.3992978784	-3.0490813145	 0.1704637858	-0.606246
N	-2.7207187478	-2.4117277726	 0.0472437538	-0.318719
C	-3.4826877529	-1.2472699324	 0.0026556081	-0.078098
C	-2.6231036472	-0.1902154218	-0.0169976346	-0.290044
H	 0.8970885078	 1.7728285275	 0.0726916413	 0.2528
H	-0.8077384345	 1.8367945583	 0.2357633808	 0.252726
H	 0.5027130474	-2.5942075525	 0.0351065135	 0.279107
H	-0.5167395967	-3.8660638998	-0.4145820425	 0.240229
H	-3.0873832501	-3.3425136721	 0.1465821484	 0.25885
H	-4.5583778247	-1.29582242	-0.0210686555	 0.12103
H	-2.916237938	 0.8469435382	-0.0787759449	 0.089877
