25
gdb 100761	2.75601	0.87564	0.79845	2.7375	85.37	-0.254	0.0671	0.3211	1619.5838	0.225808	-426.633545	-426.62179	-426.620846	-426.670209	43.423	
C	-0.0431088321	 1.6281148234	-0.1713001179	-0.37649
C	-0.0030883876	 0.1175931202	 0.0788037151	-0.209537
C	-1.389093618	-0.5364654309	 0.0076504769	 0.135009
O	-2.0272578216	-0.2218603381	-1.2340001362	-0.431329
C	-1.3941196477	-2.0660511234	 0.2364558739	 0.006567
C	-0.6251938075	-2.4846230509	 1.4991647921	-0.435552
C	-2.8592785547	-2.5728231788	 0.2556928564	 0.139736
C	-2.9970791153	-4.0820139836	 0.0539894385	-0.42404
O	-3.5402896109	-2.1447929489	 1.4363571414	-0.440512
H	 0.9626331213	 2.0585315024	-0.1471034415	 0.105715
H	-0.4936258921	 1.8519148515	-1.1411638683	 0.124632
H	-0.6427238103	 2.1338650243	 0.5935210639	 0.116024
H	 0.6563530459	-0.3674957977	-0.657758728	 0.079631
H	 0.4424044301	-0.0763559446	 1.0600187974	 0.101248
H	-2.0397159064	-0.0847037598	 0.7667758459	 0.101865
H	-1.4698816097	-0.5687166955	-1.9404100507	 0.27259
H	-0.9020772985	-2.5251691533	-0.6356749632	 0.052214
H	-0.9911903781	-1.945654755	 2.3799223867	 0.120855
H	-0.7291079006	-3.5570418347	 1.6934720767	 0.111252
H	 0.4442211908	-2.2814260936	 1.4088682221	 0.122349
H	-3.3814780142	-2.0619929274	-0.5579150459	 0.105525
H	-2.4987377281	-4.6494769483	 0.8493850204	 0.106936
H	-4.0543006741	-4.3615828866	 0.0565148793	 0.12457
H	-2.5598876183	-4.3950467764	-0.8999330873	 0.113408
H	-3.2210757623	-2.6796211042	 2.1708890123	 0.277335
