19
gdb 103911	3.07995	0.85492	0.75891	1.8622	73.34	-0.241	-0.0255	0.2154	1503.9919	0.156267	-460.146007	-460.13608	-460.135135	-460.181956	35.745	
O	 0.2667983484	 0.8879954476	 0.6636426036	-0.424197
C	-0.1377686606	 0.2588559618	-0.5531402069	-0.147229
C	-1.4762306731	-0.416130246	-0.3705368923	 0.384213
O	-2.4419816312	 0.4692809849	 0.1217086187	-0.46717
C	-1.9825394376	-1.4374373945	-1.3361147698	-0.342099
C	-1.6045179049	-1.8672275581	 0.0730671112	-0.082316
C	-0.4329873949	-2.805340533	 0.3144451696	-0.328219
C	-0.8378461971	-4.245516696	 0.0620115177	 0.176821
O	-0.2916713939	-4.9859561947	-0.7132231713	-0.235922
H	 0.5016784628	 0.1932784281	 1.2883426833	 0.288904
H	-0.2397600363	 1.0707385179	-1.2800939122	 0.127106
H	 0.6247290006	-0.4361280924	-0.92619787	 0.099552
H	-1.989658898	 0.9915567978	 0.7981469891	 0.285813
H	-3.0350087919	-1.3902106192	-1.5909804676	 0.131259
H	-1.3300070516	-1.7413812364	-2.1491771331	 0.123057
H	-2.4510059135	-2.0225068935	 0.736651685	 0.101569
H	 0.4207418959	-2.5833804655	-0.3314503907	 0.121541
H	-0.1013672599	-2.732515094	 1.3614499568	 0.11242
H	-1.7200283032	-4.5829040747	 0.6549127689	 0.074896
