16
gdb 55890	3.47563	0.93565	0.79417	5.462	71.09	-0.2508	-0.0004	0.2504	1380.1736	0.123861	-434.077307	-434.068261	-434.067317	-434.112172	32.198	
N	 0.813985944	 0.0852165179	-0.3087008628	-0.508568
C	-0.2825201879	 0.3831464182	 0.4344427646	 0.381658
O	-0.330901241	 1.269014465	 1.2628097532	-0.354936
C	-1.5160692154	-0.478051708	 0.1309797437	-0.261427
N	-1.1701649968	-1.7258315644	-0.5489554457	-0.094977
C	-1.0677665757	-2.9287084999	 0.2574340751	-0.240224
C	-2.2063074128	-2.7551728414	-0.7048172873	-0.142655
C	-3.5376093573	-2.5470458415	-0.1883073098	 0.28871
N	-4.6141971447	-2.3735342433	 0.1969993995	-0.326861
H	 1.6359634169	 0.6570309265	-0.2098740671	 0.2632
H	 0.7674321346	-0.6303733396	-1.0144487198	 0.268017
H	-2.0558257532	-0.6208195382	 1.0757529212	 0.142767
H	-2.1670272098	 0.1058767971	-0.5291802165	 0.152476
H	-0.2664018795	-3.6156982988	 0.0030613695	 0.138767
H	-1.3058624119	-2.8568722311	 1.3164515952	 0.148717
H	-2.1833729494	-3.2786806783	-1.6564226629	 0.145338
