19
gdb 81505	3.52927	1.2708	1.05163	2.1116	82.84	-0.2436	0.0436	0.2872	1186.997	0.156286	-385.785298	-385.776332	-385.775388	-385.818283	34.816	
C	-0.2170324023	 1.5537062972	 0.7907867043	-0.436339
C	-0.1313627486	 0.0676429772	 0.4940202254	 0.016163
C	 1.056413682	-0.4526500972	-0.3645140252	 0.005361
O	 1.9664951612	-0.1358691344	 0.7565247752	-0.298423
C	 0.8043995993	-0.8134845176	 1.3695148158	 0.005417
C	 0.8897199456	-1.8981445645	 0.2333593835	 0.130267
C	-0.3004808103	-2.7929996216	-0.1257252894	-0.493832
C	 2.1142349413	-2.6863188665	 0.2474413741	 0.28988
C	 3.0678028423	-3.4185803761	 0.2337886644	-0.43876
H	 0.7696757694	 1.9600137075	 1.0187076262	 0.141202
H	-0.6302909303	 2.0954112916	-0.0669337889	 0.115917
H	-0.8788532485	 1.7394765746	 1.6436606507	 0.115918
H	-1.1123538174	-0.3515115955	 0.264279439	 0.07071
H	 1.3776510807	-0.1699372552	-1.3682288281	 0.097313
H	 0.8227552709	-0.9645073689	 2.4499878722	 0.097313
H	-1.2512349563	-2.2592150508	-0.1551261013	 0.122741
H	-0.1354342283	-3.2515492306	-1.1051215911	 0.135395
H	-0.3860742834	-3.6039635375	 0.6035021983	 0.135365
H	 3.9305735525	-4.0374472814	 0.2305087148	 0.188392
