16
gdb 29759	4.74693	1.24412	1.13595	2.1936	76.07	-0.2009	0.0232	0.2242	1067.5312	0.125921	-400.705809	-400.69889	-400.697945	-400.736967	27.827	
O	-0.045284634	 1.2288909961	-0.2747957875	-0.420956
C	-0.0979666087	-0.1443449587	-0.059947881	 0.091212
C	-0.4776372384	-0.5993945749	 1.3401562516	-0.092259
C	-1.4954943265	-0.6715995597	 0.1976323976	-0.229337
C	-1.3815871266	-2.1727357527	 0.3377707466	 0.230093
C	-1.2413493393	-3.420934192	-0.223443901	-0.270758
C	-0.247759431	-4.0833565337	 0.570004424	-0.123939
C	 0.2445553637	-3.2038094903	 1.5182273003	-0.153608
N	-0.5178644525	-2.0658386452	 1.4122066014	 0.019705
H	 0.8354935193	 1.5396744767	-0.0386307692	 0.294612
H	 0.597278628	-0.7524938226	-0.6402074784	 0.113249
H	-0.4564564777	 0.0343624956	 2.2169157674	 0.11858
H	-2.371145408	-0.0574927165	 0.0413588708	 0.116738
H	-1.7719204687	-3.8367200748	-1.0657070857	 0.097747
H	 0.0381336827	-5.1219955219	 0.4815456662	 0.093636
H	 0.9705427577	-3.3495981554	 2.3023465268	 0.115284
