19
gdb 34843	3.70563	1.27818	1.18661	0.7569	86.57	-0.2328	0.0119	0.2447	1105.7058	0.160889	-348.718293	-348.710784	-348.70984	-348.749846	30.935	
C	-0.0217844154	-1.1885674481	-0.0496932561	-0.41815
C	-0.0109507336	 0.0144752438	-0.01989249	 0.292831
C	 0.005103188	 1.4623047102	 0.0153913325	-0.193254
C	-0.1440230268	 2.0773420927	 1.4567344209	-0.020122
C	 1.3992420004	 1.9442349668	 1.5889082856	-0.22708
C	 1.4462006485	 2.1097449089	 0.0407426161	-0.056028
C	 1.2902273121	 3.5781232035	-0.2887201801	-0.071239
C	 0.3344929802	 4.2655374836	 0.3378693827	-0.061058
C	-0.5494645057	 3.5566872733	 1.3403851915	-0.271827
H	-0.0359287162	-2.2496398376	-0.0819653242	 0.188487
H	-0.6660187617	 1.8707693133	-0.7462907245	 0.094527
H	-0.7730717701	 1.5338319776	 2.1638737701	 0.073229
H	 1.9306083811	 2.6888856033	 2.1859694438	 0.094184
H	 1.6841933653	 0.9369884243	 1.8986642338	 0.112718
H	 2.2347095109	 1.6115018916	-0.5225583585	 0.071409
H	 1.9489761012	 4.0366148026	-1.0194271629	 0.08764
H	 0.1683283031	 5.3226355051	 0.1524812815	 0.088913
H	-1.6049661693	 3.6401945116	 1.0447144865	 0.107451
H	-0.476298712	 4.0426426533	 2.3238689915	 0.107369
