14
gdb 21936	3.6314	1.91385	1.30388	1.7042	59.46	-0.2095	0.018	0.2275	877.6942	0.1094	-415.867909	-415.860843	-415.859899	-415.899156	26.669	
O	 0.1455083975	 1.0977662554	-0.742903586	-0.419657
C	-0.0382106393	 0.0120886559	 0.182062731	-0.191626
C	-1.4317040299	-0.5247295628	 0.0998227171	 0.191477
N	-2.1102748944	-0.981587775	 1.1527100899	-0.289654
N	-3.2821257108	-1.3874818695	 0.6449184278	-0.185772
C	-3.3950500902	-1.1890931906	-0.7003807361	-0.127469
C	-2.1979648614	-0.6254591957	-1.0886858036	 0.213808
O	-1.8311855199	-0.2462970125	-2.3384839565	-0.44998
H	-0.4204405328	 1.8213971031	-0.4505029968	 0.293452
H	 0.6988915777	-0.7373258821	-0.1272289863	 0.131036
H	 0.2014662798	 0.3077250335	 1.2106290478	 0.12472
H	-3.9731423733	-1.7733332585	 1.2642599924	 0.275354
H	-4.2801703648	-1.4512884432	-1.2551578757	 0.134379
H	-1.0255715883	 0.2835674721	-2.2300172951	 0.299932
