17
gdb 43775	3.34908	1.28508	1.08865	4.3002	73.29	-0.2597	0.0027	0.2624	1130.3775	0.135877	-421.812311	-421.804649	-421.803705	-421.844905	29.499	
O	-0.2023353437	 0.1738880124	-0.0988249558	-0.323755
C	-0.0251147796	 1.3418406706	 0.0156892788	 0.464243
O	-0.9814459778	 2.3087042327	 0.3292371184	-0.297808
C	-0.0059512984	 3.368535574	 0.0694630271	 0.475576
C	 1.0672452489	 3.2604965345	 1.0861633337	-0.338582
C	 1.0869994514	 2.3341570639	-0.1458222755	-0.330484
C	-0.4675554603	 4.5393297142	-0.7031433299	-0.11164
C	-1.5027134469	 4.3829943969	-1.7897140967	-0.271778
C	-1.8699729373	 5.0666946711	-0.4981097608	-0.266223
H	 1.833525064	 4.0300557093	 1.0600258055	 0.13197
H	 0.8509368297	 2.8550413313	 2.0694952816	 0.137534
H	 1.9147517272	 2.2805881057	-0.837399232	 0.129325
H	 0.3127057381	 5.2769099299	-0.8633817861	 0.093783
H	-1.3888724041	 4.9855484838	-2.6835073656	 0.116505
H	-1.9032907405	 3.3902155521	-1.9567175841	 0.136111
H	-2.5088471158	 4.5229861649	 0.1879676805	 0.137595
H	-2.0096648449	 6.1416264726	-0.4960285391	 0.117627
