19
gdb 64454	2.22449	1.70984	1.25794	1.7071	70.94	-0.2367	-0.0313	0.2054	1070.1423	0.157634	-460.181888	-460.172877	-460.171933	-460.215743	33.691	
C	 0.1921199518	 1.4810008244	-0.0941275927	-0.408702
C	-0.0342245142	-0.0285671323	-0.012311913	 0.232762
C	-1.5370262789	-0.3619321717	 0.0527089106	-0.412308
O	 0.5483155525	-0.5811088785	-1.2063122335	-0.271085
C	 0.9209165251	-1.924400306	-1.1187019251	-0.000945
O	 1.9376726328	-2.1258997981	-0.1727576665	-0.224084
C	 1.4705101715	-1.8589784458	 1.133981647	-0.191988
C	 0.6372568789	-0.583299887	 1.2594901892	 0.336582
O	 0.4568511611	-0.0721660932	 2.339047387	-0.314946
H	 1.2580963263	 1.6988078584	-0.198338636	 0.128211
H	-0.3285391762	 1.8826260009	-0.9674951017	 0.122929
H	-0.1819067527	 1.9660230302	 0.8090411975	 0.140212
H	-2.0317256817	 0.0395115109	-0.8357359961	 0.12943
H	-1.7159003418	-1.4408465027	 0.0868911097	 0.11755
H	-1.9808532634	 0.0826571136	 0.9466395521	 0.142184
H	 0.053586907	-2.5677112064	-0.8796121299	 0.078479
H	 1.3297622834	-2.2014038059	-2.0920231798	 0.124868
H	 0.841534907	-2.6882086	 1.5061979891	 0.123144
H	 2.3344039514	-1.7794229408	 1.7979095822	 0.147706
