19
gdb 42940	2.3508	2.07411	1.42844	3.3123	78.42	-0.232	-0.0095	0.2225	961.5505	0.162613	-385.893662	-385.886869	-385.885925	-385.924597	28.538	
O	-0.0153512841	-0.0127834198	-0.050827593	-0.341227
C	-0.0066735954	 1.1958324279	 0.0144825762	 0.405435
C	-1.2710486726	 2.0123673918	 0.0053349733	-0.125463
C	-1.6994348727	 2.8841846906	 1.1822062128	-0.309199
C	-1.0756558858	 3.5186373374	-0.0218587959	-0.027564
C	 0.3888350595	 3.9514872999	-0.0277309772	-0.031683
C	 1.2418360074	 3.171888857	 1.0107567393	-0.250406
C	 1.2822892387	 2.0086672592	-0.0206333597	-0.105856
C	 1.1336982846	 3.121408059	-1.1166030359	-0.23018
H	-2.0762566073	 1.550552515	-0.5552589292	 0.107232
H	-2.7711685413	 2.9884082111	 1.3110915069	 0.120982
H	-1.1527222448	 2.8295008563	 2.1145818891	 0.126511
H	-1.723604022	 4.0902749975	-0.679582597	 0.092844
H	 0.4821864909	 5.0395457935	-0.045454216	 0.069032
H	 2.2317307922	 3.6254485365	 1.106557142	 0.107247
H	 0.8517776912	 2.9825080343	 2.0121401117	 0.103831
H	 2.141234126	 1.3382171464	-0.0480870167	 0.079437
H	 0.5898605368	 2.8753870619	-2.032341912	 0.104159
H	 2.1099601687	 3.5431639248	-1.3695009288	 0.104869
