18
gdb 87444	4.35423	1.24629	1.13939	2.5175	77.03	-0.2351	0.0609	0.296	1101.1504	0.14686	-401.814286	-401.806547	-401.805603	-401.846677	30.105	
O	 0.2553237859	 1.3707026283	-0.046023281	-0.427188
C	 0.0729122367	-0.0170968521	 0.0052825546	 0.036871
C	-0.3893364169	-0.7363647973	 1.2697232098	-0.426156
C	-1.2661261067	-0.6499419766	 0.0549337354	 0.369092
C	-2.677123297	-0.1605247316	-0.1868772879	-0.19154
C	-2.6048202	-0.7703720945	-1.6228885795	 0.008999
C	-3.8784377854	-1.603222262	-1.4543156003	-0.264461
C	-3.1668921598	-1.6412825756	-0.0993906101	 0.00951
N	-1.7744830461	-1.7921574273	-0.7850592908	-0.212216
H	-0.5349210393	 1.7967686575	 0.3006321784	 0.284218
H	 0.8430549524	-0.5118369113	-0.5785653066	 0.117023
H	 0.0776610969	-1.685280718	 1.5154472223	 0.123963
H	-0.6561440526	-0.1262456358	 2.1289889891	 0.110309
H	-3.1969573101	 0.745441982	 0.1437661755	 0.066803
H	-2.1713519473	-0.3141360533	-2.5134588525	 0.092571
H	-4.8301325491	-1.068115201	-1.4991507157	 0.101211
H	-3.9142543906	-2.5459082443	-2.0062174109	 0.113111
H	-3.3970730411	-2.2084056372	 0.8032926502	 0.087878
