23
gdb 122434	3.09814	0.86699	0.82218	1.9582	83.18	-0.2422	0.0767	0.3189	1550.173	0.203297	-425.406275	-425.395664	-425.39472	-425.442199	39.151	
C	-0.3297032005	 1.4238820728	 0.6281035393	-0.456668
C	 0.0036513181	 0.0020086509	 0.2200694247	 0.313742
C	-1.1393437441	-0.7669991439	-0.4134436231	-0.450084
C	 1.4070787794	-0.2758173547	-0.2968123081	-0.35941
C	 0.9986592682	-0.7893705922	 1.0496237691	 0.090823
O	 1.637449836	-0.2158760873	 2.1485361455	-0.263785
C	 0.9046891831	-0.3162640192	 3.3634241317	-0.072093
C	 1.6974368571	 0.4545626482	 4.407834657	-0.065452
O	 1.8859198964	 1.8025973526	 4.0222183511	-0.420418
H	 0.4679012264	 1.8673671773	 1.2284677711	 0.124168
H	-0.4883638516	 2.0563716003	-0.2529306247	 0.113785
H	-1.2495395042	 1.4559357214	 1.223803391	 0.113426
H	-1.4655292232	-0.2901985708	-1.3455775835	 0.116929
H	-0.848528732	-1.7947370979	-0.6545475509	 0.111385
H	-2.0058659704	-0.812286103	 0.2568830246	 0.113849
H	 1.5443010703	-0.9847439902	-1.106528727	 0.109191
H	 2.1090425333	 0.5515305477	-0.2956849522	 0.115542
H	 0.8148045316	-1.8597108188	 1.161839393	 0.078794
H	-0.0948893229	 0.1234527948	 3.2423326753	 0.101897
H	 0.7879983545	-1.3705761196	 3.6612832235	 0.089044
H	 1.1503651458	 0.4620798707	 5.3560432244	 0.108686
H	 2.6604105143	-0.0529376121	 4.5761897157	 0.094189
H	 2.2806093944	 1.7676362832	 3.1432458923	 0.292461
