17
gdb 51558	3.21538	1.03798	0.89516	3.0134	70.06	-0.2403	-0.0023	0.2379	1299.3385	0.133938	-458.938422	-458.929719	-458.928774	-458.973302	30.67	
O	 0.1849110655	 0.083039214	-0.1780330401	-0.270998
C	 0.2513843019	 1.268979865	-0.2946741946	 0.171546
O	 1.0137408016	 2.03615398	 0.5155922699	-0.182627
C	 1.0075666067	 3.426328998	 0.2499115709	 0.008991
C	 2.1626822294	 4.210724277	 0.8195887938	-0.386602
C	 2.0526701787	 3.9988048634	-0.6589463778	 0.424219
C	 2.9874814669	 3.2808332611	-1.6221346745	-0.354653
C	 2.6187753022	 4.4396168623	-2.5764599347	-0.073513
O	 1.7649019099	 5.0496161891	-1.5734120125	-0.302945
H	-0.2951764902	 1.8593355961	-1.0549530145	 0.085275
H	 0.0230346217	 3.8867047935	 0.2597153273	 0.122116
H	 1.9416662692	 5.1946558745	 1.2187859558	 0.136377
H	 2.9271126423	 3.651122233	 1.3488810083	 0.139666
H	 4.0332300561	 3.2418807371	-1.3138280998	 0.125522
H	 2.6671418767	 2.2859067972	-1.9362580217	 0.127544
H	 3.4403158625	 5.1048987972	-2.8605035048	 0.115897
H	 2.0523293488	 4.1581210115	-3.4704323111	 0.114186
