17
gdb 60522	2.08872	1.46029	0.97625	1.3413	70.22	-0.2627	-0.1063	0.1564	1207.7287	0.1331	-458.958999	-458.949671	-458.948727	-458.993874	33.081	
O	 0.2738622361	 1.569130529	 0.1464004366	-0.431668
C	 0.2050486972	 0.1665177931	 0.0797927611	 0.017048
C	 0.6093981405	-0.3569544514	-1.2950401527	-0.005452
C	 0.0382714391	-1.6424536171	-1.843795642	-0.270545
C	-0.4017346333	-0.3207414269	-2.4128042913	-0.270183
C	 1.1226752945	-0.4415341019	 1.1273906124	 0.268345
O	 2.0054437193	 0.2006535048	 1.6543513581	-0.302301
C	 0.9355244205	-1.9001674948	 1.5543918077	 0.103522
O	-0.0323345799	-2.5585877852	 1.2797586108	-0.215097
H	 1.082715777	 1.7782479558	 0.636144091	 0.292169
H	-0.8233235902	-0.1584173881	 0.288101759	 0.107538
H	 1.6359367123	-0.1153001503	-1.5582314988	 0.092491
H	 0.6907393612	-2.2710906524	-2.4393416742	 0.116386
H	-0.656961601	-2.1900168446	-1.2181879897	 0.138263
H	-1.3986904758	 0.0332138578	-2.1730710709	 0.123854
H	-0.0539323986	-0.0362449806	-3.3992502665	 0.118647
H	 1.7642406812	-2.2668609171	 2.1950233594	 0.116983
