21
gdb 82375	2.32946	1.95772	1.34011	2.2952	81.67	-0.2102	0.0689	0.2791	1033.8916	0.185617	-383.229056	-383.221304	-383.22036	-383.260791	31.682	
C	-0.9335891186	 1.1322453361	 0.0941837909	-0.384127
C	-0.0017204623	-0.0761900957	-0.0160942632	 0.036726
C	 0.7465502361	-0.085612977	-1.3420833554	-0.020021
N	 1.8330182366	 0.8984040729	-1.5292765006	-0.34313
C	 2.1546213027	-0.5396378647	-1.4199324425	-0.035306
C	 2.8724183225	-1.0102494544	-0.1728588099	-0.238728
C	 2.2029374345	-0.6205737856	 1.1386645141	-0.015293
C	 1.8749121549	 0.7971430127	 1.4682878787	-0.255345
N	 0.8101770564	-0.1779234435	 1.2032857901	-0.106436
H	-0.3609033054	 2.0625034433	 0.0363819798	 0.127477
H	-1.6673693598	 1.1324263627	-0.7184475628	 0.104094
H	-1.4689649088	 1.1104589915	 1.0471499282	 0.122082
H	-0.6217031828	-0.9853696675	-0.0226885954	 0.079019
H	 0.1073796262	-0.2892839397	-2.2005609624	 0.077873
H	 1.8772328035	 1.1933559443	-2.5005857795	 0.229149
H	 2.4666723698	-1.0417906257	-2.3336086048	 0.082252
H	 2.9240016031	-2.1058734147	-0.2215051584	 0.103224
H	 3.9104917805	-0.6535779814	-0.1773946977	 0.110338
H	 2.4786535297	-1.2755919759	 1.9646991901	 0.082935
H	 1.9298878954	 1.1388867108	 2.4998632926	 0.098173
H	 2.0983838958	 1.5389278814	 0.710517948	 0.145043
