21
gdb 119488	4.02862	0.93588	0.87368	2.8543	82.91	-0.1967	0.0725	0.2692	1430.5877	0.182149	-383.163362	-383.15459	-383.153646	-383.197232	33.881	
C	-0.1457158449	 1.5849390229	 0.0878588592	-0.382752
C	-0.1172212287	 0.0553243739	 0.1217637577	-0.154938
C	 0.8895068546	-0.5027204332	 1.1414213347	-0.330084
C	 0.9350510156	-1.9995296332	 1.1660234744	 0.378454
N	-0.1146284588	-2.841240412	 1.7910431819	-0.349693
C	 1.3042446289	-2.9746371342	 2.2172958058	-0.14754
C	 2.0643875976	-3.8415362105	 1.1638116152	-0.055954
N	 1.1138837014	-4.2512534595	 0.1010656591	-0.307549
C	 1.687293965	-2.8838162239	 0.1026393648	-0.111777
H	 0.8356242814	 1.9954082475	-0.17591336	 0.1127
H	-0.8684947392	 1.9535280879	-0.6464394171	 0.114302
H	-0.4232327461	 1.9985824251	 1.0640698449	 0.112999
H	-1.1155314329	-0.3330572215	 0.3561707524	 0.109034
H	 0.1294509642	-0.3327783247	-0.8745034701	 0.102735
H	 1.8920418674	-0.1133408433	 0.9130540505	 0.098205
H	 0.6416183225	-0.1340407786	 2.1465828287	 0.091999
H	-0.5634488243	-2.2537303229	 2.49621073	 0.22085
H	 1.6068048629	-2.8167215865	 3.2448986732	 0.091122
H	 2.9942192297	-4.3678903875	 1.33444843	 0.092627
H	 1.6613650325	-4.7859429758	-0.5751560931	 0.226033
H	 2.260774341	-2.5010241201	-0.7323204822	 0.089228
