14
gdb 16459	3.32188	2.97673	1.89632	2.8188	60.58	-0.2278	-0.0115	0.2163	691.888	0.106679	-382.449557	-382.443526	-382.442582	-382.479221	24.727	
O	-0.0604592685	 1.408691611	 0.0891621014	-0.477122
C	 0.031203485	 0.0304038747	 0.0660983206	 0.371119
C	 0.9343151699	-0.7162906279	 1.0394390172	-0.202052
C	 0.7036962101	-2.0058194543	 0.7825485138	-0.09828
C	-0.3260548956	-1.9892037564	-0.329681067	-0.102866
C	-1.2989297969	-0.7859488827	-0.067348027	 0.043399
O	-1.4024995153	-0.5001539905	-1.5013066709	-0.320602
C	 0.0150084887	-0.7996841688	-1.2886219458	 0.002659
H	 0.8143107724	 1.78045444	-0.0651832253	 0.286577
H	 1.5879727847	-0.2575061061	 1.7689964858	 0.109265
H	 1.1308864227	-2.8841920107	 1.2457932964	 0.114095
H	-0.7336105845	-2.901471545	-0.7577415583	 0.086542
H	-2.2076927849	-0.7354216468	 0.5370314572	 0.096378
H	 0.6850326021	-0.7653943865	-2.1519101082	 0.090889
