21
gdb 110309	2.35622	1.46866	1.07975	3.4375	78.77	-0.2356	0.0617	0.2973	1192.1229	0.182232	-424.194531	-424.185313	-424.184369	-424.22793	35.7	
C	-0.1252912902	 1.5757471053	 0.1365684973	-0.494912
C	-0.0088873842	 0.0843200365	-0.0011437906	 0.326267
C	-1.2224427237	-0.8633702411	-0.0298410288	-0.346944
C	-0.4435576761	-1.8470681237	 0.9064166731	 0.115986
O	-0.1685045172	-3.1701614159	 0.460114267	-0.430916
C	 0.762020419	-0.9276660413	 0.8744327897	-0.132803
C	 1.2140159857	-0.611901869	-0.535721516	-0.074517
C	 1.2709473101	-1.6154502578	-1.6808754894	-0.09658
O	 2.0200400872	-2.7721843516	-1.3646594185	-0.428784
H	 0.8447503593	 2.0294382586	 0.3638808851	 0.120548
H	-0.4932185449	 2.0318318002	-0.7907821817	 0.121699
H	-0.8217597313	 1.8510261675	 0.9373648538	 0.11416
H	-2.0996935371	-0.4374259247	 0.4645608991	 0.100468
H	-1.5266678272	-1.2551559403	-1.0051165742	 0.100664
H	-0.8999216521	-1.8809243194	 1.9034175841	 0.079008
H	-0.9930860947	-3.6645076488	 0.4131640581	 0.288293
H	 1.4148162056	-0.744435555	 1.7199723189	 0.083786
H	 2.0888088931	 0.0355877332	-0.5008050815	 0.087266
H	 0.2588221485	-1.8814968802	-2.0154952297	 0.078814
H	 1.7718899134	-1.1473230802	-2.5356327193	 0.098357
H	 1.5044265468	-3.2263570423	-0.6836429765	 0.290141
