20
gdb 107923	3.35266	1.24213	1.17125	2.1575	79.35	-0.199	0.0683	0.2673	1152.4191	0.170702	-403.066531	-403.058045	-403.057101	-403.099492	32.813	
C	 0.3746968087	 1.5833123353	-0.0664651491	-0.328259
N	-0.0299200293	 0.2009155747	 0.1432595462	-0.076033
C	-0.9510372343	-0.122286157	 1.2266623799	-0.055995
C	-0.3106086221	-1.448549824	 1.4788539343	-0.142949
C	 0.9202382137	-0.7600415218	 0.7715664643	-0.027935
C	 1.3211857038	-0.1804027549	 2.1653289717	-0.321198
C	-0.1474158235	-0.3708792523	 2.537729671	 0.329853
C	-0.7617006868	-0.29720093	 3.8995506893	-0.211335
O	-2.1220207404	-0.701800246	 3.7941473827	-0.420169
H	 1.1937842605	 1.61167362	-0.793407004	 0.115752
H	-0.4690540732	 2.1356936199	-0.4940253276	 0.118886
H	 0.6988871525	 2.1168592638	 0.8411823846	 0.097013
H	-1.9978462689	 0.1508552101	 1.2337702728	 0.102945
H	-0.7040576942	-2.4537233249	 1.4946511424	 0.097241
H	 1.6602480238	-1.218763744	 0.1168291234	 0.072004
H	 1.9551331816	-0.8929627732	 2.7015811299	 0.098481
H	 1.7742946284	 0.8161470898	 2.2120388552	 0.087798
H	-0.2105132727	-0.949740381	 4.5979810142	 0.086186
H	-0.681496707	 0.7326849207	 4.2876801509	 0.087655
H	-2.5155837605	-0.663333695	 4.6702895479	 0.29006
