20
gdb 93402	2.74154	1.31239	0.92787	5.6808	85.63	-0.213	-0.0173	0.1958	1267.2041	0.172366	-403.204296	-403.195515	-403.194571	-403.237504	34.374	
C	-0.0057459533	 1.5863478231	-0.0227551796	-0.429812
C	 0.0308242658	 0.0495817409	 0.0205250629	-0.055805
C	 0.6698865068	-0.5162693383	-1.257342657	-0.214011
C	 0.7975971716	-2.0389003358	-1.2086706515	-0.327572
C	 1.5515789615	-2.5147416776	 0.0320830058	 0.385145
O	 2.187148725	-3.5570200074	 0.0242402662	-0.368554
C	 1.4374309694	-1.6717916146	 1.2109839352	-0.304036
C	 0.7291394617	-0.5121532317	 1.2509622327	 0.383851
N	 0.5318190512	 0.1683341764	 2.4252312973	-0.564042
H	 1.0021449843	 2.0124978519	 0.0298439009	 0.126381
H	-0.455785654	 1.9169162893	-0.9634115587	 0.127697
H	-0.6098302781	 2.0190772797	 0.7816305796	 0.115954
H	-1.0107262815	-0.3047924411	 0.066190491	 0.104084
H	 0.075147313	-0.2060002774	-2.1237517442	 0.096356
H	 1.6650507907	-0.0693969035	-1.3808458468	 0.104869
H	-0.2016840128	-2.4971838864	-1.1845967515	 0.114606
H	 1.3061141919	-2.4378280549	-2.0901391981	 0.116251
H	 1.9305032487	-2.0408115518	 2.1068245203	 0.073971
H	 1.0740192043	-0.1248731604	 3.2232579557	 0.258894
H	 0.3490250137	 1.1566418595	 2.38497108	 0.255772
