21
gdb 109819	2.05109	1.27897	0.90793	4.3371	83.64	-0.2306	0.0327	0.2633	1357.2786	0.181103	-383.258421	-383.248208	-383.247264	-383.294202	36.69	
C	 1.3709928352	 2.1734224678	-0.5262508077	-0.384022
C	 1.8533592893	 0.8250547343	 0.0066954145	-0.127296
N	 1.6565183016	-0.2167606542	-0.998089228	-0.08938
C	 1.8310796172	-1.6331737768	-0.6797576404	-0.018423
C	 2.218922152	-2.14227479	 0.6939999555	-0.418186
C	 0.4788417996	-1.0800654039	-1.0105114135	-0.014505
C	-0.6337990955	-1.0272945337	 0.0337501878	-0.375895
C	-1.631680923	 0.0026180719	-0.2610385239	 0.281007
N	-2.4174910713	 0.8150820712	-0.501937067	-0.313402
H	 1.8775791247	 2.4133086229	-1.4649632226	 0.126851
H	 0.2935681107	 2.1615271774	-0.7142966329	 0.145362
H	 1.5794101001	 2.9669076056	 0.1982866216	 0.110936
H	 2.9300046595	 0.869610831	 0.2088085109	 0.107536
H	 1.3667610644	 0.6168078403	 0.9725975402	 0.079828
H	 2.3327446091	-2.1798639384	-1.4792135261	 0.094489
H	 1.7162555017	-1.625785557	 1.5138914602	 0.118952
H	 1.9894176624	-3.2098891878	 0.7783792408	 0.12677
H	 3.2971178533	-2.0271040552	 0.8477348326	 0.13175
H	 0.0834792706	-1.2548671621	-2.0104375924	 0.106711
H	-1.1439242221	-1.9980392135	 0.055056303	 0.158137
H	-0.2520928794	-0.8564857399	 1.0427292675	 0.152782
