21
gdb 2291	7.35937	1.19042	1.09924	0.097	75.09	-0.2835	0.0895	0.373	1149.1136	0.195237	-274.984732	-274.976549	-274.975604	-275.017458	30.042	
C	 0.031430909	 1.5720977426	 0.0238516759	-0.37877
C	-0.0163290767	 0.0430834281	 0.08801782	-0.160765
C	-1.4283229425	-0.5261729544	-0.0964782678	-0.191352
C	-1.4897739015	-2.0453268085	-0.0149654675	 0.066403
C	-1.2426809753	-2.7496250569	 1.3526110794	-0.215139
C	-2.366614917	-3.7584444485	 0.993840784	-0.21
C	-2.8750671629	-2.7506422999	-0.0717404713	-0.236055
H	 1.0510637686	 1.9477900519	 0.1560488912	 0.10921
H	-0.3364732522	 1.9396584346	-0.9407450718	 0.112256
H	-0.5921614306	 2.0204486026	 0.8055097933	 0.112366
H	 0.6452470366	-0.3774061359	-0.681156912	 0.092162
H	 0.3872084388	-0.2954722521	 1.0512463503	 0.097983
H	-2.0952785538	-0.0986701696	 0.6663581595	 0.08476
H	-1.8286865845	-0.1980509796	-1.066619729	 0.088485
H	-0.826282804	-2.4807774913	-0.7731222663	 0.064173
H	-0.2446027991	-3.1452895057	 1.5569575387	 0.091788
H	-1.5354518835	-2.1017148298	 2.1863528525	 0.094216
H	-1.9641405206	-4.6654554183	 0.5331956529	 0.099319
H	-3.0580524889	-4.0529671108	 1.7869237515	 0.093058
H	-3.6622995831	-2.1036145855	 0.3303895111	 0.09482
H	-3.2105264367	-3.144486143	-1.0347611147	 0.091081
