21
gdb 110586	3.09639	1.34	1.09991	1.0893	83.4	-0.2113	0.0756	0.287	1193.1402	0.182013	-383.158353	-383.149763	-383.148819	-383.191358	33.494	
C	 0.0000913575	 1.6199145274	-0.1159603084	-0.38011
C	 0.0488326605	 0.0932798627	-0.1011270609	-0.124187
N	-1.297378314	-0.471322037	 0.0115764595	-0.15592
C	-1.8625321755	-0.5473805395	 1.3928506201	-0.038267
C	-2.7264731147	-1.789234926	 1.023496423	-0.084402
N	-2.2760598788	-2.6495059455	 2.1638184949	-0.354074
C	-1.0648137029	-1.8335881085	 1.8276988036	-0.094914
C	-1.3652274833	-1.9454602657	 0.2803395307	 0.391925
C	-0.9438230654	-3.010393679	-0.6840147454	-0.535578
H	 1.0004493645	 2.0401918421	-0.2582881089	 0.110461
H	-0.6467192286	 1.9726581166	-0.9242082726	 0.125856
H	-0.3949980256	 2.0135442968	 0.8267512618	 0.113124
H	 0.4780886395	-0.267273168	-1.0440567982	 0.099155
H	 0.723559905	-0.2491025001	 0.7048648124	 0.076319
H	-2.1404922643	 0.3267882378	 1.9853915619	 0.077817
H	-3.7280175683	-1.8139840816	 0.5937245576	 0.085583
H	-2.6909568667	-2.3187552832	 3.0390646322	 0.207559
H	-0.1243815322	-1.9367533121	 2.3705251424	 0.082664
H	-1.1715923584	-3.9939967455	-0.2625598391	 0.144402
H	-1.475819341	-2.9033265983	-1.6347137611	 0.129787
H	 0.1313344129	-2.9648486834	-0.8867951756	 0.122803
