21
gdb 58114	2.54074	1.20145	1.11755	1.7943	73.97	-0.2477	0.0681	0.3158	1230.5129	0.179419	-461.341964	-461.331743	-461.330799	-461.376517	38.569	
C	 0.0977993798	 1.4528419345	-0.1965765438	-0.428367
C	-0.0568613826	-0.0438590788	 0.0532456114	 0.10783
O	 0.6979852843	-0.4768836655	 1.1851961429	-0.438932
C	-1.5407684055	-0.5119228235	 0.1598013932	 0.315456
C	-2.2672125069	 0.0931434789	 1.360697359	-0.430498
O	-2.2399445361	-0.1154464959	-1.0124688013	-0.477899
C	-1.544567609	-2.037605444	 0.2524667268	 0.047221
C	-2.6915611335	-2.8285209134	-0.1976101952	-0.191876
O	-1.5196582015	-2.7012907761	-1.0226327431	-0.264469
H	 1.147076216	 1.6941797788	-0.3868294944	 0.121468
H	-0.5032318632	 1.7604017679	-1.0546127397	 0.140447
H	-0.2311320182	 2.0379915549	 0.6709807636	 0.10598
H	 0.3748913873	-0.5889395174	-0.7960906254	 0.094297
H	 0.575355541	 0.1719343303	 1.8857721599	 0.281583
H	-2.3282469837	 1.1806102693	 1.2693712099	 0.128949
H	-3.2868348558	-0.2962197279	 1.4161382069	 0.125669
H	-1.7540663407	-0.1554974574	 2.2943611747	 0.112617
H	-2.0083881849	-0.7731556226	-1.6855196516	 0.289035
H	-0.8627456466	-2.4553448897	 0.9890598525	 0.114699
H	-2.8575395221	-3.8229401858	 0.2116093476	 0.120503
H	-3.572423438	-2.3159578467	-0.5767316537	 0.126288
