18
gdb 86162	2.57082	1.50466	1.09412	2.4773	75.35	-0.2409	-0.0421	0.1988	1123.9581	0.148623	-439.124846	-439.116154	-439.11521	-439.158279	32.144	
C	-0.0102065814	 1.4630717959	 0.0160667956	-0.346026
N	 0.0353808522	 0.0214822466	-0.1610608774	-0.124651
C	-1.2287983773	-0.7012798959	-0.0866854336	-0.186892
C	-1.1765517814	-2.049449923	-0.8088825802	 0.065418
O	-1.297620203	-1.9239842162	-2.2239904375	-0.427678
C	 0.0892727228	-2.787061068	-0.4547603746	-0.115418
C	 1.1789731132	-2.1173238302	-0.0760936509	-0.123967
C	 1.2325495503	-0.6332010048	 0.0271070856	 0.386697
O	 2.2910322366	-0.0520636799	 0.2153344175	-0.392321
H	 1.0061376588	 1.8475262739	-0.0560138026	 0.16825
H	-0.637168138	 1.9169145043	-0.7586349488	 0.123148
H	-0.4221130239	 1.7361496626	 0.9977042467	 0.121501
H	-1.5226612525	-0.8637969063	 0.9632008226	 0.107918
H	-2.0055977314	-0.0897830927	-0.5554918026	 0.121354
H	-2.0552897264	-2.6272412767	-0.5055043516	 0.100652
H	-0.4939470844	-1.4956602532	-2.5413140521	 0.287165
H	 0.1079352156	-3.8636399534	-0.5982567476	 0.113238
H	 2.1262035001	-2.603972053	 0.1279587115	 0.121612
