20
gdb 57418	3.36893	1.05412	0.97835	3.6347	75.8	-0.2529	0.023	0.2759	1286.3306	0.168956	-440.31792	-440.308352	-440.307407	-440.351894	36.547	
C	-0.0724872741	 1.5484233202	-0.0270812697	-0.421272
C	 0.0079519957	 0.0165529146	 0.0688209195	 0.333737
C	 0.7849925129	-0.4119313768	 1.314130811	-0.401328
O	-1.3008684036	-0.530047483	 0.209535104	-0.465374
C	 0.6740938693	-0.5586054512	-1.1941907553	 0.034259
C	 0.5822398822	-2.0957408608	-1.4271280859	-0.405309
C	-0.1050255415	-1.7405764722	-2.7624978687	 0.419764
O	-0.4624304513	-2.3294755118	-3.7437272899	-0.345361
N	-0.1315756971	-0.393884192	-2.4253051479	-0.353066
H	 0.922085495	 2.0014633461	-0.0989431882	 0.112023
H	-0.6501646045	 1.8549117097	-0.9061883583	 0.105054
H	-0.5734301728	 1.9488643377	 0.8581642177	 0.128866
H	 0.2921348309	-0.0255515473	 2.2102871338	 0.128148
H	 0.8228140069	-1.5016923229	 1.3918260514	 0.126715
H	 1.8088431825	-0.0268111758	 1.2892010143	 0.112475
H	-1.7552466087	-0.3863442611	-0.6303324898	 0.281555
H	 1.6931204102	-0.1680462036	-1.2974436964	 0.080934
H	 1.5292365222	-2.6246090453	-1.540003167	 0.131189
H	-0.0657258344	-2.6153554002	-0.7207570368	 0.148337
H	-0.1892362798	 0.3955093657	-3.0548429776	 0.248654
