15
gdb 13917	3.80986	1.77021	1.48056	2.4285	61.94	-0.2589	0.0113	0.2702	858.9225	0.119549	-399.766639	-399.759651	-399.758706	-399.798324	25.336	
N	 0.0815362895	 1.2031180459	-0.2456485922	-0.542824
C	 0.055391091	-0.0217730016	 0.0148296161	 0.38338
O	 1.0417130839	-0.8820339336	 0.4541969084	-0.260314
C	 0.1074254178	-2.0093364685	 0.4615929448	-0.145321
C	-1.0179440156	-1.083188988	-0.02774946	 0.136224
C	-2.3771609965	-0.9234656797	 0.6804638459	-0.126955
O	-3.0978594303	-1.252868436	-0.5217957524	-0.27068
C	-1.8769137283	-1.3507719992	-1.2787963413	-0.126955
H	 1.008298878	 1.6051071196	-0.0967314535	 0.232725
H	 0.4284415207	-2.789123911	-0.2342678964	 0.125302
H	-0.0065027793	-2.4174863096	 1.4694506514	 0.125304
H	-2.5718181787	-1.6364857426	 1.4916123397	 0.10682
H	-2.5872017375	 0.0954830383	 1.0254964715	 0.128235
H	-1.8020263729	-0.5752047557	-2.0497105461	 0.128236
H	-1.7478903717	-2.3402794584	-1.7353912558	 0.106822
