20
gdb 110371	3.28867	1.45122	1.31128	0.9051	78.23	-0.2245	0.0644	0.2889	1044.5434	0.173656	-403.068814	-403.061308	-403.060364	-403.100727	30.409	
O	 0.5814342598	 0.4387790289	 1.175464329	-0.408822
C	 0.0430661003	 0.1144084376	-0.0980472518	-0.120639
C	-1.3235703997	-0.5692612666	-0.0425025542	-0.039269
C	-1.7140444402	-1.9860499775	-0.2968749717	-0.047173
C	-0.8276739764	-3.19314762	 0.0314236935	-0.060048
C	-1.6020954508	-3.6769066749	 1.317164277	-0.203206
C	-1.0479750191	-2.3170781787	 1.8526044366	 0.016336
C	 0.2253112587	-2.6536331166	 1.0384345655	-0.239691
N	-1.9123159537	-1.3839909615	 1.0583549448	-0.138764
H	-0.1277231872	 0.8226655026	 1.7015159321	 0.290803
H	-0.0785323968	 1.0239054451	-0.7058249349	 0.093402
H	 0.7947502206	-0.4974368424	-0.6012931223	 0.121885
H	-2.1034191305	 0.1206769873	-0.367760487	 0.096789
H	-2.6074843523	-2.1806701034	-0.887900054	 0.089107
H	-0.5696625566	-3.8669281086	-0.7852189117	 0.065742
H	-2.6885071081	-3.7712131963	 1.2532867258	 0.101533
H	-1.1557799224	-4.5546077387	 1.7892394953	 0.095693
H	-1.0226710529	-2.057386289	 2.909845947	 0.069603
H	 0.7690292468	-3.4810318988	 1.4997122391	 0.096025
H	 0.9257264706	-1.8684923786	 0.7827895321	 0.120694
