23
gdb 89996	3.9367	1.04191	0.97891	0.1574	92.16	-0.2306	0.027	0.2576	1348.4525	0.206895	-351.164275	-351.155547	-351.154603	-351.197717	34.49	
C	 0.0281835359	 1.6467782407	 0.2680617554	-0.394754
C	 0.0325051576	 0.1193757009	 0.1367455092	-0.017033
C	 0.6357920277	-0.3994534248	-1.1966383694	-0.317907
C	 1.4291868713	-1.682033342	-0.8626472709	 0.332243
C	 0.8644566183	-3.0856383412	-1.2882479712	-0.259177
C	 2.2987884663	-3.5167956615	-1.6877653946	-0.210261
C	 2.7088886502	-2.0215944803	-1.6909576055	-0.268886
C	 1.6360316343	-1.5516514904	 0.6260020147	-0.122384
C	 0.8835929904	-0.59456214	 1.1650558523	-0.084813
H	 1.0455694137	 2.0467122818	 0.1933461795	 0.113925
H	-0.5744505948	 2.1085348317	-0.5215225154	 0.111559
H	-0.3869369625	 1.9634452586	 1.2311495747	 0.109295
H	-1.0080453969	-0.2266166727	 0.2363983339	 0.076601
H	-0.1193710179	-0.5630056217	-1.9717073831	 0.089551
H	 1.3342749151	 0.3532898506	-1.5841632061	 0.095915
H	 0.3506546704	-3.6700691148	-0.5203876028	 0.094451
H	 0.2065697021	-2.9980377227	-2.1587792536	 0.095177
H	 2.7957249107	-4.0775933155	-0.8911013245	 0.100589
H	 2.4160725016	-4.0729750124	-2.6207059999	 0.093982
H	 2.6540953586	-1.5863964235	-2.6940738776	 0.095348
H	 3.6721247982	-1.7512818444	-1.248781086	 0.092694
H	 2.3009885316	-2.2109886019	 1.1758753825	 0.088079
H	 0.8419278579	-0.3500440048	 2.2220136584	 0.085804
