27
gdb 118236	4.54757	0.59484	0.55268	0.1504	97.23	-0.2683	0.0892	0.3575	2142.3135	0.250856	-353.557382	-353.546073	-353.545129	-353.594756	41.5	
C	-0.0184813987	 1.6022992272	-0.0841037354	-0.377705
C	 0.0257391795	 0.0794426689	 0.0754037313	-0.176514
C	-1.3670103708	-0.5612890291	 0.0338606735	-0.161479
C	-1.3882341184	-2.1006158391	 0.0901980355	 0.030453
C	-0.8425950156	-2.6394450625	 1.4203879818	-0.387921
C	-2.8116435811	-2.6194574466	-0.2015939574	-0.205326
C	-2.925353958	-4.1214144994	-0.3723216009	 0.027813
C	-3.3015393287	-5.0244029428	 0.7782899646	-0.249853
C	-4.2780871826	-4.7881718205	-0.3470691638	-0.282007
H	 0.9852827986	 2.0379387948	-0.0539553888	 0.108994
H	-0.4773462771	 1.8875763977	-1.0375021957	 0.112071
H	-0.6066785732	 2.0668943423	 0.7153186342	 0.112584
H	 0.6458920241	-0.3536479155	-0.7211446854	 0.091802
H	 0.5267834386	-0.1678645015	 1.0186569763	 0.098101
H	-1.9735665273	-0.1639489767	 0.8613421689	 0.086652
H	-1.8700105381	-0.2378872581	-0.8880730042	 0.085329
H	-0.7355678436	-2.4693116662	-0.7165198879	 0.064828
H	-0.860502015	-3.7319151207	 1.443127319	 0.121418
H	 0.1894635393	-2.3212734825	 1.5936249391	 0.110659
H	-1.4470060697	-2.2792143834	 2.2624489706	 0.105219
H	-3.4885231174	-2.2945896874	 0.6020197138	 0.085299
H	-3.1749086928	-2.1319801456	-1.1170685384	 0.090211
H	-2.2146343535	-4.5405221993	-1.0819180612	 0.077096
H	-2.8271763924	-5.9969662179	 0.8540397868	 0.107609
H	-3.5143050124	-4.5608381389	 1.736058781	 0.109399
H	-5.1429969119	-4.1648713252	-0.1432108126	 0.107845
H	-4.470413292	-5.598009572	-1.042221275	 0.107423
