18
gdb 80540	2.50802	1.55647	1.29269	3.9592	72.11	-0.209	-0.008	0.201	1050.8095	0.14741	-439.05244	-439.044232	-439.043288	-439.084864	31.583	
C	 0.0486300521	 1.4442391962	-0.0882627514	-0.325618
N	 0.0005710829	 0.0076685035	 0.1186434383	-0.071041
C	-1.3660056671	-0.5547190049	 0.3669764834	-0.191437
C	-1.0958287129	-1.4089101291	 1.624234734	-0.181157
C	-0.2690408397	-0.3975653117	 2.4777548871	 0.116073
O	 0.1500856053	-0.9991058236	 3.678311165	-0.432393
C	 0.7472228424	-0.5007140527	 1.282834077	-0.186715
C	 0.2907643836	-1.9842197981	 1.2453646843	 0.465719
O	 0.7826551913	-3.0554669568	 1.0867305905	-0.313781
H	 1.081610439	 1.7522972074	-0.2786837801	 0.124703
H	-0.5412254419	 1.696665571	-0.9753761604	 0.127437
H	-0.338418947	 2.0442234304	 0.7553212898	 0.093363
H	-2.1029648701	 0.2344919853	 0.5666470998	 0.102287
H	-1.7169478138	-1.1469814336	-0.4846417096	 0.120803
H	-1.9060214904	-2.0037563161	 2.0395082305	 0.097117
H	-0.7351820668	 0.5827528165	 2.6318412306	 0.079385
H	 0.8921614147	-0.4964272999	 4.0296756398	 0.291069
H	 1.7868409285	-0.1812133639	 1.3360654015	 0.084188
