18
gdb 78718	4.66948	1.15951	1.05215	1.1021	84.51	-0.2255	0.0338	0.2592	1172.594	0.147103	-364.706621	-364.698722	-364.697777	-364.738618	31.507	
C	-0.1086385655	 1.4756724468	 0.0179031507	-0.400967
C	 0.033862823	-0.0351567189	-0.0118671834	 0.04557
C	 0.8347794499	-0.5887142623	-1.1823155667	-0.125814
C	 2.0595362158	-0.5567011021	-0.3300825944	-0.080111
N	 1.150630211	-0.5078045838	 0.9150362291	-0.186712
C	 1.0228859565	-2.0083955474	 0.7989166112	-0.239075
C	 1.4676295954	-1.9128613421	-0.659761323	 0.214197
C	 1.9578731437	-2.9267469807	-1.5246475346	 0.095468
C	 2.3693262968	-3.8089112125	-2.233348972	-0.371588
H	 0.8490172312	 1.9651395562	-0.1848315665	 0.12113
H	-0.8305395184	 1.8108256972	-0.7344158049	 0.114286
H	-0.4578258943	 1.8010647306	 1.0021012858	 0.126892
H	-0.9275394848	-0.5131287122	 0.2127366089	 0.072965
H	 0.7480203517	-0.4122953796	-2.2473072173	 0.100715
H	 3.0573660945	-0.1530808346	-0.421947417	 0.109611
H	 1.7771747752	-2.4948394621	 1.4216034897	 0.117484
H	 0.0295063266	-2.4050434158	 1.0353636957	 0.103956
H	 2.7338769416	-4.5833321269	-2.8613456013	 0.181993
