25
gdb 57485	2.75374	1.12194	1.0036	1.5514	87.52	-0.2451	0.0686	0.3137	1353.0656	0.228919	-389.504683	-389.494587	-389.493643	-389.53975	38.702	
C	 0.0243865582	 1.5954076584	 0.1007476615	-0.413725
C	 0.0006914572	 0.0562864777	 0.02374769	 0.232611
C	 0.8027727537	-0.5138396599	 1.2112158085	-0.405898
C	-1.4585678763	-0.4254444749	 0.1407965158	-0.402856
C	 0.6055804658	-0.4943303527	-1.2973806485	 0.03885
C	-0.0455565294	-0.0097622692	-2.6277715286	-0.268823
C	 1.1592847597	 0.3976193982	-3.5026294737	-0.076526
O	 2.2897587393	-0.2501226345	-2.9399286789	-0.242789
C	 2.1055593104	-0.2001064621	-1.535613391	-0.119974
H	 1.0411672148	 1.9971873839	 0.0595356356	 0.113831
H	-0.551928833	 2.0577418271	-0.7065313167	 0.111954
H	-0.4184460016	 1.928361882	 1.0456262245	 0.11165
H	 0.3585760743	-0.2038040311	 2.163379093	 0.108144
H	 0.8156383914	-1.6093206325	 1.1910129177	 0.10884
H	 1.8408492126	-0.16572582	 1.2044006574	 0.114402
H	-2.0784982995	-0.0370413663	-0.6735843553	 0.112069
H	-1.5165147753	-1.519314085	 0.1130511583	 0.10784
H	-1.9035435107	-0.0915794018	 1.0846275152	 0.107278
H	 0.4977592313	-1.5843183262	-1.2521631169	 0.07314
H	-0.6163077504	-0.8164138853	-3.0937183775	 0.105909
H	-0.7312944781	 0.8285026735	-2.4839846255	 0.101087
H	 1.0768390677	 0.0833342964	-4.5462997581	 0.105335
H	 1.2972321757	 1.4914596548	-3.4838807184	 0.084883
H	 2.3842735651	 0.7937517441	-1.1481794816	 0.08559
H	 2.7725862873	-0.9396914146	-1.0864822167	 0.107178
