21
gdb 63087	2.52958	1.39407	1.21031	3.2413	83.	-0.2319	-0.0098	0.2221	1156.7027	0.182469	-387.122069	-387.113192	-387.112248	-387.15524	34.412	
C	-0.1562433935	 1.5202055094	 0.1453849061	-0.465534
C	 0.0069922282	 0.0174963911	 0.0018915268	 0.322378
C	-1.0764302784	-0.7567152042	 0.7379638313	-0.44667
C	 0.5446224476	-0.6286300344	-1.2401521165	-0.092642
C	 1.2757207005	 0.2260094624	-2.2833728103	-0.248964
C	 2.5227234752	 0.8140566832	-1.5854819643	-0.333448
C	 2.6118286073	 0.1480138082	-0.2008425968	 0.405036
O	 3.5611773242	 0.2228668315	 0.5407926369	-0.332218
C	 1.3812885459	-0.6680374887	 0.0334284458	-0.200274
H	 0.592615551	 2.0987713024	-0.3965162881	 0.122164
H	-1.1407714852	 1.8272800844	-0.2268626827	 0.118185
H	-0.0990999205	 1.8121025989	 1.1997369575	 0.126879
H	-2.0682185857	-0.4872611246	 0.3563678885	 0.117932
H	-0.9529713226	-1.8370733618	 0.6194113939	 0.116946
H	-1.0598832111	-0.5313508495	 1.8101048333	 0.122812
H	 0.0488192994	-1.5276827185	-1.5916091349	 0.086308
H	 1.5759840784	-0.4147996339	-3.1172065584	 0.110731
H	 0.625730555	 1.0013335423	-2.7017236422	 0.107106
H	 3.4491933237	 0.5994690392	-2.1256277005	 0.131337
H	 2.4899948595	 1.9014311038	-1.4628838997	 0.132629
H	 1.4877989813	-1.5420872112	 0.6651131942	 0.099308
