23
gdb 81341	2.57342	1.3494	1.11621	0.153	92.92	-0.2014	0.0337	0.2351	1255.196	0.205533	-351.142529	-351.13324	-351.132296	-351.175902	36.137	
C	-0.2039893829	 1.4964337745	-0.0219567456	-0.435417
C	 0.0241995054	-0.0102141871	 0.0070063453	 0.067253
C	 1.2127826479	-0.6190998585	-0.8333891027	-0.121435
C	 2.1472167011	-0.209019768	 0.3521788777	-0.221415
C	 0.8851989313	-0.6300818072	 1.1749640343	-0.121431
C	 0.8014737334	-2.1225581183	 0.8025341054	 0.234874
C	 0.525798132	-3.2293329346	 1.7618013482	-0.521616
C	 1.0178423033	-2.1153299026	-0.5227544777	 0.23488
C	 1.0636456307	-3.211384564	-1.5315665614	-0.521614
H	 0.7084591076	 2.0789783854	 0.1300267433	 0.116351
H	-0.6325649032	 1.798682259	-0.9844770644	 0.113723
H	-0.9166732692	 1.7891530297	 0.7577067797	 0.113725
H	-0.929295771	-0.5247784562	-0.151321669	 0.059164
H	 1.4084248244	-0.3249558838	-1.8663799739	 0.048324
H	 3.0536013732	-0.8018542417	 0.4967692967	 0.086607
H	 2.3821653582	 0.8575446141	 0.3963164372	 0.0889
H	 0.7419635972	-0.3472988419	 2.2196576284	 0.048324
H	-0.4413080616	-3.0948695691	 2.2645478613	 0.122404
H	 0.5089680533	-4.2035979515	 1.2642966183	 0.120433
H	 1.2830980845	-3.2732296263	 2.5558759907	 0.122564
H	 0.8899329059	-4.1907243625	-1.0758219551	 0.120433
H	 0.3072947267	-3.0692740218	-2.3150526854	 0.122395
H	 2.0347186519	-3.2489222678	-2.043044871	 0.122572
