20
gdb 47644	2.11218	1.81138	1.24825	2.1275	81.15	-0.2434	0.0103	0.2536	1082.8515	0.173034	-403.160605	-403.152491	-403.151547	-403.193037	32.043	
N	 0.0280450416	 1.292919169	-0.0912651022	-0.493021
C	-0.0238710116	 0.032179645	-0.0069559847	 0.390407
C	-1.3259992953	-0.7283162909	-0.0142531092	-0.248733
C	-1.3679749774	-1.7601176292	 1.1413314095	-0.256083
C	-1.0343548216	-1.132200643	 2.4703024171	-0.034057
C	 0.1879425681	-1.0006364652	 2.9927818013	-0.053916
C	 1.4840276819	-1.4870529353	 2.3834114842	-0.250427
C	 1.957189722	-0.6589859115	 1.1770582188	-0.089287
O	 1.056295001	-0.8198198973	 0.0789007875	-0.258339
H	 0.9952990314	 1.6242204802	-0.0893595101	 0.216561
H	-2.1379884952	-0.0015643357	 0.0580125273	 0.126917
H	-1.4344234571	-1.2560311298	-0.9701277461	 0.119304
H	-2.3647683237	-2.2122241554	 1.1727381676	 0.100665
H	-0.6562943331	-2.5579763277	 0.9103178595	 0.114443
H	-1.8699273715	-0.6982833855	 3.0162393513	 0.088317
H	 0.2808218967	-0.4736665214	 3.9397458001	 0.088381
H	 2.2785388022	-1.4682513483	 3.1381315956	 0.101865
H	 1.3928239028	-2.5274831632	 2.0489155056	 0.120913
H	 2.0566447806	 0.4006384582	 1.4417380075	 0.103864
H	 2.9297216679	-1.018828173	 0.8282627793	 0.112226
