20
gdb 108249	2.5716	1.33016	1.30101	2.7296	74.36	-0.2241	0.055	0.2791	1119.7478	0.170493	-440.235294	-440.2263	-440.225356	-440.268951	34.071	
C	 0.036030453	 1.5475703688	-0.1673031432	-0.511393
C	 0.0257372636	 0.0577367047	 0.0668281906	 0.220807
C	 0.8082578575	-0.8834600214	-0.8705778709	-0.090762
O	 1.3069346223	-1.6536515881	 0.2555953604	-0.352465
C	 0.7233362405	-0.7346059698	 1.2156495865	 0.377092
C	 1.7693227354	-0.2790514013	 2.2025139972	-0.150797
O	 2.3327366375	-1.3991573184	 2.8641241318	-0.419078
C	-0.6803443584	-1.1834306499	 1.668377441	-0.212239
N	-1.2765090288	-0.5649130868	 0.4433324656	-0.360384
H	 1.044331571	 1.9144441294	-0.3820193483	 0.128077
H	-0.5997560289	 1.8012376043	-1.0244757046	 0.131374
H	-0.346382358	 2.0907897153	 0.7037982493	 0.120185
H	 0.1963502527	-1.4871260402	-1.5473900458	 0.111037
H	 1.6330808956	-0.4111748552	-1.420677368	 0.093493
H	 2.5402594987	 0.3074474047	 1.6767444561	 0.085255
H	 1.3291948207	 0.3602075138	 2.9751196262	 0.104826
H	 2.610308501	-2.004791952	 2.1653432941	 0.296798
H	-0.8320448541	-2.2639610407	 1.7397010262	 0.115098
H	-0.9926309513	-0.7117756578	 2.6085972504	 0.097284
H	-1.9885664701	 0.1245478107	 0.6569007155	 0.215794
