18
gdb 90372	2.33556	1.62101	1.33815	3.4829	73.52	-0.256	0.0069	0.2629	1054.5505	0.146335	-439.068721	-439.060234	-439.05929	-439.101605	32.108	
C	 0.4512993165	 1.4936037211	-0.0255460802	-0.409982
C	 0.131431834	 0.0200908358	 0.0847604868	 0.101872
O	 0.9086790395	-0.8170055941	-0.8234465301	-0.313354
C	 1.3426260803	-1.6793600618	 0.2477418616	-0.068131
C	 2.6184700194	-1.1740844036	 0.8920295257	 0.437343
N	 3.8419229997	-1.3947578159	 0.7480426483	-0.54972
O	 1.9463053454	-0.3232915451	 1.7628980369	-0.299566
C	 0.6335586931	-0.7940926878	 1.2991729993	 0.366216
C	-0.2695064913	-1.1902832548	 2.4296912741	-0.48806
H	 1.494968413	 1.6883218468	 0.2288698325	 0.140169
H	 0.2677898769	 1.8352544769	-1.0485116373	 0.133841
H	-0.1902549262	 2.0734825477	 0.6467007852	 0.120217
H	-0.9388925814	-0.1618692472	-0.0879401602	 0.082029
H	 1.2049055305	-2.7422369949	 0.0502111405	 0.106367
H	 4.4047364275	-0.8182495378	 1.376873198	 0.230298
H	-0.5251033051	-0.3156339729	 3.037693528	 0.13964
H	-1.1979222603	-1.6225474495	 2.0454204573	 0.132696
H	 0.2169495284	-1.9235795328	 3.0786888535	 0.138127
