18
gdb 48428	3.36941	0.98892	0.88284	2.9969	78.02	-0.2324	-0.0222	0.2102	1335.1842	0.145028	-401.894046	-401.884506	-401.883562	-401.929341	34.84	
O	 0.2326213762	 0.4590765834	-1.5292332323	-0.275649
C	 0.0447881452	 0.9289845232	-0.4326891014	 0.139142
C	 0.9941128723	 1.8402617933	 0.2780194906	 0.209066
C	 2.4652872714	 1.7038912592	-0.1348322976	-0.284997
C	 1.6750840075	 2.8701499647	-0.6160379551	-0.28865
N	 0.5703769495	 2.2042584147	 1.6019184091	-0.360034
C	 1.0861996966	 1.4187894836	 2.7252758603	-0.317697
C	 2.4226242223	 1.7972006962	 3.2051471224	 0.308835
C	 3.4948554647	 2.1577656789	 3.6145177911	-0.46082
H	-0.8803842594	 0.7223149444	 0.14934101	 0.077188
H	 3.1992061246	 1.8613179778	 0.6447141454	 0.139876
H	 2.6753055821	 0.9120428272	-0.8448029599	 0.13896
H	 1.3577819679	 2.8837224344	-1.6524049341	 0.139909
H	 1.8640946598	 3.8423174726	-0.17239212	 0.120066
H	 0.6682356582	 3.1945021684	 1.7800965364	 0.230014
H	 0.380720162	 1.5046659516	 3.5613644929	 0.13836
H	 1.0824573905	 0.3633031208	 2.4320353123	 0.143463
H	 4.4470949586	 2.4613512956	 3.97407145	 0.202968
