17
gdb 91788	2.50598	1.71739	1.21569	1.3127	68.81	-0.245	-0.0352	0.2098	1035.4816	0.134049	-458.963376	-458.954853	-458.953909	-458.996466	32.062	
C	-0.5925280151	 1.388294592	 0.1477854389	-0.404599
C	 0.0844593169	 0.0321413733	-0.0297044546	 0.024003
O	 0.8424305742	-0.0382413917	-1.2425637086	-0.277328
C	 2.1870001486	-0.3656956629	-0.9705798837	 0.021842
C	 2.9806550271	 0.6857486463	-0.2534808583	-0.370395
C	 2.4076075119	-0.5000340084	 0.518809251	 0.31427
O	 3.2527761002	-1.3891483222	 1.1545206013	-0.470867
C	 1.0474904971	-0.3435333371	 1.0975508459	 0.295764
O	 0.7591484741	-0.6215473506	 2.2389199952	-0.349815
H	 0.14208134	 2.1965961824	 0.1990631449	 0.12684
H	-1.2621701112	 1.5850890148	-0.6929920576	 0.136129
H	-1.177216975	 1.3861050376	 1.0721517317	 0.140955
H	-0.6827622553	-0.754263846	-0.0615942554	 0.122503
H	 2.6392301157	-1.0228338858	-1.7041838038	 0.124111
H	 4.0600420865	 0.6312089944	-0.3525730254	 0.139776
H	 2.5685970503	 1.6823705447	-0.1396576285	 0.12792
H	 2.8554974541	-1.5437306507	 2.024773467	 0.298891
