19
gdb 50695	3.07887	1.25855	0.99375	3.2151	75.39	-0.2457	-0.0247	0.221	1199.5222	0.160189	-423.034576	-423.026445	-423.025501	-423.067962	30.599	
O	-0.0209851372	-0.0452786171	-0.0174119659	-0.248953
C	 0.0309212543	 1.1531866812	 0.0859974371	 0.142075
C	 1.310895138	 1.9701762333	 0.0431627362	-0.088123
C	 1.3662433454	 2.7871447193	-1.2675233568	-0.225599
C	 2.5552293721	 3.7552659618	-1.2559284871	-0.214089
C	 2.4363481425	 4.8113224173	-0.1443986885	-0.224173
C	 1.9323003643	 4.2405918311	 1.1685046066	 0.043478
O	 0.5180422943	 4.0078603401	 1.2599569315	-0.255904
C	 1.3897556583	 2.8732212163	 1.2632809183	 0.02916
H	-0.891576615	 1.7646964682	 0.2084459017	 0.092562
H	 2.1477091522	 1.2622834422	 0.0737155707	 0.094452
H	 1.4425681792	 2.0954572925	-2.1120293619	 0.112589
H	 0.4311792979	 3.3465333487	-1.38845376	 0.117322
H	 3.4777005674	 3.1779325704	-1.1130856395	 0.102912
H	 2.6458777585	 4.2506634225	-2.2280218766	 0.102675
H	 3.407556837	 5.2892893092	 0.0224141984	 0.104058
H	 1.7451511512	 5.6071888866	-0.4472690631	 0.120204
H	 2.3502870618	 4.6783826309	 2.0751380058	 0.096549
H	 1.4463584179	 2.3567268856	 2.2227412432	 0.098805
