22
gdb 116274	2.2905	1.23998	0.85548	4.2394	83.85	-0.2349	0.0299	0.2648	1399.8384	0.195484	-404.397791	-404.388415	-404.38747	-404.432496	34.554	
C	 0.9008698311	-0.3442534	 1.3109698798	-0.38653
C	 0.0417066126	 0.0106799329	 0.0936020493	-0.190607
C	 0.6986007514	-0.3779244508	-1.2382070864	 0.051082
C	 0.8847139898	-1.900400308	-1.4239710218	-0.224544
C	 0.7114334274	-2.1326994895	-2.9332483922	-0.227238
C	-0.3823822657	-1.1274761368	-3.3096274446	-0.160761
N	-0.117096714	-0.002252431	-2.4102076585	-0.048174
C	-0.3654033713	 1.2760957327	-2.7875455601	 0.134096
O	-0.9469230998	 1.6045295643	-3.8037861319	-0.345812
H	 1.0711663752	-1.4229058748	 1.3856162391	 0.121248
H	 1.8806502888	 0.1439529785	 1.2601583131	 0.118184
H	 0.4171105904	-0.0204988512	 2.2368627663	 0.120612
H	-0.9354319676	-0.4841652436	 0.1579471506	 0.103015
H	-0.1580942419	 1.0883400133	 0.0940083234	 0.104233
H	 1.6761511435	 0.122611674	-1.3035803522	 0.08367
H	 1.8465712907	-2.2478659166	-1.0412528129	 0.109897
H	 0.0989766793	-2.431285746	-0.8729384747	 0.106475
H	 1.6380761735	-1.8907784758	-3.465076703	 0.11133
H	 0.4435929755	-3.1629434912	-3.1787298906	 0.106579
H	-0.346751709	-0.7807573307	-4.3441045782	 0.137259
H	-1.3843339753	-1.5409154806	-3.1324145691	 0.110047
H	 0.0272639757	 2.0133055409	-2.0585562853	 0.06594
