19
gdb 124484	2.51122	1.29415	1.05677	4.1415	78.54	-0.2539	-0.0282	0.2257	1235.5061	0.157388	-419.209715	-419.200153	-419.199209	-419.244819	34.117	
C	-0.0307850044	 1.5931106002	-0.0540896942	-0.385664
C	-0.0534895323	 0.0529257235	-0.0164801738	-0.096551
C	-1.4963982798	-0.4868970416	 0.010119275	-0.385658
C	 0.7143745034	-0.5235842641	-1.1643920841	 0.370613
C	 1.8259467955	-1.3101858619	-1.2601218691	 0.132654
C	 2.7142238532	-1.9045108497	-0.2201971386	-0.496605
N	 2.045881114	-1.506642053	-2.6093337233	-0.164465
N	 1.1802597899	-0.9176669737	-3.302290933	-0.022314
O	 0.2838611028	-0.2581206547	-2.4037496319	-0.232983
H	 0.9933752251	 1.9766380386	-0.0374045605	 0.123995
H	-0.5168245377	 1.9640377877	-0.96101712	 0.138889
H	-0.5633511353	 1.9988203763	 0.8111607738	 0.118628
H	 0.4554512209	-0.2775064074	 0.8963400398	 0.093272
H	-2.0355539838	-0.1913792871	-0.8944926161	 0.138885
H	-1.511828847	-1.5787592814	 0.0723680935	 0.123993
H	-2.0324991243	-0.0861714093	 0.8755105649	 0.11863
H	 2.7289143285	-2.996769737	-0.2914629344	 0.147043
H	 3.7453295356	-1.5556563618	-0.3361040089	 0.14705
H	 2.3764291958	-1.6351904336	 0.783339271	 0.130589
