19
gdb 83166	2.50655	1.56654	1.44353	2.8587	76.63	-0.2285	0.0241	0.2526	1023.5606	0.160745	-419.188893	-419.180623	-419.179678	-419.221775	31.394	
C	-0.3220122262	 1.5375106665	 0.1352137727	-0.437312
C	-0.0441554041	 0.0530276358	 0.0123061371	 0.006853
C	 0.5313357067	-0.6506627009	-1.1728981164	-0.050821
C	 1.122581221	 0.0500605961	-2.3754356289	-0.115517
O	 1.8266660584	 1.2596201401	-2.0788823871	-0.247356
C	 2.5956696226	 1.334297978	-0.9534373758	 0.374594
N	 3.3445357301	 2.3289329256	-0.7294002146	-0.515476
C	 2.5089799382	 0.1893160983	 0.0388754915	-0.238467
N	 1.2790885153	-0.5976116914	 0.0817171576	-0.121712
H	 0.2706174707	 2.1630064685	-0.5288113089	 0.15257
H	-1.3780613166	 1.7163591366	-0.0948229295	 0.123288
H	-0.1554242311	 1.8701642695	 1.1655460741	 0.131006
H	-0.7701923358	-0.5366622505	 0.5723516033	 0.09701
H	 0.138694973	-1.6346198241	-1.4344635192	 0.093571
H	 1.8055385143	-0.6425526376	-2.8884579636	 0.118992
H	 0.3453829212	 0.3337461655	-3.0918194131	 0.128233
H	 3.3083286439	 2.9837223425	-1.513936267	 0.217378
H	 3.3209778201	-0.5133379844	-0.1904241474	 0.135997
H	 2.7249669084	 0.599199686	 1.0275770451	 0.14717
