17
gdb 50331	3.10421	1.58574	1.56081	3.4219	70.92	-0.2387	-0.0224	0.2163	927.4087	0.13694	-421.799163	-421.792231	-421.791287	-421.830658	27.316	
O	-0.3047874402	 0.0572417828	 0.0200507473	-0.239642
C	-0.0657611109	 1.2250913224	 0.1703495576	 0.15898
C	 1.2859116903	 1.8989580911	-0.021220593	-0.008438
O	 2.368275705	 0.9911398679	-0.1225167825	-0.252626
C	 2.849143767	 1.039952319	-1.4638026725	 0.080657
C	 1.7667935391	 0.5648450264	-2.4826669205	-0.255624
C	 1.3717595336	 2.0373786079	-2.6506439798	-0.081971
C	 2.6536335042	 2.4938144285	-1.9646002409	-0.088649
C	 1.3351482414	 2.7464927205	-1.3028218357	-0.087192
H	-0.8622362756	 1.9475655179	 0.4719366771	 0.071575
H	 1.4395306867	 2.546717774	 0.8572338308	 0.0958
H	 3.8303986637	 0.5702479964	-1.4915205261	 0.087713
H	 2.2269191738	 0.1808171438	-3.3976858183	 0.101622
H	 1.0323572145	-0.1476270193	-2.1031944633	 0.132005
H	 0.8788432494	 2.4756588444	-3.5104946927	 0.090658
H	 3.3919909508	 3.2413992658	-2.219748239	 0.095138
H	 0.9299890171	 3.7506894507	-1.2844076085	 0.099992
