23
gdb 118007	3.35599	0.80799	0.68785	4.1343	87.86	-0.2321	0.0331	0.2652	1698.3386	0.203966	-384.473701	-384.462606	-384.461662	-384.5105	39.566	
C	 0.0528188614	 1.5689758808	 0.0738534069	-0.383414
C	-0.1047599127	 0.0481650263	-0.0196595622	-0.190947
C	 0.6555269343	-0.5269224958	-1.2195986435	-0.113341
N	 0.7172272831	-1.9918290236	-1.2293729337	-0.08333
C	-0.6119352805	-2.5883207021	-1.3539535812	-0.345177
C	 1.6247536497	-2.5028079673	-2.2665602042	-0.061341
C	 3.0622113998	-1.9552497535	-2.1650033814	-0.41465
C	 1.6971522046	-3.9741129708	-2.1784421386	 0.282725
N	 1.7871812896	-5.125229908	-2.1364454086	-0.334317
H	 1.102371356	 1.8549209339	 0.2039583629	 0.116752
H	-0.3157120371	 2.0638669895	-0.8315893455	 0.117463
H	-0.508786972	 1.9706421557	 0.9221616546	 0.118472
H	 0.2727265225	-0.4299262342	 0.8916681103	 0.111502
H	-1.1703244801	-0.1944915013	-0.0857816199	 0.104162
H	 0.2096338124	-0.1369736528	-2.158080931	 0.074048
H	 1.6765764669	-0.1413853768	-1.1739303418	 0.105188
H	-1.1336837503	-2.2777752813	-2.2792309263	 0.093607
H	-0.5338249256	-3.677311609	-1.3540698182	 0.152005
H	-1.2301854213	-2.303291214	-0.5018291974	 0.130178
H	 1.2415773795	-2.2752343063	-3.2826026877	 0.100214
H	 3.1125094855	-0.9095613619	-2.471669046	 0.132462
H	 3.4281581873	-2.049258427	-1.139502302	 0.145563
H	 3.7178845573	-2.5282125606	-2.8244692755	 0.142176
