17
gdb 48430	3.21158	1.03174	0.92877	2.2759	74.77	-0.2499	-0.0307	0.2192	1286.8221	0.132051	-421.7698	-421.760442	-421.759498	-421.804823	33.815	
O	 0.3198598477	 0.2576922123	-1.3196761689	-0.266053
C	 0.1354828464	 0.8026585733	-0.2582836889	 0.105166
C	 0.9904714161	 1.8933961222	 0.2905565378	 0.294953
C	 2.4362668623	 1.9697755434	-0.177328049	-0.309946
C	 1.4410132488	 2.957704985	-0.6936195259	-0.290673
O	 0.6180065564	 2.3468600172	 1.5576469329	-0.281023
C	 1.0513188202	 1.5390406171	 2.6513606919	-0.254343
C	 2.3827840371	 1.888328371	 3.1504038088	 0.331972
C	 3.462429321	 2.1791907198	 3.5910621794	-0.456414
H	-0.7249741477	 0.5401787255	 0.3979961198	 0.081793
H	 3.15741712	 2.3043871913	 0.5564558915	 0.144282
H	 2.7538714816	 1.1729763459	-0.8403272089	 0.141646
H	 1.0853219639	 2.8523533124	-1.7117853295	 0.139059
H	 1.4670809811	 3.9645914375	-0.2942091889	 0.136929
H	 0.3147080724	 1.6966680401	 3.4465109452	 0.145053
H	 1.0217389968	 0.4729707949	 2.3865637247	 0.130029
H	 4.418809106	 2.432457471	 3.9779532782	 0.207571
