17
gdb 37686	3.1977	2.43883	1.99937	1.8968	73.97	-0.2389	0.0551	0.294	758.6736	0.138597	-384.55107	-384.545775	-384.544831	-384.580252	24.351	
C	-0.0830515191	 1.4979149742	-0.1833172537	-0.345086
C	 1.5043610926	 1.4807007642	 0.0424779623	-0.095712
C	 2.2048302447	 0.3431452905	-0.8531588176	-0.08824
C	 2.2558006467	-0.7011576902	 0.3606444613	-0.123436
C	 1.128272352	-1.6546706389	-0.3439305257	 0.029799
O	-0.2028144757	-1.417470157	 0.2643064269	-0.385793
C	 0.1536110826	-0.0203849604	 0.0075444075	 0.400822
C	 1.3059938409	 0.2877157612	 0.9992780677	-0.012185
C	 0.968191048	-0.4449663756	-1.2447006177	-0.049176
H	-0.5445500637	 2.0142894996	 0.6630233907	 0.115929
H	-0.5192971129	 1.8350677915	-1.1272183695	 0.105335
H	 2.0326763879	 2.3995727762	 0.2904415254	 0.076097
H	 3.0335350688	 0.5450428718	-1.527338165	 0.069074
H	 3.1629584736	-1.0840606896	 0.8212822553	 0.067559
H	 1.3016695054	-2.6986025778	-0.5971338684	 0.084022
H	 1.0195458319	 0.3622988392	 2.0466537251	 0.07505
H	 0.4319399064	-0.4354002489	-2.1923282445	 0.075942
