21
gdb 111244	2.64334	1.39982	1.35645	1.8226	77.33	-0.2363	0.0789	0.3152	1103.8973	0.184375	-424.209089	-424.200837	-424.199893	-424.242036	31.816	
C	 0.1320912339	 1.3545420835	 0.1521907404	-0.242428
O	-0.229024125	 0.0156447083	-0.1186424075	-0.23819
C	 0.517328658	-0.573070955	-1.141836032	 0.140738
C	 1.8631395606	-1.2881306273	-0.8442707409	 0.041724
C	 1.8423205363	-1.9339901038	 0.5464728596	-0.220782
C	 0.818900772	-3.0953197601	 0.545369342	-0.182975
C	-0.3834780004	-2.8203341749	-0.3891452886	-0.220001
C	 0.0964486738	-1.98546974	-1.5821794492	 0.032016
O	 1.5017246989	-2.2730421447	-1.8586076853	-0.299638
H	 1.1673979336	 1.4385147379	 0.513493027	 0.111287
H	 0.0256884659	 1.9873544873	-0.7418167159	 0.111129
H	-0.542490061	 1.7214695235	 0.929060585	 0.130566
H	 0.6142794267	 0.1007727768	-2.0037148954	 0.073325
H	 2.8017202387	-0.783020987	-1.0875405384	 0.070642
H	 2.8348937245	-2.3092423595	 0.8144629969	 0.095417
H	 1.5728493754	-1.1696047346	 1.283954477	 0.105731
H	 1.3302164756	-3.9889312506	 0.1790199091	 0.113436
H	 0.4809096611	-3.3174515901	 1.5615365851	 0.091346
H	-0.8138934819	-3.7663673759	-0.7321278245	 0.094921
H	-1.175446835	-2.2663895772	 0.1250386746	 0.116837
H	-0.5260793217	-2.0894212667	-2.4744735891	 0.074899
