19
gdb 98298	3.05753	1.03634	0.89238	3.8182	73.13	-0.2422	0.0161	0.2583	1362.7725	0.159243	-456.345558	-456.335833	-456.334889	-456.381251	34.466	
C	-0.2024892272	 1.4411116866	 0.2410206356	-0.337904
N	-0.0731820353	-0.0048438387	 0.1917103074	-0.3097
C	 0.6033501094	-0.7173158622	 1.117998997	 0.409661
O	 1.1993672154	-0.2212456753	 2.0658695918	-0.398689
C	 0.6206078241	-2.2520345969	 0.9419945316	-0.022956
O	 1.4757644108	-2.7801392534	 1.9191194222	-0.434927
C	-0.7819449138	-2.8443183055	 1.0667564044	 0.000469
C	-0.9530374499	-4.2214134021	 1.5817037461	-0.240695
N	-1.3521980853	-3.0573070225	 2.3990284194	-0.315421
H	 0.371087811	 1.7925656024	 1.0986077253	 0.176378
H	 0.1939039874	 1.9015654616	-0.6697560116	 0.132804
H	-1.2486023054	 1.7412307977	 0.3628608181	 0.136689
H	-0.5347453467	-0.5042001773	-0.550970978	 0.254466
H	 1.0083665716	-2.4786081254	-0.0653296483	 0.091953
H	 1.770518554	-1.9987234928	 2.4238696522	 0.299131
H	-1.4951963608	-2.4732340554	 0.3314201766	 0.076605
H	-1.7747936494	-4.8348172876	 1.2236541297	 0.11368
H	-0.0549125103	-4.7579223352	 1.8695271488	 0.132967
H	-0.6106805195	-2.8911771678	 3.0786979818	 0.235489
