27
gdb 100101	2.91435	0.83809	0.78452	1.3555	92.38	-0.2571	0.0663	0.3234	1673.7462	0.248868	-390.705136	-390.693143	-390.692198	-390.742203	44.995	
C	 0.0745514919	 1.5813064151	-0.1983098662	-0.40493
C	-0.1063265343	 0.0590707586	-0.1842194068	-0.173593
C	-1.5630725418	-0.482579181	-0.1679805633	 0.281635
C	-2.3380255526	 0.1115840139	 1.0246263689	-0.427196
C	-2.279652416	-0.1145797785	-1.4802655969	-0.420514
C	-1.441239129	-2.0266706248	-0.030496916	-0.21597
C	-2.6800604863	-2.9024328158	-0.2759466633	 0.11441
C	-2.32804821	-4.3918724436	-0.2151195634	-0.396189
O	-3.7659714123	-2.6128767746	 0.6073578115	-0.421143
H	 1.1394208325	 1.8327958904	-0.2367861824	 0.110513
H	-0.3991431503	 2.0456666139	-1.0687918335	 0.116502
H	-0.3388571323	 2.0530093538	 0.6979241317	 0.118345
H	 0.4052576981	-0.3634918558	-1.0594994983	 0.086525
H	 0.4169702254	-0.3458680766	 0.6928131176	 0.085995
H	-2.4528261105	 1.1952719473	 0.9242624542	 0.10629
H	-3.3331685076	-0.3301919024	 1.094252254	 0.134641
H	-1.8117572802	-0.0784000471	 1.9683571299	 0.093924
H	-1.7875509637	-0.5721711148	-2.3467859872	 0.101634
H	-3.322933389	-0.4428891662	-1.4696756899	 0.126025
H	-2.2858981784	 0.968273854	-1.6366012413	 0.109837
H	-0.6709951457	-2.3698904063	-0.7349424732	 0.089479
H	-1.0482159819	-2.2596956407	 0.9714178193	 0.07683
H	-3.0848580447	-2.6850811105	-1.2703797637	 0.09164
H	-1.9013383959	-4.6515639439	 0.7621151735	 0.104389
H	-3.2269036638	-4.9958388973	-0.365739283	 0.121673
H	-1.5935731616	-4.6622240113	-0.9805395614	 0.114446
H	-3.4650686799	-2.7922650754	 1.5054467394	 0.274804
