14
gdb 29078	2.74998	1.74142	1.09549	2.1321	77.6	-0.2393	-0.0759	0.1634	1022.716	0.10373	-432.890475	-432.883352	-432.882408	-432.922619	26.861	
O	-0.0883936375	 1.2681831564	 0.3968684891	-0.368696
C	-0.0150185793	-0.0332375353	 0.0947822804	 0.375959
N	 1.1571722187	-0.5558133931	 0.0255567247	-0.360428
C	 1.4708025724	-1.8678086176	-0.226056213	 0.088493
N	 0.7908499164	-2.9593817889	-0.1362284268	-0.254802
C	-0.5553599963	-3.0125571817	 0.1326741395	-0.005168
C	-1.5117012052	-2.0538893783	 0.0824156844	-0.092738
C	-1.3730596759	-0.6242789949	-0.1374451761	 0.195284
N	-2.4049923774	 0.0914721851	-0.3971232355	-0.494627
H	 0.8248749394	 1.5730127221	 0.5145243859	 0.310598
H	 2.5189474226	-1.9868304871	-0.4994613377	 0.127068
H	-0.8950163361	-4.0238513335	 0.3469455633	 0.118548
H	-2.5419048451	-2.3659431792	 0.2254511129	 0.123221
H	-2.1548078867	 1.0801191459	-0.4404563112	 0.237289
