18
gdb 42366	1.94307	1.40284	0.93111	2.2147	77.68	-0.2437	-0.0267	0.2171	1274.2718	0.145506	-401.899644	-401.890166	-401.889222	-401.934985	34.085	
O	-0.1067185051	-0.9427681482	 1.456824143	-0.290266
C	-0.1788385906	 0.0276282023	 0.745883666	 0.38913
C	 0.7335285399	 0.1411862021	-0.4974283342	-0.436771
C	 1.3436423501	 1.4497468902	-0.6847148332	 0.296999
C	 1.8405165332	 2.5367745188	-0.8208873961	-0.456174
C	-1.1880032463	 1.145306505	 0.9840674451	-0.325269
C	-2.2246749402	 1.2257168689	-0.1236167695	 0.013238
C	-2.8685510352	 2.5170247704	-0.4659320803	-0.244334
N	-1.9273337571	 1.8858780414	-1.4067780111	-0.318267
H	 1.492150295	-0.6414626692	-0.4079593557	 0.157379
H	 0.1135609741	-0.1000348297	-1.3723747392	 0.173475
H	 2.2976264396	 3.4872059592	-0.9477153434	 0.207473
H	-1.6707412134	 0.9437412751	 1.9445877658	 0.128592
H	-0.6528365924	 2.0994505691	 1.0520184285	 0.125055
H	-2.8170605829	 0.3196862487	-0.2411925151	 0.103929
H	-3.903789963	 2.5393966202	-0.7940353118	 0.122767
H	-2.5467339516	 3.4020553875	 0.0778273797	 0.114007
H	-1.0246291039	 2.3541971182	-1.3555603485	 0.239036
