14
gdb 132668	3.20895	1.29839	0.92437	3.2661	67.98	-0.2096	-0.0011	0.2085	1137.061	0.100609	-481.856407	-481.84881	-481.847866	-481.888271	29.488	
O	 0.1069126555	 1.3478775799	 0.204447605	-0.473976
C	 0.0701696303	-0.0181295277	 0.0493095879	 0.249419
C	-0.0316017734	-0.6740536386	-1.1670815338	-0.226133
C	-0.0613308487	-2.0701690972	-1.2180144148	-0.262628
C	 0.0131016641	-2.7743254871	-0.0285691177	 0.315985
F	-0.0139524351	-4.1137085558	-0.0567714186	-0.087068
C	 0.1155973441	-2.1400974615	 1.2040036344	-0.368043
C	 0.1444908342	-0.7521084703	 1.2447541019	 0.359669
O	 0.244288767	-0.1125588562	 2.4371313662	-0.444542
H	 0.0515503963	 1.7756498263	-0.6548726674	 0.303468
H	-0.0885427776	-0.0976443962	-2.08622441	 0.094575
H	-0.1404124141	-2.6003684458	-2.1582692998	 0.10913
H	 0.1722842826	-2.713970962	 2.1201339664	 0.120064
H	 0.2478524747	 0.8364846022	 2.2572609004	 0.310079
