22
gdb 78753	2.83757	1.60221	1.25016	0.9696	86.07	-0.1959	0.0974	0.2933	1108.9991	0.195395	-367.178268	-367.170099	-367.169155	-367.210274	33.256	
C	-0.1325664671	 1.3830841679	 0.0161008539	-0.322657
N	 0.013036572	-0.0633687978	-0.027619005	-0.110855
C	 0.7653309046	-0.5040553411	-1.2201083137	-0.037799
C	 2.0313003385	-0.8031503178	-0.4544860041	-0.147039
C	 1.1762077168	-0.5533941366	 0.8174193192	-0.014114
C	 0.8105308411	-1.9341700503	 1.3575510661	-0.20158
C	 0.5347574289	-2.7447062896	 0.0627138706	-0.2766
C	 1.2222944582	-1.9414214309	-1.0488032743	 0.326945
C	 1.7198174974	-2.6598389883	-2.2799699367	-0.493976
H	 0.8113511137	 1.932755705	-0.1621865111	 0.087854
H	-0.8557488255	 1.7012824906	-0.7429845583	 0.114196
H	-0.5221702721	 1.6800045223	 0.9954835305	 0.114133
H	 0.6016870673	-0.0503925693	-2.1927231704	 0.0808
H	 3.0793742499	-0.5995236239	-0.6363945712	 0.080532
H	 1.5219408825	 0.1779330409	 1.5496988033	 0.064207
H	 1.6573510106	-2.3553151305	 1.9121561126	 0.090749
H	-0.0532872775	-1.8953962759	 2.0268154703	 0.099476
H	 0.948510617	-3.7569833091	 0.118340203	 0.089299
H	-0.5390627049	-2.8384653343	-0.1250476565	 0.107549
H	 0.8974439592	-3.1547314772	-2.8093657077	 0.119503
H	 2.1968348558	-1.9687052547	-2.9832188836	 0.113726
H	 2.4562957536	-3.4285199695	-2.018115987	 0.115653
