23
gdb 54138	2.24591	1.32913	1.158	2.5561	86.43	-0.236	-0.0106	0.2253	1249.0201	0.201692	-388.309881	-388.298828	-388.297883	-388.345748	40.628	
C	 0.8072440995	 0.8721973958	 0.4267857639	-0.48563
C	-0.3904089467	 0.1751283334	-0.1973050777	 0.333046
O	-1.5052192555	 0.337804504	 0.2497300625	-0.315636
C	-0.1970839314	-0.6675804107	-1.4465409387	 0.185729
C	-1.1629565511	-0.226615151	-2.5387456082	-0.452746
C	 1.1675008263	-1.2044874642	-1.8235759683	-0.389279
C	 0.1370439582	-2.1535213571	-1.2571899136	 0.321411
C	 0.334303232	-2.684464195	 0.1538692013	-0.45633
C	-0.4958912869	-3.1879049247	-2.1718863177	-0.454315
H	 1.2896354429	 1.5154693354	-0.3184208231	 0.140479
H	 0.4709901412	 1.472363957	 1.273112258	 0.138806
H	 1.5683444409	 0.1621023552	 0.7636489063	 0.138793
H	-0.987814714	 0.8227941939	-2.802384	 0.115603
H	-1.0469273762	-0.8139871447	-3.4510032626	 0.112104
H	-2.1954353621	-0.3124921526	-2.1912823521	 0.142295
H	 1.3960246825	-1.2711272208	-2.8832599897	 0.107168
H	 2.0252666682	-0.9502494923	-1.2095117868	 0.10489
H	 0.8442204566	-1.9735194517	 0.8078246756	 0.11407
H	-0.627914828	-2.927395084	 0.6183661901	 0.12972
H	 0.9357822439	-3.6006007176	 0.1337447893	 0.113881
H	 0.0985825352	-4.1090827064	-2.1572898874	 0.116487
H	-1.5080065201	-3.4447190615	-1.8385881222	 0.122968
H	-0.5577045653	-2.8585038105	-3.2106581489	 0.116486
