19
gdb 48890	3.49138	1.40422	1.32624	2.9736	79.85	-0.2443	-0.0215	0.2228	1026.5123	0.161193	-385.869361	-385.862317	-385.861373	-385.900948	28.594	
O	-0.0893298107	 0.021421057	 0.0165052628	-0.252467
C	 0.0373115808	 1.2174834901	 0.1190749936	 0.031426
C	 1.3312243934	 1.9480525441	 0.0454265316	 0.258624
C	 2.6787391928	 1.249944672	-0.2541227794	-0.28089
C	 3.0952444226	 2.6467219819	-0.7342674687	-0.029956
C	 2.7181273823	 3.7296658877	 0.3736792248	-0.040788
C	 1.7658231977	 4.3836549541	-0.6604359365	-0.239438
C	 1.629944251	 2.9495159166	-1.1834399336	-0.075421
C	 1.7227354208	 2.8958892096	 1.2087969594	-0.264484
H	-0.8531064072	 1.8751399766	 0.2651746827	 0.064502
H	 3.2020061613	 0.7777239794	 0.5822984264	 0.097137
H	 2.600531316	 0.5464467702	-1.0866851255	 0.112893
H	 3.9570467877	 2.8474839005	-1.3694863949	 0.072006
H	 3.4750327139	 4.3051974275	 0.905126017	 0.068317
H	 0.8890927184	 4.9235056583	-0.2881305974	 0.092242
H	 2.2984953477	 5.003145254	-1.3883843906	 0.102908
H	 1.2270863515	 2.6728236998	-2.1569524139	 0.079138
H	 0.8949382955	 3.4982742845	 1.5953894516	 0.098898
H	 2.1723118546	 2.3440364961	 2.0383205906	 0.105352
