19
gdb 71044	3.04614	2.10498	1.632	1.5021	84.34	-0.1925	-0.0171	0.1754	884.6894	0.160578	-348.65799	-348.651318	-348.650374	-348.68833	28.981	
C	 0.0987360706	 1.4215553534	-0.1111169875	-0.478307
C	-0.042138896	-0.0847910355	-0.0033302081	 0.347107
C	-0.0838748594	-0.9329544105	-1.3560526575	-0.314469
C	-0.9050042535	-1.8776278152	-0.4711550248	 0.000239
C	-0.1567054092	-2.7700891762	 0.2211999524	-0.105866
C	 0.1310636183	-2.1857721093	 1.5421158609	-0.084662
C	-0.7979441277	-1.0423335742	 1.8513467677	-0.088916
C	 0.5760119659	-0.6894465367	 1.3131211997	-0.142778
C	-1.3769659087	-0.7444973429	 0.4639372939	-0.101165
H	 1.1308633187	 1.7080870345	-0.3454252972	 0.118232
H	-0.5462458463	 1.815082332	-0.9041306334	 0.115131
H	-0.1783982808	 1.9115463236	 0.8282461169	 0.121595
H	-0.6260174348	-0.3527536259	-2.1132602082	 0.094751
H	 0.840638051	-1.3302693367	-1.780425239	 0.101258
H	 0.5660849386	-3.4227926598	-0.2607555919	 0.091415
H	 0.6319045424	-2.7039600809	 2.353070234	 0.086249
H	-1.238988569	-0.8637384661	 2.8223494722	 0.088353
H	 1.4381471256	-0.2998357284	 1.8394164571	 0.086439
H	-2.3414330658	-0.2674509851	 0.2982878428	 0.065395
