15
gdb 123345	7.0685	0.74927	0.70762	1.3974	73.09	-0.2748	-0.0302	0.2446	1517.5032	0.112326	-416.77919	-416.77094	-416.769996	-416.81371	29.006	
C	 0.0355373334	-1.212756917	-0.0817834486	-0.429017
C	-0.0073517246	-0.0121636173	-0.0641919343	 0.293509
C	-0.0226647662	 1.443598821	-0.0395357868	-0.357863
C	 1.4044183096	 2.0351462442	 0.1018451321	-0.307665
C	 1.3959196057	 3.5239230291	 0.127875068	 0.421724
N	 1.711226228	 4.3220624018	 1.1061725452	-0.309087
C	 1.4915258851	 5.5561471477	 0.5448225224	 0.037378
N	 1.0681123802	 5.543103628	-0.6881580612	-0.110476
O	 1.0008720852	 4.1736733415	-0.9775001034	-0.197922
H	 0.0565831023	-2.274338297	-0.0993893632	 0.201972
H	-0.4831532028	 1.8299267956	-0.955875843	 0.154916
H	-0.6425520736	 1.7960853559	 0.7935487735	 0.14871
H	 1.8670510023	 1.6873746885	 1.026595795	 0.155152
H	 2.0183651426	 1.6887012391	-0.7353938792	 0.14895
H	 1.6523219127	 6.4859944087	 1.0707771236	 0.149719
