23
gdb 110316	2.06142	1.49191	1.03238	1.3942	86.56	-0.2259	0.0841	0.31	1294.176	0.204074	-388.265215	-388.255307	-388.254363	-388.299458	37.592	
C	-0.7382239485	 1.924336082	 1.1148822568	-0.370868
C	 0.1637187043	 0.7469524841	 0.7280634071	-0.221561
C	 0.5775763255	-0.1101326257	 1.9078156784	-0.051371
C	-0.2829403875	-1.0884311947	 2.7091812494	-0.234683
C	-1.1405468449	-1.9895645031	 1.8229642645	 0.157222
C	-2.4088649389	-1.5270811905	 1.1323990644	-0.420448
O	-0.0119823925	-2.2354931927	 0.9321617752	-0.340904
C	 0.8784752596	-1.5737202897	 1.8517960934	 0.431536
C	 2.1774132891	-2.254851776	 2.1399583492	-0.487923
H	-0.2439692008	 2.5809222769	 1.8397137477	 0.109623
H	-0.9962486864	 2.5301916738	 0.2403403014	 0.109781
H	-1.6707620169	 1.5774835856	 1.5720335241	 0.117221
H	-0.3202524668	 0.1188385518	-0.0241150688	 0.115579
H	 1.0758259115	 1.133122052	 0.25373576	 0.092125
H	 1.256289441	 0.4005974244	 2.5923884541	 0.081735
H	-0.3688958739	-1.0254243353	 3.7867750324	 0.088549
H	-1.3526840146	-2.9235866284	 2.3638673752	 0.078676
H	-2.729320141	-2.2765973262	 0.4010034925	 0.124824
H	-3.2094063111	-1.4174246766	 1.8723152076	 0.115838
H	-2.2846491749	-0.5740176404	 0.6171033282	 0.128856
H	 2.798424839	-2.2945366263	 1.2374357025	 0.13044
H	 2.7345367429	-1.7110974339	 2.9083889315	 0.120593
H	 2.0170491758	-3.2820842012	 2.4828277334	 0.12516
