17
gdb 71048	3.06968	2.15221	1.66055	0.3776	76.72	-0.1986	-0.0279	0.1708	836.3381	0.136916	-384.580581	-384.574212	-384.573268	-384.61065	27.789	
O	-0.0355677988	 1.2618281708	 0.24822245	-0.475255
C	 0.0510635786	-0.1045172096	-0.0200419379	 0.420983
C	 1.2643130666	-0.9464899223	 0.5808433101	-0.333023
C	 0.9018820216	-1.8580149125	-0.5984164382	 0.000011
C	-0.0672987191	-2.7567772935	-0.3092221303	-0.094299
C	-1.368346793	-2.1729292135	-0.7009020785	-0.088985
C	-1.1780989842	-1.0027769529	-1.6311310129	-0.086099
C	-1.4020798483	-0.7053076346	-0.1613721431	-0.122182
C	 0.312025267	-0.7028485422	-1.437603502	-0.138659
H	 0.8392847497	 1.6457876106	 0.1213354121	 0.280509
H	 2.1807253078	-0.3455536607	 0.4853694307	 0.084251
H	 1.1994077357	-1.3700291295	 1.5846838063	 0.107902
H	-0.0003522079	-3.4419228325	 0.531485247	 0.097523
H	-2.3121474392	-2.707504767	-0.6899831856	 0.090268
H	-1.8061843151	-0.8004025813	-2.487031021	 0.092529
H	-2.2747867974	-0.3062113313	 0.337622313	 0.097619
H	 0.9345378559	-0.1983325683	-2.1748804298	 0.066907
