16
gdb 44671	4.32054	1.35529	1.10161	3.9617	79.31	-0.2417	-0.0279	0.2138	1067.289	0.126991	-400.77344	-400.766739	-400.765794	-400.804512	26.846	
N	-0.0970993201	 1.2473706992	 0.2481137655	-0.547419
C	-0.0415410578	 0.0124258654	-0.0218819715	 0.409545
O	 1.1152679782	-0.6708138169	-0.3537898633	-0.268827
C	 0.7655738479	-2.0154898699	-0.6978919493	 0.034459
C	 1.3503065776	-3.1854783747	 0.0627145081	-0.120261
C	 0.386548859	-4.0668672094	 0.3516198613	-0.054016
C	-1.006105511	-3.5899391742	-0.0632528445	-0.366409
C	-0.691721814	-2.1480325178	-0.3352634443	 0.287819
C	-1.1545068297	-0.9545634253	 0.0306163451	-0.312582
H	 0.8312560757	 1.6684637968	 0.1921983739	 0.222294
H	 0.9692378036	-2.128388021	-1.7748864121	 0.105493
H	 2.4108531675	-3.3200030532	 0.2347834103	 0.114276
H	 0.5449689221	-5.038685225	 0.8056079951	 0.109613
H	-1.3582064427	-4.1328099222	-0.9523192942	 0.129523
H	-1.7634732338	-3.7271634731	 0.714800251	 0.129918
H	-2.1215628927	-0.6882257187	 0.4311259289	 0.126576
