18
gdb 9645	4.28406	1.19906	1.07219	1.7745	75.56	-0.2571	0.0291	0.2862	1167.0486	0.15023	-347.759745	-347.750461	-347.749516	-347.793607	33.624	
C	-0.2993479178	 1.496494285	 0.1915490813	-0.374035
C	 0.2760744043	 0.1283262333	-0.1987138285	-0.223936
C	 1.0196007073	-0.5046189181	 0.9527820536	 0.045125
O	 0.2495797997	-1.0348687583	 2.0347268175	-0.283842
C	 1.0539755702	-1.9556598097	 1.2671803182	 0.175722
C	 0.296774239	-2.9997951257	 0.4717207333	-0.471367
C	 2.2206774075	-2.4636093941	 1.9583343416	 0.291738
C	 3.1883571836	-2.9130056304	 2.5122359207	-0.433399
H	 0.493080828	 2.1869023017	 0.4997648551	 0.11854
H	-0.8325732627	 1.9513328385	-0.6481325788	 0.115245
H	-0.9986921342	 1.3943999341	 1.0265407976	 0.13631
H	-0.5307367613	-0.5273555925	-0.5366727541	 0.105486
H	 0.9732041041	 0.2400550553	-1.0390943388	 0.105541
H	 1.8885747296	 0.0670462905	 1.2878729414	 0.092907
H	-0.5947181505	-2.5746608567	 0.0095718001	 0.130887
H	 0.9373788575	-3.4250239376	-0.3068258848	 0.132152
H	-0.0140701588	-3.8130686173	 1.1339097044	 0.139014
H	 4.0436255446	-3.299965538	 3.0089177902	 0.197911
