15
gdb 19599	4.39333	2.02894	1.88469	2.6559	59.11	-0.2425	0.0699	0.3124	737.129	0.1211	-399.716921	-399.711187	-399.710243	-399.746404	24.156	
O	 0.1323992473	 1.4041487138	-0.0889379719	-0.462661
C	 0.1203138361	 0.0068924323	-0.1010287998	 0.191195
C	 0.16699567	-0.6406489849	 1.3144274675	 0.008542
O	-1.2570888327	-0.2476450778	 1.4456600925	-0.334935
C	-1.3023233491	-0.6166511631	 0.0098757581	 0.008542
C	-1.0708126503	-2.134464754	 0.0840289606	-0.045929
N	 0.2866661071	-2.5608182016	-0.3356209855	-0.332143
C	 0.0382843214	-2.1525785415	 1.0687575121	-0.045928
H	-0.4829249443	 1.6679022433	 0.6089549521	 0.284337
H	 0.8007768334	-0.3381410658	-0.873782336	 0.116859
H	 0.7990127785	-0.2708248798	 2.1209935152	 0.084572
H	-2.1710584723	-0.2223181629	-0.5160189422	 0.084572
H	-1.8949269128	-2.8371767392	 0.0852332794	 0.103966
H	 0.3063690757	-3.5786149844	-0.3765313532	 0.235043
H	 0.1216752718	-2.8701125143	 1.8757029213	 0.103966
