23
gdb 89989	2.91433	1.25543	1.08229	1.5353	85.37	-0.2342	0.0787	0.313	1256.4153	0.205221	-388.278552	-388.269229	-388.268285	-388.312844	35.964	
C	 0.25324246	 1.623263925	 0.0040125687	-0.403019
C	-0.0291285234	 0.1384817746	 0.1313832128	 0.143242
O	 0.5789869053	-0.6269864599	-0.936198271	-0.335958
C	 1.2434101849	-1.5099316734	-0.0203088709	 0.46616
C	 0.9745330569	-3.0306930844	-0.129815813	-0.287958
C	 2.4837186137	-3.2764093273	 0.1442198584	-0.214232
C	 2.7496720243	-1.7926517805	-0.2287269195	-0.286636
C	 0.7066161195	-0.7157990279	 1.2026631696	-0.13536
C	 1.7051718972	-0.0358923464	 2.1293692422	-0.41257
H	 1.3263454088	 1.8301403874	-0.0200533553	 0.119172
H	-0.1830313651	 2.0007118895	-0.9263336478	 0.125698
H	-0.1936239996	 2.1777430319	 0.8365378814	 0.112498
H	-1.1164367639	-0.0231791145	 0.1414285534	 0.069943
H	 0.2407174705	-3.4685039543	 0.553014253	 0.09108
H	 0.7009874172	-3.2863319262	-1.1576623609	 0.110996
H	 2.6841756361	-3.4781926404	 1.2000047565	 0.101276
H	 2.9833175061	-4.040316877	-0.4543709152	 0.10018
H	 2.9965513042	-1.6764277945	-1.2882017168	 0.111472
H	 3.4715769698	-1.2267099004	 0.3647384863	 0.093599
H	 0.0089023057	-1.3115778398	 1.7990327693	 0.073037
H	 2.4427601152	 0.5573999547	 1.5818777088	 0.123631
H	 1.1943537903	 0.6320993426	 2.8311349362	 0.116156
H	 2.2518405059	-0.7775079189	 2.7217812838	 0.117593
