20
gdb 79884	2.43206	1.76411	1.40553	0.3214	78.49	-0.2223	0.0522	0.2745	1030.7533	0.170876	-403.065188	-403.056973	-403.056029	-403.097319	32.488	
C	-0.0288724079	 1.5798079545	-0.0874351568	-0.449409
C	 0.0916652713	 0.0720160764	 0.0593181478	-0.014799
N	 1.1760264479	-0.8567066539	-0.3700324341	-0.226293
C	 2.5637156486	-0.4155263773	 0.0492172594	-0.018359
C	 2.9811194532	 1.061589176	 0.1378833273	-0.110674
O	 2.4569761627	 1.1563581485	 1.4946033082	-0.298922
C	 2.1554830646	-0.2600884896	 1.5075923934	 0.048302
C	 0.7341889045	-0.7297092718	 1.1169655604	 0.290841
C	 0.0576727114	-1.8514589133	 1.8517598135	-0.490784
H	 0.0841400384	 1.8754164722	-1.136297165	 0.121596
H	-1.0415656532	 1.8650601066	 0.2174184227	 0.116057
H	 0.6712771995	 2.1326565392	 0.5315280086	 0.160568
H	-0.831297002	-0.4084028348	-0.2697021158	 0.099068
H	 3.2967777095	-1.1341610166	-0.3131103396	 0.092142
H	 4.0695367817	 1.2003579456	 0.1351138664	 0.107238
H	 2.5235450151	 1.7764907818	-0.5502081432	 0.113597
H	 2.6085873409	-0.7808524468	 2.3546284507	 0.082469
H	-0.3870971525	-1.4875045014	 2.7861021892	 0.125345
H	-0.738278541	-2.289521328	 1.2430918224	 0.130295
H	 0.7653015972	-2.6485809773	 2.1063351844	 0.121722
