17
gdb 74089	2.67087	1.62626	1.16836	6.7125	76.85	-0.2238	-0.0193	0.2046	1058.8056	0.136434	-418.032349	-418.024077	-418.023133	-418.064641	32.099	
C	-0.0583423485	 1.518501081	-0.0171922551	-0.490648
C	-0.0082163866	 0.0078718144	-0.0142758194	 0.240227
C	 0.3037138649	-0.7654047262	 1.2287676085	-0.275699
N	 1.2919608859	-0.6465988534	 0.1415336497	-0.168977
C	 1.2752512347	-1.821593679	-0.7448012848	 0.374044
O	 2.1758821608	-2.6214938097	-0.7658808155	-0.348115
C	 0.028772574	-1.7948052804	-1.5035347728	-0.347895
C	-0.736378888	-0.7563135775	-1.0830562964	 0.336047
N	-1.9788453801	-0.3806862113	-1.4836009275	-0.59896
H	 0.6363628492	 1.915557332	 0.7259859299	 0.145097
H	 0.2262173853	 1.9199749884	-0.9951783507	 0.133996
H	-1.0592476665	 1.8903864084	 0.2329860328	 0.113998
H	 0.5504513583	-0.2273811017	 2.1410629179	 0.122794
H	-0.1813190813	-1.7276960285	 1.3704125392	 0.130961
H	-0.2339874547	-2.5518547441	-2.2287828277	 0.101812
H	-2.3573299561	-0.7657753385	-2.3330762891	 0.267959
H	-2.3212074312	 0.5296742561	-1.2283535891	 0.263359
