21
gdb 113355	2.17673	1.09672	0.83196	2.9281	80.56	-0.2472	-0.0219	0.2253	1460.0077	0.180148	-424.225925	-424.215529	-424.214584	-424.261758	37.195	
C	-0.2077855011	 1.51020722	 0.360119586	-0.375644
C	 0.2542557194	 0.0964774636	-0.0171803175	-0.212679
C	 0.7937013119	-0.6533841863	 1.1844356231	-0.01456
C	-0.0770063539	-1.4808594031	 2.0670018332	-0.326015
C	 0.9836531071	-2.1751137823	 1.209514539	 0.172677
C	 0.5596112178	-3.0726101189	 0.0672148782	-0.158394
O	 0.2621690867	-4.3886812455	 0.5156329047	-0.416765
C	 2.1977076317	-2.6366652308	 1.9441295428	 0.101695
O	 2.6297225376	-2.1149333323	 2.945863408	-0.277487
H	 0.6172116597	 2.0944496241	 0.7811053421	 0.122064
H	-0.5859016047	 2.0465957691	-0.5152929009	 0.115123
H	-1.0060494147	 1.4766227966	 1.1085710226	 0.121783
H	-0.5833734672	-0.4496135354	-0.4642878012	 0.099555
H	 1.0304664816	 0.1603473346	-0.7901265894	 0.105402
H	 1.5971755997	-0.1396253258	 1.707713677	 0.111175
H	 0.1060301486	-1.4668484126	 3.1355768912	 0.138952
H	-1.1118488359	-1.6269066474	 1.7686459879	 0.110805
H	-0.2867699436	-2.6352967197	-0.4793670557	 0.092956
H	 1.3794655368	-3.1933099251	-0.6504231024	 0.116569
H	-0.419089813	-4.3161436303	 1.1929809231	 0.284046
H	 2.7046016255	-3.5161798625	 1.4928166481	 0.088742
