15
gdb 33599	3.91697	1.55149	1.40176	5.2214	73.33	-0.257	0.0074	0.2644	919.0703	0.114746	-379.594074	-379.587874	-379.58693	-379.624618	25.168	
N	-0.0259497907	-1.0720929289	-0.0039519271	-0.34762
C	-0.0183451749	 0.0847916291	 0.0022151856	 0.16293
C	 0.042603969	 1.5078539149	 0.0466172558	 0.274536
C	-0.7966744375	 2.5070104618	 0.7698316624	-0.110326
C	 0.3067499563	 3.5555982145	 0.492426763	-0.080695
C	-0.1296952061	 3.548927933	-1.0063244422	 0.012681
C	 1.2504720994	 3.0380067275	-1.4443496731	-0.247806
C	 1.2867523972	 2.4247497092	-0.0253616215	-0.131779
N	-0.9954333015	 2.3266979384	-0.6921668062	-0.177177
H	-1.5815544298	 2.3759308598	 1.5041995856	 0.121124
H	 0.6147656861	 4.4109659917	 1.0853809983	 0.090927
H	-0.6879843235	 4.3297941636	-1.518494327	 0.09474
H	 1.3149371952	 2.3741712364	-2.3098029851	 0.123481
H	 1.9623671278	 3.8632707707	-1.5412451501	 0.116013
H	 2.1919921829	 2.1123999584	 0.4886917015	 0.098971
