21
gdb 92723	3.09473	1.29784	1.02182	1.0913	84.63	-0.2192	0.026	0.2452	1224.1961	0.183502	-387.097713	-387.089066	-387.088122	-387.130521	34.193	
C	 0.1521616927	 1.4897967008	 0.0844051795	-0.486967
C	-0.0083048617	-0.0018432487	-0.0269439724	 0.353559
C	-0.0719925838	-0.6377556235	-1.2014762784	-0.183911
C	-0.2049509731	-2.1346241845	-1.315555482	-0.308601
C	-0.9269496997	-2.7767118895	-0.1166824562	 0.109773
O	-0.7170134378	-4.186886575	-0.0781298645	-0.437861
C	-0.4887277135	-2.2123099603	 1.2133140626	-0.018072
C	 0.9420716758	-1.8677374619	 1.5123898741	-0.287429
C	-0.0705343265	-0.7594818714	 1.2557365198	-0.130111
H	 1.0639960741	 1.7480532991	 0.6379930966	 0.125428
H	 0.2030264934	 1.9648921103	-0.8987367505	 0.118559
H	-0.6836922622	 1.9378215963	 0.6373241713	 0.121847
H	 0.0094606705	-0.0703734856	-2.1250799143	 0.075781
H	-0.7392419638	-2.3985567673	-2.2373874877	 0.089919
H	 0.7831044566	-2.6091404333	-1.4002472094	 0.117419
H	-2.0045819301	-2.5643859085	-0.2150821598	 0.065153
H	-1.0661628712	-4.5576506299	-0.8952899801	 0.277703
H	-1.0789589189	-2.5718347714	 2.0505359208	 0.088905
H	 1.2950530514	-2.0124543951	 2.5276264536	 0.110463
H	 1.6929638247	-2.0368813165	 0.7491665927	 0.121006
H	-0.3783148971	-0.1817931239	 2.1223287242	 0.077438
