17
gdb 52533	3.80805	0.83497	0.73464	4.7898	79.71	-0.2436	-0.0499	0.1937	1561.6386	0.133521	-421.791481	-421.781693	-421.780749	-421.829736	32.332	
C	 0.1646788604	 1.5030712537	-0.0315953427	-0.502761
C	 0.0570882425	 0.0547558933	-0.0073440719	 0.085592
C	-0.0542690109	-1.1473441763	 0.0099414792	 0.020964
C	-0.1627818852	-2.593519652	 0.0323559277	 0.194086
O	-1.2223663338	-3.1772055073	 0.0402452425	-0.275165
C	 1.1840749403	-3.3098282827	 0.0858952074	 0.035224
C	 1.8037070701	-3.3965026837	 1.5089832537	-0.287323
C	 1.5800938121	-4.9132280988	 1.3338523696	-0.062456
O	 1.0775647844	-4.73086368	-0.0075444922	-0.262453
H	 1.2058479142	 1.8306706514	 0.0532491144	 0.157916
H	-0.2414233997	 1.903847758	-0.9667571992	 0.166201
H	-0.4018293605	 1.9492111688	 0.7928627354	 0.164581
H	 1.8430045973	-2.8868353081	-0.6844757633	 0.097452
H	 2.8451234783	-3.0804315035	 1.5707785606	 0.119913
H	 1.2299571932	-2.9155862264	 2.3023739875	 0.12394
H	 2.4823238098	-5.5348916195	 1.3484824656	 0.10774
H	 0.8245294176	-5.3566208169	 1.9921573958	 0.116549
