15
gdb 20226	4.57155	2.71517	2.32552	2.1181	69.12	-0.2082	-0.0474	0.1608	638.8237	0.120705	-325.385997	-325.380815	-325.379871	-325.414785	22.241	
C	-0.0612819856	 1.6571656659	-0.0425054585	-0.270331
C	 1.4308694313	 2.0008589581	 0.013182464	-0.10575
C	 2.1043294822	 0.8842859532	-0.3257603337	 0.050711
C	 2.4583078445	-0.2137680054	 0.6572378295	-0.08826
C	 1.0195452172	-0.6397550975	 0.9928576068	-0.058052
C	 0.0459342361	 0.0901649911	-0.0004642734	-0.030766
C	 1.2004025654	-0.188565739	-0.966752861	-0.027621
N	 1.8109393997	-1.3044453455	-0.1063112807	-0.164992
H	-0.565693252	 2.1168065111	 0.8151091407	 0.114475
H	-0.6246695171	 1.957186001	-0.9372968057	 0.116048
H	 1.8029519819	 2.7380583346	 0.7176908477	 0.102674
H	 3.2897323436	-0.3815769267	 1.3332650233	 0.101594
H	 0.7630984018	-1.1765772554	 1.9002594027	 0.097224
H	-0.8901700075	-0.4605433042	-0.1287052739	 0.076403
H	 1.1106742184	-0.3258826112	-2.0427893576	 0.086642
