20
gdb 31647	3.45825	1.09277	0.84704	2.7253	85.12	-0.1707	0.0414	0.2121	1403.4001	0.171117	-399.370681	-399.360669	-399.359725	-399.406286	35.454	
C	 0.1233488385	 1.3546567822	 0.1778764705	-0.321025
N	-0.1738397069	-0.0313443369	-0.1190627048	-0.371684
C	 0.5385337307	-0.6458811948	-1.1388167151	 0.312074
C	 1.2282401313	-0.0837968126	-2.1866001944	-0.23053
N	 1.6983799326	-1.1634141069	-2.9314236164	-0.023597
C	 2.4715816187	-1.0555006522	-4.1480769132	-0.342843
C	 1.2837923305	-2.2963175137	-2.2989423952	 0.33862
C	 1.5840855989	-3.680967423	-2.771707173	-0.50293
N	 0.5839349821	-2.0163415833	-1.2135658089	-0.380025
H	 1.1906964982	 1.5453509544	 0.3814256649	 0.103392
H	-0.1712566328	 1.9878396502	-0.6674745832	 0.125074
H	-0.4605580883	 1.6727536299	 1.0448338182	 0.120249
H	-0.2440165591	-0.6316797872	 0.6901996805	 0.236602
H	 1.4265976862	 0.9321931675	-2.4800104414	 0.108578
H	 3.3870904631	-0.4786280461	-3.9775264363	 0.137563
H	 2.7521918496	-2.0511779937	-4.4930544482	 0.142937
H	 1.895177503	-0.5644483863	-4.9402667758	 0.137932
H	 2.6605878936	-3.8845478636	-2.8161437195	 0.127437
H	 1.1339150178	-4.3815187761	-2.0674576046	 0.153442
H	 1.1687325225	-3.8818976277	-3.7662720341	 0.128735
