17
gdb 31096	3.39816	1.1884	0.89236	1.4519	73.23	-0.1854	0.032	0.2174	1285.5102	0.133784	-458.978043	-458.968613	-458.967668	-459.012761	33.476	
C	-0.4145572229	 0.3820693767	-0.6870058055	-0.240159
O	-0.1646085419	 0.7076273296	 0.6712295852	-0.273505
C	 0.5660161551	-0.1790315112	 1.3903151536	 0.251948
C	 1.0745784719	-1.4069121995	 1.0823931363	 0.197059
O	 0.9670850072	-2.2095522866	-0.0013330746	-0.426221
O	 1.7426742976	-1.9205710707	 2.1629103495	-0.211003
C	 1.6654725442	-0.9969991144	 3.1699706952	 0.376716
C	 2.3502472875	-1.3364085832	 4.4437888285	-0.487583
C	 0.9497817512	 0.0775399912	 2.7515457517	-0.382221
H	-0.9725885131	-0.5560309621	-0.7806181663	 0.133618
H	-1.006996699	 1.2047235463	-1.0917694362	 0.126969
H	 0.5193410147	 0.291500654	-1.2553231814	 0.114354
H	 1.8507306893	-2.439694485	-0.3152793565	 0.303529
H	 1.9562836662	-2.2610693139	 4.8813312887	 0.136789
H	 3.4281076875	-1.4770591531	 4.299900914	 0.13354
H	 2.2058280788	-0.5288964659	 5.1650434976	 0.135268
H	 0.7161190256	 0.9656545279	 3.3170683002	 0.110901
