16
gdb 29413	3.6658	1.06447	0.82723	4.5138	77.74	-0.1714	0.0092	0.1806	1317.0895	0.125443	-434.11429	-434.105412	-434.104468	-434.148254	32.48	
N	-0.1467265111	 1.4758410849	 0.1833647397	-0.607102
C	-0.0628967655	 0.0780384205	 0.0542893117	 0.285425
C	-1.1044857942	-0.81372573	-0.0496149025	-0.177509
N	-0.5609039006	-2.0957585336	-0.0237436798	-0.345332
C	 0.8024496057	-2.0002879769	 0.04852708	 0.44269
N	 1.5794125916	-3.163236094	 0.052209489	-0.411979
C	 2.9457370244	-3.2173976171	-0.002957314	 0.143135
O	 3.687805803	-2.2644378728	-0.0812732988	-0.303878
C	 1.1531197714	-0.671224688	 0.113847167	-0.308497
H	 0.652345311	 1.9432440486	-0.2257234504	 0.242543
H	-0.9914517751	 1.8552916554	-0.2247233288	 0.236367
H	-2.1700264345	-0.6647113648	-0.097103239	 0.104171
H	-1.071164268	-2.9288283002	-0.25775522	 0.251367
H	 1.0985786798	-4.0423690201	 0.1659374358	 0.247415
H	 3.29989417	-4.2660367552	 0.0334269037	 0.077501
H	 2.1560342021	-0.2947277467	 0.2121562464	 0.123683
