15
gdb 3372	4.35567	2.74084	2.56114	1.8339	55.6	-0.237	0.0763	0.3133	611.5821	0.126788	-345.631797	-345.62584	-345.624895	-345.661395	23.129	
O	-0.0326139886	 1.3982441622	 0.0145833158	-0.427297
C	-0.0352778473	 0.0077001438	 0.0327169631	 0.105376
C	-1.3484242412	-0.7669914487	 0.0378084401	-0.123974
C	-2.604922524	 0.0338862737	-0.3014763266	-0.250396
C	-2.4974031454	 0.2061291997	-1.8295596895	-0.072314
O	-1.0945226246	 0.1314686018	-2.1424443209	-0.273159
C	-0.4847232631	-0.7247551349	-1.201506274	 0.018861
H	-0.2171551975	 1.6476814685	-0.9026507684	 0.293309
H	 0.7843524477	-0.4081001416	 0.6124702494	 0.098002
H	-1.4266179016	-1.6621119764	 0.643132086	 0.092668
H	-3.5145622496	-0.4993391767	-0.0161370843	 0.105692
H	-2.5980029045	 1.0030551935	 0.2062204117	 0.123085
H	-3.0305010098	-0.5987900514	-2.355092985	 0.102069
H	-2.864316587	 1.167585318	-2.1987405425	 0.111531
H	 0.0419161966	-1.5734372014	-1.6262486549	 0.096548
