21
gdb 114663	3.44093	1.12436	1.04441	0.7913	78.29	-0.2293	0.0692	0.2985	1256.0479	0.183144	-424.202064	-424.193553	-424.192609	-424.235018	33.504	
C	-0.0865113445	 1.5320373395	-0.0747486618	-0.37848
C	 0.0058175906	 0.0167474673	 0.1315684702	-0.20364
C	-1.3573636227	-0.6613740428	 0.0618294893	 0.151735
O	-2.0098862748	-0.4254790637	-1.223347587	-0.300951
C	-2.3569749677	-1.7551405588	-1.6342415809	 0.06302
C	-2.8905781135	-2.4255690241	-0.3469167214	-0.2512
C	-1.4053401824	-2.1968930011	 0.0878877569	-0.104048
C	-1.0255220485	-2.5286021312	-1.3888876315	 0.12805
O	-1.039915445	-3.9194187698	-1.6156519315	-0.440818
H	 0.9013861074	 1.9990672645	-0.0215522133	 0.108399
H	-0.5229130992	 1.7579763806	-1.051262366	 0.135968
H	-0.7184911454	 1.9971592763	 0.6900406401	 0.111874
H	 0.6813319723	-0.4174128072	-0.6131251437	 0.098551
H	 0.4387229929	-0.2024525922	 1.1166445818	 0.093832
H	-1.9957782847	-0.2413282521	 0.853419377	 0.070849
H	-2.8865818552	-1.7258900046	-2.5866723847	 0.072224
H	-3.6737751702	-1.8975177142	 0.2017668368	 0.095167
H	-3.1289519088	-3.4786796164	-0.4798307893	 0.118897
H	-0.9448251137	-2.711515004	 0.9302669479	 0.076497
H	-0.126387872	-2.0576392916	-1.8030320803	 0.067542
H	-1.0036270848	-4.0648370343	-2.5663815587	 0.286533
