18
gdb 68942	2.64524	1.59283	1.34353	1.9312	77.78	-0.2364	-0.0271	0.2093	1018.3526	0.146777	-401.90324	-401.895118	-401.894173	-401.935671	31.227	
C	 0.16529377	 1.4540164729	 0.1370997122	-0.492979
C	 0.0289141794	-0.0335496968	 0.048765471	 0.322952
C	 1.1038565234	-0.9555303187	-0.3804200785	-0.368264
C	 0.5600719508	-1.1530698281	 1.0296680389	 0.169115
C	 1.3806758414	-0.9423939159	 2.2238850399	 0.057175
O	 2.435227863	-0.3427937146	 2.2339151479	-0.286621
C	-0.8257518107	-1.7339179118	 0.9455936168	-0.125395
C	-1.8697650538	-0.7362645502	 1.2776841094	-0.243423
N	-1.2831404565	-0.6965927651	-0.0745616393	-0.143031
H	 1.161043169	 1.7181043792	 0.5032954574	 0.153815
H	 0.0297872082	 1.9067378382	-0.8514496984	 0.138936
H	-0.5769593761	 1.8890986532	 0.8132477832	 0.125136
H	 0.8941325858	-1.7221660113	-1.1208357253	 0.123742
H	 2.1032759015	-0.534138645	-0.4043913103	 0.145366
H	 0.9407471999	-1.3460107103	 3.164143937	 0.068769
H	-1.0582367856	-2.784278104	 0.7979156095	 0.105572
H	-2.9024845846	-1.0712266934	 1.2794894335	 0.128192
H	-1.646195855	 0.0666398216	 1.9754890751	 0.120941
