23
gdb 119379	2.96702	1.06523	0.92046	0.8412	87.28	-0.2451	0.0985	0.3436	1416.9753	0.205097	-388.244527	-388.235047	-388.234103	-388.279203	35.946	
C	 0.6230214778	 0.8767112447	 0.5465981708	-0.386079
C	 0.4675372992	-0.6190477697	 0.3339247218	-0.06342
O	-0.9201025352	-0.9248311372	 0.3174026372	-0.303021
C	-1.2170431993	-2.2548749298	 0.1264562878	 0.447513
C	-0.9168909446	-3.1567656618	-1.1173006033	-0.289647
C	-1.7355528321	-4.0272332586	-0.1220499379	-0.070535
C	-0.8199715887	-3.4844110756	 1.0126590518	-0.30044
C	-2.6743242357	-2.78963039	 0.0783240425	 0.00362
C	-3.6156968286	-2.6627713339	 1.2658636894	-0.444914
H	 1.6821354014	 1.1507706271	 0.5664376531	 0.113676
H	 0.1351195714	 1.4317885935	-0.2596397206	 0.126859
H	 0.1677720767	 1.1790541693	 1.4940138424	 0.126695
H	 0.9317978834	-0.9265244001	-0.6155407144	 0.093831
H	 0.9669015083	-1.1798707196	 1.1388099959	 0.093929
H	-1.4122817073	-2.8799487084	-2.0519013137	 0.089472
H	 0.1219062288	-3.4560510032	-1.2782014878	 0.08624
H	-2.0397217483	-5.0611887952	-0.2696406766	 0.076348
H	 0.2256413461	-3.8013772778	 0.9726412526	 0.087716
H	-1.1994285847	-3.5184841754	 2.0342152171	 0.093932
H	-3.1971480598	-2.500693671	-0.8412530957	 0.062367
H	-3.16519139	-2.9652519482	 2.2142159883	 0.11636
H	-3.947881162	-1.6248595696	 1.3745353493	 0.125579
H	-4.5081175066	-3.2793111192	 1.1120455101	 0.113919
