21
gdb 53164	4.75782	0.85012	0.84168	0.154	92.55	-0.232	0.0605	0.2925	1500.8193	0.184088	-349.927358	-349.91868	-349.917736	-349.962113	32.78	
C	 0.0663197579	 1.501876666	-0.0598535427	-0.502099
C	 0.0474363861	 0.046587497	-0.0124387609	 0.154919
C	 0.0329596064	-1.1581524407	 0.0256388632	-0.017339
C	 0.0371470063	-2.6074180207	 0.0508430895	-0.170536
C	 0.0485003441	-3.2804960357	 1.4735378063	-0.006472
C	-1.4835363761	-3.018660479	 1.5076721562	-0.231125
C	-1.3694799149	-3.31046938	-0.0150559224	-0.00647
C	-0.965252819	-4.7959616945	-0.0328166549	-0.223578
C	 0.1158171414	-4.7731101786	 1.1020873381	-0.223578
H	 0.8107154852	 1.8668602087	-0.7765223812	 0.145826
H	-0.9067253203	 1.9057005509	-0.3618365163	 0.144942
H	 0.3125712473	 1.9315783491	 0.9177976502	 0.14494
H	 0.7837881669	-2.9951320992	-0.6525730164	 0.081471
H	 0.7158767698	-2.9183154106	 2.2552557026	 0.064509
H	-2.1036443557	-3.6877992904	 2.1118380465	 0.08357
H	-1.7263542108	-1.9767882989	 1.717996265	 0.112314
H	-2.1248481988	-2.9783613275	-0.7269350636	 0.064509
H	-1.8078429298	-5.4529135804	 0.2009600247	 0.096147
H	-0.5562524932	-5.1064311691	-0.9987222634	 0.095952
H	 1.1065643656	-5.0712813564	 0.7468969583	 0.095952
H	-0.1455090384	-5.4177765001	 1.9460715312	 0.096147
