21
gdb 26318	3.87872	0.96038	0.82107	0.6765	86.43	-0.2075	0.0278	0.2353	1479.2895	0.181675	-387.13848	-387.12885	-387.127906	-387.173203	35.681	
C	-0.0096663847	 1.6215234326	 0.6135160081	-0.393869
C	-0.0702646246	 0.2293727886	-0.028292028	-0.08209
C	 0.8589458721	-0.7540604811	 0.7094299875	-0.376841
C	-1.4756870757	-0.3077650172	-0.105361108	 0.2821
C	-2.6060928019	 0.1991609692	 0.4555298805	-0.133256
O	-3.6885998101	-0.5802373433	 0.168260571	-0.188611
C	-3.2454769474	-1.6164691862	-0.5992002083	 0.381231
C	-4.263192849	-2.6063013275	-1.040358399	-0.487656
C	-1.905540118	-1.4984543182	-0.7948944091	-0.396983
H	 1.0162173516	 2.0023364548	 0.6125633872	 0.109389
H	-0.6383849904	 2.3374946019	 0.0755176311	 0.116153
H	-0.3487209075	 1.5884041531	 1.6552672516	 0.115793
H	 0.304766567	 0.3198448976	-1.0581088728	 0.081353
H	 0.8436108239	-1.7445408528	 0.2452211645	 0.1143
H	 1.892586202	-0.39191339	 0.7018041136	 0.107357
H	 0.5455813595	-0.8702983663	 1.7525826184	 0.116999
H	-2.8090679051	 1.0688788502	 1.05728566	 0.127335
H	-5.0509486599	-2.1345329719	-1.63885312	 0.136685
H	-3.7894057299	-3.3803619324	-1.6480785308	 0.133401
H	-4.7494890006	-3.0914129531	-0.1861842201	 0.136764
H	-1.2875596911	-2.1737698181	-1.3676855874	 0.100447
