23
gdb 40286	2.51576	1.46632	1.13879	1.1189	84.91	-0.2406	0.0758	0.3165	1181.7035	0.208333	-388.283647	-388.275155	-388.274211	-388.31667	33.782	
C	-0.0828807121	 1.5470029184	-0.0042158227	-0.331798
C	 1.280416657	 0.8983396747	 0.006839813	-0.300959
C	 0.0347499613	 0.0403312528	-0.0023509619	 0.392716
C	-0.3586260459	-0.6970254736	 1.2734265117	-0.273588
C	 0.5707144379	-1.8487580843	 1.7160774157	-0.203542
C	 1.2047935898	-2.6609842714	 0.5765811824	-0.064322
O	 0.3288333022	-2.92778471	-0.5062015019	-0.244255
C	 0.4090870307	-1.9832822705	-1.558230023	-0.076402
C	-0.3467731606	-0.6781060512	-1.2912626432	-0.276477
H	-0.4230005256	 2.0359475266	 0.9027731172	 0.108134
H	-0.4075793116	 2.0346013161	-0.9176567009	 0.107227
H	 1.8787150862	 0.9516181718	-0.8973378977	 0.107131
H	 1.8624214038	 0.9523762017	 0.9212688572	 0.108259
H	-0.4321333129	 0.0167607267	 2.1016752265	 0.09047
H	-1.3701806493	-1.0944715467	 1.1283754987	 0.103394
H	 1.3937228361	-1.4559021088	 2.326872683	 0.093176
H	-0.0013427728	-2.516314082	 2.3703953005	 0.099999
H	 2.0989176713	-2.1410479998	 0.2021691736	 0.090882
H	 1.5353088527	-3.6325339484	 0.9627160797	 0.096936
H	 1.4666755868	-1.7631839406	-1.778629105	 0.085714
H	-0.0150040414	-2.4743693839	-2.4412481494	 0.09995
H	-1.4231141044	-0.8938591622	-1.2638375357	 0.101019
H	-0.1810653693	-0.0167673153	-2.1519732377	 0.086336
