20
gdb 89896	4.25097	1.09942	1.0613	2.8764	78.85	-0.2285	0.0759	0.3045	1225.5626	0.170807	-403.088664	-403.080501	-403.079557	-403.121669	31.831	
C	 0.4678660785	 1.5314998241	 0.0262014623	-0.396638
C	-0.0484077207	 0.111957226	-0.0888573842	 0.156689
C	 0.4050634364	-0.7390718465	-1.293741197	-0.385888
C	 1.0230475887	-1.6715923912	-0.2351901323	 0.455259
C	 0.6738604942	-3.1642635068	-0.0136054016	-0.239517
N	 2.126708292	-3.5536338213	 0.0965310872	-0.124714
C	 2.7225212474	-3.1767990968	-1.1949391806	-0.242306
C	 2.4817490708	-2.1066471694	-0.2037860647	-0.106297
O	 0.6171047678	-0.7945433765	 0.8309886425	-0.333911
H	 1.545170295	 1.5700604456	-0.1637141401	 0.117777
H	-0.0379926121	 2.1821156575	-0.6958335512	 0.116062
H	 0.2821314461	 1.9255540198	 1.0302690868	 0.129085
H	-1.133331897	 0.0885639973	 0.0797342902	 0.076703
H	-0.3903431564	-1.1749982915	-1.9009983938	 0.108833
H	 1.1341395617	-0.2541644046	-1.9477581154	 0.109387
H	 0.1715126187	-3.3067161933	 0.9452088916	 0.126987
H	 0.1302714932	-3.6926961084	-0.8051355081	 0.097193
H	 3.7423419084	-3.5293817813	-1.3161534697	 0.123904
H	 2.1146581592	-3.2312325629	-2.0970476715	 0.109288
H	 3.2734026182	-1.5820163199	 0.3214567796	 0.102105
