12
gdb 3877	7.61247	2.14291	1.68535	5.0898	52.48	-0.2025	0.0433	0.2458	690.7618	0.093063	-352.890573	-352.884197	-352.883253	-352.920347	23.713	
N	 0.0380441438	 1.365787456	 0.1428663604	-0.60269
C	 0.0088866209	-0.0239065406	 0.0655616681	 0.401902
N	-1.0442185202	-0.7884708951	 0.0879058974	-0.279229
N	-0.593148183	-2.1141532106	 0.0791550258	-0.279251
C	 0.7076265177	-2.07748735	 0.0517143978	 0.401944
N	 1.5785267175	-3.1618706336	 0.1123116865	-0.602688
N	 1.1598729892	-0.7777484607	 0.0283175916	-0.34067
H	 0.5208869199	 1.7997807774	-0.6367545438	 0.249618
H	-0.9130116191	 1.7141358285	 0.1825757666	 0.265462
H	 1.0374469478	-4.0184229124	 0.1435164356	 0.265467
H	 2.2229991075	-3.2016515714	-0.6702208881	 0.249621
H	 2.096742338	-0.4601870275	 0.211309662	 0.270513
