16
gdb 50268	2.80789	1.30562	1.09959	2.6742	74.75	-0.2595	-0.0425	0.217	1113.9884	0.124009	-400.744404	-400.736303	-400.735359	-400.777654	29.622	
O	-0.8433269278	 1.0469668398	-0.3509110459	-0.24177
C	 0.187305602	 0.9287634157	 0.2632208689	 0.142573
C	 1.3749069675	 1.8458899755	 0.1127695167	-0.153224
C	 1.2935519134	 3.0192904056	-0.9064744914	-0.251956
C	 1.4407855614	 4.0265323808	 0.2410766709	-0.089009
C	 0.3556599773	 3.8524496096	 1.2501062366	-0.323311
C	 1.5164608641	 2.8757624399	 1.2733546351	 0.193521
C	 2.3761459019	 2.7180625709	 2.3966195939	 0.187111
N	 3.0849771634	 2.5707597639	 3.300653417	-0.346601
H	 0.3110486968	 0.1343166387	 1.0331969239	 0.095117
H	 2.2879666997	 1.2525746059	 0.0138413247	 0.116356
H	 2.1396194486	 3.0216859679	-1.5944180962	 0.122306
H	 0.3614601758	 3.0782717829	-1.4719364033	 0.135753
H	 2.0682945701	 4.9081202565	 0.2258789441	 0.121369
H	 0.3534429026	 4.5618742874	 2.0699422204	 0.145174
H	-0.6253723969	 3.4944278789	 0.9506719746	 0.146591
