16
gdb 92864	2.96656	1.72661	1.28167	2.4258	65.18	-0.2554	0.0154	0.2707	969.0316	0.125907	-475.014788	-475.007461	-475.006517	-475.04662	27.726	
O	-0.052168612	 1.4718615355	 0.0803375637	-0.420499
C	 0.0301592324	 0.0669678076	-0.0061200022	 0.045008
C	 0.4951628393	-0.5898588555	 1.3467043787	-0.191907
N	-0.699447258	-0.6607321596	 2.2239751375	-0.316062
C	-1.6722753	-0.5823462614	 1.4206779124	 0.428354
O	-2.983122387	-0.4057648571	 1.6446671359	-0.256836
C	-3.5456727139	-0.0485403323	 0.3571192066	 0.016826
O	-2.4859656116	 0.2853508086	-0.5115604112	-0.254657
C	-1.3962733418	-0.4953461102	-0.0509687064	 0.024137
H	 0.8189150735	 1.8076492195	 0.3140978474	 0.28959
H	 0.6478600094	-0.2511980862	-0.8571492923	 0.071663
H	 0.9225320806	-1.5875889414	 1.1772576608	 0.108981
H	 1.2711827788	 0.0160637991	 1.828053553	 0.105887
H	-4.1171666633	-0.9139299417	-0.0101840738	 0.11226
H	-4.1924689742	 0.8213479965	 0.4883614334	 0.141682
H	-1.3912408524	-1.4896697113	-0.5276922735	 0.095571
