19
gdb 128785	4.53276	0.84086	0.72134	1.8624	80.34	-0.2262	0.0269	0.2531	1583.4313	0.159383	-419.214345	-419.204796	-419.203852	-419.250766	32.649	
C	-0.1155659097	 1.3740854235	-0.3942305896	-0.22183
O	-0.1630919027	-0.0283129562	-0.4929186638	-0.23307
C	-1.024656392	-0.6140839523	 0.4620773046	-0.182014
C	-1.0610823191	-2.0921799565	 0.2433154376	 0.162856
C	-0.712107317	-2.7743157626	-0.9053990407	-0.110233
N	-0.9351244285	-4.0914377003	-0.6688145256	 0.059394
C	-0.6392799746	-5.209996817	-1.5370436354	-0.318723
N	-1.4062528172	-4.3167387999	 0.5724550458	-0.273264
C	-1.4846205602	-3.1084468227	 1.1262533818	-0.089233
H	 0.566829915	 1.7337820961	-1.1681092749	 0.126559
H	-1.1061007041	 1.8301390491	-0.5526079501	 0.103911
H	 0.2578483606	 1.7025887707	 0.588878731	 0.104722
H	-0.6808040023	-0.3844685713	 1.4858247556	 0.095304
H	-2.0350213485	-0.1752848939	 0.3697246258	 0.096379
H	-0.3207408186	-2.4187032885	-1.8441222399	 0.139584
H	 0.3320140297	-5.6548402846	-1.2953569515	 0.142324
H	-1.4145034746	-5.9676224165	-1.4125155689	 0.154692
H	-0.6276979503	-4.8683298042	-2.5739273189	 0.137556
H	-1.8498420357	-3.0081574627	 2.138625197	 0.105084
