23
gdb 58891	3.03131	1.22482	1.04206	1.4882	84.35	-0.2235	0.0806	0.3041	1266.9591	0.206015	-388.286818	-388.277634	-388.276689	-388.320584	35.805	
C	-0.3315442339	 1.5979346925	-0.2728136972	-0.381943
C	-0.0649451842	 0.104500775	-0.0177961874	-0.062241
C	-1.3867895156	-0.6436953528	 0.2044332557	-0.407165
C	 0.8065183585	-0.4877596771	-1.119317164	 0.334484
C	 0.2346465692	-0.9526845185	-2.454907001	-0.379519
C	 0.8730797152	-1.9398158804	-1.5066696424	 0.06865
O	 2.1951075591	-2.3502885093	-1.7335511306	-0.261047
C	 2.9834554844	-1.1769841349	-1.9292064301	-0.095865
C	 2.2646667433	-0.0293885343	-1.187203108	-0.30335
H	 0.59965721	 2.1667003552	-0.3548319542	 0.113139
H	-0.8911174901	 1.7373169907	-1.2047540225	 0.115346
H	-0.9197151173	 2.0355231026	 0.5406023235	 0.107519
H	 0.5143481465	 0.0242027379	 0.9143252687	 0.071849
H	-2.0417148502	-0.5790066765	-0.6714657039	 0.116725
H	-1.2243783763	-1.7017022125	 0.4305626129	 0.11578
H	-1.9302347427	-0.2052832247	 1.0473672783	 0.113145
H	-0.8445521167	-0.9983217996	-2.5527143224	 0.110813
H	 0.7478916094	-0.6901340428	-3.3742545211	 0.110413
H	 0.2831086353	-2.724076667	-1.0480790729	 0.09892
H	 3.9889137838	-1.3792623875	-1.5497864826	 0.109012
H	 3.0690044538	-0.9546393771	-3.002059066	 0.097842
H	 2.4064969347	 0.9271591954	-1.6993420868	 0.104128
H	 2.6499187637	 0.0785416057	-0.1665245758	 0.103364
