19
gdb 10777	2.52487	2.07547	1.42849	2.5512	71.84	-0.2128	-0.0205	0.1923	957.3305	0.163078	-365.057996	-365.048877	-365.047933	-365.091336	32.88	
C	-0.2639427502	 1.5530552897	-0.1046951488	-0.409264
C	 0.0062205795	 0.0489093686	-0.2211590026	-0.078701
N	 0.6616227314	-0.4774432753	-1.4443942385	-0.088449
C	 0.5841781134	 0.2085181195	-2.7127489984	-0.331043
C	 1.9574695722	-0.7635176035	-0.7796790672	-0.078701
C	 3.1686670636	 0.1238447935	-1.0872425796	-0.409264
C	 1.2528359627	-0.4265173137	 0.5469947837	 0.383587
O	 1.5688740738	-0.4595007969	 1.6990900807	-0.300279
H	 0.6307880998	 2.1506742641	-0.3031779239	 0.123134
H	-1.0465156017	 1.8669913893	-0.8024469739	 0.124573
H	-0.6040718169	 1.7799237149	 0.9101238959	 0.138014
H	-0.9110409687	-0.5011837978	 0.0322149478	 0.097471
H	 1.0058451684	 1.2283171615	-2.7232593542	 0.098
H	 1.1099218282	-0.3758550391	-3.4754907533	 0.123864
H	-0.4632423874	 0.279258864	-3.0251230822	 0.123865
H	 2.2522774722	-1.8182703939	-0.8732441616	 0.097471
H	 2.9438013897	 1.1876259792	-0.9652086648	 0.123135
H	 3.9837775283	-0.1303064883	-0.4031254109	 0.138013
H	 3.5229467516	-0.0355461357	-2.1104309382	 0.124573
