18
gdb 126566	3.25596	1.01941	0.82359	0.865	74.33	-0.2296	0.004	0.2336	1404.6766	0.148659	-435.282728	-435.273685	-435.272741	-435.317434	32.604	
C	 0.0167362147	 1.6039573852	 0.0002446755	-0.379116
C	 0.1238990001	 0.0784194215	-0.04761677	-0.166666
C	 0.5898071869	-0.5234800113	 1.2921227647	-0.303694
C	 0.722756332	-2.0113100715	 1.2570820222	 0.24646
N	-0.110942134	-2.8429387722	 1.8879697025	-0.263986
N	 0.3436058623	-4.0491839648	 1.5875353823	-0.094937
N	 1.4246324525	-4.0974891767	 0.8016942504	-0.302433
C	 1.6721143325	-2.8130729575	 0.5849650106	 0.3059
O	 2.6951642392	-2.3700899214	-0.1723546691	-0.427755
H	 0.9841556101	 2.0619461672	 0.2349233484	 0.11511
H	-0.3189453914	 2.008949147	-0.9593725357	 0.112446
H	-0.6963645016	 1.9277557138	 0.7666715041	 0.114979
H	-0.8466356242	-0.3573560778	-0.3133812623	 0.103573
H	 0.8249005312	-0.2217539306	-0.8352910819	 0.112517
H	 1.5560398744	-0.0790886806	 1.5638512789	 0.111443
H	-0.117163749	-0.2595544077	 2.0853880979	 0.11727
H	-0.0902553077	-4.8854074323	 1.9388768264	 0.290709
H	 3.1743024919	-3.1413516803	-0.499294525	 0.308177
