16
gdb 4569	5.62859	1.50652	1.19841	1.8469	76.65	-0.2048	-0.0097	0.1951	989.2595	0.132847	-342.859894	-342.85253	-342.851586	-342.891471	28.005	
C	-0.000621731	 1.5231956395	-0.0029082833	-0.498866
C	-0.0038633273	 0.016588293	 0.0129256374	 0.256357
C	-0.0950883274	-0.7308066024	-1.1574936502	-0.06804
N	-0.0993011628	-2.065448278	-1.2194756246	-0.33349
C	-0.0197021536	-2.7444640547	-0.0723225242	 0.371246
N	-0.0896641473	-4.1249327655	-0.1667469301	-0.56628
C	 0.077562847	-2.0996142861	 1.1742556979	-0.17511
C	 0.0872205291	-0.7182888547	 1.202726621	-0.137552
H	 0.913607663	 1.9323666135	 0.4427570507	 0.126651
H	-0.0689188977	 1.9045195793	-1.0257289304	 0.124299
H	-0.8447462084	 1.9368626537	 0.5612554974	 0.127812
H	-0.164992274	-0.2185992595	-2.1163108944	 0.094876
H	 0.0968109538	-4.469349657	-1.0972905801	 0.252057
H	 0.3673316434	-4.64978616	 0.5625758371	 0.246857
H	 0.1376668317	-2.6799381559	 2.0891530423	 0.085073
H	 0.1640832414	-0.2002075451	 2.1550302834	 0.094112
