20
gdb 85885	1.80795	1.68434	1.07364	2.26	82.92	-0.2167	0.0374	0.2541	1219.6838	0.167103	-403.085766	-403.075654	-403.07471	-403.120202	37.782	
C	 0.0004299155	 1.5060754857	-0.0146846458	-0.328309
N	-0.0487291221	 0.0663052167	 0.0855090991	-0.055076
C	-1.3007104496	-0.584005852	 0.5046604716	-0.226174
C	-0.4684009647	-1.6172140391	 1.3200705398	 0.389579
C	-0.9306075574	-1.9632278752	 2.725705254	-0.457858
O	-0.1426802624	-2.7753271033	 0.5828402609	-0.46134
C	 0.7009900122	-0.5826219238	 1.1836565293	-0.228892
C	 2.0463208092	-1.0367006316	 0.8839602008	 0.374552
C	 3.1741117758	-1.3878360705	 0.6621840757	-0.434248
H	 1.0234765871	 1.8229332409	-0.241323623	 0.131089
H	-0.6453317528	 1.842462337	-0.8325325913	 0.122101
H	-0.3232684505	 2.0202981249	 0.911760712	 0.085609
H	-1.9348563752	 0.0465918059	 1.1504062452	 0.078542
H	-1.9049326978	-0.9837074814	-0.3172004431	 0.099421
H	-1.8487716136	-2.5631972706	 2.6908705485	 0.109677
H	-0.1623768611	-2.5490546601	 3.239552346	 0.135716
H	-1.1433781185	-1.0667847548	 3.3149439101	 0.118518
H	-0.9180590083	-3.3468026153	 0.5723587247	 0.278012
H	 0.7270228251	 0.0461068149	 2.0923780351	 0.076787
H	 4.1620266192	-1.7140901881	 0.4501166306	 0.192295
