13
gdb 132449	3.22437	1.43898	0.99586	5.7046	69.41	-0.2085	-0.0515	0.1569	1072.0952	0.089238	-494.052669	-494.045182	-494.044238	-494.084691	28.411	
N	 0.1064075254	 1.3485234758	 0.1946550965	-0.564937
C	-0.0520223495	-0.0105818307	 0.062123049	 0.41026
C	-1.2102368309	-0.7117978425	 0.015063761	-0.178116
N	-1.2004989035	-2.0911851211	-0.0257436076	-0.281105
C	-0.0806465996	-2.6899604609	-0.0336262862	 0.273937
F	-0.0409518035	-4.0118561808	-0.0734071772	-0.046217
C	 1.2290566234	-2.0374205546	-0.0065315599	 0.271586
N	 2.3387391698	-2.6415620597	-0.0291356688	-0.514267
O	 1.1461817921	-0.647734733	 0.0444011961	-0.250258
H	 0.9659872038	 1.7112329847	-0.1927514407	 0.267278
H	-0.7045578086	 1.898608094	-0.0447939694	 0.269592
H	-2.1724121708	-0.2181086509	 0.0191057541	 0.11202
H	 3.1179197119	-1.9833228901	-0.0003965868	 0.230228
