18
gdb 57132	3.66175	0.76173	0.65026	1.5578	95.53	-0.239	-0.0149	0.2241	1697.2027	0.145074	-364.724745	-364.71515	-364.714206	-364.759587	35.185	
C	-0.0161491083	 1.3976541752	-0.0335187038	-0.385447
C	 0.0431120436	-0.1325261998	 0.0979464384	-0.212864
C	 0.7438765427	-0.538341887	 1.3151302679	 0.510853
C	 1.3453256512	-0.8727818084	 2.3103679688	-0.292255
C	 2.0169625741	-1.2428455675	 3.4346115749	 0.298147
C	 2.6155401943	-1.5727504524	 4.4301242743	-0.567377
N	-1.324362485	-0.6723643081	 0.1054855082	-0.053552
C	-1.8903807911	-0.9671123782	-1.2094169406	-0.22507
C	-1.4682674735	-2.0664967615	-0.2986963622	-0.213225
H	 0.9903472487	 1.8228210011	-0.0379136997	 0.12706
H	-0.5167765478	 1.6685377139	-0.9675711719	 0.119991
H	-0.5783271561	 1.8218284437	 0.8012550202	 0.140904
H	 0.6150208149	-0.5331571443	-0.7620598075	 0.089886
H	 3.1386879501	-1.8594646289	 5.308218348	 0.190746
H	-2.9401669177	-0.7199726247	-1.3358631083	 0.121396
H	-1.2699359661	-0.7838224192	-2.085761019	 0.111224
H	-0.5676481317	-2.6161199263	-0.5670459642	 0.117111
H	-2.2033062022	-2.6419542575	 0.2555659666	 0.122474
