16
gdb 67810	2.43445	1.96003	1.6238	1.2452	68.23	-0.2089	0.0068	0.2157	889.4525	0.124122	-437.811285	-437.803739	-437.802795	-437.842666	30.304	
O	-0.2009827533	 1.3138132761	-0.1050412968	-0.487306
C	-0.034073824	-0.0695420606	-0.0925860193	 0.271078
C	 0.9524562373	-0.763539779	-0.9671574466	-0.148563
C	 0.5483275728	-2.0259718956	-1.1537822308	-0.055448
C	-0.667566511	-2.2669229041	-0.2899395847	-0.162516
N	-0.1301011283	-2.2244587777	 1.1561590047	-0.322196
C	-0.5319521769	-0.8127256486	 1.2131032101	-0.184617
C	-1.3101378992	-0.8504593304	-0.0763195531	 0.356945
O	-2.5326941358	-0.399233963	-0.5062371177	-0.470281
H	 0.4130038009	 1.7139163397	 0.5189811018	 0.293907
H	 1.8678505026	-0.3064290552	-1.3229562851	 0.100324
H	 1.0864803268	-2.8092328695	-1.6711322092	 0.1046
H	-1.2968352946	-3.1276033946	-0.5077603516	 0.084094
H	-0.8035385061	-2.7362157177	 1.7257990492	 0.222416
H	-0.6212023832	-0.262870306	 2.1436944891	 0.097364
H	-2.4135433079	 0.5061851262	-0.82102114	 0.3002
