19
gdb 42409	5.07301	0.81335	0.78546	1.6389	78.4	-0.2656	0.0151	0.2807	1526.8578	0.158496	-423.033876	-423.024975	-423.024031	-423.068939	32.485	
O	 0.0745781868	 0.0135308436	-0.6369751796	-0.380739
C	 0.0308737197	 1.1361561519	-0.1939519234	 0.460836
O	 1.1081501363	 1.8022318147	 0.288242543	-0.256971
C	 2.3436300409	 1.1123019375	 0.2275728282	 0.152496
C	 3.3333051929	 1.5449274383	-0.8114037597	-0.279573
C	 3.534423438	 1.9073639059	 0.6483581979	-0.299189
C	-1.1924598704	 1.9689447848	-0.08866643	-0.133987
C	-2.2330382157	 1.8060073174	-1.1844865185	-0.250501
C	-2.5021321587	 1.2439020358	 0.1707848057	-0.249966
H	 2.2594126675	 0.0627507287	 0.4788397394	 0.122052
H	 3.9658420684	 0.7887884179	-1.2622754643	 0.122854
H	 3.0259939352	 2.3416996217	-1.4789404346	 0.124286
H	 3.3587203471	 2.9392828217	 0.9299451706	 0.127082
H	 4.3112482003	 1.4069130546	 1.2150419679	 0.120745
H	-1.0531726874	 2.9505409048	 0.3449312983	 0.102244
H	-2.7593340429	 2.7002007055	-1.4974007942	 0.119495
H	-1.9840916865	 1.1084980847	-1.9754391754	 0.139575
H	-2.4329030946	 0.1690912575	 0.2889472014	 0.139614
H	-3.2190130569	 1.7409054132	 0.8138616672	 0.119648
