18
gdb 38292	3.85482	1.73557	1.72784	3.0525	73.86	-0.2241	0.0502	0.2743	862.6993	0.151573	-401.834034	-401.828373	-401.827429	-401.863676	25.19	
C	-0.0498964959	 1.5924760252	 0.0170728461	-0.241814
C	 1.4755935677	 1.343621323	 0.0139656993	 0.054223
O	 1.238501982	 0.1360196103	 0.7956774821	-0.268359
C	-0.00722037	 0.0476332032	 0.0433816149	 0.054222
C	 0.3612763068	-0.470506276	-1.3714611983	 0.012733
C	 0.7606168273	 0.6098532613	-2.4179307962	-0.089468
C	 1.6821740408	-0.4578032464	-3.002597388	-0.188693
N	 1.8986992762	-0.6714966391	-1.5019131113	-0.126301
C	 1.9079020378	 0.8812641782	-1.4021419326	 0.012734
H	-0.3868619656	 1.9996634636	 0.9708131115	 0.11071
H	-0.5197881864	 2.1110968699	-0.8204535045	 0.101728
H	 2.1692692909	 2.0347932081	 0.495293725	 0.080121
H	-0.7738794663	-0.5375329892	 0.5536720356	 0.080121
H	-0.2169365088	-1.3321947779	-1.7148706388	 0.07261
H	 0.1206569627	 1.3301865557	-2.9414412826	 0.065223
H	 1.2252486399	-1.318920022	-3.4990936317	 0.098799
H	 2.5852376577	-0.1302694626	-3.5260572482	 0.0988
H	 2.8311698431	 1.3318899946	-1.7753435023	 0.072611
