19
gdb 61946	5.5837	0.58562	0.55151	0.8871	80.99	-0.3242	0.0203	0.3444	1903.8958	0.158272	-382.112746	-382.1026	-382.101655	-382.148953	35.294	
C	-0.0801691351	 1.6062640902	 0.0684396824	-0.407072
C	 0.0019187018	 0.0760286288	 0.0016115508	 0.014595
C	 0.707398473	-0.4362290464	-1.2657376235	-0.188885
C	-0.0358739821	-0.07740166	-2.5688888606	-0.358933
C	 0.6109541156	-0.6556113742	-3.7447105128	 0.261226
N	 1.1374724538	-1.1208939795	-4.6619379217	-0.298742
C	 0.7372024559	-0.4954954793	 1.2401998101	-0.351156
C	 0.0647632459	-0.1796087228	 2.4983590156	 0.264589
N	-0.4848525031	 0.0779529502	 3.4817604572	-0.307466
H	 0.9187453505	 2.0547851187	 0.0115114647	 0.12299
H	-0.6793293959	 2.0155282573	-0.7492981968	 0.12502
H	-0.5423645064	 1.9310340289	 1.0046179947	 0.151934
H	-1.0184082286	-0.3294956456	 0.0150177027	 0.101344
H	 1.7260499551	-0.0323960385	-1.3130683622	 0.123924
H	 0.8062407666	-1.5262503916	-1.2151556721	 0.123325
H	-1.0700990185	-0.4395837938	-2.5278431457	 0.156053
H	-0.086656854	 1.0075337141	-2.7054188565	 0.159721
H	 0.8226369114	-1.5851022566	 1.1607268096	 0.153665
H	 1.7599961841	-0.1007569899	 1.283421684	 0.153868
