25
gdb 95284	2.00447	1.72683	1.31972	0.1343	91.18	-0.2697	0.0775	0.3472	1161.8785	0.230412	-352.375795	-352.366714	-352.36577	-352.408932	36.595	
C	-0.0990438602	 1.5597317804	-0.0492196659	-0.418261
C	 0.1256443076	 0.0479819164	-0.0167637634	 0.000532
C	 1.0220940257	-0.4967935364	-1.1457656301	-0.225626
C	 1.3541995601	-1.9309715073	-0.6920194373	-0.22906
C	 1.5177261566	-1.8301044185	 0.8335233281	-0.041872
C	 2.8573899257	-1.221779748	 1.3348356263	-0.218729
C	 2.1365391135	 0.1078954987	 1.6841830343	-0.278101
C	 0.7600787995	-0.5188509489	 1.2772918057	 0.377187
C	-0.2269697229	-0.6547979819	 2.4283671913	-0.484244
H	 0.8437937704	 2.1109542361	 0.0316672299	 0.114095
H	-0.5750875329	 1.8624608305	-0.9879963563	 0.110588
H	-0.7486353288	 1.888968097	 0.7688642468	 0.111597
H	-0.8560876072	-0.4396411845	-0.1181619296	 0.062523
H	 0.5368215574	-0.4577624803	-2.1260673033	 0.089481
H	 1.9373770842	 0.1052803505	-1.2210799966	 0.09391
H	 0.5143097573	-2.5939840382	-0.9325080963	 0.091734
H	 2.2404826898	-2.3447154538	-1.1849069563	 0.089701
H	 1.2232901627	-2.7513539132	 1.3431594228	 0.054041
H	 3.2811151462	-1.7387036011	 2.1994297028	 0.095335
H	 3.6399988397	-1.1442418821	 0.5738267175	 0.091468
H	 2.1975613371	 0.4065280775	 2.7342600982	 0.091666
H	 2.4502845632	 0.9615631986	 1.0781135101	 0.093853
H	-0.6177758531	 0.3216105745	 2.7397212386	 0.111874
H	-1.0818146022	-1.2809095941	 2.1460256284	 0.108135
H	 0.2439823407	-1.1112789618	 3.3062020143	 0.108175
