17
gdb 13914	3.75145	1.7367	1.47646	2.4983	69.25	-0.2597	0.0234	0.2831	901.4763	0.143371	-363.850733	-363.843522	-363.842578	-363.88245	27.141	
N	 0.3680460052	 1.1544952741	-0.175051172	-0.555204
C	 0.1663854336	-0.0628996821	 0.0484637776	 0.38302
O	 1.0169777454	-1.0539282625	 0.4973986799	-0.263272
C	-0.055826699	-2.048395125	 0.4410712067	-0.140886
C	-1.0358479668	-0.9681378541	-0.0621876259	 0.216456
C	-2.374125414	-0.6806393216	 0.6688851099	-0.284675
C	-3.1419849797	-1.2609258147	-0.5497934581	-0.212414
C	-1.8349450479	-1.1462161105	-1.3804596897	-0.284675
H	 1.3351425582	 1.4191642618	 0.0192625365	 0.227195
H	 0.1913321998	-2.8472433349	-0.2638112391	 0.117879
H	-0.2553191737	-2.4615644219	 1.4338446611	 0.117879
H	-2.5157564851	-1.1622002949	 1.6398815015	 0.103062
H	-2.5232984562	 0.3959075548	 0.783455064	 0.130568
H	-3.4427387683	-2.3003395714	-0.3927840747	 0.104677
H	-4.0087741721	-0.7005643857	-0.9051494387	 0.10676
H	-1.7970855304	-0.2311699928	-1.9767727883	 0.130568
H	-1.5545896545	-1.9921581827	-2.0133713678	 0.103062
