17
gdb 48895	3.22101	1.55411	1.3916	2.3061	73.71	-0.242	-0.0315	0.2104	959.0345	0.138371	-417.955032	-417.948221	-417.947277	-417.986403	27.296	
O	-0.7022852256	 0.9898592491	 0.5488925839	-0.267616
C	 0.2869006636	 0.8697105365	-0.1361073725	 0.035763
C	 1.4531256059	 1.7881315455	-0.0755928388	 0.212892
C	 1.8428343283	 2.5103464517	 1.2271047769	-0.267232
C	 2.6484879003	 3.6136295677	 0.5081026272	-0.04586
N	 1.632673429	 4.3293333042	-0.3093385445	-0.290753
C	 1.5409319992	 3.1103534225	-1.0793288281	-0.035999
C	 3.0227743	 2.7941096041	-0.8343759454	 0.000417
N	 2.7411064427	 1.3673183181	-0.6837987989	-0.346275
H	 0.3739059097	 0.0703872261	-0.9049497869	 0.082088
H	 0.9927185244	 2.9058797218	 1.7883756905	 0.119557
H	 2.4331304517	 1.8622380691	 1.8826196642	 0.099189
H	 3.360500191	 4.2173946836	 1.0688280285	 0.077947
H	 0.7924639687	 4.6158572658	 0.1918334393	 0.222722
H	 1.0121990099	 3.071684969	-2.0290522214	 0.096951
H	 3.8501238442	 3.132750335	-1.454805677	 0.091834
H	 3.3556235871	 0.8679864301	-0.0402600969	 0.214377
