17
gdb 45534	4.35638	1.29512	1.05027	5.4075	79.57	-0.2085	0.0005	0.2091	1113.6342	0.139633	-418.037096	-418.030008	-418.029064	-418.068535	28.25	
N	-0.0376851888	 1.2591016259	 0.228737818	-0.561678
C	-0.041963824	 0.0190021556	-0.0243804592	 0.419136
O	 1.1098973424	-0.6980261723	-0.3771291318	-0.276052
C	 0.724420034	-2.0171582229	-0.7150673302	 0.060951
C	 1.3459710862	-3.2209947699	 0.0057720699	-0.257707
C	 0.1966292309	-4.2617129357	-0.1275346949	-0.175348
N	-1.0406672955	-3.445454651	-0.2022178552	-0.390236
C	-0.7070145802	-2.1259258557	-0.2718741008	 0.419652
C	-1.1727552045	-0.9099084218	 0.0558395478	-0.404774
H	 0.9057780786	 1.6372053265	 0.1401263559	 0.216373
H	 0.817549235	-2.1454216105	-1.8040457679	 0.103205
H	 2.2834543859	-3.5751296635	-0.4265050695	 0.114567
H	 1.5123439438	-2.9669037987	 1.0571156662	 0.125441
H	 0.3102940065	-4.8637293486	-1.0370512781	 0.12144
H	 0.157740265	-4.9492593162	 0.7219603288	 0.121258
H	-1.8453828827	-3.7352991819	 0.3295226377	 0.252745
H	-2.1355904726	-0.6157681693	 0.4416789333	 0.111029
