21
gdb 89437	2.76346	1.59351	1.35297	1.1021	80.61	-0.2417	0.0774	0.319	1049.7496	0.183707	-387.074199	-387.066193	-387.065249	-387.106048	32.948	
C	-0.2592264786	 1.557117006	 0.0491196012	-0.398632
C	 0.0297237826	 0.0538485504	-0.0303227911	 0.007867
C	 0.7525260197	-0.4181234186	-1.3295011223	-0.291276
C	 2.1438415322	-0.876978322	-0.863672032	 0.414872
O	 2.8330272048	-1.7251259012	-1.7421052579	-0.498791
C	 2.9405878102	 0.3186708627	-0.240239462	-0.296439
C	 2.4136145145	-0.112155013	 1.1299435307	-0.06944
C	 0.934109734	-0.4745359179	 1.0880746705	-0.039955
C	 1.9476613534	-1.4474521136	 0.5710645015	-0.130245
H	 0.6581019482	 2.1495548428	-0.0206811823	 0.120326
H	-0.9282305359	 1.874424178	-0.7580642498	 0.109317
H	-0.7420084413	 1.8105023892	 0.9993680786	 0.110555
H	-0.9299370962	-0.4713879658	 0.0431792177	 0.072025
H	 0.2325463484	-1.2696646711	-1.7810242139	 0.0985
H	 0.8148114854	 0.3755671976	-2.0839902789	 0.083356
H	 2.9443912794	-1.2626868033	-2.579796065	 0.275237
H	 4.0127324959	 0.1190806419	-0.3208813854	 0.103611
H	 2.7280436431	 1.3305229281	-0.6048237525	 0.080112
H	 2.902110968	 0.0816913802	 2.0778856413	 0.080945
H	 0.4922870993	-0.6577067945	 2.0626009468	 0.079361
H	 2.122868173	-2.4633190559	 0.8976010349	 0.088693
