16
gdb 126452	4.71757	1.06414	0.8776	1.5998	77.12	-0.2567	-0.0898	0.1669	1290.8643	0.123882	-434.048727	-434.040508	-434.039563	-434.082093	30.082	
C	-0.2307994919	 1.5477244272	 0.0458643155	-0.380515
C	-0.0778659946	 0.0360305109	-0.1046545812	-0.252043
C	 0.8238295239	-0.419542384	-1.2187115547	 0.387134
N	 1.3901169697	 0.4715759926	-1.9512989252	-0.123944
O	 2.2288422543	 0.0105529364	-2.9846883408	-0.281188
C	 2.4286615551	-1.3285803508	-3.1951267166	 0.391357
N	 3.1766974279	-1.7780247411	-4.1162918883	-0.51692
C	 1.7182186035	-2.222602089	-2.2821278895	-0.006071
N	 0.9543210026	-1.814116096	-1.3403715977	-0.261817
H	 0.732853152	 2.0259475825	 0.238378269	 0.134893
H	-0.6425372177	 1.9963259116	-0.8616697788	 0.134914
H	-0.9019174976	 1.7739145147	 0.8788545895	 0.114188
H	 0.3066968824	-0.415402259	 0.8194461562	 0.133179
H	-1.051556409	-0.4443926768	-0.2683189321	 0.133152
H	 3.5929602552	-1.018179659	-4.6582690138	 0.236511
H	 1.8686392043	-3.2890270402	-2.4387235214	 0.157169
