15
gdb 30478	3.83421	1.20075	0.91958	3.223	73.67	-0.2418	-0.0436	0.1982	1209.1196	0.113445	-454.002177	-453.993991	-453.993047	-454.036113	29.115	
C	 0.2016156837	 1.4715460001	 0.1873008891	-0.332131
N	 0.2677419655	 0.026587501	 0.0940083911	-0.3443
C	 0.4454180408	-0.5518191626	-1.0069877705	 0.511786
N	 0.5095267068	-1.9324385917	-1.1022485568	-0.426019
C	 0.700024214	-2.7028994062	-2.2476669197	 0.438544
O	 0.7367908753	-3.9135098777	-2.1959748249	-0.366376
C	 0.8419715636	-1.8890784092	-3.457433806	-0.286023
C	 0.7804080015	-0.5585795106	-3.3648185912	 0.090357
O	 0.5916030224	 0.1228373524	-2.2088397752	-0.232866
H	 0.9805694195	 1.8229514535	 0.873464036	 0.130627
H	 0.3176085927	 1.9953768651	-0.7677114423	 0.122159
H	-0.7601074601	 1.7591469677	 0.6270652639	 0.13063
H	 0.4035175093	-2.4292155907	-0.2286412162	 0.276142
H	 0.9943745796	-2.3860496919	-4.4040204998	 0.137099
H	 0.8741354954	 0.1247021108	-4.2005391672	 0.15037
