16
gdb 2433	5.50195	2.77682	2.39851	1.8309	63.72	-0.2193	0.0852	0.3045	626.1898	0.138143	-288.564752	-288.558908	-288.557964	-288.593906	23.403	
C	-0.0466301302	 1.4831590422	 0.0291659787	-0.509679
C	 0.0584350587	-0.0121162951	 0.0016138773	 0.329936
C	 0.9081509501	-0.9023526438	-0.8926807481	-0.219071
N	 0.0407889481	-2.0858705147	-0.5091226854	-0.169155
C	 0.3881685536	-2.2396597523	 0.9600888827	-0.175339
C	-0.2731973507	-0.9000167298	 1.2258222734	-0.126595
C	-1.0233542924	-1.0528007293	-0.0680732667	-0.071569
H	 0.8574877104	 1.938760006	 0.4495724263	 0.122479
H	-0.186875053	 1.8890019541	-0.9791586798	 0.121236
H	-0.8950408673	 1.8116170482	 0.6389796093	 0.12088
H	 0.767276837	-0.679909789	-1.9548500914	 0.102728
H	 1.9773240424	-1.0322326159	-0.6836117588	 0.091729
H	-0.1741770402	-3.0796053101	 1.3772766434	 0.107172
H	 1.4569095687	-2.3753097933	 1.164176359	 0.094871
H	-0.6184844745	-0.4616417483	 2.1545560604	 0.085875
H	-2.0668663308	-1.0559918988	-0.3505328004	 0.094503
