13
gdb 4308	3.88212	1.98287	1.32322	5.7504	63.34	-0.26	-0.0704	0.1896	866.3268	0.095537	-398.662078	-398.655174	-398.654229	-398.693635	24.865	
C	-0.0254747624	 1.5041684267	 0.0072523647	-0.477694
C	 0.0030358532	 0.0029301393	-0.0001073513	 0.333969
N	-0.0314395106	-0.6010642634	-1.1563829606	-0.369249
C	-0.0083919323	-1.9749912531	-1.22942086	 0.443296
O	-0.0352261657	-2.6385062001	-2.2198770911	-0.324482
O	 0.0548628641	-2.7031702083	 0.0100739986	-0.205684
C	 0.0884733571	-2.0542815181	 1.167377087	 0.114485
C	 0.0658750395	-0.7082183637	 1.2446959431	-0.232983
H	 0.8666025241	 1.8987228842	 0.5069079153	 0.145457
H	-0.0710494905	 1.8837860873	-1.0130976382	 0.158028
H	-0.8924401207	 1.8647615675	 0.5725346399	 0.145589
H	 0.1351332655	-2.7255763673	 2.0195697091	 0.15104
H	 0.0940284588	-0.1998668709	 2.1981297637	 0.118228
