16
gdb 67734	3.01267	1.92677	1.36012	2.2187	67.91	-0.2314	-0.0086	0.2227	910.2297	0.124463	-437.798017	-437.791008	-437.790064	-437.828735	29.521	
O	 0.0917122968	 1.3746744518	 0.0881493244	-0.501415
C	 0.0631541763	-0.0017780281	 0.0768020414	 0.445495
C	 0.9318914577	-0.7431219831	 1.0720986483	-0.150176
C	 0.7006691317	-2.0315830868	 0.8127241065	-0.195081
C	-0.3042019515	-1.993715418	-0.3356283846	 0.36484
O	-0.7517907926	-3.1560389754	-0.952372441	-0.483741
C	-1.2908495913	-0.791028978	-0.0573347934	-0.161755
N	-1.338156745	-0.3975480152	-1.5154651265	-0.385246
C	 0.0963538477	-0.8112340057	-1.2763476442	-0.123171
H	-0.5173287537	 1.6554015344	-0.6102201579	 0.292823
H	 1.5791797173	-0.2763095713	 1.8002436629	 0.119372
H	 1.1160673674	-2.9196326826	 1.268332576	 0.110502
H	-1.2402669605	-3.6779585694	-0.3069964445	 0.287401
H	-2.169070835	-0.7550961252	 0.5946805292	 0.076247
H	-1.8120116111	-1.1310326067	-2.0482205376	 0.220924
H	 0.855237206	-0.8004669307	-2.0632438291	 0.082981
