18
gdb 6983	2.63246	2.17992	1.7086	0.8557	63.28	-0.2418	0.0683	0.3101	854.0773	0.152311	-422.07439	-422.06576	-422.064816	-422.107031	31.995	
C	-0.3867188128	 1.5345665736	 0.0192177082	-0.458735
C	 0.0628522964	 0.0788646121	 0.0337359069	 0.349385
O	-1.0566163817	-0.8105908583	 0.0158109937	-0.480924
C	 1.0657311494	-0.2869667599	-1.0734949953	-0.085854
O	 1.7753557411	-1.435502276	-0.6268149338	-0.267263
C	 1.5312769903	-1.6328230174	 0.7639572609	-0.091529
C	 0.8597436081	-0.3566282286	 1.2788357112	 0.086712
O	 1.7912600721	 0.6745624252	 1.5714084274	-0.444443
H	 0.4565005177	 2.2083284308	 0.1794929709	 0.142765
H	-0.8514282207	 1.7815338393	-0.9430393262	 0.102975
H	-1.1279524234	 1.7031710713	 0.8051568482	 0.124902
H	-1.5074294105	-0.7018570723	-0.8277960038	 0.279284
H	 0.5558285341	-0.5218805195	-2.0169598417	 0.085229
H	 1.7623783804	 0.5435020041	-1.2521092004	 0.099871
H	 0.8729575374	-2.4982267926	 0.9132355885	 0.10779
H	 2.4851071644	-1.8273902868	 1.2720516176	 0.084598
H	 0.1880075946	-0.5501088686	 2.1248889381	 0.078058
H	 2.4274292232	 0.3332559237	 2.2067775797	 0.287178
