17
gdb 66520	4.92517	1.31543	1.28396	3.4226	75.63	-0.2201	-0.0048	0.2152	1014.6996	0.136495	-384.636271	-384.629308	-384.628364	-384.667431	28.064	
C	 0.0949234397	 1.5317660017	 0.0412296127	-0.527627
C	-0.0168224972	 0.0451609387	-0.0042282945	 0.343058
C	 0.8732026113	-1.0250954051	-0.5911980223	-0.127003
C	 0.4899970874	-1.0422963401	 0.9137542755	-0.127013
C	-0.7998405243	-1.8815529158	 0.8786577319	-0.192533
C	-1.2119835113	-0.925152823	-0.3196882862	-0.116317
C	-0.2717337997	-1.857966528	-1.1951176096	-0.192545
C	-0.5608100636	-2.9777047388	-0.1771985429	 0.446609
O	-0.737713545	-4.1586808277	-0.2356727842	-0.328264
H	 1.1150029378	 1.8331357598	 0.3043635794	 0.125967
H	-0.1441474843	 1.9827119758	-0.9290045758	 0.124109
H	-0.5813897741	 1.9630698253	 0.7885176654	 0.12411
H	 1.9029932137	-0.9621219986	-0.9174217785	 0.095245
H	 1.2380657051	-0.9919911694	 1.6939596143	 0.095247
H	-1.3815330971	-2.040220291	 1.7830099111	 0.08541
H	-2.2399092439	-0.6887453977	-0.578773491	 0.08614
H	-0.3492269945	-1.9941249461	-2.2706867554	 0.085406
