19
gdb 88745	3.31873	0.91539	0.78875	3.4666	78.16	-0.2404	-0.0122	0.2281	1446.0359	0.157652	-423.000425	-422.991299	-422.990355	-423.035126	33.78	
O	-0.1876033153	 1.4854123309	 0.2608881973	-0.414697
C	-0.0414982774	 0.1158734937	 0.0209844572	 0.088984
C	-0.5387295505	-0.8721170179	 1.0440202632	-0.332616
C	-1.3028795197	-0.6605017462	-0.2524646694	-0.04345
C	-2.6202528067	 0.0519120801	-0.2456947197	-0.002762
C	-3.5707027088	-0.0612700164	-1.3873902087	-0.317719
C	-3.9524660501	-0.6838471481	-0.0467533569	-0.113417
C	-3.9882500226	-2.1559818172	 0.063970732	 0.172514
O	-4.7377234381	-2.7719448875	 0.7826952342	-0.275991
H	 0.416457012	 1.7296673885	 0.9695128459	 0.291907
H	 0.8423621699	-0.1507984145	-0.5580405501	 0.090645
H	 0.0014158401	-1.8008515196	 1.1916682499	 0.116413
H	-0.9853094774	-0.4555821864	 1.9412265237	 0.120377
H	-1.2052536805	-1.4480553564	-0.9934778153	 0.092509
H	-2.5830609162	 1.0145409503	 0.2520710203	 0.115143
H	-4.1330107738	 0.8083200698	-1.7070358788	 0.128861
H	-3.3184044957	-0.7507082986	-2.18813504	 0.121077
H	-4.7058430448	-0.1808460984	 0.5497588356	 0.103739
H	-3.2592203045	-2.6894124261	-0.5900670104	 0.058484
