19
gdb 79966	1.83953	1.7763	1.59403	1.7833	75.56	-0.2291	0.0011	0.2303	1020.3598	0.158681	-423.011247	-423.002561	-423.001616	-423.043789	34.184	
C	-0.1051813785	 1.5668134553	-0.0807787524	-0.442243
C	 0.0545485593	 0.0685688967	 0.0677215129	-0.067132
C	 1.3529292088	-0.7094213959	-0.1953090501	-0.163832
C	 2.6271660574	 0.0663760667	-0.0995334813	-0.070687
C	 2.836051054	 0.5265818144	 1.1362766335	-0.139433
C	 1.7500317687	 0.0726976152	 2.0956407208	 0.010148
O	 1.1840914295	 1.0952062768	 2.9101869774	-0.440978
C	 0.7578801183	-0.6685556801	 1.187811184	 0.359393
O	 0.1544831948	-1.8134054714	 1.7121008944	-0.474184
H	 0.8266785466	 2.1047120209	 0.115132331	 0.119729
H	-0.4130934923	 1.8205081254	-1.1012114899	 0.120906
H	-0.8769679025	 1.9520692306	 0.5956214413	 0.119364
H	-0.8144536974	-0.4968922421	-0.2620312251	 0.094444
H	 1.2946328252	-1.6000098463	-0.8104488266	 0.099323
H	 3.2698978267	 0.2454919153	-0.9547226399	 0.101203
H	 3.6655450999	 1.143440383	 1.4626922062	 0.102474
H	 2.1478196903	-0.6537852819	 2.8163119537	 0.102922
H	 0.888936416	 1.8020832267	 2.3273160888	 0.283338
H	-0.479880195	-1.5253050191	 2.3786827413	 0.285245
