19
gdb 119765	4.64515	0.73941	0.67504	4.1304	80.8	-0.2324	-0.0394	0.193	1638.8446	0.15885	-423.064893	-423.055566	-423.054622	-423.100543	33.163	
O	-0.1189371707	 1.4421960861	-0.068733019	-0.414453
C	 0.0160465443	 0.0321269267	-0.0869304006	-0.068386
C	-1.3842521208	-0.5539214546	 0.1323161567	-0.288033
C	-1.4101478806	-2.0507713967	 0.1146948126	 0.324268
C	-1.6460587329	-2.8598951421	 1.1599790045	-0.297382
C	-1.59734784	-4.2813340869	 0.764158533	 0.395928
O	-1.7549869224	-5.248320927	 1.4737983051	-0.337742
C	-1.3055071066	-4.3124088066	-0.7467108251	-0.334911
C	-1.1653688873	-2.836695874	-1.1611608304	-0.314436
H	 0.7543139062	 1.8313985286	-0.1724072779	 0.289939
H	 0.4269260776	-0.3175769361	-1.0467035886	 0.091623
H	 0.6892125816	-0.3219400523	 0.7091354805	 0.098067
H	-1.7676141619	-0.1754276935	 1.0844883016	 0.121676
H	-2.0335904478	-0.1601420248	-0.6606065153	 0.12111
H	-1.8548543675	-2.5491310852	 2.1764128481	 0.10764
H	-0.4029456053	-4.9016712564	-0.9315670725	 0.131627
H	-2.1255813502	-4.8230859176	-1.2598670282	 0.133863
H	-1.8864836099	-2.5412644689	-1.9335374664	 0.120022
H	-0.1755401158	-2.6122793187	-1.5765863881	 0.119582
