18
gdb 23283	2.78849	1.35285	1.184	1.8575	74.97	-0.2455	0.0088	0.2543	1108.787	0.147602	-439.021191	-439.01316	-439.012216	-439.053657	31.323	
C	-0.2049381389	 1.621809722	 0.0273225857	-0.438984
C	 0.0370597012	 0.1226776039	 0.002098493	 0.027137
C	 0.9222000567	-0.5887839377	-1.0599444181	 0.047957
C	 2.2875467863	 0.1373718306	-1.0076189941	-0.324439
C	 2.3799031598	 0.1506396875	 0.5118324825	 0.487776
N	 3.2399266915	 0.6057385382	 1.3224015548	-0.286315
O	 4.3090886458	 1.2144207021	 0.6362541763	-0.392049
C	 1.1089446251	-0.5742523535	 0.8932352455	-0.039737
O	 1.1314429588	-1.6654274673	-0.0887428112	-0.299299
H	 0.7236509389	 2.1979207256	-0.0065462172	 0.131687
H	-0.8255597704	 1.9275239036	-0.8217457951	 0.122539
H	-0.7354638134	 1.9080416571	 0.941432067	 0.126904
H	-0.8957840694	-0.4382597856	 0.0991770537	 0.093276
H	 0.5442947761	-0.9250104999	-2.0250314169	 0.084552
H	 3.082135222	-0.4590616914	-1.4626829568	 0.135783
H	 2.3050425614	 1.1371592284	-1.4500407181	 0.123841
H	 4.8833336619	 1.4896137527	 1.35910229	 0.306475
H	 0.9559668265	-0.8758292664	 1.927080759	 0.092894
