23
gdb 76923	2.46257	1.14668	0.99958	1.5029	87.68	-0.2152	0.0821	0.2974	1353.2326	0.204202	-384.415212	-384.404851	-384.403907	-384.450418	38.394	
C	 0.9746951986	 1.4963662144	 0.5776603893	-0.315785
N	 0.6359088673	 0.1262960276	 0.2218753067	-0.141928
C	 0.4698816543	-0.2574933712	-1.186628877	-0.064673
C	 0.6186700467	 0.7051991003	-2.321310688	 0.009059
C	 0.054504487	 0.3443718901	-3.6474373348	-0.249915
N	-0.5801507097	 1.3982250817	-2.8401474154	-0.324217
C	 1.620660343	-0.7841173404	-0.3753447864	 0.295557
C	 3.0454226374	-0.3414788439	-0.6623259029	-0.456926
C	 1.5347809636	-2.2032825719	 0.1581366796	-0.434124
H	 1.6664813144	 2.0146691336	-0.1003679091	 0.102195
H	 0.0522050337	 2.0841446389	 0.6195860409	 0.127643
H	 1.4196716828	 1.4991057783	 1.5779688416	 0.120442
H	-0.3756279366	-0.9341738681	-1.3394636271	 0.071083
H	 1.4943529264	 1.3455129641	-2.310979717	 0.090436
H	 0.537413509	 0.6896770143	-4.5571673212	 0.118329
H	-0.4451632003	-0.6171363732	-3.7396376256	 0.111332
H	-1.4086940646	 1.0230687658	-2.381992105	 0.230401
H	 3.1230818599	 0.6810196491	-1.0328832793	 0.121168
H	 3.6535217085	-0.4132846787	 0.2469081444	 0.119484
H	 3.4989730132	-0.9999060404	-1.4108622987	 0.123162
H	 1.9363063361	-2.9220481026	-0.5653663862	 0.110222
H	 2.1127307646	-2.3023159449	 1.0845545828	 0.113929
H	 0.498381795	-2.4686943929	 0.3792783283	 0.123125
