17
gdb 108784	2.78971	1.21315	0.87104	6.5863	72.77	-0.2555	-0.0375	0.218	1278.5942	0.136178	-459.003316	-458.994824	-458.99388	-459.036862	30.939	
O	 0.0594096909	 1.4137272961	 0.042695424	-0.406133
C	 0.0065130788	 0.0072080402	-0.0166331573	-0.155911
C	-1.4143978105	-0.4699267059	 0.0256017798	 0.267768
C	-2.4640011281	 0.3500254266	 0.1484537765	-0.287529
C	-3.8572579878	-0.1352942057	 0.0626720027	 0.422687
O	-4.8069361948	 0.5886990093	-0.087966268	-0.338705
O	-4.0509475042	-1.4864682878	 0.1031892446	-0.237641
C	-2.9728164708	-2.3074379102	 0.5624781092	-0.07765
C	-1.650668227	-1.9520828895	-0.1059547685	-0.31719
H	 0.9812022046	 1.6853153549	 0.0293726467	 0.296669
H	 0.4754672225	-0.3842683853	-0.9378262543	 0.107439
H	 0.552672762	-0.458563071	 0.8236539324	 0.105819
H	-2.3456605301	 1.4225878943	 0.221375347	 0.136787
H	-2.8786079834	-2.1975767254	 1.651170126	 0.113599
H	-3.2741884158	-3.3347179859	 0.3461386274	 0.123155
H	-1.6650217624	-2.2375998269	-1.16690944	 0.133179
H	-0.8413814737	-2.5258693378	 0.3618529118	 0.113657
