18
gdb 98327	3.5937	0.86872	0.772	4.1039	76.02	-0.255	0.0134	0.2684	1479.6445	0.144841	-439.069245	-439.058991	-439.058046	-439.105436	35.903	
C	-0.307658878	 1.3186600435	 0.1042551753	-0.351152
N	-0.1681372603	-0.1118314304	-0.1104195946	-0.092562
C	-0.2106415199	-0.9654356264	 1.0788276932	-0.321399
C	-1.4931029012	-0.9040515597	 1.7767548419	 0.308187
C	-2.541846229	-0.8397835613	 2.3594743925	-0.450257
C	 0.1026953568	-0.6868064101	-1.3134589158	 0.402899
O	 0.2730963399	-1.8925387445	-1.4545706804	-0.402715
C	 0.2017645299	 0.2083274139	-2.5580920199	-0.153382
O	 0.5066629073	-0.5755537306	-3.6709536753	-0.423006
H	-0.505250665	 1.8366380214	-0.8326753342	 0.151782
H	-1.1512043788	 1.5018156477	 0.7762759448	 0.151914
H	 0.5964099859	 1.7466980991	 0.557929219	 0.131343
H	-0.0040431522	-1.9826584618	 0.7382909523	 0.183747
H	 0.5955090285	-0.673463404	 1.7668582683	 0.136818
H	-3.4713942846	-0.8016795649	 2.8720876292	 0.207082
H	-0.7537851436	 0.7387899394	-2.7001690632	 0.114031
H	 0.9733799832	 0.9769998369	-2.3952620379	 0.111316
H	 0.5474473412	-1.4832914483	-3.3224250053	 0.295355
