21
gdb 84559	2.89127	1.72552	1.34737	0.4161	86.53	-0.2218	0.023	0.2448	1030.7716	0.185353	-349.94483	-349.937485	-349.93654	-349.976074	30.912	
C	-0.0622566312	 1.5688716438	 0.0053352856	-0.399806
C	-0.0093033716	 0.0333303074	-0.0222147463	-0.02568
C	 0.5938975089	-0.4768355685	-1.313941108	-0.071956
C	 1.4012196928	-1.5384905944	-1.3647155253	-0.074557
C	 1.7341724106	-2.3386216332	-0.1586452274	-0.062508
C	 2.5288029225	-1.7956475974	 1.030452767	-0.068277
C	 2.3178368623	-0.2904320088	 1.1797785949	-0.24668
C	 0.7634764045	-0.5294864054	 1.1792661938	-0.023645
C	 1.0325229956	-2.0505243756	 1.1368839347	-0.105374
H	 0.9429147726	 2.0010890081	-0.0397351441	 0.120019
H	-0.6292989885	 1.9582771421	-0.8469061192	 0.110344
H	-0.5435078267	 1.9280736665	 0.9213034719	 0.108261
H	-1.0488087592	-0.3286863613	 0.0418169734	 0.078186
H	 0.3544292176	 0.0710552902	-2.2227883968	 0.078481
H	 1.8308829298	-1.8546392479	-2.3119047907	 0.081314
H	 1.93536519	-3.3910938359	-0.3384559848	 0.083446
H	 3.3466794862	-2.3684593333	 1.4522476137	 0.08065
H	 2.6719471217	 0.0853570327	 2.1424828726	 0.098539
H	 2.7196888436	 0.3428805341	 0.3827890332	 0.096957
H	 0.3024150356	-0.2056523736	 2.1161138285	 0.064563
H	 0.495587913	-2.8084917396	 1.6944894135	 0.077721
