11
gdb 131121	3.36644	1.20476	1.0197	2.1822	56.18	-0.3375	-0.0989	0.2386	1087.7774	0.064708	-484.796442	-484.788811	-484.787867	-484.829954	26.06	
O	 0.0432225772	 1.4743725725	-0.0607371735	-0.382247
C	 0.0424738527	 0.076228173	 0.0178586412	-0.094338
C	 0.6060919717	-0.5565632815	-1.1986854692	 0.263629
N	 1.0586895009	-1.02530626	-2.1519818787	-0.295913
C	 0.7683695951	-0.4395148365	 1.2373763895	 0.40915
N	 1.6779446662	 0.2301539559	 1.878519968	-0.140866
O	 2.0549936653	-0.5902833917	 2.8819036894	-0.129733
N	 1.3204823889	-1.7720435545	 2.7967875619	 0.062672
N	 0.5505876063	-1.6767767614	 1.8080232656	-0.190586
H	 0.9557132315	 1.7894215197	-0.0353088711	 0.316304
H	-1.0055472459	-0.2332632254	 0.0971168468	 0.181928
