16
gdb 42716	2.51989	2.1607	1.75057	4.1833	71.66	-0.2357	0.0016	0.2373	842.6351	0.127047	-400.732465	-400.726227	-400.725283	-400.762695	26.353	
O	 0.0028503419	 0.0788016687	 0.1318602404	-0.321561
C	-0.0154803156	 1.2588023293	-0.0100829136	 0.440511
C	-1.1901328905	 2.2920536237	-0.0128974768	-0.182441
C	-0.6970385537	 3.0726448569	 1.1927868297	-0.086424
C	 0.6495143283	 3.0912429632	 1.1737002821	-0.086424
C	 1.1296067246	 2.3241288975	-0.045801635	-0.182438
C	 0.6798632866	 3.1096236245	-1.2934779423	-0.027429
N	-0.0615530221	 2.2762963698	-2.2665568739	-0.346349
C	-0.7978473848	 3.089181578	-1.2725242996	-0.027427
H	-2.2002811274	 1.8894175901	 0.0244389089	 0.08567
H	-1.3415780627	 3.497771341	 1.9508788408	 0.108688
H	 1.3032939012	 3.5343053736	 1.9133861502	 0.108687
H	 2.1511522407	 1.9495867805	-0.0372918001	 0.085671
H	 1.2451850706	 3.9713130832	-1.6296997033	 0.097884
H	-0.0807213428	 2.7288608662	-3.1767118471	 0.235498
H	-1.3960889643	 3.9347743241	-1.5922472404	 0.097885
