21
gdb 109244	2.55073	1.43206	1.07024	1.7967	84.15	-0.2311	0.0114	0.2425	1215.1596	0.181687	-387.095431	-387.08637	-387.085426	-387.129056	34.678	
C	-0.0464651096	 1.5893686939	 0.086070537	-0.375211
C	 0.0315376478	 0.0541817531	-0.0135638483	-0.301102
C	 0.7391871263	-0.4467750387	-1.2413762838	 0.296094
C	 1.9913632756	-0.915038661	-1.305554513	-0.183622
C	 2.3960017867	-1.3463219447	-2.6987427044	-0.292328
C	 1.1142420861	-1.1423030987	-3.4939716944	-0.016148
O	 0.0110953483	-1.9340092328	-3.0436033913	-0.300221
C	 0.0967741901	-0.5487518386	-2.607007679	 0.315055
C	-1.0318973965	 0.3364607194	-3.0576689799	-0.498172
H	 0.9562559702	 2.0276208086	 0.08250526	 0.119889
H	-0.6036494401	 2.0240370305	-0.7486183709	 0.120208
H	-0.5469838372	 1.890010588	 1.0119442395	 0.113737
H	 0.5522033408	-0.3290796611	 0.8710616771	 0.106091
H	-0.9842193759	-0.3607581678	 0.0225036781	 0.106748
H	 2.6482608099	-1.0324340953	-0.4495851143	 0.090081
H	 3.2142524974	-0.7352351321	-3.1024083628	 0.107868
H	 2.7322779712	-2.3900401378	-2.7312663046	 0.121409
H	 1.1463660901	-0.9570559018	-4.5652399059	 0.087178
H	-1.9022778224	 0.2334519685	-2.4003737693	 0.126784
H	-0.7331315554	 1.3897063658	-3.0580521396	 0.125336
H	-1.3400986633	 0.0598601727	-4.0687860405	 0.130326
