19
gdb 119786	5.04007	0.87152	0.84029	2.1607	77.7	-0.2256	0.0094	0.235	1437.0759	0.158838	-422.960353	-422.95201	-422.951066	-422.994074	30.992	
C	-0.0103152858	 1.3744740458	 0.0520527118	-0.222063
O	-0.0499868244	-0.0321716175	 0.016856014	-0.227408
C	 0.6809092817	-0.6253670749	 1.0631041207	-0.20819
C	 0.6277018982	-2.1033813532	 0.943304504	 0.356345
C	 0.1011658824	-2.9177050089	 0.026155522	-0.194822
C	 0.4619549906	-4.2983237065	 0.6046216709	 0.024291
C	 0.0515921954	-4.1333633181	 2.0992631441	-0.215239
C	 1.2278393143	-3.1240023718	 1.938975026	-0.046065
O	 1.8535085403	-4.0891445856	 1.0337532267	-0.283596
H	 1.0182976705	 1.7575434727	-0.0412384711	 0.106313
H	-0.6004410211	 1.7380649851	-0.7923067523	 0.129767
H	-0.4408725898	 1.7729277536	 0.9847118686	 0.104107
H	 1.7335740953	-0.2831262901	 1.0450797522	 0.102217
H	 0.2814437023	-0.3086202358	 2.0462074337	 0.094394
H	-0.4389030819	-2.6940477757	-0.8800945712	 0.118782
H	 0.2977442314	-5.2024168017	 0.0204746967	 0.08081
H	-0.9448851333	-3.7522562137	 2.3321216902	 0.097495
H	 0.3211633693	-4.9965551724	 2.7126581781	 0.10633
H	 1.8629826446	-2.7860818513	 2.7580756847	 0.076531
