21
gdb 122548	2.82778	0.8087	0.69074	1.3108	76.48	-0.2527	0.0697	0.3224	1668.4951	0.180483	-461.321171	-461.310728	-461.309784	-461.358213	36.94	
O	 0.1628461948	 1.1081270179	-0.8281345334	-0.42182
C	-0.1818997769	 0.1720100073	 0.1740623905	-0.063105
C	-1.6681900896	-0.1450867512	 0.1579488323	-0.069545
O	-1.9581336319	-0.6960031481	-1.1208020497	-0.268004
C	-3.310544148	-0.9825641731	-1.3120081448	 0.112888
C	-4.2586731663	 0.1160380607	-1.721198202	-0.314744
C	-3.841831066	-0.953517983	-2.7131325098	-0.030238
C	-2.9526167905	-0.5918118828	-3.8731801047	-0.090516
O	-3.7751181399	-0.0528270228	-4.9003678051	-0.420643
H	-0.2003363631	 0.7584084635	-1.6495682179	 0.289908
H	 0.386669561	-0.7651065398	 0.063261449	 0.093342
H	 0.0878446879	 0.6165691019	 1.1376082644	 0.109261
H	-1.920624687	-0.8629672887	 0.9547400094	 0.088511
H	-2.2564447655	 0.770097571	 0.3172884972	 0.102743
H	-3.6876487787	-1.7584038884	-0.6443151682	 0.087656
H	-5.2712842784	 0.1143188607	-1.3337281627	 0.11418
H	-3.8285700272	 1.1013044317	-1.8682669462	 0.124077
H	-4.5844989847	-1.7088157726	-2.953356037	 0.095296
H	-2.19236518	 0.1312972558	-3.5455436309	 0.086252
H	-2.4195189915	-1.4898674485	-4.2238640569	 0.089192
H	-3.2186804685	 0.1186122784	-5.6659711438	 0.28531
