18
gdb 97377	3.30313	0.96365	0.77515	3.415	85.93	-0.2341	-0.0533	0.1808	1486.518	0.145109	-435.269495	-435.259319	-435.258375	-435.305397	35.06	
C	-0.5175324846	 0.8353046075	-1.7385455155	-0.31694
N	-0.3160450711	-0.3099322441	-0.8794937465	-0.206006
C	 0.8275610443	-0.4879159243	-0.3640742949	 0.096311
N	 1.1304013532	-1.5807102524	 0.4197938566	-0.346023
C	 0.2082614363	-2.551587471	 0.8376574641	 0.299252
C	-0.90910566	-2.8534451302	-0.1437121676	 0.117234
O	-2.0065266491	-3.2137875566	 0.2000720241	-0.256103
N	 0.4623610046	-3.1633699144	 1.9217942124	-0.283414
C	-0.3566195519	-4.2447121787	 2.4310897523	-0.323148
H	 0.3733769523	 1.4776740457	-1.8289238138	 0.099353
H	-0.8040481039	 0.503766143	-2.7435871355	 0.130703
H	-1.3454664494	 1.4425847502	-1.3558888496	 0.133601
H	 1.6809449916	 0.1896809122	-0.5021034752	 0.096691
H	 1.9482664532	-1.5242937993	 1.0101847787	 0.256527
H	-0.6069086461	-2.8064016999	-1.2062054315	 0.105867
H	 0.3059785644	-5.0121306328	 2.8451550705	 0.120616
H	-0.961690246	-3.8651986224	 3.2636795367	 0.137382
H	-1.0397284878	-4.6972970723	 1.7068299948	 0.138097
