20
gdb 61523	2.40973	1.22098	1.0076	3.318	79.62	-0.2651	0.0216	0.2867	1288.1379	0.16822	-403.14508	-403.1351	-403.134156	-403.180875	36.501	
C	-1.0391601754	-2.3438995863	 0.2209184671	-0.396585
C	 0.291978454	-2.2426974805	 0.9677005231	-0.018001
O	 0.7984791822	-0.9421148521	 0.7466074341	-0.285877
C	 2.1404730079	-0.6965836007	 1.1244860014	 0.436418
C	 3.1775179355	-1.474500927	 0.3453300885	-0.46235
C	 2.3859530252	 0.7421286089	 1.4619944266	-0.313763
C	 2.3951836728	-0.3033532038	 2.5592645125	-0.311647
C	 0.099602444	-2.5344027009	 2.4088214337	 0.272833
N	-0.0703034612	-2.7766609961	 3.5259696836	-0.33204
H	-0.862605464	-2.170060878	-0.8427479331	 0.135203
H	-1.482494978	-3.3330892759	 0.3573863277	 0.137237
H	-1.7349796022	-1.5881835347	 0.5919561599	 0.147462
H	 0.9826063118	-3.004047545	 0.579363525	 0.117575
H	 3.0276830742	-1.3426380232	-0.7314736466	 0.126297
H	 4.1802051443	-1.1188808692	 0.5965958613	 0.126522
H	 3.1529091219	-2.546645161	 0.5692095354	 0.122633
H	 3.3240575962	 1.187676534	 1.1502957253	 0.113499
H	 1.5280091757	 1.4026868639	 1.4167740896	 0.126652
H	 1.553923673	-0.3158563412	 3.2400851745	 0.141707
H	 3.342606812	-0.5852817112	 3.0057158503	 0.116224
