16
gdb 10935	4.25131	1.54532	1.3697	1.7281	71.06	-0.2387	0.0246	0.2633	943.8038	0.128441	-346.528377	-346.520683	-346.519739	-346.560109	29.372	
C	 0.0374296029	 1.5063469045	-0.0124247583	-0.487819
C	 0.057412119	 0.0171567018	 0.080699638	 0.476078
C	-0.8969957219	-0.8659454889	 0.8244903738	-0.34442
C	 0.594330633	-0.9814414302	 1.0811355744	-0.177037
C	 1.2416876819	-1.6642103401	-0.1285635199	-0.09047
O	 0.6084826825	-0.7082792373	-1.0357315704	-0.322158
C	 2.6924486982	-1.594516983	-0.1790197118	 0.34114
C	 3.8932801737	-1.552486049	-0.2008452245	-0.433998
H	 1.0386196972	 1.8979690765	-0.2152728968	 0.134656
H	-0.6269422107	 1.8296509709	-0.8217481744	 0.133863
H	-0.3301776715	 1.9430006304	 0.92065636	 0.123707
H	-1.4521049851	-0.3911985528	 1.628075083	 0.115173
H	-1.4301779028	-1.6536092781	 0.2984272583	 0.114178
H	 1.0596238827	-0.8490202068	 2.0478535815	 0.109894
H	 0.9024883236	-2.686456559	-0.3396527948	 0.106716
H	 4.9542970572	-1.5141858389	-0.230516858	 0.200496
