18
gdb 86704	2.15556	1.52215	1.02016	4.3638	74.14	-0.2304	-0.0355	0.1949	1188.3498	0.144742	-439.068871	-439.059491	-439.058547	-439.10417	32.57	
C	-0.4430325198	 1.4848185516	-0.1139538956	-0.330889
N	-0.1976937485	 0.0656653345	 0.0198982595	-0.080809
C	-1.2132276414	-0.7584680424	 0.71506665	-0.173247
C	-0.0956511215	-1.5046283242	 1.4772112069	-0.142375
C	 0.1814821252	-2.9260602834	 1.0272577973	 0.148822
O	-0.4404685741	-3.4844893553	 0.1592912822	-0.242092
C	 0.8594390405	-0.3860288236	 0.943314745	-0.061078
C	 2.132811341	-0.7699242081	 0.2244171793	 0.167956
O	 2.7397557878	-1.7952354937	 0.4005646471	-0.247781
H	 0.422607048	 1.9765620148	-0.5693861338	 0.125062
H	-1.3018619272	 1.6470497089	-0.7727919508	 0.133231
H	-0.6516430507	 1.9811445626	 0.8533810594	 0.094387
H	-1.8596949463	-0.1733000635	 1.3850961234	 0.091567
H	-1.8233967626	-1.3734856238	 0.0492980789	 0.135939
H	-0.1777117465	-1.507506043	 2.5673466182	 0.102377
H	 0.9884025242	-3.4420963261	 1.5829851254	 0.10032
H	 1.109393375	 0.3519621272	 1.7281734671	 0.087276
H	 2.4704430069	-0.0140427726	-0.5202599596	 0.091334
