17
gdb 49586	2.26235	1.65928	1.1956	4.8022	72.87	-0.2383	-0.0357	0.2026	1058.9606	0.134503	-421.806384	-421.798125	-421.797181	-421.839878	30.192	
O	-0.7819811171	 1.0732787795	 0.3209182329	-0.246178
C	 0.2957133299	 0.9812476725	-0.2147220379	 0.150838
C	 1.4001772054	 1.9896209174	-0.0937645294	-0.117233
C	 1.4900645283	 2.9674970041	-1.2942010271	-0.07344
C	 0.2487102788	 3.8102277202	-1.3656411479	-0.288307
C	 1.3016721321	 4.1503089624	-0.3459817625	-0.066963
C	 1.2363405359	 3.2218182553	 0.8781328955	-0.101299
C	 0.0343926891	 3.3168390732	 1.7987878832	 0.156681
O	 0.1032733609	 3.1219891971	 2.986284679	-0.26171
H	 0.521433011	 0.1318659257	-0.8993777206	 0.090439
H	 2.349515284	 1.4727686551	 0.0737559006	 0.105472
H	 2.1728734282	 2.8559110996	-2.1260718163	 0.102092
H	 0.2066053114	 4.485012618	-2.2140898648	 0.123758
H	-0.7155596932	 3.4051164397	-1.0741288994	 0.136899
H	 1.8149176772	 5.1034917521	-0.3580349934	 0.102631
H	 2.1265788497	 3.2973011176	 1.5057390038	 0.102675
H	-0.9150919016	 3.6280584206	 1.3186487043	 0.083645
