20
gdb 101929	2.0205	1.38654	0.96664	2.746	75.85	-0.231	0.031	0.262	1292.4505	0.169416	-440.29493	-440.284796	-440.283852	-440.330576	36.394	
C	-0.8362546655	 0.8127987092	 0.1914918332	-0.248309
O	-0.2776249265	-0.4783722493	 0.0359072928	-0.251451
C	 0.6874640245	-0.5595969775	-1.0048506946	-0.001907
C	 1.5443433967	-1.7801355941	-0.7582118197	 0.012565
C	 2.8855054604	-1.8896860753	-1.4333929453	-0.256002
C	 2.8080898133	-1.663737949	 0.0551024612	-0.280454
C	 0.0407694496	-0.6471849571	-2.4033822697	 0.366088
N	-1.20748666	-1.1852072275	-2.3978896962	-0.512437
O	 0.6344562657	-0.3001250221	-3.4058203577	-0.367022
H	-0.0625005306	 1.5551962715	 0.4347960288	 0.116387
H	-1.3665363586	 1.1459590595	-0.7120908493	 0.116513
H	-1.5468197531	 0.7580109282	 1.0197175656	 0.128782
H	 1.3226002301	 0.3375507896	-1.0178773604	 0.088183
H	 0.9687608305	-2.6947615828	-0.6485916184	 0.08834
H	 3.1931734702	-2.8643564764	-1.7943611573	 0.113524
H	 3.190782574	-1.0654779218	-2.0675454686	 0.133698
H	 3.0736250544	-0.6835972702	 0.4374550187	 0.112458
H	 3.0636821631	-2.4828302521	 0.7178681205	 0.113284
H	-1.6452089968	-1.4271047038	-1.5252586943	 0.267276
H	-1.6936193414	-1.3143507989	-3.2690927192	 0.260486
