17
gdb 107742	3.66032	1.41342	1.17937	3.6373	74.33	-0.2236	-0.0537	0.1699	1040.2175	0.13576	-417.85559	-417.848012	-417.847068	-417.88754	29.765	
O	 0.5648872042	 0.4011047737	-0.6704025566	-0.400514
C	-0.3563329456	 0.5253852165	 0.3973034699	-0.179556
C	-1.5776775331	-0.3461732781	 0.2111053697	 0.303749
N	-2.4955276988	-0.5674066766	 1.470502252	-0.38294
C	-3.031057245	-1.5738702547	 0.5371218044	 0.130739
N	-4.1217612472	-1.2790763556	-0.048543421	-0.157568
C	-3.7055359599	-0.915311247	-1.432775343	-0.18574
C	-2.2006380736	-0.6385707516	-1.233604914	-0.088008
C	-1.7266340173	-1.7177992009	-0.3200487757	-0.228737
H	 0.9420912858	-0.4841844053	-0.6355782806	 0.290294
H	 0.110433533	 0.2892492872	 1.3675645101	 0.095983
H	-0.6523479906	 1.5782661432	 0.4281738565	 0.139162
H	-1.8341304559	-1.0047330134	 2.1243905147	 0.217917
H	-3.8683023894	-1.6816264991	-2.2058447592	 0.110326
H	-4.2993736182	-0.0357565149	-1.7007917436	 0.129817
H	-1.5731034604	-0.2824513819	-2.0456307519	 0.107007
H	-1.055832558	-2.5566810314	-0.4615332017	 0.09807
