19
gdb 78171	2.07332	1.78008	1.24753	4.4964	75.3	-0.2587	0.0128	0.2715	1090.7528	0.159742	-423.072341	-423.064004	-423.06306	-423.105093	31.971	
C	-0.0761222372	 1.545614006	 0.0202904709	-0.427449
C	 0.0592758665	 0.0397931651	-0.0606291372	-0.029523
C	 0.737069655	-0.6942200808	-1.1796979209	-0.083164
C	 1.3593846752	-0.714035416	 0.1991017282	-0.211022
C	 2.6177558465	 0.0853935814	 0.0954548281	 0.43588
O	 3.4618974269	 0.2656681848	 0.9250154773	-0.347418
O	 2.7043900993	 0.629859215	-1.1586471657	-0.237964
C	 1.7068928866	 0.0900294956	-2.0565828928	 0.103891
C	 2.3923253518	-0.7664499812	-3.1122779016	-0.398907
H	 0.8075475539	 2.0653966856	-0.3566762385	 0.145614
H	-0.9408684131	 1.8827502968	-0.5616005558	 0.120872
H	-0.229223817	 1.8604457669	 1.0572370896	 0.130768
H	-0.7989546437	-0.4932885896	 0.3413813104	 0.100312
H	 0.2733338676	-1.5748836376	-1.6086775845	 0.099621
H	 1.3672995168	-1.5652926631	 0.8661441337	 0.115945
H	 1.2235500644	 0.9516558665	-2.5311409327	 0.097434
H	 2.8656129349	-1.6406690717	-2.6544950555	 0.128991
H	 1.661788375	-1.1126820492	-3.8506956326	 0.120279
H	 3.1613374606	-0.1878859845	-3.6299867604	 0.135839
