21
gdb 72457	2.54806	1.85986	1.46389	1.3001	82.36	-0.2332	0.0236	0.2568	1000.474	0.184938	-387.119428	-387.111831	-387.110887	-387.150826	31.615	
C	-0.01631149	 1.5060587544	 0.0629953369	-0.447518
C	-0.0108753451	-0.0115462729	-0.0425105746	 0.383806
C	 0.7840600192	-0.5817960894	-1.2282203287	-0.256807
C	 1.0127572128	-2.0090826446	-0.698930034	-0.091986
C	 1.4666312563	-1.6696313727	 0.7351788346	-0.064574
O	 0.6834241896	-0.5362987975	 1.1126206973	-0.307752
C	-0.3172627342	-2.7328861148	-0.6703906889	-0.068519
C	-1.4371623797	-2.0737139964	-0.3722035523	-0.053778
C	-1.4408577281	-0.5993265349	-0.0522997919	-0.265169
H	 1.0074719384	 1.8853497835	 0.1257660414	 0.116294
H	-0.5039838938	 1.9559351706	-0.8077006935	 0.110966
H	-0.5539951095	 1.8273927817	 0.9606626165	 0.121108
H	 0.230716029	-0.5556193879	-2.1694782305	 0.100766
H	 1.728730804	-0.0418445893	-1.3533429753	 0.093262
H	 1.7711011567	-2.5699343858	-1.2497178232	 0.066167
H	 1.2871827593	-2.4837397179	 1.4455941105	 0.100092
H	 2.5369354826	-1.4134372338	 0.7615565767	 0.085486
H	-0.3337897674	-3.7996955823	-0.8740178663	 0.08385
H	-2.3929592421	-2.5914320251	-0.3470961325	 0.085474
H	-1.8827787604	-0.4286243657	 0.9381352318	 0.11251
H	-2.0760893476	-0.055899959	-0.7672613839	 0.096321
