17
gdb 47096	2.50457	1.87076	1.30728	2.599	66.83	-0.2362	-0.0361	0.2001	975.1569	0.137215	-458.98767	-458.980098	-458.979154	-459.021401	27.846	
O	 0.0989199296	 0.1215971811	 0.0166520454	-0.302576
C	 0.0522366967	 1.3175616517	 0.1197088632	 0.381406
C	-1.1154123943	 2.1503163184	 0.6492668587	-0.326539
C	-0.8350129512	 3.5793452024	 0.1561913533	-0.244317
C	 0.6973631905	 3.6835061212	 0.08393119	 0.08627
O	 1.2638226265	 3.9127566261	 1.3776065181	-0.279986
C	 2.1500581737	 2.8535792781	 1.6950740058	 0.019089
O	 2.3712087986	 2.1063380374	 0.5211563562	-0.242244
C	 1.2114194174	 2.2811932153	-0.2732233069	-0.022503
H	-2.0745570632	 1.7309572355	 0.3390527275	 0.132836
H	-1.0799590714	 2.1008479038	 1.7454446412	 0.144801
H	-1.2484437817	 3.7268005989	-0.8483094425	 0.110152
H	-1.2500931548	 4.3555774025	 0.8017767212	 0.124233
H	 1.0351626676	 4.470417132	-0.5982584868	 0.086433
H	 3.1122874283	 3.2519727859	 2.0360629943	 0.120437
H	 1.7046424575	 2.2268375355	 2.4862701118	 0.097061
H	 1.4878259902	 2.1320897442	-1.3197748505	 0.115447
