17
gdb 77492	1.95098	1.89715	1.20658	0.7516	68.73	-0.2339	0.0003	0.2343	1059.2276	0.132889	-458.923569	-458.914042	-458.913097	-458.958018	34.225	
C	-0.1208539433	 1.5531183748	-0.0184335237	-0.443872
C	 0.0979082591	 0.0481974408	 0.0114306458	-0.071106
C	 1.3394322418	-0.6030109038	-0.7424905357	 0.268741
O	 1.6446866445	-0.5584332067	-2.0782811185	-0.466003
C	 2.2497388362	-0.086683115	 0.4171866908	-0.358676
C	 0.9487081907	-0.623011168	 1.1461278225	 0.266986
O	 0.631473905	-0.5941196786	 2.4789235769	-0.466254
C	 1.0776058462	-1.8037103404	 0.1737334121	 0.304994
O	 1.0181855401	-2.9974624592	 0.1412979825	-0.34348
H	 0.781608097	 2.1378768693	 0.1689575562	 0.126653
H	-0.510073494	 1.8500265724	-0.9975902563	 0.129869
H	-0.8615473912	 1.8364969843	 0.7359966027	 0.132965
H	-0.8497075263	-0.4674196464	-0.177816123	 0.084076
H	 1.3389904623	-1.3765941432	-2.4866625197	 0.301916
H	 3.1825733685	-0.6268741962	 0.5898683375	 0.111615
H	 2.3948435684	 0.9902949279	 0.4599587408	 0.120496
H	 0.962340935	-1.4001558219	 2.8913845991	 0.301079
