15
gdb 46560	4.2086	1.16651	1.06452	3.6602	61.02	-0.2749	0.031	0.3059	1103.2462	0.113089	-494.923526	-494.91609	-494.915146	-494.956751	26.588	
O	 0.0930764886	 0.0044593283	-0.1210561842	-0.362981
C	 0.0027046422	 1.1860529107	-0.055773707	 0.490407
O	-1.1543934676	 1.887132323	-0.151424672	-0.23854
C	-0.9061539927	 3.273182416	 0.0784892098	-0.167726
C	 0.6255174157	 3.3911257875	 0.0549449774	 0.307489
C	 1.3186816838	 4.2371885009	-1.0354929376	-0.122238
O	 1.8238059728	 5.155630515	-0.0470483654	-0.264541
C	 1.3263217233	 4.3475945197	 1.0361425886	-0.126949
O	 1.0522822381	 2.0365108385	 0.1244260497	-0.269113
H	-1.3936737821	 3.8573537273	-0.7051595304	 0.140816
H	-1.3248448716	 3.5557177857	 1.0506429265	 0.132483
H	 2.1168871085	 3.6963919846	-1.5570763024	 0.127558
H	 0.6631807559	 4.729133548	-1.7640312083	 0.112203
H	 0.6723908687	 4.9128432698	 1.7116079997	 0.111875
H	 2.1265435764	 3.8670188653	 1.6109987756	 0.129259
