20
gdb 63922	2.93394	1.54493	1.53443	2.456	76.86	-0.2265	0.0735	0.3	989.816	0.171819	-403.108662	-403.10084	-403.099896	-403.140328	32.037	
C	-0.28101518	 1.5751984383	 0.0484899625	-0.447768
C	-0.011283107	 0.0715095489	-0.0496391135	 0.375529
O	-1.2485164296	-0.6386103459	 0.0828131832	-0.479071
C	 0.7580909419	-0.3758414314	-1.3347803153	-0.27968
C	 2.1277357113	-0.8473929426	-0.8296113621	-0.062341
C	 2.8445152013	 0.306013299	-0.0963075839	-0.153622
N	 2.2980968835	-0.1237165835	 1.237332905	-0.168592
C	 1.8700239813	-1.4215608956	 0.5901525225	-0.056351
C	 0.8557717874	-0.4785062468	 1.083560904	-0.024055
H	 0.639668193	 2.1625416423	 0.0121349017	 0.128088
H	-0.9175205248	 1.9056680866	-0.7820230626	 0.104036
H	-0.7971262024	 1.8019646005	 0.9858817589	 0.127215
H	-1.8643815747	-0.2752373927	-0.5626183568	 0.273493
H	 0.203540766	-1.2050958859	-1.7845627988	 0.10462
H	 0.849311616	 0.4241692803	-2.077987034	 0.091055
H	 2.7082833609	-1.4281596345	-1.5459433619	 0.071043
H	 3.9298175842	 0.1827175166	-0.0584512084	 0.109857
H	 2.6169787614	 1.3345660859	-0.3992622367	 0.092924
H	 2.1192536159	-2.3950429466	 0.9946647798	 0.093378
H	 0.3697640344	-0.6246450827	 2.0418837063	 0.100242
