20
gdb 68653	5.15331	0.88629	0.8671	3.7357	83.09	-0.2566	0.0224	0.279	1410.6387	0.170335	-403.106635	-403.097774	-403.09683	-403.141015	33.271	
C	-0.0037131025	 1.4373326553	-0.0078472602	-0.504933
C	-0.002200851	-0.0658179403	 0.0085591429	 0.323459
C	 0.6132300695	-1.0261577602	-1.0646141395	-0.30987
C	 0.0041079168	-1.9279396653	 0.0211387182	 0.432459
C	 0.6351707526	-0.9945928262	 1.0925986195	-0.31527
C	-1.2494910338	-1.0081782056	 0.0239626103	-0.315294
O	 0.057846579	-3.3216841387	-0.0557854411	-0.234874
C	-0.5103816273	-4.0148351721	 0.9535617501	 0.108588
N	-0.490257613	-5.2764988095	 0.9364699313	-0.445624
H	 1.018068613	 1.831112011	-0.0222093158	 0.123706
H	-0.5235071216	 1.8200881068	-0.89250429	 0.123699
H	-0.5065626208	 1.8403843748	 0.8777710214	 0.121708
H	 0.1266265665	-1.0431663298	-2.0430971687	 0.098314
H	 1.7028603365	-1.031742821	-1.149317318	 0.098319
H	 1.7263067653	-0.9943780647	 1.1578914405	 0.099779
H	 0.167886826	-0.9786411384	 2.0814137082	 0.090071
H	-1.8583224453	-0.9932371299	 0.9325106343	 0.090085
H	-1.8656343624	-1.0202479069	-0.8788485221	 0.099773
H	-0.9559917838	-3.3790869454	 1.7282353761	 0.087506
H	-0.9581262634	-5.6396780339	 1.7645252625	 0.228397
