24
gdb 109784	2.00492	1.26449	0.90224	1.3916	90.47	-0.2084	0.0795	0.2879	1431.4397	0.216503	-368.368502	-368.358215	-368.357271	-368.404299	38.103	
C	-0.4181935359	-2.2006647717	 6.2425445098	-0.378761
C	-0.0064813482	-2.8789671082	 4.9297612682	-0.203093
C	 0.8886941596	-1.9810184011	 4.0964723433	-0.012091
C	 2.3840519165	-1.979388751	 4.2054408434	-0.017211
C	 3.1426936141	-2.8798777747	 5.1307746652	 0.017883
C	 4.6484890546	-2.959636794	 5.0114720648	-0.27129
C	 4.0251731392	-2.258753718	 6.1895621752	-0.277006
N	 1.7202150256	-2.4469866686	 2.9835107402	-0.125746
C	 1.7568590764	-3.8548532971	 2.6174764409	-0.310256
H	-0.9209659891	-1.2462438457	 6.0515357355	 0.11698
H	-1.1058606853	-2.8302694318	 6.8153965728	 0.111008
H	 0.4558181531	-1.9947650815	 6.8686352625	 0.12433
H	 0.4772717217	-3.8344107344	 5.1501092366	 0.097454
H	-0.9044724096	-3.1208999179	 4.3459566318	 0.099325
H	 0.4150246135	-1.0205175976	 3.8822597377	 0.079792
H	 2.891837834	-1.0231293838	 4.0622526061	 0.075979
H	 2.6498912333	-3.8003065766	 5.4210198221	 0.082596
H	 5.126656305	-3.9192669159	 5.1734015228	 0.111064
H	 5.1241241915	-2.3473434235	 4.2523973345	 0.116248
H	 4.0833646734	-1.1756805423	 6.2240700843	 0.113953
H	 4.0728325521	-2.7361620376	 7.1618642969	 0.111192
H	 1.716595267	-4.5717118897	 3.4496929296	 0.096676
H	 0.9141515226	-4.0671659221	 1.9512239892	 0.118799
H	 2.6794831549	-4.0461679052	 2.0600308365	 0.122176
