20
gdb 98310	3.86034	0.96621	0.83099	2.2503	78.09	-0.2223	0.0616	0.2839	1435.5626	0.169743	-440.301239	-440.291123	-440.290179	-440.337253	35.42	
C	 0.2352037281	 1.3751246059	 0.144129457	-0.232764
O	 0.0452336829	-0.0333713134	-0.0012790029	-0.267925
C	 0.6025150341	-0.5608896563	-1.1232526457	 0.525785
O	 1.1913043561	 0.1074686401	-1.9485819493	-0.429773
N	 0.4124579485	-1.9134001133	-1.1941056697	-0.161514
C	-0.3339966497	-2.6580362755	-0.1938294883	-0.348384
C	 0.8859738227	-2.5749314732	-2.3864639206	 0.076326
C	 1.6881085805	-3.848082603	-2.3409646055	-0.286427
C	 0.2755315823	-3.8516283506	-2.894039447	-0.300152
H	 1.2982891495	 1.6224659027	 0.2035410683	 0.137697
H	-0.2021798967	 1.9164726255	-0.698371815	 0.138927
H	-0.2694343433	 1.6447453485	 1.0727654581	 0.126
H	-1.3738993947	-2.8301047237	-0.500306094	 0.12637
H	 0.1373405716	-3.6304543246	-0.0210063033	 0.126575
H	-0.3340718025	-2.1084075793	 0.7439595421	 0.158212
H	 1.1826756283	-1.8394296694	-3.1208196372	 0.13855
H	 2.5247845754	-3.9436951712	-3.0238333623	 0.121115
H	 1.844019092	-4.3283383896	-1.380969326	 0.115775
H	-0.4847258042	-4.3410061686	-2.296348332	 0.115837
H	 0.1260735891	-3.9515811111	-3.9633857666	 0.11977
