17
gdb 19864	3.77846	2.25999	2.03821	1.4958	66.11	-0.2322	0.0797	0.3119	739.3406	0.145368	-363.810573	-363.804556	-363.803612	-363.84044	24.461	
C	 0.0814113208	 1.467733789	-0.0678674683	-0.2538
C	 1.3142880831	 0.6563226272	-0.0854566507	-0.039994
C	 1.6895353607	 0.0907513751	 1.2925229102	-0.050371
C	 1.734783056	 1.0201090632	 2.5071053395	-0.107686
O	 0.3722802688	 1.2713598762	 2.8632354629	-0.253013
C	-0.4023638288	 0.1151278217	 2.5355763621	-0.107245
C	 0.2645526239	-0.5206596667	 1.3190097364	 0.013397
N	-0.0555437707	-0.0056555328	-0.0721112478	-0.150846
H	-0.1933289092	 2.0446105841	 0.8073213834	 0.145189
H	-0.2285300957	 1.8958846218	-1.0167467753	 0.118089
H	 1.954392937	 0.5951666867	-0.9602534599	 0.093156
H	 2.5134298367	-0.6219575451	 1.2601486588	 0.082543
H	 2.2655705511	 0.5346801765	 3.3416458348	 0.093322
H	 2.204394909	 1.9887698356	 2.3124004284	 0.11286
H	-0.4040112898	-0.5984862182	 3.3750640063	 0.096052
H	-1.4308278153	 0.4421550472	 2.3555869172	 0.120566
H	 0.1921557722	-1.6083793415	 1.3116440218	 0.087782
