22
gdb 57429	2.51879	1.21487	1.048	1.5564	88.69	-0.2448	0.0351	0.2799	1280.9683	0.191369	-367.158614	-367.148279	-367.147335	-367.193385	39.547	
C	-0.0929501836	 1.515785452	 0.2605431766	-0.420603
C	-0.0634481066	-0.0121634131	 0.090188536	 0.235527
C	 0.454720617	-0.683590872	 1.3761089125	-0.402581
C	-1.494454145	-0.5048734796	-0.2116870868	-0.405044
C	 0.8201193327	-0.4680430181	-1.0737290034	 0.003835
N	 1.0609213093	 0.4236175536	-2.2068476982	-0.335157
C	 2.2181154199	-0.0221608194	-1.393866499	-0.262917
C	 2.9852132214	 0.9550205909	-0.6695855545	 0.378024
C	 3.7032648668	 1.718185788	-0.0787182293	-0.43397
H	 0.8887306064	 1.9152577306	 0.5205237993	 0.129709
H	-0.4198772138	 2.0041878709	-0.6602818682	 0.127425
H	-0.7911814776	 1.7806153036	 1.06196136	 0.098197
H	-0.1982900877	-0.4509720004	 2.2240704567	 0.109258
H	 0.4867745274	-1.7744419947	 1.272012494	 0.102421
H	 1.4638022837	-0.3371544109	 1.6189165791	 0.12494
H	-1.8721190783	-0.0642412523	-1.1404321121	 0.117668
H	-1.5304895946	-1.5956052695	-0.3138235886	 0.102738
H	-2.1780130885	-0.2233364673	 0.5960461088	 0.110231
H	 0.6585958529	-1.5212974878	-1.3123650517	 0.078975
H	 1.0458076434	-0.0803859192	-3.0891904062	 0.235953
H	 2.8432904315	-0.8005899805	-1.8300592049	 0.108203
H	 4.3165009033	 2.4081202252	 0.4461878898	 0.197168
