19
gdb 124567	4.13193	0.92959	0.87627	2.1409	76.98	-0.2823	-0.0205	0.2617	1392.6408	0.159168	-419.225692	-419.216677	-419.215732	-419.261152	32.254	
C	 0.0628474684	 1.5426144893	-0.0439688859	-0.389628
C	 0.0122548961	 0.0115141797	 0.0270687391	 0.039592
C	 0.7218609804	-0.5113959083	 1.2813820476	-0.395155
C	-1.4442413719	-0.5163738607	-0.0118348777	-0.318824
C	-2.145705773	-0.1978030051	-1.2865165457	 0.428889
N	-1.9750219632	-0.7364430188	-2.4604995476	-0.31219
C	-2.8594446968	-0.0244896569	-3.2299774346	 0.036671
N	-3.5398683304	 0.8925333856	-2.5996191502	-0.119185
O	-3.0622630955	 0.7817817515	-1.2867893468	-0.19265
H	 1.0990007217	 1.8948421263	-0.0463961477	 0.11784
H	-0.4218956692	 1.9272094382	-0.9462214678	 0.128079
H	-0.4398941232	 1.9914359382	 0.8209027952	 0.11759
H	 0.5218824518	-0.3945551876	-0.8555796276	 0.100797
H	 0.233294378	-0.1434444487	 2.1914015235	 0.116478
H	 0.7197729251	-1.6056908803	 1.3182138037	 0.115684
H	 1.7634031849	-0.1762745259	 1.3062846853	 0.118116
H	-1.4357043456	-1.6049864475	 0.1007168024	 0.135367
H	-2.0173593271	-0.0960090282	 0.8209151559	 0.127201
H	-3.0015038104	-0.1969158107	-4.2871010011	 0.145327
