18
gdb 29476	3.03865	1.63139	1.07558	1.7112	87.09	-0.1741	0.0089	0.183	1106.5435	0.149974	-364.864434	-364.856792	-364.855848	-364.89617	30.391	
C	-0.0203758958	 1.5182146794	 0.0574814162	-0.516421
C	-0.00729435	 0.022148545	 0.0194957603	 0.226396
C	-0.0249759284	-0.7833092079	-1.0676225753	-0.190267
C	-0.0020013386	-2.2557059404	-0.6826732497	-0.422707
C	 0.0323531107	-2.18687442	 0.8191841631	 0.283628
C	 0.028170694	-0.8555380786	 1.1819117738	 0.25454
N	 0.0588858487	-0.7721516595	 2.5465140741	-0.393323
C	 0.0833695573	-2.0565693454	 3.0582520733	-0.081823
C	 0.0671014774	-2.9565015235	 2.0073982776	-0.322047
H	 0.870771808	 1.9141557346	 0.5608955855	 0.123622
H	-0.0512186186	 1.9394379258	-0.9505160019	 0.129136
H	-0.8906682017	 1.8975785079	 0.6079150732	 0.123461
H	-0.0522913385	-0.4425490813	-2.095128815	 0.085409
H	-0.8839280012	-2.7826389981	-1.0719174562	 0.121047
H	 0.8707166586	-2.7659212699	-1.1128078518	 0.121044
H	 0.0639892856	 0.0668906335	 3.0987943529	 0.256671
H	 0.1098837295	-2.2219485273	 4.1235171713	 0.112274
H	 0.0795605732	-4.0311014245	 2.1108041186	 0.089359
