22
gdb 122832	2.22438	0.95105	0.83446	2.0141	80.14	-0.2496	0.0227	0.2722	1556.9616	0.192054	-441.477207	-441.466261	-441.465317	-441.514884	37.916	
C	-0.6636741855	-0.0670418762	 0.0399845211	-0.386765
C	-0.0361243657	-1.0805108298	-0.9217841358	-0.186142
C	 1.079390126	-0.4493608914	-1.7594411794	-0.051699
O	 1.5890026135	-1.2805152402	-2.790689223	-0.233284
C	 2.5032931681	-2.2691637234	-2.3819326453	-0.138065
C	 1.8764013394	-3.5512165667	-1.85748879	 0.377898
N	 2.3227305344	-4.1035046931	-0.8054218783	-0.525578
O	 0.8824238312	-3.9650899796	-2.6796927643	-0.211534
C	 0.1971989053	-5.1589852304	-2.3331540091	-0.264339
H	 0.0804868868	 0.3360323404	 0.7361031727	 0.117924
H	-1.1011624574	 0.778773615	-0.5022528381	 0.115712
H	-1.4578075813	-0.5259471693	 0.6360731503	 0.115467
H	 0.3640213693	-1.9268244359	-0.3527906933	 0.112489
H	-0.7942075845	-1.4813442136	-1.6043597695	 0.105546
H	 0.6918614656	 0.4377587123	-2.2740963603	 0.103446
H	 1.9004872327	-0.1162188806	-1.1032551852	 0.089221
H	 3.0871995197	-2.527123176	-3.2740645584	 0.122127
H	 3.1927568159	-1.9040858489	-1.6106400701	 0.117391
H	 1.8596434595	-4.9864101891	-0.5918625304	 0.215065
H	 0.8728689836	-6.0231537998	-2.3304870381	 0.130047
H	-0.2817256632	-5.0737314407	-1.3501359195	 0.131361
H	-0.5675128433	-5.3019524628	-3.0972557659	 0.143712
