18
gdb 125626	2.20092	1.59134	0.96507	2.2537	75.61	-0.1979	0.0404	0.2383	1204.6463	0.148951	-435.288063	-435.278794	-435.27785	-435.321871	34.297	
C	-0.1639940119	 1.5261367451	-0.1797917951	-0.496922
C	-0.0708196381	 0.0416724944	-0.0113116338	 0.270534
N	-0.0834085664	-0.7512281566	-1.0756564765	-0.30876
N	 0.0127142385	-2.0116822125	-0.5574484977	-0.270453
C	 0.0840422851	-2.0229241308	 0.7932573088	 0.329241
N	 0.1316177164	-3.1809636867	 1.5590723329	-0.607202
C	 0.0318273138	-0.6958810532	 1.2002406642	 0.048574
C	 0.0794570107	-0.2313516802	 2.6192929882	-0.205498
O	 1.0725859938	-0.9292411988	 3.3906884492	-0.416845
H	 0.6737665226	 2.0419657474	 0.3036727952	 0.11972
H	-0.1537568056	 1.7754075416	-1.2428651064	 0.140039
H	-1.0852754542	 1.9273456588	 0.2577367659	 0.126268
H	 0.0010517314	-2.7986726563	-1.1826049919	 0.263393
H	 0.6512081897	-3.9407363246	 1.1386002008	 0.24335
H	 0.4887492905	-2.9701038466	 2.4848835588	 0.264763
H	 0.2447520625	 0.8547931213	 2.6610290948	 0.100559
H	-0.8581586939	-0.4308810757	 3.1522946941	 0.119194
H	 1.913543415	-0.7972834766	 2.9384932184	 0.280045
