15
gdb 55888	3.54769	0.89427	0.77865	2.0143	66.63	-0.2643	-0.0066	0.2577	1401.6108	0.111173	-453.964927	-453.955761	-453.954816	-454.000423	31.774	
N	-0.0781168419	 1.2231692843	 0.435162943	-0.523527
C	 0.0943614712	-0.0373122268	-0.0456204088	 0.425359
O	 1.1877498951	-0.5294296406	-0.2444168357	-0.357506
C	-1.2005906882	-0.7889841348	-0.3730526505	-0.36832
C	-1.0368130618	-2.262794204	-0.1008188073	 0.095745
O	-1.4197256967	-2.7326389381	 1.19240932	-0.230346
C	-2.1891513755	-3.1723702565	 0.0719691391	-0.115352
C	-3.5477971457	-2.6784266748	-0.0147090647	 0.303088
N	-4.6336270754	-2.2921153353	-0.1035498798	-0.328735
H	 0.7415106009	 1.7564289449	 0.6769280809	 0.267503
H	-0.9816492118	 1.5877932972	 0.6801745169	 0.266353
H	-2.0625809468	-0.3975693003	 0.173383378	 0.131114
H	-1.3949021867	-0.6413345634	-1.4431693153	 0.152532
H	-0.1121075486	-2.6938291068	-0.4790041147	 0.138188
H	-2.0794877381	-4.2243174751	-0.1847366213	 0.143906
