18
gdb 77180	3.24294	1.12855	0.94735	3.3011	74.25	-0.2483	0.0147	0.2631	1253.5312	0.148334	-435.220102	-435.211359	-435.210415	-435.253983	32.336	
O	 0.515027575	 0.9210548766	 0.4651838584	-0.435063
C	 0.1840394374	-0.3464645697	-0.0307989141	 0.043451
C	-1.3464269131	-0.6631438358	-0.1525587176	-0.012303
N	-1.081696118	-1.0122138067	-1.5739038016	-0.357221
C	 0.2024789453	-0.4685311709	-1.5515171785	 0.347089
N	 1.0673880009	-0.0698790729	-2.3811420092	-0.554122
C	-1.9232321448	-1.7703366145	 0.6911375786	-0.000461
C	-2.9059922781	-2.7290142994	 0.1319901438	-0.24467
N	-1.5356024089	-3.1665773162	 0.454784124	-0.316099
H	 1.1448267908	 1.3032481048	-0.1588740511	 0.301708
H	 0.7310614884	-1.1444591215	 0.488177463	 0.107279
H	-1.9200399007	 0.2633229219	-0.0357643027	 0.098135
H	-1.7385099143	-0.8893999705	-2.3339314844	 0.24306
H	 0.7608563446	-0.1637951333	-3.3506235835	 0.216156
H	-1.9997487796	-1.5073599437	 1.7448223389	 0.104828
H	-3.6863920146	-3.1427371255	 0.7638747764	 0.12252
H	-3.1771686723	-2.6278736029	-0.9162412506	 0.10102
H	-1.0021413179	-3.2089091997	-0.4129950698	 0.234691
