21
gdb 84842	2.19898	1.81313	1.20302	1.0815	83.37	-0.2385	0.025	0.2634	1106.9173	0.182963	-387.09577	-387.087179	-387.086235	-387.128353	34.482	
C	-0.9823834764	 1.0232430732	 0.0619971357	-0.40551
C	 0.0939525913	-0.0649751252	-0.0989169344	-0.095958
C	 1.0434031319	 0.257119199	-1.2265150441	-0.039511
C	 2.344103499	-0.0291601684	-1.2295726126	-0.087741
C	 3.0558896579	-0.7166375049	-0.0957759587	-0.280195
C	 2.2817893757	-0.67237213	 1.2087452281	-0.078982
C	 1.8047856316	 0.6586936555	 1.7647615597	-0.353881
C	 0.8197355817	-0.3437932954	 1.2128982952	 0.414586
O	 0.0631827581	-1.0774901611	 2.1445712994	-0.481315
H	-0.5332509407	 1.9840306735	 0.3340737206	 0.120633
H	-1.5397516754	 1.1622393662	-0.8699695394	 0.114441
H	-1.7077993231	 0.7533842089	 0.8370729243	 0.101251
H	-0.4248467179	-1.002401038	-0.3520725973	 0.094762
H	 0.6002506749	 0.7393185529	-2.0956913656	 0.080552
H	 2.9443219756	 0.2215815231	-2.1008691497	 0.085198
H	 3.2396380863	-1.7650282625	-0.3741404736	 0.114696
H	 4.0523592626	-0.2742145049	 0.0418053467	 0.105141
H	 2.5791148454	-1.4021508854	 1.9549621681	 0.092816
H	 1.8286886016	 0.7860234237	 2.8412494076	 0.106613
H	 2.011433104	 1.5535816872	 1.1864554742	 0.112893
H	-0.5964188842	-0.4856208675	 2.5221124461	 0.279513
