16
gdb 80283	2.54615	1.65883	1.36564	3.8331	65.76	-0.2468	0.0483	0.2952	992.6149	0.123238	-475.015055	-475.006834	-475.00589	-475.047769	30.724	
C	-0.2043161181	 1.3893525302	-0.0205405672	-0.473891
C	 0.0856260089	-0.0799510002	 0.020593545	 0.308399
O	-0.9700598983	-0.8901958149	-0.4709822598	-0.270394
C	-1.0453999667	-2.0473837247	 0.2508665477	 0.48514
N	-1.8811058541	-2.9436874886	-0.0166479848	-0.572004
O	-0.1050655525	-2.05067681	 1.2420325352	-0.241759
C	 0.6859556934	-0.891509034	 1.1353779571	-0.030636
C	 1.4457259594	-0.7220683086	-0.1754761996	 0.019585
O	 1.6048383723	-1.8105482652	-1.017691512	-0.4181
H	 0.6431851605	 1.9507814576	 0.3817447528	 0.130495
H	-0.3762389775	 1.722366835	-1.0488559007	 0.14215
H	-1.092427705	 1.6261762017	 0.5730336793	 0.141252
H	-1.7764733724	-3.7265182463	 0.6237529651	 0.237119
H	 1.0389169752	-0.5165315525	 2.087485586	 0.125115
H	 2.2997344551	-0.0472917863	-0.1317883173	 0.109006
H	 0.9461478901	-1.7550451131	-1.7201339066	 0.308522
