18
gdb 59014	3.62959	1.0875	0.86601	2.9353	75.6	-0.2277	-0.0046	0.2231	1320.8474	0.148013	-435.295832	-435.286872	-435.285928	-435.32985	33.277	
C	 0.0229606253	 1.527418544	 0.5151795409	-0.399588
C	-0.0831660402	 0.1109380517	-0.0350281837	 0.019785
O	 0.7590630546	-0.820628333	 0.6467822371	-0.431808
C	-1.5078999793	-0.3979722665	-0.0517022617	 0.350554
N	-2.5668526916	 0.317818588	-0.0870322872	-0.316686
C	-3.6914584134	-0.6273420114	-0.1338010442	-0.239843
C	-3.0863111016	-2.0300932265	-0.0786806788	 0.378013
N	-3.725519327	-3.1268059863	-0.054252639	-0.552209
N	-1.7158694477	-1.7731187702	-0.0641805945	-0.36699
H	 1.056219167	 1.8765172206	 0.4495451306	 0.123448
H	-0.6290932878	 2.2001085609	-0.045296751	 0.154049
H	-0.2990327435	 1.5593090961	 1.5620017717	 0.117716
H	 0.2813992512	 0.0935876888	-1.0704504593	 0.121723
H	 0.617235846	-0.7023585573	 1.593130767	 0.286478
H	-4.3784442406	-0.4583030343	 0.7019186626	 0.14298
H	-4.2713203047	-0.4896139059	-1.0533012573	 0.144193
H	-3.0978677993	-3.9319084792	-0.0232625366	 0.206916
H	-0.9765578873	-2.4434723896	 0.0673423935	 0.261268
