23
gdb 75434	2.4464	1.34423	1.06819	1.3592	87.95	-0.2249	0.0369	0.2618	1268.1762	0.205092	-388.324395	-388.31477	-388.313826	-388.357937	37.881	
C	-0.0559456556	 1.5474033502	 0.0532179785	-0.477667
C	 0.0009704006	 0.0466415366	-0.0397112127	 0.319776
C	-0.0465801196	-0.6029268709	-1.2043719244	-0.127391
C	 0.0024756619	-2.0999566496	-1.3387571977	-0.259284
C	-0.3024231189	-2.8086383797	-0.0134612401	-0.20523
C	 0.4779202908	-2.1818192946	 1.1483173396	 0.343373
C	 0.2183687958	-2.9241563052	 2.4635953225	-0.42855
O	 1.8583717469	-2.3168801695	 0.7856338153	-0.46565
C	 0.1027859331	-0.6914699124	 1.2766498138	-0.31099
H	 0.8501286278	 1.9523876317	 0.5234966336	 0.116561
H	-0.1616785064	 2.009114016	-0.9322569309	 0.118239
H	-0.8992850648	 1.8773985019	 0.6748258326	 0.116582
H	-0.109430655	-0.0286045552	-2.1269303961	 0.070342
H	-0.7060108361	-2.4299951096	-2.1087960133	 0.092139
H	 0.997102457	-2.4012314634	-1.6930024555	 0.123274
H	-1.3729290461	-2.7355664501	 0.2113635297	 0.092988
H	-0.0545835257	-3.8731139083	-0.0825827388	 0.094916
H	 0.5625361958	-3.9592797387	 2.3836401782	 0.119917
H	 0.7577754396	-2.4485118344	 3.292155883	 0.099295
H	-0.8459649033	-2.9284674338	 2.7203241372	 0.111885
H	 2.3860560675	-1.8848982231	 1.4653698648	 0.272967
H	 0.8469311599	-0.1972326348	 1.9208728368	 0.081412
H	-0.8479145053	-0.5964244131	 1.8225733642	 0.101096
