18
gdb 44366	3.10359	1.63379	1.39569	1.6361	74.	-0.2378	-0.0174	0.2204	964.8103	0.150059	-401.93686	-401.929903	-401.928959	-401.968293	28.06	
O	 0.0261968861	-0.1207631636	-0.1500585166	-0.314567
C	 0.0137574678	 1.0768507826	 0.0038802407	 0.373137
C	-1.2876896111	 1.8555504065	 0.169457686	-0.331256
C	-1.185272332	 3.1727431539	 0.9216453157	-0.015384
C	-0.5734356142	 3.3839693484	 2.2509951484	-0.033327
C	 0.6091922228	 2.464444525	 2.5255379014	-0.281198
C	 1.1806853517	 2.9500366806	 1.1626811613	 0.019577
C	 1.2697932456	 1.9281389995	 0.0318872239	-0.303323
N	 0.0642552224	 3.9615832289	 0.9873627618	-0.164265
H	-1.631327993	 2.0754040011	-0.8519024508	 0.138446
H	-2.0388036892	 1.1924241976	 0.6098850466	 0.133678
H	-2.0266524658	 3.8351797717	 0.7277894929	 0.100402
H	-1.037667981	 4.0312499858	 2.9888677612	 0.096277
H	 1.2137747139	 2.7978895505	 3.3702915743	 0.116584
H	 0.3983530265	 1.3972001001	 2.6493211932	 0.117586
H	 2.1239292802	 3.4887771017	 1.2665230056	 0.0926
H	 2.1400358005	 1.2739880395	 0.1329080425	 0.124576
H	 1.3554786888	 2.4666363102	-0.9221498882	 0.130458
