16
gdb 29482	3.32608	1.64012	1.10599	2.0206	78.02	-0.1833	0.0254	0.2087	1047.781	0.127793	-396.984431	-396.97694	-396.975996	-397.016102	28.947	
C	-0.0180282438	 1.5554776309	-0.0197517655	-0.516067
C	-0.0063444232	 0.0590131157	 0.023332319	 0.11331
C	-0.0285014686	-0.7988776781	-1.063676852	-0.144453
N	-0.0082732986	-2.1237605207	-0.6544348921	-0.398553
C	 0.0273713345	-2.1274215385	 0.715417232	 0.352141
C	 0.0292541197	-0.8120432445	 1.150189981	 0.252126
N	 0.0660757479	-0.9254830104	 2.5288620496	-0.41619
C	 0.0829059414	-2.2754456875	 2.8069613717	-0.010977
N	 0.0603200659	-3.0387851423	 1.7288534574	-0.358909
H	 0.8741926055	 1.9877262967	 0.450421112	 0.119956
H	-0.0494383469	 1.9143516232	-1.0525149799	 0.123668
H	-0.8885790829	 1.9752900028	 0.4997029057	 0.119901
H	-0.0576963565	-0.5537079414	-2.114055536	 0.114945
H	-0.0184145551	-2.9257176445	-1.2580629316	 0.26309
H	 0.0783583935	-0.1874587849	 3.2103984757	 0.261719
H	 0.1119725769	-2.6394206465	 3.8230637528	 0.124294
