19
gdb 114565	2.65777	1.1957	0.96277	3.4241	81.73	-0.2508	0.0098	0.2606	1283.7596	0.159783	-382.047727	-382.038976	-382.038032	-382.081358	32.752	
C	 0.0683306261	 1.5265440693	-0.1117423187	-0.384626
C	-0.0082728406	 0.0225421033	 0.1698328201	-0.199533
C	-1.4201686818	-0.5309420076	 0.0302573756	-0.036162
C	-2.0845935244	-0.6161015742	-1.3969796022	-0.237699
C	-2.2549555925	-2.124307883	-1.2021294173	-0.108664
N	-0.9055882903	-2.6784516327	-1.0108500267	-0.35815
C	-1.6065805703	-2.0600082538	 0.1508517677	 0.225685
C	-1.8879440296	-2.8076950855	 1.3297782967	 0.172829
N	-2.1155985983	-3.3974711577	 2.3002496095	-0.347143
H	 1.0930621051	 1.8939301151	-0.0035661808	 0.118941
H	-0.261025806	 1.7604012389	-1.130036611	 0.118447
H	-0.5638290841	 2.094899201	 0.5796175036	 0.115615
H	 0.6529959521	-0.524709249	-0.5098208148	 0.120995
H	 0.3502198482	-0.1795069387	 1.1874575896	 0.105778
H	-2.1020834671	-0.0280242026	 0.7225838642	 0.091993
H	-3.0298196989	-0.0744271366	-1.4549500044	 0.115187
H	-1.4490393967	-0.3425240732	-2.2422304635	 0.118737
H	-3.0760911777	-2.7538946484	-1.5211987212	 0.119783
H	-0.9913055232	-3.6903830247	-0.9134425962	 0.247988
