21
gdb 82236	2.34797	1.90988	1.36708	1.9183	79.93	-0.2418	0.0719	0.3137	1026.335	0.18489	-387.069981	-387.06231	-387.061366	-387.101942	31.034	
C	-0.6849318703	 1.4147055547	-0.1176333782	-0.397473
C	-0.0458193337	 0.0228903945	-0.0517245603	-0.008531
C	 0.8571679068	-0.3226358752	-1.2402255833	-0.041121
C	 2.1707650092	 0.3887164992	-1.4123390522	-0.288158
C	 2.1417743469	-0.9655864373	-0.7474788991	-0.054706
C	 2.1190016222	-0.9533273543	 0.7724905153	 0.10626
O	 2.9160269368	 0.0851412225	 1.4029066524	-0.292089
C	 1.7376911151	 0.7950061491	 1.8360510364	-0.092917
C	 0.7996202691	-0.2655150504	 1.2162853321	-0.08905
H	 0.0703923864	 2.2038445258	-0.1782240294	 0.119324
H	-1.3230128175	 1.5046066299	-1.0026945177	 0.114469
H	-1.3075667193	 1.6097831808	 0.7622135868	 0.110957
H	-0.8615408905	-0.7117134537	-0.0569443122	 0.074426
H	 0.3707529281	-0.6928405599	-2.1372740787	 0.0797
H	 2.5783868324	 0.439111837	-2.4160178114	 0.108587
H	 2.4176167838	 1.2444426641	-0.7945763122	 0.125748
H	 2.5859233982	-1.8127117192	-1.2572796577	 0.079736
H	 2.3572867795	-1.9350976261	 1.1947062541	 0.071869
H	 1.6898602592	 0.8660052348	 2.9297441393	 0.098062
H	 1.6876964898	 1.8085204018	 1.4190060231	 0.096755
H	 0.2139807878	-0.7985203182	 1.9670465527	 0.078154
