18
gdb 88239	4.18428	0.73395	0.67145	0.7258	85.	-0.2355	0.0219	0.2574	1676.5036	0.14681	-401.869782	-401.860462	-401.859517	-401.905701	33.44	
O	-0.0000963256	 1.3855087056	-0.1059444842	-0.42634
C	-0.0083023991	 0.0023245968	 0.0143035422	 0.149125
C	-0.3852723952	-0.6543102983	 1.3064026407	-0.313763
C	-1.3363699222	-0.744815644	 0.1064781626	-0.235244
C	-2.5316149108	 0.0415888125	 0.0940291969	 0.01759
C	-3.4978128799	 0.7684340093	 0.0554349392	 0.129181
C	-4.6903168805	 1.5676973793	 0.0363845899	-0.161812
C	-4.733705927	 2.8293379598	-0.7657534498	-0.22745
N	-5.5022091365	 1.6632518876	-1.203950042	-0.303033
H	-0.9191525234	 1.6824746046	-0.1538397293	 0.286528
H	 0.7685973405	-0.4617950865	-0.5867561833	 0.107678
H	 0.1199692034	-1.5660201258	 1.6055723117	 0.120549
H	-0.6889625798	-0.0029411806	 2.1174856255	 0.131139
H	-1.3959832887	-1.7056749389	-0.3956356414	 0.116089
H	-5.2993942228	 1.5201030083	 0.9356504937	 0.118658
H	-5.3285235664	 3.6625963729	-0.4027610981	 0.128019
H	-3.83571233	 3.105999705	-1.3104062544	 0.121762
H	-5.006028166	 1.1885325126	-1.9546648798	 0.241323
