17
gdb 41331	2.95754	1.94613	1.77199	1.1448	71.39	-0.2409	0.0008	0.2417	848.7239	0.138017	-421.744068	-421.737855	-421.736911	-421.774167	26.626	
C	 0.0245664748	 1.5180704384	-0.0879742287	-0.187579
O	 1.4642091791	 1.4838887133	 0.2173441552	-0.312387
C	 1.2338534775	 0.222538422	 0.9207020457	 0.148731
C	 1.7453988965	-1.2204332181	 0.7613082013	-0.20072
C	 0.3625311393	-1.8400176849	 1.2935927626	-0.088475
O	-0.7132173604	-1.0150942258	 0.7390633514	-0.34035
C	 0.0447969704	-0.0170905223	 0.0352446321	 0.349723
C	 0.6662219988	-0.6912778644	-1.1831011688	-0.131969
C	 1.6942082697	-1.417567456	-0.7389963716	-0.060443
H	-0.5362859507	 2.0403527115	 0.6962974963	 0.113719
H	-0.1696362008	 1.9555754022	-1.0704294963	 0.115217
H	 0.9880579614	 0.4538929162	 1.9641780105	 0.083311
H	 2.6152669558	-1.5813098803	 1.3090446114	 0.077392
H	 0.2409749161	-2.870021012	 0.9488900558	 0.116262
H	 0.2990508621	-1.805617044	 2.3869969324	 0.111346
H	 0.2580031684	-0.6383420172	-2.1842300056	 0.102054
H	 2.3280807421	-2.0935733985	-1.2981115538	 0.104167
