14
gdb 18332	3.50623	2.28262	1.62506	2.5505	56.86	-0.2403	-0.0446	0.1956	769.6116	0.107674	-419.661265	-419.654783	-419.653839	-419.692371	23.754	
O	-0.0302177547	 0.0731415451	 0.2240269079	-0.288696
C	-0.018206141	 1.2575556484	 0.0305289659	 0.386251
C	-1.2294176686	 2.1931623532	-0.0261635505	-0.199045
O	-0.8046421358	 3.3617687126	-0.7146557567	-0.267861
C	 0.6064780609	 3.4993915209	-0.6264718599	 0.067054
C	 1.1594131342	 4.0296611425	 0.7128818541	-0.101961
O	 1.6260807168	 2.7061504653	 1.0825666808	-0.289985
C	 1.2067626942	 2.1524813777	-0.1899459482	-0.02437
H	-2.0601120878	 1.7355497009	-0.5695488845	 0.144881
H	-1.5677691932	 2.4167297747	 0.997707646	 0.133172
H	 0.9546556295	 3.9865746233	-1.5369624899	 0.106038
H	 1.9929619669	 4.7368013941	 0.6321486917	 0.11406
H	 0.4062218064	 4.4215006521	 1.4048408448	 0.118227
H	 2.0169589122	 1.6732680991	-0.7435319015	 0.102236
