14
gdb 52646	1.98244	1.17703	0.82687	2.5322	73.07	-0.2739	-0.101	0.1729	1374.9572	0.097094	-436.668811	-436.658707	-436.657763	-436.706399	33.146	
C	 0.120770072	 1.4522642575	-0.0114653166	-0.499456
C	 0.0386372031	 0.0008143346	 0.0064817271	 0.051144
C	-0.0314495072	-1.2012280673	 0.0376688237	 0.081126
C	-0.1082256987	-2.6671996494	 0.0292468839	-0.123363
O	-1.4087480406	-3.1832146953	 0.0499344716	-0.399694
C	 0.6167678472	-3.1344653764	-1.2445747121	 0.277515
O	 0.0273608547	-3.6663445182	-2.1505711069	-0.281401
C	 2.059264149	-2.8702335077	-1.307071034	 0.257694
N	 3.2018427715	-2.6951080872	-1.3294887746	-0.292185
H	 1.164839921	 1.7825555429	-0.0025332869	 0.163738
H	-0.3548651443	 1.8651844653	-0.9070622604	 0.159609
H	-0.37506439	 1.8844506966	 0.8640646844	 0.161403
H	 0.4373875183	-3.067257822	 0.8965284941	 0.14319
H	-1.644803316	-3.3774860535	-0.8694999434	 0.300681
