20
gdb 52328	3.98691	0.8739	0.80932	2.102	75.71	-0.2525	0.0261	0.2786	1448.6574	0.172535	-440.314746	-440.305647	-440.304702	-440.350192	32.418	
O	 0.4582709411	 0.9706676159	 1.2185288011	-0.324839
C	 0.2077662486	 1.3924328234	 0.1082627767	 0.149461
N	 1.1045370494	 1.4693079122	-0.9085775268	-0.270404
C	 2.4807151367	 1.0120511539	-0.7662406646	-0.175946
C	 3.3821681822	 1.9905408311	 0.0070552274	 0.015859
C	 4.8317439864	 1.4429963125	 0.1088310002	-0.259465
C	 5.6372758482	 2.3426513998	-0.8626990125	-0.069991
O	 4.6774500938	 3.0508135223	-1.6375484081	-0.245706
C	 3.5919881229	 3.3064366923	-0.7597712522	-0.094489
H	-0.7947946464	 1.75969482	-0.1901117154	 0.075415
H	 0.7917398193	 1.8282880404	-1.7953702446	 0.252096
H	 2.4666162723	 0.0495878667	-0.2454852056	 0.131304
H	 2.8877779399	 0.8525883898	-1.7694108118	 0.115276
H	 2.9367664504	 2.1576047431	 0.9896673457	 0.104182
H	 5.2201424202	 1.5072019119	 1.1276365476	 0.109677
H	 4.8757720349	 0.3904957429	-0.1876830536	 0.10645
H	 6.2671905064	 3.0500774081	-0.3008165815	 0.091484
H	 6.2791271301	 1.7872825275	-1.5512769071	 0.108107
H	 2.7315612978	 3.6113391843	-1.3620269613	 0.0937
H	 3.8344714957	 4.128681052	-0.0662219036	 0.087827
