19
gdb 78746	3.03168	1.57131	1.24104	1.3554	74.69	-0.227	0.0761	0.3031	1047.8268	0.159579	-422.994847	-422.987037	-422.986093	-423.026636	31.332	
C	-0.0328646485	 1.4222590354	-0.030643694	-0.476641
C	 0.0316080552	-0.0757215762	 0.049261566	 0.455109
O	-1.1746730858	-0.7011495488	-0.3678672635	-0.311365
C	-1.2915198856	-1.9291528665	 0.3598060669	-0.096724
C	 0.1320098422	-2.228450976	 0.8185814825	-0.124074
C	 0.6965023982	-0.8190503875	 1.153290814	-0.154445
C	 1.3427441181	-0.7917555231	-0.2421448123	-0.138382
C	 1.095143889	-2.2809549739	-0.4178340507	 0.13234
O	 2.3001488668	-2.9769161547	-0.1665318308	-0.444754
H	 0.913916029	 1.8684315353	 0.2862477516	 0.121285
H	-0.2356837505	 1.7436655386	-1.0571133235	 0.130924
H	-0.8325443352	 1.8068153526	 0.6097575508	 0.125003
H	-1.9788545518	-1.8066290091	 1.2106288584	 0.09232
H	-1.6994621462	-2.6907929823	-0.3143486045	 0.101685
H	 0.2457425962	-3.0375387279	 1.5395653356	 0.071841
H	 1.0233991903	-0.4254434188	 2.1068256131	 0.086753
H	 2.2307984608	-0.2684593922	-0.5792953159	 0.086062
H	 0.6407005484	-2.6077487548	-1.3658558687	 0.063753
H	 2.1062242995	-3.9197626902	-0.188195585	 0.27931
