20
gdb 10428	2.55104	1.82418	1.35422	2.6148	75.	-0.2451	-0.0194	0.2256	1016.5496	0.175885	-349.009667	-349.000839	-348.999895	-349.043476	32.169	
C	 0.0572435189	 1.7848948679	-0.2134104186	-0.393494
C	 0.1048128401	 0.2906663962	 0.1330406918	-0.257791
C	-1.2240483027	-0.4712853702	-0.0116195041	 0.245332
C	-1.8265830691	-0.5624428369	-1.4611019491	-0.265032
C	-2.0843056288	-2.0741188198	-1.2233448585	-0.209431
C	-1.1583492162	-2.0235765937	 0.0217398982	-0.267485
C	-2.2791578316	 0.0738517728	 0.9269560444	 0.115761
O	-2.8790393111	-0.5656743007	 1.7549104136	-0.255565
H	 1.0650366552	 2.2106405266	-0.1970058437	 0.119837
H	-0.3537684761	 1.9481293636	-1.2154086733	 0.121819
H	-0.5489220015	 2.3591211635	 0.4930694551	 0.123272
H	 0.8301498588	-0.2021891255	-0.5260515081	 0.101005
H	 0.4847416747	 0.1574390587	 1.1545098492	 0.107663
H	-2.6914025517	 0.0689813821	-1.6868810831	 0.101558
H	-1.0583411877	-0.3741225754	-2.2171116868	 0.103837
H	-3.1231486453	-2.2781525592	-0.9533818052	 0.116595
H	-1.7967513885	-2.750533805	-2.0306982568	 0.099625
H	-0.1494035558	-2.3897260566	-0.1858497504	 0.093433
H	-1.5326516025	-2.4863380894	 0.9356731053	 0.122513
H	-2.5035452192	 1.1555628708	 0.7842718904	 0.076549
