21
gdb 114665	3.28082	1.17292	1.06288	1.9204	78.65	-0.2443	0.0771	0.3215	1229.5781	0.183431	-424.199281	-424.190795	-424.189851	-424.232166	33.2	
C	-0.0184958796	 1.2939594879	-0.1415597404	-0.238461
O	-0.0342224403	-0.059607359	 0.2443641974	-0.250252
C	-1.3065842805	-0.6654221822	 0.1406181635	 0.14814
C	-1.7243572238	-1.0509935291	-1.3271372392	-0.261807
C	-1.8218805995	-2.5762039227	-1.152652492	-0.069822
C	-2.5827574624	-2.6956570149	 0.2014267181	-0.239316
C	-1.2729157158	-2.0649867473	 0.7630803266	-0.064511
C	-0.5252149994	-2.8741812636	-0.3309692608	 0.158605
O	-0.3505517417	-4.2173921654	 0.0673443634	-0.450756
H	 0.9964096071	 1.6665622035	 0.0180266894	 0.125781
H	-0.279950182	 1.4307267615	-1.2020401766	 0.10413
H	-0.7165268038	 1.8957170718	 0.4623260203	 0.102772
H	-2.056836964	-0.0229831491	 0.6258482201	 0.06175
H	-2.6716438434	-0.6012337504	-1.6377410852	 0.096122
H	-0.9490080109	-0.7515182078	-2.0393292506	 0.101755
H	-2.0907684142	-3.1711070964	-2.0277502749	 0.051983
H	-3.5146335677	-2.133451253	 0.3150366084	 0.083365
H	-2.7101661169	-3.7263656411	 0.5260530318	 0.117058
H	-0.9857868381	-2.1327100876	 1.8115480755	 0.070053
H	 0.411001252	-2.4437810891	-0.706533109	 0.071686
H	-0.0910568449	-4.7231169463	-0.7089710159	 0.281726
