18
gdb 72980	2.65285	1.49739	1.21509	5.8127	77.09	-0.2353	0.0327	0.268	1074.9941	0.147947	-398.095652	-398.086642	-398.085698	-398.128856	34.291	
N	-0.058628634	 1.467015723	 0.0489929223	-0.579732
C	-0.0482339918	 0.0515036892	-0.035669743	 0.292391
C	 0.6511391443	-0.8222994118	-1.098162309	-0.308546
C	-0.5479381085	-1.8229766609	-1.0502783921	-0.250798
C	-1.239256201	-0.9216943218	-0.0273923097	-0.119506
C	-0.3344834928	-0.7737857268	 1.204255102	 0.097792
N	 0.5831179168	-1.7605840199	 1.7206957451	-0.57293
C	-0.9737152413	-0.0365112997	 2.2791604888	 0.299174
N	-1.4916272169	 0.4925587551	 3.1670280102	-0.351027
H	 0.7647462568	 1.828630927	 0.5190073096	 0.242963
H	-0.1187837147	 1.8964211317	-0.8677310949	 0.233278
H	 0.6959513819	-0.2948369429	-2.0547699093	 0.110011
H	 1.6564566109	-1.1996954976	-0.8773869383	 0.098417
H	-1.0844095509	-1.8871922441	-1.9982279331	 0.115816
H	-0.3183835794	-2.8368454671	-0.7093765537	 0.096989
H	-2.2983423857	-0.7078608178	 0.0448490091	 0.111912
H	 0.0924425345	-2.595701008	 2.0232326516	 0.242865
H	 1.2710134717	-2.0307813974	 1.0297148742	 0.240932
