22
gdb 121748	5.06631	0.54821	0.53568	2.5953	82.	-0.2424	0.0338	0.2762	2170.3502	0.191917	-441.513439	-441.502013	-441.501069	-441.552946	38.523	
C	-0.640297948	 1.1046154282	-0.4827726609	-0.371997
C	 0.4822360663	 0.2445627573	 0.1015426616	-0.143995
N	 1.2202041677	-0.4885558597	-0.9148042298	-0.319408
C	 1.1652146802	-1.846545628	-1.0411191073	 0.41918
O	 0.4939520082	-2.5553040351	-0.3090778627	-0.380703
C	 2.0346546349	-2.4196609448	-2.1558406087	-0.337065
C	 1.4560109472	-3.715379399	-2.7090417132	-0.042378
O	 2.3682172776	-4.2274172249	-3.6570299174	-0.236059
C	 1.9395283601	-5.4437283385	-4.2192513391	-0.228431
H	-0.2499872603	 1.846378298	-1.1885795203	 0.109946
H	-1.3687237153	 0.4828242713	-1.0110532903	 0.132333
H	-1.1612778745	 1.6448573288	 0.3140481071	 0.120305
H	 1.1784288381	 0.8697369366	 0.6746753672	 0.104933
H	 0.0768580679	-0.5098614219	 0.7787613429	 0.151248
H	 1.7710790322	 0.0327981998	-1.5773004233	 0.241539
H	 2.1753377463	-1.6958216278	-2.9659980589	 0.105243
H	 3.0294961908	-2.6297242089	-1.7437221494	 0.138224
H	 1.2911867441	-4.4253493859	-1.886556844	 0.115314
H	 0.4741954607	-3.5301749727	-3.1764606964	 0.089341
H	 1.8130916219	-6.2261955784	-3.454294972	 0.105829
H	 0.9824353287	-5.3331411209	-4.7540780546	 0.102491
H	 2.7049980252	-5.7648712234	-4.9301234905	 0.124112
