20
gdb 93812	2.93681	1.27434	0.94424	3.2121	76.28	-0.2269	-0.0279	0.199	1255.8304	0.171327	-440.303072	-440.294359	-440.293415	-440.336239	33.434	
C	-0.0113217147	 1.4501344378	 0.0246181518	-0.317642
N	-0.024092128	-0.0030497488	 0.0072576208	-0.068122
C	-1.3603503509	-0.5491365895	-0.2137590142	-0.154088
C	-1.2985308036	-2.0624227189	-0.4253372015	-0.232066
C	-0.6730561512	-2.7517836885	 0.7968601312	 0.055573
O	-0.4934125588	-4.12493033	 0.6019456317	-0.442456
C	 0.6444834515	-2.0713307636	 1.136399402	 0.370237
O	 1.6402744576	-2.7292668242	 1.3438657848	-0.328813
C	 0.6112330833	-0.5542370926	 1.2020360902	-0.248946
H	 1.0174116112	 1.8108114584	 0.1209759435	 0.124346
H	-0.4198415311	 1.8331638322	-0.9153232712	 0.123616
H	-0.6024621751	 1.8791387443	 0.8564442748	 0.095228
H	-2.0434174167	-0.3118589963	 0.6286082609	 0.077744
H	-1.7792886274	-0.0676861684	-1.1030746896	 0.108969
H	-2.2994636411	-2.4693608764	-0.59695291	 0.112274
H	-0.6882822025	-2.2888537395	-1.3056763738	 0.119544
H	-1.3369105656	-2.5672394697	 1.6640347431	 0.08831
H	 0.4278889125	-4.3001366823	 0.8527686343	 0.291575
H	 1.6385983914	-0.189741762	 1.2815522529	 0.129645
H	 0.0787532092	-0.2628714617	 2.1343961583	 0.095073
