18
gdb 68532	2.65298	1.988	1.70353	1.3172	73.68	-0.2232	0.0134	0.2366	890.554	0.149184	-401.901862	-401.895006	-401.894061	-401.932491	29.059	
C	-0.0323872901	 1.503130794	-0.0150295725	-0.506583
C	 0.0287038978	-0.0092695808	 0.0298704132	 0.212688
N	 0.7542647475	-0.6427025017	-1.1238745486	-0.306269
C	 0.5424820809	-2.0386970784	-0.6349157557	-0.13435
C	 1.1132697946	-1.8957518156	 0.7657372717	-0.040255
C	 0.7952790535	-0.6680238376	 1.1701139922	-0.061781
C	-1.030284842	-2.0926701635	-0.5092933867	 0.020874
O	-1.5811692317	-1.8714507288	 0.795513832	-0.232072
C	-1.3717183161	-0.7462471767	-0.0658258792	-0.000233
H	 0.9735553504	 1.9243453319	-0.0881296838	 0.135068
H	-0.6098436567	 1.8510811569	-0.8791286257	 0.112681
H	-0.5114150027	 1.8993949275	 0.8859952606	 0.124073
H	 0.1923727831	-0.5064342789	-1.9683250622	 0.199797
H	 0.9710100667	-2.8041665458	-1.2811419941	 0.067284
H	 1.5848402399	-2.6894111293	 1.3275995455	 0.1071
H	 0.949219711	-0.21662063	 2.1406738371	 0.103046
H	-1.6240937997	-2.7048823522	-1.1817900621	 0.101446
H	-2.2602256163	-0.1915141412	-0.3567627517	 0.097486
