16
gdb 26588	2.32147	1.86255	1.04065	6.0093	76.49	-0.21	-0.0301	0.18	1090.2328	0.124782	-437.959584	-437.951303	-437.950358	-437.992212	31.461	
C	-0.0259773783	 1.5268201955	 0.032056253	-0.522661
C	-0.027205109	 0.0213142626	 0.012727906	 0.018461
C	-1.1932884186	-0.7100821485	 0.0438527477	 0.287792
N	-2.4241979239	-0.109222988	 0.1311783159	-0.581098
C	-1.1356079199	-2.1470994059	 0.0308771894	-0.252325
C	 0.0715781949	-2.7364090217	-0.0136198316	 0.088373
O	 1.2220210243	-2.0607752098	-0.0460796386	-0.222431
C	 1.2512492371	-0.6409917008	-0.0327250219	 0.376886
O	 2.3451915657	-0.1350843657	-0.0648318994	-0.360691
H	 1.0025195416	 1.8875140073	 0.0046560825	 0.164773
H	-0.5539847114	 1.9512811909	-0.8336679289	 0.115232
H	-0.5056612335	 1.9247649542	 0.9356800483	 0.125134
H	-2.4867493312	 0.8693290018	-0.0977317952	 0.262721
H	-3.2316172429	-0.653590401	-0.124266597	 0.258551
H	-2.0360386717	-2.7471997819	 0.0628950754	 0.102634
H	 0.225405707	-3.809593959	-0.0278865155	 0.138651
