17
gdb 71411	3.90671	1.32427	1.2796	0.955	71.99	-0.2465	0.0756	0.3221	1024.568	0.135634	-421.744131	-421.736921	-421.735977	-421.775385	29.433	
O	 0.0004241623	 1.3049742769	 0.0922877774	-0.461909
C	 0.0389211114	-0.0677775445	-0.0080535189	 0.392043
C	-0.5901986646	-0.9444721741	-1.0924622186	-0.29873
C	-0.409055915	-2.1100921311	-0.0730073178	-0.192386
C	-0.3035162675	-1.0324202889	 1.0824580895	-0.124606
C	 1.1625355864	-0.8927049665	 0.6638463667	-0.276997
C	 1.1142235892	-2.2534205074	 0.0303029678	 0.542852
C	 1.9156162612	-3.442469183	 0.2935295675	-0.295435
O	 1.9627284065	-2.7645984741	-0.9801251044	-0.290739
H	 0.7057482566	 1.669588337	-0.454245267	 0.288662
H	-1.6443854523	-0.6911575333	-1.2326831231	 0.104846
H	-0.0862166979	-1.047377681	-2.0595828853	 0.103718
H	-1.0659121625	-2.976128874	-0.0880290402	 0.080806
H	-0.7696343697	-0.9304712828	 2.0500526439	 0.104681
H	 1.9600421322	-0.4038497791	 1.2079538771	 0.093749
H	 2.8236505373	-3.3695056737	 0.8911240272	 0.115422
H	 1.4511700165	-4.4280400904	 0.2777326783	 0.114022
