18
gdb 70101	2.48214	1.91903	1.34021	1.2237	76.62	-0.2413	-0.0047	0.2366	989.3391	0.147786	-401.91048	-401.902746	-401.901802	-401.942243	30.867	
C	-0.1016240478	 1.4960545456	 0.0471344104	-0.514373
C	 0.0999242056	 0.0077622813	-0.0268353797	 0.311425
O	-0.493227632	-0.775398329	 1.020516846	-0.297873
C	 0.9515517023	-0.7889345918	 0.876848611	-0.078449
C	 1.4655994598	-1.9533414795	 0.0945086169	-0.109389
C	 0.9666119659	-1.9265501223	-1.1454918956	-0.128514
C	 0.0981121064	-0.7332240178	-1.3574525514	 0.278708
C	-1.0913364494	-0.7101106935	-2.2520775462	-0.276616
N	 0.1501197822	-0.0465104835	-2.665903456	-0.369223
H	 0.6869170504	 2.0345141263	-0.4888297179	 0.130216
H	-1.0684061521	 1.7886712293	-0.3801176442	 0.127043
H	-0.0908925338	 1.8170620025	 1.0910212934	 0.139077
H	 1.4968158377	-0.3675783495	 1.71665123	 0.094454
H	 2.1179654918	-2.7124527076	 0.5065572636	 0.106915
H	 1.124912553	-2.6639703551	-1.9231202068	 0.111313
H	-1.3527246029	-1.5959761184	-2.824142487	 0.123435
H	-1.9402465698	-0.106247032	-1.9396488048	 0.118344
H	 0.0700321327	 0.9592836352	-2.5346925016	 0.233506
