17
gdb 65297	2.67187	1.33557	1.10803	3.2049	73.58	-0.2562	0.0184	0.2746	1127.5802	0.136098	-417.972547	-417.963961	-417.963017	-418.005919	31.739	
N	-0.0570172427	 1.4418618569	 0.0395257484	-0.557386
C	 0.0019271503	 0.0040779449	-0.0010599237	 0.088652
C	-0.5013171174	-0.7312022579	 1.2376877386	-0.378892
C	-1.328393962	-0.7277286706	 0.0031681992	 0.27332
C	-2.6898971891	-0.1051782136	-0.2724583273	-0.130199
O	-3.019041979	-1.1885058676	-1.170609078	-0.273419
C	-1.7745169689	-1.8713931133	-0.9003865094	-0.142666
C	 1.0826466799	-0.609108539	-0.7453674687	 0.238558
N	 1.9454448272	-1.070373458	-1.3644837802	-0.349097
H	 0.7636477182	 1.8222924789	 0.5013884217	 0.247742
H	-0.0800363247	 1.8279243779	-0.8996723791	 0.248094
H	 0.0063614883	-1.6470365892	 1.5201272725	 0.140582
H	-0.8063672745	-0.0902682737	 2.0578817309	 0.138232
H	-3.3676134764	-0.063507511	 0.5897984115	 0.109372
H	-2.6828859409	 0.8697020793	-0.7726231999	 0.112139
H	-1.1777176039	-2.0321431565	-1.8062009059	 0.125227
H	-1.9340870742	-2.8323670175	-0.3947624108	 0.109742
