21
gdb 77472	1.94326	1.48761	1.38528	1.24	79.3	-0.2392	0.0697	0.309	1134.6318	0.180026	-424.197813	-424.187772	-424.186828	-424.231808	37.932	
C	-0.0411753847	 1.5714288622	-0.0247569889	-0.417799
C	 0.1261379771	 0.0665556725	 0.0534353555	-0.124184
C	 1.3779123428	-0.7206213296	-0.2122382405	 0.330021
O	 1.4226354472	-1.7844392721	-1.1014770356	-0.462824
C	 2.6264489798	-0.0002267502	 0.3049164992	-0.350819
C	 1.9994680264	-0.0632572101	 1.7425267961	 0.065866
O	 1.7683526883	 1.1360292086	 2.4561217763	-0.431091
C	 0.7466029928	-0.7382451563	 1.1884211536	 0.267908
C	-0.0094866978	-1.8196599611	 1.9078629973	-0.503471
H	 0.8042579837	 2.104402609	 0.4100619655	 0.13426
H	-0.1641161215	 1.8956970028	-1.0652249801	 0.100229
H	-0.9345745083	 1.8848849404	 0.5262387961	 0.116879
H	-0.734796926	-0.4789871894	-0.3341716475	 0.081807
H	 1.2728982279	-1.4442949366	-1.9901184223	 0.284669
H	 3.5265751852	-0.6128971686	 0.2155027025	 0.10315
H	 2.8267749624	 0.99909196	-0.0948654472	 0.090914
H	 2.5594855315	-0.7752917975	 2.3654137846	 0.07165
H	 2.6144609764	 1.4564832219	 2.7846551426	 0.282903
H	-0.6591997264	-1.4037418983	 2.6867250857	 0.1235
H	-0.6390864517	-2.3839753079	 1.2127833992	 0.123368
H	 0.6733561448	-2.5300554297	 2.3882546476	 0.113064
