21
gdb 116018	2.76592	1.28474	0.94438	3.4439	85.66	-0.2355	-0.0467	0.1888	1295.4067	0.183461	-387.13936	-387.130501	-387.129557	-387.172984	33.749	
C	 0.0759573299	 1.5664512024	-0.1835746389	-0.392257
C	 0.0189573667	 0.0566933269	 0.0719228256	-0.179431
C	-1.4035058568	-0.5213816833	 0.1272585177	-0.086421
C	-1.442921837	-2.0454978462	-0.0952198142	-0.226423
C	-2.8791318425	-2.5815188325	-0.1269279758	-0.273679
C	-3.7012817245	-2.0504201483	 1.0119189859	-0.040461
C	-3.35172431	-0.9723896948	 1.7240690006	-0.133038
C	-2.1353222903	-0.1799990938	 1.4307136504	 0.37548
O	-1.7664372137	 0.7000702957	 2.1850280352	-0.338105
H	 1.1131600185	 1.912079394	-0.2394242172	 0.106746
H	-0.4086856336	 1.8233292903	-1.1329915292	 0.102509
H	-0.4249903327	 2.1123609017	 0.6175200634	 0.146972
H	 0.568983271	-0.4657846509	-0.7210601645	 0.0851
H	 0.5317321148	-0.1748862524	 1.0128687843	 0.105489
H	-2.0028464512	-0.0590538498	-0.6755660519	 0.091823
H	-0.9250856349	-2.2958070263	-1.0271086582	 0.101248
H	-0.8914148994	-2.5404379606	 0.7149717017	 0.108744
H	-3.3670800583	-2.3035353306	-1.0745464331	 0.121122
H	-2.8854039065	-3.6778789364	-0.1080330638	 0.113155
H	-4.6193090266	-2.5819689285	 1.2544274667	 0.106116
H	-3.9421866629	-0.6222834866	 2.5652280254	 0.105312
