15
gdb 8560	3.07944	2.69136	1.76434	2.3084	60.63	-0.2185	0.0476	0.266	745.7233	0.118754	-399.702935	-399.69624	-399.695296	-399.733227	26.867	
O	-0.0636708377	 1.3216060344	 0.1660206791	-0.466988
C	 0.0756209667	-0.0500043156	 0.0284950744	 0.275728
C	 0.9040407634	-0.8964762145	-0.9128507861	-0.24097
N	 0.0187121715	-2.0653380983	-0.5063030443	-0.160884
C	 0.3921387331	-2.2777228294	 0.9586611712	-0.22362
C	-0.2605916833	-0.9512779532	 1.2436591072	 0.347519
O	-0.5791312052	-0.4027672734	 2.4626233707	-0.469877
C	-1.0475087113	-1.0466635359	-0.0433508117	-0.171608
H	 0.7579848013	 1.6725259098	 0.5321392759	 0.291256
H	 0.7369799175	-0.6641754481	-1.9683361514	 0.115629
H	 1.9736817379	-1.0465962048	-0.7247885654	 0.096722
H	-0.1611477567	-3.1353226458	 1.3502027996	 0.117931
H	 1.4644934551	-2.4085061639	 1.1445344551	 0.09769
H	-0.666527525	 0.5517933623	 2.3302599783	 0.282004
H	-2.0815983173	-1.0239785334	-0.3559464725	 0.109469
