15
gdb 31917	6.20682	0.86543	0.76712	5.0334	81.38	-0.2115	-0.0135	0.198	1405.5779	0.112476	-416.80384	-416.795201	-416.794257	-416.837904	31.084	
O	 0.0620503112	 1.3248210738	 0.3514822711	-0.403102
C	 0.0047511297	-0.0392983989	-0.0215159208	-0.204481
C	-1.4300109349	-0.4539177938	-0.0167335993	 0.307964
C	-2.5962261384	 0.2724281979	-0.0918523643	-0.15569
N	-3.6893864815	-0.5504090047	-0.0756396417	-0.303575
C	-3.2085755142	-1.7797259049	 0.0065568516	 0.180713
N	-1.8328680482	-1.7636823115	 0.0468892036	-0.361576
C	-3.940001428	-2.9873139498	 0.0518328292	 0.262777
C	-4.534722874	-4.0335105828	 0.0923167364	-0.410362
H	 0.9362213596	 1.6585440749	 0.1306461839	 0.294763
H	 0.4416190915	-0.1943942271	-1.0228023966	 0.108936
H	 0.5798623686	-0.6752826139	 0.6747251561	 0.096654
H	-2.6914182113	 1.3448267131	-0.1462645138	 0.122514
H	-1.2432216291	-2.5761788262	 0.1242053302	 0.268619
H	-5.075009241	-4.946955616	 0.1273943043	 0.195846
