15
gdb 128197	4.08585	1.15188	0.9039	3.8477	75.09	-0.2261	-0.0626	0.1636	1223.0475	0.113802	-450.136487	-450.128197	-450.127253	-450.170151	29.571	
C	 0.013975984	 1.4790176746	 0.0432745541	-0.312235
N	-0.0089675723	 0.0261066601	 0.0807977367	-0.352639
C	 0.5930755311	-0.7272441052	 1.0339997518	 0.504006
C	 0.6452171805	-2.103690244	 0.9929758879	-0.401881
C	 1.2835802659	-2.8118751632	 2.0522051152	 0.480507
O	 1.4414087341	-4.0072917604	 2.2155387031	-0.401199
N	 1.7884930983	-1.9032226689	 3.02904295	-0.264737
N	 1.7258873824	-0.5801287639	 3.0346236718	-0.04041
N	 1.1475302357	 0.0199681466	 2.0705113117	-0.280719
H	 1.020868536	 1.874610743	-0.1333395847	 0.13894
H	-0.6400722559	 1.8068346572	-0.7671122291	 0.126919
H	-0.3517038804	 1.8968975661	 0.9832612298	 0.157758
H	-0.3506363903	-0.4596924946	-0.7304565179	 0.256155
H	 0.2133383665	-2.6738732687	 0.179321667	 0.10904
H	 2.2649779647	-2.3044149488	 3.8272026925	 0.280496
