13
gdb 15465	3.06468	2.10364	1.49122	1.8862	60.31	-0.2711	0.0045	0.2756	830.2057	0.095425	-398.565154	-398.558086	-398.557142	-398.596762	25.62	
N	-0.0061310963	 1.2743648205	-0.2666574835	-0.527072
C	 0.0084982976	 0.0429274142	-0.0189756509	 0.404836
O	 1.0941650396	-0.7290384065	 0.2672312988	-0.23307
C	 0.6405394522	-2.0645025509	 0.5049141705	 0.015724
O	-0.6132816273	-2.1770471636	-0.1130810472	-0.230098
C	-1.2106657081	-0.8827636089	-0.0055566515	-0.177139
C	-2.006073197	-0.7285478823	 1.2126852292	 0.365889
C	-2.6524467227	-0.6214669497	 2.2191305493	-0.468257
H	 0.9311691404	 1.6747245098	-0.2094294419	 0.233006
H	 1.3341084341	-2.7684577571	 0.0400144702	 0.136953
H	 0.5806033445	-2.227441382	 1.5909133391	 0.118664
H	-1.8265120375	-0.721253697	-0.8929942602	 0.149791
H	-3.2305516294	-0.5167342665	 3.1043872681	 0.210773
