17
gdb 67649	3.29808	1.77986	1.5877	2.1722	69.55	-0.236	0.0726	0.3086	879.397	0.137861	-421.773322	-421.766931	-421.765987	-421.803655	27.159	
O	-0.128626341	 1.4236964129	-0.0700276753	-0.464852
C	 0.0254368061	 0.0545851839	-0.0258774875	 0.381851
C	-0.0821807217	-0.8404534779	 1.1702265835	-0.14791
C	 1.1158570106	-1.7770128822	 1.2698794071	-0.229999
C	 1.4384489517	-2.0432414257	-0.2022135425	 0.082462
O	 0.4175975169	-2.936534556	-0.7320954217	-0.310765
C	-0.3455700657	-1.7859980589	-1.1466475559	 0.12495
C	-1.0546213692	-1.0169644844	-0.0108100735	-0.153071
C	 0.8513641027	-0.8256094761	-1.0065982542	-0.19306
H	 0.5648674738	 1.8276200713	 0.4636690204	 0.286788
H	-0.5439149087	-0.436079337	 2.0649848166	 0.089873
H	 1.9476117387	-1.2818241227	 1.7876579158	 0.089061
H	 0.9027545544	-2.7208181901	 1.7797940743	 0.114562
H	 2.4451298906	-2.4102327287	-0.412992067	 0.075149
H	-0.9158140448	-1.945156793	-2.0633284254	 0.082422
H	-2.1219572437	-0.9221427148	 0.1465492048	 0.090394
H	 1.3871489993	-0.3983607004	-1.8496907094	 0.082145
