16
gdb 52384	4.65486	0.64056	0.59291	1.4493	68.91	-0.2571	-0.0859	0.1713	1767.7916	0.121571	-475.063848	-475.05405	-475.053106	-475.10134	32.355	
O	 0.1440590928	 0.2131448659	 0.4148380198	-0.230072
C	 0.1266575876	 1.3102261454	-0.0793388551	 0.15657
C	 1.3470986236	 2.1761462906	-0.3007022088	-0.273181
C	 1.5267854552	 2.5252337825	-1.793302628	-0.17441
N	 2.6065256433	 3.4650251075	-2.0246087688	-0.300078
C	 2.4370114586	 4.8003720395	-1.9141431296	 0.302854
O	 1.3951171168	 5.3728313916	-1.6438755088	-0.364166
C	 3.7207576773	 5.594204181	-2.1715515448	 0.105888
O	 4.7833626031	 5.0781331585	-2.4045109865	-0.244744
H	-0.8297021927	 1.7701577344	-0.4217146005	 0.082893
H	 1.1990036569	 3.1161530066	 0.2463956406	 0.145517
H	 2.2261506093	 1.6637609586	 0.0987098206	 0.12391
H	 1.7260610543	 1.6208036	-2.3746851836	 0.13012
H	 0.608332823	 2.9811436815	-2.175717649	 0.146841
H	 3.5461299533	 3.1435772094	-2.2087869644	 0.270544
H	 3.5684171476	 6.6895558568	-2.1133485931	 0.121512
