18
gdb 6369	4.21825	1.06433	0.96615	4.2729	65.24	-0.262	-0.0238	0.2381	1242.6249	0.150667	-422.092774	-422.083238	-422.082294	-422.127786	33.677	
C	 0.2811311231	 1.3674500801	 0.1870686449	-0.413626
C	 0.0307306311	-0.1371290431	 0.2438784721	 0.148441
O	 0.0306007358	-0.619787872	 1.583897858	-0.429977
C	-1.2713672664	-0.5393697916	-0.4867667361	-0.308746
C	-1.4062769589	-2.0480098822	-0.5425886146	 0.374262
O	-0.7631359038	-2.7234146739	-1.3196987535	-0.333939
C	-2.3395182347	-2.7270074253	 0.4418917403	-0.136114
O	-2.3436379134	-4.1119765344	 0.2791018388	-0.420728
H	 1.1982985715	 1.6143901108	 0.7286303366	 0.133145
H	 0.3820402882	 1.715015295	-0.8454648935	 0.12666
H	-0.5490902133	 1.9201049293	 0.6454599224	 0.110728
H	 0.8587570303	-0.6650633456	-0.2416397024	 0.118142
H	-0.5458278855	-0.0495202765	 2.1051471364	 0.280386
H	-2.130422303	-0.0863069697	 0.0234142681	 0.097081
H	-1.2402811174	-0.1634462026	-1.5142936107	 0.130367
H	-2.0027843148	-2.4279417201	 1.4494855102	 0.122404
H	-3.3507290203	-2.3054233952	 0.3107618565	 0.108726
H	-1.6932991785	-4.281312823	-0.4218494934	 0.292789
