20
gdb 39352	2.70922	1.87334	1.40648	1.2056	77.69	-0.2345	0.0838	0.3182	983.3082	0.174161	-403.139398	-403.132082	-403.131138	-403.171211	29.332	
C	-0.0429375829	 1.4509088283	 0.0365643857	-0.336391
N	 1.2448917812	 0.7436130531	-0.0711826335	-0.126463
C	 1.9679594992	 0.5499799536	 1.2011600804	-0.161953
C	 1.0110626852	-0.1471285358	 2.2024013389	-0.269806
C	-0.0613786412	-0.7981795643	 1.3154483635	 0.103813
O	 0.2472922828	-2.1451964125	 0.9457051575	-0.289864
C	 0.287956752	-2.2837936782	-0.4820093345	-0.066586
C	-0.357778095	-1.0182651161	-1.0731913369	-0.335553
C	-0.0114998845	-0.0249967019	 0.0073343776	 0.316443
H	-0.3035298541	 1.9390555538	 0.9748507987	 0.107762
H	-0.3225052247	 2.0126553721	-0.8506037185	 0.117961
H	 2.8301794069	-0.0877237308	 0.9819147631	 0.114421
H	 2.3521365469	 1.5054979013	 1.5719742814	 0.104912
H	 1.515631172	-0.8925345825	 2.8203834601	 0.118542
H	 0.5400316894	 0.5740920578	 2.8777394309	 0.101945
H	-1.0478890931	-0.7867818799	 1.7981022302	 0.072263
H	 1.332679613	-2.3696230516	-0.8121091251	 0.102702
H	-0.2342533044	-3.2066837669	-0.7538042072	 0.103114
H	 0.052600851	-0.7453551059	-2.0468359465	 0.117063
H	-1.4435698598	-1.1335621036	-1.1644927756	 0.105675
