21
gdb 33167	3.03757	1.05398	0.84081	4.2061	85.15	-0.2094	0.036	0.2454	1434.8293	0.183488	-383.322161	-383.312644	-383.3117	-383.357207	34.421	
C	-0.072398677	 1.5545363902	-0.0112030657	-0.380507
C	-0.0212737403	 0.0250362201	-0.0143099034	-0.173107
C	 0.7483274394	-0.529475281	 1.1921132389	-0.165921
N	 0.8047630269	-1.9815176224	 1.2273038799	-0.036025
C	-0.0877194577	-2.8024154647	 1.8599221398	-0.007772
N	 0.1818559357	-4.0730344887	 1.6777635571	-0.277316
C	 1.3040149679	-4.0822278781	 0.8831392001	-0.162276
C	 1.7150926088	-2.8068690263	 0.5849869497	 0.266845
C	 2.8709424777	-2.3025448549	-0.2107598347	-0.509672
H	 0.933774371	 1.9872178934	-0.0424130158	 0.118978
H	-0.6226308613	 1.9313092331	-0.8778688389	 0.123291
H	-0.5683970468	 1.9351465925	 0.8885336489	 0.119832
H	-1.035692197	-0.3900253795	-0.0033060618	 0.113601
H	 0.4490708288	-0.3340672374	-0.9368668112	 0.112523
H	 1.7717401784	-0.1396168083	 1.1981430709	 0.11956
H	 0.2768297682	-0.1926725073	 2.1216395827	 0.121334
H	-0.9054714025	-2.4027467882	 2.4429475121	 0.118073
H	 1.7670367235	-5.006950578	 0.5706357272	 0.100343
H	 2.5624210997	-1.7146530669	-1.084099026	 0.128845
H	 3.5451718295	-1.6727679124	 0.3834329488	 0.129105
H	 3.4543362871	-3.150849045	-0.5765135388	 0.140266
