19
gdb 88020	2.94039	1.31796	1.15254	2.8627	75.93	-0.2291	0.0563	0.2853	1138.5989	0.157891	-422.96312	-422.954662	-422.953717	-422.996128	32.846	
O	 0.074384486	 1.2926046434	-0.0552201967	-0.436249
C	 0.0770373139	-0.0888305838	 0.1147221039	 0.057328
C	-0.5583532373	-0.7004293662	 1.3609522274	-0.392204
C	-1.2463176239	-0.7797500027	 0.0343110449	 0.362765
O	-2.3808281852	 0.0548762595	-0.2520914574	-0.334881
C	-2.9100641176	-0.9361444598	-1.1769174699	-0.140287
C	-1.7782237888	-1.8979069352	-0.8254419668	 0.203167
C	-1.0423053894	-2.8708061073	-1.6904851724	-0.330118
C	-1.8611625015	-3.3597174044	-0.5149723471	-0.320677
H	-0.8138474762	 1.5219842315	-0.3656049428	 0.294029
H	 0.9609371083	-0.5716868874	-0.296191453	 0.096002
H	-0.1205015753	-1.6046945184	 1.7738860289	 0.112796
H	-0.9797888951	-0.0124437083	 2.0870117005	 0.128624
H	-3.9206828765	-1.2462989619	-0.88978037	 0.113091
H	-2.9158101426	-0.5621877924	-2.2076869092	 0.110487
H	-1.421039153	-3.0513451063	-2.6915629381	 0.118323
H	 0.039852138	-2.9052562733	-1.6124947565	 0.120137
H	-1.3342874778	-3.722859821	 0.3617791192	 0.12012
H	-2.7962414162	-3.8723694659	-0.717635275	 0.117548
