15
gdb 14578	14.3479	0.65733	0.63602	3.4714	69.06	-0.2727	0.0164	0.2891	1631.3994	0.116287	-362.62673	-362.61775	-362.616806	-362.661379	30.205	
C	 0.060137617	-1.1923571531	-0.0053276553	-0.407107
C	 0.0526839081	 0.0080256168	 0.0013462464	 0.278638
C	 0.0071920698	 1.4628784866	 0.0098653868	-0.211211
O	 1.3254621912	 1.9860819997	 0.00039057	-0.244982
C	 1.3481879174	 3.3935560633	 0.0079412886	-0.041551
C	 2.8250105849	 3.8054125064	-0.0038491362	-0.340808
C	 2.9878786747	 5.2555452437	 0.0026882971	 0.247397
N	 3.0961055485	 6.405720447	 0.007940909	-0.299491
H	 0.07292977	-2.2544460004	-0.011529469	 0.206053
H	-0.5540857813	 1.8246384011	-0.8679563954	 0.126255
H	-0.5374618816	 1.8147858044	 0.9020467205	 0.126258
H	 0.8320799305	 3.8064761994	-0.8730740871	 0.113696
H	 0.8490081182	 3.7966691062	 0.9031377199	 0.113696
H	 3.3269048823	 3.3775631379	 0.8699820753	 0.166578
H	 3.3101033204	 3.3873649911	-0.8918026007	 0.166579
