16
gdb 98824	3.0828	1.12369	0.90432	3.0428	66.93	-0.2735	-0.0416	0.2319	1253.9136	0.123053	-475.028044	-475.019331	-475.018387	-475.062481	30.912	
O	 0.2067266317	 1.2952858973	-0.3261885566	-0.420783
C	 0.0059531624	-0.0857002737	-0.2836669406	-0.138347
C	-1.4232907487	-0.4331531124	 0.0850115377	 0.34259
O	-2.227238982	 0.4425759376	 0.3207026856	-0.315181
C	-1.7916989565	-1.9046869822	 0.1062112216	-0.250446
C	-3.2682804777	-2.2637920676	 0.3370660955	-0.102333
O	-3.3500698484	-2.817054554	-1.0206907274	-0.244604
C	-2.0391391824	-2.5067688974	-1.2761866418	 0.441587
N	-1.3223833752	-2.6525283766	-2.2914375001	-0.53448
H	-0.6442620876	 1.6899700243	-0.0818187596	 0.295213
H	 0.2251597059	-0.5635389876	-1.2525739718	 0.157366
H	 0.6717658609	-0.566330493	 0.454309163	 0.114321
H	-1.0626760979	-2.4748116263	 0.6873026717	 0.133474
H	-3.4700810334	-3.0342787653	 1.0825849481	 0.12923
H	-3.9319941637	-1.4068131837	 0.4537019084	 0.152387
H	-1.8281824774	-3.0901672794	-3.0624991837	 0.240006
