19
gdb 90552	4.45056	0.93302	0.87037	1.5484	75.94	-0.247	-0.0249	0.2221	1336.1792	0.158579	-423.001858	-422.993279	-422.992335	-423.035965	32.038	
O	 0.4849917186	 0.5190186757	-1.1328022943	-0.427503
C	-0.013660169	-0.3702174222	-0.1694697113	 0.153508
C	 0.3119321511	-0.1534236261	 1.3407955688	-0.295896
C	-1.1732773747	-0.4568865834	 1.6914348258	-0.034918
C	-2.0231653508	 0.825475149	 1.9442373145	-0.076494
C	-2.2142137725	 0.9600162385	 0.3930682078	-0.277228
C	-1.5282901197	-0.4123444482	 0.1599981364	-0.049547
C	-3.3150361512	 0.5363011691	 2.6576072101	 0.155412
O	-3.6983793045	 1.0957624395	 3.6528449322	-0.256232
H	 0.2793664396	 1.4178114799	-0.8552576675	 0.281035
H	 0.3175496433	-1.3611936075	-0.4937535458	 0.096598
H	 1.0557463701	-0.8318311884	 1.7634750637	 0.111849
H	 0.614228509	 0.8718277237	 1.5798117119	 0.098465
H	-1.3554117231	-1.3232477767	 2.3278540242	 0.076954
H	-1.5134382493	 1.6439538967	 2.4582594052	 0.088816
H	-3.2588021431	 1.0003473883	 0.0741161703	 0.118215
H	-1.7090944112	 1.8240900732	-0.0487404518	 0.095487
H	-2.1316948938	-1.1634678658	-0.3507928217	 0.07166
H	-3.9246958788	-0.2724128153	 2.1856964312	 0.069819
