14
gdb 132569	3.12573	1.39405	0.96993	4.3083	66.9	-0.2448	-0.0473	0.1975	1109.5653	0.10057	-478.036417	-478.028674	-478.02773	-478.068785	28.605	
C	 0.0245870639	 1.4904592529	 0.0121561151	-0.524668
C	 0.0312061092	-0.0133857196	 0.0180363377	 0.221814
N	-0.0225787129	-0.6474871	-1.1588216155	-0.348993
C	-0.0151147168	-1.9657400402	-1.1187042691	 0.33252
F	-0.068820202	-2.5735664539	-2.2917563964	-0.062364
N	 0.0387998952	-2.757820562	-0.0645084472	-0.303946
C	 0.0925338768	-2.1307681747	 1.1103191899	-0.04332
C	 0.0916029841	-0.7427834075	 1.2127850621	 0.27868
O	 0.148526061	-0.1793534406	 2.4497725014	-0.434386
H	 0.9318047179	 1.8987964145	 0.4760020992	 0.140837
H	-0.026362056	 1.8488629406	-1.0159559613	 0.164695
H	-0.8373214934	 1.8913297813	 0.5611034141	 0.140848
H	 0.1381985813	-2.7411134663	 2.0083596719	 0.133687
H	 0.1411880516	 0.7797612656	 2.371076348	 0.304597
