15
gdb 5765	6.14185	1.54463	1.35986	2.0897	67.95	-0.2103	0.037	0.2473	899.6275	0.121667	-358.850198	-358.843533	-358.842589	-358.882384	24.888	
C	 0.2940538138	 1.6246463572	 0.1018785285	-0.214874
C	 1.1384213199	 0.4887476519	-0.3328811017	-0.221742
N	-0.252624547	 0.2600295976	 0.1241719731	-0.206934
C	-0.3946919946	-0.319952332	 1.3947798787	 0.416927
N	 0.1429032727	 0.0438448829	 2.5376807504	-0.308885
C	-0.3262990942	-0.8621188828	 3.4644103084	-0.090703
C	-1.1517827629	-1.7783748222	 2.8717411879	-0.113174
N	-1.1876011148	-1.4168309752	 1.5400847376	-0.290027
H	 0.5193742161	 2.0694256257	 1.0655765201	 0.153188
H	-0.1626719488	 2.2783730754	-0.6350831078	 0.118285
H	 1.3068471761	 0.2961780096	-1.3880654954	 0.119835
H	 1.9278772316	 0.1723441449	 0.3420627252	 0.138654
H	-0.0431935476	-0.7985436676	 4.5040708799	 0.10562
H	-1.7032119593	-2.6216136655	 3.2519247819	 0.126408
H	-1.7092355511	-1.8498709399	 0.7967924032	 0.267421
