19
gdb 103687	3.90221	0.83758	0.79218	4.01	73.42	-0.2451	-0.0208	0.2243	1458.0167	0.157011	-460.156052	-460.146576	-460.145632	-460.19072	34.939	
O	-0.1577330651	 1.5123690037	 0.0450032309	-0.4358
C	 0.0098862742	 0.1015788013	 0.1536699131	-0.141514
C	-1.3783501051	-0.5052864062	-0.0110635796	 0.447035
O	-2.2455577585	 0.0327743493	 0.9550800582	-0.487354
C	-1.879641543	-0.5099050054	-1.4883753983	-0.309391
C	-1.4264752276	-2.0003248393	-1.6075126556	-0.06279
C	-1.3723256612	-2.0483883702	-0.0474132357	-0.311769
C	-2.3953447045	-2.9358133558	-2.2710304076	 0.16188
O	-2.1400487985	-3.6717677763	-3.1893373682	-0.255296
H	 0.6490008175	 1.9453306054	 0.3371721838	 0.297587
H	 0.6993801982	-0.2812420706	-0.6129003295	 0.096811
H	 0.401158998	-0.1762985105	 1.143339365	 0.09957
H	-2.0344710526	 0.9746881778	 1.0078200745	 0.285184
H	-2.9695169389	-0.4205498742	-1.5057365947	 0.112906
H	-1.4433465265	 0.2061280541	-2.1868755477	 0.116922
H	-0.4460970884	-2.1132825807	-2.0737656387	 0.088362
H	-0.531859497	-2.5750512409	 0.4117200922	 0.10805
H	-2.306823359	-2.4272189397	 0.376892254	 0.122194
H	-3.4229559821	-2.8967590516	-1.8334080861	 0.067412
