21
gdb 74962	2.35434	1.85665	1.42918	1.2214	83.21	-0.2288	0.0204	0.2491	1033.046	0.183365	-387.106506	-387.098315	-387.097371	-387.138533	33.115	
C	-0.0293768624	 1.508615707	 0.0143709618	-0.516229
C	-0.0956245965	 0.0182653955	-0.031381086	 0.324332
C	-0.0640224816	-0.8009834992	-1.0910580714	-0.197781
C	 0.0328717759	-2.2252595183	-0.5750464293	-0.100343
C	 1.4308865702	-2.3226849064	 0.108582388	-0.069404
O	 1.3261815816	-1.4395607822	 1.2288467353	-0.309218
C	-0.0376659468	-0.8954578259	 1.2024903966	 0.331222
C	-0.3422037219	-0.310214211	 2.5600696595	-0.49113
C	-0.8327087622	-2.1144098324	 0.7042582279	-0.249509
H	 0.8779393307	 1.8447054925	 0.5323565659	 0.135496
H	-0.0200619341	 1.9366329636	-0.9921056897	 0.122346
H	-0.8782624255	 1.9401175086	 0.559061544	 0.123958
H	 0.020773611	-0.5142080967	-2.1328295216	 0.088945
H	-0.1873011427	-3.0281950765	-1.2780882606	 0.064224
H	 1.6397499642	-3.3412011799	 0.4616908338	 0.093107
H	 2.2445899772	-2.003296556	-0.553042371	 0.093244
H	 0.3569916557	 0.4952797962	 2.8035840014	 0.125886
H	-1.3577731988	 0.0965147645	 2.5857361744	 0.116405
H	-0.2539252989	-1.0787916799	 3.3327591441	 0.124136
H	-1.8796551645	-1.894208706	 0.4895393262	 0.097741
H	-0.7511614907	-2.9703261173	 1.3818372107	 0.092571
