14
gdb 12158	3.63884	1.6074	1.25308	2.8522	64.15	-0.27	0.0015	0.2715	940.0883	0.107062	-378.754852	-378.746997	-378.746053	-378.787607	27.049	
C	-0.0657530662	 1.4118246296	 0.1215605727	-0.354374
N	-0.0080386303	-0.0273919741	 0.0540998057	-0.063438
C	-1.0584996987	-1.0465935882	 0.068546182	-0.124988
C	 0.0762942045	-2.1219434066	-0.0101388323	-0.394586
C	 1.0431215691	-0.9150483285	-0.0338532407	 0.423442
O	 2.228503633	-0.7491820626	-0.1077881523	-0.353276
C	-1.8846379898	-1.0576215277	 1.2783653522	 0.284404
N	-2.5393937658	-1.0485327819	 2.2305317686	-0.314675
H	 0.9634008802	 1.7776414561	 0.1213439572	 0.170994
H	-0.5933533178	 1.8346396138	-0.7413604105	 0.136166
H	-0.5629990835	 1.744823165	 1.0391786518	 0.150809
H	-1.7144731091	-1.0188235719	-0.8093817795	 0.13251
H	 0.1671872693	-2.7589104212	 0.8699059869	 0.158538
H	 0.0692677252	-2.7285600916	-0.9161951219	 0.148474
