17
gdb 127002	5.25333	0.83188	0.7247	2.6549	71.81	-0.2061	0.0491	0.2553	1524.2608	0.136157	-455.163336	-455.154364	-455.15342	-455.197574	32.461	
C	 0.0184072454	 1.4542043474	 0.0395477612	-0.393097
C	 0.7844539155	 0.2601680154	-0.4958544875	-0.051291
O	-0.1429739522	-0.8166399138	-0.667769491	-0.268457
C	 0.3754423965	-1.9595565452	-1.1390781445	 0.511705
C	 1.6488364474	-2.3521016877	-1.5115816264	-0.461084
C	 1.4603917364	-3.6965654677	-1.9124856313	 0.430207
O	 2.4397544969	-4.5078041513	-2.3645443172	-0.43019
N	 0.211808861	-4.1128126266	-1.8077230652	-0.340281
N	-0.4491169277	-3.0129295796	-1.323050228	-0.305271
H	-0.7659025973	 1.7558700427	-0.6600091042	 0.133901
H	-0.446959904	 1.2162131087	 0.9999206279	 0.133899
H	 0.6983984835	 2.2986926304	 0.1834443448	 0.125453
H	 1.2549087709	 0.4867729189	-1.4615952586	 0.116146
H	 1.5740846689	-0.0533264234	 0.1995142699	 0.116145
H	 2.5605666214	-1.7827006356	-1.5017580055	 0.109622
H	 2.0265528515	-5.3582071538	-2.561506292	 0.30059
H	-1.4365760442	-3.0508844289	-1.1453549125	 0.272001
