21
gdb 68147	3.29713	1.22864	1.07893	2.9137	83.51	-0.2435	-0.0199	0.2237	1199.1823	0.182918	-387.103204	-387.094744	-387.0938	-387.136123	33.187	
C	 0.0384939287	 1.5065141465	 0.0136400185	-0.497317
C	 0.0274513024	-0.0039367066	 0.0455154014	 0.34107
C	 1.0044381846	-0.8568298805	-0.8250335361	-0.30348
C	 0.6414564714	-1.9645940237	 0.2239999555	 0.267994
C	 0.5682377516	-0.8190490763	 1.2635217019	-0.295994
C	-0.8513564331	-2.2098973087	-0.1105691446	-0.27545
C	-1.3136901932	-0.7217674268	-0.2284622978	-0.244507
C	 1.5204078692	-3.1565088263	 0.385915739	 0.040324
O	 2.2086181813	-3.384760805	 1.35083763	-0.25348
H	 1.0382206298	 1.9037838463	 0.2172935878	 0.115802
H	-0.2798934528	 1.8846726767	-0.9648995059	 0.115568
H	-0.6444125569	 1.9197914181	 0.7649438231	 0.118046
H	 0.7466664388	-1.037303458	-1.873188808	 0.092751
H	 2.042373592	-0.5267976081	-0.7373540159	 0.106726
H	 1.5583584325	-0.4936588244	 1.5887477763	 0.108216
H	-0.0880438791	-0.9537815491	 2.1280974881	 0.093001
H	-0.9827553147	-2.7732075605	-1.0392837735	 0.101871
H	-1.3636950325	-2.7520595899	 0.6889420516	 0.109006
H	-2.0754347672	-0.4621085353	 0.5129579686	 0.099441
H	-1.7144577511	-0.4810695219	-1.2180050847	 0.096798
H	 1.5144007083	-3.8530087362	-0.4870716251	 0.063614
