19
gdb 39871	3.3525	1.60655	1.45773	2.5415	78.13	-0.2214	0.0626	0.2841	968.1086	0.162234	-381.982851	-381.976061	-381.975116	-382.013783	28.186	
C	-0.0343381427	 1.5275492286	-0.0079871334	-0.320173
N	 1.2142627375	 0.7364499377	 0.0519783994	-0.373712
C	-0.0730167574	 0.0504432013	 0.0086585654	 0.384251
C	-0.4779949974	-0.9618619997	 1.0712431069	-0.070911
C	-1.997613485	-1.0293986266	 1.3255031874	-0.24897
C	-2.1107566415	-1.8311809157	 0.0133240493	 0.016511
C	-2.0352969723	-0.9971658253	-1.2819324373	-0.248508
C	-0.5086853906	-0.9372999405	-1.0664786144	-0.094129
N	-0.589238534	-2.0533896083	-0.0116337628	-0.159038
H	-0.2568522198	 2.094797075	 0.8922084509	 0.120121
H	-0.2913684923	 2.0345101889	-0.9356406583	 0.111263
H	 1.6570531873	 0.711437686	-0.8645065559	 0.230516
H	 0.2124192701	-1.1080190966	 1.903654587	 0.085166
H	-2.2287494273	-1.6531059066	 2.192685803	 0.111932
H	-2.5480663088	-0.0877220694	 1.4096810069	 0.099691
H	-2.7616366097	-2.7075622458	 0.0106307825	 0.074548
H	-2.2905284108	-1.6003734902	-2.1570664122	 0.110594
H	-2.5867314979	-0.0535853098	-1.3284726664	 0.100144
H	 0.1487104824	-1.0720496729	-1.9307381581	 0.070705
