17
gdb 74751	3.49509	1.57386	1.42764	3.3061	70.79	-0.235	0.0016	0.2366	956.5861	0.136952	-421.791411	-421.78457	-421.783626	-421.822424	27.801	
C	-0.015324667	 1.4843489536	 0.0495649309	-0.509728
C	-0.0341940323	-0.003964885	-0.0254070928	 0.355623
C	-0.0535208653	-0.830198823	-1.0769790164	-0.208498
C	 0.0064400028	-2.2486390809	-0.4909189075	-0.037401
O	-0.7027882039	-2.0783061033	 0.7393210129	-0.221077
C	 0.0327421947	-0.9463623722	 1.198466804	-0.096579
C	 1.4863374487	-1.5053740616	 1.1793825447	 0.033354
O	 1.5694109716	-2.9234402693	 1.3554424245	-0.24031
C	 1.4673581538	-2.3972320067	 0.0281707237	 0.036845
H	 0.8879847907	 1.8485862855	 0.555660723	 0.131163
H	-0.0485081373	 1.9371479122	-0.9449017697	 0.131503
H	-0.8682445413	 1.8631381695	 0.6266405578	 0.135512
H	-0.0486181037	-0.5781564644	-2.1286201009	 0.105267
H	-0.4111206498	-3.0687543779	-1.0723943465	 0.089445
H	-0.3582206259	-0.5813356993	 2.1476566146	 0.086646
H	 2.3400206832	-0.9117978415	 1.4902517628	 0.10445
H	 2.304712941	-2.5598936058	-0.6426347452	 0.103785
