21
gdb 114867	2.73259	1.35876	1.25944	0.9306	77.4	-0.2483	0.0814	0.3297	1136.581	0.183653	-424.220927	-424.212588	-424.211644	-424.25398	32.101	
C	-0.0688841369	 1.4244877417	 0.3973153146	-0.383458
C	-0.0862018457	-0.0985018987	 0.2524910977	-0.188158
C	-1.4565060879	-0.6463194698	-0.1634833192	 0.120687
C	-1.5255430281	-2.1886940613	-0.1955115858	-0.269536
C	-2.1271959451	-2.5526557667	 1.1534196166	 0.099266
O	-1.1903920281	-2.4941157762	 2.2585859056	-0.29684
C	-1.9221080349	-1.4104328729	 2.8797523259	-0.107141
C	-2.8308204824	-1.2663284874	 1.641124798	 0.072222
O	-2.5057585718	-0.2347734514	 0.7373414044	-0.279574
H	 0.9176455326	 1.7811063621	 0.7082389101	 0.108853
H	-0.3177528689	 1.9149820278	-0.5508498722	 0.110411
H	-0.8026727807	 1.7508663398	 1.1390642915	 0.128714
H	 0.6367310239	-0.4090592571	-0.5135988962	 0.091846
H	 0.2281636577	-0.5834689665	 1.1828783873	 0.117714
H	-1.7236047414	-0.2156920418	-1.1361142331	 0.078382
H	-2.1934121207	-2.5323133071	-0.9921842816	 0.104794
H	-0.5476914618	-2.6541246929	-0.3416831901	 0.11846
H	-2.6898078356	-3.4915297794	 1.1557665079	 0.076703
H	-2.4416285848	-1.7453266195	 3.7869332184	 0.100259
H	-1.2885991685	-0.548280989	 3.1111946301	 0.110819
H	-3.908880391	-1.2546178438	 1.8139721799	 0.085578
