19
gdb 89903	4.55746	1.01389	0.97551	1.4839	75.17	-0.2466	0.0736	0.3202	1245.8053	0.158662	-422.966912	-422.958856	-422.957912	-422.999639	31.595	
O	-0.0715964154	 1.4520075689	 0.0277310387	-0.432499
C	 0.0380612381	 0.0482512652	 0.0433862982	 0.149256
C	 0.2831240203	-0.6784596577	 1.3960014231	-0.330112
C	-0.8119282095	-1.6953942593	 0.9892756186	 0.365958
C	-0.4341598839	-3.1399098071	 0.4886162978	-0.337649
C	-1.4211140064	-3.6988162033	 1.52209599	 0.040709
O	-0.9915213508	-3.2338335524	 2.806926224	-0.249335
C	-1.7690250619	-2.3480024826	 1.9887854409	-0.061749
C	-1.3176065251	-0.6782779599	-0.0671136658	-0.324532
H	 0.8101917723	 1.8260165404	 0.1234709076	 0.281909
H	 0.7399602836	-0.3045048455	-0.7261919623	 0.067494
H	 1.2824475569	-1.0649230741	 1.6087363155	 0.098816
H	-0.0468079188	-0.0474587377	 2.2271486827	 0.106959
H	-0.7423410914	-3.3145744971	-0.5458878009	 0.10583
H	 0.6032635994	-3.4575371633	 0.6237557282	 0.107544
H	-2.0040617426	-4.6119841696	 1.4942463153	 0.103258
H	-2.6824392571	-1.9477535563	 2.416424881	 0.096108
H	-2.1061232969	-0.0379280945	 0.3416348674	 0.112327
H	-1.6293662107	-1.052327254	-1.0452437497	 0.099709
