18
gdb 97336	5.33468	0.72207	0.65828	2.2736	82.17	-0.2432	-0.0044	0.2388	1712.7682	0.147173	-435.278494	-435.269067	-435.268123	-435.313686	33.036	
C	-0.0732084758	 1.6528732476	 0.3037076652	-0.311038
N	-0.4672984668	 0.30157179	 0.6455229981	-0.243279
C	 0.2926155772	-0.6378131319	 0.2706604513	 0.126053
N	-0.0168503813	-1.9577764237	 0.5580416088	-0.358144
C	 0.7892943054	-3.0228817467	 0.2086349359	 0.452595
O	 1.8489083217	-2.9070851842	-0.3681722737	-0.367795
N	 0.25498201	-4.2459817217	 0.6587563709	-0.144247
C	 0.5605551514	-5.4463221776	-0.0936204446	-0.209493
C	-0.82763454	-4.8977179381	-0.0876630574	-0.239072
H	 0.0357449967	 2.2466295492	 1.2188077931	 0.127837
H	 0.8692703317	 1.7126921119	-0.2631883849	 0.102645
H	-0.8639062162	 2.1280221328	-0.2887325435	 0.126313
H	 1.226204502	-0.5329968323	-0.2902303191	 0.129431
H	-0.8471505276	-2.1265021425	 1.1067916532	 0.264782
H	 1.15537718	-5.3170092615	-0.9927383332	 0.147104
H	 0.7992685145	-6.3195077031	 0.505459336	 0.129182
H	-1.6028524009	-5.3579955577	 0.5178176477	 0.130407
H	-1.1771586519	-4.4089589405	-0.9935900338	 0.136718
