20
gdb 2368	3.96968	2.01068	1.55766	1.1577	71.81	-0.2199	0.0852	0.3051	884.836	0.181779	-291.021228	-291.012742	-291.011798	-291.053457	31.53	
C	 2.4681288148	 0.3902105879	 1.0053868071	-0.378277
C	 1.2417236784	-0.4698817988	 0.6892664494	 0.082883
C	-0.060135474	 0.2880605627	 0.9606093017	-0.384737
N	 1.2902980537	-0.8399036567	-0.7267441443	-0.07715
C	 2.1399342404	-1.9566929938	-1.1220121117	-0.254577
C	 0.6551730221	-2.0663008858	-1.2165050543	 0.028403
C	-0.1106111053	-3.0385138522	-0.3435408254	-0.415456
H	 3.3947335863	-0.161737602	 0.8194106156	 0.111495
H	 2.4757281169	 1.2857518201	 0.3760165817	 0.121705
H	 2.4628547683	 0.7009131555	 2.0548710692	 0.107293
H	 1.2746579007	-1.3572399224	 1.3453161394	 0.053704
H	-0.1160201066	 1.179332244	 0.3277436627	 0.122588
H	-0.9343064692	-0.3332873587	 0.7454205999	 0.112627
H	-0.1158065258	 0.6006234731	 2.0081372274	 0.108042
H	 2.7573730776	-1.807937618	-2.0046955168	 0.108537
H	 2.6180405774	-2.5369989961	-0.3314948338	 0.100216
H	 0.207041063	-1.929318402	-2.2004785589	 0.08638
H	 0.3799845337	-3.2192653488	 0.6157052503	 0.122368
H	-1.1281201742	-2.6845288694	-0.1447698896	 0.122678
H	-0.1937295881	-4.0030092587	-0.8562066397	 0.121278
