20
gdb 106988	2.96468	1.2737	1.0157	1.8356	80.27	-0.2362	-0.0195	0.2167	1249.3853	0.169503	-403.134332	-403.124946	-403.124001	-403.168636	34.534	
C	-0.2721782121	 1.4751666245	 0.1762343949	-0.384103
C	 0.1202699103	-0.0079081131	 0.1041904563	-0.298574
C	 0.7358853951	-0.3540462557	-1.2213220085	 0.225445
C	-0.0197701163	-0.8190520737	-2.4238497748	-0.285648
N	 0.902747168	-1.7653010189	-1.8003985109	-0.180064
C	 2.2848736992	-1.4036861224	-2.3057164178	-0.055072
C	 2.6153314474	-1.6338866721	-3.7692493433	-0.417598
C	 2.1243946812	 0.000123963	-1.675946502	 0.340389
O	 2.8755249566	 0.902065762	-1.4301470744	-0.31852
H	 0.6011744127	 2.1119429861	 0.0100983621	 0.146726
H	-1.0208025322	 1.7237126667	-0.5830785736	 0.11665
H	-0.6913841747	 1.7174866128	 1.1569114991	 0.116545
H	 0.835805123	-0.2389675689	 0.902348855	 0.113006
H	-0.7538837119	-0.6480055047	 0.2685440413	 0.111729
H	-1.0660823242	-1.0627962312	-2.2607822224	 0.131658
H	 0.1941338824	-0.4100968715	-3.4073742601	 0.121579
H	 3.0030403284	-1.9466859092	-1.6787425731	 0.117955
H	 1.9394733557	-1.1053546491	-4.4462415863	 0.123329
H	 3.6307708151	-1.2804851313	-3.9722755545	 0.140565
H	 2.5719023963	-2.7015522833	-4.006358357	 0.134002
