21
gdb 98175	2.13546	1.23231	1.02981	1.3868	79.73	-0.2481	-0.0537	0.1944	1313.3457	0.177746	-424.266333	-424.255229	-424.254285	-424.303172	39.03	
C	-0.1299818054	 1.6532212618	-0.1587766781	-0.380801
C	-0.3643600433	 0.2039026757	-0.5803413131	-0.290499
C	-0.9464136865	-0.6549586836	 0.5318679792	 0.354932
O	-1.0362487197	-0.2566627232	 1.6692834438	-0.301677
C	-1.4687525011	-2.0729905145	 0.1485915702	 0.062852
C	-0.5352550073	-2.7802819231	-0.8467191209	-0.429691
C	-1.6856626132	-2.8991207011	 1.4249766382	-0.423845
C	-2.8341264135	-1.8151720779	-0.5006326244	 0.141438
O	-3.0368057029	-1.7729313019	-1.6862950274	-0.250868
H	 0.3171636386	 2.2223233665	-0.9782840222	 0.113287
H	-1.0689441828	 2.1370631547	 0.1237848178	 0.129023
H	 0.535261109	 1.7045996331	 0.7061414884	 0.134771
H	-1.025486004	 0.1357611607	-1.4534470008	 0.142125
H	 0.5766169175	-0.2622469143	-0.901703652	 0.13192
H	 0.4815285004	-2.8463328055	-0.4481708249	 0.118892
H	-0.8923992415	-3.7983841673	-1.0274047735	 0.126431
H	-0.5092741188	-2.2696952066	-1.8100064525	 0.142248
H	-2.346211647	-2.3801680869	 2.1221724605	 0.139589
H	-2.1190059452	-3.8741985232	 1.1809854389	 0.115917
H	-0.734411515	-3.0639365747	 1.9377357524	 0.129536
H	-3.6547855283	-1.6444996789	 0.2312911004	 0.094419
