17
gdb 110159	2.49446	1.20407	0.86594	1.567	74.71	-0.2398	-0.0433	0.1965	1305.9737	0.134941	-418.012589	-418.003482	-418.002538	-418.047097	32.402	
C	 0.1473743614	 1.4975899592	 0.0712756144	-0.330899
N	-0.2342922486	 0.1218387001	 0.4028407399	-0.302446
C	 0.76792445	-0.5731047177	 1.1722991713	-0.075279
C	 0.503804339	-2.0945690294	 1.4553862982	-0.180931
C	 1.970444485	-2.4366703091	 1.0218719515	-0.360592
C	 2.047684525	-1.0214002205	 0.4297407403	 0.409618
O	 2.7606300198	-0.4967514992	-0.3722688926	-0.283739
C	 0.091405817	-2.4591788686	 2.7975544677	 0.269489
N	-0.230408326	-2.7347943312	 3.8734522699	-0.321428
H	 1.044427609	 1.4802127862	-0.5513467832	 0.160402
H	-0.6600051527	 1.9626220658	-0.5000102349	 0.126217
H	 0.3561424669	 2.1249215005	 0.9547844112	 0.102385
H	-1.104402781	 0.1288391322	 0.9272932321	 0.231466
H	 1.0714335233	-0.0683263113	 2.1108820898	 0.101829
H	-0.2155690264	-2.4737904051	 0.7253065172	 0.14282
H	 2.6468223893	-2.5656744194	 1.8715806345	 0.158215
H	 2.103916379	-3.2685109326	 0.3287854128	 0.152871
