21
gdb 111418	2.02702	1.66604	1.07635	1.7591	79.53	-0.2379	0.0812	0.3191	1206.0413	0.181378	-424.172343	-424.162959	-424.162015	-424.206698	34.374	
C	 0.112333452	 1.3526364586	-0.1755223627	-0.237498
O	 0.0188708824	-0.0213449294	-0.4968240992	-0.23549
C	-1.2372126831	-0.5746146095	-0.2301341705	 0.096435
C	-1.3563424444	-2.0461755989	-0.5903795134	-0.088817
C	-0.4301237778	-2.8656455145	 0.2606712017	-0.280568
C	-1.7287437127	-2.4030531174	 0.8589564449	-0.08112
C	-1.611033819	-0.9294488171	 1.262534687	 0.074345
O	-0.6212265809	-0.5724228965	 2.192699234	-0.231041
C	-0.8979711224	-1.0285483072	 3.4981830764	-0.236986
H	 1.1139230641	 1.6812622535	-0.4636282461	 0.122152
H	-0.6281932911	 1.9467029882	-0.7351787724	 0.095393
H	-0.0294528929	 1.5265846947	 0.8975181213	 0.12522
H	-2.0321555048	 0.0368297771	-0.6834255762	 0.061791
H	-1.7879116678	-2.4271320501	-1.5071395295	 0.087245
H	-0.3867409107	-3.9197397917	 0.0080853038	 0.109262
H	 0.5050917428	-2.4373468745	 0.6036643152	 0.135372
H	-2.4934515868	-3.0919230836	 1.195338002	 0.083492
H	-2.5825961744	-0.5021904109	 1.5539287939	 0.060272
H	-0.9607317082	-2.1256068922	 3.5417401787	 0.112954
H	-0.079180008	-0.6956608599	 4.1404457473	 0.126628
H	-1.8435300764	-0.6126466285	 3.8815738937	 0.100959
