24
gdb 99268	4.13516	0.67167	0.66303	3.3626	87.66	-0.2408	0.0371	0.2779	1881.018	0.215398	-405.601628	-405.590083	-405.589139	-405.639918	40.869	
C	 0.1843448055	 1.3716296569	 0.1931975325	-0.366329
C	 0.0146416175	-0.1275600394	-0.0564473287	-0.298021
C	 0.9271994233	-0.6295565297	-1.1760142197	 0.421594
O	 2.022642953	-0.1399342154	-1.3915804783	-0.379306
N	 0.4295194754	-1.6810353717	-1.8933243375	-0.322223
C	 1.166479178	-2.3418533216	-2.9568195642	-0.154677
C	 1.5532689673	-3.7982785216	-2.6391638196	 0.032178
C	 2.1988853115	-4.4420440672	-3.8727386574	-0.385716
C	 2.4696820705	-3.8909738777	-1.4139724922	-0.374207
H	 1.2406387664	 1.6064553102	 0.3379921855	 0.146101
H	-0.1709837106	 1.9562935861	-0.6608112078	 0.120463
H	-0.376121858	 1.6856107983	 1.0781665905	 0.10684
H	 0.2844027336	-0.6876090545	 0.8489094896	 0.127648
H	-1.0314921419	-0.3761198933	-0.2717617878	 0.094189
H	-0.4868679444	-2.0275303669	-1.6603311768	 0.238669
H	 0.572811748	-2.3156001357	-3.8802004736	 0.09645
H	 2.0634012618	-1.7382490889	-3.1208658307	 0.145375
H	 0.62593131	-4.3484123003	-2.4169339883	 0.062067
H	 3.1264861838	-3.9238677985	-4.1428963723	 0.119893
H	 2.4481183796	-5.4908328127	-3.6842341224	 0.11347
H	 1.5325974215	-4.4061968459	-4.7414821913	 0.109477
H	 2.7063547352	-4.9341456384	-1.1806682096	 0.10743
H	 3.4125662793	-3.3618849369	-1.5918131969	 0.12561
H	 2.0022360537	-3.4463863251	-0.5308983028	 0.113025
