13
gdb 129229	3.97426	1.18913	0.91527	3.5299	73.45	-0.2559	-0.1027	0.1531	1163.1491	0.089913	-448.90588	-448.898544	-448.8976	-448.938138	26.774	
N	-0.1118513266	 1.3507536961	 0.0109097188	-0.536512
C	-0.0480187968	 0.0745459828	 0.0036225297	 0.43727
N	 1.1210705431	-0.7068753846	-0.0069617155	-0.307612
N	 1.2242769829	-2.0546868813	-0.0148640096	-0.030938
N	 0.1767880847	-2.7616113297	-0.0130340909	-0.242414
C	-1.0681042428	-2.1228949678	-0.002808832	 0.264717
C	-2.2702892925	-3.0058112598	-0.0010950244	 0.120841
O	-2.24060484	-4.2073445038	-0.0077873306	-0.232261
C	-1.2173432798	-0.7792298094	 0.0053100678	-0.199491
H	 0.8106692077	 1.788158644	 0.008291308	 0.214277
H	 2.0249406058	-0.2544907818	-0.0094051233	 0.27743
H	-3.2272852884	-2.4384469766	 0.0071725077	 0.087117
H	-2.1913351072	-0.3025260681	 0.0131786843	 0.147576
