18
gdb 114415	3.40136	1.08691	1.05158	2.366	73.03	-0.2599	0.0249	0.2849	1207.3943	0.148164	-439.059712	-439.05145	-439.050506	-439.093102	30.946	
O	 0.0857451069	 1.1518147334	-0.4817090758	-0.423313
C	 0.0290641983	-0.2305464359	-0.1579355547	-0.093413
C	-1.4331203895	-0.5844178647	 0.0291760388	 0.012789
C	-2.3701009832	-0.5650058789	-1.220176279	-0.252783
C	-2.8073011813	-2.0360637362	-0.9144596895	-0.167655
C	-1.7963969512	-2.0670426537	 0.2644316261	 0.070224
O	-0.9547954537	-2.9975826276	-0.4915043837	-0.273195
C	-1.8779324615	-3.0532951135	-1.5285144693	 0.440989
N	-1.8725772541	-3.7330648427	-2.581097263	-0.547908
H	 0.9933565422	 1.3695227553	-0.7126981445	 0.289468
H	 0.4611313041	-0.8499501098	-0.9560003117	 0.101721
H	 0.5861329624	-0.4511054363	 0.7676348936	 0.088488
H	-1.8468393539	 0.0335262993	 0.8325981032	 0.090101
H	-3.1863947793	 0.1541881484	-1.1461505427	 0.116866
H	-1.8739506206	-0.4292643776	-2.182917863	 0.12403
H	-3.8665079503	-2.2731173447	-0.8531316013	 0.103748
H	-1.9846699536	-2.4423805158	 1.2700971987	 0.092478
H	-1.0358917717	-4.3157829091	-2.6444799822	 0.227366
