19
gdb 90202	3.03303	1.74732	1.5729	1.8152	79.44	-0.2101	0.0636	0.2737	945.2236	0.158774	-385.736509	-385.729271	-385.728327	-385.767607	30.056	
C	-0.3945330653	 1.4451229537	 0.0522280548	-0.401246
C	 0.0157223124	-0.0216223862	-0.0035898997	-0.069618
C	 1.3023840291	-0.3478817169	-0.8767123456	-0.338301
C	 2.1015528505	-0.4952573852	 0.4337413032	 0.35275
O	 2.5479462545	 0.747419359	 1.0803048626	-0.344792
C	 1.9227947373	-0.0323152593	 2.1346724283	 0.036126
C	 2.4739177968	-1.4327863635	 1.6245890088	-0.147242
C	 1.0617372703	-2.0614082611	 1.6209906745	-0.316839
C	 0.7795636574	-0.5902526045	 1.2412098013	 0.175539
H	 0.4575991806	 2.0740751666	 0.318712043	 0.143809
H	-0.7805119951	 1.7759803314	-0.918495005	 0.109806
H	-1.1823793081	 1.5986367452	 0.7973474519	 0.114713
H	-0.8449844008	-0.6436463782	-0.266260636	 0.082108
H	 1.2154724365	-1.2833407322	-1.4342342481	 0.117436
H	 1.6657594343	 0.4362554736	-1.5455447109	 0.121667
H	 1.9329475171	 0.3789147287	 3.1493290346	 0.087426
H	 3.4377448434	-1.885560414	 1.8759134521	 0.078959
H	 0.8818562021	-2.8064799498	 0.8394745483	 0.098938
H	 0.6693719568	-2.4202079874	 2.5768834618	 0.098761
