17
gdb 28763	3.22106	1.684	1.24944	3.6135	78.81	-0.2089	0.0085	0.2175	1010.7207	0.137924	-380.845725	-380.838512	-380.837568	-380.877356	28.045	
C	-0.0257966308	 1.5601002644	-0.0419548237	-0.495627
C	 0.0732621187	 0.074318614	-0.0044370647	 0.220148
C	 0.1010171607	-0.8705763893	-1.0127319251	-0.147804
N	 0.2135006568	-2.1735033066	-0.536065306	-0.331562
C	 0.1502001454	-2.0054794864	 0.7584737933	 0.282568
C	 0.7178080538	-2.4357989387	 2.0933902998	-0.185096
C	 1.9804392947	-1.60697416	 2.310933731	-0.272906
C	 0.6304773939	-0.9586146424	 2.4674884967	-0.026589
N	 0.0143905558	-0.6952036822	 1.1480313947	-0.050249
H	 0.8116637733	 2.0417086754	 0.4776028963	 0.127973
H	-0.0173786664	 1.9088189983	-1.0776140392	 0.137585
H	-0.9491569703	 1.9194720141	 0.4273518619	 0.133935
H	 0.0130781393	-0.678497344	-2.073273598	 0.104311
H	 0.4648993635	-3.2980906629	 2.6931614678	 0.117328
H	 2.5224923314	-1.7983008976	 3.2340449325	 0.124184
H	 2.6045301458	-1.3494277779	 1.4613096288	 0.141813
H	 0.2557057044	-0.4911556582	 3.3676718838	 0.11999
