21
gdb 83540	3.07876	1.45692	1.28204	1.8242	81.91	-0.252	0.0835	0.3355	1086.204	0.184182	-387.062383	-387.054528	-387.053584	-387.094256	31.863	
C	-0.1157922118	 1.6597070698	-0.0021863855	-0.437861
C	 0.0039124702	 0.1435096477	 0.0119965838	 0.048415
C	 1.1073235156	-0.6012981855	-0.8172338601	-0.147752
C	 2.423485393	-0.0084715065	-0.2671178007	-0.21813
C	 2.0912286285	-0.0203271184	 1.2656022891	-0.21813
C	 0.6673325652	-0.6170358952	 1.212541698	-0.147752
C	 0.8779230789	-1.7369607289	 0.1868702803	 0.548314
C	 0.2600791104	-3.0463203261	 0.0427790808	-0.312913
O	 1.6648213302	-2.8966884482	 0.3484483319	-0.306764
H	 0.830903066	 2.1638492106	 0.206859356	 0.120785
H	-0.4671232492	 2.009230461	-0.9792310277	 0.116697
H	-0.8411488081	 1.9958475676	 0.7468692266	 0.116698
H	-0.9722316406	-0.3039209768	-0.2030656943	 0.071845
H	 1.0219460346	-0.7474461112	-1.8940858078	 0.061502
H	 3.278161246	-0.6448394821	-0.5087804259	 0.110872
H	 2.6277884539	 0.9933463884	-0.6533285178	 0.09545
H	 2.7711785872	-0.6629086452	 1.8300411414	 0.110869
H	 2.1140392177	 0.975020054	 1.7164936534	 0.095452
H	 0.1442138245	-0.7788395213	 2.1551049688	 0.061502
H	-0.3449065323	-3.459994343	 0.8488336366	 0.115451
H	 0.04447383	-3.4460597006	-0.9474632568	 0.115452
