12
gdb 47271	2.50127	1.83408	1.1338	4.8689	57.63	-0.281	-0.1207	0.1602	979.0721	0.077497	-509.787995	-509.780682	-509.779738	-509.820465	26.115	
N	 0.0016783447	 1.0567992028	 0.7715529992	-0.458781
C	 0.0407887481	-0.0152250766	 0.1129946233	 0.328708
O	 1.1947824254	-0.6988504852	-0.1728477244	-0.228873
C	 1.0806751593	-1.6592949174	-1.1992752086	-0.017033
O	 0.1308056201	-2.6668868434	-0.8910034145	-0.210852
C	-1.1238511603	-2.230891705	-0.5909055459	 0.377652
O	-2.0415730541	-2.9814405574	-0.4808487642	-0.276963
C	-1.2400486658	-0.7045070404	-0.3347622753	 0.16449
O	-2.2918360702	-0.1426880706	-0.4407096201	-0.227029
H	 0.9432787807	 1.3627511948	 1.0289101665	 0.247083
H	 0.8165722909	-1.1753938108	-2.148669229	 0.138005
H	 2.0456319711	-2.1561051609	-1.2775890971	 0.163592
