19
gdb 118330	2.22127	1.1274	0.84181	2.393	74.23	-0.2415	-0.0429	0.1986	1418.7646	0.15406	-460.182451	-460.171752	-460.170807	-460.219536	36.385	
C	 0.373205664	 0.9639155124	 0.6820194853	-0.387756
C	-0.1890388805	-0.2554783007	-0.0252771667	-0.046714
O	 0.8491241797	-0.8155515697	-0.8289693589	-0.247577
C	 0.5081538578	-1.9834580592	-1.5077554513	-0.066886
C	-0.3763678939	-1.7498130579	-2.7427719345	 0.141473
O	-0.8277083528	-0.6785709299	-3.0451650379	-0.236262
C	 1.7680185004	-2.7430259701	-1.972842171	 0.341627
C	 3.0995489983	-2.0751491144	-1.7393500168	-0.467977
O	 1.6327363536	-3.8136632682	-2.5170229851	-0.302684
H	 1.228622623	 0.6908461462	 1.306599362	 0.123467
H	 0.7012788239	 1.709890223	-0.046925255	 0.134961
H	-0.3923753392	 1.4159196909	 1.3193664025	 0.12051
H	-0.528324423	-1.0083517437	 0.705104123	 0.088087
H	-1.0430772776	 0.0185481411	-0.6541733834	 0.123961
H	-0.0454621766	-2.695455707	-0.8674892323	 0.115884
H	-0.5537458936	-2.6700983765	-3.3367998897	 0.11477
H	 3.2431038996	-1.8885192178	-0.6709381919	 0.153537
H	 3.896272242	-2.7075413065	-2.1316297551	 0.140152
H	 3.1134711151	-1.0924358619	-2.2220783633	 0.157426
