16
gdb 42982	2.83794	1.71006	1.27687	3.366	69.02	-0.2432	-0.0413	0.202	978.8004	0.124727	-437.852057	-437.844814	-437.843869	-437.883884	27.975	
O	 0.0698037867	 0.1131578308	 0.3546594601	-0.321374
C	 0.0072885176	 1.2943240405	 0.1329832083	 0.367514
C	-1.2014728571	 2.1099744284	-0.1929974155	-0.152522
C	-1.3853029461	 3.317816108	 0.6767980626	-0.241602
N	-0.7861120885	 3.4635585972	-0.6385343617	-0.100284
C	 0.6978284161	 3.523931907	-0.5956163443	-0.267362
C	 1.192190383	 2.254358824	 0.0824158155	 0.29846
C	 2.2970197555	 2.125995525	 1.0505036438	-0.235214
O	 2.4466066979	 1.7037810394	-0.2989601306	-0.254512
H	-2.0482929764	 1.6381516659	-0.6778549026	 0.124886
H	-2.3859408595	 3.7260584801	 0.7815793944	 0.137065
H	-0.7565887558	 3.4171454084	 1.5599688513	 0.12581
H	 1.0676369435	 3.5453839362	-1.6256886656	 0.138818
H	 1.0139108289	 4.4457392128	-0.0997887391	 0.121899
H	 2.8544043053	 3.0187215243	 1.3326410441	 0.122102
H	 2.2638579888	 1.324053512	 1.7862568495	 0.136315
