17
gdb 123486	5.20919	0.95855	0.88756	3.5408	73.76	-0.252	0.0154	0.2675	1308.0286	0.13902	-414.180691	-414.173024	-414.17208	-414.213926	28.097	
C	-0.1129877275	 1.6567761948	 0.1801033334	-0.277646
N	-0.2326131272	 0.3139633563	-0.3815262826	-0.086874
C	-0.2363840842	-0.7905728264	 0.5786385096	-0.220549
C	-1.4869951656	-0.3823095534	-0.1175601493	-0.217717
C	 1.3235377277	 2.075314028	 0.1959354943	 0.383862
N	 1.8882390955	 2.9932047494	 0.9621541247	-0.328061
C	 3.1830271607	 2.9845395443	 0.5356830326	 0.019216
N	 3.4558453489	 2.1244685831	-0.4316914909	-0.215569
N	 2.244846469	 1.5535622164	-0.6372801363	-0.21512
H	-0.6887579791	 2.3420166878	-0.4553456873	 0.135749
H	-0.5187693864	 1.7490401545	 1.2001433623	 0.120666
H	 0.2977406447	-1.684443038	 0.2714365974	 0.124495
H	-0.1469848888	-0.5441640859	 1.634709393	 0.126171
H	-2.2393290266	 0.135830213	 0.4741319494	 0.119457
H	-1.8802104515	-0.9723626738	-0.9399042599	 0.125261
H	 3.9445483352	 3.6256287859	 0.9540575333	 0.12305
H	 2.1113554553	 0.823333894	-1.3179170136	 0.28361
