15
gdb 129621	3.1502	1.33567	1.01385	2.5504	69.85	-0.2155	-0.0418	0.1737	1114.691	0.112636	-453.95191	-453.943821	-453.942877	-453.984829	29.612	
N	-0.3154422357	 1.353578412	-0.0455755661	-0.599083
C	-0.1653337364	 0.0008247518	 0.0124097775	 0.428758
C	-1.0935564152	-1.0184032206	 0.0555652709	 0.059534
C	-2.5889416017	-0.8700059915	-0.0091129466	-0.402107
C	-2.9131604314	-0.2489452353	-1.355668305	 0.150312
O	-2.8706746499	 0.9426194597	-1.564109634	-0.254664
C	-0.2751133529	-2.169804244	 0.1685495268	-0.041363
N	 1.0060311594	-1.903241146	 0.2038643653	-0.164003
O	 1.0734941607	-0.4897557061	 0.0983801647	-0.214335
H	 0.5074699004	 1.8702947925	-0.3177463378	 0.268529
H	-1.1783789558	 1.6612631492	-0.480252338	 0.285105
H	-3.0722836984	-1.8459557916	 0.0892271806	 0.122157
H	-2.9638811318	-0.2089894105	 0.7813136619	 0.134747
H	-3.1266008915	-0.9596021461	-2.1820531517	 0.099081
H	-0.5896100997	-3.2033040833	 0.2358850714	 0.127333
