19
gdb 95395	2.28719	1.6562	1.11607	2.9104	78.81	-0.2319	-0.0514	0.1805	1140.2142	0.158472	-423.061378	-423.052387	-423.051443	-423.095044	33.335	
C	-0.2463282473	 1.4998249604	 0.0255411948	-0.414067
C	 0.0598946995	-0.0035310807	-0.0344310521	 0.019576
O	 0.758671833	-0.3879823229	-1.2126749761	-0.261955
C	 2.1124297693	 0.0048426941	-1.2609694009	-0.134098
C	 2.8648503113	-0.2870764985	 0.0007834783	-0.152397
C	 2.2632392248	-0.5545894015	 1.1691748336	 0.20189
C	 2.9853133	-0.8985372217	 2.4405967493	-0.47811
C	 0.7855696849	-0.4482825217	 1.2389143767	 0.304854
O	 0.1687254274	-0.6300140628	 2.2704801044	-0.328163
H	 0.6674270874	 2.0969167859	 0.1114411545	 0.119403
H	-0.7801444954	 1.8069293146	-0.8777595388	 0.127666
H	-0.8705385853	 1.710533392	 0.8977329318	 0.141926
H	-0.882915188	-0.5565694628	-0.0726317411	 0.112344
H	 2.5566082225	-0.548779258	-2.096715154	 0.127336
H	 2.2174968448	 1.0768245644	-1.5125375595	 0.108965
H	 3.9512873961	-0.2693385686	-0.0700754361	 0.104096
H	 4.0683088181	-0.896594769	 2.2943063052	 0.115211
H	 2.730428172	-0.1916107571	 3.2364050563	 0.142045
H	 2.6816777349	-1.8867589062	 2.8014979735	 0.143479
