15
gdb 49121	3.60273	1.2328	0.97794	0.8316	75.17	-0.2545	-0.1011	0.1534	1142.3832	0.112857	-420.655591	-420.648192	-420.647248	-420.687787	27.774	
O	 0.001125499	-0.0454023138	 0.050387998	-0.251984
C	 0.0243728738	 1.1625782639	 0.0979983442	 0.084881
C	 1.2667020928	 1.9547648098	 0.0515557537	 0.242464
C	 1.3319167733	 3.298943894	 0.1057730135	-0.3141
C	 2.7553951466	 3.7486700041	-0.0190494043	 0.424202
O	 3.1447429952	 4.8880292542	-0.1116653521	-0.325015
C	 3.5918636663	 2.4896118862	-0.0526861113	-0.171602
C	 3.4927395852	 1.5981780569	 1.1782860355	-0.279243
C	 2.6246124764	 1.3323762844	-0.0297442311	-0.139593
H	-0.908550292	 1.7609934306	 0.1698261214	 0.086888
H	 0.5041680746	 3.9880000932	 0.2190843915	 0.131726
H	 4.5125283482	 2.4906803054	-0.6209255758	 0.120336
H	 4.3320786073	 0.9342634884	 1.3546361626	 0.134717
H	 3.0223308165	 1.9890309666	 2.0741635934	 0.132342
H	 2.7635152667	 0.4255731762	-0.6031287291	 0.123982
