17
gdb 61382	3.81551	0.76191	0.72495	2.7523	73.93	-0.2406	-0.0794	0.1612	1560.2653	0.132602	-455.162852	-455.152644	-455.1517	-455.199945	34.544	
C	-0.5485155691	 1.6346560772	 0.1088391201	-0.403973
C	 0.1013662304	 0.2586594583	 0.0063307513	-0.046278
N	 0.9249798065	-0.0487359891	 1.1657039569	-0.336996
C	 2.1294622789	-0.6892558458	 1.0787490821	 0.29334
N	 2.6406849989	-1.0726971145	-0.028171407	-0.51693
C	 2.8169271372	-0.8844999353	 2.4153514709	 0.107091
O	 3.8945861207	-1.4053814156	 2.5165574996	-0.228364
C	-0.9234329004	-0.8615155506	-0.1930034039	 0.147531
O	-2.082775595	-0.6834774588	-0.4594102015	-0.235374
H	 0.2124418932	 2.4175135872	 0.1433495712	 0.126912
H	-1.1999414903	 1.8023452032	-0.7507323136	 0.149151
H	-1.1724398426	 1.7090423351	 1.0060754773	 0.121629
H	 0.7801109721	 0.2091301485	-0.8557064011	 0.154119
H	 0.5491319258	 0.153973645	 2.0781744298	 0.248842
H	 3.554974269	-1.4849840434	 0.16387632	 0.239133
H	 2.2637125602	-0.5142011278	 3.308812086	 0.083076
H	-0.5008325155	-1.8805283736	-0.0540716583	 0.09709
