13
gdb 19332	5.01592	1.70761	1.52207	3.4575	62.5	-0.258	0.0032	0.2611	806.4374	0.095671	-361.394555	-361.388373	-361.387429	-361.424787	24.021	
N	 0.0842154492	-1.1485493014	-0.0393427978	-0.347339
C	 0.0500899465	 0.0094931792	-0.0256590701	 0.192675
C	-0.0087878261	 1.4265775278	 0.0217025911	 0.168637
C	 0.2425614895	 2.3340764311	-1.1688546583	-0.319489
C	 1.1598999084	 2.4347180398	 0.0070295781	-0.141915
C	 0.4888499161	 3.174406552	 1.2053455415	 0.026849
O	-0.8346240774	 3.5818756521	 0.8247249858	-0.229051
C	-0.6212306426	 2.2325311428	 1.2278046936	-0.036116
H	 0.6544487471	 1.8274814981	-2.0343328342	 0.144548
H	-0.4697516594	 3.1224916625	-1.3735928142	 0.156008
H	 2.2113419001	 2.1865334971	-0.032661977	 0.127929
H	 0.9846270285	 3.7284747443	 1.9912986954	 0.127473
H	-1.2260479899	 1.8193400947	 2.024684426	 0.129791
