18
gdb 107545	1.9318	1.85706	1.14314	1.8612	72.44	-0.2294	-0.0316	0.1978	1103.1816	0.14567	-439.023118	-439.014171	-439.013227	-439.057433	32.404	
C	-0.2068874871	 1.4659356393	-0.0105545155	-0.270608
O	-0.1429425889	 0.099099744	-0.4199939779	-0.28461
C	-1.2793427482	-0.6078253272	-0.1385700714	 0.418702
C	-1.6603620335	-1.0795927313	 1.2478944821	-0.332574
C	-1.4718010677	-2.079300282	 0.1367416432	-0.106011
N	-2.7249377526	-2.1321138218	-0.6621729893	-0.345622
C	-2.4935535161	-0.7101923885	-1.0894340916	-0.148098
C	-3.670239885	 0.2202621969	-0.8897253273	 0.147438
O	-3.5655660721	 1.4174222982	-0.7865855681	-0.244579
H	 0.7260251774	 1.931809801	-0.3337114805	 0.124206
H	-1.0617627344	 1.9745401216	-0.4700434961	 0.144105
H	-0.2945259415	 1.5444900282	 1.0812146592	 0.112766
H	-0.834101223	-1.0329949623	 1.9503535643	 0.122993
H	-2.6471242431	-0.9158409321	 1.6725251843	 0.116962
H	-0.7732275214	-2.90524015	 0.1728911277	 0.110087
H	-2.6127545334	-2.7572056921	-1.4544806374	 0.227732
H	-2.1534871741	-0.6260055925	-2.1295912373	 0.115303
H	-4.6589512253	-0.2869254995	-0.8392968783	 0.091807
