16
gdb 43977	3.21168	1.61125	1.45248	1.6545	69.01	-0.2601	0.0131	0.2732	931.4587	0.126016	-437.838548	-437.831721	-437.830777	-437.869658	27.187	
N	 0.0117686188	 1.1832177455	-0.1026659608	-0.552758
C	-0.0292939709	-0.0603423077	 0.0322199174	 0.386339
O	 1.0109231353	-0.9866539263	 0.1954393335	-0.297484
C	 0.0516011473	-2.0660612456	 0.0202871859	 0.322042
C	-0.9451534186	-2.0902183319	 1.1139422353	-0.358102
C	-1.1173091342	-1.0892507013	-0.0286331136	 0.058992
C	-1.9322408692	-1.4843488356	-1.2379353348	-0.155494
O	-1.440626222	-2.7930204033	-1.5982592199	-0.263783
C	-0.0593870278	-2.8963124524	-1.23177963	-0.151373
H	 0.9716761797	 1.5309289172	-0.067827568	 0.234602
H	-1.6550920308	-2.9107308982	 1.1023842156	 0.148808
H	-0.6578768149	-1.7281879623	 2.0940013806	 0.142667
H	-3.0056617869	-1.595652562	-1.0667792903	 0.124254
H	-1.7750972453	-0.757326906	-2.0463089278	 0.121189
H	 0.6123176322	-2.4747262692	-1.9947754084	 0.115317
H	 0.1547167272	-3.9617832008	-1.1155461448	 0.124783
