18
gdb 10191	2.81078	1.31378	1.0325	2.3703	71.07	-0.2542	0.0344	0.2886	1196.2577	0.150451	-384.888548	-384.878875	-384.87793	-384.923797	33.919	
C	-0.0641966705	 1.4821988688	-0.163823157	-0.386326
C	 0.0007595146	-0.0325604785	-0.0751164904	-0.040079
O	 0.6468286412	-0.5162951252	-1.2462268459	-0.263474
C	 0.7510790038	-1.9422560945	-1.3200054071	-0.11465
C	-0.4934908757	-2.4881829262	-2.0480647427	-0.052218
O	-0.6687691104	-1.8569059011	-3.2925653727	-0.416141
C	 1.9908762051	-2.2791114241	-2.0166435595	 0.350824
C	 3.0044087071	-2.592041554	-2.5794500863	-0.441401
H	 0.940716148	 1.9028973166	-0.2560678201	 0.134455
H	-0.6483822179	 1.7939988871	-1.034344581	 0.126609
H	-0.5349006311	 1.8937560903	 0.7338769597	 0.119802
H	 0.5694492785	-0.3453171927	 0.8145771259	 0.098905
H	-1.0111656697	-0.4553641049	 0.0183079669	 0.095652
H	 0.7865332364	-2.3664843908	-0.3043775548	 0.097568
H	-0.3805503719	-3.5617814056	-2.2270102093	 0.117261
H	-1.3680694144	-2.3459391582	-1.391062949	 0.084618
H	-0.4899033925	-0.9203974441	-3.1375636988	 0.288385
H	 3.9004627394	-2.8601718129	-3.0825412978	 0.200211
