16
gdb 14932	4.51292	1.48874	1.16447	3.6583	69.71	-0.2504	-0.0568	0.1936	993.1445	0.131352	-383.76104	-383.753876	-383.752932	-383.792604	26.529	
O	-0.0516143878	-0.0317713161	 0.0317038914	-0.276696
C	-0.0076921718	 1.1785927608	 0.0157854159	 0.094554
C	 1.23651428	 1.9597206501	-0.0167246341	 0.189249
C	 1.1931539851	 3.2990926571	-0.0125358307	-0.133461
C	 2.4405749974	 4.1309782608	 0.0009462679	-0.261073
C	 3.6473523467	 3.2572176167	 0.3647924528	-0.082486
O	 3.6422982632	 2.0520776569	-0.3772912379	-0.243804
C	 2.5491298306	 1.2159867001	-0.0491480041	-0.164063
H	-0.9372152988	 1.7922264255	 0.0264270974	 0.069352
H	 0.229202682	 3.8054287783	-0.01653897	 0.10392
H	 2.5859507389	 4.5907537781	-0.9865742508	 0.131475
H	 2.3404713935	 4.9607667444	 0.7120249254	 0.115664
H	 4.5880322082	 3.7620003872	 0.130130467	 0.113444
H	 3.6363565427	 3.043396768	 1.4463740434	 0.094746
H	 2.7140294328	 0.7141214165	 0.9198748645	 0.111614
H	 2.5126685873	 0.4285684355	-0.807412688	 0.137566
