17
gdb 93616	2.56259	1.3955	1.11729	5.6681	73.89	-0.2571	0.0013	0.2585	1131.8973	0.137453	-418.069427	-418.060795	-418.059851	-418.103191	30.727	
C	-0.0205208379	 1.3739852994	-0.0382131469	-0.347598
N	 0.0207659699	-0.0711977482	-0.0186838237	-0.067762
C	-1.1096360956	-0.8892061744	-0.4227682869	-0.168514
C	-0.7010605142	-2.3076609183	 0.0199037141	-0.239597
C	 0.8442846005	-2.2700574335	-0.0038295414	-0.269858
C	 1.3991324311	-2.7152188446	-1.2802498112	 0.279245
N	 1.8075870811	-3.0676175174	-2.3025572695	-0.319887
C	 1.1722530485	-0.7636940721	 0.2158774132	 0.413616
O	 2.2476882794	-0.3085751607	 0.527990403	-0.377232
H	 0.9581560034	 1.7387674576	 0.2768767903	 0.171875
H	-0.2381035194	 1.7485578927	-1.0461470345	 0.133567
H	-0.788795135	 1.751765668	 0.6459948131	 0.129428
H	-2.0276419667	-0.552728711	 0.0708051434	 0.120374
H	-1.2738096734	-0.828562695	-1.5082597102	 0.126101
H	-1.0316797829	-2.4868765819	 1.0458860225	 0.128011
H	-1.1219018939	-3.084742666	-0.6181511776	 0.137601
H	 1.302457865	-2.8529751046	 0.7983220122	 0.150627
