18
gdb 57016	2.40861	1.37083	0.91459	3.8673	78.47	-0.2445	0.0327	0.2772	1256.9197	0.145972	-401.936628	-401.927155	-401.926211	-401.971364	34.328	
C	-0.1417350556	 1.6223558923	-0.0256562919	-0.393245
C	-0.0321943545	 0.0831952284	-0.0019355642	-0.181579
C	-1.360264631	-0.5248851502	 0.0577832119	 0.341742
C	-2.4687786323	-0.9868827875	 0.092709513	-0.456838
C	 0.7545783303	-0.4412709805	-1.2153313268	-0.136873
C	 2.2809810182	-0.1218639215	-1.267803272	-0.189834
N	 2.5163935238	-1.5658300415	-1.2569501648	-0.321312
C	 1.1941142395	-1.9353347092	-1.182391676	 0.418633
O	 0.6472021674	-3.0010886616	-1.1149600469	-0.351342
H	 0.8509169858	 2.0829628412	-0.0290233943	 0.115071
H	-0.6815755815	 1.9545315181	-0.9173321749	 0.129159
H	-0.6850388343	 1.9808148907	 0.8521277181	 0.131643
H	 0.5195572	-0.2072800142	 0.9036951836	 0.110049
H	-3.4354351551	-1.4247936989	 0.1286154874	 0.19744
H	 0.2285474789	-0.1915206532	-2.1407218999	 0.110663
H	 2.6246630839	 0.3869605233	-2.1737298811	 0.113974
H	 2.6702001857	 0.3998589215	-0.386403049	 0.111338
H	 3.3643375008	-2.1127203871	-1.2693147623	 0.251311
