23
gdb 112009	2.46982	1.36951	1.0666	0.27	90.69	-0.2225	0.0225	0.245	1264.603	0.206041	-351.163825	-351.154677	-351.153733	-351.197335	35.906	
C	 0.0526688651	 1.6059881927	-0.076201686	-0.387292
C	 0.0845212677	 0.0746247519	-0.0444258546	-0.174753
C	 0.6785876181	-0.5116147293	 1.2511471807	-0.086927
C	-0.1369519808	-0.2685244341	 2.5086099249	-0.092267
C	-0.3513086775	-1.3904944244	 3.1998111182	-0.084786
C	 0.2141860879	-2.5811716128	 2.5043633236	-0.125674
C	-0.4067582147	-2.8774105508	 1.1491231078	-0.324969
C	 0.8501253284	-2.0436772763	 1.2315629525	 0.345188
C	 2.1389650795	-2.5995051555	 0.6740079306	-0.486383
H	 1.0560998719	 2.0262196748	 0.0562732616	 0.112894
H	-0.3363465495	 1.9712494396	-1.0318970849	 0.111065
H	-0.5839537021	 2.0148833914	 0.7151403123	 0.116955
H	-0.9282852348	-0.3185652833	-0.1897332025	 0.09618
H	 0.679777707	-0.2891496173	-0.8918482045	 0.09407
H	 1.6747935145	-0.055249445	 1.3774088656	 0.069555
H	-0.4986181791	 0.7143823132	 2.7888289947	 0.091001
H	-0.8971735565	-1.4584868613	 4.1346077595	 0.09123
H	 0.6534036346	-3.3963245195	 3.0704331003	 0.080447
H	-0.2932862458	-3.8834390774	 0.7559416312	 0.10317
H	-1.3580086919	-2.4084231005	 0.9208601935	 0.108391
H	 2.249058516	-2.3616001482	-0.3914272954	 0.115875
H	 3.009402734	-2.1855776599	 1.1965670481	 0.114957
H	 2.1789601481	-3.6892089178	 0.770952633	 0.112074
