16
gdb 35542	3.90543	1.1695	1.10372	4.6642	76.	-0.2563	-0.0204	0.2359	1123.8241	0.125209	-400.726169	-400.718769	-400.717825	-400.758466	28.17	
N	 0.0176519171	-1.1132819761	 0.251770622	-0.316497
C	-0.0070802886	 0.0336625386	 0.1165108527	 0.274305
C	-0.0141973959	 1.4952618531	-0.0803606787	-0.043404
O	-0.765782258	 2.120382841	 0.9744229992	-0.277467
C	-0.000687895	 3.2125720478	 1.4597232033	 0.089966
C	 0.7501734729	 3.2384276727	 2.8429507616	-0.25605
C	 2.0469106274	 3.6882534704	 2.0607648752	-0.31135
C	 1.3538378197	 3.0942103911	 0.8539123156	 0.227582
C	 1.4052203758	 2.0692151633	 0.0147831544	-0.24721
H	-0.5069377495	 1.6956489411	-1.0443690457	 0.133404
H	-0.5436985354	 4.1507286265	 1.2892445654	 0.094266
H	 0.3660389916	 3.9201969256	 3.6041183649	 0.11323
H	 0.8584650091	 2.230995673	 3.247291426	 0.13355
H	 2.1353042053	 4.777624389	 2.027882509	 0.125678
H	 3.0046468975	 3.2556574585	 2.3510865865	 0.12864
H	 2.2586587061	 1.5639559645	-0.4155354414	 0.131357
