15
gdb 132634	3.22797	1.32403	0.94197	4.6066	72.39	-0.2105	-0.0059	0.2046	1143.909	0.114908	-458.158242	-458.150665	-458.14972	-458.190003	29.827	
N	 0.0525401816	 1.4162971238	 0.0760208107	-0.61458
C	 0.0148411999	 0.0024078023	 0.0130615291	 0.195952
C	-1.1525180824	-0.7417553344	 0.0598492519	-0.064365
N	-1.2002475616	-2.0833965475	 0.0562810081	-0.34292
C	-0.0469164889	-2.6999663697	-0.0168478548	 0.342892
F	-0.0876991267	-4.0345701919	-0.0393510392	-0.083361
C	 1.201331363	-2.0899890636	-0.0654941203	-0.37155
C	 1.2431697976	-0.6981644667	-0.0362470021	 0.330682
N	 2.4207448994	 0.0286494014	-0.0952277613	-0.59874
H	 0.5223617676	 1.8199682739	-0.7293242763	 0.250033
H	-0.875624578	 1.8167479366	 0.1404427379	 0.246087
H	-2.111964395	-0.22916792	 0.1090657704	 0.097647
H	 2.1042637898	-2.6877928994	-0.10514638	 0.099368
H	 3.2585118224	-0.4876270272	 0.1303186354	 0.252924
H	 2.3673756312	 0.9162820924	 0.3890677306	 0.259929
