19
gdb 122054	2.51001	0.76625	0.61909	2.8103	75.49	-0.2567	-0.0585	0.1982	1775.4116	0.154662	-460.160935	-460.150099	-460.149155	-460.199204	35.523	
C	-0.0459352642	 1.3612879763	 0.034464635	-0.233121
O	 0.0295007063	-0.0456377475	-0.0020799717	-0.231459
C	 0.6446145864	-0.5323932136	-1.1701306579	-0.058274
C	 0.6459176031	-2.0563235296	-1.0920864199	-0.23981
C	 1.298958407	-2.715420002	-2.3327381013	-0.164876
C	 2.7837529537	-2.3835959332	-2.3710992535	 0.15744
O	 3.32714675	-1.7833215142	-3.2594340044	-0.239134
C	 1.1082929827	-4.2235330633	-2.2309869359	 0.149539
O	 0.4576484367	-4.8764176354	-3.0012903888	-0.233675
H	 0.9527533817	 1.8241933233	 0.0033232736	 0.109017
H	-0.6354822294	 1.7598384021	-0.8058307617	 0.109003
H	-0.5346321098	 1.6366599006	 0.9717543214	 0.131637
H	 0.0994435782	-0.1983606188	-2.0695567709	 0.098658
H	 1.6738022474	-0.1438990951	-1.2597189973	 0.100575
H	 1.171294949	-2.3652827167	-0.1800904474	 0.12014
H	-0.3870150976	-2.4060711915	-0.9964588824	 0.134015
H	 0.8356923812	-2.3704654778	-3.2603852906	 0.119777
H	 3.3530870465	-2.7377728392	-1.4798642167	 0.084581
H	 1.6081554012	-4.6929970945	-1.3528232499	 0.085967
