18
gdb 108546	2.7683	1.65697	1.24765	1.4604	70.69	-0.2395	0.0648	0.3043	1015.9501	0.149328	-439.005603	-438.998196	-438.997251	-439.037525	29.268	
O	 0.0750950458	 1.3919481711	 0.0664602632	-0.418668
C	 0.0086102397	-0.0187018214	-0.1233373662	-0.193009
C	-1.4103709458	-0.5307979772	-0.0782430346	 0.314652
C	-2.4362714117	 0.0069892154	-1.0691662769	-0.144411
O	-3.6249646239	-0.7180310232	-0.6895207169	-0.278971
C	-3.1603829011	-1.5060624439	 0.3752050697	 0.128372
C	-1.7253539178	-2.055744397	 0.1044655727	-0.135255
N	-1.3494436608	-1.9470586451	 1.5606776107	-0.340442
C	-2.1729285544	-0.716389149	 1.2852337259	-0.129569
H	-0.1433881275	 1.5704675075	 0.9866068008	 0.285772
H	 0.4404806808	-0.2024324549	-1.1139080771	 0.108983
H	 0.6125710723	-0.5610662151	 0.6144706233	 0.119247
H	-2.6006584464	 1.0845204029	-0.9691697089	 0.117953
H	-2.1803035964	-0.2160242375	-2.1123996442	 0.106162
H	-3.9462131498	-2.1366704063	 0.7923258959	 0.089191
H	-1.4058172537	-2.887103559	-0.5259171379	 0.082161
H	-1.9038583735	-2.6136739771	 2.1069907304	 0.211151
H	-2.3872388857	 0.0334879501	 2.0493377101	 0.076681
