18
gdb 47889	2.68594	1.58036	1.15253	1.3997	76.87	-0.2484	-0.0478	0.2006	1073.2492	0.149505	-439.073141	-439.065242	-439.064298	-439.1057	30.286	
N	 0.2932841	 0.8275503951	-0.9741745724	-0.477963
C	 0.0422913105	 0.134343514	 0.0614624847	 0.322576
O	 0.9393112263	 0.0148973904	 1.1028184811	-0.266343
C	 1.6706936714	-1.2119324219	 1.2459085572	-0.103861
C	 0.8193611115	-2.4750970683	 1.3450131544	-0.086827
O	-0.0588209909	-2.5193325257	 2.4489540809	-0.259715
C	-0.9956830121	-1.4389672846	 2.5658166526	-0.11139
C	-1.7507429915	-1.1423163147	 1.2906198128	-0.117172
C	-1.2850191214	-0.4803078679	 0.2239136233	-0.041603
H	 1.2444705485	 1.1984235131	-0.9156747419	 0.224445
H	 2.3694537115	-1.3238325802	 0.4033904516	 0.105935
H	 2.2508465132	-1.0762831663	 2.1624105664	 0.126903
H	 0.2821100579	-2.6397801174	 0.4007816913	 0.108299
H	 1.5020306262	-3.3215633712	 1.4798497767	 0.116814
H	-1.6937629757	-1.7701277189	 3.3387332367	 0.109734
H	-0.4902184221	-0.5373957319	 2.9254741244	 0.123066
H	-2.7615366978	-1.5374079723	 1.2283544171	 0.109084
H	-1.9216367755	-0.3365883513	-0.6432642472	 0.118019
