17
gdb 53473	2.57803	0.96971	0.80405	1.7736	78.09	-0.2381	-0.0318	0.2063	1474.4766	0.132536	-421.789839	-421.779832	-421.778888	-421.827782	33.546	
C	 0.8755597382	 0.6446352441	 0.6653900379	-0.4967
C	 0.2504703373	-0.5278435026	 0.0714603062	 0.059974
C	-0.253045745	-1.5012034819	-0.426264726	 0.078352
C	-0.9100269791	-2.6689914865	-1.0020153184	-0.431387
C	-2.201165113	-2.9703183125	-0.2246424325	 0.357614
O	-3.2904303595	-2.6325621651	-0.6177332198	-0.298005
C	-2.0668831341	-3.7046011703	 1.0820575361	-0.008442
C	-1.460648557	-5.0525440813	 1.1176177881	-0.172124
O	-0.7622033996	-3.9206852035	 1.6126692681	-0.207594
H	 1.3557720596	 0.3982735081	 1.618642389	 0.151306
H	 1.6436166227	 1.061740212	 0.0047221936	 0.149319
H	 0.1399342788	 1.4334888248	 0.8569293163	 0.150223
H	-1.1954797244	-2.488823272	-2.0430439042	 0.146136
H	-0.2347987133	-3.5318452491	-0.9677484072	 0.139528
H	-2.8470192941	-3.4720829748	 1.8048525376	 0.122387
H	-1.8126810194	-5.7615183	 1.864745673	 0.133556
H	-1.0622828583	-5.4928901696	 0.2046189221	 0.125858
