22
gdb 112829	2.98029	1.14431	0.93839	2.0192	81.45	-0.2263	0.076	0.3022	1322.6205	0.195138	-404.331046	-404.322025	-404.321081	-404.364637	34.843	
C	-0.059823695	 1.568865078	-0.0004237022	-0.395328
C	 0.0520163803	 0.0490189757	-0.003602382	 0.061299
C	 0.7482026098	-0.556646652	-1.2450797023	-0.251894
C	 1.3435508132	-1.8835210191	-0.7276567757	 0.024201
C	 2.5845622977	-2.3533534066	-1.4735691915	-0.095242
O	 2.212743045	-2.6104552029	-2.8210454629	-0.422319
C	 1.5733964742	-1.6095158634	 0.7553457295	-0.044238
C	 2.2264665873	-0.3269404316	 1.1315807603	-0.256106
N	 0.7631639921	-0.4612157485	 1.196060633	-0.103544
H	 0.9281727237	 2.0384816965	-0.0592779471	 0.111534
H	-0.646332269	 1.913613493	-0.85792909	 0.114099
H	-0.5481536346	 1.9189224851	 0.9134413009	 0.124428
H	-0.958145824	-0.3744211464	 0.0695417508	 0.080017
H	 0.0590541059	-0.7052989268	-2.0782734547	 0.112002
H	 1.5426248108	 0.1044052151	-1.610887627	 0.096122
H	 0.5893898646	-2.6761978356	-0.8148326129	 0.08395
H	 3.3644627669	-1.5767902279	-1.4158503511	 0.083363
H	 2.9879151566	-3.2598299285	-0.9935474736	 0.084792
H	 2.9954869617	-2.8967296153	-3.30055636	 0.286681
H	 1.6212495286	-2.4575337458	 1.43368284	 0.085333
H	 2.7106701457	-0.2307968273	 2.0989918403	 0.112918
H	 2.6733284684	 0.2805508644	 0.348880168	 0.107933
