17
gdb 42950	2.50506	1.97172	1.35379	1.9537	70.84	-0.2415	-0.0257	0.2157	950.6792	0.137834	-421.818343	-421.81142	-421.810476	-421.849886	27.345	
O	-0.0719162217	 0.0695820984	-0.6387309062	-0.325908
C	-0.0601207536	 1.1874720488	-0.1861588317	 0.391968
C	-1.2651087958	 2.0445527127	 0.0772592079	-0.148701
C	-1.478231585	 2.5234659953	 1.5053559336	-0.285456
C	-0.7923170805	 3.4217893948	 0.5297993695	-0.058263
C	 0.7381987089	 3.3939449252	 0.5827878324	 0.096851
O	 1.3054991486	 3.1840928391	 1.9040678394	-0.287877
C	 1.8375123314	 1.8958040017	 1.526653142	-0.093754
C	 1.2039581763	 2.0012182773	 0.1197789537	-0.187694
H	-2.1378026026	 1.8828459658	-0.5433571679	 0.110474
H	-2.5044258181	 2.7513456379	 1.7696509149	 0.127193
H	-0.8898782955	 2.1014426382	 2.3107953214	 0.142089
H	-1.2890032698	 4.3217886005	 0.1880191523	 0.096409
H	 1.1789832515	 4.270218723	 0.0986744277	 0.084799
H	 2.933325388	 1.8939952443	 1.5262375938	 0.113927
H	 1.4779543043	 1.0850532009	 2.171040701	 0.114237
H	 1.8992240537	 1.929906586	-0.7169879239	 0.109705
