18
gdb 22095	2.79763	0.9723	0.7536	1.8094	80.16	-0.2497	-0.0433	0.2064	1490.5843	0.143944	-439.012896	-439.002729	-439.001785	-439.048268	37.11	
C	-0.0581508067	 1.6053760908	-0.1911272935	-0.388278
C	 0.0283262167	 0.0944877172	-0.0096781957	 0.131937
O	-1.2762773536	-0.3629346694	 0.3041001188	-0.439384
C	 0.5811134396	-0.5861179198	-1.2735455534	-0.286496
C	 0.7662671317	-2.0869843457	-1.1735898833	 0.175059
N	 0.273146889	-2.7017180038	-0.1567187135	-0.172351
O	 0.5075642739	-4.0681229874	-0.178341137	-0.386106
C	 1.4781645125	-2.7376295671	-2.2230268087	 0.316022
C	 2.0867244982	-3.223922167	-3.1407121083	-0.431072
H	 0.9275808318	 2.0373705897	-0.3881395785	 0.108698
H	-0.7229521847	 1.8525881689	-1.0251363273	 0.12088
H	-0.4659148344	 2.0629590385	 0.7137925514	 0.125135
H	 0.7181510406	-0.1262363292	 0.821433013	 0.06964
H	-1.1887410737	-1.3122924909	 0.4609145544	 0.284238
H	-0.089657631	-0.3780995702	-2.1180493928	 0.131699
H	 1.551589262	-0.1478278331	-1.5369868483	 0.120113
H	 0.0919133609	-4.3676649242	 0.6381510965	 0.311269
H	 2.6220975571	-3.6722780372	-3.9414021638	 0.208998
