19
gdb 96061	3.14642	0.99071	0.84302	4.0217	72.19	-0.25	-0.0226	0.2274	1368.8541	0.157833	-460.166782	-460.157369	-460.156425	-460.20248	33.004	
O	-0.07949586	 1.4928923137	 0.423571037	-0.432042
C	-0.0204231661	 0.1171739264	 0.0717808726	 0.063439
C	 0.7163119645	-0.7303983347	 1.1228617968	-0.08319
O	-0.2550746869	-1.1955957659	 2.0558389686	-0.26199
C	-1.5429400487	-0.7239276282	 1.6751569179	-0.070577
C	-1.4479737102	-0.4450994922	 0.1678015825	-0.02522
C	-2.5457596525	 0.4595129306	-0.4029380422	-0.296128
C	-3.8954471088	-0.2239152091	-0.4017835585	 0.158551
O	-4.9034040929	 0.2328136671	 0.0708572158	-0.237705
H	 0.8197392181	 1.8257822452	 0.5005984788	 0.288426
H	 0.412022519	-0.0101863664	-0.9307229807	 0.069016
H	 1.2158625062	-1.5935630126	 0.661142269	 0.098994
H	 1.4800857346	-0.1331809104	 1.6402892109	 0.091585
H	-2.2784620705	-1.4927944194	 1.931747057	 0.110892
H	-1.798726636	 0.1977988226	 2.2181977301	 0.109449
H	-1.4546450493	-1.4071673465	-0.3615886746	 0.085444
H	-2.614099276	 1.4013111737	 0.1437997115	 0.142203
H	-2.3049517614	 0.6935810442	-1.4502268435	 0.120882
H	-3.8996136431	-1.226111758	-0.8955592491	 0.067972
