19
gdb 33141	3.09507	1.02452	0.781	1.9827	78.61	-0.2132	0.0298	0.2431	1462.825	0.158234	-423.045147	-423.035733	-423.034788	-423.080241	33.282	
C	-0.0456408924	 1.3878207059	 0.000227083	-0.222734
O	-0.0179807309	-0.0185517576	 0.005191907	-0.23076
C	 0.6324145081	-0.5571979151	-1.1234163371	-0.175903
C	 0.6147648921	-2.0483611536	-1.0367726587	 0.137232
C	 0.0703027206	-2.8015829668	-0.0468257098	-0.085798
O	 0.242683222	-4.1265470358	-0.3017941967	-0.152153
C	 0.9122730078	-4.21190091	-1.4816222744	-0.094244
C	 1.1734927632	-2.9779887644	-1.9892431898	 0.146427
C	 1.8873896555	-2.6479472841	-3.263043708	-0.508182
H	 0.9690947276	 1.8170179749	 0.0016551865	 0.1047
H	-0.5830173919	 1.7833709726	-0.8765070701	 0.104707
H	-0.5652797514	 1.7076981332	 0.9064384386	 0.128751
H	 0.1359737359	-0.2174495956	-2.0513885841	 0.09494
H	 1.6722210225	-0.1850939457	-1.181489208	 0.094953
H	-0.4490584764	-2.5507908674	 0.8612820906	 0.145316
H	 1.1303048698	-5.2087517883	-1.8295194039	 0.130752
H	 1.2501401459	-2.0768419005	-3.9489375671	 0.127851
H	 2.7831138292	-2.0420459208	-3.0807253735	 0.127827
H	 2.2031742327	-3.5558166009	-3.7842435245	 0.126318
