20
gdb 81563	4.12292	1.06024	0.98922	3.7146	81.37	-0.2273	0.0196	0.2469	1285.7617	0.169767	-403.111145	-403.10214	-403.101196	-403.145145	33.499	
C	 0.0876066519	 1.71610548	 0.0379450638	-0.442545
C	-0.0283978119	 0.2034839314	-0.0117767772	 0.058161
C	 1.0041653616	-0.6940738335	-0.7697721915	-0.058399
C	 2.0346512104	-0.4395260839	 0.370193824	-0.239074
C	 0.6575593999	-0.7268368635	 1.0441974476	-0.032598
N	 0.4441512014	-1.8391802982	 0.0500584866	-0.09871
C	 1.0062835009	-3.0964715144	 0.1992687373	 0.35719
C	 1.314835314	-3.8109664482	-1.1066179225	-0.482653
O	 1.1578534418	-3.6109175527	 1.2901988428	-0.355916
H	 1.0993034156	 2.0752705238	 0.2394397919	 0.121882
H	-0.2363419487	 2.1521274752	-0.9131778013	 0.124539
H	-0.5674597434	 2.1172519811	 0.8186478782	 0.127572
H	-1.0563336418	-0.1069517008	-0.2160785993	 0.087221
H	 1.1697743398	-0.7820800348	-1.8441614298	 0.089581
H	 2.794794708	-1.2092553268	 0.5121607225	 0.118743
H	 2.4589302298	 0.5607609915	 0.4664240356	 0.100783
H	 0.4272591174	-0.8608267024	 2.0991127021	 0.107354
H	 2.2677333594	-3.450221892	-1.511507698	 0.135691
H	 1.4046585737	-4.880070436	-0.9130122834	 0.145692
H	 0.5427791803	-3.6282129057	-1.8583802598	 0.135484
