17
gdb 64882	2.82853	1.13413	0.94875	3.2563	69.66	-0.2534	-0.0435	0.2099	1251.9087	0.131841	-458.961479	-458.952083	-458.951139	-458.996903	32.726	
C	-0.2350042128	 1.7837592601	-0.0826268455	-0.458462
C	 0.1398690986	 0.3182056314	 0.0534126597	 0.337574
C	 0.6678905809	-0.4217987602	-1.1902967506	-0.360955
C	 1.9856958967	-0.5539332237	-0.3817974933	 0.050089
O	 1.4115847049	 0.1385000779	 0.7503198802	-0.337984
C	 2.3882007174	-1.9761122759	-0.0457023801	 0.141091
O	 3.2486161269	-2.5804739552	-0.6291153464	-0.235067
C	-0.9159072418	-0.4409484374	 0.8478911418	 0.125148
O	-1.6307740802	-1.2971277972	 0.398316865	-0.242504
H	 0.5739082833	 2.3341152465	-0.5709810038	 0.135862
H	-1.1472257144	 1.8922437167	-0.6788025051	 0.138641
H	-0.4076468579	 2.2312382357	 0.9017602182	 0.136254
H	 0.1408109859	-1.3524013926	-1.4054683048	 0.146323
H	 0.7483576552	 0.1769419582	-2.0972152662	 0.126541
H	 2.8458598503	-0.0211709007	-0.7991999066	 0.109842
H	 1.7949111604	-2.4275372402	 0.7816890269	 0.091464
H	-0.9525294036	-0.1419539134	 1.9194809405	 0.096144
