18
gdb 72973	2.61696	1.50381	1.21316	3.281	77.25	-0.2522	0.0248	0.277	1080.2004	0.146285	-401.930317	-401.921467	-401.920523	-401.963375	33.131	
C	-0.1273480004	 1.5140919391	 0.0571298164	-0.500222
C	 0.0352778069	 0.0321852087	 0.1161602574	 0.433812
O	-1.1370274588	-0.7695220571	-0.0445621269	-0.314802
C	-0.6528135957	-1.7088105476	 0.9565734742	-0.12211
C	 0.6620380128	-0.9563452603	 1.0679743316	-0.211069
C	 1.2563716231	-0.7784068564	-0.3430085673	 0.087191
C	 1.173036249	-1.8324871464	-1.4350229496	-0.480737
C	 2.4900729248	-0.0332573642	-0.3178997566	 0.237039
N	 3.480703391	 0.5659552256	-0.3098002739	-0.352217
H	 0.8325498521	 2.0153609045	 0.1993731146	 0.156908
H	-0.525916802	 1.807096227	-0.9202745756	 0.141917
H	-0.8264933623	 1.8550243686	 0.8261851009	 0.134742
H	-1.2619407559	-1.6431492903	 1.8638256317	 0.125266
H	-0.6357713693	-2.7411466111	 0.592310086	 0.117121
H	 1.2574004656	-0.8095315668	 1.958712661	 0.124607
H	 0.1404903179	-2.1648900373	-1.5533134791	 0.148929
H	 1.5029783906	-1.4139358346	-2.389604039	 0.140188
H	 1.8059221506	-2.6947390614	-1.2054669556	 0.133435
