16
gdb 9073	4.61004	1.06148	0.98633	4.8896	66.33	-0.2693	0.0111	0.2804	1170.8903	0.130041	-379.965648	-379.956752	-379.955807	-380.000072	30.479	
C	-0.6884937518	 1.4544844167	-0.2721148735	-0.382548
C	-0.1201545434	 0.0352783544	-0.0915042792	-0.142024
C	-1.2243706799	-1.0369760616	 0.1159828474	-0.165175
N	-1.9669490549	-0.850701886	 1.347137839	-0.279425
C	-3.2187113675	-0.3092254265	 1.3803660384	 0.154763
O	-3.8088039262	 0.132565637	 0.4193638273	-0.315654
C	 0.7093636135	-0.3497638576	-1.2375998561	 0.267492
N	 1.3521941097	-0.6669425155	-2.1442405442	-0.316626
H	 0.1185639359	 2.1800603956	-0.3974256551	 0.134419
H	-1.3412719639	 1.5019679123	-1.146795584	 0.152348
H	-1.2753224266	 1.7322081566	 0.6056158558	 0.13733
H	 0.5331366199	 0.0235155076	 0.7912203351	 0.121659
H	-1.9415049856	-0.9850321149	-0.7063111919	 0.164917
H	-0.7700774656	-2.0321116884	 0.1142242762	 0.13051
H	-1.5855549677	-1.2138707389	 2.2062641291	 0.253227
H	-3.6419735259	-0.3168003308	 2.4038060757	 0.084787
