19
gdb 90679	3.43179	1.02515	0.99326	3.5559	76.64	-0.2357	0.0251	0.2609	1289.6217	0.159788	-419.20257	-419.193868	-419.192923	-419.235988	33.2	
C	-0.7359345234	 0.9140074331	 0.3259134126	-0.405052
C	 0.1924191771	-0.2146510261	-0.0823212905	 0.079716
C	 1.4251945146	 0.0545093968	-0.9984914175	-0.291503
C	 2.2654793063	-0.5510452584	 0.12232288	-0.011455
C	 2.074705996	 0.1993545472	 1.3869008793	-0.110107
N	 1.0662716912	-0.8141046226	 1.0024894219	-0.176813
C	 2.9183953688	-0.1452680172	 2.5903472191	 0.381192
N	 2.8143295692	-1.443638161	 2.9907165404	-0.533385
O	 3.6463446263	 0.6806194541	 3.1071449927	-0.370063
H	-0.1956406693	 1.7861063485	 0.7047592103	 0.126031
H	-1.3280902643	 1.2400511401	-0.5357549341	 0.123659
H	-1.4276848185	 0.5765875058	 1.1045352161	 0.130489
H	-0.400557974	-1.0421693381	-0.4813777921	 0.091767
H	 1.4151088174	-0.5337443011	-1.9174510906	 0.115669
H	 1.6478354299	 1.0960880485	-1.2483188095	 0.112052
H	 3.0563157849	-1.2848629861	 0.0072877419	 0.107948
H	 1.8410382127	 1.2582507965	 1.3389875407	 0.103249
H	 2.0208454083	-1.9741340384	 2.6618455224	 0.269406
H	 3.269076387	-1.7039425018	 3.8504349168	 0.2572
