15
gdb 123704	4.08284	1.71182	1.32492	2.5922	70.14	-0.2174	0.0314	0.2488	915.4227	0.116066	-416.795701	-416.789598	-416.788654	-416.826139	24.792	
C	-0.0418099792	 1.4622779859	 0.1428962694	-0.337254
C	 1.2749983864	 0.7399692044	 0.0194607202	 0.064722
O	 2.0056925474	 0.4314279183	 1.2073480487	-0.271967
C	 1.2136021228	-0.4020122116	 1.9273838279	 0.469923
C	 1.1805599342	-1.0138457083	 3.158330441	-0.39934
C	-0.0571559786	-1.7134423072	 3.1142208022	 0.019962
N	-0.7377046243	-1.5371064778	 1.9801192452	-0.307205
N	 0.0870638152	-0.7372585525	 1.2623329286	 0.018351
C	-0.0207285038	-0.0499658632	 0.0163450344	-0.024072
H	-0.3252430609	 1.8850998166	 1.1000210085	 0.146845
H	-0.3520545466	 2.0269123783	-0.7295339449	 0.133302
H	 1.9241516744	 0.8722187709	-0.8350948509	 0.12786
H	 1.9088868122	-0.9790460729	 3.9489993007	 0.114368
H	-0.4729935524	-2.3487033565	 3.8831989281	 0.112658
H	-0.4314296569	-0.5881949944	-0.8279342792	 0.131848
