17
gdb 50671	2.46028	1.65668	1.2153	2.4728	68.26	-0.2493	-0.0331	0.2162	1042.2152	0.134783	-458.942267	-458.934118	-458.933174	-458.976214	29.855	
O	 0.2637975301	-0.0540932514	-0.2242215504	-0.237545
C	 0.1269138267	 1.1082123374	 0.0444185453	 0.151835
C	 1.2765951252	 2.1080074104	 0.1483366151	-0.091716
O	 2.532121309	 1.4681301772	 0.2089307726	-0.23146
C	 3.0386842099	 1.4884385346	-1.1089340662	 0.004445
O	 2.6463088178	 2.7273710303	-1.6559366519	-0.274405
C	 1.3769754259	 3.0039150674	-1.1123097876	 0.411128
C	 0.2414100404	 3.3062017665	-2.0545152943	-0.333355
C	 0.8847621207	 4.4060444532	-1.2230114892	-0.329795
H	-0.8788002885	 1.5495305067	 0.2386160547	 0.077461
H	 1.1420367591	 2.7038276846	 1.0598917764	 0.112176
H	 4.1295698369	 1.4426308037	-1.073710179	 0.125238
H	 2.6266917487	 0.6501140871	-1.6917860617	 0.109034
H	 0.4771884888	 3.277813534	-3.1120109111	 0.134269
H	-0.7666974452	 2.9917830512	-1.8072667526	 0.119131
H	 0.321683229	 4.8250447088	-0.3954268377	 0.119158
H	 1.5345937156	 5.1075878182	-1.7339762124	 0.134403
