14
gdb 3695	7.43277	1.99147	1.59071	3.1251	60.16	-0.2023	0.0433	0.2457	759.8392	0.115209	-320.782523	-320.775492	-320.774547	-320.813287	25.486	
C	 0.015005352	 1.4786602513	-0.0488556064	-0.490118
C	-0.0088721491	-0.0144896854	 0.0451850751	 0.364771
N	-0.0847269653	-0.7551090609	-1.0542045428	-0.295545
N	-0.0758195393	-2.0382820781	-0.5969989572	-0.245565
C	 0.0058265396	-2.1187157724	 0.7540700719	 0.396221
N	-0.0427635752	-3.3502253387	 1.4137533586	-0.605328
C	 0.0541701824	-0.8173860411	 1.2141280578	-0.361307
H	 0.9368865604	 1.8938687421	 0.3738180202	 0.122962
H	-0.052215778	 1.7843795436	-1.0951114587	 0.136773
H	-0.8219604185	 1.9273063217	 0.4978337858	 0.124053
H	-0.206349849	-2.7933191727	-1.2475374638	 0.264491
H	 0.6178519316	-4.0266529551	 1.0485110969	 0.248739
H	 0.1111133298	-3.2447876444	 2.4075599861	 0.255011
H	 0.1399329387	-0.4959369097	 2.2399734065	 0.084841
