17
gdb 83551	3.37262	1.48814	1.31803	1.5677	67.33	-0.2412	0.0586	0.2998	986.5684	0.136879	-458.90346	-458.896339	-458.895394	-458.934736	28.7	
O	 0.0603810357	 1.503433278	 0.0416265348	-0.455606
C	 0.0336835306	 0.1119859232	 0.0644416788	 0.185056
C	-1.337406041	-0.6590043075	-0.1070005234	-0.249586
C	-1.8205672757	-0.0418837464	-1.4246522378	-0.099538
O	-0.5648143443	 0.011772769	-2.1692819127	-0.300029
C	 0.3540158152	-0.6338224157	-1.2616981318	-0.084359
C	-0.4614542745	-1.783087076	-0.6782223501	 0.545599
C	-0.0779406637	-3.0856128256	-0.1531505224	-0.303253
O	-0.8927754647	-2.9464557747	-1.3358989155	-0.288766
H	-0.0819783196	 1.760923751	-0.8796288901	 0.295274
H	 0.6002909394	-0.2431539041	 0.9264055467	 0.097489
H	-2.0542532762	-0.7993499844	 0.6988488843	 0.084689
H	-2.5391054038	-0.6711666295	-1.9583753692	 0.125206
H	-2.2243459302	 0.968850745	-1.3108847282	 0.107818
H	 1.3378786972	-0.7165375659	-1.718128134	 0.0917
H	 0.9247171613	-3.4735477853	-0.3264766335	 0.124706
H	-0.5905442958	-3.4910469411	 0.7178415044	 0.123601
