16
gdb 5579	3.32208	1.94774	1.29037	2.3589	67.45	-0.1794	0.0425	0.2219	930.8444	0.133162	-376.123895	-376.115898	-376.114954	-376.156456	29.193	
C	 0.1707297353	 0.687918635	 0.6715518785	-0.325408
N	-0.3779459171	 0.3397932328	-0.6344899659	-0.375004
C	 0.35936722	-0.5410228326	-1.4339690601	 0.268977
C	 0.8684633845	-1.7842475966	-1.1160935411	 0.170586
N	 0.849571277	-2.625075176	 0.0162788382	-0.620539
N	 1.4554206133	-2.2266405973	-2.2970613532	-0.245436
C	 1.2672497578	-1.2712979432	-3.2356035982	 0.00147
N	 0.6122691475	-0.2353559994	-2.749287942	-0.325237
H	 0.1969956194	-0.1961327475	 1.3159492178	 0.111361
H	 1.1900561492	 1.1049093494	 0.6298201565	 0.105989
H	-0.4851335091	 1.420542803	 1.1498055705	 0.121208
H	-0.5882438877	 1.1641999781	-1.1832145568	 0.234809
H	-0.0866836924	-2.724797549	 0.3935567187	 0.248682
H	 1.4509946217	-2.2979722415	 0.7657806428	 0.241699
H	 1.904145239	-3.1211201694	-2.4024237002	 0.262667
H	 1.6293432016	-1.3663795859	-4.2482030957	 0.124176
