23
gdb 121288	2.62555	1.09625	0.86704	1.0209	89.1	-0.2226	0.0356	0.2582	1446.8415	0.205413	-388.302152	-388.292161	-388.291217	-388.337467	36.436	
C	 0.3378918551	 1.5214075038	-0.1933914591	-0.228704
O	 0.2049278867	 0.1311127807	-0.0240169546	-0.229523
C	 0.6604619658	-0.6053207467	-1.1403004564	-0.056028
C	 0.4703934207	-2.1062790381	-0.8882551552	-0.103328
C	 0.9026199631	-2.9465061363	-2.1217095616	-0.235318
C	 2.2959684708	-3.5296991206	-1.7706249161	-0.247564
C	 2.3436091423	-3.3989444044	-0.2694414235	-0.16346
C	 1.3581601132	-2.6466889635	 0.2261387104	 0.338644
C	 1.1102824156	-2.3268720697	 1.6677439857	-0.490358
H	 1.3890632993	 1.8185816947	-0.3363137322	 0.103939
H	-0.2392601997	 1.8835512038	-1.0593463224	 0.102997
H	-0.0448703162	 2.0014410651	 0.7106963877	 0.12576
H	 0.0936489351	-0.3092575481	-2.0404202339	 0.08168
H	 1.7244792103	-0.3858417034	-1.3372932076	 0.084803
H	-0.5920747659	-2.2524808671	-0.6548252556	 0.074478
H	 0.1904250989	-3.7631895039	-2.2700570585	 0.103619
H	 0.9101810911	-2.3602088617	-3.0460668987	 0.091052
H	 2.4069941089	-4.5660048952	-2.1109579598	 0.098724
H	 3.111622209	-2.9671614933	-2.2473144603	 0.100222
H	 3.1199334381	-3.8620760052	 0.3318775597	 0.078883
H	 1.8570844405	-2.7953375304	 2.3152597338	 0.110047
H	 1.1168417472	-1.245897143	 1.834508781	 0.141062
H	 0.1187206602	-2.6794573674	 1.9808637372	 0.118373
