18
gdb 127009	3.01216	1.22652	0.94511	5.0183	74.88	-0.2261	0.0175	0.2437	1264.6202	0.147583	-435.259932	-435.250796	-435.249852	-435.29487	31.985	
C	 0.2618113275	 1.2606742906	 0.955319741	-0.389753
C	 0.8053736279	 0.4461746838	-0.2103042544	-0.067263
O	 0.1702466802	-0.8378031501	-0.322598409	-0.272558
C	 0.602153443	-1.7893721645	 0.5167949049	 0.417592
C	 1.5832616807	-1.8974050204	 1.4813326732	-0.20117
N	 1.5378002012	-3.1655516942	 1.9799200295	-0.188283
N	 0.5983579164	-3.837075841	 1.3887669303	-0.158742
N	 0.0094642619	-3.0043858248	 0.4844657982	-0.034949
C	-1.0821710598	-3.4516368986	-0.351322033	-0.333924
H	 0.4513443734	 0.7651927702	 1.910896581	 0.14283
H	 0.7452964983	 2.2423818335	 0.9764157233	 0.127094
H	-0.816365921	 1.4089019051	 0.8493223836	 0.134071
H	 0.5942495416	 0.9386641863	-1.1624738861	 0.124214
H	 1.8901928032	 0.3042758648	-0.1348635856	 0.122148
H	 2.2903876698	-1.1683300677	 1.8379650228	 0.118046
H	-1.9770988452	-2.8484810149	-0.1750547716	 0.146338
H	-0.8130847917	-3.3844032442	-1.4090895173	 0.147487
H	-1.2801980074	-4.4902556141	-0.0872568406	 0.166821
