19
gdb 72725	2.63087	2.04408	1.61093	2.4482	75.6	-0.2259	0.0547	0.2806	913.9481	0.159262	-422.908847	-422.901611	-422.900667	-422.939824	30.313	
C	-0.0603522386	 1.5651509835	-0.0514114804	-0.456359
C	 0.0011128895	 0.0511923094	 0.0381107959	 0.456332
O	-1.2451754365	-0.4004357339	 0.7001707679	-0.359527
C	-0.4612331844	-0.5500762004	 1.9472353039	-0.191934
C	 0.792124218	-0.7122920921	 1.0593244877	 0.305939
C	 2.083482746	-0.3090886192	 0.2963109542	-0.336774
C	 1.0724404357	-0.5949407007	-0.9491053324	-0.170509
C	 0.8420319577	-2.0782790408	-0.7695444315	-0.083577
O	 0.6798160911	-2.1098811692	 0.6555293848	-0.292481
H	 0.8176629245	 2.0077867468	-0.527976897	 0.116549
H	-0.9329279964	 1.8184919361	-0.6637481533	 0.137104
H	-0.2060054699	 2.0336051239	 0.9270379744	 0.121189
H	-0.5141892078	 0.3596307306	 2.5529773902	 0.107339
H	-0.760010484	-1.4307583652	 2.5164985734	 0.129402
H	 2.3768136173	 0.7349159309	 0.380028049	 0.119502
H	 2.9454595992	-0.9739469272	 0.3796212928	 0.114757
H	 1.2632395033	-0.1989104252	-1.9473618377	 0.077501
H	-0.0663988078	-2.4380747872	-1.2674595552	 0.108682
H	 1.6913622233	-2.7013432601	-1.0753604666	 0.096864
