25
gdb 77894	1.90695	1.47093	1.29319	0.2397	93.3	-0.2368	0.0793	0.3161	1242.4897	0.227675	-352.337622	-352.327124	-352.32618	-352.372138	39.97	
C	 0.3691466703	 1.9381188282	-0.2149513978	-0.429134
C	 0.4416756743	 0.4267877679	-0.0893151235	-0.034979
C	 1.5796067372	-0.5061714047	-0.4168057374	-0.151456
C	 2.962046323	-0.0642266672	 0.0876906593	 0.018557
C	 3.7042009037	 1.1002226988	-0.5651080708	-0.415368
C	 2.3749980279	 0.0282636607	 1.5492239697	-0.046104
C	 2.5150343158	 1.283522259	 2.4079594157	-0.4208
C	 1.0006627941	-0.4315681059	 1.0166359091	 0.316795
C	 0.149836624	-1.4257174346	 1.7610367955	-0.493084
H	 1.2661599841	 2.4538029726	 0.1224977682	 0.124333
H	 0.202085463	 2.2222864952	-1.2604892358	 0.112152
H	-0.4722761288	 2.3282898211	 0.3695907277	 0.110788
H	-0.4904823579	-0.0204056153	-0.4397861505	 0.078936
H	 1.4420792412	-1.2977749212	-1.1474595302	 0.072111
H	 3.6300026372	-0.9318792303	 0.052986514	 0.070892
H	 3.1364705995	 2.032449527	-0.5656023866	 0.116296
H	 4.6543835064	 1.2905394739	-0.052910198	 0.109188
H	 3.9376455242	 0.8614604619	-1.6090432048	 0.11244
H	 2.7961516481	-0.8031816706	 2.1268025903	 0.06833
H	 2.1523341846	 2.1889549765	 1.9185059378	 0.117083
H	 1.9520848878	 1.1704784532	 3.3416613494	 0.11252
H	 3.5636775213	 1.4512145643	 2.6792227322	 0.110429
H	-0.3346380336	-0.9662939581	 2.6322605638	 0.115824
H	-0.6439113548	-1.8297326564	 1.1236855032	 0.113669
H	 0.7473605976	-2.269485886	 2.1272341791	 0.110582
