23
gdb 91646	2.4085	1.63192	1.33083	1.3294	84.93	-0.2563	0.0791	0.3354	1099.0036	0.206591	-388.279572	-388.270726	-388.269781	-388.312182	35.979	
C	-0.0994735674	 1.5253066327	 0.0311280057	-0.456953
C	-0.0673346758	-0.0110847531	-0.0069389346	 0.357071
C	-1.5063452385	-0.4801602358	-0.2474885085	-0.462663
C	 1.0887518617	-0.6076714044	-0.8919554257	-0.043335
C	 2.0552781179	-0.2890788483	 0.2871559213	-0.248841
C	 0.8032991197	-0.6561831293	 1.1413038087	-0.062911
C	 0.7618063625	-2.167863216	 0.8614366895	 0.134547
O	-0.4320222636	-2.7654624198	 1.3431388458	-0.439047
C	 0.9311053404	-2.1309228751	-0.7025195003	-0.276484
H	 0.8750801751	 1.9986603788	 0.1574485103	 0.110364
H	-0.5333759116	 1.91281293	-0.8978389706	 0.110567
H	-0.7398037928	 1.8673898635	 0.8520556293	 0.11332
H	-1.8600297338	-0.1095508354	-1.2177281742	 0.098392
H	-1.6260716191	-1.5600449329	-0.2170968729	 0.12829
H	-2.1712111679	-0.0642996064	 0.5182844738	 0.108664
H	 1.2700347391	-0.2446417178	-1.9058699414	 0.051518
H	 2.93335882	-0.9334689521	 0.3943626783	 0.084069
H	 2.3652016332	 0.7500068742	 0.3623889185	 0.101526
H	 0.6965825148	-0.353267184	 2.1840963188	 0.057577
H	 1.624726983	-2.6557904809	 1.3367742843	 0.065746
H	-0.3903845943	-3.7066778327	 1.1477849479	 0.280323
H	 0.0579464628	-2.5495422018	-1.2090666787	 0.098764
H	 1.8157619343	-2.6791765736	-1.0409615353	 0.089496
