20
gdb 7348	4.10975	1.14432	0.92179	3.6048	74.45	-0.2252	0.0674	0.2925	1306.8005	0.175752	-382.35941	-382.34908	-382.348136	-382.39547	35.086	
C	-0.2321854053	 1.5007126755	-0.0485897745	-0.393557
C	 0.1579129614	 0.0299806868	 0.0642488336	-0.10483
N	 0.6712054703	-0.470316493	-1.2047882833	-0.381671
C	 0.6949874599	-1.8369113084	-1.4288655304	 0.505956
O	 0.1788164146	-2.6285529846	-0.6529522787	-0.427182
N	 1.3019260488	-2.232140533	-2.6065156029	-0.122684
C	 1.5159122113	-3.648423927	-2.836063335	-0.340668
C	 1.8275791729	-1.3075877897	-3.588268608	-0.349193
H	 0.629482437	 2.1270844126	-0.3093681145	 0.108439
H	-0.9985625483	 1.6444697974	-0.8160096304	 0.12541
H	-0.6240632486	 1.8646384901	 0.9057122904	 0.121665
H	 0.8913998698	-0.1062232189	 0.8732012492	 0.099748
H	-0.7036125209	-0.5878616458	 0.3229010389	 0.142332
H	 1.3993755412	 0.0853130131	-1.6244407283	 0.234575
H	 1.0704919522	-3.9597907955	-3.7894582466	 0.114772
H	 2.5867627701	-3.8937686776	-2.8634315412	 0.111555
H	 1.042310027	-4.1964389064	-2.0232587897	 0.170623
H	 2.8591536533	-0.9837784298	-3.3749747005	 0.114806
H	 1.8346769756	-1.7936790155	-4.5684096596	 0.132117
H	 1.1903246677	-0.4227022602	-3.6676343185	 0.137789
