19
gdb 38204	3.25379	1.77862	1.44165	1.8972	79.27	-0.2332	0.006	0.2392	946.0005	0.162579	-385.866025	-385.859578	-385.858634	-385.89642	27.895	
C	 0.0435837621	 1.7042215059	-0.0528230629	-0.271356
C	 1.5179025635	 1.276703247	-0.0621171022	 0.065325
C	 1.7233034583	 0.796601878	 1.4119009435	-0.295758
C	 0.5375030358	-0.2035392589	 1.425977859	 0.036849
C	-0.7030166652	-0.2931163573	 2.3281109879	-0.332092
C	-1.7400961294	-0.7745515488	 1.3083551153	-0.052688
C	-1.3612673413	-0.5781716847	 0.0362866945	-0.251276
C	-0.0698329438	 0.160557677	 0.059864323	 0.466976
O	 1.1105405491	 0.0672388469	-0.8030867485	-0.357408
H	-0.3345425093	 2.33143451	 0.7590907184	 0.092776
H	-0.2955553295	 2.0560677221	-1.0275868146	 0.107168
H	 2.310834111	 1.8382553544	-0.5551875174	 0.078402
H	 2.687429268	 0.3107381426	 1.5739175448	 0.103796
H	 1.6343228554	 1.6321106899	 2.1125721367	 0.101307
H	 0.9295922621	-1.2190195015	 1.3151153146	 0.090324
H	-0.5954424376	-0.9745086748	 3.177896802	 0.105776
H	-0.99958627	 0.6829012461	 2.7383214284	 0.108538
H	-2.6999329986	-1.1818826964	 1.6091045312	 0.098857
H	-1.9512384208	-0.7899668975	-0.8464255539	 0.104485
