20
gdb 115108	2.75163	1.37012	1.08889	2.0475	75.92	-0.25	0.0244	0.2744	1181.374	0.17123	-440.297431	-440.288333	-440.287389	-440.331314	33.302	
C	-0.0150242554	 1.3810895355	-0.0801376909	-0.246116
O	-0.0101442292	-0.0386105329	-0.0590667479	-0.239292
C	-1.2592287011	-0.6167052654	 0.0220198702	 0.248426
O	-1.9752653981	-0.3217888035	-1.2005940699	-0.252205
C	-3.0174193442	-1.1395433479	-1.4976433976	 0.127655
N	-3.3806764013	-2.2067028116	-0.9281162967	-0.261716
C	-2.5761360085	-2.6896720547	 0.1922245662	-0.171178
C	-1.142707689	-2.1255466512	 0.2218613149	-0.068976
C	-0.2325150754	-2.7821250501	-0.8243805703	-0.391673
H	 1.0288673798	 1.698954234	-0.0551555679	 0.132712
H	-0.4930316701	 1.7667110816	-0.9866439066	 0.134555
H	-0.5362121466	 1.7874427358	 0.7989613098	 0.110389
H	-1.8453274861	-0.1590297273	 0.8380491269	 0.071789
H	-3.5582712562	-0.7525575121	-2.3596394878	 0.12327
H	-3.1069129337	-2.4512156871	 1.1237582824	 0.109257
H	-2.5416823748	-3.7832736799	 0.1359186303	 0.112415
H	-0.7132538834	-2.284310136	 1.2176819416	 0.085127
H	-0.6509356899	-2.693788499	-1.8309478478	 0.131183
H	 0.7550956671	-2.3171030891	-0.8262494644	 0.133299
H	-0.116405554	-3.8472765792	-0.6028973445	 0.111077
