18
gdb 133033	4.45194	0.92572	0.82191	1.5845	82.39	-0.233	-0.0069	0.226	1390.583	0.148219	-409.993025	-409.984891	-409.983947	-410.02645	30.907	
C	 0.0315725854	 1.5634028514	 0.0093994976	-0.363655
C	-0.0018028256	 0.0253724991	 0.0026800425	-0.292114
C	-1.4072522785	-0.5327072489	 0.0129472842	 0.311309
C	-2.0720070096	-0.7865572837	 1.2166441093	-0.176925
C	-3.3773281536	-1.2695118144	 1.2379201925	-0.239397
C	-4.0235961478	-1.5009397335	 0.032419449	 0.293151
F	-5.2776530468	-1.9701089285	 0.0417558478	-0.085239
C	-3.3975288862	-1.2636371654	-1.1825361168	-0.239404
C	-2.0919819749	-0.7807548668	-1.1806877812	-0.177064
H	 1.0616942379	 1.9336842093	 0.0016811607	 0.112627
H	-0.4827446523	 1.9700808344	-0.8672557323	 0.12033
H	-0.4665873589	 1.9620794055	 0.8989737356	 0.120317
H	 0.5307243129	-0.3428598155	-0.881805154	 0.103309
H	 0.5467964797	-0.3508781633	 0.8738822645	 0.103352
H	-1.5592868431	-0.6084411679	 2.1574152384	 0.096509
H	-3.8939798562	-1.4722808091	 2.1688209481	 0.108191
H	-3.9296421662	-1.4618736549	-2.1056705274	 0.108191
H	-1.595020616	-0.5980396277	-2.1290001486	 0.096512
