21
gdb 91183	2.05749	1.75551	1.54265	1.8387	82.11	-0.2368	0.0131	0.2499	1046.0937	0.182826	-387.095165	-387.08675	-387.085805	-387.127722	33.326	
C	 0.3603209037	 1.4717627735	-0.2688320428	-0.409042
C	 0.0525923562	 0.0389855409	 0.1237816055	 0.12126
O	 0.5441448713	-0.9146992071	-0.8517112271	-0.320792
C	 1.3630906948	-1.5816916894	 0.1433257228	 0.067546
C	 2.8308709076	-1.275998412	 0.0392977273	-0.08999
C	 3.2103917591	-0.3855146084	 0.9566179637	-0.060635
C	 2.0793309647	 0.0668458445	 1.8511439947	-0.339428
C	 0.8390749881	-0.6619427549	 1.2810388483	 0.258866
C	-0.0445364617	-1.2954696487	 2.3455077643	-0.485113
H	 1.4345382852	 1.6307508424	-0.3934447629	 0.12535
H	-0.1261895564	 1.699335455	-1.2227407061	 0.125213
H	-0.0214461469	 2.1746342985	 0.4801967744	 0.110425
H	-1.0338377076	-0.0794215542	 0.2457286404	 0.066988
H	 1.1286631841	-2.6527796044	 0.1832727144	 0.069482
H	 3.4752683974	-1.7302574815	-0.7048921595	 0.098225
H	 4.2215869527	-0.0088002564	 1.0755553183	 0.096762
H	 2.2600386256	-0.2159442339	 2.8971884526	 0.102853
H	 1.9691977465	 1.1581839578	 1.851725867	 0.108503
H	-0.4912172557	-0.5318609364	 2.9934904234	 0.115922
H	-0.8610547642	-1.869258544	 1.8948565298	 0.121173
H	 0.5324367454	-1.9746878114	 2.9830667914	 0.116434
