19
gdb 114188	3.37745	1.07329	0.90075	4.0151	80.45	-0.2237	0.021	0.2448	1341.9466	0.158269	-419.173392	-419.164187	-419.163243	-419.208549	33.169	
C	-0.0592162718	 1.3014355535	-0.4700675175	-0.37469
C	-0.0343172803	-0.0616712408	 0.22614767	-0.154706
N	 0.6676769638	-0.0409748276	 1.485717302	-0.094774
C	 2.1142724573	 0.0189800533	 1.7449363708	-0.264391
C	 1.7764283492	-0.4985652572	 3.1572325968	 0.365146
C	 2.5191593913	-1.3396675192	 4.0924458533	-0.256843
O	 2.2593440167	 0.0469611624	 4.3599579387	-0.256671
C	 0.3247319118	-0.5627842144	 2.7306602679	 0.308689
N	-0.7219944237	-0.9699542488	 3.3130572741	-0.57129
H	 0.9552367025	 1.651755118	-0.6854063356	 0.124616
H	-0.5988256022	 1.2351202333	-1.4198291448	 0.120471
H	-0.5499277637	 2.0494073931	 0.1589532535	 0.131268
H	-1.0567754761	-0.3964898989	 0.4341346125	 0.116134
H	 0.4143241744	-0.8134991341	-0.4422153469	 0.106248
H	 2.7106615485	-0.6631302257	 1.1245517047	 0.10777
H	 2.5454399518	 1.0249085033	 1.7114836962	 0.122921
H	 1.9706935296	-2.0427126992	 4.7159898344	 0.141079
H	 3.5589856232	-1.5886194487	 3.8855248004	 0.118781
H	-1.5501363523	-0.9000896622	 2.7197703795	 0.210241
