18
gdb 12874	2.56901	2.33391	1.74787	1.3513	72.14	-0.2258	0.0201	0.2459	851.465	0.153778	-347.799002	-347.791369	-347.790425	-347.830264	30.004	
C	-0.094466028	 1.5317406274	 0.0847894293	-0.418269
C	 0.09422321	 0.0345723525	-0.0034278448	-0.067683
C	 0.7482038726	-0.682475685	-1.1752059901	-0.112081
C	 1.6638668445	 0.0957494963	-2.1194233973	-0.280134
C	 2.8113992156	 0.5325574914	-1.2310613503	-0.068577
C	 2.6715294221	 0.0876391435	 0.0194422285	-0.146365
C	 1.4109082326	-0.6973580399	 0.1908647474	 0.351687
O	 1.4445286557	-1.8682959202	 0.9548526842	-0.469553
H	 0.795132855	 2.0747108494	-0.2436564083	 0.124465
H	-0.9364819073	 1.8551291943	-0.5376575007	 0.115418
H	-0.3087505909	 1.8400531128	 1.1143551992	 0.111016
H	-0.7398754347	-0.5399711024	 0.3962164566	 0.084106
H	 0.2571381351	-1.5773904151	-1.5381121441	 0.091241
H	 2.0128428232	-0.5295135767	-2.9513229999	 0.110463
H	 1.1575232416	 0.9565380676	-2.5769122858	 0.110029
H	 3.6184075875	 1.1623559391	-1.5890380978	 0.094023
H	 3.3589895914	 0.2638984794	 0.8393850982	 0.089525
H	 1.228577674	-1.6376006846	 1.8643752157	 0.280689
