16
gdb 86929	4.02001	0.94003	0.81962	2.8376	68.61	-0.2499	-0.0496	0.2003	1360.2969	0.121936	-475.007609	-474.998389	-474.997444	-475.042666	31.933	
O	 0.1650931385	 1.470696922	-0.0894268233	-0.421961
C	 0.0978404014	 0.082913756	-0.0432414889	 0.063319
C	-1.2654223521	-0.6775984934	 0.1618293	-0.314599
C	-0.8125176802	-1.7631860803	-0.8472242745	 0.016788
O	-1.8070312641	-2.1826185782	-1.7489175747	-0.19127
C	-1.396074061	-2.9701285854	-2.7746989747	 0.134212
N	-2.2420204186	-3.3815050156	-3.6122251064	-0.43635
C	 0.2006974023	-0.7077543826	-1.3559993265	 0.310391
O	 0.577664315	-0.4108229109	-2.4531449578	-0.295402
H	-0.0751771782	 1.754569675	-0.9796070319	 0.298312
H	 0.8291692211	-0.2687476507	 0.6937731475	 0.122077
H	-1.4968028336	-1.004784944	 1.1743579334	 0.127676
H	-2.099283765	-0.1085166176	-0.2551112554	 0.141678
H	-0.3243827444	-2.613886399	-0.3548390681	 0.111351
H	-0.3193734058	-3.1766508019	-2.766286305	 0.099811
H	-1.7837745251	-3.9567259234	-4.3158261435	 0.233965
