19
gdb 61186	2.50916	1.02066	0.76611	4.794	80.19	-0.3237	0.015	0.3387	1460.9287	0.157913	-382.112889	-382.102734	-382.10179	-382.148485	35.965	
C	-0.0449839013	 1.570300242	-0.0162803905	-0.425252
C	-0.007352068	 0.0377118128	-0.0019695646	 0.025191
C	 0.6831843492	-0.5125404195	-1.2759544401	-0.362942
C	-0.0109476122	-0.1236681035	-2.5006936936	 0.268038
N	-0.5738632492	 0.1949082312	-3.458338578	-0.308579
C	 0.7064661959	-0.5079312493	 1.2681262315	-0.140957
C	 0.0500455772	-0.0528912894	 2.5879875901	-0.410076
C	 0.7677024811	-1.974762935	 1.2370347362	 0.274912
N	 0.8040910139	-3.1298913179	 1.2078934536	-0.327008
H	 0.9654837827	 1.9899936157	 0.0576021092	 0.121375
H	-0.4898738159	 1.9297630777	-0.9477673742	 0.155545
H	-0.6398687566	 1.9691939842	 0.8078174474	 0.131713
H	-1.0355168552	-0.3432975626	 0.0073078039	 0.115375
H	 1.715835309	-0.145179516	-1.3312530481	 0.150685
H	 0.7349717391	-1.6057071877	-1.2405051444	 0.180406
H	 1.7447509346	-0.1476162817	 1.2544913406	 0.128448
H	 0.1278393241	 1.0295682501	 2.7024981887	 0.135744
H	-1.0068359399	-0.3334648708	 2.6122563208	 0.142128
H	 0.5454454216	-0.5221720402	 3.4409675513	 0.145255
