15
gdb 125199	3.46837	1.60803	1.10625	5.5971	76.02	-0.1911	-0.0169	0.1743	1029.4235	0.115207	-412.991748	-412.984226	-412.983282	-413.024501	28.018	
C	-0.0113066975	 1.5418703827	 0.0975059315	-0.507245
C	 0.0154344727	 0.0565894433	-0.0408829991	 0.169202
C	-0.0199018554	-0.8032160146	-1.1209928422	 0.301184
N	-0.085981166	-0.9463358773	-2.4782002758	-0.406389
N	-0.0725782385	-2.2790318113	-2.8134351742	-0.101835
N	-0.001942143	-2.9975134327	-1.7484800849	-0.299185
C	 0.0340547376	-2.147891163	-0.6621343215	 0.268882
C	 0.103808921	-2.1235128907	 0.7208191536	-0.203129
N	 0.0905512198	-0.793084415	 1.0552187773	-0.283735
H	 0.8900943258	 1.9346535813	 0.5854518261	 0.131614
H	-0.0709960122	 2.0060076306	-0.8898921473	 0.131909
H	-0.876506905	 1.8947750987	 0.6735244302	 0.131634
H	-0.1386373358	-0.269645142	-3.218492934	 0.268975
H	 0.1593776641	-2.8952561184	 1.4685844588	 0.13508
H	 0.1313188623	-0.4590521116	 2.0043091613	 0.263038
