20
gdb 79825	2.22886	1.96006	1.71865	0.9998	77.53	-0.1932	0.0882	0.2814	953.0433	0.171356	-403.100679	-403.092815	-403.091871	-403.132343	31.781	
C	-0.1810853262	 1.5118349146	-0.0392918855	-0.342369
N	 0.0810961362	 0.0789388458	 0.0243342385	-0.113053
C	 1.0780638694	-0.4885190942	-0.8720792078	-0.057637
C	 2.4851299169	-0.3129164106	-0.312031835	 0.092557
O	 2.7008533903	 0.7057480729	 0.64302114	-0.26954
C	 1.8511746555	 0.4154931765	 1.7587758828	-0.113032
C	 0.7866541227	-0.5389204078	 1.2062236133	 0.293308
C	-0.1284109914	-1.1877317681	 2.2209373879	-0.48082
C	 1.6139074658	-1.4044635857	 0.2131444358	-0.211996
H	 0.7151539156	 2.1453707932	 0.025550203	 0.121758
H	-0.680568004	 1.7259918218	-0.9906948959	 0.117821
H	-0.8751616515	 1.7921369105	 0.7603337098	 0.114018
H	 0.8600494853	-0.685711014	-1.9179658319	 0.087783
H	 3.3477681932	-0.5124354069	-0.9373017521	 0.102511
H	 2.4254513504	-0.0566599196	 2.5714000322	 0.091408
H	 1.4340173579	 1.3575444405	 2.1300853126	 0.106165
H	-0.7228536805	-0.433481775	 2.7482925172	 0.119974
H	-0.8195166902	-1.872901216	 1.7243968579	 0.131112
H	 0.4463530522	-1.7462264115	 2.9678232001	 0.116254
H	 1.7961717025	-2.4694487563	 0.2469532871	 0.093776
