23
gdb 108226	2.11743	1.44866	1.12909	1.2126	86.49	-0.2292	0.0604	0.2895	1245.7392	0.204156	-388.270265	-388.260162	-388.259218	-388.304851	38.207	
C	-0.3084571813	 1.4216078245	-0.0117842992	-0.372134
C	 0.0591675782	-0.0671347279	 0.0902041684	-0.306706
C	 0.7759729681	-0.576664448	-1.1299877831	 0.288861
C	 2.1807395234	-0.1537158672	-1.580011868	-0.292233
C	 2.4416826768	-1.6069370208	-2.0937652087	-0.28611
C	 1.0332555493	-2.0150541459	-1.6451840754	 0.257346
C	 0.6609084135	-3.3586563705	-1.0879686856	-0.498005
C	 0.044908044	-1.120427938	-2.3420443536	 0.009834
O	-1.2916106846	-1.5030469472	-2.1670944716	-0.43332
H	 0.5825170997	 2.0416624683	-0.1566337667	 0.120745
H	-0.9774461021	 1.6096984702	-0.8594129761	 0.102882
H	-0.812852107	 1.7686919112	 0.8953865262	 0.111898
H	 0.6880411627	-0.2228364178	 0.9767783183	 0.094773
H	-0.8474400178	-0.6615913393	 0.2482550793	 0.104539
H	 2.2282739249	 0.6466070187	-2.327506305	 0.089571
H	 2.8331259033	 0.1162811742	-0.74494322	 0.099876
H	 2.6583798168	-1.7220721894	-3.1620121719	 0.091172
H	 3.2269987643	-2.112224437	-1.5255513439	 0.101179
H	 1.277108173	-3.6146500066	-0.2184565396	 0.108755
H	-0.3893181592	-3.3822467195	-0.7893161228	 0.136245
H	 0.8097989267	-4.1440322771	-1.8397994423	 0.11629
H	 0.2717673165	-0.730539681	-3.3401450875	 0.065902
H	-1.8281478292	-0.704629364	-2.1268119011	 0.288641
