13
gdb 5048	3.4579	2.45812	1.68733	5.0055	68.42	-0.2555	-0.091	0.1645	750.5746	0.098006	-357.650966	-357.644848	-357.643904	-357.681153	23.278	
N	-0.0597755279	 0.9396772815	-0.6890235892	-0.474318
C	-0.0170183965	-0.03654382	 0.1149305371	 0.333785
N	 1.1698149021	-0.5509609367	 0.6808911662	-0.217974
C	 1.5079427431	-1.7593217614	 0.4119806094	-0.008121
C	 0.734234945	-2.7671004459	-0.2974490173	-0.090153
C	-0.6179721988	-2.7979313297	-0.3367477905	-0.086576
C	-1.4726503818	-1.8268531442	 0.3317789205	 0.002455
N	-1.2093529142	-0.6038825663	 0.6038331968	-0.181698
H	 0.8894422177	 1.2589957276	-0.8910308384	 0.224731
H	 2.4819281389	-2.0856496962	 0.7847854078	 0.126578
H	 1.2916259999	-3.6095624354	-0.6984761999	 0.121172
H	-1.1124364848	-3.6642081953	-0.7684490286	 0.122183
H	-2.4413831528	-2.2029923482	 0.669879156	 0.127936
