17
gdb 133065	2.98984	1.14506	0.88569	2.3535	78.12	-0.2507	-0.0289	0.2218	1291.4044	0.136736	-426.03911	-426.031137	-426.030193	-426.072393	29.791	
C	 0.0224967988	 1.5610811522	-0.0424546676	-0.367912
C	-0.0040728343	 0.0245311314	 0.038798944	-0.293332
C	-1.4058203641	-0.5366553696	 0.0218506736	 0.2781
C	-2.0778145467	-0.8529088108	 1.2071436197	-0.066676
N	-3.3256955221	-1.3213606687	 1.2664902697	-0.257155
C	-3.9791891678	-1.5041897451	 0.1195745103	-0.105896
C	-3.3927161864	-1.2234324945	-1.1083025859	 0.255674
F	-4.0843389857	-1.4309891242	-2.2322206715	-0.075595
C	-2.0988963958	-0.7360922012	-1.1731429604	-0.295791
H	 1.0515740918	 1.9327518869	-0.0290440118	 0.118785
H	-0.4543542117	 1.9153592958	-0.961922044	 0.122674
H	-0.5124542059	 2.006623483	 0.8018568621	 0.126667
H	 0.5666834962	-0.3929606834	-0.7986581346	 0.109823
H	 0.5022698242	-0.2990633083	 0.9547843218	 0.11166
H	-1.5716886178	-0.7222146304	 2.161568459	 0.103902
H	-4.994881552	-1.8875467483	 0.1627905709	 0.12099
H	-1.6491619907	-0.5243965249	-2.1377820254	 0.114081
