18
gdb 14103	3.10875	1.71144	1.45295	2.9015	68.08	-0.2383	0.0715	0.3099	942.9014	0.15239	-384.89968	-384.891453	-384.890509	-384.932261	30.68	
C	-0.3008957614	 1.4462176752	 0.0556239998	-0.404104
C	 0.1319614024	-0.002426315	-0.0366340514	 0.104691
O	 1.3644334401	-0.1683664439	-0.7941130885	-0.301357
C	 2.0273943683	-0.8223781145	 0.3073929553	-0.143691
C	 0.7905899598	-0.6589258067	 1.1784997508	 0.269656
C	 0.6725448744	-0.2798397346	 2.6299804668	-0.395636
C	 0.1600987884	-1.6131288553	 2.1296013267	 0.035137
O	-1.2157339871	-1.8032824625	 1.9676998064	-0.420419
H	 0.4782670466	 2.0604789554	 0.5164127159	 0.117494
H	-0.507693326	 1.8399193384	-0.9445194508	 0.125607
H	-1.2167841571	 1.5320499707	 0.6503881392	 0.117802
H	-0.6701247925	-0.6145599608	-0.4691418578	 0.088958
H	 2.3073113882	-1.8574945685	 0.0680025934	 0.099121
H	 2.92283153	-0.2757695114	 0.6321421395	 0.099038
H	 1.5714772228	-0.2635410988	 3.239268983	 0.113162
H	-0.0704963678	 0.4680688188	 2.8896103435	 0.118073
H	 0.7230801603	-2.5073570812	 2.4022450114	 0.086276
H	-1.6082651794	-1.9123008855	 2.8402297168	 0.290191
