19
gdb 49591	2.85514	1.4472	1.16242	3.0907	78.37	-0.24	-0.0152	0.2248	1093.4126	0.160644	-385.875445	-385.867902	-385.866958	-385.90774	30.01	
O	-0.0697569161	-0.0338877158	-0.0031680778	-0.256065
C	-0.0102535114	 1.1693089821	 0.0082159876	 0.168027
C	 1.2750678286	 1.9717301393	-0.0006097611	-0.097418
C	 1.4099760263	 2.8945633526	-1.2227761384	-0.065456
C	 0.4424136968	 4.0308304461	-1.4665041638	-0.304724
C	 1.7343903197	 4.2965900005	-0.7364503218	-0.03729
C	 1.7558068835	 4.2775771941	 0.7800937457	-0.037336
C	 0.4849121912	 3.9930650316	 1.5395023768	-0.304711
C	 1.4448925616	 2.8636792984	 1.2401651932	-0.065382
H	-0.9377260558	 1.7852411476	 0.0269410418	 0.066935
H	 2.0934657703	 1.2456546686	-0.0211933206	 0.095317
H	 1.899079475	 2.4704370735	-2.0925277608	 0.097595
H	 0.3724473526	 4.3817362564	-2.490838096	 0.1154
H	-0.4990532247	 4.0848635782	-0.9345070454	 0.11685
H	 2.4906266335	 4.8949482649	-1.2308666077	 0.089177
H	 2.525855974	 4.8636942977	 1.2678132177	 0.089182
H	 0.4440327406	 4.3182247122	 2.5738580629	 0.115408
H	-0.4712203723	 4.0599397778	 1.0358785266	 0.116847
H	 1.9581949166	 2.4179209041	 2.084783301	 0.097644
