17
gdb 91845	3.80555	1.20685	1.10349	3.8181	73.65	-0.2277	-0.0002	0.2275	1125.6678	0.136413	-417.99178	-417.983677	-417.982733	-418.024459	30.267	
C	 0.8224297216	 1.3648439718	 0.0828950076	-0.334972
N	 0.0012173451	 0.16747002	-0.0840615672	-0.070695
C	 0.3580445909	-0.6570260074	-1.2461292655	-0.208063
C	 1.1277701892	-1.8459136725	-0.6951343483	-0.022576
O	 2.1476985329	-1.4762258455	 0.2373126248	-0.272911
C	 0.8751175653	-1.8841302849	 0.7574162931	 0.292375
C	-0.0419158208	-0.7063703142	 1.0910113589	-0.259044
C	 0.8409054624	-3.0936359631	 1.5396788386	 0.219458
N	 0.7782242576	-4.0426524692	 2.1967817778	-0.328899
H	 1.888809213	 1.1538382856	 0.2549359627	 0.121649
H	 0.7295379993	 1.9902400336	-0.8100946539	 0.123386
H	 0.4408818784	 1.9475565847	 0.9266303246	 0.124585
H	-0.5370090244	-1.0295255481	-1.7652402382	 0.11622
H	 0.94373617	-0.0777924506	-1.965446479	 0.123775
H	 1.3169781526	-2.740674896	-1.2820433324	 0.122209
H	 0.28006345	-0.1727917787	 1.9889154183	 0.129846
H	-1.0534959131	-1.0956027456	 1.272245508	 0.123658
