15
gdb 19672	4.77516	1.84527	1.7255	1.8508	69.73	-0.2399	0.0282	0.2681	787.6804	0.119499	-325.417605	-325.411308	-325.410363	-325.447806	25.232	
C	-0.0201408945	-1.2407926519	-0.0051542608	-0.442322
C	 0.0013870735	-0.0391215092	 0.037966249	 0.339002
C	 0.013434933	 1.41156733	 0.0934824001	-0.133839
C	-0.2612384312	 2.1497099193	 1.4270673046	-0.088814
C	 0.8132203434	 1.55845917	 2.3769803764	-0.248674
C	 1.8305940489	 2.2075745018	 1.4405909496	-0.027263
C	 0.830686124	 3.1694861371	 0.9235660588	-0.062463
N	 1.3532398901	 2.1116922992	 0.0119794523	-0.148748
H	-0.0344449742	-2.3018890821	-0.0488520958	 0.198911
H	-0.59652492	 1.8245519917	-0.7159989964	 0.109126
H	-1.2733677976	 2.3536812396	 1.7695337918	 0.0806
H	 0.8081221863	 2.0647032623	 3.3454752551	 0.107778
H	 0.8270862145	 0.4738194083	 2.5142200829	 0.11434
H	 2.898540326	 2.3247785491	 1.5659787669	 0.101113
H	 0.8440386977	 4.2276902347	 0.7009769953	 0.101254
