17
gdb 44509	4.39877	1.42201	1.23153	3.8014	72.72	-0.2158	0.0238	0.2395	1000.9817	0.138704	-417.975613	-417.968913	-417.967969	-418.006704	27.402	
O	 0.0126485958	-0.0827140516	 0.0895194073	-0.375968
C	-0.0079729675	 1.1301349962	 0.0284977571	 0.393294
C	-1.2943754127	 1.958207692	-0.0182720976	-0.299575
N	-1.1583127072	 3.4189640645	-0.0912126042	-0.135052
C	-0.073370453	 3.9377242319	-1.0337844336	-0.0406
C	-0.0686779859	 5.2224300145	-0.1775706087	-0.221625
C	-0.0807192951	 4.030126517	 0.8031749317	-0.040597
C	 1.0098442016	 3.3489656013	-0.0790154151	 0.051681
N	 1.1072364091	 1.9148588809	-0.0064819159	-0.340397
H	-1.8784225289	 1.6183061066	-0.8806827088	 0.139444
H	-1.8853730939	 1.7063408187	 0.8692426247	 0.139443
H	-0.1562329576	 3.8314559582	-2.1170198264	 0.088861
H	 0.8313866772	 5.8388444097	-0.2049768195	 0.098608
H	-0.9919857059	 5.7985109476	-0.2102418487	 0.117965
H	-0.1722692464	 4.033061907	 1.890910101	 0.08886
H	 2.0077898964	 3.7945782101	-0.0974371393	 0.086302
H	 2.0038676441	 1.4544354253	 0.0201985461	 0.249355
