13
gdb 128892	4.3874	1.27161	1.06045	3.2364	68.48	-0.2786	-0.0207	0.2579	1053.2278	0.092005	-411.77462	-411.767807	-411.766863	-411.806617	24.54	
N	-0.8076119532	-1.1970752668	-0.1489457457	-0.298476
C	-0.4101673026	-0.1148898622	-0.081697821	 0.31072
C	 0.0575312476	 1.2632289984	 0.0146132238	-0.129512
C	-0.1680526914	 2.0155415916	 1.4097145737	-0.380244
C	 1.3471701232	 2.1558603785	 1.4056622742	 0.377736
N	 2.4846505597	 2.6894833196	 1.7942169025	-0.363
C	 3.3180152198	 2.2298156589	 0.7938151954	 0.032559
N	 2.7675850053	 1.4932286914	-0.1760731526	-0.273003
N	 1.4971173176	 1.4452194379	 0.289915265	 0.088882
H	-0.2873231628	 1.840195737	-0.8471863086	 0.166636
H	-0.733997196	 2.943275158	 1.3153513707	 0.160622
H	-0.5981498765	 1.388129841	 2.1909768112	 0.166613
H	 4.3761194893	 2.4463628867	 0.7869517915	 0.140465
