17
gdb 127611	3.34555	1.61992	1.10662	2.3081	82.85	-0.2047	-0.0141	0.1905	1067.0003	0.13879	-380.897466	-380.89001	-380.889066	-380.929845	28.241	
C	 0.0050460487	 1.4249006443	-0.0284922141	-0.333968
N	-0.0209773245	-0.0190918351	 0.0332979586	-0.104323
N	 0.0103359283	-0.7435378601	-1.1179761011	-0.280597
C	 0.0467726011	-2.0270278524	-0.7374952485	-0.159806
C	 0.0460868403	-2.1386301433	 0.6602378432	 0.182893
C	 0.0068046676	-0.8305890895	 1.1133452076	 0.388893
C	-0.0036337219	-0.7827655782	 2.5665630152	-0.207519
C	 0.0275723661	-2.0584988426	 3.0074142875	-0.072769
C	 0.0610087636	-3.0519947079	 1.8526907646	-0.42103
H	 1.0266814788	 1.8133403036	 0.0519098857	 0.13839
H	-0.4149504269	 1.7292640261	-0.9873554765	 0.159404
H	-0.5984937991	 1.8423398535	 0.781534883	 0.136136
H	 0.0648449421	-2.7951683069	-1.4969750357	 0.10733
H	-0.0296117877	 0.1078630335	 3.1801477777	 0.103071
H	 0.0303529662	-2.366705605	 4.0451965694	 0.101965
H	-0.7996038889	-3.7328893421	 1.8945027291	 0.131004
H	 0.9546911262	-3.687999418	 1.9058153842	 0.130925
