21
gdb 60498	5.89317	0.4862	0.4643	1.7044	77.76	-0.2559	-0.0278	0.2281	2294.8982	0.178227	-461.359784	-461.348558	-461.347613	-461.39818	38.069	
C	 0.1323729821	 0.4675369797	-0.8019765238	-0.398849
C	 0.0379367352	-0.0978992013	 0.6114981711	 0.108667
O	 0.2785542251	 0.8891852367	 1.6073799531	-0.428635
C	-1.307957169	-0.7749426009	 0.8849239615	-0.068473
O	-1.472169281	-1.8516587145	-0.0144857198	-0.24594
C	-2.6779488967	-2.5570813859	 0.1671458648	-0.0551
C	-2.7413416757	-3.6690075304	-0.8801797349	-0.281665
C	-3.8794620665	-4.6294497873	-0.6212883355	 0.153161
O	-4.7406065272	-4.9080241171	-1.4142914853	-0.231606
H	 1.1144998708	 0.9177943716	-0.9686807411	 0.123927
H	-0.0318347514	-0.3195965308	-1.5418786854	 0.136744
H	-0.6322992141	 1.2399278539	-0.9596448187	 0.101917
H	 0.8244651397	-0.8474434468	 0.7559513037	 0.100144
H	-0.2863099738	 1.6454709893	 1.4136233028	 0.279004
H	-1.3292513987	-1.1246891682	 1.9286776876	 0.098403
H	-2.1258335178	-0.0408779625	 0.7641990859	 0.075026
H	-2.7244499166	-2.9848857894	 1.1838291057	 0.093103
H	-3.5427256024	-1.8814685597	 0.0612263864	 0.102535
H	-2.8339428227	-3.2596186113	-1.8885737741	 0.130636
H	-1.8019603573	-4.235968316	-0.8181204942	 0.132917
H	-3.8690037521	-5.0896914989	 0.3952589801	 0.074085
