15
gdb 5103	3.42135	2.14828	1.3354	4.5593	63.65	-0.1743	0.058	0.2323	872.6653	0.119996	-396.033605	-396.025455	-396.024511	-396.065899	29.326	
C	-0.1119225137	 1.4431778198	 0.0179488806	-0.348111
N	-0.0144817436	 0.0024612766	 0.0384271711	-0.121858
C	-0.0257598333	-0.7659660891	-1.1297796463	 0.455512
O	-0.0610690432	-0.3595569592	-2.2785471637	-0.450234
N	 0.0044218789	-2.0639692359	-0.6675766729	-0.36111
C	 0.0392150409	-2.105155563	 0.7356212306	-0.176198
C	 0.018149227	-0.8226773885	 1.1625318166	 0.283291
N	-0.0744602782	-0.2592699156	 2.4412854345	-0.601236
H	 0.8250795286	 1.922654123	 0.3267365978	 0.121144
H	-0.3247492793	 1.729711687	-1.0135769407	 0.169889
H	-0.9159581024	 1.7846339	 0.6760429556	 0.14096
H	-0.0163350252	-2.8497468975	-1.2913184909	 0.264439
H	 0.0730751728	-3.0271082996	 1.2879252659	 0.124392
H	-0.1421836135	-0.9762103485	 3.1527169484	 0.250256
H	 0.7124848841	 0.3433201307	 2.6638000933	 0.248865
