21
gdb 41469	3.06815	1.62335	1.32588	1.6847	81.17	-0.2357	0.0746	0.3104	1041.6851	0.185264	-387.080586	-387.073261	-387.072317	-387.112123	30.177	
C	 0.0377701481	 1.4746605531	 0.3363823202	-0.23738
C	 1.5370180813	 1.5847650505	-0.0950281285	-0.337805
C	 1.481818201	 0.1345779749	-0.6173979665	 0.328746
C	 2.1372458378	-0.3937062991	-1.8809551174	-0.323236
C	 1.9350254206	-1.9213431415	-1.7807554985	-0.213468
C	 2.1175923831	-2.2264122768	-0.2769696974	-0.225634
C	 1.5474461094	-1.0037475012	 0.4444220989	 0.097726
O	 0.1013414032	-1.0319159019	 0.5851659634	-0.316677
C	-0.0442653429	 0.0703351951	-0.3268473717	 0.079208
H	-0.1396716592	 1.4363031086	 1.4133008851	 0.111866
H	-0.6181117929	 2.2298082876	-0.1035080752	 0.100223
H	 1.6871367048	 2.3123564668	-0.8980498641	 0.102028
H	 2.2685838108	 1.7907551968	 0.6919143448	 0.096472
H	 1.7124854577	 0.0355614362	-2.7944423459	 0.095643
H	 3.2079401377	-0.1468583774	-1.8755617217	 0.097488
H	 0.9166225101	-2.1793419052	-2.0914953501	 0.110669
H	 2.6210354275	-2.4879732102	-2.4158078435	 0.094602
H	 1.6299167843	-3.1503956564	 0.0456892401	 0.109125
H	 3.1849420037	-2.3103527589	-0.0366414989	 0.095661
H	 2.0335703935	-0.794811398	 1.4044048545	 0.065821
H	-0.8289112697	-0.102680513	-1.0695334875	 0.06892
