15
gdb 16458	3.38146	2.93679	1.91011	2.023	64.39	-0.2268	-0.0041	0.2228	701.5076	0.120515	-362.579706	-362.573974	-362.57303	-362.609023	24.482	
O	 0.1139881803	 1.3836047991	 0.0873613574	-0.501763
C	 0.0705220203	 0.0080128072	 0.0745427986	 0.450392
C	 0.9267810916	-0.7490617206	 1.0674970079	-0.158661
C	 0.668206564	-2.0331515143	 0.8078485032	-0.103837
C	-0.3362047719	-1.9844717093	-0.3345966502	-0.090873
C	-1.2951464813	-0.7731877901	-0.0628152953	-0.085991
N	-1.3371477306	-0.3562438349	-1.5150828856	-0.378041
C	 0.0866218899	-0.8055137502	-1.2790103904	-0.085991
H	-0.4937494431	 1.6685612404	-0.610664895	 0.291228
H	 1.5805433587	-0.2957872492	 1.7982158619	 0.113901
H	 1.0636994753	-2.9206237127	 1.2807729843	 0.108935
H	-0.7426600909	-2.8960870195	-0.7721563314	 0.069736
H	-2.1744721686	-0.7295146232	 0.5862452509	 0.080253
H	-1.8404858359	-1.0545545375	-2.0683838711	 0.21046
H	 0.8427062015	-0.8000992354	-2.0693948347	 0.080253
