19
gdb 64495	3.43536	1.31437	1.14648	2.2953	75.36	-0.2403	0.0812	0.3215	1114.5522	0.158486	-422.924199	-422.91623	-422.915286	-422.956691	31.3	
C	-0.0091504486	 1.4185227686	-0.5626464903	-0.517855
C	 0.1138863283	-0.0693068933	-0.2432264729	 0.327787
C	-1.1060072799	-0.8590474679	-0.6761688859	 0.023597
C	-2.4586140097	-0.2902260446	-0.765612677	-0.197813
O	-1.687347372	-0.5188301057	-1.945127601	-0.241805
C	 1.4763804714	-0.8202772112	-0.4859435886	 0.009796
C	 2.1322526446	-0.0577709817	 0.6899564974	-0.239852
C	 0.7309183937	-0.5495244594	 1.1175017481	 0.007924
O	 1.0529680214	-1.8539099613	 0.4888423034	-0.310981
H	 0.9504794414	 1.9356416949	-0.5676342699	 0.119705
H	-0.4599676627	 1.5368957321	-1.5513900654	 0.149463
H	-0.6522303407	 1.9252222602	 0.1647730561	 0.120804
H	-1.0226203814	-1.9275807227	-0.5052123229	 0.114859
H	-3.3194889188	-0.9449147173	-0.6353640534	 0.115887
H	-2.636166466	 0.7552491128	-0.5213913957	 0.110012
H	 1.91324258	-1.1669697279	-1.4233116559	 0.100266
H	 2.9513102739	-0.5991232403	 1.1631744783	 0.112528
H	 2.328055008	 1.010640582	 0.6056178555	 0.102432
H	 0.2740729771	-0.5712396873	 2.1085954402	 0.093246
