17
gdb 30042	2.42072	1.86673	1.06183	2.527	81.56	-0.1826	-0.014	0.1687	1093.1	0.138105	-418.084781	-418.076549	-418.075605	-418.117492	31.533	
C	-0.0185631444	 1.4332009726	 0.0365926913	-0.332186
N	 0.0129576896	-0.0252759017	-0.0226235876	-0.137354
C	 0.1650134887	-0.6828677619	-1.221574661	-0.005115
C	 0.213447938	-2.0386701476	-1.2657216226	-0.168023
C	 0.0962942413	-2.7853568102	-0.0638454653	-0.174951
C	-0.0672727499	-2.1441190439	 1.1356985343	 0.159995
N	-0.2501598055	-2.7496477634	 2.3612356252	-0.573748
C	-0.0993001944	-0.6823329786	 1.19626124	 0.423885
O	-0.2087788046	-0.0561388343	 2.2522392725	-0.444763
H	 0.0786484571	 1.8326398099	-0.9731642717	 0.125428
H	-0.956893298	 1.7709979859	 0.4829069946	 0.154207
H	 0.7964830626	 1.8019866764	 0.6640445676	 0.153051
H	 0.2418490384	-0.0523341459	-2.0969439073	 0.120097
H	 0.3363019479	-2.5393010753	-2.2170952309	 0.09976
H	 0.1294075602	-3.8702511889	-0.0984509726	 0.088713
H	 0.1549765251	-3.6630234024	 2.4897684905	 0.247091
H	-0.1188831022	-2.1056804109	 3.130625653	 0.263913
