22
gdb 14554	2.99099	1.77586	1.42277	0.1563	81.64	-0.2454	0.0881	0.3334	1012.197	0.200534	-313.048012	-313.039532	-313.038588	-313.080441	33.153	
C	 0.1164889789	 1.385108315	-0.3565870086	-0.37875
C	-0.0418326296	-0.0195137077	 0.2421376724	-0.256773
C	-1.4437522965	-0.5974813035	 0.0955726154	 0.369228
C	-2.5007710525	 0.1234892683	 0.9213628978	-0.461988
C	-1.9736389466	-1.1337526995	-1.2135864766	-0.08708
C	-0.8975574289	-1.8537714555	-2.0394025097	-0.24529
C	-0.6438219647	-2.8230111956	-0.8396921189	-0.245007
C	-1.7122152682	-2.0804020657	-0.0283982294	-0.103732
H	 1.1487962654	 1.7365651152	-0.2614356398	 0.108506
H	-0.1426820349	 1.3886445926	-1.4207541879	 0.118183
H	-0.5257919907	 2.1173712034	 0.1423323424	 0.115341
H	 0.6928851486	-0.68262395	-0.2234317671	 0.097681
H	 0.2157966086	 0.0068604546	 1.3096831885	 0.089129
H	-2.5999457886	 1.1732443648	 0.6261430234	 0.116246
H	-3.483178075	-0.3442269839	 0.8014533851	 0.112118
H	-2.247851998	 0.0999316174	 1.9878701672	 0.111749
H	-2.923690135	-0.7919205041	-1.6098654131	 0.074576
H	-1.3124199864	-2.3747306282	-2.9051439675	 0.10061
H	-0.0526698415	-1.246494121	-2.3800097035	 0.095108
H	-0.9436955285	-3.8465508222	-1.0759715801	 0.100051
H	 0.3669668468	-2.8541752425	-0.4196823193	 0.095031
H	-2.4323750528	-2.563697762	 0.623177979	 0.075063
