19
gdb 115260	3.34243	0.93147	0.75736	1.8273	88.82	-0.2225	-0.0135	0.209	1486.0137	0.158545	-385.871784	-385.862555	-385.86161	-385.906021	34.376	
O	-0.0197023849	 1.4514897705	-0.017392018	-0.422305
C	 0.0378966224	 0.0331124684	-0.039837963	-0.088302
C	-1.392141286	-0.4956228826	 0.0476601025	-0.006159
C	-1.4820765957	-2.0420641938	-0.0234899135	-0.249273
C	-2.6316088354	-2.4389637681	 0.9327171904	-0.320544
C	-2.7566930837	-1.2254156131	 1.8440650994	 0.190408
C	-2.0844575132	-0.1753425587	 1.3485924629	-0.173131
C	-3.5366150681	-1.2534568441	 3.0250936427	 0.201262
C	-4.2084070706	-1.3292010223	 4.0231539215	-0.415655
H	 0.8794841518	 1.7916763679	-0.0068872596	 0.28824
H	 0.507842208	-0.3337319814	-0.9670024723	 0.086208
H	 0.6234848759	-0.3585266795	 0.8075320249	 0.086232
H	-1.9473073242	-0.0311203151	-0.7815458261	 0.092126
H	-1.6313730496	-2.4095542968	-1.0416464009	 0.101719
H	-0.5418871303	-2.4721486018	 0.3415037902	 0.102881
H	-3.5753577229	-2.6041606922	 0.3968117467	 0.114566
H	-2.4254510242	-3.3581620019	 1.4896098217	 0.112593
H	-2.0503955515	 0.8103763069	 1.7948636059	 0.110307
H	-4.7986785779	-1.3763541024	 4.9042367046	 0.188827
