19
gdb 108525	2.46296	1.54973	1.16324	2.442	70.36	-0.2502	0.0589	0.309	1094.9217	0.160101	-460.13319	-460.124861	-460.123916	-460.166466	31.035	
O	-0.0828997337	 1.4412368418	 0.1981213074	-0.425329
C	-0.000437683	 0.0329942958	 0.0223009292	-0.186147
C	-1.4158226534	-0.4983377791	-0.0215552003	 0.303282
C	-2.2284518271	-0.5319719888	 1.2887641341	-0.127288
O	-2.5630825565	-1.92500249	 1.0896453003	-0.296392
C	-1.6441195149	-2.0271968467	-0.0226725618	 0.039812
C	-2.2942652674	-2.3450747173	-1.3793097092	-0.099557
O	-2.1347942274	-1.1699456001	-2.166011592	-0.250754
C	-2.1975051583	-0.0610321432	-1.2778026896	-0.148446
H	 0.8080355261	 1.8030178193	 0.1837880485	 0.292069
H	 0.5140639638	-0.2273998273	-0.9167491749	 0.099115
H	 0.5528884845	-0.4399906944	 0.8490245237	 0.088825
H	-1.6252600458	-0.386599077	 2.1936826131	 0.101397
H	-3.1175732034	 0.1057852152	 1.3414652498	 0.108004
H	-0.7913771888	-2.6718624278	 0.2211023039	 0.07569
H	-1.8191867463	-3.1702646373	-1.9165086901	 0.107295
H	-3.3557250823	-2.5840053882	-1.2135126729	 0.103413
H	-3.2424806534	 0.1757961013	-1.0232492733	 0.09208
H	-1.7549958625	 0.8024442937	-1.7782044259	 0.122933
