21
gdb 115921	3.67151	1.16797	0.98181	1.5789	78.62	-0.2465	0.0873	0.3337	1275.0967	0.183226	-424.220432	-424.211896	-424.210952	-424.253665	32.953	
C	-0.0585105554	 1.5016341615	 0.0673052803	-0.386213
C	 0.0481328465	-0.0226125895	-0.0026472974	-0.206277
C	 0.7518567178	-0.5067535882	-1.2575499378	 0.221505
O	 2.085714458	-0.0544023976	-1.2381013412	-0.247455
C	 2.7333339205	-0.2907237722	-2.4815314283	-0.108587
C	 2.5656814522	-1.7284668464	-2.9295138028	-0.071994
C	 2.8797533122	-2.8695979804	-1.9879411732	-0.304559
C	 1.447117689	-2.5146829113	-2.2901994864	 0.10097
O	 0.6929722932	-1.9181546909	-1.2693132148	-0.260187
H	 0.933100324	 1.9602600008	 0.0380590403	 0.133143
H	-0.6382112404	 1.9001250838	-0.7729688327	 0.11094
H	-0.5549446574	 1.8146099157	 0.9902131658	 0.113386
H	 0.6050344742	-0.4126395928	 0.8559438402	 0.113811
H	-0.9432442659	-0.4865747866	 0.018631124	 0.107633
H	 0.2609926379	-0.1149291596	-2.1696769045	 0.052575
H	 2.3178859532	 0.3829425758	-3.2492036842	 0.093293
H	 3.7856146634	-0.0282492752	-2.3341638206	 0.112406
H	 2.7412471035	-1.8945307187	-3.9880615212	 0.091976
H	 3.2940510158	-3.7822095265	-2.4019027187	 0.110058
H	 3.2228952007	-2.6110536576	-0.9922239327	 0.129274
H	 0.853881547	-3.1908821339	-2.899959374	 0.094302
