19
gdb 88990	3.09926	1.05977	0.92891	2.9962	71.61	-0.2382	0.0577	0.296	1306.2779	0.156509	-460.096761	-460.087244	-460.0863	-460.132339	34.89	
O	-0.1016195103	 1.3878700957	-0.062906764	-0.423041
C	-0.1578515639	 0.0333663641	 0.2677368927	 0.087281
C	-1.1453327188	-0.3611168521	 1.3415094915	-0.33259
C	-1.3968635952	-0.7298908397	-0.1027390303	 0.083833
O	-2.3141022563	 0.0063180028	-0.8612307721	-0.277685
C	-3.6034284164	-0.531343823	-0.9722855961	 0.051495
C	-4.5307986372	-0.5140978104	 0.226352018	-0.35196
C	-4.6826337828	 0.5086897606	-0.8800066971	 0.12786
O	-4.3035239398	 1.8293947035	-0.6584572836	-0.431706
H	-0.3750387057	 1.4730588285	-0.9830630554	 0.295746
H	 0.7973445421	-0.4880706638	 0.2236353697	 0.09262
H	-0.8843249037	-1.1455141797	 2.0432448359	 0.11727
H	-1.7291173403	 0.4572321589	 1.7463614707	 0.131802
H	-1.3078483863	-1.7724679611	-0.4025597984	 0.095782
H	-3.680882362	-1.345772807	-1.6907569852	 0.095952
H	-5.2580334274	-1.3141943688	 0.3160540359	 0.114839
H	-4.1259236321	-0.1517283146	 1.1635338163	 0.129074
H	-5.5383553586	 0.4346762313	-1.5441422408	 0.102455
H	-3.3387934854	 1.8291514048	-0.5938180377	 0.290972
