18
gdb 39279	2.47828	2.23139	1.57715	2.2487	69.86	-0.246	0.0722	0.3181	883.5204	0.151545	-439.038456	-439.032068	-439.031123	-439.068801	27.268	
C	-0.0632341477	 1.5076577049	 0.0532949822	-0.120185
O	 1.3313340682	 1.8784224064	-0.0979792837	-0.288145
C	 2.1655244812	 0.7144647823	 0.0652753363	 0.251424
C	 1.2775982142	-0.2513870577	 0.8369350076	-0.327848
C	 0.0645104421	 0.0058430814	-0.0573525637	 0.265511
N	-0.812342948	-1.0182034536	-0.5889609436	-0.431214
C	 0.2633664159	-0.4729445424	-1.4519718875	-0.049557
C	 1.6960244301	-0.915942876	-1.6664626818	-0.113786
O	 2.5655059572	 0.1241430483	-1.1649805047	-0.278043
H	-0.4354057902	 1.8621470723	 1.0234644223	 0.096771
H	-0.6481562567	 1.9644859257	-0.7483246887	 0.117419
H	 3.0859177943	 1.0581705814	 0.538517557	 0.092488
H	 1.6455831734	-1.2769810801	 0.8521273989	 0.109773
H	 1.1041739396	 0.0830174197	 1.8631273536	 0.111388
H	-0.5740327253	-1.9215639439	-0.1839634989	 0.237359
H	-0.139680424	 0.1473650889	-2.247437984	 0.111669
H	 1.9152379294	-1.876569273	-1.1804116051	 0.09575
H	 1.9465662164	-1.0155617347	-2.7245303762	 0.119226
