21
gdb 92014	2.85281	1.57641	1.20906	1.7695	81.06	-0.2528	0.0827	0.3355	1099.0816	0.184637	-387.079171	-387.071367	-387.070423	-387.111088	31.775	
C	 0.0394134458	 1.5526887294	 0.0501031248	-0.40156
C	-0.0089205941	 0.0197295383	 0.0054558592	-0.0066
C	 0.6530591122	-0.5224737737	-1.279327623	-0.227351
C	 0.7370439177	-2.0462769478	-1.3312566718	-0.048352
C	 2.0543900175	-2.7526465515	-1.1201244698	-0.29862
C	 1.0053692045	-2.7840560475	-0.0368239402	-0.030694
C	 1.156245008	-1.9613534363	 1.2073417186	 0.018717
O	 2.0515754785	-0.8420572618	 1.1606741452	-0.262838
C	 0.639129446	-0.5844900545	 1.2386232946	 0.062195
H	 1.0761149547	 1.9058938615	 0.0711554484	 0.126944
H	-0.446615093	 1.986914005	-0.8296956166	 0.111368
H	-0.4663024977	 1.9434872204	 0.9393694574	 0.110023
H	-1.0636125937	-0.295016567	 0.0217166073	 0.074398
H	 0.0911354782	-0.1561340891	-2.1446634899	 0.093877
H	 1.6548134796	-0.0871054047	-1.3520966161	 0.112407
H	 0.0401142659	-2.5268486245	-2.0107048024	 0.081687
H	 2.2485508241	-3.6684108174	-1.6673093489	 0.106614
H	 2.9245061565	-2.1316156984	-0.9380806881	 0.128801
H	 0.4861191908	-3.7240283106	 0.1247457186	 0.080983
H	 1.2051866626	-2.5215290439	 2.1414271918	 0.08715
H	 0.3185112757	-0.1673314358	 2.1948035709	 0.080851
