21
gdb 109878	2.32483	1.49682	1.09559	1.5167	78.94	-0.2411	0.0735	0.3146	1197.227	0.181073	-424.190483	-424.180881	-424.179937	-424.224673	35.918	
C	-0.2402546286	 1.3462257765	 0.1213566967	-0.249324
O	 0.1589046227	-0.0003351133	-0.0727136914	-0.254055
C	 0.7388722507	-0.5812078904	 1.0753506922	 0.004403
C	-0.2785770652	-1.2453205322	 2.0782822064	 0.112292
O	-1.6437290979	-1.0605523279	 1.7946157422	-0.441884
C	 0.3757453305	-2.6012219267	 1.7994805243	-0.127034
C	 0.3505988334	-2.900694542	 0.3263349696	-0.342376
C	 1.3888400307	-1.9409557935	 0.8364674408	 0.345147
C	 2.8667872671	-2.1576853178	 0.6765714532	-0.506342
H	 0.6208450124	 1.9833491156	 0.3731940759	 0.108242
H	-0.6711787538	 1.692811236	-0.8212214672	 0.126458
H	-0.9913748022	 1.4373810614	 0.9163537751	 0.12595
H	 1.4153582027	 0.1325536455	 1.5656453764	 0.060698
H	-0.1224340237	-0.917031532	 3.1089833818	 0.084177
H	-1.719217377	-1.0073647097	 0.8341360881	 0.287575
H	 0.5548662956	-3.3750180145	 2.5369045867	 0.083881
H	 0.7352742368	-3.8783665839	 0.0528355922	 0.111343
H	-0.4640869192	-2.5619436877	-0.3064826552	 0.109595
H	 3.2165809519	-1.7888925693	-0.294887072	 0.127602
H	 3.4365786834	-1.636808108	 1.4547602905	 0.114714
H	 3.1177110695	-3.221806596	 0.7345264136	 0.118937
