25
gdb 75433	2.35688	1.32388	1.06447	0.1358	94.69	-0.2258	0.0361	0.2619	1312.7928	0.229055	-352.394856	-352.385118	-352.384173	-352.428393	38.826	
C	 0.0129269505	 1.5449558105	 0.0473169583	-0.476087
C	 0.0044999542	 0.0432105031	-0.0527042999	 0.312662
C	 0.0502058065	-0.5936607468	-1.2256551902	-0.129065
C	 0.0637610077	-2.0908490243	-1.374304802	-0.273255
C	 0.3577377188	-2.8025723166	-0.0464382536	-0.207819
C	-0.4199039593	-2.1986803565	 1.1416842195	 0.269521
C	-1.939406076	-2.3334701042	 0.9232262563	-0.41212
C	-0.0343554419	-2.9334101778	 2.4348480852	-0.421238
C	-0.0372999073	-0.705713253	 1.2624252388	-0.300355
H	 0.8556972194	 1.89669655	 0.6573367291	 0.118431
H	 0.0872444011	 2.0167840134	-0.9363327899	 0.11662
H	-0.8970672371	 1.9161339554	 0.5368210535	 0.118793
H	 0.0735416456	-0.0100499609	-2.1444204927	 0.06996
H	-0.8991399583	-2.4297431809	-1.7850751251	 0.104921
H	 0.8109908849	-2.38244092	-2.1237804969	 0.097749
H	 0.1345609825	-3.8729325657	-0.1336009327	 0.084559
H	 1.4314382888	-2.7238856002	 0.1688514227	 0.090225
H	-2.2202244862	-3.3785823536	 0.7506116353	 0.105189
H	-2.4878726218	-1.9839289396	 1.8050036344	 0.105585
H	-2.2808784605	-1.7446378483	 0.0674579618	 0.120295
H	 1.0476816	-2.8980309809	 2.6043185364	 0.106036
H	-0.5243494081	-2.483760528	 3.3061231577	 0.105826
H	-0.3321419297	-3.9872561298	 2.3931968647	 0.106158
H	 0.9461669602	-0.6161328082	 1.7493133898	 0.096546
H	-0.7385466139	-0.2035062072	 1.9442959393	 0.090864
