18
gdb 43763	4.68404	1.04351	0.97279	4.3016	76.88	-0.2444	-0.0069	0.2375	1236.3454	0.147609	-401.916794	-401.908832	-401.907888	-401.949862	30.584	
O	 1.0165687607	 0.174005444	 0.2295242094	-0.295902
C	 0.4672772293	 1.2259711417	 0.1344452775	 0.410838
C	-0.9022982507	 1.706881753	-0.3703707831	-0.442303
C	-0.3768305695	 3.1182552101	-0.0754726857	 0.353679
C	 0.0540849342	 3.1957506222	 1.3260615586	-0.29581
N	 1.0054756121	 2.5559287702	 0.3595440476	-0.208993
C	-0.5139831761	 4.2528083352	-1.0189546802	-0.104684
C	-1.633955934	 5.2584079833	-0.8353520601	-0.263137
C	-0.2029633689	 5.6766409907	-0.634923517	-0.26782
H	-1.0264553808	 1.4950968491	-1.435941093	 0.141506
H	-1.7918751936	 1.3687987609	 0.1675428151	 0.131065
H	 0.4441337555	 4.1331504097	 1.7068660064	 0.139853
H	-0.4174064147	 2.5689612521	 2.080099144	 0.128574
H	-0.2904651717	 3.9844195383	-2.0482976228	 0.094425
H	-2.1619969853	 5.6001665219	-1.7180919049	 0.120346
H	-2.255760504	 5.1569386276	 0.0475892426	 0.117099
H	 0.1297301326	 5.88368219	 0.3752655359	 0.118289
H	 0.264655945	 6.3009090302	-1.3874724905	 0.122973
