23
gdb 111754	2.32302	1.16673	0.93233	1.574	85.98	-0.2452	0.0704	0.3156	1390.3007	0.205615	-388.262031	-388.252288	-388.251343	-388.296849	36.761	
C	 0.0253761637	 1.3965020542	-0.2212694184	-0.370465
C	 0.0134217349	-0.0549936342	 0.273694343	-0.209854
C	-1.3617194518	-0.6879986267	 0.172249504	-0.043178
C	-1.9656081232	-1.2652980586	-1.0836660021	-0.130663
C	-0.9251270894	-2.0234847624	-1.9193382552	-0.228447
C	-0.614820241	-2.9316666014	-0.6873837406	-0.284453
C	-1.6720954259	-2.1678291634	 0.1288625209	 0.296891
C	-2.6243081103	-2.8108322894	 1.0919242305	-0.172068
O	-1.9949546704	-3.2165506515	 2.3037209898	-0.415304
H	 1.021125495	 1.8409332557	-0.1271594269	 0.110403
H	-0.2726920856	 1.4542196115	-1.2733368892	 0.120673
H	-0.6721037968	 2.0165973918	 0.3528768181	 0.112281
H	 0.7475673155	-0.6367470649	-0.2926876067	 0.102851
H	 0.3481162469	-0.0877491391	 1.3192183707	 0.089912
H	-2.1120744567	-0.1464753652	 0.7508102676	 0.076548
H	-2.9283005279	-0.9275747283	-1.4515297045	 0.081072
H	-1.3762410185	-2.5848422344	-2.7402707808	 0.103232
H	-0.0991697621	-1.4307355857	-2.3256177365	 0.096641
H	-0.9044097574	-3.9715526091	-0.8574183034	 0.103887
H	 0.4082469653	-2.9226931069	-0.3000916488	 0.09663
H	-3.4684623254	-2.1283007336	 1.2871669861	 0.080116
H	-3.0426670725	-3.7301721661	 0.66561105	 0.104041
H	-1.5554763564	-2.4407361725	 2.6675432726	 0.279252
