16
gdb 44712	3.08275	1.37066	1.18361	4.2131	68.59	-0.2498	-0.0274	0.2223	1049.9915	0.125357	-437.941186	-437.933716	-437.932772	-437.973756	28.392	
O	-0.0284181546	-0.0216687601	-0.2302139337	-0.35729
C	-0.0221919068	 1.1736163423	-0.120505863	 0.429707
N	-1.0194003909	 2.1199556397	-0.0934071477	-0.325593
C	-0.1430714293	 3.2837259706	 0.0806798349	 0.014173
C	-0.1845019351	 3.9402906471	 1.4584392101	-0.331047
C	 0.7256425015	 3.0860431905	 2.3567216168	 0.385602
O	 0.6946994908	 3.0588052462	 3.5569205087	-0.293155
C	 1.6953798662	 2.291544806	 1.4671825351	-0.333918
C	 1.062278442	 2.2663166744	 0.0755789999	-0.200882
H	-2.0247461104	 2.0337654709	-0.1385621421	 0.253058
H	-0.1881025342	 3.9909614796	-0.7506761886	 0.092659
H	 0.2446982851	 4.9502158942	 1.4180971555	 0.134429
H	-1.1848648973	 4.0297140543	 1.8876474877	 0.134117
H	 2.6562036484	 2.8211524614	 1.4639586604	 0.135344
H	 1.8754207152	 1.2995953386	 1.8879805937	 0.155673
H	 1.7681945093	 2.3459129643	-0.7504171877	 0.107123
