18
gdb 65444	3.81	0.81709	0.76153	2.5725	80.8	-0.2437	-0.0275	0.2162	1507.5732	0.143177	-401.886871	-401.876969	-401.876025	-401.922366	35.457	
C	-0.0067784832	 1.5588356142	-0.2558000807	-0.460786
C	 0.0193697352	 0.0483107866	-0.0727241512	 0.099407
C	 1.3279563971	-0.6843179635	-0.1786907433	-0.280952
N	 0.6578031338	-0.5709971111	 1.1062865896	-0.114643
C	 1.2528966512	 0.260151143	 2.1383788934	-0.232462
C	 1.9652384411	-0.6232523424	 3.1551074453	 0.157433
O	 2.9093114636	-0.2663918621	 3.8086113894	-0.23704
C	-1.1908595983	-0.6143435771	-0.5048640467	 0.296504
C	-2.2065034368	-1.1296677832	-0.8892352134	-0.41766
H	 0.9476096122	 2.0185458468	 0.0086051421	 0.123082
H	-0.2207131682	 1.7982032956	-1.3010551615	 0.139786
H	-0.7947667712	 2.0094036068	 0.3556502059	 0.135137
H	 1.3642336418	-1.678987115	-0.6129506381	 0.128592
H	 2.2111386897	-0.0699498733	-0.3538676337	 0.116643
H	 1.9621020573	 1.0243832654	 1.7896353921	 0.117361
H	 0.4484145071	 0.776964824	 2.6816490508	 0.138481
H	 1.5198325426	-1.637229718	 3.2537366609	 0.094697
H	-3.1001022251	-1.5991694566	-1.219000261	 0.196421
