17
gdb 10834	4.72233	1.54584	1.22443	3.0788	66.66	-0.2541	0.0183	0.2725	981.9621	0.143034	-401.010189	-401.002588	-401.001644	-401.042135	28.311	
C	-0.1645037973	 1.4975403422	 0.0504719583	-0.410315
C	 0.0247676763	-0.0096369494	-0.001845774	 0.110528
C	 0.7866128411	-0.4571347834	-1.2403768013	-0.073581
O	 1.0766699318	-1.8637515445	-1.2281466525	-0.25433
C	 1.3980531763	-2.4605888548	-0.0460895003	 0.369187
N	 2.0067414681	-3.5670401735	 0.0103290653	-0.506816
C	 0.8839294499	-1.8075267839	 1.2223891273	-0.159236
O	 0.7730672924	-0.4005217847	 1.1412057053	-0.255136
H	 0.8044075522	 2.0057109039	 0.0404253889	 0.131854
H	-0.7528454081	 1.8455784158	-0.8036684647	 0.121706
H	-0.6866735476	 1.775454108	 0.9690249738	 0.135322
H	-0.9570971664	-0.514682719	 0.0154505751	 0.075092
H	 0.2105432274	-0.2814983133	-2.1529239486	 0.118365
H	 1.731955136	 0.0976377164	-1.3057356115	 0.114381
H	 2.2270294631	-3.8977391285	-0.9318264518	 0.220362
H	-0.0984551106	-2.2546418785	 1.4534935772	 0.116079
H	 1.5646625254	-2.0440992829	 2.0401368933	 0.146539
