14
gdb 45951	2.03839	1.90427	1.04406	6.8733	68.3	-0.2583	-0.0589	0.1995	1072.6709	0.101273	-432.903143	-432.894991	-432.894047	-432.937137	29.022	
N	-0.0421812965	 1.2890834792	 0.2018975484	-0.522185
C	 0.0237708129	 0.0301179042	 0.0686827276	 0.393367
N	 1.1076727475	-0.7973546566	-0.1422985788	-0.35047
C	 0.8569637153	-2.2201137562	-0.068139085	-0.27523
C	-0.6609093415	-2.3087461712	 0.1094090713	 0.400911
O	-1.2924689043	-3.3134615697	 0.2441199442	-0.268118
C	-1.220651228	-0.8626721121	 0.0718391837	-0.340241
C	-2.1635392681	-0.5864037272	 1.1438268184	 0.320054
N	-2.9126922936	-0.3992881711	 2.0021055229	-0.315264
H	 0.8790880186	 1.7288064979	 0.1702025645	 0.212328
H	 2.0423336102	-0.424827461	-0.0991052805	 0.255506
H	 1.1535243132	-2.7596222822	-0.9769520135	 0.150714
H	 1.344271569	-2.7108367968	 0.7852846229	 0.154157
H	-1.7375590347	-0.7444176474	-0.8902925061	 0.184472
