15
gdb 78157	2.20834	1.7574	1.28026	3.3437	66.22	-0.2428	-0.0296	0.2132	993.0343	0.111972	-457.791505	-457.783911	-457.782967	-457.823746	29.085	
O	-0.0691570045	 1.3847953882	-0.056994421	-0.409267
C	-0.0528600119	-0.0063919535	 0.0295623687	 0.092875
C	-0.4757675205	-0.7452635465	 1.2821991778	-0.228834
C	-1.3551778914	-0.7419683151	 0.013678617	-0.206293
C	-2.5936030118	 0.0545809833	 0.3461335861	 0.43173
O	-3.6090708092	 0.0311763718	-0.2983999332	-0.317298
C	-2.3743708928	 0.7885468601	 1.6667725096	-0.446359
C	-1.2008746459	 0.0642749244	 2.3236008729	 0.416803
O	-0.9208150892	 0.0762283515	 3.4952143979	-0.320618
H	 0.722722685	 1.7239212837	 0.3753844635	 0.301285
H	 0.7502604977	-0.486262247	-0.5285712611	 0.118431
H	 0.0986106652	-1.6016149325	 1.613862591	 0.120778
H	-1.473463359	-1.6006356488	-0.6354880873	 0.124365
H	-2.0938536534	 1.8266484355	 1.459840266	 0.16911
H	-3.2668640382	 0.7896476851	 2.2958260222	 0.153293
