20
gdb 82861	2.54696	2.0727	1.75497	1.4129	76.15	-0.2088	0.087	0.2958	900.5116	0.174861	-403.132272	-403.125583	-403.124638	-403.162929	28.458	
C	-0.1790604161	 1.539402984	-0.0186026401	-0.422578
C	 0.0617552608	 0.0370392855	-0.0248731645	 0.044147
C	 0.7759674655	-0.513979669	-1.2883242885	 0.085335
O	 1.9753241712	 0.2613066939	-1.540443284	-0.29901
C	 2.6546947154	-0.5474931259	-0.5462444922	 0.09678
C	 2.3150193307	-0.0019326674	 0.8582385385	-0.194334
N	 0.9165428262	-0.4661019817	 1.1057297289	-0.123484
C	 1.0477108321	-1.8940428844	 0.7185858451	-0.197911
C	 1.6048211972	-1.6892356026	-0.6928513961	-0.083553
H	 0.722202393	 2.0912433534	-0.2919398716	 0.135097
H	-0.9550008363	 1.7957805049	-0.7474132199	 0.113858
H	-0.5157112076	 1.8664277087	 0.9688666424	 0.123676
H	-0.9020202659	-0.4770063538	 0.0820728838	 0.074294
H	 0.1555960826	-0.6274409786	-2.1806574635	 0.072377
H	 3.7130545054	-0.692947111	-0.7738187854	 0.074828
H	 2.9610164679	-0.4353892952	 1.6295386893	 0.101429
H	 2.3966799445	 1.0848516227	 0.9077445747	 0.11562
H	 1.7335815696	-2.4179596421	 1.3907488826	 0.102679
H	 0.0757634801	-2.3946675899	 0.7452875758	 0.10444
H	 1.8449138837	-2.5363080415	-1.3309783055	 0.076308
