22
gdb 100006	2.7749	1.02601	0.94092	4.1522	79.72	-0.2372	0.0341	0.2713	1361.7767	0.191654	-441.50118	-441.490212	-441.489268	-441.537103	39.921	
C	 0.6881015193	 1.2841153678	 0.1082384753	-0.355661
N	-0.0332094655	 0.0189639427	-0.0115893379	-0.085502
C	-0.6738108548	-0.4220257604	 1.1137894289	 0.148148
O	-0.7112926812	 0.1766248684	 2.1726821131	-0.355802
C	 0.0399380744	-0.7444331981	-1.2814282154	 0.241618
C	 1.4635654131	-1.2968592286	-1.4944258048	-0.400175
C	-0.9564959258	-1.9148327227	-1.3176333544	-0.436672
C	-0.3293503522	 0.2275098349	-2.4280038922	-0.085918
O	-0.2764205521	-0.4833091524	-3.6548585255	-0.418518
H	 1.6839261419	 1.2132626242	-0.3358594616	 0.123852
H	 0.1495521956	 2.1102888458	-0.3697659684	 0.125387
H	 0.7789121972	 1.5073937935	 1.1708380329	 0.168153
H	-1.1681499921	-1.3938059177	 0.9825682975	 0.08481
H	 1.71860762	-2.0022557277	-0.6985232279	 0.118691
H	 1.5211471036	-1.809992045	-2.4565750261	 0.139225
H	 2.2143896466	-0.5019283073	-1.4989183525	 0.113765
H	-1.9768087711	-1.587081645	-1.0975822728	 0.122343
H	-0.9469661593	-2.3292813214	-2.3266563422	 0.146802
H	-0.6846096135	-2.7120131564	-0.621506054	 0.123928
H	-1.3365114805	 0.6289671224	-2.2354043385	 0.095709
H	 0.3734090845	 1.0708645667	-2.4429687517	 0.091832
H	-0.4414799281	 0.1365874861	-4.3704225018	 0.293987
