19
gdb 45483	2.84025	1.67546	1.48395	3.3253	77.46	-0.2317	-0.0101	0.2217	967.7668	0.162693	-385.926138	-385.91932	-385.918376	-385.957369	28.213	
O	 0.0363104291	 0.0456572706	-0.5158211953	-0.332791
C	 0.0081817299	 1.1899906193	-0.134947419	 0.397039
C	-1.2574613506	 2.0109171331	 0.1447512887	-0.318916
C	-0.7909475433	 3.3113712533	 0.8321965184	-0.056144
C	-0.7341510932	 3.1539363753	 2.3676922011	-0.195684
C	 0.5450164464	 2.3213693846	 2.6280794336	-0.24724
C	 1.4563850896	 2.6760306425	 1.4501009801	-0.031635
C	 0.7017413002	 3.4709617409	 0.4287554204	-0.088156
C	 1.19228036	 2.0876545796	 0.0569835362	-0.156807
H	-1.703057613	 2.2275929648	-0.83422629	 0.130049
H	-1.9931970611	 1.4319125138	 0.709711452	 0.120843
H	-1.3979408336	 4.1663226259	 0.5298481445	 0.075396
H	-0.6219851961	 4.1422292408	 2.8271260832	 0.099171
H	-1.6395413234	 2.6994818575	 2.7822079271	 0.097499
H	 1.0159795236	 2.5866726819	 3.5785276812	 0.103436
H	 0.3324116439	 1.247487008	 2.6731057212	 0.115908
H	 2.5015606173	 2.8874623701	 1.646308706	 0.094987
H	 1.0765913084	 4.3726299264	-0.0389893473	 0.090213
H	 2.0596078358	 1.9108576515	-0.5681190522	 0.102831
