19
gdb 22227	3.00059	0.88711	0.72419	3.2485	78.49	-0.2457	-0.0361	0.2096	1590.5677	0.15699	-456.348909	-456.338285	-456.337341	-456.386312	36.894	
C	 0.4777444178	 1.214423603	 0.300138539	-0.370483
C	-0.3945995173	 0.1573506949	-0.3822255795	-0.14644
N	 0.2742973831	-0.4998062837	-1.4906440368	-0.321647
C	 0.7192584816	-1.7792917402	-1.4316489561	 0.371241
O	 0.5730742186	-2.5169334882	-0.4684402967	-0.384159
C	 1.431976175	-2.2731422494	-2.6746132663	 0.271238
C	 1.928271153	-3.6856517907	-2.6932323794	-0.481787
N	 1.5601158307	-1.4306681297	-3.6289168962	-0.184343
O	 2.2265558067	-1.9694813115	-4.7243090455	-0.381154
H	 1.3848882717	 0.7606736587	 0.7092992142	 0.132741
H	 0.7764979121	 1.9991223738	-0.4033468841	 0.112448
H	-0.0705487139	 1.6897033227	 1.1198260433	 0.118638
H	-0.6639523086	-0.6304598941	 0.3243644989	 0.147668
H	-1.324091853	 0.6129114421	-0.7453695634	 0.105423
H	 0.4825804561	 0.0117979622	-2.3348014928	 0.252318
H	 1.4731952817	-4.235764586	-3.5231417115	 0.144173
H	 3.0103054163	-3.7051975342	-2.8585107515	 0.14407
H	 1.6857522462	-4.1673625478	-1.747270481	 0.159404
H	 2.2461613722	-1.2325295618	-5.3453692046	 0.31065
