15
gdb 127917	2.81652	1.39691	0.93932	6.3163	73.38	-0.2204	-0.0308	0.1897	1182.505	0.112766	-450.147343	-450.13881	-450.137866	-450.180986	29.699	
C	 0.0349010344	 1.4136368656	 0.0071156562	-0.340198
N	 0.0367507615	-0.0374107086	 0.0018404303	-0.358623
C	-1.0870224347	-0.6221036352	 0.0090392341	 0.540911
N	-2.3965716117	-0.1327339453	 0.0218358816	-0.386376
C	-3.2569497138	-1.2065368964	 0.0222560286	 0.07536
N	-2.6524622341	-2.3435615131	 0.0157170658	-0.20078
N	-1.3019363891	-2.0152949925	 0.0067876056	-0.14963
C	-0.2967115626	-2.9806754203	-0.0030941452	 0.172199
O	-0.4933654465	-4.1654297348	-0.0052885727	-0.282026
H	 1.0654979743	 1.7754420841	 0.0003838875	 0.137187
H	-0.4665568907	 1.8401677419	-0.8770685739	 0.107157
H	-0.4529389705	 1.8336315087	 0.9019213577	 0.107384
H	-2.6415518965	 0.840854987	 0.0203686522	 0.282804
H	-4.3308849326	-1.0984283077	 0.0300870379	 0.163056
H	 0.6897126926	-2.4912962233	-0.0089742756	 0.131575
