15
gdb 18852	3.61384	2.50311	2.05525	4.0082	63.71	-0.2418	0.0019	0.2437	703.9721	0.121671	-362.654949	-362.649173	-362.648229	-362.684709	23.147	
O	 0.0345257853	 0.0711810897	 0.2821890324	-0.331351
C	-0.057039327	 1.2448212118	 0.0823914988	 0.431699
C	-1.1445068568	 2.2513605331	-0.0911402176	-0.231335
C	-0.7542415616	 3.4634058889	 0.8165699945	-0.042341
C	 0.2096963419	 3.2283876025	 1.9808176799	-0.25746
C	 1.4732048857	 2.6609401817	 1.2631889587	-0.180167
N	 0.9939283316	 2.2494860375	-0.0813985559	-0.167968
C	-0.0511396673	 3.240567599	-0.4675539737	-0.035662
H	-2.1512693629	 2.1267049409	-0.468737467	 0.113103
H	-1.5281714723	 4.2198340503	 0.8920620404	 0.105586
H	 0.422541338	 4.1688064323	 2.4978234444	 0.11019
H	-0.1952525523	 2.5288239793	 2.7179071456	 0.122475
H	 2.2457493717	 3.4255705509	 1.1447352394	 0.114436
H	 1.9117148254	 1.7987979751	 1.7688849159	 0.13474
H	 0.0449643606	 3.8750494171	-1.3366828155	 0.114055
