18
gdb 58137	1.81612	1.61656	1.15274	3.7298	72.74	-0.2769	-0.0532	0.2237	1147.3686	0.143696	-439.104361	-439.093912	-439.092968	-439.139549	36.951	
C	 0.0986998013	 1.4764797121	 0.1668607578	-0.435198
C	 0.0887363466	-0.0426835913	-0.0005367997	 0.121295
O	-1.2366506841	-0.5575173388	 0.0329331224	-0.435823
C	 0.6748335029	-0.5478161972	-1.3468899669	-0.016408
C	-0.0416601047	 0.0497137099	-2.5845644454	-0.434942
C	 2.1849409106	-0.2599356278	-1.4778074941	 0.148637
O	 2.8446876407	 0.3354942523	-0.6716597026	-0.239102
C	 0.5639379284	-2.0146795482	-1.4010098938	 0.283446
N	 0.5465885563	-3.1679789946	-1.4751560955	-0.334737
H	 1.1140015883	 1.8735909725	 0.1233552168	 0.151721
H	-0.5213284528	 1.962898466	-0.5906477719	 0.127197
H	-0.3179438194	 1.7290934283	 1.1482365531	 0.114512
H	 0.6970054893	-0.4911336088	 0.7975059434	 0.098676
H	-1.6209921745	-0.344823631	 0.8889288294	 0.291234
H	 0.133672868	 1.1263581639	-2.644124319	 0.136853
H	 0.3247566555	-0.4133563681	-3.5040036907	 0.14049
H	-1.113699767	-0.1337455044	-2.5015221176	 0.16817
H	 2.6253102447	-0.6589935248	-2.4163512655	 0.113979
