13
gdb 28091	4.82372	0.93528	0.7895	5.4813	62.53	-0.215	0.0029	0.2179	1315.6548	0.089571	-489.940341	-489.932466	-489.931521	-489.973547	28.205	
O	 0.101552117	 1.3112276698	 0.1609069615	-0.418737
C	 0.0269559507	-0.0189830704	 0.0195097933	 0.470087
N	-0.1257857686	-0.6821203342	-1.1012724445	-0.432077
C	-0.14004009	-1.9996576823	-0.7052892201	 0.367175
O	-0.3249116819	-3.0288831488	-1.5848465168	-0.225855
C	 0.121540987	-2.8805717768	-2.8661100439	 0.155728
O	-0.0620970943	-3.7271186158	-3.6849974964	-0.266794
C	-0.0009950573	-2.1362536877	 0.642307239	-0.215972
N	 0.1050897635	-0.820966001	 1.1028645779	-0.300766
H	 0.0054578221	 1.6914883468	-0.721278852	 0.320277
H	 0.6421977559	-1.9255274619	-3.0243161314	 0.119407
H	 0.0302840742	-2.9900436356	 1.2938742153	 0.14681
H	 0.2004567116	-0.5168566421	 2.056543448	 0.280716
