15
gdb 14319	5.55985	1.6806	1.38845	4.5043	68.97	-0.2413	-0.0277	0.2135	865.3119	0.121382	-362.682019	-362.675779	-362.674835	-362.712227	24.753	
O	 0.0278309086	-0.0480605856	 0.0164782942	-0.374529
C	 0.0025538304	 1.1612802066	 0.0285077807	 0.403314
N	-1.1619199185	 1.9480317654	-0.0366870713	-0.347193
C	-0.8305279916	 3.3316231293	-0.2034655799	-0.005322
C	-0.8505736051	 4.4398093795	 0.9283658737	-0.2469
C	 0.6585501584	 4.7475557682	 0.5981293976	-0.306818
C	 0.6545431848	 3.3615855825	-0.0008751221	 0.256066
C	 1.1350784148	 2.1320401693	 0.1962668512	-0.332687
H	-1.9987029071	 1.5294128082	-0.4123975082	 0.246326
H	-1.1922108162	 3.7514622246	-1.1489429725	 0.10023
H	-1.5658139026	 5.2544691709	 0.799567728	 0.110782
H	-0.9571257271	 3.9874230707	 1.9150225362	 0.129485
H	 0.7573769909	 5.5499301606	-0.1386775013	 0.123102
H	 1.3396049887	 4.9331042271	 1.4294501685	 0.12572
H	 2.1053501317	 1.8183915727	 0.5540736553	 0.118424
