21
gdb 70816	2.34363	1.65989	1.43889	1.6941	83.16	-0.2235	0.0849	0.3084	1071.4969	0.179973	-387.025522	-387.016404	-387.01546	-387.058426	35.478	
C	 0.0050202357	 1.4780810819	-0.0303030349	-0.526494
C	 0.0497013376	-0.0211360683	-0.0990822887	 0.266079
C	 0.6167561813	-0.9618277134	-1.1882156691	-0.37206
C	 0.0808242724	-1.9588054843	-0.1339485852	 0.266079
C	 0.0843150971	-3.4601862239	-0.1191675422	-0.526494
C	 0.4642836495	-1.0043724958	 1.0397433921	 0.003391
O	-0.8522679479	-1.0367640213	 1.6650313894	-0.367685
C	-1.1256319561	-1.0152097089	 0.2231163182	 0.388941
C	-2.5455965344	-1.0296081549	-0.2443371083	-0.531462
H	 1.0113263745	 1.9097806175	-0.0642755187	 0.119841
H	-0.5651879595	 1.8994439193	-0.8657387629	 0.118163
H	-0.4707984016	 1.7964389259	 0.9033872602	 0.132612
H	 0.1096819842	-0.952508659	-2.1588649276	 0.090492
H	 1.7020845688	-0.9417941536	-1.3324493958	 0.090732
H	 1.1039434438	-3.8578697461	-0.1679210255	 0.119841
H	-0.3806291403	-3.8270281131	 0.8021287889	 0.132612
H	-0.4724398814	-3.8693052984	-0.9696274099	 0.118163
H	 1.3469005537	-1.0017320279	 1.6808226967	 0.082478
H	-3.0871607205	-0.1582638352	 0.1375086052	 0.134204
H	-2.5875694411	-1.0099305225	-1.3382581359	 0.126379
H	-3.0583972158	-1.931651678	 0.1045079339	 0.134187
