18
gdb 74024	2.80434	1.61793	1.1054	3.3748	83.08	-0.2325	-0.0249	0.2077	1102.8257	0.148574	-401.952341	-401.944381	-401.943437	-401.984867	30.459	
C	-0.0553983324	 1.4279724789	-0.0315867689	-0.489314
C	-0.0248795108	-0.0493568231	 0.1725003697	 0.123771
C	-1.0007315467	-0.9386642306	 0.3849627883	 0.099686
C	-2.3784834563	-1.3098856474	-0.1200906027	-0.31007
C	-1.6326438311	-2.5223916409	-0.8041294898	-0.254173
C	-0.4708572799	-2.3203389066	 0.2386298254	 0.071559
O	 0.9050563145	-2.1891842578	-0.0799729013	-0.262036
C	 1.2219922253	-0.8365021252	-0.0210131818	 0.342371
N	 2.382536827	-0.3633313824	-0.1949071234	-0.541677
H	 0.530471239	 1.9333741228	 0.7441361545	 0.148051
H	 0.403327169	 1.698293577	-0.9881320583	 0.143592
H	-1.0772315717	 1.8142629804	 0.0005950935	 0.118089
H	-3.0684983465	-1.6457815339	 0.6592287427	 0.123332
H	-2.8855926106	-0.5912971333	-0.7655252325	 0.123162
H	-2.1362761138	-3.4914627241	-0.798688466	 0.111703
H	-1.3049952306	-2.2659759659	-1.8126556708	 0.128729
H	-0.5777074954	-3.0005522864	 1.0903197866	 0.100324
H	 3.0536766511	-1.1074363116	-0.3885854853	 0.222899
