23
gdb 114878	3.83081	1.01101	0.87414	0.394	93.03	-0.22	0.0267	0.2467	1433.8117	0.207106	-351.150202	-351.141405	-351.140461	-351.183795	34.259	
C	-0.1891322915	 1.4447932659	-0.0737789563	-0.378854
C	 0.1747264272	-0.0433606154	-0.0706054265	-0.193543
C	 0.8212399021	-0.4998128866	 1.2317150383	-0.06445
C	-0.0375995684	-0.5757602696	 2.5582896908	-0.263267
C	 0.7005348502	-1.9129631543	 2.9213701868	-0.033367
C	 0.0421020422	-3.2826012151	 3.1826217356	-0.240733
C	 0.6238370473	-4.1869557749	 2.0441090726	-0.234604
C	 0.9585653122	-3.1879940652	 0.9368060828	-0.240057
C	 1.073833076	-1.9740382963	 1.4653696694	 0.294613
H	 0.6989152111	 2.0702789063	 0.0709299734	 0.113117
H	-0.6520433129	 1.738436616	-1.0209560739	 0.111486
H	-0.8947948164	 1.6831579917	 0.7293909113	 0.118539
H	-0.7223831358	-0.6492306514	-0.249992893	 0.095296
H	 0.8594164634	-0.2563810209	-0.9018546057	 0.097976
H	 1.7230955472	 0.0954976992	 1.429933283	 0.07723
H	 0.0516504314	 0.2585023365	 3.2586303823	 0.09481
H	-1.0937196144	-0.7492006988	 2.3285583304	 0.100814
H	 1.5454170379	-1.7143027069	 3.5924457458	 0.070108
H	 0.2325154808	-3.6847645712	 4.1819872431	 0.09079
H	-1.0445655246	-3.2064410758	 3.060268379	 0.098053
H	 1.5120047943	-4.7382164416	 2.3853202592	 0.101574
H	-0.0955513223	-4.9433173514	 1.7109399454	 0.098177
H	 1.007048073	-3.4613673001	-0.1110278837	 0.086292
