20
gdb 90929	2.4056	1.74665	1.48098	1.4184	77.48	-0.2382	0.0641	0.3023	1005.3241	0.172045	-403.118011	-403.110009	-403.109064	-403.150091	31.994	
C	-0.1061119342	 1.5085427649	-0.0207214827	-0.5142
C	 0.0127674929	 0.0160891672	 0.0188447706	 0.314748
C	 0.5364388876	-0.9908359901	-0.957100232	-0.08941
C	 1.2746270288	-1.7534936301	 0.1495122221	-0.261925
C	 0.4820711477	-0.9073592478	 1.19539145	-0.125381
C	-0.7877467345	-1.6511978045	 1.6119242341	 0.147809
O	-1.5840761436	-0.9238109601	 2.5359465891	-0.446108
C	-1.4825189667	-1.8639540178	 0.2378453868	-0.215046
N	-0.9095222617	-0.8671726142	-0.692183869	-0.13501
H	 0.8471248564	 1.9862950939	 0.2294464045	 0.123388
H	-0.4079221491	 1.8373864882	-1.0188789342	 0.136343
H	-0.8541330133	 1.8758490618	 0.6929959305	 0.111836
H	 0.8595057507	-0.870935801	-1.9860754702	 0.088596
H	 1.1650367999	-2.8431914502	 0.1927262539	 0.094114
H	 2.3390171159	-1.5068372946	 0.1522453424	 0.107702
H	 1.0454472707	-0.4805873866	 2.0242945995	 0.0755
H	-0.5636877395	-2.598027614	 2.1127724644	 0.086374
H	-1.8462624704	-0.0965711236	 2.1175534219	 0.281455
H	-1.340481297	-2.8749281339	-0.1555362918	 0.108748
H	-2.5590017305	-1.6921486975	 0.3338945002	 0.110467
