18
gdb 124752	2.55979	1.38691	0.96554	3.6081	74.16	-0.2016	0.036	0.2376	1209.0988	0.148481	-435.278467	-435.269102	-435.268158	-435.313052	34.367	
C	 0.1370086855	 1.4611828463	-0.2231441206	-0.39722
C	 0.0392547981	-0.0303601929	 0.126439243	-0.012043
O	 0.6086813758	-0.2832822268	 1.4067474911	-0.420848
C	-1.3705297613	-0.5604958009	 0.0444762748	 0.144523
C	-2.221917479	-0.5953740167	-1.050958468	 0.28154
N	-2.0707461322	-0.1251590545	-2.3590632269	-0.606631
N	-3.3800207563	-1.1563472454	-0.6215159075	-0.247916
N	-3.3516544607	-1.5061125109	 0.6917870596	-0.247609
C	-2.1360211814	-1.1481570671	 1.0811326618	-0.087236
H	 1.1769154392	 1.7949665619	-0.1641522502	 0.120459
H	-0.2438849572	 1.6693028289	-1.2282533479	 0.115037
H	-0.4645921408	 2.052381104	 0.4770731213	 0.113984
H	 0.6869604107	-0.5902511666	-0.5638883538	 0.086974
H	 0.1272246006	 0.2557175797	 2.0446736927	 0.279013
H	-1.0979256612	-0.0466315314	-2.6244360223	 0.258328
H	-2.5521296892	-0.6927720377	-3.0463847339	 0.248868
H	-4.22632498	-1.2947439048	-1.1470338217	 0.264572
H	-1.8211096305	-1.3371269148	 2.0966591286	 0.106206
