21
gdb 71940	2.6643	1.91188	1.43031	1.6388	80.69	-0.2371	0.076	0.3131	997.0365	0.184394	-387.084426	-387.076816	-387.075872	-387.116569	30.967	
C	 0.0392419366	 1.5170614694	 0.0552440311	-0.462103
C	-0.037070114	 0.0080685262	-0.0679808953	 0.447085
C	 0.7906838572	-0.6046154285	-1.2021781039	-0.246619
C	 0.1601521744	-1.9891225021	-1.5137531381	-0.231755
C	-1.1533652588	-2.0857200961	-0.6993238501	-0.023004
C	-1.0194814387	-2.6741234333	 0.7443539796	-0.245287
C	-1.0151184756	-1.2437505324	 1.3120815509	 0.12174
O	 0.2864441509	-0.626725472	 1.2153054541	-0.35441
C	-1.4215629555	-0.677992075	-0.0712476926	-0.156836
H	 1.0680800318	 1.8300663503	 0.2630045044	 0.123983
H	-0.2863279137	 2.0020937405	-0.8713167599	 0.110925
H	-0.5923143766	 1.8711179342	 0.8750033635	 0.11897
H	 0.7432686361	 0.0476713561	-2.0814074097	 0.093855
H	 1.8415248541	-0.6700703592	-0.9048923171	 0.108891
H	-0.0415835979	-2.0823933221	-2.5851708778	 0.095935
H	 0.8338516021	-2.8106200387	-1.2526470072	 0.103674
H	-1.9683029057	-2.5227420587	-1.278361532	 0.06708
H	-1.9169368191	-3.2252105653	 1.0435945322	 0.094982
H	-0.1350427686	-3.2790926144	 0.9639470654	 0.099519
H	-1.5003462487	-1.0380441902	 2.2696603708	 0.069073
H	-2.3257319902	-0.1173500487	-0.3011268983	 0.0643
