18
gdb 17914	3.33248	2.22723	2.13602	1.4816	70.75	-0.2368	0.0111	0.248	768.9292	0.156234	-347.803327	-347.796815	-347.795871	-347.833498	26.72	
C	-0.0938313947	 1.5456148263	 0.0319062237	-0.429252
C	 0.0412697616	 0.0271529562	 0.0106783531	 0.032047
C	 1.0564485799	-0.6051786043	-0.9965237516	-0.106893
C	 2.3826034983	-0.0484881143	-0.3929482432	-0.075375
O	 2.1452776081	-0.0503913569	 1.0188412421	-0.278353
C	 0.8040440134	-0.6036422844	 1.1950326474	 0.055245
C	 0.8578591708	-2.0617786855	 0.7749404268	-0.079291
C	 1.0101965328	-2.0561040603	-0.5550373891	-0.082505
H	 0.8371689044	 2.0323924291	 0.3308474085	 0.136217
H	-0.3855341959	 1.9289027276	-0.9520648998	 0.111666
H	-0.8689090011	 1.8486183368	 0.7439425621	 0.115045
H	-0.9374175887	-0.4421892183	-0.1160920741	 0.076337
H	 0.9149565698	-0.3975363952	-2.0572663696	 0.064894
H	 3.2452963097	-0.6796466225	-0.6349560393	 0.09706
H	 2.5891450132	 0.97504549	-0.7288894025	 0.09667
H	 0.4841346179	-0.3708252717	 2.2097560656	 0.069786
H	 0.8854301539	-2.9092808908	 1.4473331956	 0.099266
H	 1.1865308265	-2.9037408819	-1.2057341057	 0.097435
