18
gdb 65813	2.84602	1.17744	1.04049	3.7118	71.37	-0.255	0.0033	0.2583	1199.7031	0.145945	-439.059853	-439.050701	-439.049757	-439.094577	32.83	
C	 0.1765130637	 1.4413147174	-0.616012056	-0.468343
C	-0.1492313737	 0.0918938122	 0.0087126666	 0.354019
C	 0.5075331277	-1.1262566397	-0.6987161517	-0.116402
O	 1.5090174534	-1.2091680888	 0.3374531248	-0.273139
C	 0.7692670232	-0.3053500244	 1.1802637606	-0.113179
O	-1.5143058117	-0.0517865271	 0.3902606109	-0.281907
C	-2.497355753	 0.2678316897	-0.5608588375	-0.20603
C	-2.4464436372	-0.5620415456	-1.7817549502	 0.256637
N	-2.3964990491	-1.2007003339	-2.7434220748	-0.308262
H	 1.2592086341	 1.523305763	-0.7440865054	 0.144248
H	-0.2765315005	 1.5619068984	-1.6051842702	 0.13081
H	-0.1568164122	 2.2603505386	 0.0299778709	 0.127621
H	-0.1398966698	-2.0104225325	-0.7215064097	 0.113809
H	 0.9461577527	-0.9618583857	-1.6879876448	 0.113013
H	 1.4014965298	 0.4787561042	 1.6109976906	 0.10493
H	 0.2236005241	-0.8263042915	 1.9770892019	 0.109794
H	-3.461108471	 0.1023479804	-0.0700814028	 0.165404
H	-2.4606781906	 1.3217203953	-0.8687023333	 0.146974
