19
gdb 92899	2.36421	1.79415	1.03995	2.8231	80.35	-0.2014	0.015	0.2164	1151.9949	0.160087	-419.258995	-419.249638	-419.248694	-419.294127	32.862	
C	-0.0791195566	 1.3988321256	-0.1067286722	-0.336098
N	-0.0012925303	-0.047196611	-0.0388345819	-0.162222
C	-1.2874611127	-0.7305498018	 0.0573989357	-0.193808
C	-1.127744429	-2.2144038315	 0.1231017488	-0.162183
C	 0.0819315804	-2.7688405412	 0.0919938471	 0.038393
N	 1.2565351134	-2.0320594128	-0.0013252059	-0.169631
C	 2.5365096509	-2.7219327395	-0.0287541019	-0.353987
C	 1.2407998442	-0.6373291287	-0.0696314072	 0.516489
O	 2.2763238772	 0.0063822929	-0.1515875159	-0.428665
H	 0.9293310366	 1.8005787807	-0.1757480168	 0.170179
H	-0.6608520353	 1.7123525591	-0.9841960243	 0.116059
H	-0.5745679087	 1.8002377097	 0.7877367281	 0.116061
H	-1.8278333933	-0.3536308563	 0.9443392141	 0.107648
H	-1.9127215062	-0.4402639221	-0.806032056	 0.107652
H	-2.0150190288	-2.8289378448	 0.1964289033	 0.099258
H	 0.22908384	-3.842039324	 0.1379724736	 0.11204
H	 2.5989146411	-3.3963685685	-0.8907143691	 0.123612
H	 3.3174251514	-1.9681957981	-0.1044729784	 0.175589
H	 2.6851527056	-3.3071750776	 0.8862029189	 0.123614
