20
gdb 98972	3.23713	0.87574	0.72693	3.3951	77.65	-0.2596	-0.0171	0.2425	1619.1142	0.168192	-440.340526	-440.329905	-440.328961	-440.377939	36.572	
C	 0.6878634305	-0.0224959111	 0.8928595122	-0.381102
C	-0.1325958361	 0.3602661996	-0.3492862046	-0.236519
C	 0.6251515932	 0.1690101274	-1.6341679208	 0.394484
N	 0.9656926417	 1.1084402291	-2.3959626409	-0.491212
O	 0.8712978698	-1.2127064377	-1.8000873283	-0.275268
C	 1.5659147992	-1.7424809742	-2.8471711604	 0.452335
O	 2.0447012404	-1.110502923	-3.7529467306	-0.335216
C	 1.6427134957	-3.2470923396	-2.6977251791	-0.301231
C	 2.408056571	-3.9187022699	-3.8348300001	-0.375051
H	 0.9900988481	-1.0723057755	 0.8562518571	 0.126266
H	 1.5903900849	 0.5915196457	 0.9680657506	 0.130456
H	 0.097543458	 0.1304325008	 1.8005535868	 0.120961
H	-1.0437003852	-0.2487552069	-0.3876799144	 0.116508
H	-0.4281596173	 1.410279187	-0.310367771	 0.132294
H	 1.4780163193	 0.7691172302	-3.2082782131	 0.258137
H	 2.0985965796	-3.458237653	-1.7228973086	 0.137558
H	 0.6152723653	-3.6231513644	-2.6230730715	 0.138039
H	 1.9360639134	-3.7152898645	-4.799212091	 0.135897
H	 3.4350916677	-3.5491860268	-3.8882777993	 0.135771
H	 2.4371887407	-5.0012030134	-3.6853027431	 0.116892
