12
gdb 23871	2.9851	1.75186	1.40183	0.6619	48.58	-0.2659	0.0274	0.2934	859.7058	0.079151	-508.985782	-508.977821	-508.976877	-509.018364	28.515	
N	-0.0429196742	 1.4957719568	 0.091032146	-0.502732
C	-0.0333301273	 0.0384971709	-0.0008425284	-0.299278
C	-1.383056266	-0.5046539302	 0.1278165639	 0.353829
C	-2.4971114933	-0.9398729598	 0.2231965846	-0.43805
C	 0.6238018886	-0.4783418096	-1.297339495	 0.270665
F	 1.8792877993	-0.0026703089	-1.3847582465	-0.08286
F	 0.6903953515	-1.8115287127	-1.3274476808	-0.064978
F	-0.0397081522	-0.0660249078	-2.3838035471	-0.074783
H	 0.9004886663	 1.8462648222	-0.0480992273	 0.243201
H	-0.6199433452	 1.8768368954	-0.6531754603	 0.245024
H	 0.5917875112	-0.3511015502	 0.8131896325	 0.140883
H	-3.4814569087	-1.329495616	 0.3113430485	 0.209079
