15
gdb 15309	4.17845	1.1648	0.98732	2.4798	68.82	-0.245	-0.027	0.2179	1140.6791	0.115802	-362.596543	-362.588211	-362.587266	-362.630278	29.307	
O	-0.5265011117	 0.5722286631	 0.7587368842	-0.23719
C	-0.0866680078	 1.1741891164	-0.1849352178	 0.158177
C	 1.3484524228	 1.6674720796	-0.2827169846	-0.231141
N	 1.4121504896	 2.8259067467	-1.1618663922	-0.097628
C	 1.4142369042	 4.1405772925	-0.5396403114	-0.247231
C	 2.6584396403	 3.6136030396	-1.1930130047	-0.172942
C	 3.7968444238	 3.2502142993	-0.3947312792	 0.339284
C	 4.768447563	 2.9319474011	 0.2388768961	-0.462578
H	-0.7031902623	 1.4025558375	-1.082363839	 0.090547
H	 1.7454450879	 1.8275503483	 0.7293211357	 0.128399
H	 1.9368022022	 0.8574477899	-0.7368520835	 0.142137
H	 0.8305120572	 4.9079353601	-1.0400790257	 0.128991
H	 1.4223413498	 4.1944880586	 0.5472193555	 0.130687
H	 2.9034150081	 3.9787919788	-2.1878059117	 0.124184
H	 5.624224873	 2.6600234487	 0.8061824184	 0.206305
