21
gdb 98886	3.99889	0.88472	0.81003	1.9726	78.88	-0.2454	-0.0148	0.2306	1495.6523	0.18232	-424.255412	-424.245735	-424.244791	-424.292776	34.063	
C	 0.2915665408	 1.5433637969	 0.2203013296	-0.378243
C	 0.1045736134	 0.0545608915	-0.0567774648	-0.284292
C	 0.8872323843	-0.4509413856	-1.2597337598	 0.360653
O	 1.5259754326	 0.2948293676	-1.9683947119	-0.309111
C	 0.8616271475	-1.9572720852	-1.498642241	-0.080961
C	 1.0636171072	-2.3767096495	-2.9750298218	-0.25976
C	 2.2036416225	-3.4214576635	-2.9151930449	-0.076886
O	 2.3096411739	-3.8162432797	-1.5523432364	-0.236973
C	 2.0619489417	-2.6547388104	-0.7917217754	-0.097541
H	 1.3404750322	 1.7737843395	 0.4246472315	 0.130077
H	-0.0072169917	 2.1393584935	-0.6454357787	 0.13428
H	-0.3054998893	 1.8559465791	 1.0814039006	 0.110535
H	 0.3857344698	-0.5563291326	 0.8130152213	 0.121831
H	-0.9534807502	-0.1873024103	-0.2347591056	 0.125879
H	-0.0642572395	-2.3766466342	-1.0948750987	 0.080484
H	 0.1459306769	-2.805279069	-3.3835086178	 0.107262
H	 1.3433869928	-1.5123597207	-3.5796003785	 0.131443
H	 2.0126706116	-4.3198325503	-3.5070205115	 0.109233
H	 3.1509401704	-2.9759248353	-3.2553088855	 0.098681
H	 2.9376747253	-1.9843432792	-0.7963601046	 0.101671
H	 1.8523301578	-2.9569158126	 0.2372114337	 0.111739
