15
gdb 18142	3.47269	1.97078	1.59504	4.0648	64.44	-0.2725	0.0249	0.2974	818.9419	0.119754	-362.641226	-362.634155	-362.63321	-362.672406	26.754	
O	 0.0509307174	 1.3971159426	 0.3341426406	-0.418119
C	-0.0414259885	 0.02128206	 0.1289017184	 0.116653
C	-0.4468125829	-0.8572064958	 1.2642177374	-0.089621
C	-1.4930738002	-0.1393970289	 2.125252439	-0.246785
C	-2.4361227876	-0.0448486185	 0.8710025013	-0.145027
C	-2.9115579531	 1.263795325	 0.4336968986	 0.272837
N	-3.2888079115	 2.2923275558	 0.0625688706	-0.343674
C	-1.3476379468	-0.7150343308	 0.0149820755	-0.132261
H	-0.3640065305	 1.8566202259	-0.4042527918	 0.302458
H	 0.7419193285	-0.3990790236	-0.5028093546	 0.098861
H	 0.1476662775	-1.7032535944	 1.5846243794	 0.100435
H	-1.9292708412	-0.7672726763	 2.9025484696	 0.116499
H	-1.1744333491	 0.8124466143	 2.5508269891	 0.137663
H	-3.3000881264	-0.7018160927	 0.9946136503	 0.128914
H	-1.5539628656	-1.4109427927	-0.7890211035	 0.101167
