19
gdb 80658	2.56254	1.82381	1.31762	3.4888	74.9	-0.2128	0.0229	0.2357	1006.8631	0.161603	-419.212281	-419.204538	-419.203594	-419.244318	30.873	
C	-0.1879127585	 1.5349489562	 0.0210877233	-0.401673
C	 0.0556244778	 0.0271237836	-0.0190937439	-0.079367
N	 0.7254304601	-0.3872253613	-1.2762925029	-0.129922
C	 1.0223409068	-1.8646803282	-1.1802478332	-0.173619
C	 2.278966484	-1.5084434901	-0.3564296238	-0.007707
C	 2.2162431443	-0.1728205493	-1.1314332688	-0.182654
N	 1.8579054696	-1.2551888647	 1.0177243147	-0.308942
C	 0.7837491848	-0.445158246	 1.2695469439	 0.400198
O	 0.421737621	-0.1339304152	 2.3876432047	-0.387381
H	 0.7504933709	 2.0951909369	-0.0450370003	 0.115482
H	-0.8220685765	 1.8325382372	-0.8172221937	 0.122353
H	-0.6720394907	 1.8004632441	 0.9627908691	 0.145008
H	-0.9204150045	-0.4744682592	-0.0062099216	 0.109573
H	 0.2534490614	-2.4698734261	-0.6929173058	 0.1116
H	 1.2457896585	-2.2643419069	-2.1732087461	 0.111696
H	 3.1704153488	-2.1396541753	-0.3711964936	 0.078006
H	 2.6891055672	-0.2098584694	-2.116378016	 0.1133
H	 2.5221053515	 0.7325609449	-0.6023252367	 0.113971
H	 2.4073478535	-1.5624678913	 1.8051226308	 0.250078
