17
gdb 73344	2.4517	1.97219	1.55861	2.1186	72.38	-0.2479	0.0101	0.258	915.6681	0.137453	-417.976785	-417.969433	-417.968489	-418.008251	29.326	
O	 0.1089268281	 1.362404224	-0.0906555079	-0.488121
C	 0.0400053203	-0.022424082	-0.0627934339	 0.347222
C	 0.7785251349	-0.7053071298	-1.2243161072	-0.246978
C	 0.3600086113	-2.1885503505	-1.1114409685	-0.252904
C	-0.891852823	-2.1593910466	-0.2373849734	-0.018126
C	-1.3284813837	-0.7930698608	 0.0430571431	-0.121294
N	-0.7654129615	-1.6651499527	 1.184613167	-0.20618
C	 0.3312874042	-0.7237996497	 1.2480893758	 0.318307
N	 1.0811106901	-0.3860518766	 2.2002900885	-0.561429
H	 0.3274601823	 1.6581690535	 0.8018079456	 0.299935
H	 0.4371602126	-0.2579095826	-2.163406135	 0.114637
H	 1.8571279308	-0.5508785338	-1.1444607015	 0.120395
H	 0.1266572071	-2.6281282387	-2.0851690142	 0.114053
H	 1.1393156748	-2.8068968028	-0.6545262834	 0.12144
H	-1.6032128933	-2.9764088514	-0.2912877325	 0.111556
H	-2.3255842833	-0.3780190539	 0.1004242857	 0.118719
H	 0.9308059284	-0.9892018355	 3.0130977318	 0.228769
