14
gdb 2136	3.64067	3.43451	1.91803	3.2882	59.65	-0.2315	-0.0035	0.228	661.0574	0.115146	-320.785074	-320.778523	-320.777578	-320.815432	24.053	
C	-0.0488945133	 1.5499889412	 0.0059614955	-0.377691
C	 0.0488610906	 0.0238427881	 0.0022347324	-0.030104
N	 0.8249477274	-0.480234893	-1.1492399348	-0.2471
C	 1.7654214071	-1.185257082	-0.6572228576	 0.057526
N	 1.7901044506	-1.2878662755	 0.729229999	-0.342452
C	 0.7422134245	-0.5286658813	 1.252275208	 0.383371
N	 0.4007835558	-0.3068611702	 2.4548438109	-0.546442
H	 0.9485392447	 1.9990512596	 0.0214132768	 0.119121
H	-0.56886774	 1.8969881659	-0.8901481673	 0.12655
H	-0.5914727923	 1.8791291284	 0.8954534553	 0.14053
H	-0.962530078	-0.3974970249	-0.0552559216	 0.120512
H	 2.5215429627	-1.6993908179	-1.2426891963	 0.133525
H	 2.4933753792	-1.7604095562	 1.2719138503	 0.256608
H	 1.0130254311	-0.7771369422	 3.1234807193	 0.206045
