23
gdb 79833	2.47345	1.62208	1.38371	0.3264	88.61	-0.2375	0.0853	0.3227	1101.156	0.207635	-351.150802	-351.142389	-351.141444	-351.183089	34.036	
C	-0.2808989248	 1.5451245828	 0.0448192993	-0.423483
C	 0.0678273676	 0.060105397	-0.0100443357	 0.044508
C	 0.6675521715	-0.5769271603	-1.2668396635	-0.13832
C	 2.184708196	-0.4236280669	-1.3383352375	-0.082398
C	 2.8908534425	 0.6829954483	-0.5585225279	-0.236911
C	 2.4582659693	 0.4299171721	 0.9133080901	-0.210172
C	 1.2715150647	-0.5396489722	 0.8029641937	-0.117679
C	 1.5867296615	-1.4539395955	-0.4239240184	 0.355067
C	 1.8257114095	-2.933450407	-0.4238856074	-0.517504
H	 0.5637464903	 2.1890550314	-0.2128152474	 0.116534
H	-1.089798794	 1.7712221236	-0.6594942682	 0.110421
H	-0.6278895187	 1.8317207222	 1.0445477857	 0.109098
H	-0.8278264487	-0.5137351675	 0.2570865459	 0.067486
H	 0.1092625939	-0.8546294909	-2.1560062963	 0.069465
H	 2.620300436	-0.7673029174	-2.2717770353	 0.072856
H	 3.9767977978	 0.6017966059	-0.675062242	 0.092686
H	 2.6134466405	 1.6822564383	-0.9089223831	 0.098983
H	 3.2714086914	-0.046108354	 1.47315479	 0.092474
H	 2.1996221778	 1.3513357269	 1.4446945479	 0.09346
H	 1.0041373174	-1.0237019445	 1.7440173469	 0.056592
H	 0.997920385	-3.4784823666	 0.0454558635	 0.114733
H	 1.9330649865	-3.3134063365	-1.4457050916	 0.116566
H	 2.7414007073	-3.1942542991	 0.1213847013	 0.115537
