18
gdb 84082	2.327	1.69315	1.05064	3.8079	74.98	-0.2253	0.0076	0.233	1144.9088	0.148328	-435.33389	-435.324725	-435.323781	-435.367573	33.568	
C	-0.0810442599	 1.5398512307	 0.0403362546	-0.381108
C	 0.0553982309	 0.016745728	-0.039619695	-0.095878
N	 0.8702757042	-0.429741942	-1.1725676797	-0.335538
C	 1.8304223217	-1.1170804658	-0.6736109665	 0.420224
N	 2.8813525013	-1.6495288119	-1.3844690647	-0.584418
N	 1.8218433936	-1.2651896925	 0.7188600177	-0.132657
C	 2.8088046573	-1.9104824572	 1.555045029	-0.363725
C	 0.7282095188	-0.5604622226	 1.2133403558	 0.395432
O	 0.4348036028	-0.4463350139	 2.3804894664	-0.385559
H	 0.904150924	 2.0119062931	 0.1002375786	 0.120441
H	-0.5866319172	 1.9164136078	-0.8519512615	 0.126685
H	-0.6565602168	 1.8179822234	 0.9273550449	 0.133055
H	-0.948342881	-0.4234374793	-0.1163795181	 0.112858
H	 2.7149379173	-1.6281485292	-2.3810094466	 0.26743
H	 3.2359827993	-2.5374306699	-1.060279993	 0.257064
H	 2.8128015577	-2.9983297002	 1.4163844054	 0.128977
H	 3.8120103865	-1.5210123781	 1.3551722051	 0.143747
H	 2.5331440594	-1.6944051505	 2.5896578277	 0.17297
