12
gdb 131433	7.41343	0.8882	0.79317	0.9402	60.6	-0.2668	-0.0355	0.2313	1312.3039	0.07739	-505.934183	-505.926498	-505.925554	-505.968246	26.543	
O	 0.1137047174	 1.2774088135	-0.0429957147	-0.393808
C	 0.1002995975	-0.0503729448	-0.0656193362	 0.465089
N	 0.0654569781	-0.70931758	-1.1976416262	-0.209511
O	 0.0642163093	-2.0635331886	-0.733945166	-0.225229
C	 0.0983783237	-1.9956566915	 0.5938351666	 0.568853
O	 0.1062542666	-3.104828334	 1.3204769728	-0.21239
C	 0.0766685924	-4.3413600748	 0.6964336258	 0.110208
N	 0.0853132906	-5.3505794257	 1.4373679209	-0.402076
N	 0.1222625263	-0.7970374645	 1.0867580833	-0.441046
H	 0.1401530089	 1.549082021	 0.883096978	 0.3249
H	 0.0488655346	-4.2799393289	-0.3908205423	 0.162107
H	 0.0616399946	-6.2007935917	 0.877287618	 0.252904
