16
gdb 77342	3.12274	1.28161	0.94894	2.3261	72.45	-0.2674	0.0092	0.2766	1180.7478	0.123922	-437.865626	-437.857226	-437.856282	-437.898732	31.561	
O	 0.4754338002	 0.7219956023	 0.7703772676	-0.435952
C	 0.2193478834	-0.3827012709	-0.0438099601	 0.063225
C	-1.280053752	-0.7198331744	-0.2163868721	-0.217042
C	-1.2452248807	-1.4535906285	-1.576611457	-0.106932
O	-0.1905048494	-0.8174886022	-2.3282395871	-0.231727
C	 0.6353696805	-0.1513434466	-1.4845820582	 0.382838
N	 1.594871588	 0.6045333783	-1.7975773878	-0.566563
C	-1.8842796245	-1.4971028925	 0.8492638637	 0.301769
C	-2.3813110755	-2.1610360864	 1.7185744685	-0.429829
H	 1.1611539275	 1.2298834705	 0.3102956058	 0.300105
H	 0.7363155725	-1.2820978958	 0.331209749	 0.106823
H	-1.8089645469	 0.2339852234	-0.3341911409	 0.127852
H	-1.009387735	-2.5151592217	-1.4481835341	 0.131045
H	-2.1701054452	-1.3568571753	-2.1466337027	 0.138253
H	 1.7204482007	 0.6814933647	-2.8064053744	 0.233725
H	-2.8214966936	-2.7358191346	 2.4955754199	 0.202411
