17
gdb 85188	2.19327	1.77311	1.16779	1.9195	67.93	-0.2488	-0.0339	0.215	1058.1995	0.134435	-458.93825	-458.92989	-458.928946	-458.971999	31.128	
O	-0.0011641956	 1.4115781042	-0.2430774395	-0.428083
C	 0.0185898341	 0.049803125	 0.09055624	 0.118042
C	 0.0227958311	-0.283220716	 1.6183422288	-0.375429
C	-1.3797683848	-0.8777907751	 1.4616999427	 0.403366
O	-2.2055399292	-1.2842229484	 2.2278650637	-0.302162
C	-1.3529370685	-0.7188871497	-0.0776080916	-0.210235
C	-2.4748188828	 0.0389449119	-0.7323529257	 0.066234
C	-3.8045451074	 0.1612686397	-0.1182558392	-0.183245
O	-2.8678297875	 1.2467021865	-0.0574822218	-0.258131
H	-0.8212028103	 1.7963274551	 0.0926062666	 0.302757
H	 0.8482951919	-0.3895303918	-0.4658553709	 0.096922
H	 0.7694658434	-1.0163410055	 1.9399010637	 0.134408
H	 0.0843718568	 0.5883843189	 2.2768104991	 0.140462
H	-1.2269249261	-1.6949901841	-0.5615211634	 0.109733
H	-2.3947725227	 0.1521689688	-1.8134396192	 0.110218
H	-4.6676173193	 0.3442274853	-0.7553341935	 0.122185
H	-3.9984162731	-0.3381655449	 0.8268893303	 0.152958
