15
gdb 56492	2.17688	1.40852	0.88645	4.05	77.52	-0.2621	0.0083	0.2704	1243.1827	0.109661	-379.594091	-379.584243	-379.583299	-379.629025	35.113	
N	 0.0549609137	 1.5186180983	 0.033831091	-0.491795
C	 0.0253406642	 0.056175591	-0.0296385269	-0.170139
C	 0.6676007929	-0.5040338283	-1.2221830071	 0.316526
C	 1.2262462089	-0.9111539312	-2.2057086007	-0.440526
C	 0.696787044	-0.5074429216	 1.2765400069	-0.322714
C	 0.0169033125	-0.0415678591	 2.48355526	 0.352556
C	-0.5478164597	 0.3181550908	 3.4789104057	-0.422018
C	 0.7471181816	-1.9779544449	 1.2517479354	 0.297795
N	 0.7807198099	-3.1320039572	 1.2374359361	-0.320297
H	 0.9810970098	 1.8506580869	-0.2228220669	 0.238066
H	-0.5822900199	 1.8971094498	-0.6596748925	 0.246025
H	-1.024188399	-0.2548008371	-0.0002768651	 0.141004
H	 1.7050570669	-1.2906127605	-3.0749545079	 0.208916
H	 1.7344678486	-0.1467168458	 1.2796791253	 0.158533
H	-1.0442092144	 0.6440887089	 4.3596608567	 0.208068
