18
gdb 37345	2.62545	2.04481	1.96889	2.192	73.04	-0.2449	0.0239	0.2688	840.1044	0.152189	-401.947972	-401.941871	-401.940926	-401.978011	26.432	
C	 0.0248414697	 1.5174062878	 0.1463093621	-0.295516
C	 1.3262194992	 0.7723554439	 0.0148301403	-0.037605
C	-0.0027819489	 0.0214244554	-0.0049682872	-0.027588
C	-0.0797667953	-0.6136214318	-1.415346261	-0.013494
C	 1.4124691324	-0.8722514758	-1.7226217156	-0.239645
C	 1.9376210744	 0.5269953267	-1.3726899692	 0.084612
O	 1.4503751847	 1.4591857531	-2.373965415	-0.233338
C	 0.1934970101	 1.2048740364	-2.8198733394	 0.094155
N	-0.6094546717	 0.3009986029	-2.439417956	-0.251186
H	-0.2015157321	 1.905516292	 1.1344291413	 0.111713
H	-0.3238427597	 2.1488345883	-0.6612580295	 0.138589
H	 1.9994509875	 0.7319665446	 0.8639725077	 0.087873
H	-0.3253884053	-0.5840580288	 0.8347377287	 0.086827
H	-0.6970696569	-1.5132327992	-1.4129006675	 0.075328
H	 1.8398605276	-1.6101028793	-1.037569066	 0.102361
H	 1.6063170158	-1.1765258505	-2.7553013593	 0.106961
H	 3.0213613873	 0.6424257855	-1.38997484	 0.087291
H	-0.0798866389	 1.9158217887	-3.5974286144	 0.122662
