19
gdb 77478	2.00106	1.4751	1.39465	0.4289	71.72	-0.2234	0.0649	0.2883	1096.1659	0.156526	-460.120348	-460.110647	-460.109703	-460.15403	36.649	
C	-0.2610707152	 1.5534197411	-0.0387110242	-0.423173
C	 0.0508451934	 0.0600872495	-0.0435236338	-0.011166
C	 1.2259609308	-0.4861101359	-0.9285028227	-0.321245
C	 1.8031804839	-1.2094017834	 0.2888290347	 0.270798
O	 2.4465635986	-2.4319209978	 0.2726706611	-0.457045
C	 2.1238549036	-0.2378755559	 1.3783626028	-0.017871
O	 2.6063883676	 1.0658649372	 1.1811088376	-0.422129
C	 0.6809918276	-0.5949509027	 1.1910293697	 0.257718
O	-0.0782674605	-1.1655964286	 2.1991785182	-0.464078
H	 0.634036504	 2.1396778866	 0.1771376323	 0.141502
H	-0.6637691024	 1.8710340391	-1.0070304328	 0.107052
H	-1.0157770376	 1.7868945423	 0.7209992662	 0.108832
H	-0.8568782087	-0.5051366411	-0.2823596315	 0.078314
H	 0.8862708872	-1.1691307605	-1.7120012288	 0.093798
H	 1.8766564002	 0.2711728689	-1.3756566646	 0.098715
H	 1.8412957007	-3.0877916714	-0.0914770774	 0.287701
H	 2.5457964087	-0.7524632447	 2.2450747757	 0.094263
H	 3.5171844227	 1.0002180899	 0.8736199363	 0.28846
H	-0.0209816346	-0.6090663925	 2.9828814213	 0.289554
