14
gdb 49878	2.41515	1.50982	1.0245	2.4141	63.98	-0.2778	-0.05	0.2279	1099.3502	0.100439	-473.887272	-473.879494	-473.87855	-473.920733	27.758	
N	 0.1215910846	 1.3057576416	 0.0731592715	-0.515265
C	 0.0546639845	 0.0518006988	 0.0269177899	 0.399508
O	 1.1284075438	-0.8039859606	 0.1326156357	-0.208985
C	 0.7411923954	-2.1382918838	 0.0229506695	 0.42513
O	 1.5419437687	-3.0150381245	 0.0587693751	-0.296382
C	-0.7667754069	-2.2057345593	-0.1353446421	-0.383426
C	-1.2279053645	-0.751800595	-0.1215555996	-0.205116
C	-2.1812470311	-0.4033089012	 1.0270541259	 0.149584
O	-2.637322785	-1.2177684934	 1.7824429306	-0.222694
H	 1.0820857303	 1.6280824124	 0.1978799388	 0.244104
H	-1.0055031573	-2.743807756	-1.0546969407	 0.157979
H	-1.1975068558	-2.7670051835	 0.6993507133	 0.180953
H	-1.7238425292	-0.4348832215	-1.0453969245	 0.146196
H	-2.4085972675	 0.6772864462	 1.1054627566	 0.128414
