20
gdb 114714	2.65966	1.40418	1.09296	3.6635	79.8	-0.2328	0.0314	0.2642	1184.6654	0.172574	-403.18851	-403.179984	-403.17904	-403.22215	32.097	
C	 0.1608542723	 1.6022802998	-0.0807232952	-0.378712
C	-0.0326967436	 0.1018361044	 0.1567856595	-0.152488
N	 0.7109198055	-0.4070501749	 1.29245927	-0.086499
C	 2.1454693203	-0.644703097	 1.2496893828	-0.188478
C	 2.4792950099	-1.157302803	 2.6460288331	-0.050588
C	 2.1228095543	-0.26247914	 3.795021994	-0.284381
C	 1.1637281078	-1.3550503784	 3.3649072249	-0.152694
C	 0.0862766875	-0.9130844915	 2.4129982198	 0.419221
O	-1.1149117637	-0.9782055218	 2.5806712053	-0.403643
H	 1.2075339174	 1.8498422526	-0.2856401743	 0.1153
H	-0.431459235	 1.9274832024	-0.9417435433	 0.119601
H	-0.1615025392	 2.1760416432	 0.793094183	 0.129938
H	-1.083050539	-0.1189656929	 0.3647998819	 0.144683
H	 0.2557443402	-0.4607681248	-0.7425221933	 0.098236
H	 2.3918073076	-1.3949218886	 0.4828905951	 0.105581
H	 2.6971588346	 0.2713175637	 1.001412886	 0.111806
H	 3.2965510482	-1.8593542032	 2.7509263127	 0.098766
H	 2.6488798171	-0.419863096	 4.7300523454	 0.121112
H	 1.850576509	 0.7697962699	 3.5969654564	 0.123209
H	 0.9430885489	-2.1803860741	 4.0279859863	 0.11003
