17
gdb 12981	2.70026	2.5979	1.60279	3.6345	68.19	-0.2363	0.0338	0.2701	836.0305	0.143813	-363.904964	-363.897587	-363.896643	-363.936304	28.187	
C	-0.0257857481	 1.5461330489	 0.007993257	-0.480973
C	 0.0663984909	 0.0430641277	 0.0292979483	 0.226698
C	-0.8063997603	-0.8054685707	 0.9361147611	-0.317877
C	 0.684607157	-0.8080391154	 1.1209986989	-0.089407
C	 1.4535010062	-1.9417635491	 0.4486632155	-0.182088
N	 1.0652604076	-1.8154586806	-0.9465052022	-0.32118
C	 0.4122644012	-0.6508935401	-1.2699657069	 0.371045
O	 0.167943682	-0.25822892	-2.391001746	-0.388872
H	 0.9352687384	 2.0024003627	-0.2513339152	 0.123683
H	-0.7541010459	 1.86402181	-0.743908181	 0.143614
H	-0.3376824623	 1.9368847831	 0.9811354863	 0.110043
H	-1.3936559333	-0.2673626835	 1.6729862761	 0.116591
H	-1.2905139817	-1.6874011595	 0.5279547906	 0.121709
H	 1.1087748414	-0.3623302577	 2.0125034267	 0.094998
H	 2.5367566051	-1.811452303	 0.5803182339	 0.109563
H	 1.1832222816	-2.925499983	 0.8531614193	 0.112384
H	 1.4123410405	-2.4188186298	-1.6742469427	 0.250069
