17
gdb 129885	4.61648	1.03488	0.90796	4.2102	76.94	-0.2064	0.0066	0.213	1283.7391	0.137743	-414.166191	-414.158148	-414.157203	-414.199418	30.315	
N	 0.1432075349	 1.3911202242	-0.2510454835	-0.592773
C	-0.0104422358	 0.0156731741	-0.0904248328	 0.321745
C	-1.0538867758	-0.8113206857	-0.455483758	-0.191959
N	-0.6153970482	-2.056831596	-0.1178638984	 0.071327
N	 0.6134658349	-2.0047421986	 0.4093681328	-0.156379
N	 0.9833780356	-0.7477029863	 0.4342592608	-0.260164
C	-1.257404145	-3.3313588464	-0.2507237241	 0.097717
C	-2.7442572828	-3.471151728	-0.0731634807	-0.2871
C	-2.1225924743	-3.6412046324	-1.4414594961	-0.28592
H	 0.9319054904	 1.7250594861	 0.2887341332	 0.255222
H	-0.6860941156	 1.9240946097	-0.0266523822	 0.246118
H	-2.0117687803	-0.6247271671	-0.9077800324	 0.133496
H	-0.6058208239	-4.101529654	 0.1403139826	 0.130531
H	-3.1090533089	-4.3466857756	 0.4516958306	 0.130288
H	-3.3135243513	-2.5676295011	 0.1142946958	 0.127339
H	-2.2752954412	-2.8506501653	-2.1676354498	 0.129948
H	-2.0551656527	-4.6350290477	-1.8690616178	 0.130563
