14
gdb 17010	6.38132	1.39121	1.33101	2.5375	68.57	-0.2456	0.0031	0.2486	907.0543	0.106664	-345.33087	-345.324122	-345.323178	-345.361662	26.032	
C	-0.061148096	-1.2271415184	-0.0819569428	-0.435531
C	-0.0121080679	-0.0274831109	-0.0127517655	 0.322206
C	 0.0060782108	 1.4198556161	 0.0306231863	-0.198952
C	 0.0567561143	 2.1272474161	 1.445657091	-0.170419
C	 1.5524278442	 1.6611730829	 1.5239113327	-0.247871
C	 1.409154343	 2.1523597288	 0.0411465228	-0.170407
C	 0.6311419734	 3.3219551226	 0.6665022774	 0.439143
O	 0.5487580008	 4.5076351705	 0.6083754142	-0.314749
H	-0.1021874745	-2.2867723659	-0.1411975346	 0.198776
H	-0.7255130633	 1.8368077853	-0.6663702195	 0.116818
H	-0.703734982	 2.0894823335	 2.2216203733	 0.103893
H	 2.2191324151	 2.2266706654	 2.1759898594	 0.118833
H	 1.6824696367	 0.5843204996	 1.6298768974	 0.134369
H	 2.1562480454	 2.1425889944	-0.7485670521	 0.103892
