19
gdb 66098	2.55299	1.49509	1.31892	3.4467	78.4	-0.2545	0.0373	0.2919	1061.9733	0.161164	-382.081332	-382.07315	-382.072206	-382.113755	31.938	
C	-0.0095176123	 1.5218051412	 0.0232167114	-0.43875
C	 0.005641285	-0.0163391796	-0.0007002147	 0.128256
C	 0.8203844009	-0.5934674727	-1.206716211	-0.252395
C	 1.3823313668	-1.951945946	-0.7334290471	-0.22215
C	 1.5439056493	-1.7782118442	 0.7652728544	-0.021613
N	 2.1777425002	-0.4892418004	 1.1306137166	-0.352007
C	 0.713432082	-0.6378776179	 1.2131431811	-0.05815
C	-1.3708493131	-0.5325130728	-0.0333941177	 0.256995
N	-2.452742192	-0.940089479	-0.0539408296	-0.346838
H	 1.0167776794	 1.8793119675	 0.1375485781	 0.141781
H	-0.4250733392	 1.9243515644	-0.9047056696	 0.131474
H	-0.6099498691	 1.8998033434	 0.8554740227	 0.128288
H	 0.2095902106	-0.673102526	-2.107764254	 0.116771
H	 1.6395534364	 0.0979733685	-1.410809456	 0.127103
H	 0.6683600103	-2.7614344137	-0.9222083858	 0.119345
H	 2.3185392918	-2.2054038237	-1.2394313688	 0.110326
H	 1.7098386022	-2.6409982685	 1.4016769915	 0.093856
H	 2.5719949293	-0.5560836138	 2.0652185272	 0.236931
H	 0.2201445714	-0.6117251666	 2.1789107013	 0.100776
