16
gdb 45410	2.72521	1.81066	1.78752	3.4403	69.9	-0.2565	-0.024	0.2324	868.0198	0.127336	-437.891459	-437.884974	-437.88403	-437.922102	26.508	
N	-0.068471842	 1.2934543078	-0.0352076082	-0.550008
C	-0.0202009374	 0.0325932779	 0.0054593529	 0.445765
O	 1.1323491332	-0.7005290357	 0.0634584891	-0.264622
C	 0.8676364631	-2.1328415015	 0.0374891703	 0.014371
C	 0.0269364208	-2.4189143998	 1.2948723461	-0.065541
O	-1.1779248606	-1.6655202693	 1.2147726896	-0.27363
C	-1.2390645213	-0.8690318626	 0.0070671048	-0.036818
C	-1.1132809738	-1.7816634826	-1.193661123	-0.074243
C	 0.0272719432	-2.4717298649	-1.1689061447	-0.083453
H	 0.8750537715	 1.6876845309	-0.0348447685	 0.221324
H	 1.8411217526	-2.6196804806	 0.0669941465	 0.098443
H	-0.2051460178	-3.4883176374	 1.3711739578	 0.109275
H	 0.5854588655	-2.107426448	 2.1864851479	 0.11505
H	-2.155258358	-0.2875387276	 0.0569503379	 0.111874
H	-1.8823076816	-1.8478850273	-1.9529728019	 0.119548
H	 0.3343650825	-3.2208131792	-1.8882092168	 0.112665
