20
gdb 99291	5.3511	0.65173	0.60723	1.8837	78.05	-0.2462	0.0319	0.2781	1858.0214	0.169511	-440.299658	-440.289498	-440.288553	-440.336982	35.259	
C	 0.1008482909	 1.4135207463	 0.2014701377	-0.367241
C	 0.2811520236	-0.0920673039	 0.0073761583	-0.299378
C	 0.8187585547	-0.4348578819	-1.3811115144	 0.421939
O	 0.6306230004	 0.275502439	-2.3534582991	-0.375026
N	 1.5102195013	-1.6127010739	-1.4507585688	-0.321178
C	 2.0147372518	-2.1576874062	-2.6971245539	-0.187686
C	 1.3806058763	-3.4900461454	-3.0139894743	 0.088574
C	 2.1492736372	-4.5958274512	-3.5939920898	-0.176239
O	 1.81910284	-4.5894986376	-2.2036622163	-0.243103
H	 1.0652748472	 1.9299616406	 0.1936914494	 0.122659
H	-0.5002306385	 1.8264369112	-0.6109044703	 0.144426
H	-0.3926845081	 1.6257118036	 1.1539104412	 0.107955
H	 0.933686369	-0.515620831	 0.779994963	 0.102058
H	-0.6862764341	-0.6018549519	 0.1107266264	 0.128879
H	 1.6096337616	-2.176636855	-0.6218924568	 0.252618
H	 1.7821960849	-1.4228894335	-3.4723239534	 0.152188
H	 3.103949962	-2.2789077061	-2.6470338844	 0.107432
H	 0.3025626645	-3.46532844	-3.1775456774	 0.103325
H	 1.6415732208	-5.3497386327	-4.1931723427	 0.120759
H	 3.2046011344	-4.4543113503	-3.8240906743	 0.117038
