21
gdb 121584	4.39665	0.6368	0.56584	0.2468	80.54	-0.2378	-0.0802	0.1577	1994.2697	0.178201	-424.272791	-424.261564	-424.26062	-424.311109	38.158	
C	 0.0899219039	 1.5498808101	 0.0092764308	-0.380797
C	 0.0117613913	 0.0209462716	 0.0021531861	-0.170555
C	-1.4281939942	-0.5023188394	 0.0128341928	-0.164515
C	-1.5045516941	-2.0278877018	 0.0057079956	-0.298284
C	-2.9167876614	-2.566170372	 0.0161253278	 0.26166
O	-3.91049041	-1.8757447737	 0.0292546324	-0.283468
C	-3.064327843	-4.1102833822	 0.0091598491	 0.308325
C	-4.4766461094	-4.640522605	 0.0198800817	-0.473513
O	-2.0761869863	-4.8068487245	-0.0041248304	-0.275452
H	 1.1278582169	 1.8966089106	 0.0014283554	 0.112332
H	-0.4108042525	 1.9753905662	-0.8673917659	 0.115828
H	-0.3944165198	 1.9663211512	 0.899403268	 0.115828
H	 0.534506299	-0.3694610503	-0.8812370526	 0.095713
H	 0.5507766006	-0.3784605992	 0.8716338041	 0.095711
H	-1.9581107663	-0.1183584033	 0.8928411129	 0.107711
H	-1.9743119714	-0.1093890393	-0.8532007405	 0.1077
H	-0.9921215056	-2.4576268426	-0.8660074152	 0.136807
H	-0.9760521225	-2.4664578723	 0.8633289771	 0.136797
H	-5.0264369583	-4.2599136562	-0.8467714659	 0.155899
H	-4.460903297	-5.7304817112	 0.0133955197	 0.140382
H	-5.0092633699	-4.2701468069	 0.901571897	 0.155891
