16
gdb 84978	3.04467	1.27193	0.94861	3.3709	83.7	-0.2422	-0.0487	0.1935	1218.9769	0.123487	-400.748268	-400.739898	-400.738954	-400.781222	31.544	
C	-0.0530417306	 1.5577483272	-0.0504822915	-0.39362
C	 0.0243111471	 0.033055943	 0.010281423	 0.068238
O	 0.7751814313	-0.4657389655	-1.1112975891	-0.252479
C	 1.832064236	-1.2252631151	-0.6825568918	 0.322612
N	 2.6731683049	-1.8030548119	-1.4266884568	-0.544062
C	 1.8033126888	-1.2420641884	 0.8025480134	 0.117513
C	 0.7486609763	-0.5156339323	 1.2032855546	-0.247907
C	 2.7551633525	-1.9261278604	 1.5909141293	 0.267647
C	 3.5654134324	-2.5081513116	 2.2632734917	-0.391028
H	 0.9472754169	 1.9943787956	 0.0119153633	 0.134641
H	-0.5180713152	 1.8721065844	-0.9883251338	 0.137297
H	-0.6558482285	 1.938475527	 0.7798329453	 0.124409
H	-0.9910274838	-0.3847830447	-0.0598522697	 0.109555
H	 2.462035452	-1.6282360891	-2.4101070541	 0.224257
H	 0.4421299014	-0.3285123611	 2.223211028	 0.125939
H	 4.2875105185	-3.0265941571	 2.8441333383	 0.196987
