14
gdb 130167	5.4799	0.86722	0.76476	2.2131	66.85	-0.216	-0.019	0.1969	1384.4228	0.101692	-470.035768	-470.027562	-470.026617	-470.06914	29.503	
N	 0.1611325852	 1.2058196674	 0.588796871	-0.587557
C	 0.0553780856	-0.1006028495	 0.1220275607	 0.399541
N	-1.0905625586	-0.5552369799	-0.37462426	-0.300684
N	-0.8457021897	-1.8708021596	-0.633399722	-0.268316
C	 0.422562647	-2.2155370627	-0.3393783822	 0.470704
O	 0.8426399649	-3.4885432689	-0.5881920857	-0.221755
C	 1.5147614897	-4.1422756469	 0.4143939163	 0.157427
O	 1.9891027867	-5.2178856914	 0.2453866965	-0.245004
C	 1.0616601722	-1.1044973536	 0.1641363933	-0.416656
H	 1.0478358469	 1.6423378261	 0.3768781827	 0.248838
H	-0.6079046867	 1.7797780654	 0.267007394	 0.253836
H	-1.5574694594	-2.4487349164	-1.0453170149	 0.283121
H	 1.5414683786	-3.5505141981	 1.3446509314	 0.113003
H	 2.0847161278	-1.0227194919	 0.4905115891	 0.1135
