23
gdb 85915	2.42823	1.30711	1.07709	1.3766	88.4	-0.2338	0.0205	0.2543	1280.1094	0.203892	-388.320722	-388.310501	-388.309556	-388.355065	39.14	
C	 0.6897286611	 1.53738958	-0.1667579925	-0.397196
C	-0.022577101	 0.1983510792	 0.1002430849	-0.073929
C	 0.1599665457	-0.8245627544	-1.0492456522	-0.248468
C	 1.3029167418	-1.7635880235	-0.6039594555	 0.366605
C	 1.1415357006	-3.2085400186	-1.0796549187	-0.434591
O	 2.5209060584	-1.216669452	-1.1575468467	-0.471333
C	 1.2764769201	-1.5998014026	 0.9014427101	-0.239088
C	 0.569707076	-0.5376880962	 1.2935966618	 0.328548
C	 0.3719213923	-0.0536451532	 2.695941516	-0.496307
H	 1.7435654075	 1.3602984161	-0.399388804	 0.135548
H	 0.2328178892	 2.0538606786	-1.0173211332	 0.110191
H	 0.6308916363	 2.2078199168	 0.6971397634	 0.105331
H	-1.0876387447	 0.4056337816	 0.2699044828	 0.062616
H	-0.7564277675	-1.4085256984	-1.1768104571	 0.092319
H	 0.3988288212	-0.3585692493	-2.0087259864	 0.105036
H	 1.1261087293	-3.2489261919	-2.1731014348	 0.120587
H	 1.9780497327	-3.8264945691	-0.7315823262	 0.099431
H	 0.2166921128	-3.6521380182	-0.6971636506	 0.113158
H	 3.2603566793	-1.6383678806	-0.7065856087	 0.268905
H	 1.8219342864	-2.2662022202	 1.5648374898	 0.075822
H	 0.8757476376	-0.6980137299	 3.4214540803	 0.121561
H	 0.7556862234	 0.9658872249	 2.8247136659	 0.130303
H	-0.6945381783	-0.0177212492	 2.9533859017	 0.124951
