16
gdb 125504	3.41193	1.18715	0.89043	4.2888	77.06	-0.2688	-0.0564	0.2124	1266.2708	0.123725	-434.105695	-434.096969	-434.096025	-434.139515	30.516	
C	 0.0072893042	 1.4921325063	-0.1072926006	-0.499435
C	 0.0136726919	 0.0040700902	-0.0032197568	 0.253366
N	 0.0007191863	-0.7845495456	-1.0607345354	-0.271369
N	 0.0123119613	-2.028389972	-0.5381192394	 0.060013
C	 0.0032156154	-3.1508045248	-1.3881781925	 0.206451
O	 0.0124581109	-4.2849421657	-1.0105030884	-0.253974
N	 0.0325657139	-2.0839981213	 0.8041812024	-0.259606
C	 0.0336179817	-0.8156703469	 1.1720163195	 0.269763
C	 0.0532446703	-0.397854017	 2.6038128195	-0.499758
H	 0.8949918526	 1.9257255297	 0.3663621761	 0.140943
H	-0.0105570047	 1.7969206576	-1.1549470341	 0.153165
H	-0.867359989	 1.9201535016	 0.3948372873	 0.140906
H	-0.0134397095	-2.8101319929	-2.4357879465	 0.121793
H	 0.936346489	 0.211339439	 2.8263321432	 0.139939
H	-0.8263090682	 0.2065704266	 2.8519099448	 0.139923
H	 0.0650274838	-1.2766367047	 3.250400101	 0.157879
