18
gdb 55537	3.73868	0.90927	0.76391	3.825	75.89	-0.2384	-0.0158	0.2226	1481.6397	0.147145	-435.266908	-435.25723	-435.256286	-435.30333	33.624	
C	-0.1196557489	 1.5509960585	-0.4124367818	-0.500571
C	 0.2036753277	 0.0872414289	-0.1360154849	 0.407843
O	 1.3258029263	-0.3371385616	-0.0363858776	-0.29623
N	-0.9496037689	-0.6959443675	-0.0170089973	-0.356653
C	-1.0727571891	-2.0667695543	 0.2431904318	 0.328429
N	-0.0770686022	-2.7934813471	 0.5535840748	-0.45826
C	-2.5085206166	-2.5043598198	 0.1093028533	-0.091614
C	-3.0561820859	-3.6004630937	 0.9354117567	-0.240466
N	-3.4612580592	-2.2088052548	 1.2092256687	-0.317348
H	 0.8166712246	 2.0971500096	-0.5178681969	 0.156542
H	-0.7074852104	 1.6595343643	-1.3302966269	 0.138441
H	-0.7002298915	 1.9844240986	 0.4091252069	 0.14104
H	-1.8240800124	-0.2108167511	-0.1469312999	 0.25771
H	-0.3858201447	-3.7591618484	 0.6630726587	 0.220026
H	-2.9415808985	-2.3332715543	-0.8755289942	 0.113405
H	-3.8381452592	-4.235284913	 0.5302730598	 0.130345
H	-2.3932298503	-4.0902047554	 1.6431773994	 0.125732
H	-2.9394347807	-1.8725589089	 2.0171250895	 0.241629
