19
gdb 44481	3.54556	1.56478	1.44198	3.0551	77.93	-0.2326	-0.0071	0.2254	961.8872	0.163201	-385.913469	-385.907056	-385.906112	-385.944048	27.41	
O	 0.0128696841	 0.0348932201	-0.1935313405	-0.331189
C	-0.0310150396	 1.2234046626	-0.0175330353	 0.415265
C	-1.3021029592	 2.0863730659	 0.1521079581	-0.366522
C	-0.7293233313	 3.4379625622	 0.5661333438	-0.005541
C	 0.122992162	 4.2549458027	-0.477836637	-0.030497
C	 1.0650242679	 4.6122683699	 0.7033517482	-0.232936
C	 0.6881617452	 3.1964043748	 1.1893607602	-0.041271
C	 1.1331326928	 2.2033215555	 0.0764293108	-0.119245
C	 0.9361221695	 3.1462227727	-1.1703831991	-0.23803
H	-1.8896619235	 2.0924211785	-0.772021248	 0.127396
H	-1.935022474	 1.6477938633	 0.9309526792	 0.12854
H	-1.3852294039	 4.0723701932	 1.1627297437	 0.073828
H	-0.3237609334	 5.0208961229	-1.1119663353	 0.063685
H	 2.1114018987	 4.8363472316	 0.4759613647	 0.09137
H	 0.6505140176	 5.383783091	 1.3574093765	 0.099503
H	 0.8220395134	 2.870612887	 2.2213573709	 0.070359
H	 2.1089869302	 1.7291171741	 0.162435414	 0.078995
H	 0.4113672158	 2.6541136335	-1.9944448628	 0.108589
H	 1.8912119878	 3.5124471985	-1.5559111221	 0.107701
