11
gdb 712	7.96507	4.25305	4.06914	3.3094	44.98	-0.2233	0.0552	0.2785	392.5089	0.085037	-285.174014	-285.169639	-285.168695	-285.20136	17.268	
N	 0.0066069492	 1.4220974979	-0.2210367043	-0.307014
C	 1.3017766848	 0.7592573911	 0.058538451	-0.096169
C	 0.050979151	-0.0303263195	 0.0678180873	-0.096186
C	 0.5151724351	-0.7651356097	-1.245636383	 0.028989
O	 0.7594197494	 0.2059784755	-2.2607525787	-0.208427
C	 1.7515701259	 0.0150123023	-1.2546149636	 0.028992
H	-0.2756351781	 1.8793134301	 0.6468503117	 0.23264
H	 1.9450482609	 1.0607392725	 0.8739947921	 0.099434
H	-0.4891582157	-0.4759150225	 0.8920515327	 0.099443
H	 0.2955658747	-1.7819328307	-1.5465992269	 0.109147
H	 2.7606981228	-0.226461917	-1.5645035383	 0.109151
