19
gdb 82393	2.46261	1.71569	1.13294	2.133	76.83	-0.2429	0.019	0.2619	1099.8559	0.159745	-423.02623	-423.017938	-423.016993	-423.058959	32.192	
C	-0.5670129865	 1.5004473937	 0.0608731217	-0.468839
C	-0.1284209347	 0.0612881011	-0.00459763	 0.287327
C	 0.0058632438	-0.5918042277	-1.1606959179	-0.154807
C	 0.4154768602	-2.0286804697	-1.3151299968	-0.303845
C	 0.881397915	-2.6707144201	-0.0325885312	 0.057997
O	 1.9929352534	-2.0561740046	 0.6307794654	-0.269899
C	 0.7005896934	-1.9905726884	 1.2556876333	 0.006581
C	 0.1378773765	-0.5878437442	 1.3404156787	 0.015424
O	 1.0112911853	 0.2129406358	 2.1407118586	-0.434036
H	 0.1738633097	 2.1098695492	 0.5867416722	 0.138441
H	-0.7247370862	 1.9154978822	-0.9377430665	 0.114639
H	-1.5039734708	 1.5998454341	 0.6247281898	 0.120012
H	-0.2071144835	-0.0628060482	-2.0877882833	 0.082465
H	-0.4260320687	-2.6168139935	-1.7106154819	 0.11653
H	 1.2097643012	-2.1163260329	-2.069771794	 0.121684
H	 0.9277760839	-3.7600300452	-0.0375529168	 0.09118
H	 0.6218858238	-2.5785302305	 2.1695559855	 0.097571
H	-0.8020154549	-0.622923306	 1.908682386	 0.09
H	 1.8859594491	 0.1195040648	 1.7416347974	 0.291574
