19
gdb 81232	2.40241	1.90641	1.68275	1.8212	74.87	-0.2369	0.0598	0.2967	926.0904	0.160804	-422.958602	-422.951364	-422.95042	-422.989687	30.173	
O	 0.2015250149	 1.4617006876	-0.0330444503	-0.424004
C	 0.0615796155	 0.067581387	 0.0514501008	 0.071018
C	-0.002058957	-0.6649000677	 1.4102979966	 0.011585
C	-1.0376793788	 0.229552592	 2.1845034103	-0.298301
C	-2.1443676687	 0.1410707922	 1.1029014519	 0.024666
C	-2.7504026832	 1.0179289092	-0.0495501529	-0.279844
C	-2.4167392777	-0.1873116074	-1.0275844249	-0.35726
C	-1.3527417265	-0.5470243867	 0.0141681362	 0.407126
O	-0.765434521	-1.7091615368	 0.6928580358	-0.361557
H	 1.1322325481	 1.6696434081	-0.1563752552	 0.291347
H	 0.7105747398	-0.4658168892	-0.6502221237	 0.085472
H	 0.867076486	-1.0609781919	 1.9352697417	 0.075996
H	-1.3431168958	-0.191283443	 3.1440911694	 0.09832
H	-0.6144162768	 1.2240131498	 2.3440192867	 0.113795
H	-2.930378492	-0.5431490179	 1.4351087634	 0.08332
H	-3.8025963954	 1.2901296007	 0.0447990357	 0.09943
H	-2.1543478115	 1.8975298195	-0.2883416054	 0.137095
H	-3.2400851447	-0.9051231149	-1.063282577	 0.118019
H	-2.0806361152	 0.0397912994	-2.0417204693	 0.103777
