14
gdb 129064	3.67567	1.23073	0.92201	3.6316	86.12	-0.2123	-0.0496	0.1627	1180.2457	0.102374	-395.702435	-395.694832	-395.693888	-395.73456	28.972	
N	 0.0090731776	 1.3769717473	 0.0107939308	-0.553208
C	 0.0136548043	 0.0871434275	 0.0032740844	 0.298739
C	 1.2076063882	-0.7700283343	-0.0078537309	-0.062702
N	 1.2161620828	-2.0643147006	-0.0153785949	-0.171124
N	 0.027404123	-2.6861552548	-0.0128212052	-0.322765
C	-1.1896818092	-2.0322796695	-0.0027845651	 0.281581
C	-1.2219244433	-0.6735246161	 0.0052315851	-0.2825
C	-2.3414725966	-2.8648461109	-0.001678451	 0.264277
C	-3.294436394	-3.5993825442	-0.0009988109	-0.401916
H	 0.9678979151	 1.7330300999	 0.0079233212	 0.204914
H	 2.1888377685	-0.3010912546	-0.0102147975	 0.121993
H	 0.0678985203	-3.6916098634	-0.0188652343	 0.279837
H	-2.1670129359	-0.1477833036	 0.0131265512	 0.129047
H	-4.1476758807	-4.2326786628	-0.000190523	 0.213828
