16
gdb 45101	2.88199	1.77695	1.30259	2.6745	68.47	-0.2374	-0.0381	0.1993	954.4916	0.125463	-437.852582	-437.845644	-437.8447	-437.884005	27.269	
O	-0.0841343819	 0.6875326338	-1.466390778	-0.307565
C	-0.0124570771	 1.3387546875	-0.4512605283	 0.39944
C	-1.2204193619	 1.6420951286	 0.4322796688	-0.27143
N	-1.3246826103	 3.0499806644	 0.8545448281	-0.10471
C	-0.9323344443	 3.429149035	 2.2075663905	-0.24686
C	-0.0943381577	 3.8210664625	 1.0396275912	-0.042053
C	 1.2324415686	 3.1565876732	 0.8217287147	 0.040272
O	 1.4429504414	 1.9108418426	 1.4651614359	-0.241181
C	 1.2901948574	 1.9013351676	 0.0334400873	-0.080191
H	-2.1136412557	 1.3755344661	-0.1382408373	 0.136466
H	-1.1602875663	 0.9702543635	 1.2998732249	 0.133988
H	-1.5739465887	 4.1579237944	 2.6952082456	 0.12142
H	-0.5207591023	 2.657713915	 2.8546108836	 0.132338
H	-0.1388032107	 4.8394132521	 0.6569830448	 0.100889
H	 2.1015420055	 3.813997298	 0.8004128608	 0.111934
H	 2.1728393841	 1.6358120658	-0.5425874726	 0.117242
