16
gdb 31359	3.91498	1.13534	0.89115	9.177	76.64	-0.2129	-0.0106	0.2023	1252.3259	0.126254	-434.118464	-434.110124	-434.10918	-434.151895	30.431	
C	 0.1109689804	 1.4660327431	 0.1268276258	-0.350247
N	-0.2032405146	 0.0731683138	-0.1491720683	-0.367571
C	 0.4884401935	-0.6748898816	-1.0772090128	 0.478307
C	 0.6068877281	-2.0307248809	-1.0574149176	-0.352116
C	 1.2928169023	-2.7543424874	-2.1170393826	 0.382366
O	 1.4116050096	-3.9641463178	-2.1391336267	-0.376507
N	 1.8537266193	-1.9598952588	-3.1676243305	-0.301673
C	 1.7151609844	-0.6918592996	-3.1189136447	 0.091483
N	 1.0655775825	 0.0081999385	-2.1279715508	-0.367803
H	 1.1716880265	 1.6398309262	 0.3585647746	 0.134846
H	-0.1755859179	 2.1121651575	-0.7117089806	 0.135556
H	-0.483774412	 1.7883199923	 0.9830872728	 0.149675
H	-0.4751009655	-0.4669178034	 0.6572447508	 0.258354
H	 0.1824550908	-2.6052176899	-0.243108586	 0.094724
H	 2.130144224	-0.0594208094	-3.9036993136	 0.127544
H	 0.9733175085	 1.0069589175	-2.2051290498	 0.263063
