18
gdb 119936	2.42846	1.11996	0.96892	5.077	73.85	-0.2538	0.0262	0.28	1310.1635	0.145519	-439.068073	-439.058374	-439.05743	-439.103396	34.333	
C	 0.0177862276	 1.4438450088	-0.2041065713	-0.388682
C	-0.162428879	-0.0539753951	-0.3630162842	-0.052928
O	 1.0296654867	-0.5848655267	-0.9552594663	-0.254614
C	 0.9750996014	-1.9577692911	-1.1408816039	 0.057753
C	 0.5042144209	-2.4224414399	-2.4873758378	 0.106428
O	 0.0775645231	-1.4886300665	-3.4107192012	-0.412546
C	 2.0005579691	-2.5276650896	-2.1181550828	-0.307497
C	 2.9295439621	-1.6444100389	-2.7561936941	 0.306109
N	 3.6690564213	-0.9332213174	-3.2908454805	-0.338089
H	 0.886123662	 1.6616040865	 0.4233048116	 0.137891
H	 0.1683620609	 1.9226804346	-1.1757521843	 0.132994
H	-0.8694697494	 1.880916501	 0.2629092496	 0.124053
H	-0.3246761713	-0.5353029584	 0.6132422771	 0.101924
H	-1.0275758983	-0.2883176828	-0.9984251926	 0.112674
H	 0.761964717	-2.5450883248	-0.2473431609	 0.104599
H	-0.0356321242	-3.357430923	-2.5872361824	 0.1262
H	 0.4484140479	-0.6335066513	-3.1527391473	 0.304664
H	 2.3896173621	-3.5146406355	-1.8916333887	 0.139066
