18
gdb 110920	4.10618	0.90092	0.87816	2.6716	72.93	-0.2486	-0.03	0.2186	1349.742	0.146874	-439.028185	-439.019438	-439.018493	-439.062416	31.721	
O	 0.3925542596	 0.8049529345	 1.1326066723	-0.410142
C	 0.0628919296	 0.0381863181	-0.0162633279	-0.101212
C	-1.3243449948	-0.5679762081	 0.0619414207	-0.040489
C	-1.6721129349	-1.9849733144	-0.1850833589	-0.064374
C	-0.5716502311	-2.9577973678	 0.2582617305	-0.113521
C	-0.6663608889	-2.2424032394	 1.6439851365	-0.19444
N	-1.8108569155	-1.3720430275	 1.2022142967	-0.139418
C	-1.045958579	-4.3858089027	 0.3324089763	 0.157212
O	-0.4501649764	-5.3308464849	-0.1151238427	-0.25568
H	-0.3348741803	 1.4106120526	 1.3094405296	 0.290305
H	 0.1222703728	 0.6415172233	-0.9354289029	 0.099586
H	 0.8404277102	-0.7253662233	-0.0901493625	 0.120994
H	-2.1116412609	 0.1225283845	-0.2409288243	 0.102768
H	-2.5374507533	-2.2685434596	-0.7773603773	 0.104996
H	 0.3766559148	-2.9288080362	-0.2831173371	 0.098262
H	-1.0027882829	-2.9019986769	 2.4470523732	 0.120278
H	 0.2139759413	-1.6902625057	 1.9777213066	 0.140573
H	-2.0200558404	-4.5135716165	 0.8609675411	 0.084302
