16
gdb 53851	4.36656	0.7295	0.63226	4.2157	70.65	-0.2588	-0.1001	0.1587	1667.9635	0.120629	-437.936383	-437.926323	-437.925378	-437.973455	33.445	
C	 0.3280892261	 1.4458609507	 0.0657693967	-0.475829
C	 0.2260968796	-0.0570281455	 0.0643307841	 0.311893
O	 0.1961203986	-0.7463913319	 1.0562365182	-0.268569
C	 0.156540492	-0.7353286537	-1.3268960235	 0.267378
O	 0.1849467011	-0.0671681879	-2.3341270166	-0.279746
C	 0.05393307	-2.2460678779	-1.325127472	-0.297046
C	-0.0082144756	-2.8077186128	-2.75296047	-0.347263
C	-0.107354816	-4.2645425013	-2.7662667301	 0.257032
N	-0.1855696388	-5.4172684815	-2.7642129919	-0.299591
H	 1.2170213611	 1.7618327004	-0.4896439778	 0.160002
H	-0.5282808392	 1.8802460162	-0.460033708	 0.159998
H	 0.3702313685	 1.8106880672	 1.0919249459	 0.148141
H	 0.904732836	-2.6540624391	-0.7678342172	 0.164425
H	-0.8251286688	-2.5365356269	-0.7387997375	 0.164419
H	-0.8648392819	-2.3848508938	-3.2873962013	 0.167378
H	 0.8793122473	-2.5032593621	-3.3167400691	 0.167379
