17
gdb 29927	2.07155	1.87844	0.99739	3.0858	86.17	-0.2086	-0.0056	0.203	1165.382	0.135271	-380.891317	-380.882053	-380.881109	-380.925662	33.032	
C	-0.040787532	 1.4415081531	 0.0614315317	-0.340083
N	 0.0082325451	-0.0059871113	 0.0386639312	-0.068546
C	 0.0523075815	-0.8115338527	-1.0514232027	-0.009569
N	 0.0903821129	-2.0899652863	-0.7375670932	-0.316706
C	 0.0705628378	-2.1353315443	 0.6310610265	 0.187592
C	 0.1019595299	-3.4207967316	 1.3874300807	-0.501173
C	 0.0192582648	-0.8482479334	 1.1469157649	 0.082278
C	-0.0174586318	-0.368583794	 2.4675455497	 0.284934
C	-0.0490706101	 0.0466506315	 3.5997594555	-0.487879
H	 0.8253878164	 1.8503441507	 0.5892855668	 0.152401
H	-0.0370762374	 1.8087883902	-0.966303408	 0.143012
H	-0.9485099233	 1.790709802	 0.5615679164	 0.1524
H	 0.0543250705	-0.4067375866	-2.0534830469	 0.128292
H	 1.0063256312	-3.9912422361	 1.1500494887	 0.136202
H	 0.0789368614	-3.2387327853	 2.4644503211	 0.12977
H	-0.7541353275	-4.0504878603	 1.1224266084	 0.136204
H	-0.0766116594	 0.4021317845	 4.5997245092	 0.19087
