19
gdb 107230	2.93482	1.42975	1.1164	2.0672	74.58	-0.2294	0.0616	0.291	1127.5813	0.157777	-422.948827	-422.940315	-422.939371	-422.981583	33.205	
C	-0.0409655059	 1.5716247217	 0.2079974982	-0.497107
C	 0.0306317977	 0.081445984	 0.0376779399	 0.261891
C	-0.8782590831	-0.9075372476	 0.7185112642	-0.33314
C	 0.6077060163	-0.9827851635	 0.9692818002	-0.141833
C	 1.3558026976	-1.6093127779	-0.2442568045	-0.05556
O	 0.3910271	-1.9928511432	-1.2516298189	-0.301231
C	 0.8024741549	-0.6107838546	-1.1477645849	 0.337375
C	 1.3311755501	 0.0047633789	-2.4100167381	-0.183841
O	 2.1575683465	-0.8989113575	-3.1099676581	-0.41437
H	 0.9368211151	 2.0458481842	 0.0633625857	 0.120216
H	-0.7400092837	 2.0266678759	-0.5042164822	 0.12434
H	-0.3847763938	 1.827855646	 1.2151416294	 0.123413
H	-1.4511754682	-0.4924674329	 1.542462069	 0.110073
H	-1.3769177432	-1.6872963985	 0.1573569257	 0.13405
H	 1.0550257907	-0.8490555125	 1.9456002729	 0.093826
H	 2.304801474	-2.1310063142	-0.2420216301	 0.114581
H	 0.4823910376	 0.3454317198	-3.0285812047	 0.097034
H	 1.9338256075	 0.8888715021	-2.1738344306	 0.11762
H	 1.7024306497	-1.7502956803	-3.0725167231	 0.292663
