19
gdb 80686	3.29254	1.11766	1.08735	3.6234	84.94	-0.2416	-0.0534	0.1882	1207.381	0.159604	-385.90951	-385.90126	-385.900316	-385.942378	31.562	
C	-0.0952509705	 1.5601379067	 0.0326462703	-0.417173
C	 0.0561809727	 0.0584867137	-0.0478625016	 0.00271
C	 0.7049970681	-0.6736502917	-1.1886173761	-0.077667
C	 1.6416077995	 0.0931404348	-2.125866728	-0.331366
C	 2.7786352558	 0.5310942116	-1.2233739268	 0.224585
C	 3.8991388874	 1.3521890858	-1.6704915203	 0.067687
O	 4.0196296321	 1.7937827734	-2.7941657943	-0.278853
C	 2.6263463493	 0.060000456	 0.0296719961	-0.151476
C	 1.3687096921	-0.6967937446	 0.1959926858	-0.104569
H	 0.7982196442	 2.0888085433	-0.3065059477	 0.127065
H	-0.9351619345	 1.8924411835	-0.587557906	 0.12228
H	-0.297780882	 1.8749602195	 1.0618541498	 0.118863
H	-0.7935468675	-0.4779795751	 0.3690284951	 0.092273
H	 0.2083606744	-1.5579161654	-1.5709346354	 0.090237
H	 2.012565717	-0.5416785985	-2.9385098016	 0.122711
H	 1.1573032729	 0.9504947948	-2.607542067	 0.127458
H	 4.6699082121	 1.5472876891	-0.8904990649	 0.062335
H	 3.3346046555	 0.2247116064	 0.835735044	 0.109498
H	 1.3421967714	-1.556962613	 0.8556856787	 0.093402
