20
gdb 110474	4.06601	1.28658	1.27027	1.8442	80.47	-0.2195	0.0731	0.2927	1092.7495	0.17259	-365.924327	-365.917001	-365.916057	-365.956324	29.465	
C	 0.0418083168	 1.5530664351	 0.1338045453	-0.376928
C	-0.1368085849	 0.0382906252	-0.0217318491	-0.213188
C	 0.6380455694	-0.5355879753	-1.1966909976	 0.032199
C	 2.1793269086	-0.6398788436	-1.1743335426	-0.029078
C	 2.6010531804	-1.6068365915	-0.0571770763	-0.093666
C	 1.5116677642	-2.6862557298	-0.2444662318	-0.09343
C	 2.7751305441	-2.7163548598	-1.0486966531	-0.03078
N	 2.1103707466	-1.8602050704	-2.1195264754	-0.190556
C	 0.7469580241	-2.0575890197	-1.4199350007	-0.045765
H	 1.0936763215	 1.8151638314	 0.2917570386	 0.116992
H	-0.2998438772	 2.0866314452	-0.7599448941	 0.116164
H	-0.5267255508	 1.9350187067	 0.9873241567	 0.112271
H	 0.1799244534	-0.4669614634	 0.8994898644	 0.099841
H	-1.2025929623	-0.1939078487	-0.1468681999	 0.09593
H	 0.3382212223	-0.0663579122	-2.1421551304	 0.083087
H	 2.8364255348	 0.1858028276	-1.4477804917	 0.072482
H	 3.0981479026	-1.4315732083	 0.8875325313	 0.088984
H	 1.179633153	-3.3314892809	 0.5578477917	 0.089053
H	 3.5424876487	-3.4616623636	-1.2137564772	 0.095241
H	-0.0202240653	-2.6367918041	-1.934665988	 0.071146
