21
gdb 68671	2.26117	1.7469	1.38983	2.8997	81.67	-0.2267	-0.0057	0.221	1057.2297	0.18426	-387.118771	-387.110528	-387.109584	-387.151096	32.683	
C	-0.0184108116	 1.5877597011	 0.0249337372	-0.47764
C	 0.0405965969	 0.074240274	-0.0507487302	 0.198963
C	 0.7018052421	-0.6482628875	-1.2781905512	-0.287803
C	-0.365967309	-1.779193725	-1.1172936303	-0.137869
C	 0.0490261471	-2.7779780675	-0.0076000332	-0.214011
C	 0.9194549319	-2.072439898	 1.057592315	-0.212074
C	 0.5333771447	-0.5904790891	 1.2669448557	-0.241797
C	-1.225543708	-0.6952590769	-0.4590436778	 0.413575
O	-2.4003205802	-0.4657623627	-0.3910189771	-0.336132
H	 0.9756274077	 2.0145698074	 0.1988042114	 0.114223
H	-0.4176410366	 2.0160550963	-0.8996570369	 0.119823
H	-0.669725024	 1.9069560149	 0.8454950097	 0.129771
H	 0.5544661157	-0.0811203917	-2.2004434005	 0.10643
H	 1.7526395796	-0.9308108267	-1.1907608761	 0.10103
H	-0.7605300084	-2.2787293083	-2.0039257039	 0.083215
H	-0.8571705837	-3.2026562574	 0.4395272935	 0.115938
H	 0.603365545	-3.6153967171	-0.4449712366	 0.102587
H	 0.8767914634	-2.6147727013	 2.0069761509	 0.101543
H	 1.96497289	-2.1170128677	 0.7369735421	 0.108068
H	 1.3967721926	-0.0338457747	 1.6510017507	 0.098827
H	-0.2580883952	-0.4917738921	 2.0196425975	 0.113333
