21
gdb 90342	3.90209	1.18363	0.97605	0.0635	94.94	-0.195	0.001	0.196	1278.0162	0.184581	-349.993037	-349.984818	-349.983874	-350.026326	32.089	
C	-0.1209082666	 1.5619489222	 0.0192221565	-0.387969
C	 0.0201614848	 0.0323222572	 0.0040981552	-0.002765
C	 0.8183647339	-0.5036842834	-1.2394741547	-0.388354
C	 1.9438212071	-1.3069399567	-0.6396867465	 0.336171
C	 2.9835734886	-2.0544339315	-1.0283394544	-0.255393
C	 3.7442367061	-2.594754214	 0.1701466977	-0.247514
C	 2.9825986479	-2.025068835	 1.4158483156	-0.363209
C	 1.8487254982	-1.2340483592	 0.8123446028	 0.335415
C	 0.7936191776	-0.5076933628	 1.198977843	-0.273581
H	 0.8636141165	 2.0426016406	 0.0104258572	 0.114652
H	-0.6805089039	 1.9161343671	-0.8535592824	 0.110133
H	-0.6506773089	 1.9015629343	 0.9157432271	 0.110275
H	-0.9947560094	-0.3909651969	-0.0002392992	 0.075282
H	 0.1856565774	-1.1070065426	-1.8982892919	 0.113273
H	 1.1955827813	 0.3272767923	-1.8465548346	 0.112346
H	 3.2802071454	-2.2736354835	-2.0477373244	 0.085758
H	 3.7636597401	-3.6925015287	 0.1755158685	 0.10463
H	 4.7954949016	-2.2789075536	 0.1592536476	 0.104368
H	 2.6201370492	-2.825400976	 2.0687715617	 0.116136
H	 3.6343240087	-1.3951451444	 2.029973704	 0.11656
H	 0.4879993045	-0.2974705854	 2.2183509011	 0.083784
