14
gdb 6239	4.59967	1.26593	0.99874	1.013	70.08	-0.2616	-0.0503	0.2113	1105.8786	0.105809	-378.725503	-378.717098	-378.716154	-378.758852	29.652	
C	-0.8518309872	 0.5486631343	 0.4744577427	-0.44704
C	 0.4738718426	-0.1187851295	 0.221659625	 0.370297
N	 1.5815618546	 0.1240751095	 0.8032491463	-0.508723
N	 0.5311865075	-1.1250249469	-0.7567710635	-0.33901
C	-0.4654363232	-1.6293099759	-1.5632096381	 0.287778
O	-1.6247307661	-1.2678651285	-1.5629447433	-0.347382
C	 0.023238029	-2.676618966	-2.4500410299	 0.214309
C	 0.3949154692	-3.5440232425	-3.1947086423	-0.379765
H	-1.2337593562	 1.0200047802	-0.4339652868	 0.160989
H	-1.6070136275	-0.1801171714	 0.7775064876	 0.16098
H	-0.7303565763	 1.300594687	 1.256759991	 0.115974
H	 1.4653957453	 0.8605091727	 1.49679134	 0.224546
H	 1.4567740779	-1.5189476691	-0.8617644631	 0.270349
H	 0.7111210405	-4.3122167742	-3.8581425556	 0.216699
