16
gdb 56047	3.91757	0.87813	0.79848	3.6267	71.08	-0.2353	-0.0615	0.1739	1403.5859	0.123945	-471.254303	-471.245035	-471.244091	-471.289063	33.28	
N	 0.4661833297	 0.7268427819	-0.6704618284	-0.499187
C	-0.0385638356	 0.0445682448	 0.3876861218	 0.41184
O	 0.5772879599	-0.0854146288	 1.4370628559	-0.36977
C	-1.4292848031	-0.567048205	 0.1787082042	-0.27321
N	-1.3625810768	-1.9817620569	-0.1691111475	-0.291626
C	-1.0358565689	-2.8127903571	 0.7597835651	 0.267707
N	-0.687809947	-2.5807047033	 2.0516182456	-0.549941
C	-1.1032220481	-4.2616773644	 0.3691894649	 0.143754
O	-0.831669218	-5.160913131	 1.1271392189	-0.26574
H	 1.4182827217	 1.053055551	-0.618458615	 0.266221
H	 0.006843473	 0.7258918883	-1.5642445271	 0.271216
H	-1.9790231829	-0.4090040038	 1.1182131065	 0.129551
H	-1.9611428528	-0.0429082293	-0.62151161	 0.104079
H	-0.2435734387	-1.6942723954	 2.2688688531	 0.284347
H	-0.3982313362	-3.400363138	 2.5659228697	 0.265306
H	-1.4294947463	-4.4187831729	-0.6757392576	 0.105454
