21
gdb 110273	2.07032	1.40043	1.10273	3.1226	83.27	-0.2335	-0.0092	0.2243	1243.5136	0.181553	-387.087776	-387.078452	-387.077508	-387.122137	34.9	
C	-1.3976778113	 0.5465214029	 0.4915325452	-0.380658
C	 0.0370447831	 0.2662084447	 0.0306150825	-0.210128
C	 0.8557968962	-0.4884045252	 1.0752158404	-0.093949
C	 0.6362062053	-1.9762173458	 1.4152053725	-0.099424
C	 1.1583934027	-2.9226569345	 0.3812804248	 0.00063
C	 1.1647962171	-2.7620055699	-1.1271391865	-0.419817
C	 2.1629444611	-2.2587326302	 1.3166575734	-0.205024
C	 2.3622308193	-0.8261000797	 0.9008859575	 0.380641
O	 3.3252861162	-0.1518839837	 0.6638977048	-0.32476
H	-1.4097176477	 1.1437814215	 1.4101533943	 0.115319
H	-1.9575465675	 1.0963147	-0.2711861658	 0.115695
H	-1.9387706463	-0.3841314652	 0.6946878335	 0.117366
H	 0.0125292201	-0.286966137	-0.912564218	 0.102236
H	 0.5512972791	 1.2122365105	-0.1792309805	 0.114514
H	 0.8226978605	 0.0810426296	 2.0169444916	 0.103941
H	-0.0166140995	-2.3210679708	 2.2076762277	 0.096699
H	 0.9954716861	-3.9567126314	 0.6829771923	 0.098067
H	 1.4927886431	-1.770813448	-1.445235282	 0.138562
H	 1.8535682494	-3.4874131332	-1.5730011975	 0.123014
H	 0.1700407982	-2.9460179901	-1.5477219225	 0.12013
H	 2.8197196249	-2.8386428043	 1.9534467524	 0.106946
