17
gdb 1726	4.44585	2.08002	1.8923	2.1778	60.05	-0.2459	0.0699	0.3158	760.4365	0.14684	-346.821466	-346.813724	-346.81278	-346.853274	27.731	
C	-0.0205073753	 1.4291244645	 0.0537303127	-0.253635
O	-0.1519989653	 0.0326498686	-0.1103970076	-0.279661
C	 0.6138865711	-0.533719384	-1.1505642327	 0.368166
C	 0.2227349279	-0.0312964039	-2.53596698	-0.456215
C	 2.146576635	-0.6306680097	-0.9016176721	-0.117436
O	 2.1041736733	-2.0661303748	-1.0246175359	-0.274114
C	 0.6616020242	-2.0689790977	-1.0146692982	-0.114725
H	 1.0313851975	 1.7334558971	 0.1627877145	 0.107448
H	-0.4608616292	 1.995778636	-0.7781099614	 0.111559
H	-0.5536767865	 1.689940068	 0.9709496564	 0.131401
H	 0.4618631516	 1.0283082885	-2.6688411674	 0.118883
H	 0.7654571485	-0.59155772	-3.3028229102	 0.130931
H	-0.8510746164	-0.1675325566	-2.6995777421	 0.125382
H	 2.8110716645	-0.174249285	-1.6443926124	 0.098293
H	 2.4425638876	-0.3110218562	 0.1064237632	 0.097414
H	 0.2502230719	-2.4158071049	-0.0590076174	 0.106844
H	 0.2429010894	-2.6578905198	-1.8383650793	 0.099465
