18
gdb 17541	4.27271	1.80512	1.68553	1.8236	70.54	-0.2565	0.0806	0.3372	844.1032	0.155513	-347.786904	-347.780281	-347.779337	-347.817392	26.964	
C	 0.0016076734	 1.4936394669	 0.0065036021	-0.28999
C	 1.3225124719	 0.7631431198	-0.0045300726	-0.031702
C	 2.0092698267	 0.5584258909	 1.3386467975	-0.285693
C	 0.901505121	 0.016704941	 2.2401957235	 0.408062
C	 1.057358979	-0.2253417674	 3.6749236557	-0.257094
O	 0.3612187552	 0.9337054881	 3.2084138153	-0.272058
C	-0.1107869799	-0.7082255511	 1.3552478554	-0.285695
C	 0.0188430094	-0.0157448034	 0.0056793547	-0.031702
H	-0.3004041354	 2.0109972182	 0.9114999125	 0.135154
H	-0.2995885684	 1.9857383943	-0.9117810298	 0.106538
H	 1.9349679053	 0.8127904514	-0.8975803013	 0.079653
H	 2.8135736861	-0.1815163041	 1.2389082021	 0.101419
H	 2.4399227414	 1.4686465178	 1.766990208	 0.112139
H	 0.4395000264	-0.9755770369	 4.1683304553	 0.108879
H	 2.016426498	-0.0334257462	 4.1559753421	 0.108879
H	 0.1585226158	-1.7678056497	 1.2596988498	 0.101419
H	-1.1113873215	-0.6531223965	 1.79479768	 0.112139
H	-0.3253758943	-0.5376676031	-0.8798799502	 0.079653
