25
gdb 122165	2.73316	0.84074	0.73454	0.8775	90.62	-0.2414	0.089	0.3304	1727.5126	0.226049	-389.484884	-389.473628	-389.472683	-389.521636	41.061	
C	 0.1738819731	 1.3454696868	 0.3303420613	-0.382409
C	-0.099501092	-0.0925983174	-0.1165587692	-0.180927
C	 0.7961134101	-0.5236349931	-1.2705703929	-0.051303
O	 0.4562751802	-1.8547503001	-1.6245885336	-0.292399
C	 1.2972671675	-2.4622697529	-2.568078373	 0.438782
C	 1.1439843956	-1.9423012838	-3.9816900572	-0.454423
C	 2.6492593759	-2.9362748956	-2.0793604533	-0.35236
C	 1.5319540359	-3.9322836081	-2.3401484906	-0.050841
C	 0.8797282226	-4.6695167715	-1.1923885312	-0.400602
H	 1.2090125725	 1.4695745516	 0.6675863585	 0.11538
H	 0.005076621	 2.0567761568	-0.4858365424	 0.115776
H	-0.4806255822	 1.631129021	 1.1588656208	 0.116443
H	 0.0500268923	-0.7860446865	 0.7192066151	 0.103021
H	-1.1447156295	-0.2019896587	-0.4279011937	 0.106332
H	 0.6584332985	 0.1560809414	-2.126328929	 0.086489
H	 1.8567751442	-0.4665593953	-0.9786442466	 0.085653
H	 1.454399226	-0.89521586	-4.0670441429	 0.116363
H	 1.7583377181	-2.5242957969	-4.6744547312	 0.115339
H	 0.0996052912	-2.0149674661	-4.3034858657	 0.12199
H	 3.498850071	-2.8995188239	-2.753413945	 0.104782
H	 2.8900067397	-2.7395665247	-1.039496654	 0.110222
H	 1.635225701	-4.5185674536	-3.2503983526	 0.078531
H	 0.7314972032	-4.0046745941	-0.3391148	 0.125944
H	-0.1021249992	-5.0605510392	-1.4809469839	 0.114612
H	 1.4964245133	-5.516066646	-0.8711343677	 0.109604
