13
gdb 16780	3.86246	2.16007	1.50774	1.4617	60.81	-0.2618	-0.0239	0.238	784.7826	0.097991	-394.802015	-394.795882	-394.794938	-394.832284	23.629	
N	-0.1241799011	 1.3055696192	 0.005418939	-0.519012
C	-0.0180228881	 0.0473132343	-0.0123095317	 0.401118
N	 1.122818084	-0.7650791217	 0.0258596969	-0.367732
C	 0.8470299628	-2.1270197121	-0.0186665404	 0.432556
O	 1.6520913944	-3.0206859512	-0.0743233465	-0.354134
C	-0.6563880458	-2.194134405	-0.0256894453	-0.162783
C	-1.3555214905	-1.5943915217	 1.1452606576	-0.239047
N	-1.1667146772	-0.8098413283	-0.0889145452	-0.105486
H	 0.7855674252	 1.7608518498	 0.0714769477	 0.219893
H	 2.0659540869	-0.4114294045	 0.0768275644	 0.268436
H	-1.133114547	-2.9479093088	-0.6411161945	 0.136054
H	-2.3833732094	-1.8784667634	 1.3436682706	 0.146905
H	-0.7677147743	-1.3239270567	 2.0179670973	 0.143234
