14
gdb 131682	2.28183	1.49668	0.90895	5.4614	70.25	-0.26	-0.028	0.232	1180.0111	0.102658	-432.893315	-432.885149	-432.884204	-432.927187	28.755	
O	-0.0373069346	 1.4354627282	 0.0089576111	-0.4197
C	 0.0238367288	 0.0189947316	 0.0018027216	-0.213506
C	-1.3777118612	-0.4995812615	 0.0116485145	 0.140592
C	-2.5413791706	 0.2345220385	 0.0232375107	-0.087824
N	-3.5613411247	-0.6633646037	 0.0286714496	-0.187917
N	-3.1611645642	-1.935687833	 0.021499651	-0.280125
C	-1.8243646669	-1.8475002248	 0.0111692975	 0.172634
C	-1.0058907762	-3.0103771602	 0.0009174815	 0.23634
N	-0.2852409482	-3.9161787873	-0.0073185368	-0.349043
H	 0.8621381047	 1.7746602237	 0.0031184649	 0.29683
H	 0.5532168517	-0.3577995573	-0.8879438137	 0.118948
H	 0.5687073009	-0.3661790972	 0.8784945265	 0.118973
H	-2.7022112797	 1.2990657947	 0.0278545312	 0.166052
H	-4.5494914098	-0.4702750718	 0.0372448104	 0.287745
