18
gdb 34330	2.82879	1.62575	1.31211	2.0001	81.92	-0.2267	0.0294	0.2561	1019.0601	0.147607	-364.703516	-364.695981	-364.695037	-364.735077	30.866	
C	-0.0031040755	-1.1848967231	 0.0594372296	-0.361648
C	-0.009322952	 0.0177518424	 0.0393921401	 0.21446
C	 0.0037848763	 1.4551552369	-0.0173840638	 0.160739
C	-0.4271279348	 2.1322868211	-1.3596814523	-0.292087
C	 0.8926143697	 2.9686175503	-1.3628422045	-0.244381
C	 1.31347844	 2.3047696926	-0.0226004835	-0.082835
C	 0.8142623218	 2.9350041484	 1.283552989	-0.032278
C	-0.5245287701	 3.5382968575	 1.1763211484	-0.248381
N	-0.4433504398	 2.0713598617	 1.3184197226	-0.177907
H	-0.0046268928	-2.2463185418	 0.0878843718	 0.187859
H	-0.4860977782	 1.4071196018	-2.1726766189	 0.120056
H	-1.3690708872	 2.6846045189	-1.3249496761	 0.114536
H	 1.555892383	 2.7161809212	-2.1925005982	 0.109712
H	 0.7774399225	 4.0549902686	-1.3334294315	 0.105486
H	 2.2907472628	 1.8293195551	 0.0353375631	 0.087068
H	 1.429100253	 3.0537487484	 2.1703999237	 0.097359
H	-0.9307863638	 4.0003751224	 2.0715430069	 0.124894
H	-0.8719354249	 3.9936075275	 0.2552114436	 0.117348
