18
gdb 106869	2.50487	1.31354	1.01178	1.8022	79.92	-0.243	0.0251	0.2682	1209.9599	0.146721	-401.869782	-401.860917	-401.859973	-401.903577	33.578	
O	 0.1133758794	 1.2631038416	-0.426402277	-0.416822
C	 0.0294209694	 0.0581609338	 0.3205165483	-0.156136
C	-1.3688234769	-0.487136058	 0.3334723065	 0.245923
C	-2.5304665661	-0.1173845687	 1.2674462419	-0.292606
C	-3.0484857858	-1.5891183659	 1.1694596803	-0.29532
C	-1.8697441935	-1.920921952	 0.2306373141	 0.09293
N	-1.872053428	-1.0191621264	-0.9299086837	-0.396259
C	-1.1733114947	-3.1629289912	 0.167754147	 0.250702
C	-0.6018508566	-4.2216112815	 0.1584228605	-0.405837
H	-0.160149867	 1.0412382233	-1.3240024023	 0.290188
H	 0.7069798112	-0.7121586912	-0.075353091	 0.106068
H	 0.3534036652	 0.304121196	 1.3367884487	 0.109614
H	-2.2036739256	 0.1400066435	 2.277525	 0.115255
H	-3.1918903739	 0.6742579902	 0.9019800739	 0.105939
H	-2.9901023838	-2.1180713498	 2.1221790679	 0.122691
H	-4.0410438673	-1.7489172678	 0.7364921848	 0.103607
H	-2.8127469913	-0.6954307799	-1.1520452866	 0.229177
H	-0.0928759946	-5.1532217161	 0.1355546467	 0.190884
