18
gdb 108685	2.18178	1.54044	0.92781	5.5054	82.15	-0.2449	-0.0291	0.2158	1237.7893	0.14785	-401.979494	-401.970348	-401.969404	-402.01416	32.526	
O	 0.1546435721	 1.3434881721	 0.137500355	-0.400071
C	 0.0404078068	-0.0502101126	-0.0199657826	-0.193126
C	-1.391131692	-0.4716318194	-0.0242441984	 0.224344
C	-2.5022556423	 0.2845461838	-0.035565708	 0.115167
C	-3.7655699171	-0.5662118891	 0.0082782071	-0.297844
C	-3.2413456019	-1.9799006792	-0.3285538208	-0.217701
C	-1.7380551128	-1.94317747	 0.0276341056	-0.298407
C	-2.6125593904	 1.7018001294	-0.048354792	 0.22067
N	-2.8320469469	 2.8393098747	-0.0691334324	-0.362439
H	 1.0606700942	 1.605337102	-0.0471319909	 0.296758
H	 0.5013370715	-0.3986894211	-0.9618861148	 0.109097
H	 0.5590082482	-0.5979928639	 0.7885388168	 0.10525
H	-4.2146524936	-0.517955789	 1.0088530846	 0.122321
H	-4.527320939	-0.214129024	-0.6933359592	 0.123766
H	-3.7823622603	-2.7695740701	 0.1975361676	 0.107289
H	-3.3556304887	-2.1638316996	-1.40117628	 0.114435
H	-1.1232705713	-2.5443754806	-0.6524356989	 0.11104
H	-1.5454780163	-2.3319162437	 1.0383289513	 0.119451
