21
gdb 117231	2.44463	1.10804	0.91292	1.2148	82.22	-0.2313	0.0165	0.2477	1397.9299	0.181417	-420.384272	-420.37421	-420.373265	-420.419971	36.172	
C	-2.7110248613	 1.8434879315	-3.1580115774	-0.394489
C	-2.0597167721	 1.183635879	-1.9574150677	-0.032963
O	-2.7458010272	-0.0575029413	-1.7178595179	-0.244796
C	-2.3168256598	-0.7938225594	-0.6727694744	 0.408958
N	-1.3621145718	-0.3903820351	 0.0651709375	-0.547276
C	-3.0760251489	-2.070728439	-0.4950759828	-0.087092
C	-4.4125474466	-2.2912340352	-1.1335831811	-0.24956
N	-3.2694079662	-3.0782329807	-1.5483039107	-0.085484
C	-2.7198425788	-2.8778766718	-2.8849298244	-0.322023
H	-2.2229194836	 2.8007914213	-3.3638214484	 0.122828
H	-2.6231638637	 1.2156319162	-4.0495458254	 0.126914
H	-3.7725220655	 2.0318140693	-2.97306834	 0.127233
H	-0.9974619298	 0.9777293916	-2.1237066554	 0.121027
H	-2.1296272304	 1.8038550443	-1.0583280644	 0.123987
H	-1.1671473624	-1.0701156182	 0.7971821105	 0.222315
H	-2.8856218942	-2.5155158204	 0.4793054364	 0.09467
H	-5.187554952	-2.8210709901	-0.5849557646	 0.115791
H	-4.7641300026	-1.5024583317	-1.7947031075	 0.126792
H	-2.8196788874	-1.855210221	-3.2668851386	 0.125234
H	-1.658817055	-3.1470418494	-2.8760607044	 0.124565
H	-3.2354188607	-3.5621255999	-3.5661132891	 0.123369
