25
gdb 111973	3.16351	1.05141	0.87524	0.1969	94.38	-0.2313	0.0267	0.258	1466.4073	0.229069	-352.377966	-352.368038	-352.367094	-352.412243	38.634	
C	-0.0752946416	 1.6911312462	 0.2134382496	-0.38982
C	 0.0420462282	 0.1674891646	 0.0950603287	-0.192408
C	-1.312473028	-0.5298758535	-0.1049294703	-0.00419
C	-1.9824796993	-0.2975622032	-1.4455509557	-0.077454
C	-2.6809167415	-1.361929262	-1.8337226499	-0.075129
C	-2.5959664339	-2.4871874375	-0.8222400609	-0.012855
C	-2.6291571603	-3.8965100072	-1.421846779	-0.411178
C	-1.325348948	-2.0914674386	 0.0008888302	-0.03279
C	-0.0429592126	-2.7408286017	-0.5359872533	-0.390211
H	 0.9049650549	 2.1514855624	 0.3721255334	 0.110299
H	-0.5048681541	 2.1370728207	-0.6897362572	 0.116938
H	-0.7163840961	 1.9735121385	 1.0561720505	 0.113472
H	 0.717365342	-0.0829558889	-0.7312879885	 0.098131
H	 0.5123575338	-0.2232274647	 1.0066835854	 0.093059
H	-1.9846453988	-0.1408258189	 0.6796051406	 0.071668
H	-1.9262240794	 0.6452133276	-1.9789123119	 0.087039
H	-3.2841784233	-1.4303294144	-2.733460852	 0.083992
H	-3.4659697209	-2.4031524077	-0.1499592663	 0.075894
H	-1.8279304125	-4.0508390235	-2.1505001386	 0.118901
H	-2.5334498189	-4.6640079876	-0.6462328149	 0.110927
H	-3.5807501066	-4.0671474329	-1.9368841369	 0.109221
H	-1.4451816652	-2.3944558187	 1.0475686621	 0.058779
H	 0.1326310205	-2.4840026789	-1.5858775783	 0.11784
H	 0.8309722744	-2.4204802639	 0.0376703991	 0.110382
H	-0.0967168329	-3.8306787662	-0.4627056957	 0.109492
