16
gdb 72369	2.57457	1.71657	1.43661	4.4173	68.6	-0.2532	-0.0114	0.2418	954.6833	0.125714	-437.912957	-437.905389	-437.904445	-437.944972	28.982	
N	-0.0690100593	 1.3998016841	-0.078938814	-0.58644
C	-0.0085881017	-0.0448385263	-0.0592320801	 0.110139
C	 0.774696388	-0.7711056304	-1.1861035337	-0.351438
C	-0.1073470974	-1.93860153	-1.5550978772	-0.054952
C	-1.254850323	-1.9707250876	-0.8734383276	-0.08898
C	-1.3330705029	-0.8461738012	 0.1054999394	 0.073256
O	-0.9080005049	-1.2520513025	 1.4766785787	-0.261213
C	 0.2604051347	-0.564207249	 1.364877211	 0.443816
O	 1.126072222	-0.4342703414	 2.1724336338	-0.340789
H	 0.7217265948	 1.7820149816	 0.4308904989	 0.249564
H	-0.0202569702	 1.7579575359	-1.0273407822	 0.231466
H	 0.9238835156	-0.0940923798	-2.0387169522	 0.110815
H	 1.7758209161	-1.0833265677	-0.8663153969	 0.135454
H	 0.1867137508	-2.6633530353	-2.306952815	 0.111426
H	-2.0331080287	-2.7164892021	-0.9802310747	 0.111757
H	-2.2684772439	-0.2916185482	 0.1733633918	 0.106117
