17
gdb 12896	3.5305	1.78562	1.52299	1.59	74.86	-0.227	0.032	0.259	900.1906	0.141167	-326.652219	-326.644429	-326.643484	-326.683826	29.97	
C	-0.0008996867	 1.5243902098	 0.0884351714	-0.490325
C	-0.0228225606	 0.0297691678	-0.0361078431	 0.345441
C	-1.2850207159	-0.8297409832	-0.1445234765	-0.311504
C	-0.5916746123	-1.7987919693	 0.845497226	-0.151172
N	 0.6123605207	-0.9006629302	 0.9791359366	-0.1876
C	 1.1879648093	-0.762551967	-0.3970645638	-0.25614
C	 1.1955148084	-1.8268864319	-1.3587581189	 0.359649
C	 1.2183395459	-2.7152570802	-2.1703478916	-0.458844
H	 0.9854602824	 1.8760278228	 0.4043102305	 0.130859
H	-0.2415975439	 1.9968741489	-0.8710065495	 0.126901
H	-0.7352980323	 1.8654143592	 0.8261066521	 0.124489
H	-2.1635641276	-0.340097938	 0.2806071793	 0.107862
H	-1.5311154812	-1.2073075112	-1.1400864977	 0.114187
H	-1.0879752442	-1.8732242801	 1.8144589329	 0.111075
H	-0.3549611247	-2.8006536052	 0.4794554285	 0.120115
H	 2.1202266462	-0.2044409072	-0.3500651435	 0.11557
H	 1.2442827564	-3.4973261651	-2.8882812228	 0.199437
