19
gdb 105692	2.81247	0.96725	0.88688	4.8608	72.59	-0.2731	0.0075	0.2805	1398.4987	0.156751	-460.165392	-460.155656	-460.154712	-460.201141	34.255	
C	 1.1317193981	-0.0252903371	 0.4587010705	-0.401024
C	 0.045079987	-0.0794071328	-0.6167282413	-0.253793
C	-1.3656277558	-0.3128042551	-0.1016161342	 0.395472
C	-2.4572744149	-0.2608399125	-1.1517478027	-0.163965
O	-2.4775401207	 1.0108447491	-1.8120556291	-0.182479
C	-3.2363079614	 1.9819551145	-1.2536250984	 0.179515
O	-3.2730342021	 3.0912071647	-1.6911786454	-0.272438
C	-1.6557094077	-1.0549491846	 1.1347425188	-0.228868
O	-1.7331819992	 0.3738808711	 1.1065843366	-0.265746
H	 2.0813581728	 0.2920028938	 0.0198084106	 0.120829
H	 0.8623423565	 0.6863714008	 1.2432942568	 0.142511
H	 1.2975466701	-1.0020846121	 0.9239935114	 0.11512
H	 0.0328639307	 0.8615673092	-1.1782257367	 0.134653
H	 0.271410201	-0.8652482024	-1.3492851598	 0.10513
H	-2.2836074943	-1.0001072826	-1.9384841573	 0.127991
H	-3.4301170862	-0.4616998165	-0.6889989857	 0.116176
H	-3.8079618253	 1.628576407	-0.3763423232	 0.092245
H	-2.6079019923	-1.5727025686	 1.2476123173	 0.114134
H	-0.8392047462	-1.463614826	 1.7248576119	 0.124537
