20
gdb 81422	2.34417	2.05937	1.53688	2.0052	77.59	-0.2338	0.0879	0.3217	955.8921	0.172935	-403.097492	-403.09011	-403.089166	-403.128607	31.324	
C	 0.1121800776	 1.4368818849	-0.0621118559	-0.484817
C	-0.0458382924	-0.0650556383	-0.0538136484	 0.334193
C	-0.5759763058	-0.7635102447	 1.1474803118	-0.301069
N	 0.854127168	-0.9089379623	 0.8133831378	-0.179077
C	 1.169128961	-2.0102811566	-0.1597657604	-0.039093
C	-0.0954420465	-2.3028940083	-1.0066670736	-0.263094
C	 0.058856544	-0.8144824854	-1.3922594246	-0.148233
C	 1.6223299524	-1.1339699286	-1.3676460344	 0.184771
O	 2.5787354829	-0.1449434718	-1.1564632514	-0.446525
H	 0.9147456736	 1.744782071	-0.7382260123	 0.137597
H	-0.8149488845	 1.9144632072	-0.3991360045	 0.118762
H	 0.3376705571	 1.8101376481	 0.9412128573	 0.122057
H	-0.7423380439	-0.1626592177	 2.0381758063	 0.114323
H	-1.2371306849	-1.6187675518	 1.0763478431	 0.116941
H	 1.7890036636	-2.7904386443	 0.280940704	 0.075653
H	 0.1364183957	-2.9702143801	-1.8387208985	 0.106299
H	-1.0131078547	-2.640020173	-0.5285650843	 0.103273
H	-0.4360908726	-0.3754699446	-2.2577992583	 0.065435
H	 1.9268987345	-1.7144182547	-2.2414439001	 0.084229
H	 2.504472875	 0.1097952411	-0.2264835836	 0.298375
