14
gdb 130222	3.28052	1.41786	1.01907	2.2592	67.16	-0.2063	-0.0127	0.1937	1078.168	0.10408	-466.215015	-466.207312	-466.206368	-466.247401	28.584	
N	 0.5825610681	 0.8730157117	-0.9175964748	-0.609093
C	 0.2401539711	-0.300155333	-0.2828759092	 0.29109
N	-1.0170013175	-0.7392015903	-0.1852028373	-0.275144
N	-0.9121807287	-1.8324462055	 0.5746128694	-0.088337
N	 0.3046434507	-2.1597432363	 0.9721445455	-0.280713
C	 1.0637938025	-1.2049024887	 0.4387323475	 0.347828
N	 2.4425328708	-1.2089776552	 0.6893634479	-0.395288
C	 3.4238375657	-0.6938905478	-0.0983564781	 0.145997
O	 3.2640643142	-0.0910444934	-1.1425130408	-0.323386
H	 1.5123023086	 0.8331836822	-1.3250388501	 0.278238
H	-0.1305760683	 1.1966856809	-1.5558620851	 0.251486
H	-1.7194198539	-2.3663970656	 0.846045503	 0.292885
H	 2.728451593	-1.7628699926	 1.4838360646	 0.268892
H	 4.4234349337	-0.8814026564	 0.3333660175	 0.095547
