21
gdb 101646	2.91844	0.82478	0.76033	1.5344	82.12	-0.2498	0.0347	0.2845	1607.315	0.178187	-424.180459	-424.16924	-424.168296	-424.217423	39.878	
C	-0.0056252415	 1.4168198204	-0.059231383	-0.23689
O	-0.0188696351	 0.0167114396	 0.0973951426	-0.250021
C	-1.3097893035	-0.5813417409	 0.013944146	 0.137528
C	-1.7640589358	-0.7426489911	-1.4387434048	-0.408229
C	-1.2045122449	-1.9277239892	 0.7308509329	-0.20684
C	-0.8822964431	-1.7668599347	 2.2287623454	-0.067706
O	-1.8812601485	-1.0043415211	 2.9081062808	-0.421042
C	-0.6751331038	-3.0674462344	 2.8697142272	 0.295618
C	-0.556375834	-4.1478937756	 3.3840529274	-0.4418
H	 1.0230508048	 1.7484795465	 0.1040511361	 0.125907
H	-0.3147644143	 1.7331125424	-1.0663133163	 0.104395
H	-0.6587776942	 1.9132857585	 0.674523597	 0.111302
H	-2.0310295887	 0.0460528641	 0.5594828122	 0.079976
H	-1.0635085437	-1.3785012069	-1.9893976053	 0.122544
H	-2.7575579982	-1.2003441916	-1.4836407307	 0.113804
H	-1.8222391847	 0.2233547635	-1.9484681353	 0.116876
H	-2.1447907232	-2.4810232763	 0.6221172061	 0.093524
H	-0.41737103	-2.5262166273	 0.2583991253	 0.116311
H	 0.0305020022	-1.1678347079	 2.3087986644	 0.134362
H	-2.6424114039	-1.5805898378	 3.0403136453	 0.283003
H	-0.4307040759	-5.0937545503	 3.8504694066	 0.197375
