19
gdb 56513	2.53945	1.25284	1.05182	3.507	81.22	-0.2543	0.0171	0.2715	1210.0997	0.156597	-382.048552	-382.038105	-382.037161	-382.083256	38.681	
C	-0.0441532645	 1.5811004533	 0.1167210139	-0.416273
C	 0.0057936425	 0.0419777282	 0.0479030564	 0.067879
C	 0.7176518171	-0.5396456178	 1.2865581964	-0.414741
C	-1.3684408964	-0.4797943702	-0.0030303436	 0.263133
N	-2.44496717	-0.8967477203	-0.0727005478	-0.348792
C	 0.7188360669	-0.4612127521	-1.2807413126	-0.168725
N	 0.0454706833	-0.135851013	-2.5336958155	-0.51595
C	 2.1010093479	 0.0174490967	-1.3260153491	 0.349601
C	 3.2293284829	 0.4295701002	-1.3600680058	-0.443551
H	 0.9736643606	 1.978252128	 0.1371550747	 0.13987
H	-0.5678788117	 2.001700843	-0.7456205319	 0.124578
H	-0.5675106097	 1.9078054426	 1.0186318021	 0.135542
H	 0.2053910245	-0.2391256374	 2.2041178674	 0.133497
H	 0.7402530208	-1.6326434638	 1.2516901587	 0.133801
H	 1.7459457259	-0.1721694537	 1.3217918238	 0.14081
H	 0.7400427398	-1.5569999598	-1.2082556378	 0.127731
H	-0.9225443318	-0.4425225291	-2.5006187887	 0.249921
H	 0.0550668981	 0.8644249509	-2.7017994081	 0.237224
H	 4.2325146538	 0.7758805143	-1.4040203525	 0.204445
