17
gdb 103055	2.62036	1.53966	1.1706	4.1503	73.45	-0.2344	0.0137	0.2481	1074.2473	0.135814	-417.949075	-417.940633	-417.939689	-417.982126	31.208	
C	 0.1347556076	 1.103800779	 0.437976788	-0.260838
O	-0.0782557346	-0.1037096349	-0.2902178189	-0.279382
C	-1.3319149746	-0.6551625639	-0.1015712006	 0.314838
C	-2.409423604	 0.0143166078	-0.8081852044	 0.244935
N	-3.2577941521	 0.5703304805	-1.3643058238	-0.345758
C	-1.469861642	-2.1598826753	-0.013908484	-0.166527
C	-0.2786466245	-2.714187771	 0.776659716	-0.192041
N	-0.5413479029	-1.7494322604	 1.902475693	-0.333336
C	-1.7563056707	-1.2984995432	 1.2115092896	-0.096153
H	 1.1491122536	 1.4292722657	 0.2010187125	 0.134009
H	-0.5736715533	 1.8835179059	 0.1297233514	 0.126869
H	 0.0483570809	 0.924196328	 1.5149531423	 0.135289
H	-2.1112231548	-2.7112354281	-0.6886065644	 0.120917
H	-0.444360342	-3.7546954048	 1.0675901343	 0.115301
H	 0.7097881619	-2.6037212484	 0.3251605157	 0.130943
H	-0.7795743893	-2.2496756766	 2.7519259088	 0.232624
H	-2.6729305092	-1.0322701804	 1.7242525546	 0.11831
