18
gdb 18870	3.19389	2.44408	2.04197	1.5865	69.87	-0.2341	0.0904	0.3245	766.7602	0.155856	-347.777293	-347.770701	-347.769757	-347.807781	26.4	
C	-0.257544322	 1.5829965202	-0.0105233298	-0.415593
C	 0.0241052721	 0.0910034031	-0.1281941939	 0.01214
C	 0.7328107651	-0.5160247732	-1.349381678	-0.095221
C	 2.2477641824	-0.417277488	-1.2398697821	-0.066204
C	 2.8688117538	 0.5684176047	-0.2628703311	-0.106469
O	 2.2269077941	 0.3147788092	 0.9927126314	-0.261883
C	 1.140680975	-0.571732314	 0.7519385031	 0.06991
C	 1.522995445	-1.4642185429	-0.4533785219	-0.092435
H	-0.9283366033	 1.9143059136	-0.8112469202	 0.109566
H	-0.7435996951	 1.8112081814	 0.9445100467	 0.114888
H	 0.6542150208	 2.1813719356	-0.0647004802	 0.124945
H	-0.9045372713	-0.4715026717	 0.0297910786	 0.070915
H	 0.2682772721	-0.7345872382	-2.3049075259	 0.080223
H	 2.8126649468	-0.7107726827	-2.1172747086	 0.089948
H	 3.946778346	 0.3914536757	-0.1514231699	 0.101244
H	 2.7269556646	 1.6163756965	-0.5567792853	 0.098725
H	 0.8466213192	-1.0176192629	 1.701474329	 0.077039
H	 1.6795500546	-2.5329909963	-0.4941151519	 0.088263
