19
gdb 82271	3.04902	1.38047	1.05362	3.5153	84.4	-0.2437	-0.0538	0.19	1153.6227	0.1598	-385.908918	-385.90079	-385.899846	-385.941437	31.535	
C	-0.1812823055	 1.5892755206	-0.0330955428	-0.402065
C	 0.0128840233	 0.0652823762	-0.0209378568	-0.10748
C	 0.8068256251	-0.4862991524	-1.2134537181	-0.046166
C	 2.2470887739	-0.0878566083	-1.3574717717	-0.278185
C	 1.8991190654	-1.4045509619	-0.672942424	-0.083731
C	 1.7755862681	-1.3138518097	 0.7981402928	-0.157305
C	 0.7879174705	-0.4786966664	 1.1749553329	 0.217575
C	 0.4687624835	-0.2015834266	 2.5728335702	 0.073373
O	-0.437764717	 0.5090173192	 2.9564161112	-0.282937
H	 0.7803706393	 2.1117837358	-0.0519953629	 0.110257
H	-0.7462386693	 1.8939325299	-0.9197574937	 0.110194
H	-0.7261041238	 1.9065257472	 0.8577842208	 0.15002
H	-0.9861278045	-0.3925903094	-0.014135633	 0.093751
H	 0.2668633075	-0.7497640312	-2.1154126633	 0.090833
H	 2.6809253554	-0.1563184156	-2.3493709805	 0.118071
H	 2.6497722614	 0.7084340039	-0.7408775493	 0.120548
H	 2.1914772127	-2.3346920316	-1.1458407865	 0.096501
H	 2.42063023	-1.8509818709	 1.48686146	 0.111187
H	 1.1304956439	-0.7225292289	 3.3020419847	 0.065558
