18
gdb 40060	3.33141	1.53667	1.44582	1.8945	69.94	-0.2503	0.0707	0.321	962.4601	0.15055	-439.059384	-439.052588	-439.051644	-439.090501	27.712	
C	 0.0303169074	 1.5214355757	-0.0040539394	-0.311555
N	 1.2560564018	 0.6975223437	 0.0505012791	-0.371432
C	-0.0537380716	 0.0458522969	 0.0274467532	 0.38594
C	-0.4668139857	-0.8335295823	 1.2202069748	-0.313741
C	-1.0957565045	-2.0148546741	 0.4531101377	 0.180247
O	-2.3754829137	-1.6164918784	-0.0393308191	-0.275337
C	-2.0771699392	-0.7879999197	-1.1748842217	-0.083412
C	-0.5337680958	-0.7858405199	-1.1628123787	-0.061208
O	-0.2851971416	-2.1268819787	-0.705100592	-0.24696
H	-0.1725592134	 2.1009185935	 0.8925363633	 0.123519
H	-0.2142974094	 2.0334304798	-0.9328959672	 0.109386
H	 1.6957703752	 0.6593982478	-0.8667070954	 0.229674
H	 0.41313454	-1.1415075312	 1.7901756162	 0.1232
H	-1.1873440825	-0.3600900779	 1.8898491539	 0.114783
H	-1.1805868293	-2.9701876773	 0.968782225	 0.097165
H	-2.4798911188	-1.2490119832	-2.0836897232	 0.10731
H	-2.5104181793	 0.2093243341	-1.0467549439	 0.107019
H	-0.0427734396	-0.5998877688	-2.1181833325	 0.0854
