19
gdb 83891	2.32526	1.54025	1.19918	3.8859	81.01	-0.2299	0.0243	0.2542	1113.9017	0.161117	-382.075282	-382.06689	-382.065945	-382.108093	32.139	
C	-0.0860866867	 1.5348817831	 0.0904736101	-0.416226
C	 0.0346344101	 0.0362051747	-0.0439557071	-0.055045
C	 0.6923312259	-0.6631691347	-1.2124278056	-0.108279
C	 1.6306532219	 0.096302123	-2.1547076661	-0.230772
C	 2.9772474409	 0.114441736	-1.4017690885	-0.158734
N	 2.5660027844	 0.1662321113	 0.0128530235	-0.360686
C	 1.3807639384	-0.6673212043	 0.1478055043	 0.196663
C	 1.4774866627	-1.851048201	 0.9536725116	 0.210685
N	 1.571498739	-2.7905626623	 1.6244009049	-0.353608
H	 0.8743729692	 2.0247869765	-0.0801791826	 0.138757
H	-0.8195154832	 1.9343668796	-0.6182291079	 0.119587
H	-0.4183166637	 1.7979285552	 1.0994906439	 0.125714
H	-0.8044031594	-0.5231638923	 0.3623801695	 0.104602
H	 0.228928704	-1.5739339825	-1.5714229741	 0.111873
H	 1.7145865258	-0.4081102453	-3.1195557398	 0.113193
H	 1.2736523554	 1.1133695694	-2.3426546258	 0.116798
H	 3.5532372926	-0.7935400835	-1.6432557588	 0.099626
H	 3.5943136901	 0.9837304002	-1.6492246969	 0.108629
H	 3.2962767327	-0.1031374131	 0.6590805154	 0.237223
