27
gdb 58415	1.84781	1.28819	1.17735	0.1424	95.83	-0.2494	0.0764	0.3258	1357.4666	0.249472	-353.560622	-353.548883	-353.547939	-353.596602	43.962	
C	-0.3958887418	 1.4009206779	 0.0559587815	-0.400311
C	 0.1913470573	-0.0075779312	-0.1408606643	-0.017242
C	 1.1956848876	-0.017252195	-1.3064713969	-0.400292
C	 0.7943740358	-0.5714814455	 1.1506082565	 0.35491
C	 1.9729762867	 0.2115027664	 1.7136641768	-0.469952
C	-0.1091854677	-1.2268560947	 2.1864090691	-0.068255
C	-1.6164080023	-1.3379564057	 2.0716229079	-0.417382
C	 0.8465683597	-2.0776564732	 1.3686810178	-0.068268
C	 0.3773284548	-3.1127583099	 0.3658718791	-0.41738
H	 0.3852555153	 2.1362414836	 0.2758135004	 0.114313
H	-0.9089119697	 1.7343262905	-0.8524649038	 0.106221
H	-1.1174753958	 1.4236106235	 0.8781796198	 0.114247
H	-0.6392271549	-0.6571163565	-0.4349569802	 0.065239
H	 2.0262233996	 0.6740013834	-1.1287214014	 0.114307
H	 1.6182207132	-1.0142046047	-1.4639188282	 0.114251
H	 0.7084117226	 0.2934615822	-2.2368533823	 0.106218
H	 1.6980244395	 1.2422903081	 1.963077189	 0.112942
H	 2.3421264825	-0.2567325335	 2.6313764135	 0.109401
H	 2.8115587412	 0.2517209018	 1.0097548152	 0.112934
H	 0.2078349888	-1.0584914878	 3.2141372261	 0.071913
H	-1.9612551625	-1.5022186819	 1.0484323136	 0.115718
H	-1.9863719364	-2.1746350017	 2.6755108856	 0.113484
H	-2.1068403079	-0.4296290534	 2.4394187558	 0.115934
H	 1.7277884595	-2.4115523374	 1.9136915985	 0.071912
H	-0.5026274232	-2.799052597	-0.1998870741	 0.115721
H	 1.1660177987	-3.3436975309	-0.3590349121	 0.115933
H	 0.1181087993	-4.0489430774	 0.8737641268	 0.113484
