21
gdb 52941	4.3734	0.89248	0.84836	0.1246	93.13	-0.2354	0.0557	0.2912	1476.2806	0.184019	-349.931904	-349.923215	-349.922271	-349.96645	33.12	
C	 0.0019022886	 1.4678900068	-0.0043446937	-0.512995
C	-0.0001864043	 0.0122474798	-0.0032121118	 0.345996
C	-0.003810413	-1.1931979914	-0.0002577585	-0.380581
C	-0.0044906482	-2.6343859521	-0.0006821232	 0.301838
C	 0.2405900195	-3.4770392069	 1.2989419607	-0.252796
C	-0.4383855713	-4.5994598935	 0.4665565254	-0.046618
C	-1.3198537426	-3.4758669444	-0.1452047905	-0.252794
C	 0.5950871509	-4.8415901171	-0.6503521372	-0.215215
C	 0.9282331731	-3.3578007895	-1.0090980951	-0.261722
H	 0.6949876401	 1.8666050179	-0.753770925	 0.14565
H	-0.9932088691	 1.8681896797	-0.2293419451	 0.145874
H	 0.3045410835	 1.8672526311	 0.9703454388	 0.145875
H	 1.2764952538	-3.6189010943	 1.6213984198	 0.08975
H	-0.3737627771	-3.1294368543	 2.1316931502	 0.101612
H	-0.8791948494	-5.4752893593	 0.9421514501	 0.059792
H	-2.1023472415	-3.1281424887	 0.531937861	 0.101611
H	-1.7215291016	-3.6166474365	-1.153193289	 0.08975
H	 1.4695937194	-5.3936615312	-0.2939145556	 0.095597
H	 0.1716591593	-5.3926670251	-1.4951103753	 0.095598
H	 0.679278689	-3.0992905772	-2.0415436007	 0.10189
H	 1.9770435108	-3.1002821236	-0.8404806054	 0.10189
