17
gdb 86095	2.92299	1.29861	1.01575	6.14	73.97	-0.2335	0.0289	0.2625	1169.0993	0.138028	-414.225106	-414.216533	-414.215589	-414.258454	32.17	
C	 0.0418308863	 1.5191926431	-0.1700406647	-0.40912
C	-0.0201425193	 0.0061700115	 0.0339492782	 0.012959
N	 0.6241491295	-0.7360018422	-1.0671872789	-0.350596
C	 1.8699802801	-1.1398618229	-0.5880389042	 0.422037
N	 2.8105836173	-1.5568163034	-1.5005421183	-0.581751
N	 2.0654532842	-1.0852685346	 0.6801362365	-0.315058
C	 0.8264536705	-0.5420356276	 1.2473801019	-0.126595
C	 1.08624388	 0.4648228892	 2.2849445008	 0.291921
N	 1.2619800791	 1.2570154625	 3.1074396146	-0.337884
H	 1.0779348538	 1.8652194472	-0.2385561957	 0.141584
H	-0.4816245136	 1.7992114822	-1.0906298835	 0.113324
H	-0.4354067272	 2.0441876076	 0.6613505536	 0.148479
H	-1.0622073036	-0.3094982703	 0.1358305651	 0.095995
H	 0.6393545307	-0.2559528449	-1.9589443935	 0.239598
H	 2.4452332423	-2.0648003921	-2.2931285622	 0.258013
H	 3.5983352703	-2.0156311629	-1.0654312261	 0.269503
H	 0.2678087198	-1.3533874724	 1.7354986064	 0.127592
