19
gdb 36806	8.16267	0.48809	0.4785	4.2185	78.07	-0.2505	0.0212	0.2718	2196.3865	0.158624	-419.179801	-419.170059	-419.169114	-419.21611	33.581	
N	-0.0483244605	-1.1104365868	-0.0247449028	-0.296917
C	 0.0004517365	 0.0394971047	-0.12002609	 0.25544
C	 0.0536616111	 1.5015254944	-0.2102929477	-0.260824
N	 1.3950487772	 1.9971041475	 0.0707615761	-0.300254
C	 1.4729992976	 3.4544735284	 0.0370441703	-0.117685
C	 2.9009159251	 3.9282051291	 0.3164406724	-0.245999
C	 3.0140507219	 5.4319984538	 0.2637350459	 0.097901
C	 4.1787781232	 6.113429161	-0.3128101594	-0.178943
O	 2.9504995241	 6.0258260483	-1.0371233081	-0.235118
H	-0.2234858386	 1.7949452464	-1.2306588063	 0.159846
H	-0.730522486	 1.910520046	 0.4542376287	 0.130989
H	 1.6965425269	 1.6540758294	 0.9778427823	 0.229514
H	 1.1800933345	 3.7886669635	-0.9656358084	 0.129537
H	 0.7728910186	 3.9364042026	 0.7465947219	 0.082154
H	 3.2202816217	 3.5829168102	 1.3097539073	 0.100853
H	 3.5767189815	 3.4790296731	-0.4179943418	 0.122324
H	 2.437254671	 5.9727489324	 1.0173453609	 0.092803
H	 4.4497887306	 7.1107738162	 0.0305208439	 0.117347
H	 5.0005265334	 5.5216649099	-0.7142228151	 0.11703
