19
gdb 102147	1.87235	1.33462	0.9025	3.5379	77.27	-0.258	0.0076	0.2657	1340.7118	0.157401	-419.251124	-419.240731	-419.239787	-419.288201	35.833	
C	-0.0286801867	 1.4935950622	-0.2976393125	-0.379239
C	-0.1110460741	-0.0291269024	-0.1784836266	-0.163402
N	-1.4744024114	-0.5102866282	 0.0708643258	-0.070009
C	-2.3174455489	-0.7330742575	-1.084523648	-0.331032
C	-2.0844185457	-2.0371086501	-1.7380553977	 0.279324
N	-1.8941336567	-3.0615208057	-2.2371114278	-0.298489
C	-1.8532525979	-0.8072975071	 1.3665791562	 0.410665
C	-3.2371272559	-1.4055206488	 1.570790257	-0.516945
O	-1.10512999	-0.5933364775	 2.3015025868	-0.36077
H	 1.0010141301	 1.8004695012	-0.5053627158	 0.126054
H	-0.6587314668	 1.875899318	-1.1084230526	 0.111514
H	-0.3462417086	 1.9638577479	 0.6366445163	 0.143582
H	 0.256773254	-0.5131530354	-1.0905395392	 0.115363
H	 0.5011111891	-0.372785997	 0.6556714479	 0.152562
H	-3.373528397	-0.6665698189	-0.8164284138	 0.167317
H	-2.1379783383	 0.0553111131	-1.8240885849	 0.162918
H	-3.3930917275	-2.3037095036	 0.9654119569	 0.15084
H	-3.3244652768	-1.6634096752	 2.6253244836	 0.157469
H	-4.0269301909	-0.6880288751	 1.3225455783	 0.142279
