17
gdb 49571	2.11035	1.93882	1.22906	0.8674	72.1	-0.2433	-0.0403	0.2029	1025.5764	0.135445	-417.928229	-417.920328	-417.919384	-417.961031	29.727	
O	-1.023243001	 1.3002812941	 0.0411104761	-0.247009
C	 0.1239202637	 0.9542019456	 0.1748734394	 0.139672
C	 1.3050880092	 1.8683483458	-0.0512879288	-0.15133
N	 2.6159499955	 1.1930421243	-0.3653594284	-0.152595
C	 2.4510147148	 0.5674219195	-1.6983637718	-0.251396
C	 2.6847385008	 2.0216953445	-1.6434520932	-0.093902
C	 1.3898147522	 2.73156268	-1.3230207283	 0.351746
C	 0.3229782874	 3.2729490424	-2.1914386049	-0.310892
N	 1.206175243	 4.1660750592	-1.4071439888	-0.379048
H	 0.3915183246	-0.0777545353	 0.4959619561	 0.09878
H	 1.4356723715	 2.4749345406	 0.8547136929	 0.123558
H	 3.2837314475	-0.078156025	-1.9575346774	 0.13209
H	 1.4749081652	 0.1916414952	-2.0013347963	 0.121995
H	 3.6002713845	 2.5054563071	-1.9642026702	 0.116363
H	 0.4682640156	 3.3210020167	-3.2670871886	 0.121689
H	-0.7012545539	 3.1291700258	-1.8620962915	 0.142462
H	 0.7178780794	 4.5166376694	-0.5861069862	 0.237818
