21
gdb 104430	3.16703	1.19383	1.06731	1.7561	80.39	-0.2418	0.0114	0.2532	1234.47	0.182492	-424.233255	-424.224173	-424.223229	-424.266734	35.103	
C	 0.0896301729	 1.5647393273	-0.2194657463	-0.394056
C	-0.0088962784	 0.0561028707	 0.0269876465	-0.202791
C	-1.4426576587	-0.488183696	 0.0984348756	 0.332404
O	-2.0953217254	-0.0769687189	-1.109850281	-0.473257
C	-1.4252791559	-2.022133021	 0.1622972963	-0.130757
O	-2.742573053	-2.5199461431	 0.3499979091	-0.262184
C	-3.2408084101	-2.2045044418	 1.6376098566	-0.129839
C	-3.0242503011	-0.7621687757	 2.0020699411	-0.089762
C	-2.2138762112	 0.0268521086	 1.2991957731	-0.10076
H	 1.1360745734	 1.8640115076	-0.331515712	 0.109131
H	-0.4479908614	 1.840689661	-1.1290058789	 0.14176
H	-0.3276361302	 2.1452071363	 0.6094074049	 0.113707
H	 0.5028140406	-0.4726869768	-0.7870287425	 0.101187
H	 0.5102479252	-0.2117196226	 0.9550141589	 0.096941
H	-2.9579916625	-0.5090963142	-1.1034986835	 0.278864
H	-1.0743424958	-2.4245008926	-0.791747042	 0.11229
H	-0.7586405218	-2.3739257109	 0.9663631526	 0.08588
H	-4.3106076494	-2.4427924298	 1.6214393175	 0.119377
H	-2.7791858575	-2.8617808874	 2.3984726302	 0.101761
H	-3.5667585624	-0.3897016647	 2.8676422015	 0.096494
H	-2.1071043575	 1.0771900539	 1.5522909722	 0.093608
