15
gdb 47379	2.57807	1.44456	1.16573	3.9315	65.41	-0.2494	-0.0143	0.2351	1058.5381	0.114102	-453.975322	-453.967485	-453.966541	-454.008376	28.541	
O	-0.0291073919	 0.0910644711	 0.6951798646	-0.299281
C	-0.0580225448	 1.1434715683	 0.1282452203	 0.40263
C	-1.3521493429	 1.9207989536	-0.1138924281	-0.30752
N	-1.2936234504	 3.0878098005	-0.9870868729	-0.290471
C	-0.0532637162	 3.8140956679	-0.7986512999	-0.202029
C	 1.1697565086	 2.9126289714	-1.0388055469	-0.022474
O	 1.1297315091	 1.7192768416	-0.2420138455	-0.227336
C	 1.2614296404	 2.5445087833	-2.4639627112	 0.271464
N	 1.2920086402	 2.2813916046	-3.588481665	-0.30683
H	-2.0939353202	 1.2084002599	-0.4802842472	 0.158358
H	-1.6913290076	 2.2292598867	 0.8852131808	 0.155062
H	-1.387499939	 2.8099745988	-1.9590035633	 0.245454
H	-0.0107799155	 4.6754364917	-1.470601444	 0.140876
H	-0.0057600583	 4.1859052591	 0.2317703389	 0.132391
H	 2.0968940485	 3.4209944915	-0.7534873105	 0.149708
