15
gdb 46105	3.3736	1.10204	0.89368	3.2241	67.05	-0.2871	0.0034	0.2905	1242.0663	0.112906	-453.970391	-453.962197	-453.961253	-454.004642	28.767	
N	 0.0398602183	 1.216962586	-0.0838244588	-0.524528
C	 0.0213422132	-0.0360442333	 0.001435402	 0.382468
C	-1.113735814	-0.9465263008	-0.4095446255	-0.176066
O	-0.7232254484	-2.2343300502	 0.0508116552	-0.25708
C	 0.6468670095	-2.1977149634	 0.3612150186	 0.204458
C	 1.470931961	-2.8885624026	-0.7448532295	-0.365581
C	 2.896502475	-2.9265127709	-0.43703971	 0.264348
N	 4.0207808065	-2.9591673885	-0.1745275981	-0.293514
O	 1.0248532983	-0.8343486263	 0.4830246482	-0.227606
H	 0.9257129467	 1.6019652418	 0.2453590462	 0.239217
H	-2.0543868913	-0.6591856255	 0.0660185096	 0.155906
H	-1.251869326	-0.92998107	-1.4983637606	 0.13953
H	 0.8114794959	-2.6906271142	 1.3252197315	 0.128589
H	 1.0940820379	-3.9097792658	-0.8615004012	 0.169954
H	 1.3110956975	-2.3635594463	-1.6925685275	 0.159905
