22
gdb 120793	2.32745	0.91476	0.71134	1.1409	88.88	-0.2263	0.051	0.2773	1662.8437	0.191774	-367.150314	-367.139898	-367.138954	-367.18663	37.951	
C	 0.0920855881	 1.5296823458	-0.5298503431	-0.381973
C	 0.2623819745	 0.0230939648	-0.3210411182	-0.163715
C	 0.5023314881	-0.3440782758	 1.1443925873	-0.126414
N	 0.6193266778	-1.7915845299	 1.290699381	-0.072143
C	 1.9527151813	-2.383673505	 1.2792015167	-0.270445
C	 1.1324931224	-2.3760985155	 2.5237249895	 0.023229
C	 1.5652562482	-1.5462020548	 3.7291737659	-0.384914
C	 0.4405648782	-1.1141740773	 4.5542568103	 0.312499
C	-0.4977363989	-0.7737333129	 5.2238220411	-0.452158
H	 0.9817679851	 2.0818046205	-0.2062998107	 0.112309
H	-0.079316317	 1.766656842	-1.5841446783	 0.113792
H	-0.760289839	 1.9159575007	 0.0401922847	 0.115996
H	-0.6251232653	-0.5144203072	-0.6727811062	 0.108129
H	 1.1036048554	-0.3446232486	-0.9223668121	 0.096151
H	 1.3917066843	 0.199624737	 1.5088729632	 0.075907
H	-0.3452457807	-0.0135560761	 1.7565600566	 0.114193
H	 2.0779104122	-3.2912060846	 0.6941265096	 0.114183
H	 2.8081403924	-1.7068858596	 1.2517940287	 0.102371
H	 0.6135243871	-3.2901407583	 2.8083356827	 0.099326
H	 2.2473083354	-2.1560991341	 4.3362337725	 0.135316
H	 2.1461846017	-0.6744494824	 3.4098259734	 0.131499
H	-1.3222577415	-0.4670875686	 5.8183158652	 0.196859
