18
gdb 16842	3.51704	1.76911	1.39338	2.4922	66.87	-0.2475	0.0712	0.3187	916.9575	0.154867	-384.93017	-384.922601	-384.921657	-384.9617	29.672	
O	-0.075312086	 1.4471357499	 0.0359645879	-0.435253
C	-0.0024960882	 0.0281521411	 0.0082757784	 0.126778
C	 0.6986514915	-0.5925269321	 1.2388700182	-0.321472
C	 0.03371613	-1.9736698046	 1.442620572	 0.12678
O	-0.005623087	-2.4050380982	 2.7961191288	-0.435254
C	-1.3740176926	-1.8030534693	 0.9011814731	-0.037084
C	-2.1315754719	-0.5752691299	 1.3344077463	-0.277238
C	-1.3962697399	-0.5728837123	 0.0197388181	-0.037083
H	 0.8193250644	 1.7925447645	-0.0455026704	 0.279623
H	 0.5065660118	-0.3004651668	-0.9121062088	 0.06293
H	 1.7848144921	-0.6585597183	 1.1192921135	 0.084282
H	 0.4983760941	 0.0316672971	 2.115071391	 0.11991
H	 0.550463796	-2.727257631	 0.8267353778	 0.06293
H	 0.8982823526	-2.5717056117	 3.0815958042	 0.279622
H	-1.9311700433	-2.6960791911	 0.6428517926	 0.082889
H	-3.2132050306	-0.6290840316	 1.2866064524	 0.110015
H	-1.7561361844	 0.0211457492	 2.1573068173	 0.124737
H	-1.9701037085	-0.5438847048	-0.8992397826	 0.082889
