23
gdb 100086	3.1509	0.93031	0.86011	3.4501	82.82	-0.242	0.0581	0.3001	1482.7781	0.204159	-421.662334	-421.651249	-421.650305	-421.697949	41.562	
C	-0.1394637305	 1.4711979453	 0.2092576674	-0.397878
C	 0.0237636356	-0.0270667463	-0.0583934023	-0.210462
C	 0.7757059466	-0.4136925835	-1.3549402148	 0.297471
C	 0.0300647928	 0.101165161	-2.597875061	-0.40844
C	 2.2242179986	 0.1099612875	-1.3373274667	-0.412393
N	 0.7641039144	-1.8938688022	-1.3649271069	-0.369815
C	 1.3663403019	-2.6698548237	-2.3255151667	 0.451889
N	 1.3758199468	-4.0312205505	-2.0115646983	-0.561478
O	 1.8723485975	-2.2442581394	-3.3503362134	-0.398873
H	 0.8256685151	 1.9777071861	 0.2992097487	 0.123852
H	-0.7078942286	 1.9671179299	-0.5825735971	 0.12455
H	-0.6802346763	 1.6276955947	 1.1476141393	 0.115058
H	 0.555847381	-0.4791755567	 0.7912759834	 0.088446
H	-0.9668604664	-0.498510115	-0.092000979	 0.096933
H	 0.0428430912	 1.1939749169	-2.6309857996	 0.108175
H	 0.508254098	-0.2785184781	-3.5011506141	 0.15558
H	-1.0124967589	-0.2329467724	-2.5866921752	 0.103094
H	 2.744994975	-0.2213225157	-0.4321545597	 0.099492
H	 2.763188551	-0.2686238647	-2.2070689725	 0.153628
H	 2.2481946644	 1.2031719722	-1.3641748161	 0.109229
H	 0.6479660124	-2.3260995071	-0.4612393354	 0.230697
H	 0.5849140054	-4.3888796832	-1.4956152894	 0.243927
H	 1.6151056028	-4.5941193548	-2.8145385807	 0.257317
