22
gdb 74268	2.5355	1.41524	1.18626	1.455	88.5	-0.2239	0.0234	0.2473	1193.3463	0.193774	-367.209628	-367.200432	-367.199488	-367.242722	36.191	
C	-0.0596670824	 1.5220474162	 0.0896123133	-0.500331
C	-0.0273166198	 0.0289460726	 0.0109810585	 0.349401
C	 0.0580521128	-0.7395575272	-1.0797584769	-0.21565
C	 0.0552388146	-2.2348167546	-0.7870469983	 0.269059
C	-1.2425147225	-2.8847633251	-1.3032003484	-0.423473
C	 1.2839365689	-2.9421182365	-1.3839979897	-0.419375
C	 0.0645059424	-2.2428839047	 0.7496521094	-0.077027
N	 1.2461884448	-1.6073911171	 1.3688775575	-0.344555
C	-0.029647014	-0.8417565128	 1.2303797769	-0.153276
H	 0.8059875228	 1.9063961794	 0.6437515041	 0.132221
H	-0.0579464749	 1.9771362459	-0.9045088055	 0.12247
H	-0.9532204582	 1.8740234559	 0.6211593275	 0.121024
H	 0.1469003926	-0.3643701346	-2.0953774483	 0.081733
H	-1.3216183343	-2.7878071962	-2.3911424267	 0.11153
H	-1.2682542559	-3.9540219185	-1.060540439	 0.106467
H	-2.1235228566	-2.4107407458	-0.8591187922	 0.113247
H	 2.201699343	-2.5288268054	-0.9602857186	 0.136992
H	 1.2568054643	-4.0170513655	-1.1718569032	 0.103303
H	 1.3146526183	-2.8203224242	-2.4723708727	 0.104338
H	-0.4158490805	-3.0647613909	 1.2724853105	 0.076319
H	 1.3189120313	-1.9459546385	 2.3275478207	 0.224062
H	-0.5615695266	-0.5525401827	 2.1316793612	 0.081518
