19
gdb 69261	2.59918	1.52699	1.15227	3.2866	75.71	-0.2415	-0.0248	0.2168	1114.3778	0.159569	-423.052087	-423.043878	-423.042934	-423.08468	31.823	
C	 0.1367916294	 1.5100026579	-0.0919864562	-0.466645
C	-0.0550538214	 0.0179612563	 0.0552341636	 0.389347
C	-1.3253891697	-0.5698710828	-0.5564089162	-0.263542
C	-1.9028977504	-1.7789277598	 0.1997508437	-0.221728
C	-0.810595323	-2.732710557	 0.7256291886	-0.312819
C	 0.0610281282	-1.9723409964	 1.7056671298	 0.400999
O	 0.2496469356	-2.3057499879	 2.8536301221	-0.318081
C	 0.6383062372	-0.6958860478	 1.163711571	-0.12245
O	 1.1170425827	-0.7624931023	-0.1900282656	-0.277797
H	 1.1144872804	 1.8135423036	 0.2894043284	 0.133931
H	 0.075421844	 1.7975524721	-1.1475472448	 0.130752
H	-0.6406667214	 2.0572616578	 0.4508591324	 0.127152
H	-2.087260954	 0.2135027638	-0.626979648	 0.106142
H	-1.074115074	-0.8529600387	-1.5861141131	 0.120343
H	-2.4934720125	-1.4250121721	 1.0538451834	 0.113739
H	-2.5946483773	-2.3252735452	-0.4489181359	 0.108861
H	-1.2401220043	-3.5949968591	 1.2395686142	 0.119393
H	-0.1910457635	-3.0859952123	-0.106567712	 0.132068
H	 1.2656508639	-0.1418601502	 1.8601295846	 0.100335
