16
gdb 8042	3.49534	1.93122	1.52613	3.4739	60.42	-0.241	0.0513	0.2923	845.2374	0.129274	-420.823795	-420.816109	-420.815164	-420.855752	28.727	
O	-0.1892732945	 1.4881397505	 0.1974243405	-0.423262
C	-0.0193509795	 0.1060519068	 0.0542314818	 0.145607
C	 0.3982699359	-0.7563268978	 1.2948945908	-0.358225
C	-0.8140714541	-1.6981475075	 1.0166658071	 0.335042
O	-0.5673577683	-3.0361613792	 0.7193249753	-0.475667
C	-2.082060239	-1.3014994899	 1.7929538669	-0.120599
O	-2.3583720204	-0.2455754517	 0.8423676368	-0.282037
C	-1.3294936472	-0.6950693173	-0.0589511325	 0.053329
H	 0.6801497549	 1.899913053	 0.2200762145	 0.286082
H	 0.6221737042	-0.1443167636	-0.8046429297	 0.072953
H	 1.3729228642	-1.2423374205	 1.2043238838	 0.097823
H	 0.3386008173	-0.2189775457	 2.2445675676	 0.106947
H	-0.0437287227	-3.416340707	 1.4330064941	 0.283543
H	-2.8561939684	-2.0801311699	 1.7688859937	 0.101269
H	-1.9633832228	-0.9227762669	 2.8155778748	 0.097197
H	-1.7161056795	-0.9554562133	-1.0472701955	 0.079998
