13
gdb 42384	3.3615	0.97151	0.75369	5.3915	77.35	-0.2605	-0.0621	0.1983	1391.8667	0.086447	-415.556772	-415.54762	-415.546676	-415.591713	32.157	
N	 0.1874670343	 1.4683812972	 0.0055266983	-0.465289
C	 0.0538263235	 0.2013354793	 0.0016493667	 0.246241
N	-1.1956598923	-0.432163728	 0.0099770174	-0.375582
C	-2.4631778793	 0.145729508	 0.0264180073	 0.310973
O	-2.701758497	 1.3267019654	 0.0363767359	-0.294131
C	-3.507285258	-0.8745079772	 0.0301718267	 0.185482
C	-4.3934066347	-1.6872182482	 0.0337784663	-0.383146
C	 1.1426487905	-0.7440807797	-0.012709549	 0.253652
C	 2.0671443059	-1.5135889217	-0.0248665125	-0.420948
H	 1.1783484886	 1.7060727816	-0.0025375156	 0.237347
H	-1.1739416704	-1.4403466966	 0.0039422999	 0.27306
H	-5.1880881221	-2.393369571	 0.0374499465	 0.215121
H	 2.8923122911	-2.1835327691	-0.0356467479	 0.217221
