15
gdb 128723	6.73141	0.9122	0.81154	2.7403	67.11	-0.2362	0.0234	0.2597	1381.9027	0.110971	-491.056274	-491.047389	-491.046445	-491.090998	30.022	
C	-0.0278367159	 1.3019034514	 0.1398771665	-0.248583
O	-0.0687665488	-0.1168504126	-0.1051863999	-0.242611
C	 0.6080879661	-0.5203461095	-1.1527067696	 0.518027
N	 1.29658189	 0.1902874279	-1.973691797	-0.259508
O	 1.7941173018	-0.786239106	-2.9003836414	-0.263048
C	 1.3503735752	-2.0213446688	-2.5187970422	 0.542465
O	 0.5699408726	-1.8428792195	-1.3864876716	-0.221873
N	 1.5550147378	-3.1411288137	-3.021706888	-0.357646
C	 2.3898133122	-3.2505915846	-4.2080463426	-0.334831
H	 1.0022025442	 1.6239675289	 0.3116461484	 0.158738
H	-0.4411789964	 1.8429832989	-0.7148451978	 0.158856
H	-0.6360756903	 1.4588642602	 1.0288999664	 0.154025
H	 1.7585338326	-3.4325637461	-5.0855684731	 0.133372
H	 3.0063164151	-2.3657414084	-4.4046981758	 0.129945
H	 3.0462095737	-4.1186497381	-4.0969631423	 0.132672
