15
gdb 26835	3.63255	1.12546	0.86361	5.515	79.07	-0.1998	-0.0381	0.1616	1260.7638	0.113173	-453.981257	-453.972811	-453.971867	-454.014261	31.168	
N	 0.1115149468	 1.338642129	 0.0835991935	-0.592877
C	-0.0192623002	-0.0188087733	 0.0248789537	 0.404224
C	-1.1587294354	-0.8038280378	 0.0201815782	 0.107879
N	-2.4679673347	-0.2491121876	-0.0099804331	-0.621561
C	-0.6832063894	-2.1403013183	 0.0236044763	-0.309764
C	 0.6898739682	-2.0910129303	 0.0233599994	 0.243838
O	 1.0909483348	-0.7623667784	 0.0351597332	-0.191403
C	 1.6853779343	-3.128168085	 0.0065903637	 0.056857
O	 2.8908923696	-2.972246665	 0.0025334611	-0.308571
H	 0.958228063	 1.7144321754	-0.3182005234	 0.269413
H	-0.7334772291	 1.8227756137	-0.187439982	 0.271535
H	-2.9273899612	-0.308785026	 0.8941329365	 0.245279
H	-3.0614902914	-0.7300849646	-0.6773832806	 0.243012
H	-1.2757862855	-3.0438281849	 0.0150493591	 0.120652
H	 1.22461208	-4.1423682268	-0.0027851255	 0.061488
