19
gdb 92177	2.67859	1.88883	1.68719	0.194	72.49	-0.2387	0.0606	0.2993	912.0533	0.161586	-422.993285	-422.986445	-422.985501	-423.024109	28.525	
C	-0.2023765367	 1.5420895248	 0.0402289954	-0.414395
C	 0.0498502248	 0.029986524	 0.0096101668	 0.029262
C	 0.858075586	-0.4525195839	-1.2363702622	-0.232596
C	 2.3147476631	-0.6254739748	-0.8176563852	 0.053866
O	 2.7206159063	 0.570367826	-0.0710189377	-0.303568
C	 2.3623702604	-0.1049980222	 1.1368931176	 0.066201
C	 2.4097127059	-1.488129604	 0.5025247885	 0.067767
O	 1.1364212805	-1.879926229	 1.0154451213	-0.307321
C	 0.8263437112	-0.4624593178	 1.232883538	 0.04571
H	 0.737141186	 2.0973131374	 0.0007220017	 0.141827
H	-0.8135399649	 1.8459111303	-0.816019616	 0.113442
H	-0.7418514915	 1.8319724522	 0.9492321512	 0.107612
H	-0.9171687712	-0.4854288376	 0.0196759145	 0.080848
H	 0.4711593538	-1.4079882164	-1.6033995246	 0.111406
H	 0.7873573272	 0.2720017346	-2.0535482457	 0.103972
H	 3.0071384167	-0.8413392559	-1.6344835616	 0.079823
H	 2.8818633285	 0.2532505618	 2.0259124775	 0.089905
H	 3.1864122683	-2.2484773411	 0.5867598733	 0.089036
H	 0.3159005656	-0.3041059084	 2.1863260073	 0.077201
