18
gdb 105361	2.88292	1.34226	1.12557	2.0389	71.74	-0.2472	-0.0406	0.2067	1115.0405	0.147265	-439.035183	-439.026837	-439.025893	-439.068198	31.512	
O	 0.1539163353	 1.3654834563	-0.1719800157	-0.426543
C	 0.1328774222	-0.0234122924	 0.0885064376	-0.142987
C	-1.2892340957	-0.5847150323	 0.0578867636	 0.185735
C	-2.0970530363	-0.5435498	-1.2886153646	-0.216816
N	-2.393005326	-2.0163836483	-1.2424649215	-0.122359
C	-1.0821469841	-2.6770038291	-1.3054273281	-0.247846
C	-1.4989277136	-2.104428969	-0.0106553107	-0.09239
C	-2.1460975548	 0.0253459313	 1.1402022562	 0.129701
O	-1.812624729	 0.9523073474	 1.8414269554	-0.28241
H	-0.2936516794	 1.7773287736	 0.5782845421	 0.297846
H	 0.7386825949	-0.4971799235	-0.6893629381	 0.105418
H	 0.5961960829	-0.2658699992	 1.0577437486	 0.098159
H	-3.0234805851	 0.0323724159	-1.245731026	 0.125149
H	-1.5172838185	-0.2213903811	-2.1585430322	 0.128145
H	-1.1573817762	-3.7555235245	-1.4044271652	 0.131419
H	-0.2856045208	-2.2227419268	-1.8898600159	 0.121644
H	-1.762096236	-2.7308581086	 0.8365048112	 0.104548
H	-3.1541526098	-0.4332787197	 1.2488900535	 0.103587
