14
gdb 28190	5.26791	1.27374	1.02573	1.4013	69.3	-0.1748	0.0382	0.213	1067.3241	0.102515	-436.71346	-436.706062	-436.705118	-436.745222	28.102	
O	 0.0781013376	 1.3051548616	 0.2379083085	-0.434973
C	 0.0684001782	-0.0313171616	-0.0000674479	 0.407032
C	 0.0811074339	-0.7801244375	-1.1522632298	-0.505815
C	 0.0587821382	-2.1566834003	-0.7202713173	 0.271716
C	 0.0344567597	-2.1275372435	 0.6497006513	 0.403592
N	 0.0395852065	-0.8451349844	 1.1248973215	-0.456534
O	 0.0113111174	-3.3328125416	 1.2388343794	-0.219069
C	 0.0215908202	-4.2170534081	 0.164119652	-0.0282
C	 0.0496505017	-3.5629298706	-1.0306458061	-0.351497
H	 0.0994658709	 1.7609114559	-0.6089215538	 0.309038
H	 0.1032029156	-0.3877070314	-2.1567284923	 0.092935
H	 0.0255963722	-0.5173518858	 2.0740784728	 0.274897
H	 0.0058414689	-5.2568140222	 0.4411378011	 0.129246
H	 0.062004039	-4.0396256504	-1.9987020795	 0.107631
