17
gdb 125410	2.84084	1.48604	1.03284	2.9373	75.32	-0.2352	0.0026	0.2379	1140.9135	0.136373	-417.975402	-417.967272	-417.966328	-418.008645	29.814	
C	-0.2633914586	 1.4302829533	 0.1707752177	-0.509379
C	-0.0574447607	-0.0416139507	 0.0215514754	 0.066867
C	 0.0292450505	-0.8056208974	-1.0951106199	 0.007901
O	 0.2416972031	-2.0968074333	-0.7911867905	-0.178301
N	 0.2975957184	-2.226047857	 0.5962330354	-0.220466
C	 0.1247502572	-1.0096403398	 1.0640816519	 0.353677
N	 0.198600297	-0.7173647041	 2.42514391	-0.148137
C	-1.0483122389	-0.5617829977	 3.1867126191	-0.234144
C	-0.171766431	-1.7504615697	 3.3848848027	-0.218674
H	 0.5273374836	 1.8757218488	 0.7834433675	 0.144029
H	-0.2632636303	 1.9288232337	-0.8018892139	 0.128301
H	-1.2159347605	 1.6588559399	 0.6625303967	 0.13194
H	-0.0306788201	-0.5751810583	-2.148360752	 0.145623
H	-1.049901644	 0.2494320921	 3.9080149589	 0.125604
H	-1.9841291127	-0.7164011044	 2.6556008617	 0.128882
H	-0.5103704335	-2.7007065181	 2.9844579768	 0.15012
H	 0.4679077103	-1.8115138874	 4.2595643325	 0.126156
