18
gdb 112285	2.74594	1.11912	0.86954	1.4944	69.41	-0.2672	0.0103	0.2775	1315.3112	0.147546	-476.209073	-476.200007	-476.199063	-476.243369	33.061	
O	-0.0758725113	 1.5429307177	-0.2584632349	-0.416606
C	 0.0126112673	 0.2298955346	 0.2574928974	-0.073304
C	-1.2958649855	-0.5109541867	 0.0642759509	 0.073398
O	-1.5584485398	-0.6874320009	-1.3844519227	-0.281684
C	-1.5694680201	-2.0549244348	-1.2446032935	 0.457153
N	-1.6350934931	-2.9804366274	-2.0919374832	-0.559609
C	-1.3799012868	-2.0493655295	 0.2532934185	-0.191577
C	-0.1991915446	-2.9093308924	 0.7192129241	-0.080157
O	-0.4750827592	-4.2676379552	 0.4604870653	-0.42064
H	-0.2932845373	 1.4620195116	-1.1943929813	 0.295523
H	 0.8374871574	-0.331480301	-0.2049394721	 0.100179
H	 0.2271883004	 0.3225465112	 1.3278068745	 0.123119
H	-2.1179137338	 0.0560015662	 0.5086533175	 0.108701
H	-1.7005286784	-2.6330316621	-3.0494302142	 0.233551
H	-2.2789945287	-2.3635983134	 0.788970233	 0.122339
H	 0.7295548729	-2.5833428407	 0.2261304989	 0.092531
H	-0.0513163716	-2.8118311186	 1.7997092931	 0.114048
H	-0.7079996278	-4.3363407489	-0.4775395213	 0.303034
