17
gdb 41329	3.00291	1.92943	1.74328	1.1925	70.95	-0.2363	-0.0058	0.2305	849.0233	0.138571	-421.743752	-421.737651	-421.736706	-421.773776	26.338	
C	 0.0283867491	 1.5418166002	 0.2419422038	-0.180349
O	 1.4622523698	 1.4676322813	-0.1119776546	-0.361679
C	 1.1545843233	 0.2858894637	-0.8814861856	 0.370227
C	 0.5628406986	 0.6333101734	-2.2960778411	-0.114926
O	-0.6424566255	-0.1366517123	-2.3593706133	-0.265769
C	-0.6557303654	-0.9200018658	-1.1432152633	-0.018358
C	 0.5903449173	-1.8527869884	-1.2091410034	-0.071923
C	 1.7064482881	-1.1132839502	-1.0351583474	-0.200288
C	-0.1025503574	 0.0242023259	-0.0689024923	-0.016202
H	-0.0993742613	 1.8326027035	 1.2864894925	 0.118673
H	-0.5114303705	 2.231991797	-0.4125263725	 0.121356
H	 0.325267184	 1.6975578785	-2.3870508196	 0.110214
H	 1.2439297117	 0.3487523726	-3.1054661485	 0.099099
H	-1.6293401423	-1.3993114847	-1.0596673614	 0.080929
H	 0.5466976776	-2.8885972464	-1.5216335616	 0.108051
H	 2.7343121282	-1.4286882942	-1.1585000411	 0.115679
H	 0.1437994545	-0.528302244	 0.8364321195	 0.105265
