17
gdb 10094	2.57881	1.7297	1.04919	2.0335	71.1	-0.2122	-0.013	0.1993	1106.1973	0.141069	-397.213284	-397.203696	-397.202752	-397.24863	32.182	
C	-0.0767350826	 1.4703332503	-0.0260551175	-0.308117
N	 0.0904537583	 0.0345736083	-0.0006446686	-0.348645
C	 0.6029201776	-0.6227358256	-1.0707247821	 0.495197
N	 0.6605262968	-2.0391182776	-0.9261283033	-0.37579
C	 0.2217537884	-2.8236432397	 0.1025433577	 0.177116
O	-0.3125613367	-2.4441572002	 1.125297293	-0.323116
N	 1.0087534946	-0.0092699249	-2.1166968485	-0.333134
C	 1.5666327523	-0.7568722655	-3.2216594857	-0.340881
H	 0.8800305088	 1.9727546973	-0.2008176848	 0.137665
H	-0.7627467197	 1.7865029962	-0.8210138002	 0.130334
H	-0.4767819373	 1.788402718	 0.9388331371	 0.120099
H	-0.273154428	-0.5250980668	 0.7563162232	 0.275722
H	 1.0723008676	-2.5236806339	-1.7078979627	 0.261859
H	 0.4110101157	-3.8942366341	-0.1003448497	 0.097929
H	 2.4832315005	-1.3127920855	-2.957573297	 0.102829
H	 0.8588057938	-1.4773566291	-3.6673783228	 0.102155
H	 1.8447298898	-0.0617693574	-4.0184403282	 0.12878
