18
gdb 97008	3.50325	1.25268	1.12188	2.5508	74.44	-0.2477	0.0171	0.2648	1149.4497	0.148678	-439.083623	-439.075532	-439.074588	-439.116967	29.685	
C	 0.0519995405	 1.4184490128	 0.2655094189	-0.341548
N	-0.0340585513	-0.0307653278	 0.3856039417	-0.332423
C	-1.0607008788	-0.620409315	-0.0094669892	 0.435774
O	-2.2341171675	-0.1221935526	-0.5747755976	-0.288571
C	-2.8128905194	-1.461862675	-0.6811283033	 0.089556
C	-2.8336636257	-1.9963958357	-2.1064727178	-0.244246
C	-1.3715465344	-2.4369533668	-2.3172580604	-0.094378
O	-0.9315257847	-2.9019174127	-1.03894261	-0.247937
C	-1.5250883072	-2.0772946658	-0.0678158651	-0.044037
H	 0.938959254	 1.6733644053	-0.3246443529	 0.13008
H	-0.826687016	 1.884483855	-0.1950290985	 0.126415
H	 0.1983793731	 1.8489111291	 1.262200092	 0.130595
H	-3.755631424	-1.5175500281	-0.1368692463	 0.096844
H	-3.5060456713	-2.8589947199	-2.1563742335	 0.116668
H	-3.1688424971	-1.24734144	-2.8270867784	 0.123023
H	-1.2515527732	-3.257825799	-3.0266422315	 0.118067
H	-0.7547936323	-1.5906005776	-2.6504554672	 0.11475
H	-1.5583957848	-2.609754446	 0.8825786292	 0.111367
