21
gdb 63962	3.43076	1.24253	1.20203	1.2735	85.91	-0.2257	0.011	0.2366	1170.8338	0.181771	-387.074992	-387.066382	-387.065438	-387.107732	34.181	
C	 0.0974324391	 1.4693073432	-0.0737470127	-0.40856
C	-0.0650582511	-0.0489788071	 0.0285265244	 0.350203
C	-1.546865691	-0.4481205392	 0.0581521292	-0.402831
O	 0.5569651597	-0.6334986623	-1.1589459353	-0.317625
C	 1.3406447923	-1.7299524938	-0.7504466549	 0.083115
C	 2.917838287	-1.7470809486	-0.7677628574	-0.253711
C	 2.8741192896	-2.2095385333	 0.7401229982	-0.313663
C	 1.4737122207	-1.6362988123	 0.7340706763	 0.226123
C	 0.7480441305	-0.6259471189	 1.1928805189	-0.276664
H	 1.1560570548	 1.7416333503	-0.0845213491	 0.115928
H	-0.3609916648	 1.8299424774	-0.9995910146	 0.123493
H	-0.3863170199	 1.9736496878	 0.7691278037	 0.109499
H	-2.0662351406	-0.0652827437	-0.8257389921	 0.117932
H	-1.64820971	-1.5365599255	 0.0785991228	 0.116936
H	-2.0389070084	-0.0435190809	 0.9491556198	 0.109349
H	 0.9431250172	-2.671361978	-1.1558266818	 0.075313
H	 3.4043902703	-2.4165448455	-1.4810398573	 0.10095
H	 3.314243858	-0.7346187984	-0.8620956477	 0.117322
H	 2.9055755274	-3.3002030694	 0.8234279705	 0.115379
H	 3.5947714795	-1.7772139019	 1.4361208626	 0.115066
H	 0.7886689399	-0.1447792001	 2.1624695668	 0.096445
