21
gdb 59684	2.28766	1.33565	0.9134	4.3333	84.25	-0.2375	0.0176	0.2551	1321.443	0.181915	-383.268495	-383.258861	-383.257917	-383.303057	35.551	
C	-1.4827399609	-0.4418042135	-0.2459429208	-0.393641
C	-0.034914486	 0.0164392369	-0.0569025688	 0.0662
C	 0.0615783946	 1.5428895537	 0.003012473	-0.394905
N	 0.5185094665	-0.5477522188	 1.1710436808	-0.060513
C	 1.9554149406	-0.3499324921	 1.4672933295	-0.169359
C	 2.0091286664	-1.7810986359	 2.0455450085	-0.254103
C	 0.6798086805	-2.013570418	 1.2728304594	-0.117315
C	-0.393295712	-2.7370489736	 1.9551960675	 0.300086
N	-1.2256066507	-3.3225917597	 2.5033142393	-0.333766
H	-2.1008092792	-0.1129837566	 0.5949482424	 0.132922
H	-1.8934026357	-0.019887068	-1.1680232287	 0.115437
H	-1.5628121762	-1.5305916512	-0.3160883373	 0.124408
H	 0.5578346678	-0.3330926885	-0.9279805803	 0.050187
H	-0.5199232753	 1.9276662764	 0.8467508027	 0.127782
H	 1.0965537256	 1.8784874825	 0.1199235057	 0.116282
H	-0.3287876315	 1.9838889239	-0.918754233	 0.117387
H	 2.5722505951	-0.2477908541	 0.5596731962	 0.093753
H	 2.1757277977	 0.4819943385	 2.1413889026	 0.116251
H	 2.848689408	-2.4137584014	 1.761121324	 0.121674
H	 1.8663767552	-1.8130982905	 3.1254728846	 0.136822
H	 0.8630011292	-2.49817429	 0.2993169828	 0.104411
