23
gdb 93269	2.12809	1.59901	1.17081	2.6754	84.69	-0.2318	-0.012	0.2198	1184.9917	0.204625	-388.341925	-388.332081	-388.331136	-388.375981	37.867	
C	-0.3136060741	 1.4830495332	-0.0625033814	-0.417524
C	 0.04096608	-0.0022555883	-0.0195347558	 0.006878
C	 0.9589674462	-0.4626592602	-1.1754094951	-0.233162
C	 1.4501700014	-1.8495682738	-0.7411097888	-0.33047
C	 1.4393367869	-1.8089899625	 0.7892438418	 0.397818
O	 1.9011807483	-2.6502692682	 1.5181379516	-0.335597
C	 0.7479711045	-0.5125194796	 1.2677980773	 0.174432
C	 1.8730692904	 0.428403565	 1.7562118323	-0.428377
C	-0.2115199912	-0.812875263	 2.4238351036	-0.437346
H	 0.5811111193	 2.1132982388	-0.038422076	 0.117927
H	-0.8579576265	 1.7208605061	-0.9826642653	 0.113945
H	-0.9508404207	 1.771318611	 0.7801583909	 0.116376
H	-0.8955939299	-0.5730128393	-0.1047707488	 0.070472
H	 0.4353198028	-0.4721399856	-2.135259835	 0.100275
H	 1.8047243146	 0.2275560009	-1.2807065525	 0.103149
H	 0.7490110271	-2.6364051224	-1.048927241	 0.130763
H	 2.4338750255	-2.1407457853	-1.117634221	 0.126891
H	 2.5754199278	 0.690547663	 0.9581954931	 0.114872
H	 1.4547121111	 1.3579248418	 2.1537429722	 0.118722
H	 2.4407416997	-0.0605671543	 2.5529024733	 0.134308
H	 0.3221703673	-1.3146481145	 3.2357739878	 0.134465
H	-0.6542144827	 0.1080999934	 2.8180204471	 0.109958
H	-1.0272066378	-1.4698657861	 2.1039466695	 0.111225
