19
gdb 81101	2.46723	1.66742	1.26476	2.6788	80.51	-0.237	-0.0258	0.2111	1053.7965	0.158885	-385.865833	-385.857694	-385.856749	-385.898559	31.709	
C	-0.1289557965	 1.5394941255	 0.0761235853	-0.435138
C	 0.0389066906	 0.0277024177	 0.0448249009	 0.010661
C	 1.1920484836	-0.5943053579	-0.8374924494	-0.090043
C	 2.1669307581	-0.2595879228	 0.3418699728	-0.260143
C	 0.9214671527	-0.675514111	 1.1881151057	 0.21799
C	 0.7410393837	-0.301387645	 2.6181957673	 0.03426
O	 1.4344227614	 0.489410787	 3.2107835475	-0.256185
C	 0.7497035616	-2.1385420136	 0.7477014921	-0.143452
C	 0.9451833595	-2.0834047747	-0.5732912827	-0.096349
H	 0.8059114457	 2.0791808202	 0.2410752994	 0.132186
H	-0.5518447534	 1.8832774888	-0.8746351606	 0.121261
H	-0.8254874819	 1.8343559519	 0.8682529386	 0.125817
H	-0.9315846511	-0.4553363183	-0.0977896617	 0.07621
H	 1.3728302536	-0.261075534	-1.8595126818	 0.064064
H	 3.0531741365	-0.8880515643	 0.4448674344	 0.101249
H	 2.4320198479	 0.7939044139	 0.4363357943	 0.113594
H	-0.1250191846	-0.7908850307	 3.1242044089	 0.068528
H	 0.5303014571	-2.9771948864	 1.3932706156	 0.109171
H	 0.9307126756	-2.8752190164	-1.3086890865	 0.106319
