19
gdb 15891	2.35583	2.01275	1.2147	3.7565	73.58	-0.2385	0.0381	0.2766	1045.4831	0.164886	-365.09866	-365.089871	-365.088926	-365.132412	31.653	
C	-0.0912048324	 1.5695339874	 0.0837455703	-0.375792
C	 0.1638757131	 0.0616549589	-0.0102147207	-0.161393
N	 0.7733276669	-0.3601342916	-1.252972412	-0.074191
C	 0.2216831376	-0.6933272406	-2.5807097791	 0.058584
C	-0.3099170194	 0.4720292151	-3.4028712481	-0.401171
C	 1.635226167	-1.2409009244	-2.9441920275	-0.400044
C	 2.0207499587	-0.885829034	-1.4924946253	 0.410389
O	 2.9866671017	-1.0133911796	-0.7843371603	-0.377754
H	 0.8430047276	 2.1256259385	-0.0347282855	 0.132923
H	-0.7899683493	 1.9082952054	-0.686898058	 0.119878
H	-0.5194528227	 1.8201061651	 1.0595758224	 0.118511
H	 0.8509647808	-0.2518102749	 0.7828533867	 0.139758
H	-0.7747343769	-0.4907880197	 0.133524408	 0.105373
H	-0.5347804968	-1.4872192318	-2.5165682793	 0.079777
H	 0.4341191854	 1.2720779468	-3.4694480725	 0.123514
H	-0.5518595451	 0.1379565982	-4.4173391185	 0.123481
H	-1.2228773861	 0.8880374681	-2.9648691065	 0.122408
H	 1.6891946177	-2.3061636787	-3.1756924632	 0.129165
H	 2.1691471622	-0.6718480583	-3.7084361209	 0.126584
