21
gdb 38186	4.10807	1.01536	0.91364	1.6964	82.26	-0.2487	0.0844	0.3331	1339.2037	0.183421	-387.038222	-387.030128	-387.029184	-387.071474	31.424	
C	-0.0695098131	 1.5596726002	-0.0692791901	-0.207156
C	 1.4773991776	 1.5372008056	 0.0600068863	-0.234819
C	 1.3729768014	 0.0765779085	 0.5890999771	 0.057011
C	-0.057814439	 0.0081074892	-0.0228808356	-0.237157
C	 2.4094365103	-0.9378262387	 0.1573883187	-0.03496
C	 3.8664135919	-0.8392113831	 0.7586054396	-0.281503
C	 3.6806203067	-2.254306435	 1.3190209782	 0.037832
O	 2.5354465688	-2.2220488298	 2.180474415	-0.245705
C	 2.3198178477	-2.3523768105	 0.7698224366	 0.01036
H	-0.5429013584	 1.9862680169	 0.8196728983	 0.102703
H	-0.4985293275	 2.0391244394	-0.9523043406	 0.093805
H	 1.9627033125	 1.5704021867	-0.9217182864	 0.092978
H	 1.951060325	 2.2818761705	 0.7046572732	 0.094205
H	 1.3121958272	 0.0761937998	 1.6820254507	 0.083256
H	-0.8363268027	-0.4946607572	 0.5560395027	 0.097546
H	-0.0402747288	-0.4242909806	-1.0295748695	 0.092032
H	 2.4579391772	-0.9951560474	-0.9362602503	 0.067636
H	 4.6357484383	-0.7709804664	-0.0139716203	 0.103967
H	 4.0342928831	-0.0650984397	 1.5117745914	 0.108365
H	 4.4222829577	-3.0198959234	 1.5155722717	 0.102026
H	 1.7457385541	-3.210032605	 0.4371845133	 0.097579
