20
gdb 71742	2.80816	2.17599	1.66517	1.7036	80.03	-0.2341	0.0892	0.3233	892.5919	0.174655	-365.989997	-365.983495	-365.982551	-366.020296	28.324	
C	 0.0241986007	 1.5022612995	-0.0277165911	-0.50208
C	 0.0429499685	-0.0106625023	-0.0216268924	 0.335966
C	 0.535717937	-0.727961398	-1.2722050338	-0.218749
N	 0.4036161103	-2.1361578587	-0.8791325684	-0.136641
C	-0.751523214	-2.1970954978	 0.0454991957	-0.044905
C	 0.6390795791	-2.1777022572	 0.5823189226	-0.044905
C	 0.6841338311	-0.765417031	 1.2011876254	-0.092977
C	-0.6957098813	-0.663400799	 1.915414732	-0.242331
C	-1.2349212658	-0.7921780443	 0.4603672168	-0.092974
H	 1.0302274088	 1.9041210857	-0.1936746007	 0.11832
H	-0.6190211867	 1.8811202158	-0.8301265271	 0.118321
H	-0.3450634479	 1.9192782504	 0.9140897595	 0.119209
H	-0.0816000755	-0.5238089021	-2.1546687706	 0.099287
H	 1.5806317569	-0.5006276819	-1.5129879681	 0.099287
H	-1.4006328132	-3.0621768325	-0.0033619697	 0.088609
H	 1.1734473343	-3.0262812933	 0.9903151225	 0.08861
H	 1.6143654927	-0.4372290558	 1.6660217496	 0.059384
H	-0.9592772821	-1.4511980841	 2.6266325038	 0.092979
H	-0.883355147	 0.3148280212	 2.3661600943	 0.096208
H	-2.243836546	-0.4910312846	 0.1766244898	 0.059384
