17
gdb 64741	2.63581	1.28171	1.11079	6.8009	72.92	-0.2585	0.018	0.2764	1143.5842	0.135386	-418.046904	-418.037784	-418.03684	-418.081127	32.641	
C	-0.0049732251	 1.5886373484	-0.0235451067	-0.456891
C	-0.0017106329	 0.0639014041	-0.0104772867	 0.14142
C	-1.3991954734	-0.539663684	 0.2308807878	-0.395984
C	-2.0359567784	-0.0728056165	 1.4621057835	 0.284943
N	-2.5602067198	 0.307129818	 2.418784298	-0.308889
C	 0.7610370277	-0.6269295134	-1.190845189	-0.21391
N	 1.7002731606	-1.1468055883	-0.1968177177	-0.325986
C	 1.107300302	-0.5618365645	 0.8943317492	 0.408799
O	 1.3648141628	-0.5485519697	 2.0658433165	-0.349195
H	 0.9968468849	 1.9777009675	-0.2271150728	 0.129265
H	-0.6844579678	 1.9748754413	-0.7915087437	 0.12175
H	-0.327832932	 1.9772401108	 0.9459704011	 0.165134
H	-2.0580338094	-0.2817386349	-0.6076564859	 0.153427
H	-1.3379549871	-1.6333063995	 0.2642487489	 0.157281
H	 0.1994873539	-1.4003517323	-1.7261709156	 0.113379
H	 1.2027238822	 0.068754396	-1.9112553608	 0.118843
H	 2.5482196719	-1.6866388831	-0.287564266	 0.256613
