18
gdb 17969	2.71364	2.33426	1.4499	0.9267	68.77	-0.2368	-0.0062	0.2306	884.8423	0.155718	-384.913462	-384.906275	-384.90533	-384.944591	27.962	
C	-0.0291414651	 1.3211898103	-0.0545717231	-0.098393
C	 1.3367673621	 2.0267645808	 0.0514369748	-0.068529
O	 1.7492096268	 2.4592202076	 1.3396348929	-0.257377
C	 1.7165328043	 1.5039420649	 2.3981071846	-0.108083
C	 2.3723600479	 0.1932195684	 2.0537200655	-0.07384
C	 1.7260051711	-0.8168177717	 1.4700811333	-0.051962
C	 0.2604232955	-0.7901811974	 1.0876962501	-0.125684
O	 0.0076168673	-0.0945082075	-0.1286172934	-0.242433
H	-0.692071912	 1.6614098658	 0.7570884035	 0.097347
H	-0.4896130774	 1.6250929612	-1.0004985656	 0.112227
H	 2.0860994171	 1.3737397025	-0.4169030461	 0.103517
H	 1.2945588767	 2.9553478782	-0.527461081	 0.107229
H	 2.2358925761	 1.9925053524	 3.2272940335	 0.110588
H	 0.6791235888	 1.3350443538	 2.7202244543	 0.091461
H	 3.4424394443	 0.1149453347	 2.2307910317	 0.096541
H	 2.2789703497	-1.7100088173	 1.1887620373	 0.097583
H	-0.0950596187	-1.8094759622	 0.9127592056	 0.10989
H	-0.3516969644	-0.3651158444	 1.8968999922	 0.099918
