19
gdb 7851	3.69332	1.29393	1.24622	1.2511	73.12	-0.2467	0.0327	0.2794	1100.9721	0.163911	-365.062772	-365.053724	-365.05278	-365.097052	32.513	
C	-0.3305555628	 1.2986650758	 0.5492514474	-0.407089
C	 0.0756036986	-0.1128657439	 0.192098349	-0.01006
C	 1.460128109	-0.39480433	-0.3674656286	-0.338619
C	 1.0959520956	-0.8564488418	 1.0078379653	 0.156546
O	 1.7543130417	-0.1819573928	 2.0607049435	-0.245171
C	 1.2607354903	-0.3698942814	 3.308072664	 0.397665
C	 2.0894422144	 0.4013504239	 4.3034755112	-0.462149
N	 0.2525245995	-1.1117669107	 3.51666961	-0.519789
H	 0.5127240586	 1.8549070046	 0.9674523318	 0.118952
H	-0.6873356444	 1.8402950771	-0.3331940077	 0.114009
H	-1.1334105034	 1.2978290212	 1.2940135035	 0.124845
H	-0.7290279115	-0.7325122132	-0.1949949078	 0.088672
H	 1.585483401	-1.136756805	-1.1482338179	 0.112807
H	 2.1427830014	 0.4466196857	-0.4285829801	 0.118875
H	 0.9377734075	-1.90853996	 1.2130259325	 0.113722
H	 2.0766884685	 1.4679026822	 4.0587383202	 0.14541
H	 1.7118556496	 0.2630243884	 5.3176831698	 0.12585
H	 3.1323973674	 0.0731714127	 4.2601619316	 0.147015
H	 0.0368630989	-1.144680383	 4.5104842223	 0.218509
