18
gdb 56514	2.56876	1.23651	1.05657	1.3639	76.22	-0.2839	0.0034	0.2874	1190.5332	0.146298	-398.154118	-398.143946	-398.143001	-398.188773	36.719	
C	-0.0893123763	 1.572104041	 0.0810554037	-0.431232
C	-0.0016866814	 0.0325092533	 0.0263528217	 0.079146
C	 0.7440809345	-0.5133833709	 1.2639101357	-0.426401
C	-1.3612382163	-0.5325428879	 0.0149168453	 0.29026
N	-2.4226605532	-0.9869950347	 0.0548782246	-0.338399
C	 0.7041867431	-0.4472226444	-1.2890282217	-0.141094
N	-0.0056902764	 0.0172558528	-2.4760614534	-0.492137
C	 2.1298734135	-0.052358772	-1.2795538687	 0.270395
N	 3.2343041552	 0.2881141485	-1.319606393	-0.326945
H	 0.9160461677	 2.0026751874	 0.0490659014	 0.144532
H	-0.6775762134	 1.9660251983	-0.7505726825	 0.143887
H	-0.5695857201	 1.8880834636	 1.0100008565	 0.144021
H	 0.210834245	-0.2357967915	 2.1759525951	 0.143083
H	 0.8183437805	-1.6041015427	 1.2330376316	 0.137419
H	 1.7527864485	-0.0952341521	 1.3099567479	 0.151538
H	 0.669521921	-1.5419011586	-1.2901190068	 0.147152
H	 0.2228501189	 0.9844703093	-2.6807624215	 0.250375
H	 0.2658272892	-0.5284932993	-3.286708606	 0.254402
