18
gdb 91151	2.54066	1.74728	1.15407	3.6586	78.83	-0.2108	-0.0471	0.1637	1070.6395	0.14869	-401.951522	-401.943736	-401.942791	-401.983855	29.724	
C	 0.0217806847	 1.5567253764	 0.1273923009	-0.328426
N	 0.0118458634	 0.1126269907	 0.1511719505	-0.064904
C	-1.256452916	-0.6017326698	 0.3631945691	-0.17907
C	-0.5112668966	-1.6012945612	 1.2988414102	-0.105081
C	 0.0802542973	-2.8306434079	 0.6632074243	-0.059835
C	 1.3904732563	-2.7148739581	 0.4076159772	-0.177384
C	 1.8960306012	-1.3772734043	 0.8164451569	 0.412496
O	 3.0318717074	-0.9687836581	 0.7616103896	-0.337214
C	 0.660915159	-0.5931562982	 1.2857186367	-0.110257
H	 1.0535108032	 1.9142410182	 0.057898984	 0.13888
H	-0.5185639711	 1.914487847	-0.7555254876	 0.123022
H	-0.4436895849	 2.0131626215	 1.0220957457	 0.089354
H	-2.0024624705	-0.0155955639	 0.9230699656	 0.090679
H	-1.7230836946	-0.9952793949	-0.547105567	 0.104456
H	-1.012266149	-1.8144634019	 2.2447527613	 0.093944
H	-0.5204065687	-3.7082645042	 0.4447946049	 0.11484
H	 2.0324556296	-3.4622522248	-0.0414388875	 0.116494
H	 0.8380645394	 0.0155217635	 2.1798500851	 0.078005
