17
gdb 52367	6.00386	0.544	0.50935	3.9577	77.63	-0.2527	-0.0639	0.1887	2024.005	0.131355	-421.815608	-421.805383	-421.804439	-421.852846	34.448	
O	-0.5617735791	 0.7738628911	 0.8845581364	-0.234769
C	 0.0625648527	 1.0093701026	-0.1167208614	 0.161955
C	 1.3393320781	 1.8190582751	-0.1734759959	-0.287189
C	 1.2511942349	 2.9567648615	-1.2033475988	-0.196122
C	 2.5658590484	 3.7246636523	-1.333784591	-0.305017
C	 2.5067684395	 4.8406296502	-2.3644144386	 0.226601
O	 1.5221210123	 5.0791589608	-3.0288512634	-0.284934
C	 3.7293916519	 5.6155101271	-2.5069676665	 0.24615
C	 4.7511010111	 6.243791788	-2.6083850071	-0.38618
H	-0.2792277233	 0.6276540642	-1.1081414789	 0.073607
H	 1.5590152741	 2.1915821073	 0.8316719109	 0.123115
H	 2.1481921387	 1.130604776	-0.4618213365	 0.119157
H	 0.9696415777	 2.5563120032	-2.1835891614	 0.123387
H	 0.4530917084	 3.6526029944	-0.924229655	 0.13054
H	 2.8695430336	 4.1679302642	-0.3755659535	 0.137964
H	 3.3938522059	 3.0576962072	-1.6129361432	 0.134643
H	 5.6444721951	 6.8107819249	-2.712409396	 0.217094
