20
gdb 99648	2.32062	1.15275	0.87771	2.7726	80.2	-0.2452	0.0306	0.2758	1392.204	0.170515	-399.303984	-399.293865	-399.292921	-399.339624	36.	
C	 0.008429978	 1.4751270497	 0.1221220541	-0.33018
N	-0.1921686771	 0.0564955713	-0.1653948576	-0.275289
C	 0.7233217887	-0.4943546294	-1.1570290635	-0.106691
C	 2.142540313	-0.4579611371	-0.7134765698	 0.263206
N	 3.2267458149	-0.4217704608	-0.3123620652	-0.334492
C	 0.3250181723	-1.9182120226	-1.5133279059	-0.029038
N	-0.6373329188	-2.0643790718	-2.6070334301	-0.336172
C	 0.7235350462	-2.6031665383	-2.7731142207	 0.008221
C	 1.5931456302	-1.9909484218	-3.8457583748	-0.403475
H	 1.0250625845	 1.7284894772	 0.4626438236	 0.123276
H	-0.2034189721	 2.0586317	-0.780302088	 0.130811
H	-0.7021809017	 1.7837254602	 0.8931370823	 0.127575
H	-0.1200872447	-0.4817578331	 0.6925846605	 0.225756
H	 0.6407712548	 0.119497099	-2.0595410329	 0.134357
H	 0.2073807663	-2.5554455838	-0.6370119573	 0.090085
H	-1.3104528593	-2.7972833315	-2.4038958181	 0.23651
H	 0.8369762566	-3.6826449681	-2.6772369172	 0.08861
H	 1.4012542602	-0.9212264426	-3.9562408579	 0.12753
H	 2.6537370053	-2.1333205707	-3.6151641936	 0.135029
H	 1.3891383825	-2.462705536	-4.812532798	 0.12437
