19
gdb 100346	2.40678	1.10934	0.95883	4.8739	68.84	-0.2659	0.0156	0.2816	1297.6733	0.155099	-497.307043	-497.296167	-497.295223	-497.34346	37.805	
C	-0.0727841308	 1.6278293914	 0.1587982797	-0.419202
C	 0.0074493711	 0.1044132173	 0.0667489758	 0.310385
C	 0.741866848	-0.4784994213	 1.2965320287	-0.115893
O	 1.1973181994	-1.8035682695	 1.1160689297	-0.414691
C	-1.3945230077	-0.5127154303	-0.0641006972	-0.115927
O	-2.1337984511	-0.1884265977	 1.0998901564	-0.419315
O	 0.6141978669	-0.2913015297	-1.1884110457	-0.232119
C	 1.9488805502	-0.2610492466	-1.3531013327	 0.172638
O	 2.4638578697	-0.584303625	-2.382673186	-0.283388
H	 0.9242819844	 2.0712538407	 0.2380655261	 0.119803
H	-0.5598953182	 2.0325453548	-0.7325782522	 0.131934
H	-0.6570420834	 1.919560822	 1.0347450686	 0.144999
H	 1.6315568885	 0.1142916675	 1.526771865	 0.116367
H	 0.0585734234	-0.3844185347	 2.1503355306	 0.128004
H	 0.4354411351	-2.387650748	 1.053274971	 0.29244
H	-1.8620374112	-0.1168868555	-0.975721905	 0.111845
H	-1.2940161133	-1.6015370298	-0.1972044693	 0.090603
H	-3.0363647023	-0.4979146399	 0.9847330645	 0.299019
H	 2.5063965513	 0.0954672644	-0.4725462581	 0.082499
