17
gdb 17414	4.21495	1.58618	1.5308	2.3146	68.93	-0.222	0.0765	0.2985	895.1891	0.142369	-363.78521	-363.77801	-363.777066	-363.816399	28.308	
O	-0.0495708204	 1.3483160896	-0.1659788011	-0.420341
C	-0.0086465425	-0.043972442	-0.0470253294	 0.044517
C	-0.4777358115	-0.6892436966	 1.2426686464	-0.412485
C	-1.3286618701	-0.7300777837	 0.0004039529	 0.404476
C	-2.7303065029	-0.0970413822	-0.1695220943	-0.300683
C	-3.1402544752	-1.3727869755	-0.9257797293	-0.03536
N	-2.2290865353	-1.4885441081	-2.0919039067	-0.331126
C	-1.7845248901	-1.963865195	-0.7531108305	-0.165705
H	 0.673149874	 1.7126239964	 0.355803105	 0.286281
H	 0.7979388224	-0.5325142002	-0.5947917943	 0.083697
H	 0.0084846734	-1.601912981	 1.5748415261	 0.107838
H	-0.7942352483	-0.0231955146	 2.0397649175	 0.111828
H	-3.2549899984	 0.0252718347	 0.7814222866	 0.10117
H	-2.7759973006	 0.829275062	-0.745584523	 0.121879
H	-4.1112634155	-1.8518607239	-0.9314954702	 0.091564
H	-2.5241005963	-2.3162252676	-2.6115738526	 0.224032
H	-1.4781372827	-2.9910360224	-0.5943816732	 0.088416
