14
gdb 3747	7.04007	2.15833	1.68672	2.7034	59.61	-0.2487	0.016	0.2646	737.7455	0.114983	-320.794248	-320.787391	-320.786447	-320.825326	23.582	
C	-0.1429611953	 1.3958147319	 0.0643520588	-0.31989
N	 0.0222379573	-0.0387362787	-0.0007572299	 0.061548
C	 0.4069712676	-0.8154296158	-1.0320416411	 0.002965
N	 0.4304695167	-2.0845721765	-0.6753872129	-0.313893
C	 0.0378945681	-2.0388078139	 0.6332590062	 0.352851
C	-0.0927555867	-3.2528795878	 1.489935037	-0.479925
N	-0.2201118938	-0.8171573117	 1.0837824107	-0.305326
H	 0.1018704512	 1.822433683	-0.9101399356	 0.142121
H	-1.1757150341	 1.6466763281	 0.3197704632	 0.154129
H	 0.5215757367	 1.8193105953	 0.8218244524	 0.15411
H	 0.6544663479	-0.4152932437	-2.0045158152	 0.13691
H	 0.8633484219	-3.7808628089	 1.5612148375	 0.138499
H	-0.4192799018	-2.9729377527	 2.4928313697	 0.137391
H	-0.8174531458	-3.9525103385	 1.0618114592	 0.138511
