17
gdb 108299	2.87777	1.35436	1.06619	3.03	70.55	-0.2419	0.0067	0.2486	1129.2538	0.136214	-455.094591	-455.086321	-455.085376	-455.127853	30.976	
O	-0.0291666972	 1.5384714305	-0.022975082	-0.416468
C	 0.0695365291	 0.1431073897	 0.2293502055	-0.165569
C	-1.2550678792	-0.5474872496	 0.0080376762	 0.300097
C	-2.3737518686	-0.4799974928	 1.0694909405	-0.116163
O	-2.6006612985	-1.9066881525	 0.9861285854	-0.282748
C	-1.5409532238	-2.081875821	 0.0219099232	-0.054491
C	-2.0631976524	-1.903968369	-1.4034874011	 0.398713
N	-2.6001937395	-2.6999772852	-2.2199006251	-0.542575
N	-1.731849	-0.5304516362	-1.3905717208	-0.399516
H	-0.1102823998	 1.6482985396	-0.9763767428	 0.288286
H	 0.8382394129	-0.326867204	-0.4006190614	 0.101684
H	 0.3792403741	 0.0392566167	 1.2741552607	 0.11845
H	-2.030780297	-0.1935475139	 2.0709952628	 0.11303
H	-3.260858692	 0.1066553932	 0.8054427748	 0.105565
H	-0.8507645822	-2.8884638626	 0.270078109	 0.100733
H	-2.909814917	-2.225376855	-3.0707394627	 0.213307
H	-2.3343841087	 0.1905873022	-1.7701212824	 0.237665
