20
gdb 99484	2.52182	1.03736	0.7686	2.0154	80.29	-0.2651	-0.0326	0.2325	1522.0366	0.167963	-403.194736	-403.184013	-403.183069	-403.231921	37.101	
C	 0.1049169391	 1.5744488698	 0.2307615724	-0.403715
C	 0.1778378005	 0.0477323648	 0.1942298718	-0.172479
C	 0.6098764649	-0.5114049606	-1.1782235874	-0.249064
C	 1.9644757462	-0.0927181142	-1.5380869081	 0.281698
N	 3.0406904732	 0.2373945285	-1.8025223887	-0.335665
C	 0.4239091761	-2.0565274445	-1.2729159296	 0.380843
O	-0.3451443602	-2.6067296943	-0.5256338793	-0.288842
C	 1.1929947502	-2.7864199097	-2.3557088872	-0.289608
C	 0.7883954289	-4.2509846589	-2.5030042185	-0.384866
H	 1.0757699402	 2.0299462898	 0.0120754192	 0.141261
H	-0.6171608326	 1.9565054566	-0.4995497421	 0.117858
H	-0.2105345497	 1.9173631578	 1.2201427948	 0.125407
H	 0.8751255261	-0.319339561	 0.954678411	 0.12122
H	-0.7926963021	-0.3981324333	 0.423286145	 0.133233
H	-0.061938429	-0.1042781578	-1.9507570934	 0.14917
H	 1.0691348849	-2.2328049203	-3.2965942053	 0.130097
H	 2.2611041832	-2.6885205566	-2.1195270156	 0.156412
H	 0.9316068139	-4.7901136362	-1.5636690673	 0.137934
H	-0.2667441285	-4.3425134791	-2.7741553985	 0.130388
H	 1.3878302846	-4.7361838706	-3.2775722032	 0.118719
