19
gdb 110673	3.11942	1.50958	1.34432	2.4699	74.33	-0.2226	0.0806	0.3032	1029.6514	0.160371	-422.980953	-422.97335	-422.972406	-423.013188	29.52	
C	-0.0294015567	 1.3653158642	 0.1661936135	-0.240792
O	 0.0173760156	 0.0185649307	-0.2507069372	-0.242496
C	-1.2037047672	-0.6556837949	-0.1020446892	 0.179491
C	-1.2861134645	-2.036376968	-0.7195203242	-0.173233
C	-0.7091559029	-3.0792068566	 0.2184469288	 0.12997
O	 0.262872389	-2.7192435562	 1.1668556935	-0.266439
C	-0.3297950133	-1.737147771	 2.0253485371	-0.069087
C	-1.5893153287	-1.2723499327	 1.2921041344	-0.152679
C	-2.0551840007	-2.5392547124	 0.5263241551	-0.127345
H	 0.9522876686	 1.8018294485	-0.0318760911	 0.129857
H	-0.7912801956	 1.9351717233	-0.3890314429	 0.104214
H	-0.2464896854	 1.4624926205	 1.240869975	 0.103565
H	-2.0302003205	-0.0265698991	-0.4664126751	 0.066636
H	-1.4720424365	-2.2493007479	-1.7663406975	 0.084636
H	-0.5734463985	-4.0803917932	-0.1726266911	 0.105202
H	-0.5700850481	-2.1833607608	 3.0018868456	 0.089216
H	 0.3935293445	-0.9290276569	 2.1698927152	 0.113165
H	-2.3035984825	-0.7252068017	 1.905730886	 0.073206
H	-2.9901856167	-3.0739231457	 0.6150646139	 0.092914
