13
gdb 28985	3.11452	1.59133	1.05336	3.8719	76.62	-0.2425	-0.0754	0.1671	1033.9538	0.091667	-411.85872	-411.851282	-411.850338	-411.890695	27.468	
N	-0.0379118083	 1.3544646884	 0.0800656484	-0.581213
C	 0.0018577635	 0.0023453656	 0.0267096581	 0.387729
N	-1.1664303289	-0.655993694	 0.0198324247	-0.31304
C	-1.108791749	-1.9832300706	-0.0011436626	-0.001662
C	 0.0954732921	-2.6887397343	-0.0194409219	-0.055218
N	 1.263365732	-2.0516074156	-0.0223177865	-0.292772
C	 1.2286987643	-0.7206497327	-0.0003123247	 0.147083
C	 2.4602085701	 0.010062993	-0.0093647775	 0.246946
N	 3.3976078396	 0.6909992113	-0.0191957012	-0.343709
H	 0.7978843501	 1.8988929284	-0.0490814495	 0.28389
H	-0.9334858418	 1.8008842315	-0.022644522	 0.272322
H	-2.0598913358	-2.5100394285	-0.0062167528	 0.127048
H	 0.1176612321	-3.7731096225	-0.0360917026	 0.122595
