25
gdb 60558	2.26794	1.19403	0.8799	0.1634	92.86	-0.2619	0.0888	0.3507	1447.2403	0.228438	-352.336181	-352.326034	-352.32509	-352.371201	38.899	
C	 2.3814679163	 0.6531009058	 0.7437598108	-0.384785
C	 1.281306735	-0.3795578273	 0.4419430008	-0.022887
C	-0.0765541929	 0.1467641671	 0.8821685206	 0.053198
C	-1.1790095843	-0.7726500263	 1.3387893605	-0.274695
C	-0.481487596	 0.1234050292	 2.334242668	-0.280882
C	 1.2811221499	-0.7340133689	-1.03870372	 0.03164
C	 2.3600641385	-1.5994114201	-1.6476294156	-0.313805
C	 0.9323150255	-2.0918043946	-1.6102746103	-0.000018
C	 0.5534535001	-3.2925504481	-0.7713278466	-0.40798
H	 3.3678292909	 0.2741214531	 0.4596166004	 0.110967
H	 2.2080962064	 1.5794795262	 0.1834161068	 0.108118
H	 2.4013946539	 0.9075700398	 1.8079576309	 0.11008
H	 1.4992681957	-1.2829634033	 1.0271726799	 0.060998
H	-0.4002211251	 1.023294692	 0.3232253155	 0.074544
H	-2.2002941536	-0.5377260037	 1.0589736519	 0.106471
H	-0.9678301783	-1.835285121	 1.3865242168	 0.110067
H	 0.1978322985	-0.3437629095	 3.0406967538	 0.106881
H	-1.0240394006	 0.9706947228	 2.7392078998	 0.107214
H	 0.9672126418	 0.1035832939	-1.6604025916	 0.073012
H	 2.8029475462	-1.3094855368	-2.5945494666	 0.104034
H	 3.057902633	-2.0738734239	-0.9626925704	 0.103583
H	 0.4054512262	-2.0523010503	-2.5609211082	 0.078225
H	 1.1112594957	-3.3292215554	 0.1690094897	 0.113631
H	-0.514382693	-3.2929679827	-0.5269695671	 0.119288
H	 0.7704132503	-4.2214294877	-1.3112300498	 0.113102
