16
gdb 21236	3.28627	1.89944	1.22226	1.551	68.07	-0.2013	0.0257	0.227	969.0459	0.131281	-379.932583	-379.924435	-379.923491	-379.965917	28.561	
C	 0.005677426	 1.4273882393	-0.0376295757	-0.249144
O	 0.0314708369	 0.0134325628	-0.0251286724	-0.271232
C	-1.1856910481	-0.5911921796	 0.0056066744	 0.213038
C	-1.3529107604	-1.9660678712	 0.0174279119	 0.252275
C	-0.3499121681	-3.0687044027	 0.0026037028	-0.5128
N	-2.7028373217	-2.1473116935	 0.0487027349	-0.245354
N	-3.411412851	-1.0073919027	 0.0577564486	-0.232498
C	-2.488963341	-0.044302258	 0.0315030927	-0.123123
H	 1.0451861493	 1.7588795285	-0.0633158746	 0.131629
H	-0.5185537685	 1.8121093077	-0.9230071749	 0.121361
H	-0.479539811	 1.8285532188	 0.8625622603	 0.121379
H	-0.4016926146	-3.6880359981	 0.9060947192	 0.132616
H	-0.4773439773	-3.7316394892	-0.861416891	 0.131788
H	 0.6523620381	-2.638481734	-0.0504343156	 0.154395
H	-3.19532957	-3.0242529145	 0.0641554405	 0.268584
H	-2.7936057887	 0.9905025462	 0.0319299589	 0.107086
