22
gdb 65572	3.1704	1.05086	0.96757	2.5543	82.79	-0.241	0.0782	0.3191	1341.429	0.194206	-404.306113	-404.297131	-404.296187	-404.339955	34.905	
O	-0.178454116	 1.5553521009	-0.0356262065	-0.486747
C	 0.0464611959	 0.167100983	-0.0066656535	 0.435591
C	-1.2985977324	-0.5594632701	 0.096239508	-0.204237
N	-2.1934039222	-0.0752962894	-0.9539506993	-0.084701
C	-2.3710415981	-0.9100714725	-2.1390383359	-0.21623
C	-3.4583977327	-0.7764186353	-1.1314888731	-0.224828
C	 1.0169399099	-0.4146688543	-1.0888229315	-0.275967
C	 1.7430404522	-1.2019982529	 0.0340920645	-0.21371
C	 1.059540975	-0.2766438067	 1.077412222	-0.26744
H	-0.9938569624	 1.6762126889	-0.5446973551	 0.278447
H	-1.1631839195	-1.6538956529	 0.0672165971	 0.083937
H	-1.7527891288	-0.3028682459	 1.0609435353	 0.108973
H	-2.4283482315	-0.3839370568	-3.0873246853	 0.122089
H	-1.8396160027	-1.8591876026	-2.1746763522	 0.1156
H	-3.653930619	-1.6364370623	-0.4933858913	 0.113837
H	-4.3236229697	-0.1506071107	-1.3307677548	 0.121285
H	 0.5906588219	-0.978923074	-1.9222233873	 0.087441
H	 1.6356948621	 0.3932446781	-1.4866228815	 0.1077
H	 1.4004841029	-2.2378182355	 0.1085885231	 0.097134
H	 2.8344994506	-1.2046658022	 0.0133817216	 0.099498
H	 1.691597566	 0.5708273735	 1.3535114394	 0.113391
H	 0.6569273084	-0.7297843102	 1.9883595463	 0.088938
