19
gdb 87742	4.75178	0.85498	0.81167	4.4217	81.82	-0.2545	0.0293	0.2838	1440.1009	0.159518	-382.05591	-382.047119	-382.046175	-382.089693	32.953	
C	 0.0452595125	 1.4935161538	-0.1988273739	-0.392804
C	 0.04482646	 0.0004785552	 0.0150167055	-0.073662
N	 1.3603074698	-0.6761977354	-0.0254047566	-0.385285
C	 0.6130229492	-0.6497450875	 1.2210996204	 0.355975
C	 1.095049927	 0.0001752678	 2.5221616762	-0.301445
C	 0.1261211372	-0.9644627945	 3.2882376492	-0.139424
C	 0.004481864	-1.8297968048	 1.9875742391	-0.323737
C	 0.621056624	-1.6150248294	 4.4878522301	 0.270143
N	 1.0286126018	-2.1413469952	 5.433563177	-0.326304
H	 0.9153202843	 1.9527504351	 0.2776601985	 0.129948
H	 0.0861237578	 1.730988183	-1.2669836537	 0.126655
H	-0.861338196	 1.9500249931	 0.2136254926	 0.115673
H	-0.7900091084	-0.5279964307	-0.4461223689	 0.085241
H	 1.2902469937	-1.5895154459	-0.4683952024	 0.23138
H	 2.1440729357	-0.224258087	 2.728767688	 0.133671
H	 0.9197227972	 1.0683056001	 2.661624145	 0.119915
H	-0.8205573	-0.4680945417	 3.5147645748	 0.126572
H	-0.9994551784	-2.1628204342	 1.7150605289	 0.118814
H	 0.6744207787	-2.6938973917	 2.0222091801	 0.128674
