20
gdb 119225	2.05149	1.12052	0.81879	2.5328	77.12	-0.2539	-0.0369	0.2169	1443.5721	0.168837	-440.27025	-440.260038	-440.259094	-440.305946	36.332	
C	 0.0882092854	 1.4191290139	-0.111462786	-0.405007
C	 0.1777667978	-0.0742161044	 0.0785846562	-0.023859
N	 1.4970574804	-0.6863803981	 0.1271740877	-0.363738
C	 0.6739665315	-0.7306659695	 1.3520778941	 0.213217
C	 1.1559675772	 0.0344109861	 2.5664797327	-0.30916
C	 2.4128910066	-0.5924889661	 3.1845046621	-0.059927
O	 2.848575047	 0.0943325099	 4.3451977675	-0.415712
C	 0.0130647661	-2.044264639	 1.6218477827	 0.100548
O	-0.0785797032	-2.9279081343	 0.8008578297	-0.276023
H	 0.9339211117	 1.9352367414	 0.346885907	 0.131048
H	 0.0995668124	 1.6533686642	-1.1813879571	 0.131106
H	-0.8416795059	 1.8160179336	 0.3087674641	 0.123866
H	-0.5969395935	-0.6451944378	-0.431506903	 0.105793
H	 1.4555115437	-1.6133325989	-0.2989817362	 0.246436
H	 1.3732668648	 1.0720487485	 2.2960470054	 0.097747
H	 0.362377545	 0.0637742547	 3.3237618791	 0.109556
H	 2.2024210246	-1.6178438814	 3.5109872428	 0.11156
H	 3.2009349006	-0.6506543648	 2.4204176576	 0.112917
H	 3.1761869836	 0.9570803322	 4.0720274457	 0.282899
H	-0.4069972456	-2.1641569204	 2.6439061278	 0.086732
