15
gdb 50238	3.00333	1.76396	1.4327	3.7677	63.96	-0.2413	-0.0171	0.2243	901.835	0.111501	-457.686332	-457.679387	-457.678443	-457.717979	26.582	
O	-0.8305392183	 1.0253891005	 0.2508016955	-0.262648
C	 0.2599185035	 0.6635659062	-0.1095595245	 0.145923
C	 1.4612251457	 1.5879930899	-0.126170337	 0.031521
O	 2.5984644802	 1.0328283452	-0.8339595778	-0.299963
C	 2.624303147	 2.1430934068	-1.7447150472	 0.089989
C	 1.7668284298	 1.9821924793	-3.0345523134	-0.002252
O	 0.5839046202	 1.2659945067	-2.6718285128	-0.222287
C	 0.6237944217	 2.660519981	-2.3764694771	 0.02106
C	 1.419650558	 2.8294343776	-1.0608997343	-0.14035
H	 0.4833333955	-0.3751583865	-0.4296482397	 0.09813
H	 1.7304368036	 1.8408476146	 0.9081790201	 0.110006
H	 3.60770127	 2.6009004864	-1.8658458884	 0.093604
H	 2.0766352391	 1.9251366397	-4.0719003325	 0.11508
H	-0.1718575726	 3.277388179	-2.7754340667	 0.122122
H	 1.4720794664	 3.8231873637	-0.6243294043	 0.100066
