18
gdb 56643	2.35389	1.33468	0.99168	3.231	71.95	-0.2703	0.0111	0.2814	1208.1261	0.145116	-439.072856	-439.062998	-439.062054	-439.107402	36.044	
C	-0.2546842472	 1.5693587091	 0.2452421669	-0.454561
C	-0.0067422486	 0.0943346806	-0.0098476886	 0.263411
C	 1.4051780629	-0.3518073466	-0.3703804803	-0.386473
C	 0.8166884995	-0.6794896556	 0.9827781037	 0.064132
O	 1.2334241697	 0.0154847364	 2.1195987448	-0.423897
C	-1.1851899479	-0.5815522582	-0.7105727177	-0.072794
O	-1.4414966425	-0.0232889086	-1.988287227	-0.403069
C	-1.0254805808	-2.0492866511	-0.8193797618	 0.269237
N	-0.8820528302	-3.1908362239	-0.9291875531	-0.334919
H	 0.6010356413	 2.0217530435	 0.7467293823	 0.134624
H	-0.4430594249	 2.0955213994	-0.6941540946	 0.127142
H	-1.1286840384	 1.7088436927	 0.8915205259	 0.12298
H	 1.5479727672	-1.1704870909	-1.0689151332	 0.12937
H	 2.1612495029	 0.4247497688	-0.4094031738	 0.121438
H	 0.5472825356	-1.7201945992	 1.1570516549	 0.113511
H	 2.0951893406	-0.3283443832	 2.3770025239	 0.293425
H	-2.097349805	-0.3946246711	-0.1312518909	 0.141709
H	-0.6277525842	-0.090579292	-2.5029133814	 0.294734
