21
gdb 119801	5.18877	0.77713	0.73183	1.4981	85.16	-0.2182	0.0249	0.243	1588.0913	0.18331	-387.085726	-387.076837	-387.075892	-387.119935	33.679	
O	-0.2068435385	 1.4737977445	-0.1006218193	-0.418683
C	-0.0267146174	 0.0672057822	-0.1628597425	-0.066129
C	-1.3641092841	-0.5837995606	 0.1978807357	-0.292306
C	-1.3300571732	-2.0824110873	 0.157413608	 0.307359
C	-1.5456393317	-2.9153523321	 1.1830153489	-0.189821
C	-1.543805778	-4.346724847	 0.7692813089	-0.06158
C	-2.6381990471	-4.7312048574	-0.2087292129	-0.275671
C	-1.2855430171	-4.3199661842	-0.7294451936	-0.03677
C	-1.0712002011	-2.8612415903	-1.1276718647	-0.318524
H	 0.6307922238	 1.8940149863	-0.3156024094	 0.285215
H	 0.2872375724	-0.2481847366	-1.170371479	 0.086555
H	 0.7474956916	-0.2721631624	 0.543300398	 0.08935
H	-1.6558893723	-0.2391038453	 1.1954259802	 0.108849
H	-2.117049353	-0.1975200384	-0.5029425942	 0.109227
H	-1.7534425589	-2.5980839294	 2.1997052573	 0.086055
H	-1.1292509275	-5.1076747787	 1.4215561422	 0.08214
H	-2.8933143045	-5.7830759318	-0.2902903073	 0.105965
H	-3.4773154196	-4.0511802631	-0.3198119947	 0.108339
H	-0.6752164883	-5.0817339695	-1.1998179424	 0.081822
H	-1.7410238649	-2.5408309774	-1.9373817151	 0.105988
H	-0.0493323206	-2.6976871614	-1.4966022342	 0.102621
