19
gdb 58375	2.17753	1.19748	0.93194	4.2149	82.11	-0.2312	0.0217	0.2529	1321.3967	0.15669	-382.032605	-382.022246	-382.021302	-382.068298	36.923	
C	 1.015873272	-0.2895557231	-0.9177258667	-0.331925
N	 0.0197908721	 0.028176736	 0.0985976679	-0.035742
C	-0.0255172981	 1.4577416638	 0.3786703162	-0.325709
C	-1.3087000761	-0.53260213	-0.1425848347	-0.168368
C	-1.8900610043	-0.1873070191	-1.4523014496	 0.3391
C	-2.3203573302	 0.1037259507	-2.5369242299	-0.453354
C	-1.3226034687	-2.0742973974	 0.0407283273	-0.364102
C	-0.8629811791	-2.4797983702	 1.3665506039	 0.272436
N	-0.5216212345	-2.8149091393	 2.4180061911	-0.307439
H	 1.987648811	 0.0820608654	-0.5812566133	 0.129041
H	 1.1082040957	-1.3712670066	-1.0454283069	 0.121176
H	 0.7937484632	 0.157222312	-1.9012382899	 0.111
H	-0.3464861835	 2.0633870012	-0.4868305414	 0.108228
H	-0.7117948215	 1.6512775063	 1.2087386302	 0.124708
H	 0.9706559667	 1.7946539758	 0.6791958026	 0.126579
H	-1.9597410906	-0.1190791652	 0.6367311495	 0.126842
H	-2.7150706577	 0.3674683149	-3.4874687928	 0.204172
H	-2.3432140731	-2.4387530921	-0.1119692297	 0.163193
H	-0.7024248833	-2.555003363	-0.7211369338	 0.160163
