19
gdb 86021	2.95995	1.19807	1.15357	1.4796	83.92	-0.2448	0.0064	0.2512	1196.7464	0.156394	-385.865984	-385.856664	-385.855719	-385.899855	35.439	
C	 0.2661677545	 1.6211210732	-0.0806269779	-0.392217
C	 0.0089571238	 0.1248621034	 0.0819622033	 0.079543
O	 0.5437042158	-0.5738397721	-1.0494177124	-0.297557
C	 1.3065874108	-1.7184614493	-0.6335013738	 0.149002
C	 2.6586944744	-1.6918559767	-1.3614663325	-0.41274
C	 1.4206309803	-1.545749729	 0.8717502014	-0.119844
C	 0.68629501	-0.5152594461	 1.2654010008	-0.097174
C	 0.5797714623	-2.9610427157	-0.9542935711	 0.355649
C	 0.0004409935	-3.9835187408	-1.2074259392	-0.507392
H	 1.3405412887	 1.8251889839	-0.1002399007	 0.120066
H	-0.1736935525	 1.9777454712	-1.0160838451	 0.12904
H	-0.1845064816	 2.1803104374	 0.7459949146	 0.112219
H	-1.0804363019	-0.0443204143	 0.1290500915	 0.086204
H	 3.1955947746	-0.7772108926	-1.0977133528	 0.1193
H	 3.2635591359	-2.5597223675	-1.0839630268	 0.121785
H	 2.4966252982	-1.7121718234	-2.4419153584	 0.135769
H	 2.0073327657	-2.2175998662	 1.4841140407	 0.112813
H	 0.5552747314	-0.1611287309	 2.2804140034	 0.108803
H	-0.5208175341	-4.8807958845	-1.433680475	 0.196733
