15
gdb 19811	4.21406	2.04456	1.83102	3.776	63.78	-0.2359	0.0257	0.2616	752.2504	0.120725	-362.637346	-362.631275	-362.630331	-362.66736	24.455	
O	-0.0517751011	 0.0072884545	 0.0948922669	-0.356101
C	-0.0090176762	 1.2052920018	 0.035274617	 0.398126
N	-1.0057189549	 2.1729923472	 0.0049174681	-0.320607
C	-0.0929916401	 3.3183525982	 0.0261543458	 0.008383
C	 0.4165684866	 3.8662825003	 1.3903007707	-0.061367
C	 0.5305895728	 2.7826435167	 2.4233822868	-0.304057
C	 1.5787190534	 2.8669580387	 1.3538481919	-0.04613
C	 1.082757634	 2.3099361922	-0.0093602806	-0.191992
H	-1.9821809268	 2.0901564919	 0.2527234427	 0.246903
H	-0.2499038105	 4.0574223032	-0.7590801981	 0.0913
H	 0.4278512825	 4.9171941369	 1.6513190501	 0.090893
H	 0.8535502316	 3.1259064661	 3.4008501185	 0.118261
H	-0.1763915745	 1.9589962402	 2.4575370304	 0.128936
H	 2.6233467201	 3.0278218614	 1.5853509378	 0.097939
H	 1.8039683229	 2.2906169007	-0.822990318	 0.099512
