20
gdb 71713	2.28281	2.05177	1.74897	1.774	81.03	-0.2227	0.0816	0.3043	940.2279	0.171227	-365.945478	-365.937775	-365.936831	-365.976976	31.386	
C	 0.0038184853	 1.4980458849	-0.0049986997	-0.513351
C	 0.0127424332	-0.0069470941	-0.074014563	 0.278592
C	 0.5741980592	-0.8134992164	-1.277416722	-0.295537
C	-0.3035285657	-1.9699468939	-0.7408135598	-0.127921
C	 0.1386611325	-2.2210051012	 0.7120257329	-0.039528
C	 0.3681560567	-0.8299225165	 1.1847173417	-0.089205
N	-0.986088076	-1.4590306269	 1.3555803906	-0.216589
C	-1.2669512411	-0.9328868048	-0.0643220039	 0.359347
C	-2.6571866431	-0.5734711416	-0.4752346968	-0.528443
H	 1.0230538996	 1.8937961723	 0.0812149803	 0.119489
H	-0.4455423962	 1.9372289047	-0.902053261	 0.116132
H	-0.5615809433	 1.8523842711	 0.864116521	 0.125132
H	 0.1990073774	-0.4253036344	-2.2309528788	 0.094924
H	 1.6561271842	-0.9677524218	-1.3401469475	 0.09167
H	-0.633013249	-2.8071785778	-1.3534527745	 0.069638
H	 0.557654131	-3.1112576468	 1.1653646919	 0.090939
H	 0.9782586003	-0.5484933316	 2.0355483038	 0.086758
H	-3.0555352959	 0.2281397189	 0.1565441196	 0.128337
H	-2.6844660738	-0.2350095363	-1.5170456185	 0.119753
H	-3.3230655653	-1.4380947577	-0.3791320563	 0.129862
