14
gdb 42282	3.71514	1.18503	1.01114	3.3481	68.96	-0.2578	-0.0708	0.187	1132.7669	0.10004	-436.666578	-436.65846	-436.657516	-436.700513	28.512	
O	 0.1329934731	-0.1222196194	 0.2074144932	-0.26809
C	 0.0355517652	 1.0768166872	 0.1078735837	 0.228564
C	 1.1877393319	 1.9568735642	 0.0045849277	 0.254457
C	 2.1213820014	 2.7123913628	-0.0773332669	-0.415969
C	-1.3046693061	 1.8084740386	 0.0306301306	-0.029229
C	-1.6716767014	 2.2086424438	-1.4394210083	-0.200359
N	-2.8131055185	 1.3454928162	-1.7712817394	-0.252816
C	-3.0929444303	 0.7128000513	-0.7124372136	 0.125431
O	-2.3630990606	 0.9218123591	 0.4140989774	-0.200481
H	 2.9601934071	 3.3622443328	-0.148345757	 0.222638
H	-1.2926818137	 2.6635507459	 0.7118963435	 0.120389
H	-1.9608797593	 3.2610548463	-1.5186190359	 0.12989
H	-0.8468773061	 2.0397054939	-2.1380625333	 0.134141
H	-3.8961670626	-0.0049839128	-0.5955215617	 0.151434
