19
gdb 2679	13.10732	0.78048	0.75374	0.0934	77.59	-0.2386	0.0602	0.2988	1568.0043	0.169978	-273.773408	-273.764081	-273.763137	-273.809351	31.679	
C	-0.0342479709	 1.5807245375	 0.0358848519	-0.381186
C	-0.0061599157	 0.051317267	 0.0140529656	-0.151196
C	 0.7075556585	-0.5063519094	-1.2344911943	-0.332029
C	 0.7452689924	-1.9643575102	-1.2743697649	 0.008301
C	 0.7582063013	-3.1692788562	-1.2749853004	 0.118614
C	 0.7941977143	-4.6280787424	-1.3117769385	-0.31237
C	 1.5022971352	-5.1829740575	-2.5613869214	-0.361951
H	 0.9793976273	 1.99717008	 0.0328306556	 0.114731
H	-0.5582985461	 1.9813863751	-0.8391910085	 0.114729
H	-0.5444043596	 1.9546883133	 0.9287006035	 0.113357
H	 0.4983212701	-0.3299182394	 0.9089605372	 0.107094
H	-1.0270769805	-0.3455855163	 0.0439774031	 0.10709
H	 0.2072963705	-0.1244644221	-2.135238643	 0.121041
H	 1.7312690288	-0.1087108077	-1.2710968757	 0.12104
H	 1.2965017343	-5.0050893363	-0.4112364484	 0.124536
H	-0.2300604224	-5.0211364385	-1.2691302015	 0.124537
H	 0.9969067706	-4.8519864677	-3.4727736704	 0.126205
H	 2.5381349573	-4.8357137618	-2.6066516192	 0.126208
H	 1.5052380248	-6.2771551176	-2.5460636706	 0.111248
