29
gdb 122958	5.0111	0.45602	0.43536	0.0448	101.26	-0.2916	0.0855	0.3771	2701.026	0.273149	-354.781619	-354.769076	-354.768131	-354.820877	44.716	
C	-0.0303933465	 1.6616125702	-0.1139594292	-0.378919
C	 0.0063953713	 0.1345363864	-0.0091536544	-0.16384
C	-1.3867645858	-0.5036450693	 0.0094188073	-0.155706
C	-1.3598679863	-2.033471878	 0.1051540163	-0.192472
C	-2.7608138766	-2.6573849984	 0.1275121878	-0.178971
C	-2.8019937738	-4.1974517409	 0.0957661563	 0.044903
C	-2.1657748185	-4.81435128	 1.3503274697	-0.389426
C	-4.2508199203	-4.6821759825	-0.108986254	-0.164652
C	-4.4030071847	-6.1835788662	-0.3740043429	-0.391364
H	 0.9778841142	 2.0876533623	-0.1233534412	 0.109305
H	-0.535880475	 1.9832551174	-1.0314907482	 0.112282
H	-0.5705400462	 2.1036455705	 0.7308727227	 0.112266
H	 0.5811121917	-0.2767507833	-0.8497815408	 0.092582
H	 0.5501964985	-0.1576826434	 0.8991324452	 0.092635
H	-1.9604433803	-0.0961209357	 0.8539139065	 0.089815
H	-1.9339071473	-0.2057398147	-0.8962305418	 0.08934
H	-0.7957998537	-2.4389516412	-0.7469660132	 0.089077
H	-0.8010843309	-2.3227767495	 1.0039608298	 0.094876
H	-3.3022946741	-2.3029208891	 1.0169867215	 0.087217
H	-3.3231224865	-2.2773452254	-0.7365245583	 0.085706
H	-2.217390755	-4.5266950029	-0.7774453118	 0.064225
H	-2.1687456251	-5.9073090822	 1.3107088705	 0.112078
H	-1.1259274201	-4.4990755471	 1.473993897	 0.113757
H	-2.7145731865	-4.5125493183	 2.251304502	 0.108115
H	-4.8477599581	-4.4029593883	 0.7707445681	 0.089716
H	-4.6841385354	-4.130926939	-0.9535315259	 0.088879
H	-5.4466871028	-6.438470625	-0.5841344025	 0.11013
H	-3.8059873478	-6.494265899	-1.2391748521	 0.111422
H	-4.0864659486	-6.7886227273	 0.4809897756	 0.117025
