13
gdb 5683	5.43074	2.33211	1.6315	3.4998	64.6	-0.1954	0.0257	0.2211	721.188	0.099662	-357.687729	-357.68206	-357.681116	-357.717151	22.588	
N	-0.0159782006	 1.3386620553	 0.0098084365	-0.409085
C	 1.2907226946	 1.8098867798	-0.0002229395	-0.081052
C	 2.1398518473	 0.7468792788	-0.0144915038	-0.140643
N	 1.3463515725	-0.3959185454	-0.0131881421	 0.004079
C	 1.3543333954	-1.7840166526	-0.0210075575	-0.171324
C	 0.022745288	-2.1334431665	-0.0100827046	-0.084221
N	-0.8223546445	-1.0384013771	 0.0043877328	-0.40524
C	 0.0204343331	-0.0318647019	 0.001790954	 0.495333
H	-0.8526653273	 1.891990452	 0.021390116	 0.278173
H	 1.5092082852	 2.8637320833	 0.0035713861	 0.143333
H	 3.2148087447	 0.7172733878	-0.025164816	 0.142943
H	 2.2623272793	-2.360528269	-0.0330871666	 0.123753
H	-0.3797567578	-3.1356104145	-0.0118271453	 0.103953
