15
gdb 50976	1.92455	1.09115	0.7211	3.4396	69.91	-0.2638	-0.0418	0.222	1467.6901	0.107744	-457.747178	-457.737321	-457.736376	-457.783995	32.762	
O	-0.0096589785	-0.0955749497	 0.1102000432	-0.230336
C	-0.0121826918	 1.0962846576	-0.0551317572	 0.143056
C	 1.2500060449	 1.9420072	-0.0624864981	-0.286435
C	 1.2912479622	 2.9545122049	-1.2177901508	-0.125452
O	 0.1798309741	 3.8567062819	-1.0077414984	-0.188575
C	-0.202299353	 4.6156782596	-2.062043828	 0.179049
O	-1.0971753029	 5.3991400074	-1.9876589549	-0.260812
C	 2.5583110175	 3.6779759707	-1.2643797615	 0.344612
C	 3.6028285534	 4.2698837551	-1.297209654	-0.422565
H	-0.9568850341	 1.6608465804	-0.2006769836	 0.10723
H	 1.2927557473	 2.5073792158	 0.8769500257	 0.154172
H	 2.1191900815	 1.2826570148	-0.1076168376	 0.144057
H	 1.1398945732	 2.4283922407	-2.170766445	 0.130638
H	 0.3927623421	 4.422488256	-2.9738455749	 0.094552
H	 4.524972874	 4.7972509949	-1.3301979349	 0.216808
