23
gdb 117537	2.40458	0.90759	0.77619	1.2353	88.06	-0.2576	0.0444	0.3021	1628.9857	0.202379	-388.269278	-388.257978	-388.257034	-388.305791	41.266	
C	-0.0899806055	 1.6019487095	 0.0362539461	-0.379783
C	 0.0133022296	 0.0755292578	-0.025757204	-0.179829
C	 0.7075427381	-0.5183010042	 1.2025879217	-0.168506
C	 0.8181549777	-2.0599781204	 1.1911944269	-0.17291
C	 1.5722897869	-2.5402298102	 0.0327013112	 0.321703
C	 2.2522246474	-2.9300485195	-0.8812805817	-0.477375
C	 1.4850723977	-2.5843850159	 2.4979355496	 0.128481
C	 1.3798298341	-4.101762925	 2.6497754976	-0.411457
O	 2.8288236415	-2.1391454438	 2.5958449972	-0.433722
H	 0.9019907244	 2.0624040004	 0.1016798943	 0.116386
H	-0.585735409	 2.0037051085	-0.8528947736	 0.111314
H	-0.6623226555	 1.9275903695	 0.9121854683	 0.112516
H	-0.9921642929	-0.356689259	-0.120796352	 0.090356
H	 0.5592728743	-0.221810907	-0.928439028	 0.110155
H	 1.7155453113	-0.1034341933	 1.3088548286	 0.115588
H	 0.1559870173	-0.2327733157	 2.1079457387	 0.091905
H	-0.1963286446	-2.4807963399	 1.1444646815	 0.099494
H	 2.8195069844	-3.2756134603	-1.7101652339	 0.199301
H	 0.967830655	-2.1025816524	 3.3359530064	 0.086371
H	 1.8560724157	-4.610475828	 1.8049564236	 0.123251
H	 1.8792994829	-4.4163917586	 3.5697166419	 0.123826
H	 0.3339071651	-4.4241274238	 2.6934238026	 0.111072
H	 3.2929689439	-2.4752572286	 1.8182289069	 0.281862
