17
gdb 91478	2.64348	1.67226	1.26094	5.0116	72.67	-0.2613	0.0075	0.2687	1006.3349	0.138622	-417.991602	-417.984256	-417.983311	-418.023262	29.305	
O	 0.0557452898	 1.3513111367	-0.0694481009	-0.432625
C	 0.035981192	-0.0467614947	-0.0259664827	 0.142349
C	 0.5099126078	-0.6653713779	 1.3342311883	-0.24545
C	-0.8192835825	-1.2983917367	 1.7690790755	-0.018209
C	-1.2573604537	-2.0683953215	 0.4967381459	-0.270877
C	-1.4197091752	-0.6085112427	-0.0031110667	 0.177667
N	-1.7826494454	-0.1770800075	 1.4094941128	-0.370382
C	-2.3018513273	-0.2445789141	-1.0887026526	 0.175862
N	-3.0174811752	 0.0165575427	-1.9580312707	-0.334378
H	-0.5363864282	 1.6458672201	 0.6374455074	 0.290089
H	 0.599688473	-0.4017483796	-0.8905198693	 0.103218
H	 1.3074533717	-1.4029823762	 1.21978358	 0.110275
H	 0.8469243302	 0.1225124361	 2.0101590989	 0.119091
H	-0.8975312751	-1.7203730895	 2.7695218353	 0.089047
H	-0.5402303304	-2.7193234369	-0.0123976629	 0.112265
H	-2.2220503435	-2.5681858357	 0.6072172354	 0.120291
H	-2.7332764579	-0.4978270726	 1.5971025564	 0.231768
