18
gdb 7529	4.85055	1.09011	1.02484	3.5927	68.82	-0.2441	-0.0205	0.2236	1161.79	0.15063	-384.932226	-384.923104	-384.92216	-384.966307	32.691	
C	-0.1867976569	 1.6252519139	 0.2196433474	-0.453265
C	-0.0350929821	 0.1236271269	 0.0620237541	 0.306875
C	-1.2421393868	-0.5782117633	-0.5451061339	-0.346668
C	-1.4853231172	-0.1737343128	-1.9858109618	 0.170085
O	-2.551672968	 0.1505564876	-2.4408276533	-0.242891
C	 1.3467594624	-0.4275656931	-0.270975477	-0.368101
C	 0.752061817	-0.6292014539	 1.1018082286	 0.065796
O	 1.2443151861	 0.0998099886	 2.1870949782	-0.421143
H	 0.6726907535	 2.0522317999	 0.7382447207	 0.132527
H	-0.2869134811	 2.1168764617	-0.7545316495	 0.119457
H	-1.081724607	 1.8643145609	 0.8049579828	 0.124202
H	-1.0744351848	-1.6651789864	-0.5459412284	 0.114811
H	-2.1552752114	-0.3833409311	 0.0270373354	 0.122406
H	-0.5739745973	-0.2039380744	-2.6276487777	 0.074653
H	 1.4355171357	-1.2835566013	-0.9322190389	 0.109853
H	 2.1538985897	 0.2930309558	-0.3520339119	 0.11635
H	 0.4020018925	-1.6310033064	 1.35424206	 0.08479
H	 2.1286096958	-0.2240476726	 2.3870853951	 0.290263
