19
gdb 77756	2.25178	1.78668	1.15632	2.6543	76.2	-0.2369	0.0027	0.2396	1087.9779	0.157181	-422.983124	-422.974186	-422.973242	-423.016016	34.614	
C	-0.3152655722	 1.5577538744	-0.0385769032	-0.474766
C	-0.0768968962	 0.0456851019	 0.0117632688	 0.332755
C	-1.4274356757	-0.6564536967	-0.1807913602	-0.464381
C	 1.1486753376	-0.5841935629	-0.7863173453	-0.242305
C	 2.1252810427	-0.0741620586	 0.3192194773	 0.135423
O	 2.5117313371	 1.2725395607	 0.2672105471	-0.428005
C	 0.8620702136	-0.5568311637	 1.1451782207	-0.274156
C	 0.9732959644	-1.7564262548	 0.1965967972	 0.440556
O	 0.9544237664	-2.948455783	 0.2109203682	-0.331361
H	 0.5879222757	 2.1447926737	 0.0877026733	 0.148309
H	-0.7721579046	 1.8215110902	-0.9993590396	 0.113977
H	-1.0327270065	 1.8367850677	 0.7420250731	 0.110218
H	-1.8708809686	-0.3658973711	-1.1395598102	 0.119847
H	-1.3569909996	-1.7469079832	-0.1619015347	 0.139196
H	-2.1271297708	-0.352327857	 0.6054855099	 0.118797
H	 1.3171556526	-0.6034201182	-1.8613753462	 0.090103
H	 3.0103098334	-0.7076444254	 0.4615762326	 0.091477
H	 3.0248691469	 1.4616625911	 1.0593139524	 0.290844
H	 0.7138388637	-0.5429916551	 2.2240488188	 0.083473
