20
gdb 93064	2.13291	1.68759	1.01574	2.9032	82.26	-0.2474	0.0066	0.254	1201.1788	0.171553	-403.165541	-403.156759	-403.155815	-403.199333	33.293	
C	 0.0016318356	 1.5090519829	 0.1198337067	-0.392947
C	-0.0157083357	-0.005983929	-0.0416570191	 0.125972
C	 0.6156234452	-0.4554808232	-1.3681644314	-0.251669
C	 0.3557132127	-1.9022845381	-1.7088579583	-0.071777
C	 0.678944507	-2.9168869504	-0.9115208672	-0.063773
C	 1.3948281404	-2.7645132068	 0.4134870073	-0.307316
C	 0.7319482792	-1.8482515393	 1.4182212041	 0.356766
N	 0.3785697474	-2.2890397004	 2.551539075	-0.471438
O	 0.6704567173	-0.5086698486	 1.1249327316	-0.271922
H	 1.0269973968	 1.8885252448	 0.0675524542	 0.12612
H	-0.5866048711	 1.9846335978	-0.6701074423	 0.117105
H	-0.4186943078	 1.7911222438	 1.0880475448	 0.127237
H	-1.0521168819	-0.3696356771	-0.004385318	 0.086239
H	 0.2182560438	 0.1868888256	-2.1604411543	 0.105356
H	 1.6949621501	-0.2517467331	-1.3153730074	 0.116855
H	-0.1351708403	-2.1091113872	-2.6560104271	 0.092149
H	 0.4487823499	-3.933076335	-1.2183562134	 0.09922
H	 1.5045505884	-3.7321390804	 0.9027744306	 0.13431
H	 2.4063767499	-2.3704922516	 0.2332638607	 0.128157
H	-0.0132846768	-1.5226581148	 3.1045730735	 0.215356
