21
gdb 114552	2.6496	1.43361	1.13282	2.2256	78.15	-0.2368	0.0692	0.306	1169.0506	0.182692	-424.210227	-424.201643	-424.200699	-424.243165	33.985	
C	 0.048870636	 1.5195595691	 0.0275331424	-0.384886
C	-0.0958175136	-0.00356881	-0.0460303898	-0.203461
C	 0.6586413803	-0.5969974476	-1.2267109752	 0.139782
O	 2.0863083285	-0.357489555	-1.1432641618	-0.297839
C	 2.6201401585	-1.6858541508	-1.2777455767	 0.108839
C	 1.7614189607	-2.5246982045	-0.3009093604	-0.306577
C	 0.6708131443	-2.1333632323	-1.3561050108	 0.341592
O	-0.6008777556	-2.6829293756	-1.4364740503	-0.483601
C	 1.7942668272	-2.2965733398	-2.4358682101	-0.302462
H	 1.1018544918	 1.8007353052	 0.1176400355	 0.133564
H	-0.3494840362	 1.9990097193	-0.8737244447	 0.111463
H	-0.4904879168	 1.9264880686	 0.888048399	 0.107967
H	 0.2600464022	-0.4542724268	 0.8867295952	 0.094526
H	-1.1507292161	-0.2840348622	-0.1521619707	 0.109556
H	 0.2756512297	-0.1484633669	-2.1550169388	 0.072094
H	 3.7069706244	-1.6587867884	-1.2575843431	 0.084334
H	 2.0013891211	-3.5904261503	-0.3279456914	 0.091522
H	 1.6662660966	-2.1702417722	 0.72621706	 0.10528
H	-0.5198274277	-3.638351561	-1.5168259204	 0.28395
H	 1.7144546548	-1.7187616003	-3.3594335119	 0.103128
H	 2.0426324699	-3.3407620185	-2.6403387658	 0.09123
