17
gdb 112163	3.38658	1.15504	0.91278	3.6043	72.3	-0.2691	-0.0437	0.2254	1282.1774	0.134667	-459.012891	-459.00395	-459.003006	-459.047015	31.653	
C	-0.0085575087	 1.3809382623	-0.0643789474	-0.242948
O	-0.043198372	-0.029086618	 0.1162148476	-0.22939
C	-1.3046459341	-0.5813649645	-0.0228072186	 0.175139
O	-1.777946256	-0.4951483129	-1.3785001397	-0.242323
C	-1.9976495559	-1.7548972079	-1.868936157	 0.388766
O	-2.3991522445	-1.9638679951	-2.9779975076	-0.338854
C	-1.6668803971	-2.7419897114	-0.795843116	 0.177317
C	-1.8034211979	-4.2058721442	-1.0376943438	-0.489168
C	-1.2644959688	-2.056188764	 0.2720466835	-0.239961
H	 1.0141726489	 1.6983843111	 0.1455391886	 0.135674
H	-0.2752396236	 1.6566712371	-1.0902457349	 0.140877
H	-0.6939190233	 1.8856356019	 0.6320371006	 0.112452
H	-2.0379497868	-0.0340059323	 0.5925059693	 0.08959
H	-2.8299463107	-4.4507868032	-1.3303159741	 0.150876
H	-1.1630884855	-4.5164023667	-1.8701143435	 0.153099
H	-1.5379871846	-4.7878269879	-0.1525771911	 0.128777
H	-0.9285437195	-2.4374809543	 1.2270768742	 0.130077
