21
gdb 71912	3.03578	1.6413	1.59456	1.255	80.09	-0.2512	0.076	0.3272	961.8179	0.186287	-387.105539	-387.09865	-387.097706	-387.13612	30.278	
O	-0.0156637805	 1.3587575801	 0.0280750866	-0.502459
C	 0.0214038378	-0.0485388363	 0.0051099039	 0.407085
C	 0.6334458634	-0.6852468673	-1.2674943891	-0.269814
C	 0.2695570085	-2.181635597	-1.1043425855	-0.023623
C	 1.1783203215	-2.8696338497	-0.0588702335	-0.224199
C	 0.3051288717	-2.2156271442	 1.0374966617	-0.023627
C	 0.6750206626	-0.7249809211	 1.2358683261	-0.269763
C	-0.8695505886	-2.1240789372	-0.0130293985	-0.020165
C	-1.379377315	-0.6884505319	 0.018213625	-0.249682
H	 0.8912663292	 1.6816330343	 0.0172384214	 0.273621
H	 0.1577936408	-0.2466108103	-2.1508396663	 0.098439
H	 1.7143284192	-0.5208607716	-1.350884268	 0.079983
H	 0.0900717007	-2.6945783865	-2.0508072914	 0.059159
H	 1.0545226654	-3.9566749921	-0.0740694228	 0.09264
H	 2.2484160035	-2.6335541796	-0.0728954601	 0.083057
H	 0.1568862332	-2.758442137	 1.9726422568	 0.059158
H	 1.7581553813	-0.562740496	 1.2885164737	 0.079979
H	 0.229171048	-0.3148259262	 2.1479708961	 0.098441
H	-1.5905967106	-2.9400225059	-0.0140018345	 0.06054
H	-1.9429430845	-0.4381683872	 0.922434173	 0.095617
H	-1.9724981677	-0.4099058873	-0.8584178747	 0.095611
