18
gdb 93428	3.09002	1.22464	0.92387	3.5262	75.58	-0.2403	-0.0276	0.2127	1230.6842	0.149401	-439.12209	-439.1137	-439.112756	-439.155253	31.922	
O	-0.0479302272	 1.4725492106	 0.0694028874	-0.426579
C	 0.0707069963	 0.0584429028	-0.0280922299	 0.09671
C	 0.6670635162	-0.5332454901	 1.2608711043	-0.195408
N	 1.2179061069	-1.8597526682	 1.0718094277	-0.322454
C	 0.5825607347	-2.9969835112	 0.6491243763	 0.364266
O	 1.1680480873	-4.0702197209	 0.6458044966	-0.380758
C	-0.8350294928	-2.9321034688	 0.1975454082	-0.131011
C	-1.6071806994	-1.9132667326	-0.1951353826	-0.073413
C	-1.3446700298	-0.4412254585	-0.2934826644	-0.248662
H	 0.8360221325	 1.8527939737	 0.0575542187	 0.28565
H	 0.7298811512	-0.2263000131	-0.8618762528	 0.083002
H	 1.4899628308	 0.1100173937	 1.5867989289	 0.102712
H	-0.0889649394	-0.5100699095	 2.0584725913	 0.120306
H	 2.1633376997	-2.0348850935	 1.3757874424	 0.246876
H	-1.251114241	-3.933896853	 0.1523240219	 0.11463
H	-2.6174564143	-2.1791927773	-0.5043509904	 0.106334
H	-2.0108658722	 0.0760080991	 0.4132977836	 0.132275
H	-1.6612158596	-0.0909318132	-1.2841178672	 0.125526
