20
gdb 76142	2.21901	1.25703	1.11694	2.8202	77.47	-0.2422	0.025	0.2672	1228.609	0.16879	-440.314201	-440.303961	-440.303017	-440.348757	38.395	
C	 1.3814741289	 1.4345874967	-0.2017889628	-0.427067
C	 0.8479994536	 0.0240946445	-0.0856919711	-0.055707
C	 1.7591675724	-1.2031872316	 0.1102150016	-0.225231
C	 3.2373478674	-1.0789641424	 0.260217938	 0.416854
N	 3.9461267481	-2.110328668	-0.3022120344	-0.533254
O	 3.8090418613	-0.1729902806	 0.8495871382	-0.383968
C	 0.7654256853	-0.7353560738	 1.1907403774	 0.388304
C	 1.2330925851	-0.1834877889	 2.5154898456	-0.469535
O	-0.4000718174	-1.5166657086	 1.2772232073	-0.45885
H	 2.2797294913	 1.5810379998	 0.3977020312	 0.159547
H	 1.6378377481	 1.6579435485	-1.2428867264	 0.114309
H	 0.6187327638	 2.1547026675	 0.1139360545	 0.114764
H	 0.0174651181	-0.1965049588	-0.7513059712	 0.100645
H	 1.4203199117	-2.092217984	-0.4123698158	 0.077266
H	 3.5192105946	-2.7538220334	-0.9454502272	 0.256232
H	 4.9486570726	-2.0133319025	-0.3257116848	 0.25725
H	 2.1689288952	 0.3642806716	 2.4145251069	 0.167094
H	 0.4618015638	 0.4678986978	 2.9388341241	 0.120255
H	 1.4070473348	-1.003496959	 3.224068121	 0.102925
H	-0.2376231887	-2.2140101245	 1.9228425078	 0.278166
