15
gdb 71556	2.75103	1.48357	1.37492	2.8673	66.71	-0.2457	-0.0469	0.1988	990.4893	0.108906	-457.653742	-457.645894	-457.64495	-457.686271	29.164	
C	 0.0252275567	 1.4685104848	-0.1020264011	-0.534141
C	 0.0238226245	-0.0199946601	-0.0358089378	 0.371165
O	 0.5998600307	-0.8122624474	-1.1162162987	-0.342215
C	 0.1333987636	-1.8351425784	-0.2001993472	-0.004088
C	 0.4563118775	-1.0249020484	 1.0880187606	-0.008007
O	-0.8765634862	-1.1531879388	 1.6578568089	-0.332921
C	-1.1569469347	-1.0531389416	 0.2448017167	 0.301612
C	-2.5341699188	-1.0914494811	-0.3059082699	 0.015492
O	-3.5351980182	-1.1615503626	 0.3592061848	-0.242518
H	 1.0519900699	 1.8454122364	-0.134389547	 0.146273
H	-0.5013240507	 1.8191660957	-0.9941956278	 0.145338
H	-0.4713761537	 1.8726983103	 0.7848238609	 0.153198
H	 0.2690974732	-2.8850758014	-0.4556527927	 0.119646
H	 1.3182802966	-1.0382297167	 1.7541834855	 0.113519
H	-2.5573000304	-1.0411419606	-1.4168765251	 0.097646
