19
gdb 16665	3.23685	2.05803	1.53144	2.919	70.03	-0.2422	0.0646	0.3069	886.3113	0.167531	-365.050195	-365.042798	-365.041854	-365.081673	29.381	
C	-0.0076763843	 1.5873683389	-0.0301862044	-0.396588
C	 0.0511236519	 0.0637908283	 0.0012301203	 0.020073
C	 0.7660406435	-0.5936839015	-1.2118457034	-0.238652
C	 1.2643394042	-1.9328437	-0.6798484536	-0.02635
N	 2.5071651052	-1.8146914164	 0.1151969704	-0.348951
C	 1.2034383386	-1.9205641031	 0.8051993456	-0.07926
C	 0.741148245	-0.5289310843	 1.2685931431	 0.116402
O	 1.8250190094	 0.2452699372	 1.7416354614	-0.436031
H	 0.998105978	 2.0120291372	 0.022960105	 0.12609
H	-0.4885245647	 1.9442166055	-0.947170152	 0.103166
H	-0.5744998834	 1.97968533	 0.8207015547	 0.111826
H	-0.9734061712	-0.3341925053	 0.0119743188	 0.066739
H	 0.0858363832	-0.7207377042	-2.0590546781	 0.097626
H	 1.6104615171	 0.0129798412	-1.5572848549	 0.109351
H	 1.1112637218	-2.843728813	-1.2497133511	 0.088675
H	 2.9927160828	-2.7067451667	 0.1520261178	 0.236132
H	 0.9938001756	-2.8049963773	 1.3966851426	 0.088266
H	 0.0253946647	-0.6008065459	 2.0942215261	 0.074365
H	 2.5899571527	-0.0627350808	 1.2307030416	 0.287121
