21
gdb 91759	2.42166	1.76173	1.53791	2.0255	75.96	-0.2496	0.0753	0.3249	1002.2058	0.185975	-424.248447	-424.24088	-424.239935	-424.280034	30.898	
C	-0.1159703868	 1.5600490247	-0.0173931037	-0.414071
C	 0.026236326	 0.0395484453	-0.0172473709	 0.008804
C	 0.7381109183	-0.6025072197	-1.2428739999	-0.273077
C	 1.6969142354	-1.6322237886	-0.5892021989	 0.091008
C	 3.1020022074	-1.0725652369	-0.338379011	-0.218938
C	 2.9764378945	 0.2266405408	 0.4726885117	-0.077391
O	 1.9979749432	 0.1412132328	 1.5093090637	-0.265084
C	 0.8239500438	-0.5658296282	 1.1623986013	 0.177088
O	 1.1258261298	-1.8680990255	 0.7107131967	-0.252714
H	 0.850208913	 2.0663069541	-0.0865654963	 0.126114
H	-0.7305809854	 1.8918593234	-0.8604334942	 0.114145
H	-0.6003993852	 1.9055756353	 0.9017940653	 0.119537
H	-0.9750342941	-0.3981296248	 0.0584178081	 0.084724
H	 0.0247838344	-1.0973422359	-1.9055165207	 0.104925
H	 1.2809011144	 0.1367364147	-1.8396786771	 0.100401
H	 1.7303736918	-2.5889212146	-1.1143487696	 0.077211
H	 3.6678931005	-1.8205546772	 0.2251276069	 0.112764
H	 3.6348723614	-0.8742717682	-1.2752993973	 0.095193
H	 3.9179910903	 0.4748324439	 0.9703447901	 0.11194
H	 2.7364079446	 1.060841015	-0.2021095363	 0.091758
H	 0.2526168528	-0.6451038507	 2.089387932	 0.085663
