14
gdb 24540	3.97805	1.68609	1.18418	4.7642	80.27	-0.2025	-0.0805	0.122	953.3413	0.104587	-399.584584	-399.578582	-399.577638	-399.614813	24.331	
O	-0.027954133	 1.3502316445	 0.0100904997	-0.195899
C	 1.1157493154	 2.0404020739	 0.0021870448	 0.0532
C	 2.3505599815	 1.4670542532	-0.0133085314	-0.174663
C	 2.478636968	 0.0471801295	-0.0220812319	-0.217492
C	 1.3370251411	-0.6974735142	-0.0144347004	 0.218487
C	 0.9672157696	-2.0812117957	-0.0177135688	-0.144551
N	-0.3433311892	-2.2200496717	-0.0057095168	-0.233637
C	-0.9311083409	-0.9539718493	 0.0068651133	-0.188484
C	 0.0456997093	-0.0089943756	 0.0021985619	 0.270826
H	 0.9372716462	 3.1081020771	 0.0096085144	 0.147938
H	 3.2193595063	 2.1118430573	-0.0186550523	 0.121974
H	 3.4643641363	-0.4079550139	-0.0343167954	 0.127646
H	 1.6344832688	-2.9334383755	-0.028736635	 0.105284
H	-2.0034250293	-0.8371312694	 0.018106038	 0.109371
