20
gdb 80769	3.282	0.97954	0.90764	1.981	80.21	-0.2363	-0.0224	0.2139	1349.9416	0.169623	-403.102005	-403.092999	-403.092055	-403.136698	33.151	
C	-0.6093449073	 1.1203391328	-0.0590103687	-0.317327
N	-0.1243517312	-0.2061732951	 0.2868522064	-0.064247
C	 1.1437562558	-0.7403379288	-0.134842257	-0.040728
C	 2.2931300277	 0.2876237571	-0.0624497978	-0.283596
C	 2.0243742694	 0.4341157393	 1.4735332693	 0.004003
C	 1.8603221295	 1.8097309945	 2.1331750792	-0.305977
C	 3.1882828364	 2.5247843867	 2.2463540509	 0.163632
O	 3.4260126017	 3.6201683401	 1.8075055126	-0.238476
C	 0.8187055554	-0.523661416	 1.3302656505	-0.08478
H	 0.1676402265	 1.8759120249	-0.2323601909	 0.11257
H	-1.2038112448	 1.0396515031	-0.9749222941	 0.124943
H	-1.2669013689	 1.4789172509	 0.7387206584	 0.124891
H	 1.1602190782	-1.6604166748	-0.709439179	 0.095683
H	 3.2705969623	-0.1475437924	-0.2785518915	 0.110345
H	 2.1745362319	 1.1862539833	-0.6746630387	 0.112584
H	 2.8117441202	-0.1092990517	 2.010181442	 0.084915
H	 1.161973468	 2.4589662083	 1.6030507491	 0.122938
H	 1.4789424099	 1.6614031928	 3.1546481657	 0.118975
H	 3.9760421853	 1.9392734974	 2.7794452754	 0.06834
H	 0.5121348441	-1.2372159324	 2.0894354182	 0.091312
