12
gdb 25548	4.97715	0.94189	0.81746	4.6128	58.58	-0.2326	-0.0258	0.2068	1275.9155	0.076578	-509.821448	-509.813623	-509.812679	-509.85582	26.972	
O	-0.0964075321	 0.0426059114	 0.1121408241	-0.230866
C	 0.070547582	 1.190160557	-0.1306390642	 0.167111
O	 0.9073304507	 1.9715367021	 0.6449067611	-0.217206
C	 0.9917954886	 3.2807789841	 0.3320053251	 0.402726
C	 2.0209714362	 4.0281465073	-0.0759769157	-0.213541
N	 1.5278989482	 5.3379860541	-0.1316213585	-0.364439
C	 0.2032451471	 5.3768984385	 0.2304882833	 0.500989
O	-0.5631353315	 6.2933223718	 0.2945308601	-0.38294
O	-0.1274746024	 4.0508075405	 0.5309553517	-0.236301
H	-0.380952934	 1.7612538047	-0.9580959731	 0.119452
H	 3.0353672261	 3.761750355	-0.3108673637	 0.169311
H	 2.0355768712	 6.1643153037	-0.3940243402	 0.285707
