21
gdb 67888	2.64781	1.87009	1.38524	0.3659	87.01	-0.2205	0.0256	0.2461	1019.4898	0.184982	-349.947601	-349.940177	-349.939233	-349.978757	31.332	
C	-0.0012702106	 1.4447521593	 0.0661765466	-0.480878
C	 0.0092618195	-0.072598679	 0.0130488695	 0.32965
C	 1.1053965512	-0.6642319601	-0.8059892106	-0.110129
C	 0.9843839705	-1.8173719026	-1.4657903191	-0.084672
C	-0.2602779605	-2.6663991204	-1.3771979302	-0.269906
C	-1.1141712201	-2.2629341252	-0.1736077712	-0.038634
C	-0.3701773278	-2.2723246901	 1.2096162933	-0.254848
C	-0.5156135736	-0.7532848609	 1.2803109678	-0.093927
C	-1.336550827	-0.7431101533	-0.0051206208	-0.118454
H	 0.92842077	 1.8306507231	 0.5006338705	 0.115231
H	-0.10294165	 1.8740843253	-0.9367545635	 0.118779
H	-0.832416305	 1.8151529631	 0.6746306037	 0.113581
H	 2.0293964925	-0.0933361007	-0.8712539505	 0.075308
H	 1.8049270694	-2.1845891029	-2.0767785334	 0.082546
H	-0.8415614435	-2.5935794178	-2.3090915879	 0.103086
H	 0.0217908418	-3.7244681065	-1.2885942528	 0.101156
H	-2.0444253135	-2.8345896624	-0.1432614898	 0.067388
H	-0.953819423	-2.7788987671	 1.9821504402	 0.097835
H	 0.6484775729	-2.6730065954	 1.2135067368	 0.095527
H	-0.664086068	-0.1722935139	 2.1839880088	 0.077073
H	-2.2458080654	-0.2022056623	-0.2419991175	 0.074289
