17
gdb 10054	2.19222	1.73231	1.09005	3.6358	71.91	-0.2494	0.0215	0.2708	1106.3838	0.14014	-363.852056	-363.842922	-363.841978	-363.886752	31.977	
C	 0.2868109479	 1.2330597424	 0.3157510741	-0.378629
C	-0.0709793804	-0.1695120482	-0.1856106002	-0.161902
N	 0.5749129887	-0.5264742972	-1.4410321729	-0.038104
C	 2.0139767368	-0.7812066464	-1.4674400737	-0.322348
C	 2.4208187199	-1.8624618651	-0.5719487578	 0.311843
C	 2.7592116487	-2.7396318423	 0.1763310576	-0.456369
C	-0.1284810101	-0.6437451014	-2.604790648	 0.159311
O	 0.3394008717	-0.9239372498	-3.6885803915	-0.341937
H	 1.3572463357	 1.3273179762	 0.5208641716	 0.12925
H	 0.0104918742	 1.9944595504	-0.419843717	 0.127013
H	-0.2465969891	 1.4435708668	 1.2477590766	 0.124465
H	 0.1929354207	-0.9186747773	 0.5699842464	 0.128254
H	-1.1515001317	-0.2423979399	-0.3450442006	 0.118496
H	 2.2525764995	-1.0284348948	-2.5063430455	 0.180007
H	 2.5667315803	 0.1325887637	-1.2132003189	 0.13811
H	 3.0649477256	-3.5247727751	 0.8229573228	 0.204636
H	-1.2069875983	-0.447350662	-2.4493649732	 0.077904
