15
gdb 43274	3.12472	1.53002	1.11658	5.325	74.63	-0.2313	-0.0908	0.1405	1046.4983	0.112725	-420.6564	-420.648911	-420.647966	-420.688526	28.381	
O	 0.0367546131	-0.0298722952	 0.00588661	-0.297139
C	-0.0413677978	 1.1734456588	 0.0107099112	 0.289272
C	-1.2330344567	 2.0407352739	 0.0311189033	-0.217636
C	-0.86958991	 3.3378326917	 0.0312970421	-0.137834
C	 0.5964371909	 3.5348762906	 0.0118866058	 0.192624
C	 1.2984125364	 4.6611796466	-0.7372088319	-0.294742
C	 1.3190592609	 4.6546137586	 0.7511214158	-0.294708
C	 1.1775348078	 2.1540820999	-0.0023928274	 0.246743
O	 2.3390225658	 1.8441773489	-0.018488728	-0.299386
H	-2.2442299135	 1.6568451516	 0.0439280142	 0.129311
H	-1.5595161915	 4.17588019	 0.0445842086	 0.128077
H	 2.2036716091	 4.3749089554	-1.2616693247	 0.148996
H	 0.6682424911	 5.379208547	-1.2503873121	 0.128688
H	 0.7034912732	 5.3680370951	 1.2879066452	 0.128706
H	 2.2385170111	 4.363883617	 1.2476887279	 0.149027
