17
gdb 26428	3.52051	1.07277	1.03465	2.0659	75.79	-0.2264	-0.0306	0.1958	1213.7791	0.136331	-418.060511	-418.051861	-418.050917	-418.095383	30.793	
C	 0.1698990738	 1.5096946244	-0.200388568	-0.398822
C	-0.0017811154	 0.0104995433	 0.0686991627	-0.169534
C	 0.4750558775	-0.8442077622	-1.1038993754	 0.132281
O	 1.0839305808	-0.4196686523	-2.0523830422	-0.243781
C	 0.7010211348	-0.4777843782	 1.3042635905	 0.324987
N	 0.1500779036	-1.1317470299	 2.3048119519	-0.299759
C	 1.1718391668	-1.3928536617	 3.1882893496	-0.089832
C	 2.3569191001	-0.8969467772	 2.714595179	-0.10642
N	 2.0458561966	-0.3173497654	 1.505362075	-0.271119
H	 1.217188771	 1.7642858287	-0.3854186765	 0.120519
H	-0.3909533549	 1.8033172117	-1.0911361605	 0.133334
H	-0.1863182051	 2.0943294786	 0.6510647513	 0.128833
H	-1.0575255987	-0.236284686	 0.2328808502	 0.127177
H	 0.2407829288	-1.9262256908	-0.9998357113	 0.096271
H	 0.9940654305	-1.9190008754	 4.1136113122	 0.111087
H	 3.3600609962	-0.8955653085	 3.1070478269	 0.131555
H	 2.6903390438	 0.1418272412	 0.8829423146	 0.273223
