22
gdb 8399	3.51676	1.63136	1.4158	0.2005	82.05	-0.2819	0.0836	0.3655	1010.4736	0.200742	-313.03252	-313.02429	-313.023346	-313.065012	32.285	
C	-0.000657999	 1.5342596504	 0.0216232255	-0.391444
C	-0.0049889227	 0.0004509701	-0.0541454571	-0.103725
C	-1.4349665832	-0.5544191942	 0.0207050439	-0.391448
C	 0.7161587403	-0.494177712	-1.2918813421	 0.395956
C	 2.1980353728	-0.2091512982	-1.7016288792	-0.265912
C	 1.6266688554	-1.1186955987	-2.8225787959	-0.045472
C	 0.9802143705	-1.9793228652	-1.7038120103	-0.265917
C	 0.3466864784	-0.2381283175	-2.7933989419	-0.252739
H	 1.0179150094	 1.9341411936	 0.006177927	 0.114095
H	-0.5442013254	 1.9697649955	-0.8246818213	 0.114392
H	-0.4843320996	 1.8812533542	 0.9405110577	 0.108359
H	 0.5518940381	-0.3823432609	 0.8141416555	 0.070036
H	-2.0361613132	-0.2033750318	-0.8258625935	 0.11438
H	-1.4423658984	-1.6486452387	 0.0050505534	 0.114109
H	-1.9330214593	-0.2277928496	 0.9393774802	 0.108358
H	 2.4428609065	 0.8196111339	-1.9818530692	 0.085659
H	 2.9729415369	-0.6430069158	-1.0619265483	 0.08338
H	 2.1527749678	-1.4795511993	-3.7070384369	 0.067417
H	 1.6616883682	-2.5489963385	-1.0642849243	 0.083377
H	 0.1072774551	-2.5752663738	-1.9860263953	 0.085661
H	-0.5747597072	-0.7005329962	-3.1592248559	 0.085735
H	 0.4495684485	 0.7883441726	-3.1573796119	 0.085741
