25
gdb 89410	2.54083	1.3794	1.05336	0.2759	91.83	-0.2491	0.0756	0.3247	1287.3276	0.229417	-352.368157	-352.358596	-352.357652	-352.401805	38.112	
C	-0.0162899316	 1.5712356766	-0.0683287328	-0.414591
C	 0.1051426262	 0.0491879506	-0.0034865286	 0.053685
C	 0.8110859175	-0.5911822168	-1.2233625226	-0.303222
C	 1.2533968327	-1.9836435983	-0.7501730996	 0.377994
C	 0.7515120489	-3.194750324	-1.5010617243	-0.488667
C	 2.5848861809	-2.0256402368	-0.0461973596	-0.332165
C	 1.3106985783	-1.9218336783	 0.7650682017	-0.081163
C	 0.8259364959	-0.5471457194	 1.250892504	-0.011635
C	 1.927635483	 0.3344667591	 1.8563116072	-0.395221
H	 0.9656919618	 2.0532808312	-0.1176538626	 0.114514
H	-0.5771340959	 1.8770448163	-0.9582298201	 0.109234
H	-0.5419941079	 1.9722542162	 0.8052198497	 0.109924
H	-0.9110936319	-0.3672221081	 0.0143799438	 0.06906
H	 0.1367217666	-0.6541406884	-2.0837407813	 0.092295
H	 1.6683068488	 0.0156815592	-1.5430753005	 0.090274
H	 1.1492826151	-3.2265938483	-2.5227571392	 0.113772
H	 1.0516430054	-4.1224673636	-1.0024568379	 0.110374
H	-0.342940722	-3.194934568	-1.5733073417	 0.110813
H	 3.1076294821	-2.9770898455	-0.0136883288	 0.100024
H	 3.2454882689	-1.1676225331	-0.1215900643	 0.101876
H	 1.0369289762	-2.7917349244	 1.354361858	 0.073571
H	 0.0792489045	-0.7055669861	 2.0380046744	 0.0659
H	 2.688159729	 0.6184466779	 1.1222664135	 0.112335
H	 1.5130782863	 1.2583268308	 2.2715512535	 0.109399
H	 2.4375425112	-0.1964241886	 2.6665864382	 0.111619
