18
gdb 54032	2.17959	1.56701	0.97583	1.6065	74.19	-0.2636	-0.0294	0.2343	1206.4398	0.146082	-439.12176	-439.112539	-439.111595	-439.156266	33.24	
C	 0.0304443976	 1.5065332422	 0.0638919974	-0.506064
C	 0.0358639953	-0.0127161546	 0.0963560606	 0.413489
O	 1.0582815101	-0.6372432912	 0.2532263485	-0.318929
N	-1.1931053855	-0.6895623099	-0.0696692818	-0.147544
C	-2.4237017368	-0.0379265638	-0.0248994488	 0.157012
O	-3.4920563474	-0.5953873952	 0.0033512035	-0.298638
C	-1.1714731369	-2.1391770914	-0.0739682999	 0.050287
C	-1.9223355416	-2.8788856124	-1.1452194798	-0.264401
C	-0.4181067714	-2.8577563722	-1.1573512941	-0.258085
H	 1.0713063974	 1.8259440025	 0.1066010236	 0.156315
H	-0.4336245529	 1.899922156	-0.8448305424	 0.148616
H	-0.5017640682	 1.9265383507	 0.9229222383	 0.153641
H	-2.3291574244	 1.0584107746	-0.0197370855	 0.099262
H	-1.1519636959	-2.5721840092	 0.9206913144	 0.114451
H	-2.4411133034	-3.7829117366	-0.8488187551	 0.123645
H	-2.4465141883	-2.2893521025	-1.8865142558	 0.129437
H	 0.0749283682	-2.2517518918	-1.9077244832	 0.123817
H	 0.1324796142	-3.7458633251	-0.8706022798	 0.123689
