22
gdb 61584	3.79251	0.83184	0.72224	1.9241	83.27	-0.2329	0.0877	0.3206	1603.7352	0.192898	-404.291767	-404.282064	-404.28112	-404.327133	35.52	
C	 0.2285770219	 1.7346294346	-0.1135698411	-0.403744
C	 0.0549518097	 0.2173620704	 0.0358404132	-0.013225
C	 0.6153206193	-0.5768172786	-1.1551430228	-0.140658
N	-0.0829031829	-0.2648622404	-2.3979671192	-0.067849
C	 0.564973079	 0.670141019	-3.3138909418	-0.219738
C	 0.5224969366	-0.7851764749	-3.618339504	-0.222158
C	 0.708842059	-0.2646353545	 1.3134925094	 0.094108
C	-0.0406781943	-0.4511821046	 2.5614753942	-0.182932
O	 0.3542368539	-1.5734241365	 1.7692526739	-0.244257
H	 1.2873077853	 2.0063902748	-0.2037990653	 0.109274
H	-0.289920778	 2.099506589	-1.0029000866	 0.133974
H	-0.1770033275	 2.2626595591	 0.7554835336	 0.113878
H	-1.0151978791	-0.0135318179	 0.0999266616	 0.088229
H	 1.7060641103	-0.4040597059	-1.2396964224	 0.071841
H	 0.4729612083	-1.6434730192	-0.9500661758	 0.121895
H	-0.0932562661	 1.363649464	-3.8298604333	 0.115632
H	 1.5274656728	 1.0877425919	-3.0215982646	 0.108764
H	 1.456957706	-1.3373881915	-3.5275301786	 0.108743
H	-0.1676456444	-1.1776986675	-4.3598130084	 0.116312
H	 1.7772179945	-0.0483044427	 1.3977950227	 0.086174
H	 0.4640619739	-0.3557442295	 3.5219893414	 0.112643
H	-1.110519558	-0.2457388991	 2.5775237942	 0.113092
