19
gdb 107649	3.25341	1.35399	1.11226	1.5685	77.54	-0.2358	0.0073	0.2431	1140.9707	0.158693	-422.992818	-422.984379	-422.983435	-423.025797	32.096	
C	 0.3048466525	 1.3056116339	-0.3004590889	-0.249181
O	-0.189163097	 0.0700397092	 0.1810921941	-0.282375
C	 0.5556031554	-0.4755819049	 1.2369111994	 0.363436
C	 1.8903570637	-1.1139138437	 0.8813971761	-0.361948
C	 0.6843667677	-1.9657497342	 1.2093193333	 0.024746
O	 0.704322601	-2.661516347	 2.4215312145	-0.262284
C	-0.1605998417	-2.1475012273	 3.4253578337	-0.120335
C	-0.0495822976	-0.6523070214	 3.5937103171	-0.074803
C	 0.3179567888	 0.1248811748	 2.5782188616	-0.140383
H	 1.3520719017	 1.2259157096	-0.6243686965	 0.109146
H	-0.3147024734	 1.5797324156	-1.1575103011	 0.128243
H	 0.2339195498	 2.104723807	 0.4507895977	 0.109766
H	 2.2030181436	-1.0663574834	-0.15633186	 0.115201
H	 2.6834853182	-1.0864190134	 1.6195671542	 0.123078
H	 0.1916137305	-2.489228777	 0.3925979156	 0.101559
H	-1.2094637298	-2.4228885699	 3.2171659268	 0.106852
H	 0.1265165788	-2.6613792768	 4.3483502145	 0.11722
H	-0.2800804909	-0.241233309	 4.572458635	 0.09843
H	 0.4173011887	 1.2004211279	 2.6919702329	 0.093633
