22
gdb 80472	2.43708	1.4874	1.29577	2.1147	81.26	-0.2156	0.0556	0.2712	1126.1288	0.194952	-404.326597	-404.317591	-404.316647	-404.359884	35.347	
C	-0.2481283164	 1.5285433863	 0.2253044748	-0.415183
C	-0.0054091873	 0.0568048361	-0.023424642	 0.027324
C	 0.602470022	-0.5596441522	-1.2360005131	-0.059624
C	 1.4122383238	 0.243930821	-2.2471493743	 0.062178
O	 0.7850756356	 1.4923930653	-2.5313156983	-0.422155
C	 2.8050507682	 0.3665879887	-1.561459775	 0.029586
C	 3.6407683628	 1.5711560579	-1.986982298	-0.434651
C	 2.4864705517	 0.2850384091	-0.0538872996	-0.188193
N	 1.3118084019	-0.6067266921	 0.0740523813	-0.125754
H	 0.438662886	 2.1800072951	-0.3099447433	 0.137583
H	-1.2591202415	 1.7861622315	-0.1064095508	 0.121263
H	-0.1876032414	 1.7389438882	 1.2997506358	 0.111134
H	-0.7704971866	-0.5610536627	 0.4484242394	 0.085627
H	 0.2054933688	-1.5095454895	-1.5858007839	 0.08319
H	 1.5013332871	-0.3296225408	-3.1804417034	 0.068008
H	 1.2911417877	 1.9220652598	-3.2283071125	 0.283911
H	 3.3467146521	-0.5515102665	-1.8233215545	 0.080805
H	 3.1220710345	 2.5082568109	-1.7625408934	 0.124896
H	 4.6004595633	 1.5872950668	-1.4610077375	 0.122145
H	 3.8619146927	 1.5507374774	-3.0611603603	 0.107151
H	 3.3162523108	-0.1507792733	 0.5108739173	 0.102197
H	 2.2988586543	 1.280372543	 0.3663756612	 0.098561
