16
gdb 130148	5.30029	0.84389	0.77926	2.2738	74.28	-0.2075	-0.0328	0.1747	1420.7611	0.12503	-434.095919	-434.087197	-434.086253	-434.130838	31.193	
N	-0.3842213527	 1.3589466701	 0.2594693932	-0.587773
C	-0.0505535544	 0.0208674691	 0.0603306367	 0.382814
N	-0.9817715756	-0.8725982736	-0.2621946718	-0.301238
N	-0.3135055076	-2.0534914307	-0.2872391197	-0.254452
C	 1.0047425948	-1.9291451687	 0.0046580338	 0.380235
C	 1.9326599391	-3.1049016737	-0.0025771029	-0.385651
C	 2.1085975951	-3.6296341376	-1.4222016793	 0.156823
O	 1.7838085919	-4.7302024428	-1.7829263934	-0.235442
C	 1.2206080996	-0.584405193	 0.2331989306	-0.3875
H	 0.3134383659	 2.0039585965	-0.0852508349	 0.24581
H	-1.2938350374	 1.577249674	-0.1267044034	 0.251258
H	-0.8186933695	-2.8955142739	-0.5046900368	 0.277033
H	 2.9095113417	-2.7843619555	 0.3758113046	 0.137296
H	 1.568351002	-3.9245874582	 0.6246832517	 0.133675
H	 2.5449406637	-2.8886825973	-2.1283522848	 0.088282
H	 2.1508000033	-0.1143119548	 0.5092592564	 0.098831
