18
gdb 81980	2.40868	1.46347	1.32202	4.8858	76.18	-0.2439	0.0227	0.2667	1065.2286	0.147877	-398.087131	-398.078414	-398.07747	-398.120035	33.303	
C	-0.2019220843	 1.6127347273	 0.1121519528	-0.445804
C	-0.0022375148	 0.1015195402	 0.0346581659	 0.113928
C	-1.2926749616	-0.5526667952	-0.1792511106	 0.277965
N	-2.3067070486	-1.0618627942	-0.4010716935	-0.345387
C	 1.1087758226	-0.4963411211	-0.9631095841	-0.040814
N	 1.9234727755	 0.305588185	-1.831764992	-0.510033
C	 1.7715749397	-1.0615769602	 0.2836673382	-0.006223
C	 2.0437991039	-0.0242591222	 1.2949755618	-0.254468
N	 0.6747452631	-0.5661557398	 1.2173115147	-0.14415
H	 0.7480337223	 2.1511346849	 0.1108548348	 0.114123
H	-0.7828027338	 1.960252066	-0.7466056147	 0.141291
H	-0.7476098929	 1.8729860215	 1.0234963055	 0.152543
H	 0.6507644467	-1.2881817169	-1.558554366	 0.118626
H	 1.4030025564	 0.6561772516	-2.6280981873	 0.240406
H	 2.3476371488	 1.0933485095	-1.3566082551	 0.231809
H	 2.1721426482	-2.0658491544	 0.3642879472	 0.10944
H	 2.5521876443	-0.3406892209	 2.2002201575	 0.136616
H	 2.2482736745	 1.0045707588	 1.0153858048	 0.110133
