18
gdb 93609	2.28599	1.41719	1.18588	2.2977	77.24	-0.2263	-0.0278	0.1985	1139.7866	0.14682	-401.929744	-401.920762	-401.919817	-401.963853	33.425	
C	-0.0727769643	 1.5837151566	 0.1830575229	-0.402319
C	 0.2125347786	 0.1021657999	-0.0565914897	-0.094311
C	 1.2892120039	-0.259140991	-1.0978086155	-0.197603
N	 1.8413727758	-1.5714995917	-0.7040677412	-0.284021
C	 1.8827088404	-1.5547278996	 0.7681679939	-0.320408
C	 3.1409895141	-1.0102726967	 1.2738261153	 0.38918
C	 4.1533171463	-0.5210675421	 1.6981193216	-0.461085
C	 0.7079982357	-0.6168599025	 1.2050568857	 0.402534
O	 0.2733227349	-0.5009635659	 2.3170595464	-0.309617
H	 0.8515733335	 2.1258990106	 0.4075981771	 0.127489
H	-0.5323139198	 2.0455964487	-0.6957144926	 0.117173
H	-0.7487949767	 1.7040751864	 1.033771745	 0.141073
H	-0.7236560742	-0.4069731777	-0.3319773143	 0.103826
H	 0.9112619638	-0.3037578926	-2.1211893188	 0.111321
H	 2.0996758745	 0.4795307739	-1.0738591515	 0.123696
H	 1.1975706333	-2.3017273735	-0.9935485478	 0.224568
H	 1.7216104295	-2.5566962211	 1.1784599742	 0.125577
H	 5.0566180507	-0.1071434916	 2.0731116994	 0.202925
