17
gdb 46613	3.11352	1.52654	1.04943	5.1795	76.65	-0.2029	-0.0012	0.2018	1099.496	0.139648	-418.05761	-418.050102	-418.049158	-418.089563	28.844	
O	-0.102826577	-0.0764306542	-0.0793642939	-0.389345
C	 0.0032424811	 1.1325580277	-0.0839945456	 0.31428
N	-1.0807643799	 2.0287650943	-0.1682456705	-0.351441
C	-0.6914089846	 3.415866476	 0.0552528099	-0.286654
C	 0.8017401679	 3.2795043984	 0.0647368469	 0.314633
C	 1.1859282185	 1.9972162658	-0.0261627458	 0.113727
C	 2.6845606698	 1.9077419228	 0.0652012601	-0.358725
C	 3.0790432364	 3.415472506	-0.0902079714	-0.169044
N	 1.8360289869	 4.1757717124	 0.2306952639	-0.394373
H	-1.9963911479	 1.6949731337	 0.0858075045	 0.245034
H	-1.0542378272	 4.0809867721	-0.7411827585	 0.120563
H	-1.0629430915	 3.8143101267	 1.0103409266	 0.13017
H	 3.0091085042	 1.5130962905	 1.0361238026	 0.12162
H	 3.1511610056	 1.2865566524	-0.7040475503	 0.123244
H	 3.8905224391	 3.7140804702	 0.5775515858	 0.117093
H	 3.3916557762	 3.6218521718	-1.1223161892	 0.109909
H	 1.7502630824	 5.0892220233	-0.193695505	 0.239309
