17
gdb 50491	3.5124	1.01588	0.85472	1.8613	74.79	-0.2489	-0.0332	0.2157	1319.391	0.134357	-421.802689	-421.793914	-421.79297	-421.837164	31.648	
O	-0.4942551543	 1.054831511	 1.6484606655	-0.238692
C	 0.2797279411	 0.6983314227	 0.7991671908	 0.140578
C	 1.0431516499	 1.6442187772	-0.1232409446	 0.019169
C	 1.4031965944	 2.9882999808	 0.5284684423	-0.258873
C	 2.8784726621	 2.7674883656	 0.9428098015	-0.190771
C	 3.3620848353	 1.8489699329	-0.1993797418	-0.074303
O	 2.2646796937	 0.9908129935	-0.480695078	-0.275542
C	 3.6597762537	 3.9806155203	 1.104759518	 0.298973
C	 4.311971217	 4.9835386417	 1.2204132464	-0.438219
H	 0.5083457763	-0.3737852496	 0.613785831	 0.097224
H	 0.4247710505	 1.7873606592	-1.023313891	 0.107127
H	 1.3380329364	 3.8063847657	-0.192214991	 0.120501
H	 0.7441100207	 3.2073007334	 1.3697615243	 0.14409
H	 2.8999464481	 2.1919429303	 1.877004702	 0.119287
H	 3.6281461398	 2.451934949	-1.0795955569	 0.106526
H	 4.2198820358	 1.2304056463	 0.0757205855	 0.123703
H	 4.8878468691	 5.86887921	 1.3310257061	 0.199223
