17
gdb 76285	2.43129	1.6285	1.04087	2.54	70.18	-0.253	-0.0072	0.2458	1124.3155	0.136435	-455.241998	-455.233112	-455.232167	-455.275794	31.861	
C	-0.01479971	 1.6269734194	 0.0467080659	-0.398678
C	 0.055955963	 0.1007814419	-0.0382930159	-0.125156
N	 0.8557112598	-0.4174875289	-1.1367079261	-0.108785
C	 0.5205813871	-0.2581735848	-2.5332134903	-0.347702
C	 1.8387306051	-1.2753906763	-0.7152370027	 0.478799
O	 2.6258604541	-1.9018659835	-1.3847486489	-0.404852
N	 1.7614574958	-1.2910777258	 0.6922598856	-0.410251
C	 0.7524924912	-0.5027179499	 1.1927876247	 0.446789
O	 0.47379844	-0.3104827751	 2.3500984197	-0.362995
H	 0.9891694677	 2.0612097217	 0.0496447576	 0.131601
H	-0.5736059813	 2.0435948248	-0.7955034652	 0.125362
H	-0.5200326664	 1.9073731165	 0.9740985261	 0.152617
H	-0.9658864605	-0.3071683416	-0.0780276172	 0.117151
H	 0.5599835182	 0.7937181501	-2.8355144936	 0.13187
H	 1.2522570687	-0.8218020244	-3.1138938016	 0.171466
H	-0.4835314837	-0.6457883898	-2.7494552319	 0.125267
H	 2.4081962512	-1.8193403542	 1.2561384637	 0.277498
