21
gdb 112013	2.48438	1.48703	1.13795	0.8566	84.31	-0.228	0.0119	0.2399	1177.7124	0.182012	-387.077731	-387.068755	-387.067811	-387.111236	34.299	
C	-0.0128076834	 1.3963213449	-0.0859736405	-0.232543
O	-0.027766118	 0.0213683154	 0.215751245	-0.244635
C	-1.3033375902	-0.5931849816	 0.0651290479	 0.019686
C	-1.7047578661	-0.8662510185	-1.37737535	-0.117294
C	-1.9569267583	-2.1599900794	-1.5808384466	-0.075454
C	-1.718247291	-2.9688790082	-0.3495079831	-0.128452
C	-0.279775582	-2.9510547066	 0.142753937	-0.308514
C	-1.2841521935	-1.9813869497	 0.7153036111	 0.338723
C	-1.692357159	-2.0842854115	 2.1641053695	-0.494792
H	 0.9901074404	 1.7660147274	 0.1429553075	 0.125288
H	-0.2242837727	 1.5997216031	-1.1466110492	 0.103828
H	-0.7430044618	 1.9555338777	 0.5211040279	 0.100875
H	-2.0533163884	 0.0477913958	 0.5636206372	 0.059743
H	-1.7487213934	-0.0881240789	-2.1300828204	 0.095009
H	-2.2571446599	-2.6018268116	-2.5251367207	 0.097082
H	-2.3473553846	-3.8210383174	-0.1162374722	 0.083907
H	 0.0354719742	-3.7588123328	 0.7963248366	 0.104387
H	 0.4841141681	-2.5801377093	-0.5306273323	 0.121496
H	-1.0101972328	-1.5070984252	 2.7991079228	 0.126385
H	-2.7058597581	-1.6976688391	 2.3237815981	 0.113309
H	-1.6727414895	-3.1218896447	 2.5120522444	 0.111968
