21
gdb 76563	2.74051	1.27318	1.22423	1.2039	86.72	-0.2042	0.0186	0.2229	1185.0524	0.181561	-387.085206	-387.075942	-387.074998	-387.119185	34.673	
C	-0.137017527	 0.9620799315	-1.8880103072	-0.405856
C	 0.004748074	-0.2730036114	-1.025111874	-0.098858
C	 1.341059047	-0.7245970139	-0.4473997357	-0.098856
C	 2.63222817	 0.0262366436	-0.6908126269	-0.405853
C	 0.274729179	-0.1452192839	 0.4611701917	 0.413486
O	 0.4902540687	 1.156146382	 0.9799696366	-0.311934
C	-0.051489181	 1.2408471639	 2.2992727898	-0.127631
C	-0.6300421982	-0.1208059243	 2.573024018	-0.117457
C	-0.4353072139	-0.9004902196	 1.513211287	-0.148796
H	 0.4262658594	 1.8041364801	-1.4823062166	 0.135115
H	 0.209042267	 0.7742323855	-2.9104943001	 0.111794
H	-1.1865279192	 1.2705491419	-1.9434871039	 0.115151
H	-0.6673583012	-1.0835910694	-1.2994724602	 0.077672
H	 1.4633364496	-1.8036385337	-0.3783273552	 0.077671
H	 2.4974520762	 1.1041971491	-0.586985986	 0.135113
H	 3.3930567173	-0.2770187835	 0.0364283541	 0.115151
H	 3.028289173	-0.1785739688	-1.6916649731	 0.111792
H	 0.7447303495	 1.5147273028	 3.0093990547	 0.105917
H	-0.8087986907	 2.0397557102	 2.3377531325	 0.105915
H	-1.1202662026	-0.3843629412	 3.5008789978	 0.104548
H	-0.7331489069	-1.9341040108	 1.3942030966	 0.105917
