22
gdb 121537	6.60304	0.44469	0.43148	2.0755	95.12	-0.2275	0.0396	0.2671	2586.5679	0.193413	-367.166986	-367.156344	-367.1554	-367.205368	37.182	
C	 0.0081656949	 1.5581526103	-0.1317559269	-0.385846
C	-0.0114050405	 0.037848354	 0.0470492725	-0.160967
C	-1.4249307999	-0.550072316	 0.0049819587	-0.14956
C	-1.4362792262	-2.0814240025	 0.1903763215	-0.35958
C	-2.7755851529	-2.6577525168	 0.1543044087	 0.009366
C	-3.8958492711	-3.1035024707	 0.1173326097	 0.143165
C	-5.2196441867	-3.6600896794	 0.100367728	-0.157895
C	-5.8553205657	-4.0427103404	-1.1965919591	-0.227083
N	-5.4245362984	-5.0863899222	-0.2612879208	-0.308159
H	 1.029050888	 1.9508874461	-0.0974335056	 0.113229
H	-0.428884046	 1.8493183632	-1.0932859073	 0.115807
H	-0.567370434	 2.0562745933	 0.6561974049	 0.116273
H	 0.6004202672	-0.4322095325	-0.7345631439	 0.095622
H	 0.4627967014	-0.2256805854	 1.0019029539	 0.096496
H	-2.0430873438	-0.0923166169	 0.7866209187	 0.106705
H	-1.9047315101	-0.3031794535	-0.9497369089	 0.105485
H	-0.8190997118	-2.544988966	-0.5912644576	 0.125578
H	-0.9518363351	-2.3345406318	 1.1433693168	 0.126851
H	-5.8732111123	-3.3333213909	 0.9054646182	 0.113344
H	-6.9313332595	-3.9432081549	-1.3091638502	 0.122523
H	-5.2791535922	-3.8732976489	-2.101308602	 0.12064
H	-4.5342636854	-5.4715735484	-0.5681692893	 0.238007
