21
gdb 104037	2.69741	1.50598	1.30406	0.5582	77.57	-0.2375	0.0898	0.3273	1094.9663	0.181872	-424.219394	-424.210598	-424.209654	-424.25239	34.374	
C	 0.5418045719	 1.1592579243	-0.1289101107	-0.254806
O	 0.5102472603	-0.2383644273	 0.1085830367	-0.270155
C	 0.6176941638	-0.6447237434	 1.4671273725	 0.444238
C	-0.5400848262	-0.1233973689	 2.3138195995	-0.442828
C	 0.7498016314	-2.1890176736	 1.423985959	-0.277337
C	 2.2422797303	-2.4463325598	 1.5394196449	-0.077606
C	 3.1541471964	-1.7024978281	 0.5770260909	-0.317823
C	 2.8380479318	-1.1276569391	 1.9323820358	 0.104853
O	 1.8254279888	-0.1553934054	 2.0442236425	-0.282997
H	 1.3763050915	 1.6355024425	 0.396826682	 0.128079
H	 0.6748799564	 1.2870278434	-1.2058637196	 0.122097
H	-0.3957345141	 1.6503153664	 0.1650501669	 0.107293
H	-1.4942911458	-0.4128019138	 1.8649541543	 0.123496
H	-0.4790888149	-0.538477239	 3.3224379099	 0.122829
H	-0.5051890479	 0.9651853127	 2.3971783895	 0.127247
H	 0.2274867326	-2.6370164099	 2.2745784012	 0.101495
H	 0.2978165383	-2.5659128631	 0.5041946956	 0.119371
H	 2.577534146	-3.3802129936	 1.9745110379	 0.08737
H	 4.151378549	-2.1069412336	 0.4360979978	 0.104941
H	 2.7117017855	-1.2370146367	-0.294889911	 0.134141
H	 3.6055285847	-0.9971851842	 2.6859618146	 0.0961
