20
gdb 78941	2.57315	2.00134	1.50288	1.635	81.25	-0.2213	0.0842	0.3055	968.8953	0.171516	-365.937232	-365.929618	-365.928673	-365.968807	30.889	
C	-0.0644976388	 1.5932169596	 0.0574628654	-0.425959
C	 0.0292593729	 0.0758914635	 0.0533319158	 0.023826
C	 1.0784171943	-0.6447684685	-0.8162795093	-0.010309
C	 1.147004902	-1.8315688613	 0.1884720127	-0.07442
C	 2.6396877758	-1.4987778574	 0.4230548736	-0.120888
N	 2.4570477943	-0.2104102998	-0.3230312398	-0.195322
C	 2.217456013	-0.2851597998	 1.1644634172	 0.357377
C	 2.9771321938	 0.6240703738	 2.0768424885	-0.514365
C	 0.7244322732	-0.6976175625	 1.2072963624	-0.14124
H	 0.9259256098	 2.047195208	 0.1535765068	 0.134394
H	-0.5089520948	 1.9616989327	-0.873637514	 0.115117
H	-0.6869363419	 1.9511125013	 0.8850645874	 0.111799
H	-0.9502327094	-0.3826845344	-0.1354073735	 0.071976
H	 1.0192205882	-0.7213894448	-1.9017478157	 0.069045
H	 0.653622575	-2.7954166977	 0.0971406037	 0.070158
H	 3.5621275275	-2.0679160901	 0.4059206111	 0.09061
H	 4.0108446795	 0.7268161328	 1.7340655445	 0.132425
H	 2.5305243154	 1.6241189873	 2.1050258538	 0.123681
H	 2.9908574412	 0.2320872208	 3.0997913862	 0.11726
H	 0.2560998789	-0.8861001633	 2.1726057032	 0.064835
