18
gdb 80506	2.22693	1.46523	1.23304	4.628	78.28	-0.2306	0.017	0.2477	1109.1485	0.148748	-398.091618	-398.082921	-398.081976	-398.124593	33.113	
C	-0.1635425794	 1.4363916232	-0.2949759557	-0.407236
C	 0.2104740841	-0.0341972016	-0.2471446332	-0.008423
N	 1.4357822571	-0.4570998504	-1.0166312558	-0.358294
C	 1.9041076902	-1.2524542135	 0.1283407481	-0.097725
C	 2.2915403431	-0.3036181164	 1.2092100135	-0.024
N	 2.8275558045	 1.008937171	 0.9737534378	-0.523998
C	 0.8042212073	-0.6418512861	 1.0429448434	 0.151695
C	 0.033967417	-1.2199566861	 2.0872813138	 0.183328
N	-0.5955291031	-1.6940051	 2.9371983493	-0.358125
H	-0.4189498862	 1.730651142	-1.3184820837	 0.117626
H	-1.0411827824	 1.6155792156	 0.3351177227	 0.130402
H	 0.6507867809	 2.0671092825	 0.064686927	 0.146604
H	-0.6458561846	-0.6506582628	-0.543951003	 0.096168
H	 1.1953278719	-1.0310556419	-1.8159450081	 0.234254
H	 2.230581836	-2.2820793933	 0.0348953132	 0.113268
H	 2.6895963239	-0.7839774062	 2.0980358356	 0.119852
H	 3.7941026749	 1.0393471837	 1.2803323845	 0.236624
H	 2.8204519646	 1.1829611001	-0.0292633996	 0.247982
