19
gdb 56642	2.93018	1.07124	0.98971	1.8121	77.31	-0.2553	0.0317	0.287	1274.8517	0.15531	-422.965464	-422.955149	-422.954205	-423.000393	38.183	
C	-0.0975727925	 1.6191270028	 0.3084975564	-0.480481
C	-0.0343730442	 0.1195255265	 0.1095345575	 0.331116
C	 1.2580440144	-0.5051264373	-0.3851181384	-0.368584
C	 0.8060313407	-0.7076028408	 1.0424888015	 0.056045
O	 1.4580168079	-0.0369531187	 2.0808118695	-0.424279
C	-1.3294919356	-0.5364913634	-0.3750708232	-0.12282
O	-2.4024713331	-0.3650119393	 0.5465209341	-0.418041
C	-1.6983469442	-0.0759096934	-1.7199536046	 0.316562
C	-2.017087634	 0.3360871652	-2.803688161	-0.463516
H	 0.8408746474	 1.9928432453	 0.7199338505	 0.133397
H	-0.2984475154	 2.1297995851	-0.638708592	 0.123526
H	-0.8882707625	 1.8825446131	 1.0196914227	 0.115163
H	 1.2094250285	-1.340931345	-1.0760907646	 0.112325
H	 2.0944301932	 0.167214842	-0.5450439157	 0.112824
H	 0.4190969255	-1.6906611191	 1.3130342917	 0.089461
H	 2.324817946	-0.4398582785	 2.1953402844	 0.289058
H	-1.168745342	-1.6212598905	-0.4136857177	 0.109911
H	-2.7525607626	 0.5239565959	 0.4261429085	 0.288442
H	-2.2991400274	 0.68365769	-3.7669312296	 0.199892
