18
gdb 55107	4.71386	0.88728	0.85281	5.0904	73.52	-0.2499	0.0246	0.2745	1372.2971	0.146861	-439.087746	-439.078749	-439.077805	-439.122827	32.778	
N	-0.5228418635	 1.3051556809	 0.7916106297	-0.533183
C	-0.0353664193	 0.3299884599	-0.0277724364	 0.410719
O	 1.1336956153	 0.2847992833	-0.364356143	-0.369269
C	-1.0452051658	-0.701272204	-0.4970974477	-0.099722
C	-1.0737907742	-0.9577524143	-2.0401224759	-0.319183
C	-1.096913173	-2.4524390275	-1.7262818234	 0.466992
C	-2.0253461786	-3.4746700904	-2.2101527417	-0.272823
O	-0.6348981952	-3.4791186542	-2.574794621	-0.268063
C	-0.6209610065	-2.1939275556	-0.2980755899	-0.319182
H	 0.1124717676	 2.0104056934	 1.1278869401	 0.261583
H	-1.4861518972	 1.3450259195	 1.0719602107	 0.258415
H	-2.0462877358	-0.5109243613	-0.1017737938	 0.06231
H	-1.8999112316	-0.5314909912	-2.6131131427	 0.104058
H	-0.1182714749	-0.6635653388	-2.4824163257	 0.142492
H	-2.3356803205	-4.2847760943	-1.5507552906	 0.114167
H	-2.7174516857	-3.2428895172	-3.0192558486	 0.11417
H	 0.467784542	-2.2636463552	-0.2276491005	 0.14247
H	-1.0864383531	-2.7524601129	 0.5167145205	 0.10405
