16
gdb 46743	2.78623	1.84215	1.43869	3.5468	66.67	-0.2176	-0.023	0.1946	914.1926	0.125646	-437.848512	-437.841635	-437.840691	-437.879948	27.133	
O	-0.0190077573	 0.0530368057	 0.3492364455	-0.315732
C	-0.0358304997	 1.2271900903	 0.0885893873	 0.419292
C	-1.2975413116	 2.0705320115	-0.181599087	-0.281501
N	-0.8767735627	 3.3512879296	-0.7723938501	-0.301006
C	 0.5537179047	 3.5168377397	-0.5253846395	-0.055431
C	 0.9746068315	 4.1474750264	 0.8247889643	 0.043184
O	 0.3809791054	 3.3719499306	 1.8737348849	-0.242031
C	 1.5815697471	 2.8802170388	 1.2692748525	 0.017534
C	 1.167338874	 2.1603525265	-0.0371584524	-0.202678
H	-1.9944905553	 1.5283969486	-0.8269360162	 0.123413
H	-1.7916346307	 2.2258286133	 0.7854772603	 0.151883
H	-1.0510781682	 3.3431032665	-1.7689268714	 0.22657
H	 1.0640945304	 3.9816428987	-1.3708531062	 0.08623
H	 1.21818436	 5.1780696262	 1.0567176577	 0.11103
H	 2.4225855949	 2.6713351784	 1.9181486402	 0.117685
H	 1.9862401775	 1.7314255294	-0.6144049099	 0.101557
