20
gdb 95483	2.07854	1.62606	0.96515	4.4932	82.99	-0.2359	-0.0237	0.2122	1239.5022	0.172884	-403.199679	-403.191049	-403.190104	-403.233086	33.101	
C	-0.2510185549	 1.4697211081	 0.0631414933	-0.418075
C	 0.0225283144	-0.033429159	-0.0303996735	 0.062913
C	 0.7636711704	-0.3911586395	-1.3295884946	-0.198801
C	 0.6069123509	-1.8542848117	-1.7455405377	-0.270274
C	 0.9233557143	-2.9048589201	-0.722887178	-0.059606
C	 1.1916612905	-2.8074849445	 0.5830874727	-0.125703
C	 1.2998306067	-1.6409206434	 1.5029041895	 0.365309
O	 1.8395987454	-1.7892268409	 2.5914810071	-0.386233
N	 0.7896213659	-0.4222870508	 1.1464376888	-0.3315
H	 0.6847220455	 2.0375152887	 0.0146841702	 0.128587
H	-0.8906616056	 1.7940541808	-0.7615787002	 0.125451
H	-0.7574542153	 1.7202624757	 1.0010704458	 0.123375
H	-0.9460953031	-0.5577586463	-0.0303067901	 0.086043
H	 0.3827742903	 0.235954358	-2.1434874779	 0.097935
H	 1.8221848042	-0.1392175305	-1.1999166515	 0.112711
H	-0.424895586	-2.0276786308	-2.0888317022	 0.118434
H	 1.2266180695	-2.0461759004	-2.6322450122	 0.116088
H	 0.9305001779	-3.9140508404	-1.1343071174	 0.100995
H	 1.4238326078	-3.7187678409	 1.1259550166	 0.112175
H	 0.8939079314	 0.262270758	 1.8812579314	 0.240176
