20
gdb 113062	3.06565	0.99319	0.88699	4.4663	77.38	-0.2506	0.0267	0.2772	1402.0652	0.170809	-440.30867	-440.298971	-440.298027	-440.34418	34.49	
C	-0.1346206779	 1.5531363394	-0.0633554354	-0.380835
C	 0.2545685536	 0.0741860606	 0.0170340106	-0.160357
N	 0.7636412932	-0.4557484358	-1.2287373141	-0.075034
C	 0.1564048373	-0.6413854486	-2.5560832303	-0.211676
C	 1.5514386812	-1.1275566457	-3.0515360543	-0.166419
C	 2.3202705093	-0.2950188292	-4.0766486485	-0.067818
O	 3.6832897136	-0.6633753398	-4.0832739785	-0.422761
C	 2.0204452171	-0.8339754548	-1.6147920551	 0.419531
O	 3.089594781	-0.8452006169	-1.0466875938	-0.402667
H	 0.7271085396	 2.1675042545	-0.3396543298	 0.133864
H	-0.9250563927	 1.7181657507	-0.8024729296	 0.122173
H	-0.5073881818	 1.8984975394	 0.905640285	 0.125278
H	 1.0506014638	-0.0729899913	 0.7534203164	 0.143071
H	-0.6061714555	-0.5257082213	 0.3409129309	 0.112183
H	-0.6443409033	-1.3877871203	-2.5812737362	 0.11389
H	-0.1965628609	 0.2887737974	-3.0154452454	 0.114707
H	 1.5928561147	-2.1878082171	-3.311638323	 0.109513
H	 1.9393039801	-0.4637524294	-5.0896485031	 0.108803
H	 2.1859776402	 0.777141029	-3.8499482263	 0.084661
H	 3.9851289073	-0.6477272607	-3.1641420194	 0.299891
