18
gdb 8452	4.35716	1.70893	1.51748	1.7573	73.05	-0.2219	0.0124	0.2342	915.039	0.153048	-347.772057	-347.764515	-347.763571	-347.803351	29.489	
C	-0.0197132133	 1.4685058173	 0.0755974671	-0.51739
C	-0.0044766948	-0.0163302765	-0.0089036357	 0.370563
C	-0.0631350012	-0.8744011095	-1.0305342696	-0.258745
C	 0.0043400604	-2.2433886743	-0.3161311756	 0.384222
C	 0.1614573423	-3.516149397	-1.0981406984	-0.508121
C	-1.0294094512	-2.0228477466	 0.8387221743	-0.253209
C	 0.0910102562	-1.0031036447	 1.1814633769	-0.036512
O	 1.0583815151	-1.9811573841	 0.6870896396	-0.316527
H	 0.8899521596	 1.8485302927	 0.5580461366	 0.133328
H	-0.0947651746	 1.9263727567	-0.9146867983	 0.128205
H	-0.8640647685	 1.827097971	 0.6786068918	 0.127968
H	-0.1375708023	-0.700732493	-2.0949694294	 0.100098
H	 1.0763253377	-3.4860018149	-1.6984988919	 0.132266
H	 0.2166719667	-4.3792933419	-0.4295667471	 0.127472
H	-0.6875878955	-3.6540482738	-1.7755387139	 0.121804
H	-2.026017458	-1.6518956315	 0.5886482489	 0.091497
H	-1.064167781	-2.8633890239	 1.537339988	 0.099567
H	 0.2935431824	-0.6284165959	 2.1849139364	 0.073513
