19
gdb 63055	2.86106	1.6323	1.6167	0.3845	73.83	-0.231	0.0669	0.298	949.6703	0.159203	-422.976519	-422.968923	-422.967979	-423.007941	31.126	
C	-0.082571366	 1.5956084169	 0.0692068998	-0.46411
C	 0.0419132426	 0.0870573212	-0.0154560766	 0.394806
O	-1.2129962697	-0.5685877604	 0.1411109866	-0.47793
C	 0.6879589565	-0.5930948946	-1.2569069345	-0.081554
C	 2.0689305584	-0.0078165432	-1.653800412	-0.261943
C	 2.6984909493	-0.7048130627	-0.4276073931	 0.10476
O	 2.3923375668	-0.0034204534	 0.8031062482	-0.307197
C	 1.0947501777	-0.63080982	 0.8830448382	 0.044176
C	 1.4277990154	-1.592747362	-0.2861235715	-0.090426
H	 0.9010254232	 2.0697788116	 0.0522641875	 0.135323
H	-0.6857351995	 1.9837586296	-0.7577578019	 0.121242
H	-0.5706211731	 1.8855269103	 1.0086839135	 0.10228
H	-1.5676402957	-0.3195885012	 1.0023336387	 0.275423
H	-0.0100941033	-0.8841502797	-2.0407299519	 0.07665
H	 2.4226907215	-0.4815089083	-2.5758795128	 0.104998
H	 2.1894931725	 1.0754151558	-1.7392830088	 0.103501
H	 3.7389511988	-1.0330234534	-0.4588051937	 0.077171
H	 0.8135313958	-0.8969807879	 1.9063310783	 0.065822
H	 1.3725092788	-2.6767961385	-0.2876159441	 0.077008
