15
gdb 133020	2.85968	1.36377	0.92869	4.0071	75.33	-0.2077	-0.0454	0.1623	1182.2735	0.11344	-458.13742	-458.129512	-458.128568	-458.170483	28.853	
C	 0.0908841343	 1.4250103811	 0.0733024416	-0.327263
N	 0.003606237	-0.0199477627	 0.1374818843	-0.354309
C	-1.1353492635	-0.5786180056	 0.0579253993	 0.461811
N	-1.1486994357	-1.9961510744	 0.1277164801	-0.336027
C	-2.2738215434	-2.7324462239	 0.0583655027	 0.068351
C	-3.4848885998	-2.1286284454	-0.0862781076	-0.324987
C	-3.4257282033	-0.7049786492	-0.1520556016	 0.345642
F	-4.5910610085	-0.0826385839	-0.2933192968	-0.06524
N	-2.3777532567	 0.0292724276	-0.0898795051	-0.372721
H	 0.7383173006	 1.7134691787	-0.764241068	 0.114996
H	-0.8773553856	 1.9241849586	-0.043230756	 0.131198
H	 0.5730277839	 1.801119953	 0.9843145067	 0.114996
H	-0.2401744458	-2.4220758656	 0.2348669227	 0.270807
H	-2.1508207341	-3.8071208213	 0.1238536513	 0.148017
H	-4.4149123494	-2.670961557	-0.1469176337	 0.124729
