19
gdb 106068	2.49077	1.61267	1.35186	1.0854	75.3	-0.2239	0.0793	0.3032	1053.4165	0.157469	-422.94983	-422.941255	-422.940311	-422.982933	32.53	
C	 0.1823265169	 1.2980752669	 0.387274647	-0.256738
O	-0.1603063409	-0.0264365975	-0.0081051546	-0.275223
C	 0.5075346058	-0.4639937209	-1.1087108633	 0.319225
C	 0.8453318515	-1.8717518972	-1.535413229	-0.190077
C	 0.2116955877	-1.6855731099	-2.9094823919	-0.260531
C	 0.4555982779	-0.1643045195	-2.6959299384	 0.329627
C	-0.243590154	 0.9078258473	-3.4715239453	-0.506795
O	 1.9119474389	-0.0653476474	-2.7119372609	-0.316391
C	 1.9279444726	-0.7489191544	-1.4660367442	-0.010455
H	 1.2588411316	 1.3854588663	 0.5805276052	 0.120322
H	-0.1006055474	 2.0316716587	-0.3782408501	 0.120877
H	-0.3723952672	 1.5060594477	 1.3043722426	 0.130545
H	 0.9068762338	-2.7569889986	-0.915815445	 0.095355
H	 0.7017556545	-2.1237100791	-3.7846202308	 0.097758
H	-0.8533389322	-1.9317740759	-2.8971104868	 0.104425
H	-1.3279811966	 0.8168910927	-3.3590697606	 0.127333
H	 0.0631451003	 1.9018309814	-3.1341687316	 0.128589
H	-0.0017956565	 0.8205386606	-4.5370286794	 0.133319
H	 2.8498519634	-0.8218801112	-0.9052835827	 0.108837
