20
gdb 15266	3.61678	1.25521	1.16193	2.4916	71.33	-0.2473	0.0578	0.3051	1136.9544	0.176637	-386.119038	-386.109944	-386.109	-386.152944	33.596	
C	-0.378171662	 1.485806406	 0.1897972854	-0.379655
C	 0.1442936428	 0.0737641311	-0.1032554641	-0.191681
C	 0.8163595754	-0.5374981673	 1.1089985717	-0.035324
C	 0.0353638389	-1.3805492605	 2.0833937194	 0.097205
O	-1.2949103422	-1.6757700636	 1.7778537086	-0.429137
C	 1.1166595129	-2.0288719753	 1.2430619911	-0.139565
C	 0.6866351476	-3.0501539442	 0.2108096362	-0.106699
O	-0.1447617362	-4.0792708371	 0.7774496103	-0.418899
H	 0.4321521604	 2.1549564959	 0.5005263291	 0.108533
H	-0.8500899308	 1.9229673338	-0.6956670493	 0.108625
H	-1.1212383602	 1.4629719412	 0.9928327791	 0.13118
H	-0.6965729648	-0.5532740587	-0.4109166636	 0.114743
H	 0.8498469842	 0.106809735	-0.9435365726	 0.089262
H	 1.5709984379	 0.1034846855	 1.5601833214	 0.080345
H	 0.2294498499	-1.2467435249	 3.1475224485	 0.080354
H	-1.3319849759	-2.6285842712	 1.6083443739	 0.294782
H	 2.0400501553	-2.2774003255	 1.761250521	 0.080838
H	 0.0746312992	-2.6021187008	-0.5730519241	 0.126594
H	 1.5632499802	-3.4978790342	-0.2764917141	 0.101554
H	 0.3591152274	-4.5065210854	 1.4783788421	 0.286944
