17
gdb 114610	3.50894	1.05797	0.93279	0.9719	70.2	-0.2572	-0.0374	0.2198	1251.196	0.134273	-458.921304	-458.912749	-458.911805	-458.954887	31.375	
O	-0.0604384186	 1.4922010052	-0.4275497369	-0.415757
C	 0.115585707	 0.1712036725	 0.0444428437	-0.081566
C	-1.2207534136	-0.5409637719	 0.140270044	 0.045694
O	-1.9081152769	-0.5668567805	-1.153068596	-0.304999
C	-2.1166130769	-1.9663210853	-1.0434777465	 0.088772
C	-0.8587773804	-2.7390140982	-1.0175764622	-0.354611
C	-1.3040457042	-2.0628968166	 0.272763654	 0.136293
C	-1.6681784302	-2.8234441845	 1.4743726379	 0.062597
O	-1.7899885493	-4.0265306834	 1.5144749799	-0.27512
H	-0.5301452693	 1.4229131779	-1.2673531664	 0.296836
H	 0.8054661871	-0.4005453531	-0.5935130705	 0.092593
H	 0.5652454737	 0.2431266405	 1.0411837637	 0.117714
H	-1.8692268372	-0.0339322379	 0.8659920989	 0.100386
H	-3.1017897318	-2.3575373039	-1.2695342886	 0.131661
H	-0.9748562737	-3.8168722659	-0.9676211847	 0.155963
H	 0.0118161893	-2.3748003596	-1.5526647399	 0.129383
H	-1.854022055	-2.1960634052	 2.3755101895	 0.074161
