19
gdb 81943	2.33003	1.77829	1.18467	2.7146	74.16	-0.2502	-0.0297	0.2205	1074.6696	0.15919	-423.046526	-423.038092	-423.037148	-423.079394	32.565	
C	 0.1439414918	 1.6168468612	 0.0522270515	-0.39284
C	 0.0899816747	 0.0905192648	-0.0059328042	-0.105018
C	 0.7854143916	-0.5842036159	-1.1855101799	-0.049051
C	 2.2942304411	-0.621215331	-1.1636474504	-0.294519
C	 1.5197872083	-1.8304427292	-0.7088760254	-0.059595
C	 1.2906048066	-1.9687696137	 0.7808755074	 0.054317
O	 2.4200172201	-2.3196641088	 1.538699269	-0.441139
C	 0.7612597882	-0.5842431422	 1.1886866895	 0.330188
O	 0.9630371984	-0.1104291674	 2.2801333884	-0.330934
H	 1.1756865977	 1.9723180912	-0.0250494562	 0.126124
H	-0.4301040583	 2.0591137703	-0.7668629068	 0.115352
H	-0.2646665276	 1.9764425439	 1.000266451	 0.134835
H	-0.9632506107	-0.2317725557	 0.0080127568	 0.106586
H	 0.2825636963	-0.5812536346	-2.1457062191	 0.089619
H	 2.8065830236	-0.6891596615	-2.1162559484	 0.118809
H	 2.8307847423	-0.0428507431	-0.4168637591	 0.126536
H	 1.5406054249	-2.7275917432	-1.3152996143	 0.093226
H	 0.4706732356	-2.6932710598	 0.9466040998	 0.087667
H	 2.3607269156	-1.7946991451	 2.3511185102	 0.289837
