21
gdb 26099	3.07798	1.21864	1.08078	3.3227	84.3	-0.2173	0.0356	0.2528	1227.6248	0.182991	-383.324409	-383.315179	-383.314235	-383.35801	35.687	
C	-0.2857212585	 1.5050349387	-0.1434944463	-0.399467
C	 0.0172630735	-0.0003794023	 0.0163934527	 0.152564
C	 0.8614147831	-0.2259833396	 1.2814705635	-0.413964
C	-1.3124666406	-0.7758756919	 0.1348591319	-0.399465
C	 0.7588156361	-0.4836926977	-1.208747655	 0.309542
C	 2.0024201696	-1.055747955	-1.3113236777	-0.217764
N	 2.190340717	-1.3041295278	-2.6556061049	-0.243328
C	 1.0700017111	-0.8793550126	-3.3013789091	 0.008846
N	 0.1909445799	-0.3818114511	-2.4657588804	-0.310628
H	 0.640150671	 2.0874528221	-0.197114479	 0.104205
H	-0.8510114739	 1.6852245001	-1.0611355978	 0.132739
H	-0.8714031383	 1.8733277129	 0.706225315	 0.099104
H	 0.3208482859	 0.1252952733	 2.1662907685	 0.107752
H	 1.0857849566	-1.2880168209	 1.4283641012	 0.107549
H	 1.8096398992	 0.3201623217	 1.2321571538	 0.107545
H	-1.9056243812	-0.6576596538	-0.7752356601	 0.132748
H	-1.1302990501	-1.8455615095	 0.282891195	 0.104204
H	-1.8988556373	-0.4091189711	 0.9847537738	 0.099095
H	 2.7537226386	-1.3046900351	-0.5818170427	 0.127115
H	 3.0037833937	-1.7211597235	-3.0752011807	 0.264341
H	 0.9557375746	-0.9587929871	-4.3724949616	 0.127267
