15
gdb 16165	4.5374	1.69936	1.44469	1.7862	60.3	-0.2482	0.0072	0.2554	856.8408	0.119918	-399.786076	-399.77922	-399.778276	-399.817338	25.913	
O	 0.0168030722	 1.4553014653	 0.2494305382	-0.414194
C	 0.0393778134	 0.0798451385	-0.0819149639	-0.14641
C	-1.3437992752	-0.5159244749	-0.0466059406	 0.308506
C	-1.9984719642	-1.0126459331	 1.2261746462	-0.346628
C	-1.7490364295	-1.9732069986	 0.0989783285	 0.008544
O	-2.8227905428	-2.1561835525	-0.8191024373	-0.212015
C	-3.0273767666	-0.9318825247	-1.3680191912	 0.098724
N	-2.2653569228	 0.0285290935	-1.0301732425	-0.315856
H	-0.6452078583	 1.8600702043	-0.3238516777	 0.296804
H	 0.4794016242	-0.084443059	-1.0783846587	 0.093393
H	 0.6834096352	-0.4134499178	 0.6534733905	 0.104741
H	-1.3503084562	-1.1205484334	 2.089399882	 0.128294
H	-3.0166121831	-0.7078934156	 1.4439428594	 0.127774
H	-1.1098759602	-2.8429239257	 0.1780480878	 0.119749
H	-3.8470283662	-0.8813471363	-2.0741837307	 0.148573
