18
gdb 72075	2.92154	1.62724	1.45992	2.562	74.89	-0.213	-0.011	0.202	972.4954	0.150189	-401.963858	-401.956725	-401.955781	-401.995123	28.986	
C	-0.021807071	 1.4719518299	 0.0320180573	-0.49961
C	 0.0162371771	-0.0290061336	-0.0265166891	 0.323801
C	 0.2576515105	-0.7948082919	-1.3358962953	-0.260819
C	 0.2303147273	-2.2080044317	-0.7195695393	-0.160944
N	 1.2142012209	-2.0562238251	 0.3811979761	-0.30426
C	 0.6057253593	-0.8930702292	 1.0385617646	-0.059027
C	-0.9165462632	-0.9115632393	 0.8376326422	-0.260921
C	-1.1388533676	-2.1437008162	 0.0161382668	 0.449553
O	-2.0885539658	-2.8759378104	-0.0657375293	-0.34313
H	 0.9118690261	 1.8971849774	-0.3539853103	 0.127075
H	-0.8451507919	 1.8722075159	-0.5695444096	 0.126845
H	-0.153491906	 1.8301106613	 1.057785776	 0.121999
H	-0.5337823405	-0.6439291461	-2.0762140554	 0.110856
H	 1.2281057109	-0.5546274291	-1.7800115856	 0.111026
H	 0.3999250956	-3.0666238364	-1.3636974192	 0.089324
H	 1.1685685309	-2.8693000799	 0.9942946899	 0.224075
H	 1.0665090567	-0.5058148856	 1.937715021	 0.102151
H	-1.6338227495	-0.5104396599	 1.5386240795	 0.102005
