17
gdb 33677	3.0715	1.49259	1.41975	4.995	76.95	-0.2473	0.0098	0.2571	984.1915	0.139161	-380.84695	-380.840093	-380.839149	-380.878153	27.463	
N	-0.0189965015	-1.1254618413	 0.0124307265	-0.356675
C	-0.0099568056	 0.0320887198	 0.0097216506	 0.173856
C	-0.0185004939	 1.4543119736	 0.0054256399	 0.260379
C	-0.7402738037	 2.4883258212	 0.8597749907	-0.141415
C	 0.5998511381	 3.1867680465	 1.0353015257	-0.183375
N	 1.2161975011	 2.2975672153	-0.0211763028	-0.161731
C	 1.1555189122	 2.9782414758	-1.3320038713	-0.176188
C	-0.3472888946	 3.3039804016	-1.5956206367	-0.256254
C	-1.0530607438	 2.3660987898	-0.6211995515	-0.089928
H	-1.4894486979	 2.304504257	 1.6198709717	 0.115295
H	 0.6521311369	 4.2587638252	 0.817276035	 0.107826
H	 1.061100054	 2.9912046138	 2.0061788163	 0.126921
H	 1.7988522369	 3.8617536397	-1.3191932595	 0.113533
H	 1.5395289103	 2.2882267976	-2.0895793194	 0.12288
H	-0.5845641059	 4.3531938255	-1.3933880318	 0.113163
H	-0.6394407838	 3.0964575912	-2.6284217855	 0.115798
H	-2.0227757688	 1.9462586578	-0.8609381479	 0.115916
