21
gdb 76412	2.89329	1.14439	1.02761	2.2147	79.38	-0.2253	0.0554	0.2808	1281.4399	0.180445	-424.19276	-424.182852	-424.181908	-424.227491	37.239	
C	-0.0115809542	 1.5837962434	 0.436376698	-0.420509
C	-0.015729261	 0.0998183433	 0.147206409	-0.118973
C	 1.1682822359	-0.5819369119	-0.5220407957	-0.014904
O	 2.3615961552	 0.1313924902	-0.7303367758	-0.432147
C	 0.8712799656	-0.8603629999	 0.932088298	 0.386108
O	 1.776970528	-0.3030806216	 1.8410181141	-0.477537
C	 0.3416848391	-2.1914878359	 1.3662663403	-0.035568
C	 1.2405915496	-3.1814015022	 2.0636211763	-0.268498
C	 0.1398850966	-2.4905573569	 2.8308680394	-0.269154
H	 0.9425701628	 1.903254375	 0.8601768885	 0.123215
H	-0.2079380127	 2.1740735471	-0.4668651454	 0.106057
H	-0.7889521489	 1.8324817302	 1.1654770134	 0.127389
H	-0.9812135323	-0.3030640528	-0.1504402219	 0.083285
H	 0.9801500533	-1.3573540459	-1.2630841544	 0.089567
H	 2.1712475499	 0.911700078	-1.2611537077	 0.297726
H	 2.5217674564	 0.0176008158	 1.3126569412	 0.294795
H	-0.3964839985	-2.6035064165	 0.6838096955	 0.075161
H	 1.1289286934	-4.2331693365	 1.8243465402	 0.103153
H	 2.2559594393	-2.8630480981	 2.2682916581	 0.118805
H	 0.4372688845	-1.7245005661	 3.537014575	 0.12848
H	-0.7330827419	-3.0651540488	 3.120337104	 0.10355
