27
gdb 122127	2.05907	0.69633	0.55557	1.3219	93.35	-0.2614	0.0808	0.3422	2111.9923	0.250017	-390.699283	-390.687039	-390.686095	-390.737937	43.424	
C	 0.1416183216	 1.526844914	-0.1412274689	-0.388026
C	 0.0404178867	-0.0018807911	-0.1751902181	-0.181562
C	-1.3787767858	-0.5592898604	 0.0644886079	 0.060346
C	-2.2841899679	-0.3247779472	-1.1630227359	-0.182212
C	-3.785660105	-0.4585787888	-0.887329989	-0.388146
C	-1.3334276635	-2.0547432199	 0.4437816394	-0.201829
C	-0.8401593834	-2.3389338574	 1.8669671639	-0.173941
C	-0.8170813074	-3.8259427822	 2.1957269905	-0.073449
O	-0.3492973825	-3.9748816545	 3.5286818927	-0.422259
H	 1.1725167705	 1.8548055772	-0.3086665957	 0.110657
H	-0.4792311213	 2.0017401141	-0.9074683726	 0.116837
H	-0.1767803418	 1.9190391037	 0.8311944388	 0.114324
H	 0.4058850521	-0.3763179076	-1.1417769395	 0.089979
H	 0.7221845548	-0.4080464444	 0.5805161472	 0.09479
H	-1.8165610452	-0.0109833621	 0.9132058578	 0.06194
H	-2.0966188589	 0.6773891482	-1.5648315394	 0.092686
H	-1.9891819414	-1.0257862871	-1.9564787298	 0.089944
H	-4.3690433913	-0.2719872099	-1.7946751197	 0.110554
H	-4.054385884	-1.456845486	-0.5275593464	 0.116618
H	-4.1112740332	 0.2632029442	-0.1297800569	 0.11396
H	-2.3349600048	-2.4886353831	 0.3340088159	 0.090178
H	-0.6969696818	-2.5821105257	-0.2818858788	 0.089018
H	 0.1696308106	-1.9430970234	 2.023298483	 0.108734
H	-1.4877320214	-1.8342682395	 2.594760016	 0.103413
H	-1.828848134	-4.2489867631	 2.0795490339	 0.081633
H	-0.1620866903	-4.3540456738	 1.4828462516	 0.081905
H	-0.3360568214	-4.9128956943	 3.7393740423	 0.283907
