20
gdb 40572	4.16702	1.15323	1.08012	1.8543	81.8	-0.2392	0.0853	0.3245	1190.9391	0.173245	-365.936981	-365.929642	-365.928697	-365.969159	29.475	
C	-0.0994453234	 1.4694052853	-0.0940028009	-0.271314
C	 1.3162396442	 0.98569071	 0.0817702257	-0.269115
C	 0.1879448709	-0.0126844417	-0.0313126404	-0.009094
C	-0.2354639035	-0.806097662	 1.1749679414	 0.029685
C	-1.5505694204	-1.5707434988	 1.2206305135	-0.074135
C	-1.3312688583	-2.9554377065	 0.6982470183	-0.038279
C	 0.1262345504	-3.1140627349	 0.3075982886	-0.240519
C	 0.3816223988	-2.187777993	 1.5114636083	-0.036667
N	-0.9885777907	-2.6307873246	 2.1277765514	-0.168672
H	-0.5894272331	 1.9251211806	 0.7604121686	 0.112085
H	-0.3841362769	 1.8982663186	-1.0482952862	 0.112181
H	 2.0035607773	 1.0835026507	-0.7510725787	 0.111772
H	 1.7787858666	 1.1161823512	 1.0549433522	 0.111596
H	 0.1166083711	-0.5404812876	-0.9776762706	 0.082576
H	-0.1722791148	-0.179108209	 2.072780412	 0.07807
H	-2.5475883127	-1.1734051452	 1.3778791274	 0.090036
H	-2.1616505043	-3.6107454931	 0.4593192502	 0.093037
H	 0.4713215227	-4.1292912037	 0.5199196691	 0.111409
H	 0.4692848927	-2.8097382163	-0.6864226632	 0.096279
H	 1.2896491036	-2.2683100502	 2.1061151733	 0.079069
