14
gdb 3699	3.7373	3.28919	1.77295	2.4807	59.57	-0.1916	0.0358	0.2274	688.8918	0.115244	-320.777491	-320.770465	-320.769521	-320.808243	25.509	
C	-0.0517876273	 1.4766028889	-0.0326902996	-0.505398
C	-0.0180364381	-0.016227227	 0.0330365535	 0.319174
N	-0.0128320589	-0.7622732361	-1.072569119	-0.285625
N	 0.0107840121	-2.028830025	-0.6339888143	-0.189108
C	 0.0274344815	-2.1253376115	 0.7259733202	-0.10888
C	 0.0083278902	-0.8286551259	 1.1984236596	 0.123625
N	-0.0631529173	-0.372539446	 2.5277977503	-0.609369
H	 0.8423725264	 1.9277885577	 0.4172585245	 0.115503
H	-0.1023299362	 1.8001979917	-1.0743384508	 0.141296
H	-0.920094674	 1.8825085128	 0.4995287657	 0.130259
H	 0.0123980176	-2.7783512352	-1.3026146533	 0.269527
H	 0.0455988008	-3.0767069033	 1.2333380664	 0.116976
H	 0.2774584482	-1.0547169135	 3.193203203	 0.239635
H	 0.448752185	 0.4909606125	 2.6617959539	 0.242386
