18
gdb 116116	2.57471	1.31156	0.91009	5.0694	68.92	-0.2571	0.0506	0.3077	1249.1254	0.149364	-476.271291	-476.262722	-476.261777	-476.305056	31.598	
O	-0.0052266585	 1.4089920678	 0.0982565731	-0.421961
C	 0.0304378595	 0.0021346787	 0.0324040931	-0.067659
C	-1.3697131801	-0.5952322972	-0.0551429684	 0.112572
C	-1.4080794411	-2.1145010069	-0.0976875617	-0.233597
C	-2.8659134496	-2.5649666877	-0.1072988962	-0.162933
N	-3.5997470902	-1.8265286336	 0.9078613103	-0.361444
C	-3.2300212083	-0.6632152636	 1.5254500549	 0.463545
O	-3.8739571641	-0.1354804312	 2.3968778849	-0.390604
O	-2.0498842811	-0.1128121091	 1.1224774607	-0.273573
H	-0.5916675248	 1.6334258823	 0.8308678103	 0.299503
H	 0.5957287713	-0.2636617379	-0.8671966147	 0.110226
H	 0.5477935969	-0.4370381862	 0.9010409079	 0.094853
H	-1.877971485	-0.1744217054	-0.9344426321	 0.096423
H	-0.8945874678	-2.4838466374	-0.990186251	 0.117632
H	-0.8915751696	-2.5139694282	 0.7822186591	 0.122705
H	-3.3010527811	-2.3962419613	-1.1032318302	 0.114343
H	-2.9422194243	-3.6375380864	 0.1016602782	 0.119008
H	-4.488592392	-2.1759580364	 1.2264991516	 0.260962
