19
gdb 57877	2.5899	1.21901	0.93043	3.3962	75.32	-0.2526	-0.006	0.2467	1298.0563	0.15752	-456.396829	-456.386235	-456.385291	-456.433293	35.803	
C	-0.5722106601	 1.1296759716	 0.2095771857	-0.330852
N	 0.2081534816	-0.0973109069	 0.1229080668	-0.11787
C	 1.0390220213	-0.3790988536	 1.2873469055	-0.349756
C	 0.4450463607	-0.5912073581	-1.137498588	 0.45713
O	 0.170057121	 0.0085495707	-2.1579195187	-0.386372
N	 1.0234724677	-1.8883227994	-1.1986221457	-0.155898
C	 1.7653806509	-2.2161542831	-2.4181926094	-0.340239
C	 0.5933438186	-2.9218484212	-0.3847413815	 0.1513
O	 0.9367844244	-4.0748958057	-0.4998835307	-0.317013
H	 0.0724495269	 2.0190362322	 0.2140241768	 0.127326
H	-1.2398222822	 1.1932349627	-0.6477786588	 0.163677
H	-1.1563157863	 1.1194857191	 1.1353454982	 0.124113
H	 1.5405760359	 0.5414958731	 1.6132408084	 0.131337
H	 0.4398189529	-0.7530995729	 2.1258668094	 0.133688
H	 1.8052312349	-1.1140877881	 1.0479083536	 0.155981
H	 2.5897084846	-1.5124335491	-2.5506841899	 0.13542
H	 2.1482726397	-3.2285815146	-2.3027504329	 0.162176
H	 1.1124604827	-2.1566902712	-3.2917067813	 0.154004
H	-0.1184755854	-2.5794976856	 0.3836107326	 0.101848
