15
gdb 124177	3.50716	0.97954	0.77305	4.8014	79.56	-0.2584	-0.0497	0.2088	1429.572	0.110812	-416.759321	-416.750293	-416.749348	-416.796179	30.572	
C	 0.0111232809	 1.4681828668	 0.0232790222	-0.50836
C	 0.0130738756	 0.0161704859	-0.0269826267	 0.184592
C	 0.0304839245	-1.1883927523	-0.0705703493	-0.023318
C	 0.0041095909	-2.5992794839	-0.1164949302	 0.172761
N	 1.0759633365	-3.3472285357	-0.2615316479	-0.175105
O	 0.6300855103	-4.6320691286	-0.25653031	-0.158813
N	-0.7315287387	-4.6948936406	-0.1074109771	-0.12423
C	-1.1427793025	-3.4613208489	-0.0189358935	 0.203797
C	-2.5746894307	-3.0877906211	 0.153140784	-0.511807
H	 0.6532473904	 1.833315038	 0.8320640871	 0.163185
H	 0.3819216452	 1.8937171005	-0.915515718	 0.162918
H	-0.998438828	 1.8566541018	 0.193304593	 0.157792
H	-2.7168111339	-2.5176037208	 1.0765413321	 0.149798
H	-2.9110013662	-2.455446176	-0.6745066114	 0.149801
H	-3.1963438442	-3.983468755	 0.1903284959	 0.156987
