17
gdb 106010	3.36006	1.71792	1.47323	0.6646	70.01	-0.2307	0.0772	0.3079	925.3411	0.136043	-421.726246	-421.719258	-421.718314	-421.757668	27.837	
C	 0.0660408635	 1.3599027799	 0.0249334999	-0.261556
O	 0.0338337886	-0.0605178025	-0.020159674	-0.294963
C	-1.2189768423	-0.5911477787	-0.0014150053	 0.449979
C	-1.5125549033	-2.1158926927	-0.043052548	-0.199341
C	-2.8009842375	-1.780242381	-0.7586874499	-0.083318
C	-2.7568645977	-1.8303941429	 0.7662983708	-0.083316
C	-2.3971932779	-0.3409446719	 1.0315248165	-0.038601
O	-3.1313150865	 0.4651472239	 0.0886912691	-0.285065
C	-2.4544605204	-0.2758883775	-0.9458725138	-0.038621
H	 1.1178836296	 1.6500680277	 0.0050894067	 0.130966
H	-0.4500137716	 1.7989695426	-0.8381403156	 0.124608
H	-0.4005661396	 1.7414106514	 0.9418308765	 0.124665
H	-0.869306515	-2.9812535143	-0.0901231781	 0.10047
H	-3.4368012704	-2.4157140588	-1.3588250191	 0.095605
H	-3.3581683877	-2.5050915882	 1.3591461236	 0.095606
H	-2.3532804004	 0.0621635211	 2.0418289684	 0.081441
H	-2.4682859214	 0.192747402	-1.9283835876	 0.081441
