16
gdb 9369	5.54976	0.90799	0.81567	1.8398	58.41	-0.2752	-0.0028	0.2724	1351.0697	0.128418	-458.034662	-458.025533	-458.024589	-458.069788	30.961	
O	-0.0207369879	 1.3942242952	-0.0758292739	-0.415413
C	-0.0571091692	-0.0177055492	-0.0492956272	-0.070665
C	-1.4729877958	-0.5567257608	 0.0329216518	-0.07916
O	-2.1430352982	-0.1272415842	-1.1767430411	-0.253107
C	-3.4115622255	-0.5233307064	-1.3279108215	 0.417351
O	-4.0162391046	-1.2146624027	-0.5433049502	-0.365002
C	-4.0318604346	-0.0098758278	-2.6149468624	-0.143484
O	-5.3485729965	-0.4614597643	-2.7446276175	-0.417206
H	-0.5322960915	 1.6739457145	-0.8426465052	 0.2915
H	 0.4488599476	-0.4556289262	-0.9238350483	 0.101033
H	 0.4913335432	-0.3326343062	 0.8443654429	 0.12215
H	-1.4935577975	-1.6491194841	 0.0909498495	 0.127691
H	-2.0056268635	-0.1463204811	 0.8953454188	 0.135729
H	-3.9820124752	 1.0898219571	-2.6049577514	 0.123828
H	-3.4075337794	-0.3454276162	-3.4565587066	 0.126466
H	-5.5263490512	-0.9837323875	-1.9482714477	 0.298289
