19
gdb 80467	2.52605	1.57193	1.32995	3.6817	76.34	-0.2334	0.017	0.2504	1056.6395	0.16017	-419.217525	-419.2089	-419.207955	-419.250674	31.947	
C	-0.1789313483	 1.5043227335	 0.1378630124	-0.324033
N	 0.0517819148	 0.0782347368	-0.0534520256	-0.089917
C	 0.6499437758	-0.4554042297	-1.2595431649	-0.046604
C	 1.4436086132	 0.4701503641	-2.177835998	-0.206106
N	 2.5229768087	 0.9663762072	-1.3430506496	-0.069815
C	 3.5000564966	 1.9182711369	-1.8163586368	-0.346338
C	 2.5901806512	 0.3874365517	-0.0971688226	 0.39989
O	 3.4628528369	 0.5765819581	 0.7257755271	-0.394948
C	 1.3849439509	-0.5174373066	 0.0441787333	-0.157772
H	 0.5946445577	 2.1660253134	-0.2740525287	 0.116938
H	-1.1379267029	 1.7608304705	-0.3229719631	 0.125228
H	-0.2562207588	 1.6988285549	 1.2111762559	 0.137415
H	 0.1516239361	-1.310683047	-1.7052628053	 0.1039
H	 1.8328923049	-0.0895640319	-3.0401274207	 0.114251
H	 0.8347549363	 1.296316875	-2.571903434	 0.112861
H	 3.0318457932	 2.8717354083	-2.0901450379	 0.122758
H	 4.2136994107	 2.0843913474	-1.0074898432	 0.167383
H	 4.0352453214	 1.5337346657	-2.6940398562	 0.123249
H	 1.4873840218	-1.3923518282	 0.6767711379	 0.111662
