17
gdb 50845	3.61744	0.95298	0.78657	4.8306	71.64	-0.2494	-0.0201	0.2293	1403.1915	0.136211	-455.154461	-455.145722	-455.144778	-455.188728	31.206	
N	 0.3638590975	 1.1259293825	-1.5575316534	-0.494972
C	-0.1475804938	 0.3540624784	-0.6916359728	 0.355569
C	-1.5953313711	-0.0877089793	-0.8008507221	-0.303386
C	-2.4143027677	 0.2336364437	 0.4309565593	 0.081858
C	-3.386418589	-0.7161200152	 0.9841726572	-0.178017
O	-2.1095683957	-0.5390045424	 1.6081133683	-0.243886
N	 0.5030856301	-0.2054841019	 0.43219043	-0.333674
C	 1.8148929602	-0.0271935206	 0.7877158175	 0.163704
O	 2.6383754853	 0.6119186946	 0.1702753703	-0.302309
H	 1.3469364507	 1.3018068176	-1.3444230368	 0.252313
H	-2.017339888	 0.4110231882	-1.6757701551	 0.14431
H	-1.6282973903	-1.1706827572	-0.9745423789	 0.118707
H	-2.5585185598	 1.2940209514	 0.6369599995	 0.116878
H	-4.232769225	-0.3524399827	 1.5631544452	 0.12909
H	-3.5360898221	-1.6746599229	 0.4899441444	 0.124634
H	-0.0838520427	-0.7295206	 1.0701270318	 0.274154
H	 2.0518106314	-0.5528509842	 1.7324110653	 0.095028
