15
gdb 16289	3.41133	1.78499	1.45489	2.6193	67.56	-0.2429	0.0072	0.2501	879.0127	0.120845	-358.806062	-358.798915	-358.797971	-358.837327	27.207	
N	 0.1155263855	 1.4606323863	-0.0209251021	-0.505384
C	 0.0560506441	 0.0267395903	 0.0491069631	-0.037578
C	 0.2270430693	-0.60705146	 1.4769715265	-0.220403
C	-1.1330039355	-1.2866859996	 1.3224563052	-0.106642
N	-2.1142725083	-0.2071338499	 1.1111838533	-0.368638
C	-1.3232871503	-0.707532251	-0.0475444444	 0.234244
C	-1.9455326146	-1.2583821613	-1.2014771482	 0.155419
N	-2.4233668388	-1.6889546341	-2.1651788046	-0.344778
H	-0.0013271106	 1.7850276367	-0.9758646046	 0.235729
H	-0.6405499834	 1.8563371765	 0.5315680441	 0.244397
H	 0.7629076668	-0.4069737991	-0.6615352062	 0.102367
H	 1.0649238253	-1.3041917632	 1.5265816808	 0.118569
H	 0.2912548399	 0.1101994759	 2.2975363054	 0.121165
H	-1.4443011871	-2.2590317793	 1.6819258778	 0.121627
H	-3.0429633723	-0.6246629382	 1.0549390139	 0.249907
