17
gdb 14978	4.68247	1.51255	1.20912	2.0682	65.81	-0.2516	0.0254	0.2769	994.5817	0.143259	-401.008658	-401.000994	-401.00005	-401.040955	27.735	
C	-0.1048634488	 1.371751351	 0.0103497037	-0.246363
O	-0.0914108665	-0.0463812395	-0.0618587511	-0.22972
C	 0.6437295058	-0.5603394836	-1.1099067301	 0.242437
C	 0.732688768	-2.0695681063	-0.9831389329	-0.264925
C	 1.3741636552	-2.6476776822	-2.2493250684	-0.165378
N	 0.7992667509	-2.1153416813	-3.4812665281	-0.262248
C	 0.1797551222	-1.016717781	-3.4127773707	 0.133357
O	-0.0125247239	-0.1983527823	-2.3464877664	-0.248344
H	 0.9170681481	 1.7750707595	 0.061800068	 0.110032
H	-0.6182713001	 1.8127987998	-0.8506369378	 0.133941
H	-0.6388078278	 1.6342454332	 0.925435622	 0.133093
H	 1.6453486068	-0.0978044939	-1.1486358034	 0.072955
H	 1.300415079	-2.3265445002	-0.0845570247	 0.112204
H	-0.2850380671	-2.4540709351	-0.859054634	 0.125681
H	 2.45607012	-2.4560240237	-2.2600537581	 0.112751
H	 1.2616923006	-3.736592294	-2.2636889998	 0.11676
H	-0.2982567324	-0.5898793004	-4.2927919083	 0.123765
