14
gdb 45515	4.46359	1.36773	1.11039	4.7803	65.13	-0.2433	-0.0051	0.2381	1020.1261	0.103389	-473.863703	-473.857087	-473.856142	-473.89495	25.393	
O	-0.0096324357	 0.0761847674	 0.3949192688	-0.36125
C	-0.0257424858	 1.2152543491	 0.04184525	 0.475429
N	-1.1749278466	 1.984571515	-0.259210913	-0.464541
C	-0.7818472073	 3.3072020824	-0.3276656652	 0.314766
C	-1.114519295	 4.5282912241	 0.0742487117	-0.26636
C	 0.1612407747	 5.3474595657	 0.0692613337	-0.106913
O	 1.232140347	 4.3975548051	-0.1570660424	-0.265684
C	 0.6663296025	 3.2561324423	-0.7013285713	 0.186947
O	 1.085274002	 1.9938437899	-0.1347008604	-0.25685
H	-2.0514131557	 1.6680575597	 0.1251002407	 0.274547
H	-2.0541241867	 4.8834549683	 0.4707950359	 0.117307
H	 0.2009794548	 6.115603567	-0.7162896991	 0.119982
H	 0.3338587276	 5.8413938876	 1.0323906913	 0.131547
H	 0.8816845443	 3.1845913864	-1.7784524706	 0.101073
