15
gdb 47373	2.59965	1.4677	1.17459	3.4961	66.67	-0.2707	-0.004	0.2667	1058.394	0.112044	-457.755529	-457.747588	-457.746643	-457.788571	29.395	
O	-0.0577341539	 0.021699095	 0.5813698523	-0.310465
C	-0.0814484821	 1.1253125171	 0.117523036	 0.408559
C	-1.3496549416	 1.9538995149	-0.0193589293	-0.333034
C	-1.2196398517	 3.1012547667	-1.0176422348	-0.113967
O	 0.0239627285	 3.7633800781	-0.7917124933	-0.213401
C	 1.1056313577	 2.9257191213	-1.0321751323	-0.003132
O	 1.092938796	 1.7280045028	-0.2264048725	-0.22583
C	 1.2407309688	 2.5425125696	-2.4466278195	 0.332845
C	 1.3705026717	 2.247593264	-3.6034854025	-0.438918
H	-2.1702730206	 1.2769776129	-0.266862516	 0.142842
H	-1.5512103453	 2.3571736956	 0.9801528042	 0.152401
H	-1.2683123053	 2.7389670459	-2.0525600937	 0.123759
H	-1.9976244982	 3.8536012052	-0.8769882635	 0.126862
H	 1.994125473	 3.4712279376	-0.7041983351	 0.139162
H	 1.4903864531	 1.9837412733	-4.6260046301	 0.212316
