23
gdb 89524	2.16231	1.76626	1.28183	1.5118	84.56	-0.2373	0.0816	0.319	1127.4736	0.206606	-388.309999	-388.301236	-388.300291	-388.342715	35.06	
C	 0.3732206317	 1.5957002633	-0.0844785529	-0.41708
C	 0.1666014119	 0.1004517423	 0.0479714568	 0.161645
O	 1.0368618577	-0.6762778235	-0.8107764719	-0.355591
C	 1.3294288049	-1.622979145	 0.2618852592	 0.456359
C	 0.7179705067	-2.9815419978	-0.0253446033	-0.463427
C	 2.8238085265	-1.6269875597	 0.5906325463	-0.244418
C	 3.0637795804	-0.2927577627	 1.3192619968	-0.218174
C	 1.7731178561	-0.0772978706	 2.141242553	-0.226189
C	 0.6378929907	-0.681603931	 1.2975293458	-0.128081
H	 1.3933637845	 1.8960740433	 0.1671916704	 0.122399
H	 0.1747780785	 1.9049756483	-1.1158162608	 0.1261
H	-0.320731634	 2.1357820666	 0.5690750968	 0.113909
H	-0.8845421294	-0.1323663341	-0.1837500478	 0.065485
H	 1.1913187167	-3.4357467872	-0.9023915473	 0.122817
H	 0.8521088242	-3.659357547	 0.8245843593	 0.110795
H	-0.3531264495	-2.8925898029	-0.2302195562	 0.117044
H	 3.043721584	-2.472890263	 1.254098506	 0.091193
H	 3.4294859396	-1.7449711439	-0.3129230584	 0.103719
H	 3.9616631986	-0.3030029344	 1.9433455815	 0.09183
H	 3.1880051112	 0.5071763781	 0.5833996238	 0.112664
H	 1.8406484656	-0.6294687003	 3.0860570796	 0.096225
H	 1.6040183138	 0.9721086923	 2.4020860004	 0.09753
H	-0.1659143404	-1.101912961	 1.9050141931	 0.063247
