16
gdb 85085	2.49172	1.34594	0.91903	5.0963	74.17	-0.2474	-0.0786	0.1688	1232.4501	0.123925	-437.94885	-437.940299	-437.939354	-437.982427	30.804	
C	 0.1407928555	 1.6380363258	-0.0191356762	-0.393395
C	 0.1095493141	 0.1057451869	 0.0941563666	-0.009267
N	 0.5767305076	-0.5736281173	-1.0997805482	-0.344744
C	 1.6355460338	-1.4239695418	-0.8773896947	 0.361022
O	 2.2070179677	-2.1146450828	-1.6944197156	-0.378015
C	 1.9193629983	-1.3007564335	 0.5905086725	 0.096309
C	 3.0007578869	-2.0431150858	 1.2667319726	 0.083943
O	 3.2404761032	-1.9515810696	 2.4496288825	-0.268631
C	 1.0514954309	-0.4380944069	 1.1358323279	-0.169829
H	 1.1531503573	 1.9853617021	-0.2413674197	 0.138734
H	-0.5269142812	 1.9751532858	-0.8175850571	 0.127707
H	-0.1934806284	 2.0965074648	 0.9163162119	 0.131499
H	-0.9183135637	-0.2045986607	 0.3429619583	 0.113913
H	 0.1608313287	-0.4684739244	-2.0101950032	 0.25642
H	 3.586953496	-2.7030388861	 0.5978538955	 0.108133
H	 1.0110400933	-0.1447517966	 2.1773278269	 0.146202
