21
gdb 114257	4.1599	0.93072	0.90762	2.5435	78.79	-0.2434	0.0664	0.3098	1383.7427	0.182655	-424.201076	-424.19229	-424.191345	-424.235241	33.535	
O	 0.1494662584	 1.1074350135	 0.6734270596	-0.421386
C	 0.0913748225	-0.2164081287	 0.1832364256	-0.063835
C	-1.2969091287	-0.5249474902	-0.350832785	 0.116227
C	-1.7059578707	-2.0036026314	-0.4798644275	-0.386954
C	-2.7103867148	-1.6848528741	 0.6507184655	 0.473512
C	-4.213473552	-1.9913277821	 0.4726949495	-0.285144
C	-4.0417044204	-3.1728399067	 1.4679795001	-0.215041
C	-2.7217110589	-2.5125298018	 1.9543988935	-0.283513
O	-2.2821518414	-0.3083633199	 0.6950599723	-0.345321
H	-0.6039542249	 1.1955565212	 1.2709733661	 0.292327
H	 0.8369939703	-0.3023404148	-0.615696041	 0.105774
H	 0.3491497324	-0.9496611599	 0.9662114352	 0.079359
H	-1.5155758736	 0.1093216027	-1.2182134847	 0.083367
H	-2.1556863492	-2.284215334	-1.4336136269	 0.111658
H	-0.9245470442	-2.723062183	-0.2220146424	 0.108535
H	-4.8111647089	-1.1826509505	 0.9033619532	 0.114735
H	-4.574255775	-2.2021470236	-0.5374766851	 0.096173
H	-4.8289533049	-3.3212554487	 2.2087703559	 0.104551
H	-3.8631102351	-4.1212737398	 0.9548615132	 0.106031
H	-1.8584032932	-3.1507319497	 2.1611572442	 0.095948
H	-2.8910525878	-1.8536979685	 2.8112881089	 0.112997
