17
gdb 90694	3.76257	1.17572	1.07269	16.2157	72.61	-0.1661	-0.039	0.1271	1136.7569	0.136917	-455.038863	-455.030717	-455.029773	-455.071881	30.662	
N	 0.2677287956	 1.1887525388	 0.1675478461	-0.439894
H	 0.4134434685	 0.1751264626	 0.2006131911	 0.327755
H	 1.182253112	 1.6433502311	 0.2154870492	 0.32701
H	-0.1669753955	 1.4275222064	-0.7264934944	 0.327081
C	-0.6307716519	 1.6202348308	 1.350887917	-0.033024
C	-1.8682976006	 0.7109115184	 1.4144363823	-0.166847
N	-1.3215080726	-0.0193898457	 2.6196582236	-0.157364
C	-0.1282783469	 0.9201141408	 2.607641178	-0.071465
C	-1.1250569849	 0.9964670626	 3.7015616904	-0.138212
C	-2.0139663689	 2.2617230343	 3.9449516972	 0.362451
O	-2.3821631081	 2.4009880319	 5.1099049916	-0.442235
O	-2.2119891128	 2.9624398963	 2.915455604	-0.500425
H	-0.7419632294	 2.7006940419	 1.3167974453	 0.165899
H	-2.7992085502	 1.2486323461	 1.5744729556	 0.17833
H	-1.9509165949	 0.0076755159	 0.5743738306	 0.074217
H	 0.8983481673	 0.5816947014	 2.7464096561	 0.081118
H	-0.8211537669	 0.4853754563	 4.6108942462	 0.105606
