15
gdb 52043	2.57182	0.86984	0.67591	1.9733	64.88	-0.273	-0.0659	0.2071	1545.1062	0.108036	-494.927137	-494.917388	-494.916444	-494.964339	31.43	
O	-0.1632022623	 0.1045809977	 0.2840248946	-0.262078
C	 0.0449239713	 1.2678044132	 0.4365516373	 0.172658
O	 0.865757014	 1.9719383648	-0.3736573455	-0.190143
C	 1.0326478772	 3.3700081149	-0.1207757921	-0.11075
C	 2.5215312261	 3.6842603524	-0.0734334143	-0.187667
C	 3.2559242573	 3.3955872528	-1.3860223667	 0.145804
O	 4.4425384351	 3.5426686677	-1.5083027037	-0.238555
C	 2.7863406641	 5.1337594735	 0.3318166983	 0.142181
O	 1.9185582957	 5.8901123554	 0.6794344883	-0.232299
H	-0.3954581236	 1.889509293	 1.2402591147	 0.086638
H	 0.5461036942	 3.9244311788	-0.9303801365	 0.13912
H	 0.5504008113	 3.6636394448	 0.8168735138	 0.139785
H	 3.0192324326	 3.0614200047	 0.6841993908	 0.151484
H	 2.6123307698	 3.0638673324	-2.2275059181	 0.116109
H	 3.852055487	 5.430385604	 0.2736743091	 0.127712
