15
gdb 9059	5.14605	0.90149	0.80057	3.8506	68.07	-0.2825	0.015	0.2974	1337.9203	0.116676	-362.639315	-362.630431	-362.629487	-362.673288	31.173	
O	-0.0630556842	 1.4238803141	-0.0345290459	-0.417258
C	 0.0209202858	 0.0013987364	 0.0133561939	-0.058886
C	 0.6812430993	-0.5708481243	-1.2567993683	-0.193417
C	-0.0613585165	-0.101462837	-2.521499468	-0.343488
C	 0.5802728996	-0.5653112738	-3.7480994491	 0.252485
N	 1.1009449123	-0.9397056222	-4.7094234859	-0.303715
C	 0.7123973452	-0.4648888309	 1.2160655903	 0.278197
C	 1.3218019135	-0.8235624865	 2.1878983341	-0.417371
H	 0.800148689	 1.7761900828	 0.2105083311	 0.291573
H	-1.0230472135	-0.337028508	 0.047398848	 0.123814
H	 1.7261136253	-0.2452360819	-1.2954874223	 0.125626
H	 0.6875913578	-1.6636121715	-1.2010018224	 0.134073
H	-1.0968664136	-0.4623429603	-2.5111890469	 0.15156
H	-0.1090893813	 0.9917579354	-2.5294536626	 0.169048
H	 1.8425931711	-1.1458974324	 3.0560553539	 0.207759
