18
gdb 91585	2.8749	1.25044	1.08743	2.9978	73.03	-0.2326	0.0199	0.2524	1164.7524	0.146465	-439.065785	-439.057035	-439.05609	-439.099867	32.288	
C	-0.0145842519	 1.5649591947	-0.2412015599	-0.406301
C	 0.1423078415	 0.0677892708	-0.0935130392	 0.106409
O	 1.2897985281	-0.488654529	-0.8094816049	-0.303618
C	 1.7257101973	-1.1784277621	 0.3609161297	 0.022233
C	 2.0947936193	-0.2146060262	 1.4428235979	-0.30476
C	 0.6406046445	-0.5574372799	 1.218501351	 0.308571
N	-0.1806590169	-1.1029956253	 2.232758098	-0.399194
C	-0.3908674354	-0.5098679203	 3.4498992467	 0.133515
O	 0.1252685535	 0.5141940629	 3.8312089162	-0.30559
H	 0.8609577219	 2.0992562963	 0.1351759536	 0.130099
H	-0.1543395402	 1.8291699967	-1.2941561617	 0.12868
H	-0.8939647497	 1.9040833783	 0.3162136533	 0.127684
H	-0.7652973859	-0.45053945	-0.4349551076	 0.074314
H	 2.0883034651	-2.1945234217	 0.2566391546	 0.110278
H	 2.5037513517	-0.6583578424	 2.3441083877	 0.129721
H	 2.4840994449	 0.7668533038	 1.193414791	 0.124436
H	-0.7310960261	-1.9214733369	 2.017958392	 0.248528
H	-1.0972640318	-1.1029723496	 4.0659526516	 0.074994
