17
gdb 52977	4.89974	0.90039	0.84556	2.0916	83.81	-0.22	0.0197	0.2397	1415.331	0.134004	-384.58722	-384.578783	-384.577839	-384.621696	31.316	
C	 0.0146462234	 1.4645210514	-0.0920260835	-0.513678
C	-0.0214982289	 0.012691064	-0.0203726954	 0.338631
C	-0.0584857585	-1.1912994412	 0.0256910849	-0.234571
C	-0.0643842727	-2.6053187249	 0.1351671882	 0.275419
O	-0.287278443	-3.4246985069	-1.038618563	-0.289189
C	-1.1298302892	-3.6192277139	 0.0973862118	-0.075364
C	-0.3945955192	-4.493017282	 1.1584853227	-0.089652
C	 0.9965050688	-4.8490560397	 0.7025869815	-0.288668
C	 0.718900587	-3.4572090094	 1.1982073512	-0.144351
H	 0.9704240819	 1.8562106649	 0.2729985313	 0.152588
H	-0.112534143	 1.8084667205	-1.12436048	 0.156535
H	-0.7828462838	 1.9150940389	 0.5093456994	 0.151248
H	-2.1992478425	-3.5177372525	-0.0445490865	 0.114441
H	-0.8960272716	-4.9719650096	 1.9880902078	 0.096196
H	 1.5533434629	-5.470240123	 1.3970900501	 0.113086
H	 1.1995627656	-5.0279702217	-0.3454363271	 0.139611
H	 1.196530693	-3.0122921447	 2.0600208768	 0.097716
