21
gdb 120951	4.38614	0.98144	0.95424	0.7813	79.39	-0.2452	0.101	0.3463	1353.0329	0.183387	-424.207512	-424.199172	-424.198228	-424.240982	32.087	
C	-0.0095255564	 1.4542095454	-0.0674782926	-0.386373
C	-0.0717813366	-0.062164981	-0.1155676106	-0.045976
O	 0.7624422193	-0.5103329015	-1.1778877055	-0.257546
C	 0.8113970277	-1.8923591948	-1.3161751517	 0.257644
O	-0.4503173564	-2.4472724133	-1.746512504	-0.304793
C	-0.1039832951	-2.9931448506	-3.036164734	 0.107506
C	 1.2101748445	-3.7549863052	-2.7320923019	-0.233721
C	 1.7041910119	-2.2933743235	-2.4945274224	-0.104644
C	 0.7680185133	-1.8896367115	-3.6794936112	-0.228737
H	 1.0171399121	 1.7943947736	 0.0961383682	 0.123886
H	-0.3660321947	 1.8828934941	-1.008435622	 0.126721
H	-0.6357125531	 1.8340177839	 0.7454140727	 0.114912
H	 0.2756819965	-0.4969288777	 0.8360876672	 0.085618
H	-1.0998270867	-0.4089176402	-0.2814069165	 0.112582
H	 1.0826904964	-2.359854394	-0.3566781357	 0.062946
H	-0.9857340101	-3.4348854353	-3.4972172094	 0.078884
H	 1.1969880163	-4.4475923273	-1.8867800977	 0.099539
H	 1.6691363787	-4.2146091698	-3.6092206878	 0.102152
H	 2.7542094847	-2.013793095	-2.4353666239	 0.078259
H	 1.1779932146	-2.1767935899	-4.649088719	 0.097549
H	 0.3702506933	-0.8751207765	-3.6931297423	 0.113592
