17
gdb 3485	4.62141	3.43464	3.01301	0.0707	66.84	-0.2686	0.1042	0.3728	571.2402	0.152423	-272.551442	-272.546569	-272.545625	-272.579624	21.303	
C	-0.0349227266	 1.5967966475	 0.0589779953	-0.232405
C	 1.5048092239	 1.4108850209	-0.0122007149	-0.036494
C	 1.793401129	 0.766920354	 1.3608063778	-0.197697
C	 0.9822152379	-0.5157128772	 1.0780572824	-0.036493
C	 1.7868702794	-1.128517852	-0.0998214448	-0.232403
C	 1.2516141705	 0.0882082071	-0.8669743494	-0.016579
C	-0.0455293692	 0.0630629864	 0.0042866709	-0.016579
H	-0.4510279815	 2.1211456871	 0.9261828227	 0.084481
H	-0.4502596958	 2.0192454657	-0.8612041827	 0.092744
H	 2.1632936699	 2.2065993169	-0.3598419658	 0.057289
H	 2.850749369	 0.55559061	 1.546420947	 0.088551
H	 1.4098035008	 1.3695175223	 2.1895568882	 0.08855
H	 0.6551372701	-1.1189617035	 1.9246555075	 0.057289
H	 2.8655966213	-1.2680573784	 0.0305941352	 0.08448
H	 1.339050111	-2.0522375902	-0.4791654582	 0.092744
H	 1.2440811393	 0.1804955292	-1.9527660012	 0.06126
H	-0.9196102589	-0.5412184958	-0.2372571501	 0.061261
