22
gdb 105903	2.20919	1.76771	1.22544	1.0058	86.48	-0.2075	0.0882	0.2958	1134.0912	0.193697	-367.122544	-367.113855	-367.112911	-367.155591	34.074	
C	 0.5834068277	-0.4695887526	-1.8700534139	-0.375266
C	 0.0806003897	 0.0848351136	-0.5313358777	-0.334522
C	-1.3250933535	-0.3453059913	-0.2155577337	 0.408334
N	-2.5019099585	-0.0332176801	-1.1013047906	-0.151277
C	-2.8891278717	 1.3718414108	-1.1793797324	-0.332927
C	-3.0827687534	-0.8017711779	 0.0373216959	-0.004607
C	-1.8775542162	-1.7851769287	 0.0667444951	-0.10019
C	-1.6974407741	-1.641561841	 1.5896345937	-0.283043
C	-2.1260606266	-0.2291831714	 1.1464499879	-0.13221
H	 1.5846883359	-0.0937788914	-2.1005514735	 0.108599
H	 0.6294757583	-1.5630558005	-1.8489180633	 0.118304
H	-0.0888545938	-0.1849925333	-2.6843587262	 0.134528
H	 0.737638939	-0.2378327824	 0.2863648131	 0.104846
H	 0.1227302653	 1.1820573782	-0.5404192836	 0.102366
H	-2.2142717521	 1.8988902201	-1.8621636523	 0.116544
H	-3.8996374018	 1.4425927136	-1.596055787	 0.116536
H	-2.8817817363	 1.9046783026	-0.2130455544	 0.092245
H	-4.1453725416	-1.0390962487	 0.1183685557	 0.074461
H	-1.7531654368	-2.6532959344	-0.5804705007	 0.076505
H	-2.4041764314	-2.1908540307	 2.2189949451	 0.093244
H	-0.6809050536	-1.749566044	 1.9801107781	 0.094026
H	-2.2689863046	 0.6565182895	 1.7658246546	 0.073506
