12
gdb 132882	3.2137	1.44199	0.99537	1.6235	62.73	-0.2212	-0.0633	0.1579	1046.0612	0.077275	-513.96159	-513.954194	-513.95325	-513.993574	27.523	
N	-0.0064236209	 1.2974660705	-0.1229972274	-0.537051
C	-0.0521276243	-0.0439438731	-0.0458392004	 0.27391
N	-1.1712125011	-0.7086683354	-0.0287981043	-0.372004
C	-1.0674511271	-2.0569893537	 0.0512951624	 0.246745
F	-2.2228824531	-2.7122273766	 0.0670695452	-0.067493
C	 0.0915532965	-2.733360087	 0.1127605811	-0.12867
O	 1.2752121631	-2.0361117986	 0.0951781265	-0.19182
C	 1.2937522896	-0.6874329125	 0.0174435331	 0.414951
O	 2.3308971446	-0.0701276342	 0.0017021399	-0.358406
H	 0.8968326762	 1.7410824898	-0.1303964918	 0.289004
H	-0.855803942	 1.8324925657	-0.1694435913	 0.277903
H	 0.2188344485	-3.801855165	 0.1770905069	 0.152932
