19
gdb 58025	1.89828	1.53323	0.90503	2.9582	77.99	-0.2496	-0.033	0.2167	1298.4857	0.154897	-423.016994	-423.006548	-423.005604	-423.052932	37.804	
C	 0.0717929781	 1.6053022728	-0.222311701	-0.394754
C	 0.1410627294	 0.0845789329	-0.2391213331	 0.125326
O	 1.1458775388	-0.2996481676	 0.6748279965	-0.437429
C	-1.2184447235	-0.5732089678	 0.1547160153	-0.293931
C	-2.3262156593	-0.1383525579	-0.6883202685	 0.312682
C	-3.2175480643	 0.2118186195	-1.4157841486	-0.455406
C	-1.1265944349	-2.1203504596	 0.1873951317	 0.391132
C	-2.4167722414	-2.8860494486	 0.3673248783	-0.475346
O	-0.0587411751	-2.6864481946	 0.0963629389	-0.312995
H	 1.0506418065	 2.0126111557	-0.4874860613	 0.126474
H	-0.6725352696	 1.9776220722	-0.9289718192	 0.127335
H	-0.1824762158	 1.9626253985	 0.7810651435	 0.118983
H	 0.3845238543	-0.2590582004	-1.2567335616	 0.080492
H	 1.228852927	-1.2588162232	 0.5837207564	 0.294764
H	-1.4236571466	-0.2760248908	 1.1961000802	 0.135218
H	-4.008613977	 0.5334166573	-2.0474288918	 0.202712
H	-3.0094515585	-2.4605207128	 1.1836766495	 0.14456
H	-3.0240831594	-2.7979501463	-0.5386631793	 0.165561
H	-2.1948767287	-3.9352374492	 0.5640579339	 0.144623
