14
gdb 49379	2.39933	1.40375	0.96638	5.4995	71.04	-0.2625	-0.0424	0.2201	1163.2039	0.098842	-436.686502	-436.678032	-436.677088	-436.720273	29.933	
O	-0.1574394503	-0.0050467572	 0.0057180255	-0.26317
C	-0.0322540438	 1.1891969825	-0.0329610729	 0.157256
N	 1.1800033012	 1.861038897	-0.0026492074	-0.119222
C	 1.4705545256	 3.3199157926	-0.0349263991	-0.172346
C	 2.990768447	 2.9470845955	-0.0155325823	-0.394653
C	 2.541493155	 1.4769992688	 0.0412606403	 0.442155
O	 3.0734453213	 0.4139875362	 0.104815579	-0.302792
C	 0.9733793201	 4.0294987777	-1.199321895	 0.331014
C	 0.5573819951	 4.6224648222	-2.1577627184	-0.433198
H	-0.8781394549	 1.9014758095	-0.100375087	 0.097821
H	 1.1446509258	 3.8164983168	 0.8845653378	 0.131516
H	 3.530484225	 3.2095114314	-0.9257497338	 0.158565
H	 3.5438337533	 3.2886328796	 0.860274149	 0.151205
H	 0.1908117297	 5.1439527675	-3.0079771458	 0.215849
