19
gdb 62892	3.17556	1.50532	1.17716	1.7819	76.69	-0.2328	0.069	0.3018	1085.8656	0.156937	-422.930503	-422.922069	-422.921125	-422.962798	33.607	
C	-0.0837695476	 1.5575261611	-0.0199115923	-0.486337
C	-0.051514089	 0.0397548272	-0.0130299454	 0.440106
O	-1.3125410187	-0.518312476	-0.2815109412	-0.473127
C	 1.2224945386	-0.6684576873	-0.6186088152	-0.135913
O	 1.9853686947	-0.1369870987	 0.5368448211	-0.311011
C	 0.7363667136	-0.6781161977	 1.1256878751	-0.108627
C	 0.9013674854	-1.9087316069	 0.2230419769	 0.488838
C	 0.1641478494	-3.1786349658	 0.0100884406	-0.335868
C	 1.6325916026	-3.1883164121	 0.4218250708	-0.37421
H	 0.8958290535	 1.967485955	 0.2231270067	 0.149664
H	-0.3783472226	 1.9276620194	-1.0106558009	 0.106035
H	-0.8192922249	 1.9212219699	 0.7050155438	 0.123338
H	-1.750588948	 0.0342733138	-0.936171364	 0.281966
H	 1.6794735704	-0.5866168114	-1.6064827233	 0.085202
H	 0.613495795	-0.6099865866	 2.2077148287	 0.089455
H	-0.5782466054	-3.4713762526	 0.7450086027	 0.117661
H	-0.0855844777	-3.4636876709	-1.0066535761	 0.112851
H	 2.3693058907	-3.4833925883	-0.3184668138	 0.114565
H	 1.87668813	-3.491990222	 1.4347511259	 0.115412
