23
gdb 103636	2.18594	1.23569	1.18529	0.4516	81.42	-0.2453	0.0552	0.3005	1272.3828	0.203023	-425.424292	-425.413659	-425.412715	-425.459741	39.582	
C	-0.505978478	 1.3126247305	 0.3261627421	-0.393193
C	-0.0080826068	-0.126864778	 0.1533629129	-0.212496
C	 0.9643590545	-0.5740821172	 1.2478308052	 0.392135
C	 2.2596390663	 0.2279332017	 1.265405657	-0.44315
O	 0.3208972722	-0.5379656078	 2.5593245766	-0.347477
C	 0.4346948906	-1.9679424569	 2.7438278123	 0.119166
C	-0.908377883	-2.6530432477	 2.9187997605	-0.411774
C	 1.1646203664	-2.1193594888	 1.3815429634	 0.00367
O	 0.6440791598	-2.9846372475	 0.4076926691	-0.422
H	 0.2971237182	 2.0423785838	 0.1880294483	 0.118279
H	-1.2874415837	 1.5412107806	-0.4044898827	 0.110654
H	-0.9225562384	 1.4506053082	 1.3279175016	 0.137579
H	-0.8802560211	-0.7925755917	 0.1601020215	 0.07333
H	 0.4733862885	-0.2567642653	-0.8234379022	 0.10499
H	 2.0685667291	 1.284078563	 1.4742952056	 0.12697
H	 2.9300003142	-0.1484474936	 2.043714675	 0.116618
H	 2.7747016561	 0.1537506727	 0.3011659244	 0.11728
H	 1.0754000532	-2.1929173707	 3.6073444713	 0.073878
H	-1.5832680125	-2.4534844818	 2.0797138087	 0.103894
H	-0.7788092294	-3.7361318622	 3.0111293818	 0.125975
H	-1.3970848208	-2.2844731176	 3.825648466	 0.130386
H	 2.2154681677	-2.39975193	 1.4812429602	 0.090546
H	-0.2905958032	-2.7919039537	 0.2853508114	 0.284739
