20
gdb 114560	2.64028	1.41698	1.1096	2.0404	74.01	-0.2246	0.0639	0.2885	1141.6357	0.172255	-440.237657	-440.229297	-440.228353	-440.270419	32.953	
O	-0.0926691745	 1.3914465735	-0.0798594933	-0.425592
C	 0.02266588	-0.0144416641	 0.1078187417	-0.116171
C	-1.3789234187	-0.5940398632	 0.0170020595	 0.011422
C	-2.0819795504	-0.4666522204	-1.3727039042	-0.180448
N	-2.4339104049	-1.8867186418	-1.7094864529	-0.125403
C	-1.133581848	-2.5678109829	-1.3476640821	-0.24547
C	-1.4658136721	-2.1277434431	 0.1113912986	 0.358106
O	-0.8909689248	-2.6485833504	 1.2663384895	-0.488424
C	-2.9318779472	-2.3576365462	-0.3589810904	-0.239348
H	 0.7845472886	 1.7772444894	-0.0018915127	 0.286268
H	 0.6769938972	-0.4598373561	-0.6585908942	 0.079697
H	 0.4552310046	-0.2556438061	 1.08997702	 0.102173
H	-1.9760781482	-0.1367534912	 0.8130863233	 0.082181
H	-2.990501798	 0.1381832926	-1.3431927772	 0.108777
H	-1.4227010475	-0.056700735	-2.1416909848	 0.11294
H	-1.2174692223	-3.6471337997	-1.5050842978	 0.096337
H	-0.245469614	-2.1808743723	-1.8536975584	 0.102127
H	-0.9854684269	-3.6065889472	 1.2529511921	 0.282692
H	-3.7347631569	-1.7582273632	 0.0800299167	 0.102306
H	-3.222673216	-3.4108852427	-0.4100708435	 0.09583
