18
gdb 51466	3.17545	1.18846	1.12289	4.0216	73.19	-0.2368	0.0163	0.2531	1158.352	0.148504	-439.057084	-439.048913	-439.047968	-439.090895	29.869	
N	-0.4677897089	 1.2153548063	-0.051159434	-0.440563
C	-0.4243724845	-0.02545253	 0.1686841584	 0.134392
O	-1.0892551366	-0.8753107079	-0.6475756431	-0.183932
C	-1.0226432662	-2.2349543007	-0.2991047743	 0.052903
C	-1.9812995687	-2.8348293759	 0.716455733	-0.15027
C	-3.2295367328	-2.0371700167	 1.0698692413	-0.247345
C	-3.8551256221	-1.6858397251	-0.301001168	-0.07952
O	-3.3080626731	-2.6025902274	-1.2586401013	-0.252012
C	-2.1282339229	-3.1457462034	-0.7576247903	 0.065802
H	 0.0905058089	 1.7104353043	 0.6411588325	 0.230685
H	 0.1163431638	-0.5339011383	 0.9780391699	 0.090953
H	-0.0143794609	-2.6451945681	-0.3204462912	 0.106341
H	-1.5986090529	-3.5514325677	 1.4340576789	 0.094945
H	-3.8942171077	-2.6727023863	 1.6627886918	 0.113523
H	-3.0235648261	-1.1352511606	 1.6536685685	 0.115265
H	-4.9429012729	-1.8011079806	-0.3176058181	 0.10722
H	-3.602371152	-0.6625661387	-0.5922272723	 0.132827
H	-1.8864835844	-4.0987663032	-1.2142081018	 0.108786
