21
gdb 87490	4.02765	1.12559	1.03869	2.1361	85.14	-0.2119	0.0845	0.2964	1259.7199	0.182005	-383.157636	-383.148996	-383.148051	-383.19048	33.948	
C	 0.3882783305	 1.7407490947	-0.1342391903	-0.391781
C	 0.1526301182	 0.26526089	 0.0822933558	-0.131073
N	 1.3535166717	-0.6191590829	-0.0341291345	-0.420682
C	 0.6835231073	-0.481779258	 1.2290119975	 0.503087
C	 1.2745816032	-0.1516669647	 2.6102029844	-0.114
C	-0.1711664941	-0.3091710982	 3.1707980274	-0.249104
C	 0.0877941635	-1.5071722256	 2.2074950019	-0.133053
N	 1.5120018773	-1.6559525229	 2.7325356547	-0.110209
C	 1.7125540106	-2.2250301783	 4.0615348676	-0.32745
H	 1.3418199131	 2.0432427488	 0.3062825149	 0.126552
H	 0.4194980083	 1.9783269754	-1.2029877122	 0.120311
H	-0.4105369623	 2.3368975922	 0.3208234892	 0.113396
H	-0.7732937534	-0.1182526229	-0.3477050427	 0.081812
H	 1.1254997986	-1.5028047134	-0.4829265405	 0.230589
H	 2.043056829	 0.5760635629	 2.8728312245	 0.085255
H	-0.2666953962	-0.5408170957	 4.230202496	 0.103497
H	-0.9139358649	 0.4312670704	 2.8620599419	 0.098335
H	-0.5452819357	-2.3718066931	 1.9963941049	 0.077423
H	 1.6061207271	-3.3127091034	 3.9886633852	 0.119694
H	 2.7421370791	-2.0160384667	 4.3706573378	 0.122816
H	 1.0438689988	-1.8756806387	 4.8634904265	 0.094585
