20
gdb 100886	2.61841	0.95078	0.82836	2.4212	75.41	-0.2743	0.0198	0.2941	1477.5079	0.168774	-440.299081	-440.288349	-440.287405	-440.335235	37.922	
C	-0.0096874893	 1.5790319522	 0.0519525417	-0.383737
C	-0.0377080353	 0.050576333	-0.024228566	-0.208145
C	 0.7637219966	-0.4985746509	-1.2097105671	 0.114666
O	 2.1211766934	-0.0867105256	-1.1865324434	-0.429257
C	 0.659479256	-2.0436598457	-1.3426600981	-0.16557
C	 1.2799382693	-2.5498551185	-2.6694281918	-0.078908
O	 1.195874628	-3.9494146778	-2.811377536	-0.417626
C	 1.3341707498	-2.692556609	-0.2161141241	 0.254685
N	 1.9182542986	-3.1873235773	 0.6513933515	-0.335883
H	 1.0181606362	 1.946217314	 0.1076463465	 0.131423
H	-0.4740967663	 2.0263186135	-0.8336570812	 0.117668
H	-0.552203183	 1.9366740631	 0.93146811	 0.118065
H	 0.3626227227	-0.3816402725	 0.9030709101	 0.114043
H	-1.07263909	-0.3044975027	-0.1055085544	 0.102897
H	 0.360930892	-0.0767832811	-2.1392380776	 0.097888
H	 2.5092906516	-0.3835230867	-0.3535832356	 0.294265
H	-0.3952805051	-2.341776258	-1.3238287944	 0.131041
H	 0.7056716584	-2.1193709366	-3.4955704711	 0.120652
H	 2.3090535661	-2.1774102527	-2.7416707599	 0.1239
H	 1.8087161804	-4.3535970907	-2.1871420191	 0.297931
