22
gdb 92908	2.50314	1.4716	1.12397	2.1588	82.47	-0.2433	0.0256	0.2689	1191.2981	0.194542	-404.377809	-404.368485	-404.367541	-404.411317	35.743	
C	-0.0801495598	 1.529591226	-0.1026995808	-0.41912
C	 0.0329478783	 0.0222994122	 0.0540039002	 0.147027
O	 0.5975370237	-0.4806573444	-1.1794852709	-0.242532
C	 1.0573747346	-1.7535770868	-1.1389199438	 0.120131
N	 1.1712956276	-2.5326940607	-0.1508228091	-0.278211
C	 0.8070704531	-2.0305736102	 1.1810940642	 0.053282
C	 1.6671910248	-2.7438969922	 2.225838655	-0.399717
C	 0.8521347766	-0.483711257	 1.2541139083	-0.032559
C	 2.2754086804	 0.0907822144	 1.2955283199	-0.403421
H	 0.8971739363	 1.9866952041	-0.2741123836	 0.132066
H	-0.7206504996	 1.7717447622	-0.9551001531	 0.127878
H	-0.5209198298	 1.9696911816	 0.7971190627	 0.118277
H	-0.9783098683	-0.4009592473	 0.1343328284	 0.084545
H	 1.3573251162	-2.0697870156	-2.1371731381	 0.120199
H	-0.2348657774	-2.3324731882	 1.3630243318	 0.08208
H	 2.7320803736	-2.5692696645	 2.0509492488	 0.122475
H	 1.419118417	-2.4067239051	 3.2381147433	 0.102648
H	 1.4968614394	-3.82187101	 2.1651503465	 0.123742
H	 0.3225639355	-0.1673341657	 2.1622993292	 0.07341
H	 2.8550089625	-0.1980742372	 0.413905147	 0.13272
H	 2.2603187113	 1.1828479857	 1.343505534	 0.114304
H	 2.812037394	-0.2643306815	 2.1784230101	 0.120776
