21
gdb 95694	2.89552	1.19797	0.94216	4.5163	78.8	-0.2565	0.0177	0.2742	1293.9128	0.183921	-424.279887	-424.271197	-424.270252	-424.313184	33.456	
C	-0.0102169296	 1.6563740829	 0.0333400782	-0.399955
C	-0.0704928033	 0.1246546448	-0.0146050084	 0.032413
C	 0.3657665943	-0.3925134383	-1.3939991303	-0.198938
C	 0.2796838717	-1.906795662	-1.5797812683	-0.088914
O	 1.4000554908	-2.6245702732	-1.046379615	-0.219219
C	 1.6201193504	-2.7393301242	 0.2871571543	 0.405166
O	 2.5643829484	-3.3830781566	 0.658817945	-0.321418
C	 0.677025177	-2.0246501863	 1.2420356331	-0.346762
C	 0.7339274185	-0.4855620212	 1.1434412845	-0.193688
H	 1.0177273955	 2.0127982118	-0.1014177786	 0.119533
H	-0.6226854803	 2.1035877509	-0.75642462	 0.113311
H	-0.3705475923	 2.0380201069	 0.9941277261	 0.114802
H	-1.120154807	-0.1764707709	 0.1263990279	 0.072253
H	-0.2697831366	 0.0716885466	-2.1586945184	 0.102312
H	 1.3949220177	-0.0790679922	-1.6132148834	 0.113896
H	-0.6579533729	-2.3042109566	-1.1699875918	 0.107452
H	 0.3018964478	-2.1539065078	-2.6436699882	 0.124081
H	-0.3531710181	-2.3708551827	 1.0904528323	 0.115494
H	 0.9848457673	-2.3468913991	 2.23777737	 0.131381
H	 1.7825298542	-0.1661902991	 1.0789031816	 0.11199
H	 0.3492355365	-0.0742776336	 2.0834159393	 0.104808
