21
gdb 76299	2.12213	1.5355	1.0251	4.3312	84.33	-0.2301	0.0305	0.2606	1238.1572	0.18103	-383.276619	-383.266598	-383.265654	-383.311322	36.509	
C	 0.0194072572	 1.6062123751	 0.1789864903	-0.411804
C	 0.0748870352	 0.1061566543	-0.0360839105	 0.069292
C	 0.8662755704	-0.4978538736	-1.247274947	-0.238563
C	 1.899950443	 0.3612455968	-1.798474848	 0.307085
N	 2.720435887	 1.0438622112	-2.2442553924	-0.345633
C	 1.3689352816	-1.5659548455	-0.2154735402	 0.069292
C	 2.818617314	-2.0107913983	-0.2090559212	-0.411801
N	 0.9562877547	-0.6550153323	 0.8669612431	-0.074436
C	 0.3946895498	-1.2191514232	 2.074120143	-0.335488
H	 1.021187048	 2.0413582381	 0.1487568218	 0.145953
H	-0.5962523242	 2.08651015	-0.5886482691	 0.122276
H	-0.4262892475	 1.8317201867	 1.153509485	 0.120032
H	-0.9477500919	-0.3120220116	-0.0578991512	 0.063567
H	 0.2518777747	-0.8860534296	-2.0608817083	 0.121318
H	 0.702776382	-2.4447556392	-0.286721309	 0.063569
H	 3.4903766656	-1.1492058435	-0.1936149978	 0.145956
H	 3.0216725492	-2.6234757601	 0.6755796513	 0.120031
H	 3.043337202	-2.6164875119	-1.0931485296	 0.122275
H	 1.1532352522	-1.8089684014	 2.5986509298	 0.127149
H	 0.0763092264	-0.4173240709	 2.7480008357	 0.127148
H	-0.4772953392	-1.8731524712	 1.8804324742	 0.09278
