20
gdb 91078	3.39262	1.40244	1.22363	1.012	84.96	-0.2228	0.0147	0.2376	1097.3106	0.173125	-365.968713	-365.961185	-365.960241	-366.000436	30.71	
C	-0.0198153229	 1.5399761338	 0.2103310561	-0.409849
C	 0.0140654621	 0.0326608196	 0.0163662717	-0.048291
C	 1.1237674424	-0.6169347574	-0.902258195	-0.263542
C	 1.238447374	-1.8110010801	 0.1126748102	-0.039724
C	 2.486113248	-2.2823422672	 0.8358578432	-0.07972
N	 3.4375843531	-1.2219019164	 1.2208027632	-0.335431
C	 2.4291379244	-1.6961490302	 2.2189775286	-0.067415
C	 1.2613329267	-0.7566995697	 2.2534261212	-0.205498
C	 0.603909652	-0.851837935	 1.0942799005	 0.236965
H	 0.9613374447	 1.909972916	 0.5242848346	 0.12555
H	-0.2977185453	 2.0501764029	-0.7183082289	 0.113483
H	-0.7495402136	 1.8245711243	 0.9761652202	 0.116235
H	-0.9671662585	-0.3360228231	-0.3091099045	 0.078732
H	 0.8321637669	-0.8613216318	-1.9264295882	 0.094876
H	 2.0355991311	-0.0165813547	-0.8944365528	 0.127984
H	 0.6022336707	-2.6496576824	-0.1906990892	 0.071851
H	 2.8697661526	-3.2835703479	 0.6713765833	 0.080525
H	 4.3313920473	-1.6653781405	 1.4265066327	 0.225558
H	 2.7886273131	-2.2269301814	 3.0948662149	 0.085192
H	 1.1426209013	 0.0089805712	 3.0108396882	 0.092519
