17
gdb 55073	2.30407	1.32778	1.00537	4.1232	70.93	-0.2524	0.0156	0.268	1207.8764	0.134869	-455.152524	-455.143123	-455.142179	-455.18784	33.337	
N	 0.4457432199	 0.5444823138	-0.5908731628	-0.51418
C	 0.0126707421	-0.2647708125	 0.411370129	 0.40022
O	 0.6558097759	-0.4649787693	 1.4257216893	-0.372493
C	-1.34217879	-0.9048187269	 0.2102519815	-0.155959
C	-1.9014025911	-1.3067737274	-1.1386173303	-0.342739
C	-1.4244527231	-2.3607130031	-0.1903126559	 0.117831
O	-0.2631118508	-3.0381957817	-0.5819140171	-0.194212
C	 0.5409147829	-3.4744519779	 0.4279674755	 0.127725
N	 1.4898616462	-4.2569152466	 0.1548148987	-0.444657
H	 1.3392619813	 0.9972902327	-0.4882703684	 0.266502
H	-0.1219394641	 0.75579411	-1.39119726	 0.264402
H	-2.0496097536	-0.5981130519	 0.9747786025	 0.125171
H	-2.9647547851	-1.2027485711	-1.3206134829	 0.126627
H	-1.2715591471	-1.1624385433	-2.0100221018	 0.13405
H	-2.1557230819	-2.988199404	 0.3132348334	 0.109711
H	 0.2769388845	-3.0572184492	 1.4043077741	 0.120325
H	 2.012666864	-4.4682893316	 1.0027048953	 0.231674
