22
gdb 59435	2.5973	1.08961	1.00366	3.2398	82.25	-0.2394	0.0282	0.2676	1340.9358	0.193031	-404.375307	-404.364923	-404.363978	-404.411132	38.502	
C	-2.1976257247	-1.7006063388	 1.6378867866	-0.409034
C	-1.352000139	-0.5321060798	 1.1120788597	 0.034289
C	-1.9757262809	 0.8040478043	 1.5454389019	-0.397938
C	 0.12170235	-0.5678330195	 1.5244559937	 0.011723
C	 0.6900807277	-1.4790798566	 2.5918953698	-0.324801
C	 1.0736528052	-1.6767002919	 1.1444974221	-0.132709
C	 0.6222055374	-2.8465150001	 0.3021327336	 0.372848
N	 0.6275220913	-4.0601702355	 0.9337782383	-0.512153
O	 0.2953878766	-2.7202901628	-0.8626028577	-0.36541
H	-2.2841065983	-1.6657265237	 2.7301371569	 0.108534
H	-3.2100628102	-1.6407429457	 1.2262567	 0.111731
H	-1.7911020916	-2.6765268358	 1.3605695575	 0.127677
H	-1.3716783261	-0.5776481826	 0.0156303951	 0.104551
H	-1.9532897159	 0.9123788976	 2.6363733131	 0.111592
H	-1.4382245766	 1.655086875	 1.114170036	 0.110154
H	-3.0203056484	 0.871522935	 1.2246447678	 0.109032
H	 0.5820016773	 0.4165071701	 1.4853022585	 0.083412
H	 1.4323444174	-1.0859776387	 3.2785637833	 0.109628
H	 0.0182046757	-2.2052592425	 3.0367643958	 0.115151
H	 2.0667492038	-1.3495916478	 0.8470750141	 0.112255
H	 1.0300402868	-4.1697218642	 1.8478637654	 0.260708
H	 0.4460912823	-4.8819420062	 0.3800396384	 0.258763
