13
gdb 48098	3.95513	1.02289	0.89604	3.3819	59.89	-0.272	-0.1193	0.1527	1218.9957	0.086731	-493.731233	-493.723007	-493.722063	-493.765946	27.902	
O	-1.0905364445	 1.6661939503	-0.3188504545	-0.211531
C	-0.0316236839	 1.1241112639	-0.4991171251	 0.077983
C	 1.3102372103	 1.8289966282	-0.2670676172	 0.27355
O	 2.3386129066	 1.2215517804	-0.4255135684	-0.253983
C	 1.2279153795	 3.2674412742	 0.2015848233	 0.026771
C	 1.2783926842	 3.4650435596	 1.7384959186	-0.429733
C	 2.595844468	 4.176596814	 1.4179161717	 0.456579
O	 3.4549527747	 4.7437122418	 2.0032010063	-0.295154
O	 2.4955005332	 3.9632611693	 0.060686379	-0.227449
H	 0.07743486	 0.0728427358	-0.8353802218	 0.125067
H	 0.4200232884	 3.8011475497	-0.3012885388	 0.135924
H	 0.5029739608	 4.1024975403	 2.1632007149	 0.163736
H	 1.3923546226	 2.5622750726	 2.340832952	 0.15824
