18
gdb 44357	3.25497	1.65389	1.39575	3.3818	75.91	-0.2424	0.0309	0.2733	963.2373	0.150768	-401.936862	-401.930069	-401.929125	-401.968111	27.836	
N	-0.0528203252	 1.3144935843	 0.5076674182	-0.520422
C	-0.0273366935	 0.1298547272	 0.0621580927	 0.38705
C	-1.2964762211	-0.6874949894	-0.0614695439	-0.286874
C	-1.1983647142	-1.7436298005	-1.1585234445	-0.048501
C	-0.5972048386	-1.2727715988	-2.5285882	-0.253968
C	 0.668942753	-2.0805557669	-2.2389529438	-0.094016
C	 1.1988670551	-1.7506459334	-0.8747393033	 0.117823
O	 1.1533284575	-0.4511493122	-0.3144043398	-0.255552
C	 0.0230881278	-2.6535851939	-0.9534999052	-0.121177
H	 0.8946742199	 1.6977302492	 0.5363760293	 0.215553
H	-1.4864635202	-1.1820194484	 0.9002753558	 0.126057
H	-2.11606934	 0.0164053889	-0.2227055272	 0.134885
H	-2.1400000498	-2.2814121585	-1.2746798281	 0.082684
H	-1.1593986655	-1.6763785234	-3.3727433821	 0.109611
H	-0.4710740625	-0.1949319597	-2.6733034746	 0.114567
H	 1.286920122	-2.5769232234	-2.9779451029	 0.090782
H	 2.1496924596	-2.2055163599	-0.6206830767	 0.110261
H	 0.0164212156	-3.6578002012	-0.5464831439	 0.091238
