12
gdb 23715	5.67875	1.42772	1.14089	0.	59.16	-0.2396	-0.0203	0.2192	905.9268	0.084008	-430.656668	-430.650749	-430.649804	-430.686779	23.041	
F	 0.0017939786	 0.0197030639	 0.0036698625	-0.0844
C	-0.0163679616	 1.3575964221	 0.0108320871	 0.300297
C	-1.2377837355	 2.0172395825	 0.0300606856	-0.227777
C	-1.2566816413	 3.4092794424	 0.0375181273	-0.227777
C	-0.0536249614	 4.1020032669	 0.025534242	 0.300297
F	-0.0717881854	 5.4398965979	 0.0327064516	-0.0844
C	 1.1677903054	 3.4423605231	 0.0063081554	-0.227777
C	 1.1866882144	 2.0503198412	-0.0011492349	-0.227778
H	-2.1558783883	 1.4421786024	 0.038964527	 0.119829
H	-2.1900471696	 3.959077647	 0.0524475433	 0.119829
H	 2.0858856037	 4.0174204236	-0.0025957889	 0.119829
H	 2.1200543508	 1.500522727	-0.0160792682	 0.119829
