17
gdb 111163	4.40028	1.07715	0.99564	3.784	69.6	-0.244	0.0665	0.3105	1215.0484	0.133587	-458.833539	-458.825443	-458.824499	-458.866489	30.191	
C	 0.0758029762	 1.2811388521	-0.2494746486	-0.244747
O	-0.0511194638	 0.0357174319	 0.4059655971	-0.246894
C	-1.3026206368	-0.5345573055	 0.2627496142	 0.193687
C	-1.6279180687	-1.3591364088	-1.0351618821	-0.131492
O	-0.6326180942	-2.3645146679	-0.5940737567	-0.306176
C	-1.3819686825	-2.0323059451	 0.6430443865	-0.131405
C	-2.6692208014	-2.1083795657	-0.1931915444	 0.562402
C	-4.1096441384	-2.1062616086	 0.0215603742	-0.310972
O	-3.3979443824	-3.2390854506	-0.539502067	-0.276872
H	 1.0725057933	 1.6633124837	-0.0203592211	 0.136052
H	-0.0253003291	 1.180475249	-1.3395533745	 0.113032
H	-0.6748694168	 2.0042305065	 0.1053893532	 0.106588
H	-2.1066110958	 0.1213847102	 0.6312493256	 0.069936
H	-1.6366263873	-1.0729471816	-2.0857453833	 0.105095
H	-1.095313179	-2.5316801268	 1.5669507966	 0.10978
H	-4.5147651532	-2.2663086031	 1.0191077075	 0.126598
H	-4.7670556304	-1.5867948697	-0.6733884272	 0.125388
