17
gdb 38205	3.47292	1.84796	1.51833	1.066	70.71	-0.24	0.0025	0.2425	877.263	0.14034	-417.958833	-417.952827	-417.951883	-417.988921	25.435	
C	 0.0066578652	 1.5969085945	 0.0328278408	-0.214003
N	 1.4995176717	 1.3870993144	 0.0273746245	-0.132481
C	 1.1906305698	 0.1243831768	 0.8529450972	-0.263443
C	-0.0798255177	 0.0467583815	-0.0246589094	 0.339996
N	-1.3801090084	-0.6063237339	-0.0720763703	-0.36644
C	-1.6024478787	-0.6581517865	-1.3298472548	 0.078604
O	-0.6195159125	-0.3037905544	-2.2203765229	-0.251857
C	 0.5538457036	-0.2628891968	-1.3711098918	 0.100056
C	 1.6351703047	 0.8412174977	-1.3732882017	-0.223422
H	-0.3274559981	 2.0049765999	 0.9882165731	 0.116993
H	-0.3913287181	 2.1830126306	-0.7994552047	 0.110295
H	 1.9310906243	-0.6772312847	 0.7777664374	 0.107211
H	 1.0312739931	 0.409988188	 1.8930090815	 0.125623
H	-2.5386407722	-0.9494747984	-1.794103789	 0.140129
H	 0.9931075513	-1.2672514287	-1.4134872979	 0.089722
H	 1.4631863676	 1.6426434716	-2.0943756918	 0.128805
H	 2.6361769744	 0.4339028783	-1.5291300801	 0.114212
