16
gdb 34122	3.48854	1.53706	1.4115	4.9155	73.08	-0.2676	0.0102	0.2778	943.9805	0.126293	-400.716489	-400.710017	-400.709072	-400.74724	26.519	
N	 0.0182438961	-1.0993454374	-0.1063878245	-0.337817
C	 0.0111854307	 0.0550869962	-0.058599587	 0.184712
C	 0.0438480586	 1.496331113	 0.0580086431	 0.322654
C	-0.3985432112	 2.2667421592	 1.3292980999	-0.27335
C	 0.3968883454	 3.3979651929	 0.6649735087	-0.089816
C	-0.0610046227	 3.4441111741	-0.8553449492	 0.079843
C	 1.3871188966	 3.1233070926	-1.2841858096	-0.244412
C	 1.393970737	 2.3543872592	 0.0417484852	-0.099507
O	-0.7022713333	 2.1590240569	-0.9733971096	-0.299378
H	-1.4757463098	 2.359210038	 1.4797841945	 0.120703
H	 0.1014351911	 1.9077085043	 2.2316183232	 0.122514
H	 0.7077367358	 4.3153384774	 1.1581918663	 0.091492
H	-0.679918061	 4.2232818553	-1.2944194441	 0.094102
H	 1.5191684601	 2.59268081	-2.2292869142	 0.118344
H	 2.0467803208	 3.9931718046	-1.2250884339	 0.111789
H	 2.2668362559	 1.9489105738	 0.5475535612	 0.098125
