20
gdb 15716	3.30579	1.54529	1.21169	1.7011	70.72	-0.2405	0.0678	0.3082	1061.5706	0.177104	-386.144195	-386.135415	-386.134471	-386.177788	31.865	
C	-0.0594598697	 1.5948808523	 0.0719778451	-0.389586
C	 0.0089452419	 0.0647309097	 0.1298211784	-0.193811
C	-1.3507996313	-0.6082471338	-0.0659867824	 0.009045
C	-2.0154709046	-0.3960569748	-1.4346804471	-0.068366
O	-2.9795180196	-1.4394072913	-1.573245558	-0.266027
C	-2.6843643603	-2.4870046425	-0.6556464693	-0.085115
C	-1.3445391528	-2.1442979299	 0.0080054523	 0.070241
O	-0.2321864713	-2.6099079411	-0.7475765921	-0.434981
H	 0.9243342683	 2.0382621626	 0.2539593337	 0.113426
H	-0.4027221019	 1.947055683	-0.9065182433	 0.120093
H	-0.7478664637	 1.9926341265	 0.8264654012	 0.111873
H	 0.7032254332	-0.3111348126	-0.6277588724	 0.119662
H	 0.4190141048	-0.2441382573	 1.0994792651	 0.09344
H	-2.0446644074	-0.2539873663	 0.7086710363	 0.074555
H	-2.5361043906	 0.5625425834	-1.5211054859	 0.101042
H	-1.266967926	-0.4599116855	-2.2385454612	 0.098415
H	-3.4864145372	-2.561506233	 0.0940719128	 0.091722
H	-2.6347775365	-3.4451526672	-1.1915416932	 0.086495
H	-1.2941012216	-2.5137065931	 1.0423590168	 0.063292
H	-0.3107719838	-3.563918439	-0.841787957	 0.284586
