11
gdb 9028	4.71408	0.93295	0.80313	4.0817	70.5	-0.2914	-0.0605	0.2309	1295.2803	0.069973	-360.194959	-360.186812	-360.185868	-360.228062	28.136	
O	-0.0610328791	 1.4450703171	 0.0236324153	-0.378168
C	 0.0418115446	 0.0306977284	-0.0051450776	-0.253624
C	 0.6845297552	-0.4720602075	-1.225645295	 0.314228
C	 1.2221164413	-0.8516965398	-2.2298339651	-0.427685
C	 0.7307421973	-0.4913133784	 1.1878642392	 0.169726
C	 1.2972654062	-0.8903042258	 2.1763900743	 0.001557
C	 1.940106868	-1.3441588793	 3.2925858064	 0.216167
N	 2.4876334117	-1.7299635982	 4.2413420135	-0.328256
H	 0.8255638842	 1.8079411475	-0.0918311409	 0.299511
H	-0.9967326459	-0.3249874634	 0.0232865156	 0.168668
H	 1.6911213567	-1.1946315605	-3.1197268956	 0.217875
