17
gdb 55938	4.26393	0.94319	0.86457	1.9441	69.63	-0.2402	0.0554	0.2957	1331.2272	0.136452	-455.141897	-455.133496	-455.132552	-455.175965	31.391	
N	-0.11479578	 1.3717178031	 0.0871670652	-0.567862
C	 0.0561976486	-0.0042030877	-0.0130602951	 0.45487
O	 1.1537048234	-0.5296433113	-0.0518798159	-0.394879
N	-1.125723278	-0.7115259277	-0.0402517399	-0.342753
C	-1.1385051192	-2.1445586591	 0.0455280791	 0.037246
C	-1.5158949444	-2.8421512284	 1.4180066965	-0.277543
C	-2.7241579035	-3.4527893322	 0.7062309596	 0.033942
O	-3.5015800214	-2.3584310467	 0.1937088654	-0.260177
C	-2.3744422577	-2.8130780579	-0.5723383038	-0.004488
H	 0.7305233665	 1.8789077938	-0.1268720749	 0.260069
H	-0.9467976723	 1.7724741636	-0.3198097385	 0.247402
H	-1.9818593137	-0.2523174925	 0.2313708998	 0.246003
H	-0.1894829115	-2.5124728877	-0.3425039793	 0.124594
H	-0.7647557617	-3.5721694528	 1.7274510594	 0.117845
H	-1.7529470078	-2.1772406885	 2.251721049	 0.109718
H	-3.2483771244	-4.3804365637	 0.8995185861	 0.110628
H	-2.5608320928	-3.1030558043	-1.6001033827	 0.105386
