22
gdb 60219	3.89765	0.88796	0.80778	2.7354	81.6	-0.2272	0.0641	0.2913	1495.0017	0.193725	-404.300031	-404.290638	-404.289693	-404.334612	35.599	
C	 0.0861029504	 1.5652277235	-0.0329322426	-0.405658
C	 0.0196890069	 0.0387866776	 0.0116368992	 0.1374
O	 0.6873138312	-0.472210211	 1.1661490616	-0.422965
C	-1.4173116436	-0.4910717841	-0.0914042609	-0.227513
C	-1.5013214515	-2.0151059234	-0.1111558294	 0.02964
C	-1.2954819597	-2.857817181	 1.17965537	-0.171846
N	-2.5837455916	-3.6147897892	 0.9695423968	-0.128737
C	-3.6414229981	-2.5939210471	 1.0465182228	-0.234669
C	-2.8686424602	-2.6925611585	-0.2079401117	-0.060405
H	 1.1219367271	 1.9031677855	 0.058406788	 0.125122
H	-0.3264453635	 1.9549881076	-0.9690703248	 0.117238
H	-0.4909395671	 2.0034738017	 0.7915601496	 0.106212
H	 0.5991410836	-0.3660266557	-0.8283529125	 0.088734
H	 0.2724935754	-0.076675088	 1.9409743263	 0.275871
H	-2.0070975534	-0.0865941405	 0.7435050531	 0.081809
H	-1.87343778	-0.0925933446	-1.0080527928	 0.097003
H	-0.8450528421	-2.3966495997	-0.9003789856	 0.080226
H	-0.4395052561	-3.5322875707	 1.1433215819	 0.114524
H	-1.2699371174	-2.3075187765	 2.1255396077	 0.088058
H	-4.6416536134	-3.0169088393	 1.0478690482	 0.117993
H	-3.5109019928	-1.7466430954	 1.7173082234	 0.103122
H	-3.314833574	-3.0677348912	-1.1246001783	 0.088841
