19
gdb 119761	3.99168	0.83624	0.70347	5.015	81.48	-0.2308	-0.0361	0.1947	1593.0287	0.158363	-423.056938	-423.047741	-423.046797	-423.091858	32.66	
C	 0.0151446741	 1.4174916112	-0.0505112807	-0.227897
O	-0.0058750513	 0.0103299919	 0.0132265392	-0.225531
C	 0.6220581424	-0.597153307	-1.0844571134	-0.145748
C	 0.5708165842	-2.0831023929	-0.9684097236	 0.287567
C	 0.0153472977	-2.796616071	 0.0211242865	-0.279333
C	 0.1705012304	-4.244423409	-0.2271184893	 0.396013
O	-0.2159128594	-5.1550114386	 0.4688910607	-0.338226
C	 0.9288939763	-4.3942582515	-1.5592492913	-0.335398
C	 1.1896649926	-2.955602313	-2.0419665483	-0.315664
H	 1.0440493446	 1.810119437	-0.0642672885	 0.108124
H	-0.5085675412	 1.7934770127	-0.9434550223	 0.108128
H	-0.4937112302	 1.7898048993	 0.8410912455	 0.135151
H	 0.1443438528	-0.2898960963	-2.034881501	 0.103284
H	 1.6781329319	-0.2747323903	-1.1659486996	 0.103248
H	-0.4834040721	-2.3956297816	 0.8919538628	 0.123408
H	 1.8478402327	-4.9624819376	-1.3899257484	 0.132916
H	 0.3210469491	-4.9766618191	-2.2573600764	 0.132915
H	 0.735954659	-2.749464495	-3.0193814217	 0.118502
H	 2.2585970167	-2.7349187693	-2.1532191701	 0.118539
