23
gdb 60256	2.81667	0.95089	0.77642	1.6185	82.08	-0.2529	0.0716	0.3244	1540.8873	0.204047	-425.413911	-425.403475	-425.402531	-425.449871	38.768	
C	-0.1867836347	 1.5779096487	 0.2197251054	-0.404535
C	-0.066881488	 0.0662302972	 0.0208301457	 0.12679
O	 0.8884882814	-0.4909320721	 0.9266513607	-0.427561
C	-1.4274229353	-0.6378934563	 0.097869789	-0.187327
C	-1.3715416865	-2.1314462544	-0.2336300201	-0.014688
C	-0.9955644105	-3.0720783649	 0.9522436791	-0.214347
C	-2.5058578117	-3.3574604839	 1.1763304851	-0.262364
C	-2.7601983555	-2.8305244304	-0.2606294363	 0.127882
O	-3.850531826	-1.9700789016	-0.5032092537	-0.431752
H	 0.800932895	 2.0452982808	 0.1770526552	 0.120748
H	-0.8217883095	 2.0318254065	-0.5476612998	 0.116957
H	-0.6322708627	 1.8073384167	 1.196435557	 0.104444
H	 0.3670881321	-0.1257839751	-0.9692256318	 0.085679
H	 0.6025044452	-0.2676460301	 1.8195542445	 0.2736
H	-1.8571605854	-0.4796545435	 1.0976385154	 0.080165
H	-2.114461479	-0.1474639163	-0.6012497079	 0.111934
H	-0.7813019193	-2.2690194961	-1.1455641911	 0.063544
H	-0.4510940465	-3.9584949768	 0.6167444084	 0.099025
H	-0.4392494215	-2.6199023927	 1.7726725253	 0.095578
H	-2.8126051415	-4.3800196488	 1.4117884037	 0.087647
H	-2.9454496035	-2.676991111	 1.9115901757	 0.102931
H	-2.749982045	-3.6609585523	-0.9821398832	 0.06299
H	-4.6591438018	-2.4909048737	-0.4769368561	 0.282659
