18
gdb 88502	2.36851	1.50427	1.15998	1.4852	78.32	-0.2267	0.0178	0.2446	1121.0679	0.145002	-401.849784	-401.840721	-401.839777	-401.883511	33.911	
C	-0.2581571737	 1.4569446602	-0.0785181694	-0.330272
N	 0.0051394337	 0.025029802	 0.0417144921	-0.086854
C	 1.3721889616	-0.4342160325	-0.1849156778	-0.259758
C	 0.777633457	-0.4669938118	 1.1793956198	-0.089419
C	 1.3044575867	 0.4362737354	 2.2679610793	 0.168617
C	 2.7269694527	 0.3393786405	 2.6687711486	-0.210516
O	 2.2677380877	 1.4361451622	 1.8865644264	-0.257565
C	 0.3301885347	 0.8572640889	 3.2492958928	 0.300571
C	-0.5037816481	 1.1765816345	 4.0536114766	-0.407996
H	 0.5834260595	 2.0993173668	 0.2130636082	 0.132521
H	-0.513089125	 1.670873596	-1.1210576625	 0.120801
H	-1.1215779567	 1.7127624779	 0.5426297651	 0.12991
H	 1.4809835719	-1.3510238222	-0.758657478	 0.111945
H	 2.1376277322	 0.3195426576	-0.3575807839	 0.125168
H	 0.4073283201	-1.4102428011	 1.5794108633	 0.100986
H	 3.0077873492	 0.5813695002	 3.69148585	 0.127665
H	 3.3648705627	-0.3743184461	 2.1500852533	 0.122717
H	-1.2369537561	 1.4675512515	 4.7650706763	 0.201478
