14
gdb 27715	3.005	1.2772	0.89771	5.4349	76.12	-0.1971	-0.0043	0.1927	1197.5931	0.102446	-432.916485	-432.908097	-432.907152	-432.949291	31.171	
N	 0.1167777294	 1.3846249013	 0.1801863261	-0.606338
C	-0.0099311754	 0.0080367318	 0.0342785534	 0.362328
C	-1.1441243048	-0.7873731373	-0.0228153384	-0.309416
C	-0.6976753195	-2.1272844624	-0.0542164975	 0.30567
O	-1.5210004082	-3.1915169231	-0.1363560836	-0.431291
C	 0.6924325116	-2.1327115023	-0.0259567001	 0.070281
N	 1.0935921841	-0.7864353194	 0.0077199579	-0.380063
C	 1.5675723573	-3.2210124786	-0.0718897123	 0.159271
N	 2.2592710982	-4.156542031	-0.1040772923	-0.380132
H	 0.8077031008	 1.8023982677	-0.4312313142	 0.255771
H	-0.7665583798	 1.8654029739	 0.081781375	 0.261549
H	-2.1671654988	-0.4513509592	-0.06605611	 0.108008
H	-0.9929888311	-3.9993057288	-0.1524393718	 0.312073
H	 2.0204908063	-0.4840467727	 0.2543868277	 0.272289
