16
gdb 34340	3.09828	1.60823	1.32157	0.3999	74.65	-0.2383	0.0028	0.2411	978.2085	0.123812	-400.624668	-400.617426	-400.616482	-400.656089	29.029	
C	-0.084366728	-1.1387945588	-0.0888605925	-0.362883
C	-0.0312126352	 0.0614462925	-0.0451956889	 0.223419
C	 0.0372275631	 1.4953559704	 0.0337368163	 0.23758
O	-0.4515527106	 2.1957247226	-1.1468259334	-0.336812
C	 0.7963298392	 2.9325021768	-1.2784005556	-0.114014
C	 1.3232706122	 2.3504419203	 0.0366391876	-0.076586
N	 0.9619753892	 3.0028178394	 1.3561823741	-0.154911
C	-0.3752219637	 3.6266684606	 1.2551693482	-0.252701
C	-0.3140718048	 2.1651241459	 1.3843983101	-0.072975
H	-0.1316093487	-2.1989250125	-0.13707656	 0.197699
H	 1.3576115663	 2.6013696601	-2.1603185835	 0.116579
H	 0.643136079	 4.0156301547	-1.330559028	 0.113892
H	 2.3269813316	 1.9337954782	 0.0751220127	 0.109871
H	-0.6194755138	 4.1921649273	 2.1489715773	 0.127528
H	-0.7230554141	 4.0671008638	 0.327827229	 0.139907
H	-0.6168622817	 1.6137752787	 2.2682369464	 0.104407
