23
gdb 113823	3.9254	0.79462	0.7248	1.6809	87.87	-0.2504	0.087	0.3374	1687.3087	0.204277	-388.265992	-388.255831	-388.254887	-388.302017	37.319	
C	-0.1846471771	 1.5066880587	-0.4436396556	-0.375257
C	-0.0075430591	 0.2178667207	 0.3692126111	-0.212011
C	-1.3178590483	-0.5095411084	 0.5542087793	 0.066236
O	-1.8500110412	-1.2061067931	-0.5806226215	-0.274282
C	-1.4911461362	-1.9731139237	 0.5807345869	 0.053001
C	-0.3851690792	-2.9628316339	 0.4451384596	-0.031176
C	-0.1551188378	-3.9830070131	 1.5417861923	-0.305637
C	-0.6569653909	-4.4350551814	 0.1956527995	 0.006889
C	-2.0506927528	-4.9987341128	 0.0222185085	-0.405572
H	 0.769629483	 2.0250492456	-0.5755509587	 0.111815
H	-0.5917449862	 1.281429639	-1.4338166864	 0.13447
H	-0.87497709	 2.1972430407	 0.0531370463	 0.114372
H	 0.7153220422	-0.4340682862	-0.12950572	 0.105253
H	 0.4032135575	 0.4520978745	 1.3600926531	 0.099766
H	-2.0710430485	 0.0762678712	 1.0900528906	 0.079598
H	-2.3564771652	-2.3388753114	 1.1370074234	 0.080798
H	 0.503769358	-2.5748026297	-0.0397650314	 0.085358
H	 0.8645033819	-4.2040518605	 1.837141675	 0.111514
H	-0.8649888474	-3.9931501352	 2.3640824292	 0.109725
H	 0.0858391787	-4.9134935457	-0.4377591984	 0.086352
H	-2.76729434	-4.5451487486	 0.7127711121	 0.116192
H	-2.4224539468	-4.8354096474	-0.9949486888	 0.126881
H	-2.0550530145	-6.0776292694	 0.212301494	 0.115714
