19
gdb 34396	2.73256	1.50594	1.27706	1.8917	80.89	-0.2497	0.0289	0.2786	1069.5264	0.159917	-385.856742	-385.848777	-385.847833	-385.889016	31.575	
C	 0.0424259598	-1.2093124449	-0.1582187406	-0.397453
C	 0.0321486066	-0.0102365737	-0.0687453938	 0.24805
C	 0.0247994433	 1.4388229474	 0.0204585281	 0.246298
C	-0.8223903011	 2.1489302094	-1.0453659015	-0.250942
C	-0.2394209315	 3.5721744674	-1.0962655583	-0.225168
C	 1.2783726684	 3.3556910066	-0.9191213441	-0.223936
C	 1.3984152485	 2.1996904221	 0.0822602117	-0.108259
C	 0.9890477771	 2.514598183	 1.5321592328	-0.086993
O	-0.311011541	 1.9115693421	 1.3579860898	-0.325174
H	 0.0478081094	-2.2689579358	-0.2289484972	 0.191176
H	-0.688484833	 1.6372410423	-2.0051061309	 0.108485
H	-1.8836281048	 2.1125635298	-0.7863571235	 0.116873
H	-0.4862793633	 4.0984403585	-2.0217861438	 0.096981
H	-0.6393981569	 4.1638985105	-0.2664906114	 0.115624
H	 1.7274221066	 3.0583009656	-1.8739508674	 0.103988
H	 1.8025993638	 4.2555004919	-0.5812642575	 0.100692
H	 2.3017306799	 1.6020121937	-0.033610534	 0.085886
H	 1.575074509	 1.9958782642	 2.3007964947	 0.105271
H	 0.9145128191	 3.5773468801	 1.7945433466	 0.098603
