17
gdb 53522	3.11303	0.82275	0.67349	2.1664	84.92	-0.2477	-0.0318	0.216	1643.3037	0.131139	-384.639615	-384.628876	-384.627932	-384.677758	35.975	
C	 0.0026546217	 1.5029548354	-0.0094269226	-0.499078
C	 0.019722682	 0.0487763795	 0.0497544326	 0.120546
C	 0.0406760797	-1.1539484498	 0.0989818757	 0.016907
C	 0.0153240844	-2.6096027299	 0.1460742342	-0.370767
C	-1.4271851875	-3.1858460971	 0.0017622917	-0.242035
C	-2.0176438053	-2.780428811	-1.3560884122	 0.179386
O	-3.0264705125	-2.147579329	-1.4933875927	-0.23555
C	-1.4182111945	-4.640865753	 0.0871758603	 0.295837
C	-1.3951287358	-5.8427403896	 0.1086291412	-0.436003
H	 0.7037041242	 1.87865848	-0.7626553272	 0.150251
H	-0.9946127178	 1.8738508441	-0.2695017096	 0.156612
H	 0.2810514813	 1.9439015135	 0.9539186479	 0.149834
H	 0.6400272842	-3.0332376432	-0.6504664637	 0.140232
H	 0.4336886612	-2.9784553297	 1.088973415	 0.146779
H	-2.0711581142	-2.7541931921	 0.7741933121	 0.134227
H	-1.4192711052	-3.1382123165	-2.223807284	 0.087923
H	-1.3889415759	-6.9041795417	 0.1483359213	 0.204898
