21
gdb 104845	2.33405	1.23538	1.09923	3.5473	74.31	-0.2442	0.0502	0.2944	1235.4855	0.181157	-461.333974	-461.32397	-461.323026	-461.369065	36.643	
C	-0.3636891146	 1.4402628746	-0.0210863547	-0.416374
C	 0.2243775674	 0.0417258848	-0.044190079	 0.108177
O	 1.5348888746	-0.0022546073	-0.6495551926	-0.297214
C	 2.0381406534	-0.8638294901	 0.3957051623	-0.105944
C	 0.7601814786	-0.6641617471	 1.2418665176	 0.227207
C	 0.9646026511	 0.2732366552	 2.4257415136	-0.152586
O	 1.7138497037	-0.4256907972	 3.4248603531	-0.429173
C	 0.0321565523	-1.9497965933	 1.647598492	-0.125039
O	 0.8444255391	-2.8337147982	 2.3935987953	-0.429276
H	 0.2805524423	 2.1504016109	 0.5034388698	 0.11991
H	-0.4840715255	 1.7966305704	-1.0490488821	 0.132268
H	-1.3518018189	 1.4391278711	 0.4516739889	 0.117162
H	-0.4669103638	-0.6236882918	-0.5855925131	 0.069028
H	 2.1869666642	-1.8941214695	 0.0511636448	 0.109747
H	 2.9744130299	-0.4894104488	 0.8230028708	 0.106376
H	 1.5091288811	 1.1733878936	 2.1100876826	 0.103812
H	-0.0111990991	 0.5888913709	 2.8258847575	 0.095344
H	 1.7938102121	 0.1348156552	 4.2018727646	 0.296498
H	-0.8952045673	-1.6903659939	 2.1898774666	 0.07638
H	-0.2670070569	-2.4966662204	 0.7461394822	 0.10224
H	 1.2320114661	-2.3071155594	 3.1052435701	 0.291458
