12
gdb 23901	4.44808	1.17676	1.14955	3.0951	46.14	-0.2809	0.0094	0.2903	1003.4471	0.079516	-546.158059	-546.150343	-546.149399	-546.191361	26.208	
F	-0.300547686	 0.1220536001	 0.8778406251	-0.079176
C	-0.128956809	 1.3338310094	 0.3281909743	 0.278119
F	 1.1689979972	 1.4858246993	 0.0695667498	-0.061205
F	-0.7965709009	 1.3609257572	-0.834245885	-0.072922
C	-0.6597035298	 2.4320058268	 1.2452475642	-0.220596
O	 0.0147228697	 2.4378034692	 2.4813569713	-0.174199
C	-0.4773353463	 1.6285054883	 3.4561206315	 0.133825
N	 0.1465687628	 1.5238709033	 4.5426885791	-0.428198
H	-0.4785232919	 3.3966436527	 0.7669378261	 0.154568
H	-1.7408191557	 2.2873362996	 1.3586508791	 0.134835
H	-1.4212568681	 1.140886502	 3.1819466399	 0.097931
H	-0.355295982	 0.9076102321	 5.1783133846	 0.237017
