17
gdb 20729	3.25951	1.97017	1.25082	2.9725	71.56	-0.2001	0.0431	0.2432	965.3539	0.142791	-360.075643	-360.066885	-360.065941	-360.108707	31.357	
C	-0.1165538903	 1.4703518674	-0.0615834336	-0.494605
C	-0.0646670308	-0.0218358147	 0.0278747625	 0.285824
N	-0.0801508774	-0.7633485014	-1.0742418773	-0.301225
N	-0.0168145621	-2.0408017589	-0.619587739	-0.24718
C	 0.047618953	-2.1177670627	 0.7334419864	 0.286315
N	 0.0666073641	-3.3592900423	 1.3837615045	-0.610469
C	 0.0211395767	-0.8168967284	 1.2054741866	 0.100186
C	 0.0868865624	-0.3597022822	 2.6292407926	-0.522534
H	 0.7564963502	 1.934926068	 0.4122198108	 0.120774
H	-0.1417727188	 1.776934722	-1.1094409119	 0.138092
H	-1.0048734163	 1.8744620956	 0.4379436108	 0.122515
H	-0.0887704855	-2.8040329988	-1.2696232935	 0.264307
H	 0.879257708	-3.9187865351	 1.1470570075	 0.248315
H	 0.0339593838	-3.2476186425	 2.3889409152	 0.250101
H	 0.5063753211	-1.1351881766	 3.2812681674	 0.104698
H	 0.7249901807	 0.5244204722	 2.7358397074	 0.127836
H	-0.8968124188	-0.0938204615	 3.0374611332	 0.127049
