18
gdb 70493	2.63765	1.51938	1.11973	4.447	83.88	-0.2489	-0.0412	0.2077	1113.0714	0.148489	-364.839105	-364.830992	-364.830048	-364.87153	31.327	
C	-0.0311350325	 1.5484782687	-0.0102045931	-0.491467
C	 0.0380791774	 0.0408756494	-0.0018023663	 0.238032
C	-0.8257881246	-0.7877704163	 0.9288917755	-0.316134
C	 0.6731842867	-0.7960263685	 1.1014271491	-0.085441
C	 1.4660568598	-1.929597146	 0.4537637063	-0.274871
C	 1.1620240439	-1.7814383702	-1.0165069462	-0.171482
C	 0.4094464684	-0.6968490968	-1.2625064778	 0.16472
C	-0.0305882928	-0.2747881453	-2.547571478	 0.203926
N	-0.400973652	 0.1032958672	-3.5783524599	-0.34803
H	 0.9156532293	 1.9909096225	-0.3383873253	 0.125757
H	-0.8169206955	 1.9041909052	-0.6853178033	 0.140118
H	-0.2531069026	 1.929388249	 0.9908312323	 0.119414
H	-1.4005563753	-0.2493610736	 1.6756868304	 0.116192
H	-1.3172796126	-1.6700824109	 0.5312718754	 0.116892
H	 1.084036114	-0.3108082667	 1.9791333308	 0.093905
H	 2.5445091799	-1.8349905374	 0.6396274352	 0.12306
H	 1.1775420894	-2.919917653	 0.8294135575	 0.124371
H	 1.4982930191	-2.4835351972	-1.7698565627	 0.12104
