13
gdb 42637	2.81251	1.78267	1.30655	3.3724	69.22	-0.2358	-0.0196	0.2161	933.3907	0.087192	-419.32931	-419.322248	-419.321304	-419.360784	27.426	
O	-0.0346452558	 0.0521143629	 0.0027740213	-0.314986
C	-0.0476159609	 1.2422540929	 0.07486359	 0.446179
C	-1.0976449262	 2.3053109454	 0.0602693026	-0.267493
C	-0.3822232491	 3.535996505	 0.6277512382	 0.100977
O	 0.8925662014	 3.1364990117	 1.1331655516	-0.322708
C	 1.0503194459	 2.3575720036	-0.1001224463	 0.221327
C	 2.3775111658	 2.1189042388	-0.5549042077	 0.037666
C	 3.4824940932	 1.8804695368	-0.9625500516	-0.305178
C	-0.114072242	 3.1910612526	-0.7788467471	-0.195864
H	-2.1696598781	 2.2166251753	-0.0394531549	 0.127018
H	-0.9024075602	 4.3604035873	 1.0962659805	 0.134717
H	 4.4622348528	 1.6699474511	-1.3155638743	 0.196906
H	-0.246959907	 3.6392511467	-1.7514995423	 0.141439
