27
gdb 122628	3.71268	0.64634	0.58863	0.112	96.92	-0.2758	0.0843	0.3601	2052.1559	0.251648	-353.561903	-353.550973	-353.550028	-353.598628	40.453	
C	-0.0214467656	 1.6438889991	-0.0620411948	-0.379765
C	 0.0086200842	 0.1177235635	 0.0577475245	-0.163168
C	-1.3827943404	-0.5212391655	-0.0061051372	-0.157819
C	-1.361578311	-2.0502917966	 0.1171579745	-0.215549
C	-2.7502908688	-2.6739600189	 0.0489347236	 0.050775
C	-3.5439303802	-2.6424030236	-1.2883017623	-0.223279
C	-4.0833292058	-4.0598875876	-0.960363459	-0.222912
C	-2.9353415313	-4.2310616955	 0.0795673335	-0.005673
C	-1.759512046	-5.0564054784	-0.4391887062	-0.390751
H	 0.9854897069	 2.0702144781	-0.0111961114	 0.109355
H	-0.4680306863	 1.9576740561	-1.012220981	 0.11238
H	-0.6136733526	 2.0925376013	 0.7434850812	 0.112203
H	 0.6355256129	-0.3004163381	-0.7411319165	 0.09264
H	 0.4938126971	-0.1664455761	 1.0011524645	 0.092372
H	-2.0113222279	-0.1012823023	 0.7920200892	 0.088696
H	-1.8678153017	-0.2385846746	-0.9506639977	 0.095027
H	-0.7271805197	-2.4656514041	-0.6770826998	 0.089108
H	-0.8820917359	-2.3286376037	 1.0665968749	 0.088195
H	-3.372237487	-2.2383151519	 0.8412653343	 0.063578
H	-4.2740208427	-1.8415320052	-1.4291518038	 0.091586
H	-2.8744388421	-2.6498940258	-2.1549952639	 0.094945
H	-5.0684359131	-4.0246658964	-0.4866804353	 0.095431
H	-4.1196000957	-4.7861504932	-1.7775721001	 0.08962
H	-3.2461742214	-4.6272953638	 1.0518086194	 0.059238
H	-1.4353123151	-4.7270095217	-1.4326015709	 0.112224
H	-0.8942972572	-4.9953766202	 0.2294849801	 0.112367
H	-2.0428047635	-6.1115377949	-0.5219900598	 0.109178
