23
gdb 113222	3.20305	0.99205	0.85619	1.6673	86.42	-0.2574	0.0935	0.3509	1478.5717	0.203732	-388.27291	-388.262714	-388.26177	-388.308364	37.832	
C	-0.35896373	 1.3828071671	-0.6030947628	-0.372045
C	-0.1475428224	 0.1585709775	 0.2972370744	-0.220971
C	-1.3696461845	-0.7273790554	 0.331123205	 0.034253
O	-1.6495256696	-1.5120158357	-0.8430978024	-0.301224
C	-1.3849427745	-2.2025555189	 0.3904642831	 0.357607
C	-0.116204006	-3.0280286667	 0.4235278201	-0.463145
C	-2.5819765697	-2.8983389878	 0.9853950146	-0.058225
C	-3.9794874647	-2.5176934957	 0.5802696851	-0.27335
C	-3.3989153677	-3.8340055002	 0.1262669072	-0.264786
H	 0.5294742362	 2.0210057572	-0.6163332397	 0.11192
H	-0.5713598033	 1.0705038722	-1.6298629301	 0.133926
H	-1.2025136369	 1.9895573597	-0.2561599061	 0.114649
H	 0.721771694	-0.4065290203	-0.0498810278	 0.102632
H	 0.0710436908	 0.4824704641	 1.3234308853	 0.09969
H	-2.2597930564	-0.2311996249	 0.7273186205	 0.080435
H	 0.7106383591	-2.5286379709	-0.0829894199	 0.125907
H	 0.1806347183	-3.2347497301	 1.4577683108	 0.117996
H	-0.2873252163	-3.9896978857	-0.0711161779	 0.128237
H	-2.4370504913	-3.2012445185	 2.0194426243	 0.082425
H	-4.7536907905	-2.5240741116	 1.3393105672	 0.105364
H	-4.0793644457	-1.745569527	-0.1738302289	 0.12854
H	-3.1239637156	-3.9127100754	-0.9199922787	 0.122679
H	-3.7706680334	-4.751511493	 0.5684569868	 0.107485
