21
gdb 92243	2.59667	1.63752	1.30177	1.7627	81.63	-0.2308	0.0697	0.3005	1078.113	0.183273	-387.046187	-387.038227	-387.037283	-387.078442	31.888	
C	-0.1890751226	 1.5672594258	-0.0582532154	-0.411648
C	 0.0331852205	 0.0614836244	-0.0218696311	-0.087126
C	 1.1971539129	-0.5584067314	-0.8724597513	-0.26305
C	 1.6460937559	-1.3960704056	 0.35788767	 0.065191
O	 2.815479524	-0.8913026575	 1.0388451156	-0.306252
C	 1.9782035814	-0.0836254435	 1.8936233988	 0.066863
C	 1.5251000352	-0.7796477406	 3.2092456948	-0.233844
C	 0.1193842298	-1.057692912	 2.5786752951	-0.351185
C	 0.6593525012	-0.5741998086	 1.2285851109	 0.329854
H	 0.7356539381	 2.1083025277	 0.1706776443	 0.116076
H	-0.5280796924	 1.8929642883	-1.0476576787	 0.11669
H	-0.9474065287	 1.8764813905	 0.6701093783	 0.113653
H	-0.9062660312	-0.4539739189	-0.2579010065	 0.072602
H	 0.8871923258	-1.1280118578	-1.7516772344	 0.099895
H	 1.9658331933	 0.161132792	-1.1658714322	 0.110081
H	 1.647787001	-2.4856031014	 0.2610631486	 0.071338
H	 2.3180984924	 0.9539011488	 1.9590954171	 0.071781
H	 2.1186022618	-1.6713071029	 3.4208389912	 0.114596
H	 1.5162096691	-0.1393633287	 4.0943863685	 0.101674
H	-0.2581153044	-2.0835719816	 2.6202423152	 0.098748
H	-0.6513240435	-0.394298917	 2.9841796612	 0.104062
