29
gdb 100930	1.68818	1.01506	0.8092	0.0731	99.36	-0.2907	0.0827	0.3734	1716.4392	0.273309	-354.775256	-354.762879	-354.761934	-354.813292	45.268	
C	 1.7843618938	 1.907929053	 1.7018269586	-0.391982
C	 1.9833922905	 0.4475915148	 1.2793363111	-0.164861
C	 0.6882406803	-0.3925216706	 1.2741448024	 0.034086
C	-0.2748824469	 0.0550614757	 0.1624518112	-0.408824
C	 0.9523856474	-1.9254122404	 1.2098370536	 0.053572
C	 1.89954174	-2.3223115228	 0.0553233672	-0.18282
C	 1.7798263625	-3.7883511608	-0.3772161364	-0.393123
C	 1.4453411237	-2.4970683072	 2.5571471725	-0.191642
C	 0.3808937645	-2.5500930767	 3.6589518979	-0.387475
H	 1.3383465551	 1.9726909566	 2.7009361169	 0.111616
H	 2.7403431793	 2.4406441919	 1.7313372707	 0.109194
H	 1.1303352315	 2.4508076583	 1.0125106787	 0.116825
H	 2.4417054116	 0.4196510845	 0.282602301	 0.093209
H	 2.7121346579	-0.0106289171	 1.9585611013	 0.093453
H	 0.1781305271	-0.1982956732	 2.2275909947	 0.065965
H	 0.1601640483	-0.0850616331	-0.8335720094	 0.113365
H	-1.2084205641	-0.5163003957	 0.1998804121	 0.10862
H	-0.535246926	 1.1132719396	 0.2569021073	 0.111866
H	-0.0208473715	-2.3966656311	 1.0027488541	 0.057103
H	 1.6977171199	-1.6915545665	-0.8178969877	 0.092499
H	 2.9368181722	-2.1109820766	 0.3454264684	 0.093328
H	 0.7648857292	-4.0129109259	-0.7242869413	 0.112927
H	 2.4684027551	-4.0127881159	-1.1981901646	 0.109246
H	 2.0091553228	-4.4815436892	 0.4384524688	 0.117019
H	 1.8207236718	-3.5138872049	 2.3946322146	 0.0925
H	 2.3092669475	-1.917975373	 2.9083883535	 0.094404
H	 0.7858155162	-2.9956028119	 4.5733372187	 0.109497
H	 0.0043790731	-1.5563789144	 3.921247538	 0.117729
H	-0.477384273	-3.1558581975	 3.3467453065	 0.112703
