19
gdb 49058	2.41322	1.66681	1.26617	2.8417	80.65	-0.237	-0.0216	0.2154	1058.9829	0.160072	-385.902882	-385.895001	-385.894057	-385.93558	30.409	
O	-0.1273719322	-0.0679907265	-0.0737096712	-0.252551
C	 0.0011406771	 1.1299465785	-0.0888776133	 0.095629
C	 1.3103426008	 1.8729102084	-0.0648546327	 0.212564
C	 1.3422903825	 3.0981639356	 0.9109320317	-0.280461
C	 1.9306667001	 3.9792766221	-0.2208300063	-0.222567
C	 1.6045278483	 2.8690725296	-1.2601832709	-0.054956
C	 2.78735102	 2.2773180848	-2.0477229288	-0.280636
C	 3.3215077729	 1.2130774121	-1.1144393646	-0.065006
C	 2.5305813761	 0.99319608	-0.0648094854	-0.134425
H	-0.892609325	 1.7994986755	-0.1221651618	 0.06374
H	 0.3354669962	 3.4091358381	 1.2083309299	 0.103425
H	 1.9440901264	 2.96694011	 1.8129304966	 0.110231
H	 1.4481529898	 4.946389611	-0.3787766847	 0.102579
H	 3.0061653478	 4.1453747137	-0.1174780405	 0.108268
H	 0.739468391	 3.1067907346	-1.882924107	 0.073128
H	 2.4790663154	 1.8412597155	-3.0075563602	 0.111202
H	 3.5353106438	 3.0453053572	-2.2844706032	 0.106708
H	 4.2451254904	 0.6798119349	-1.3133129344	 0.097601
H	 2.7027616786	 0.254896775	 0.7094194767	 0.105525
