16
gdb 8838	3.54794	1.28278	1.06585	4.2967	63.28	-0.2567	-0.0517	0.2051	1120.7763	0.126547	-420.899752	-420.890615	-420.889671	-420.934646	31.24	
C	 0.119523166	 1.5071476883	 0.1024389572	-0.378702
C	 0.1398271036	-0.0134149549	-0.0431981572	-0.292727
C	 0.8338225988	-0.4914989247	-1.2994299956	 0.351009
O	 1.3533867066	 0.2547328813	-2.0985111517	-0.309097
C	 0.8894335983	-2.0080390075	-1.5963399381	-0.038136
O	 1.4087479685	-2.240225477	-2.8582734352	-0.407373
C	 1.693285146	-2.719425743	-0.4917175758	 0.131262
O	 2.7803308011	-3.1938704495	-0.6561833625	-0.214821
H	 1.1346534191	 1.9104411615	 0.1218028369	 0.140545
H	-0.4020023216	 1.972648859	-0.7374395804	 0.138144
H	-0.3868787917	 1.7947286843	 1.0272751334	 0.120203
H	 0.6384346534	-0.4856554314	 0.8156566574	 0.137076
H	-0.8766276559	-0.4296500661	-0.0421065972	 0.134285
H	-0.141298599	-2.396712797	-1.5152693318	 0.109379
H	 1.7621898405	-1.3861975487	-3.1566925588	 0.30059
H	 1.1688126062	-2.7684238346	 0.4913014195	 0.078362
