23
gdb 92652	2.66553	1.42518	1.14335	1.5205	84.98	-0.2365	0.0823	0.3188	1192.3387	0.208389	-388.300946	-388.292543	-388.291599	-388.333956	33.356	
C	-0.083637442	 1.5836653382	-0.168444948	-0.416
C	 0.0617759381	 0.0896902168	 0.0266890396	 0.160808
O	 0.9539179518	-0.5218244405	-0.9360656785	-0.316886
C	 1.3921548885	-1.4725268663	 0.0656763094	 0.16253
C	 2.8672957164	-1.8285243988	-0.0086248053	-0.229789
C	 3.783705084	-0.746555355	 0.5746668546	-0.188829
C	 3.3007743144	-0.3389773243	 1.9721073687	-0.191432
C	 1.9202966595	 0.3293139992	 1.8863111232	-0.208704
C	 0.8587855176	-0.5530205301	 1.1992430327	-0.091088
H	 0.8830794729	 2.0925627618	-0.1706792612	 0.125519
H	-0.5663498626	 1.7807084727	-1.1310911732	 0.126428
H	-0.7094069765	 2.0166747779	 0.6193744231	 0.115568
H	-0.934120113	-0.3787614246	-0.0434642666	 0.062999
H	 0.7864190887	-2.3890802228	-0.015948663	 0.05926
H	 3.0152365578	-2.7614800032	 0.551968562	 0.093783
H	 3.1175606431	-2.0467887269	-1.0535514369	 0.106457
H	 4.814188466	-1.1156250397	 0.6105108885	 0.088328
H	 3.7837282987	 0.1335640095	-0.0806224017	 0.103544
H	 3.2574295109	-1.2270899087	 2.6184354922	 0.088595
H	 4.0106949508	 0.3521750599	 2.4396090368	 0.090769
H	 1.569128662	 0.6123387609	 2.8843246798	 0.091701
H	 2.0470228219	 1.265863149	 1.3339081784	 0.101566
H	 0.2439217911	-1.063753825	 1.9447851054	 0.064874
