21
gdb 79467	2.50067	1.87471	1.48492	1.3714	81.83	-0.2361	0.0885	0.3246	1005.9108	0.183075	-387.063742	-387.055856	-387.054912	-387.095504	32.226	
C	-0.1225116686	 1.6052067287	 0.0719628246	-0.429205
C	 0.0161196369	 0.0958900752	-0.0346153001	-0.001355
C	 0.8009123574	-0.5742264223	-1.173274363	-0.089057
C	 2.3428299547	-0.3420293246	-0.8681099798	 0.080921
C	 2.5358373376	-1.8722715861	-0.7833461213	-0.249993
C	 1.0952455177	-1.8135130911	-0.2551965494	-0.101445
C	 1.0571489605	-0.662900972	 0.8460833174	 0.401018
C	 0.9206815412	-0.8853476581	 2.3251802893	-0.504468
O	 2.2806696123	 0.0293923478	 0.5168594727	-0.301899
H	 0.859337884	 2.0846258094	 0.0690509767	 0.130185
H	-0.7047196014	 2.004948	-0.7655963192	 0.109601
H	-0.6371657378	 1.8924005923	 0.9959176624	 0.110915
H	-0.9574623381	-0.4025812716	 0.0499039782	 0.06732
H	 0.4708472866	-0.6445236426	-2.2086251832	 0.066644
H	 2.9927595498	 0.328562907	-1.4281047999	 0.075604
H	 2.5747486781	-2.3515624056	-1.7656361473	 0.097479
H	 3.3443133294	-2.2316927019	-0.1413525567	 0.097774
H	 0.4275254984	-2.6663348569	-0.1445398479	 0.068426
H	 1.7431178493	-1.5007319567	 2.7026706657	 0.125985
H	 0.9400253597	 0.0700475779	 2.8600835452	 0.129215
H	-0.0237022379	-1.3882068687	 2.5532239152	 0.116336
