16
gdb 77777	2.60466	1.44534	1.09783	2.5531	79.82	-0.253	-0.0049	0.2481	1122.2756	0.122287	-400.688381	-400.679948	-400.679004	-400.721323	31.915	
C	 0.0439689935	 1.5964552027	 0.0209789578	-0.419996
C	 0.0863582961	 0.0864148803	 0.0255593648	-0.079188
C	 1.3280478131	-0.7538281963	-0.2794734238	-0.2743
C	 2.5061467591	-0.1482840065	 0.4053272321	 0.440983
N	 3.6754248939	 0.142110081	 0.0660676154	-0.552848
O	 1.8769205171	-0.0400534481	 1.647019886	-0.298908
C	 0.7021860074	-0.7342412502	 1.1206632796	 0.260549
C	 0.0925427017	-1.7375056867	 1.9125650207	 0.227922
C	-0.4429664286	-2.5792208225	 2.5841800629	-0.392254
H	 0.920580558	 2.0222605766	 0.5124528047	 0.145957
H	 0.0060967955	 1.9742982835	-1.0052888423	 0.130515
H	-0.8468319912	 1.9531402234	 0.5474975383	 0.129781
H	-0.8024721967	-0.3963373456	-0.3764587957	 0.114686
H	 1.3499073122	-1.5355951037	-1.0243733985	 0.132537
H	 4.2080544071	 0.5184838745	 0.8520856569	 0.233672
H	-0.9088757083	-3.3258213423	 3.1790963313	 0.200892
