17
gdb 27262	3.20079	1.48472	1.03305	2.5055	75.51	-0.2005	0.0403	0.2408	1111.6778	0.138666	-418.026981	-418.018774	-418.01783	-418.061283	29.87	
N	 0.180966331	 1.4183942654	 0.0253084117	-0.60873
C	-0.0135599507	 0.0160007975	 0.0144743549	 0.062366
C	-1.1029996623	-0.8228282714	-0.0498243842	 0.22149
C	-2.5951673375	-0.827751953	-0.1271792684	-0.200301
O	-2.9516436329	-2.2167376621	-0.2026136684	-0.283872
C	-1.8092121441	-3.0820418173	-0.088790624	-0.187622
C	-0.6370558707	-2.1562134792	-0.0272177922	 0.214253
C	 0.733663755	-2.1323166877	 0.0513078758	-0.251985
N	 1.0958032922	-0.804527308	 0.0751633427	-0.241226
H	-0.2190168047	 1.8576592793	-0.7974632904	 0.2438
H	-0.2521190313	 1.8518543918	 0.8346163005	 0.243582
H	-3.0777278968	-0.3768751873	 0.7543059719	 0.098445
H	-2.9942061484	-0.3145122401	-1.0146800002	 0.101011
H	-1.9164470556	-3.7060320296	 0.8114326514	 0.103026
H	-1.7935797274	-3.7569208945	-0.956365784	 0.106011
H	 1.4751335919	-2.9134774776	 0.0915851746	 0.120662
H	 2.0334477026	-0.4420750664	 0.1186271884	 0.259091
