22
gdb 26110	2.37943	1.28562	1.02668	1.5907	90.03	-0.1897	0.0533	0.2429	1305.8916	0.19394	-367.266442	-367.256353	-367.255409	-367.302198	37.249	
C	-0.0438190283	 1.5938004072	 0.0151422986	-0.378395
C	-0.0056400302	 0.0529854557	 0.0511115613	-0.087386
C	 0.7831407818	-0.4494653014	 1.2767679961	-0.378391
C	-1.380289122	-0.5503360033	-0.0249369377	 0.23054
C	-1.9729147723	-1.3720655584	-0.9671287838	 0.179451
C	-1.360658255	-1.9039159248	-2.2297059878	-0.509367
C	-3.3045309082	-1.6344285833	-0.5192537367	-0.222624
C	-3.4874647555	-0.9744124773	 0.6693627003	-0.093818
N	-2.3180616993	-0.3205409958	 0.9617345474	-0.296851
H	 0.9694361235	 2.0096027042	 0.0113974777	 0.109658
H	-0.5679349827	 1.9532972996	-0.8747840513	 0.121902
H	-0.5611241522	 2.0012330183	 0.8919067783	 0.10079
H	 0.5305798131	-0.2823315405	-0.8434249014	 0.08481
H	 0.30535447	-0.1396788413	 2.2138243342	 0.100791
H	 0.8463637097	-1.5411932912	 1.2829103047	 0.121901
H	 1.8006031759	-0.0440570326	 1.2794342459	 0.109657
H	-1.3473523265	-3.0004927694	-2.2419465523	 0.121477
H	-1.9205565685	-1.5837311928	-3.116729234	 0.121478
H	-0.3285148261	-1.5662807973	-2.3592048279	 0.116442
H	-4.0387769301	-2.2439934989	-1.0250742187	 0.084299
H	-4.3396171654	-0.9130809856	 1.3271805434	 0.110383
H	-2.1642551319	 0.2453429989	 1.7773163937	 0.253254
