23
gdb 108999	3.42824	1.05854	1.01066	0.2741	92.03	-0.2115	0.0252	0.2367	1353.7711	0.206531	-351.134227	-351.12532	-351.124376	-351.167716	35.048	
C	-0.3657663681	 1.7042595966	-0.0412355057	-0.371046
C	-0.273443688	 0.1771024133	-0.213098567	-0.322024
C	-1.6026688405	-0.5014724479	-0.2037718453	 0.365938
C	-2.2490765959	-1.2035821629	-1.1439729226	-0.217807
C	-3.5523452375	-1.6237789564	-0.4552489432	-0.071981
C	-3.9341580843	-0.2785638171	 0.2496089799	-0.220047
C	-2.581046538	-0.5561849057	 0.9865807158	-0.126449
C	-2.9745782035	-2.0859349538	 0.9413339625	 0.067043
C	-3.9321198103	-2.6290822239	 1.9950466943	-0.435628
H	 0.63071651	 2.1568552872	-0.0295953265	 0.110567
H	-0.9360521258	 2.1543137088	-0.8597878005	 0.119512
H	-0.8645759581	 1.9685806563	 0.8968123314	 0.118924
H	 0.2442013003	-0.0563794937	-1.1509711043	 0.101121
H	 0.3523928118	-0.2282953994	 0.5952466849	 0.10132
H	-1.9411931275	-1.4504687957	-2.1510248268	 0.089877
H	-4.2754871933	-2.2203522158	-1.0125807008	 0.05214
H	-3.9818700031	 0.6130745802	-0.37969129	 0.089107
H	-4.8167708274	-0.3373387624	 0.8912493515	 0.090376
H	-2.3034100301	-0.0546568377	 1.9153613719	 0.050697
H	-2.1126866455	-2.7551102099	 0.8537592846	 0.06197
H	-4.8182001925	-2.0062213631	 2.1423772292	 0.116657
H	-4.2751742009	-3.6321373067	 1.71658826	 0.115234
H	-3.4243557217	-2.7160498604	 2.9625292565	 0.114499
