14
gdb 44114	3.62244	1.72302	1.46599	5.0505	66.04	-0.2706	-0.0533	0.2173	871.0959	0.102609	-436.654546	-436.648497	-436.647552	-436.684914	24.474	
O	-0.1417514547	 0.0506930792	-0.289276557	-0.301412
C	-0.0655988581	 1.1958029299	 0.0127148778	 0.451354
O	-1.2340312479	 1.997833231	 0.1919315695	-0.233127
C	-0.6306576882	 3.0800362031	 0.8154952916	 0.25489
N	-0.5931714013	 3.1726031883	 2.079401267	-0.190747
C	 0.8033492145	 3.5360539948	 2.4058141922	-0.188477
C	 1.5707028852	 3.2658579913	 1.1079757985	-0.066571
C	 1.167353431	 2.0941280952	 0.0891880389	-0.216648
C	 0.6028906493	 3.4857820679	 0.0185526424	-0.147176
H	 0.9379180609	 4.5797195533	 2.7207942171	 0.126848
H	 1.0972510831	 2.8955984556	 3.243068855	 0.14226
H	 2.6105261472	 3.5623502213	 1.0160717922	 0.111797
H	 1.9918109014	 1.7578024015	-0.5294705353	 0.131984
H	 0.6133536976	 4.1600168078	-0.8280732397	 0.125025
