14
gdb 98116	5.21511	0.81448	0.71064	5.3499	64.23	-0.2786	-0.0952	0.1834	1489.0513	0.097856	-473.869462	-473.859884	-473.85894	-473.905677	31.343	
C	-0.0324260955	 1.4105508688	 0.0101562727	-0.247935
O	-0.0323977312	-0.0282608946	 0.0022679832	-0.207426
C	-1.2290617788	-0.5989396557	 0.0106340582	 0.391932
O	-2.2922323475	-0.0276351003	 0.0239171441	-0.350754
C	-1.1249987706	-2.1404968088	 0.0011986901	 0.267176
O	-0.0773180875	-2.7196348283	-0.0119993223	-0.236844
C	-2.4987591863	-2.8169238959	 0.0105130271	-0.454369
C	-2.4196224829	-4.2707317343	 0.0020615098	 0.285841
N	-2.3770551647	-5.42416387	-0.0044464192	-0.28952
H	 1.0162821689	 1.7029095074	 0.0023294011	 0.152374
H	-0.5491074833	 1.7934748725	-0.8729586079	 0.151968
H	-0.5331539352	 1.7837421601	 0.9065215393	 0.151983
H	-3.0562632722	-2.4662641521	 0.8868500779	 0.192787
H	-3.0725214831	-2.4570767188	-0.8514969041	 0.192786
