21
gdb 90484	2.94295	1.17764	1.03456	2.0872	83.13	-0.2261	0.0719	0.298	1261.3862	0.184	-383.188548	-383.179996	-383.179052	-383.222198	32.803	
C	-0.2355818201	 1.891654976	 0.9517370696	-0.42361
C	-0.1314164966	 0.3886801546	 0.7174801055	 0.032326
C	 0.3064821948	-0.22367498	-0.6427234211	-0.19847
N	 1.2663321929	-1.1779085542	 0.0291973998	-0.161208
C	 2.3117070138	-0.3561736432	 0.6812168449	 0.000815
C	 2.9740713437	 0.8299912459	 0.059925779	 0.000171
C	 4.3274270497	 1.2175707597	 0.5370567493	-0.252349
N	 4.1609477606	 0.6105206113	-0.7917736499	-0.321205
C	 0.9887538963	-0.4451289315	 1.343330337	-0.086726
H	 0.6782999875	 2.4279418245	 0.684930617	 0.124226
H	-1.0556345606	 2.3170320995	 0.3627792236	 0.118501
H	-0.4441799018	 2.1030585161	 2.0064269511	 0.119377
H	-1.0837913006	-0.0699260769	 1.0027633458	 0.088394
H	-0.4762068233	-0.7874074848	-1.1528792147	 0.110008
H	 0.7792108051	 0.4477799887	-1.3655205649	 0.111919
H	 3.0461540826	-1.0240383662	 1.1352260085	 0.08653
H	 2.3330326192	 1.6179675127	-0.3164114318	 0.09559
H	 4.6265943456	 2.2618294034	 0.5318223786	 0.119699
H	 4.7714858726	 0.6255002773	 1.3338765682	 0.112184
H	 4.4218055941	-0.3731718796	-0.7593497572	 0.234918
H	 0.8826271046	-0.9902088132	 2.2781183016	 0.088912
