15
gdb 125132	3.2211	1.13262	0.86798	4.0702	69.56	-0.2437	-0.007	0.2367	1261.3891	0.112721	-453.984712	-453.976215	-453.975271	-454.019144	29.379	
C	 0.0797070103	 1.4620000114	-0.1189104879	-0.511876
C	 0.0208307287	-0.027234153	-0.0972957424	 0.279592
C	-0.2346221671	-0.9410724877	-1.1027321053	 0.167051
O	-0.5460668552	-0.6079114258	-2.4040975583	-0.223073
C	 0.2669476873	-1.090352564	-3.3849603667	 0.150786
O	 0.046526404	-0.8996379194	-4.5391886737	-0.258315
C	-0.1785255817	-2.2179725591	-0.5061957147	-0.084822
N	 0.1021174778	-2.1186341072	 0.7888557971	-0.216149
N	 0.2117958302	-0.7933938136	 1.0077415981	-0.248486
H	 1.0642775445	 1.8359186638	 0.1831141473	 0.14188
H	-0.1210277941	 1.8161078851	-1.1320484051	 0.160844
H	-0.6666239715	 1.9085599522	 0.5473596633	 0.14439
H	 1.1212949145	-1.657780371	-2.9739049956	 0.094982
H	-0.3358120129	-3.1838683504	-0.9622742369	 0.125843
H	 0.4141555952	-0.4735023512	 1.9403425708	 0.277355
