16
gdb 41061	3.34733	2.15893	1.9182	1.2749	69.88	-0.2323	0.0401	0.2723	776.1028	0.126349	-400.592268	-400.58658	-400.585635	-400.621883	24.613	
C	 0.0236053568	 1.5380776197	-0.1718466754	-0.190819
O	 1.4405606895	 1.5232723706	 0.2104591042	-0.329231
C	 1.3148452156	 0.153138216	 0.5836149242	 0.362329
C	 0.7933037796	-0.304999202	 1.9754316594	-0.303115
C	-0.2364190639	-1.0395341426	 1.0980541034	-0.051183
N	 0.581448019	-1.9761055593	 0.1826862014	-0.143125
C	 1.7294764445	-1.0703064128	-0.2208252581	-0.115349
C	 0.457324254	-1.0759741776	-0.9975839653	-0.099207
C	-0.0956241138	 0.0068616975	-0.0503912294	 0.118194
H	-0.5775964311	 2.1168142595	 0.538720778	 0.117849
H	-0.1118468294	 1.9441060118	-1.178812936	 0.124255
H	 1.4385675126	-0.8996594535	 2.6255454942	 0.112392
H	 0.3514622425	 0.5277250628	 2.5278529895	 0.116861
H	-1.1430260397	-1.5192339175	 1.4677391727	 0.082132
H	 2.6900719042	-1.541526031	-0.3930506577	 0.09814
H	 0.1994938396	-1.4343894515	-1.987319925	 0.099877
