16
gdb 24658	4.53287	1.13668	0.97137	3.7836	77.68	-0.2453	-0.0359	0.2094	1184.2397	0.127992	-396.950384	-396.943282	-396.942338	-396.98259	26.673	
C	 0.1423052075	 1.5639047933	 0.0378270612	-0.22979
N	 1.2580727349	 0.626183186	-0.108921931	-0.309747
C	-0.1049185419	 0.0890965949	 0.0363546552	-0.137775
C	-0.4102052855	-0.6650217836	 1.2794029645	 0.254846
C	 0.4340866783	-0.6720379058	 2.3918311745	-0.049088
N	 0.143200174	-1.332445335	 3.513921567	-0.249275
C	-1.0105570836	-2.0022318956	 3.517317476	 0.074621
N	-1.8908692296	-2.0883513329	 2.5190431257	-0.251809
C	-1.5766017657	-1.4175857285	 1.4100999642	-0.051652
H	 0.1200712944	 2.1013034513	 0.981839963	 0.129524
H	-0.1884267739	 2.1371767694	-0.8243122518	 0.122314
H	 1.5592912395	 0.5710240328	-1.0773905167	 0.241467
H	-0.5917584154	-0.3027026764	-0.85501432	 0.092601
H	 1.3784468738	-0.1356728965	 2.3583563519	 0.136545
H	-1.2572727877	-2.5403430863	 4.4293453708	 0.118488
H	-2.285459469	-1.4847451672	 0.5852906655	 0.108729
