27
gdb 100748	2.20235	0.95016	0.83232	1.3263	92.08	-0.2611	0.079	0.3401	1608.2401	0.24953	-390.696758	-390.684657	-390.683713	-390.73433	44.546	
C	 0.3117972421	 1.663152406	-0.6350421102	-0.397158
C	 0.3988806439	 0.1678815966	-0.2819775374	 0.039228
C	 1.4594891357	-0.4959029735	-1.1759815946	-0.399694
C	 0.6649852372	-0.0486623654	 1.2355660774	 0.036686
C	-0.3908639479	 0.6667541798	 2.1008438779	-0.414865
C	 0.8348120793	-1.5402137026	 1.6410662765	 0.029672
C	 1.4925752	-1.7037325294	 3.0202665127	-0.41064
C	-0.4692536461	-2.3404197819	 1.569281029	-0.079265
O	-0.1403682262	-3.7189177845	 1.7067401866	-0.42464
H	 1.2343619828	 2.1859372452	-0.3530458906	 0.109546
H	 0.1761949023	 1.7953073175	-1.7134140692	 0.107372
H	-0.5218387369	 2.1643119907	-0.1375732065	 0.113375
H	-0.5750311949	-0.2805007325	-0.5256557126	 0.069134
H	 2.4661435693	-0.1457461205	-0.9159629351	 0.110331
H	 1.4556970784	-1.5859519957	-1.1017763494	 0.121736
H	 1.2856428031	-0.2419282885	-2.2268204146	 0.106286
H	 1.6354546175	 0.4262997345	 1.4458735721	 0.064584
H	-0.2713494203	 0.4262236729	 3.1605684766	 0.113622
H	-0.3156355139	 1.752691216	 2.0102737369	 0.115668
H	-1.4091325447	 0.3835017795	 1.809556431	 0.110939
H	 1.5109316758	-2.0098244415	 0.9190017706	 0.084018
H	 1.6346616486	-2.7637470718	 3.2420393767	 0.131402
H	 2.4699764077	-1.210801499	 3.0499104982	 0.104563
H	 0.8797405196	-1.2780451314	 3.8223182751	 0.108098
H	-1.1537144044	-2.0202939523	 2.3702795893	 0.083057
H	-0.9785500421	-2.1599286057	 0.6103305016	 0.082678
H	-0.9596050362	-4.2206084827	 1.7412066618	 0.284267
