19
gdb 63361	2.91113	1.12705	1.03241	2.7368	83.23	-0.2346	-0.0238	0.2107	1263.0092	0.155774	-385.873088	-385.863279	-385.862334	-385.907776	36.268	
C	-0.98773158	 1.4512317528	 0.1979853652	-0.445958
C	-0.2103152965	 0.1504336177	 0.0078014353	 0.192562
C	-1.1186404265	-1.0785711101	 0.1592174247	-0.438307
C	 0.7393323579	 0.0656021971	-1.2349756143	-0.289512
C	 1.9393941911	-0.3776188207	-0.3259149171	-0.301932
C	 3.2294538017	 0.2504985614	-0.4808704355	 0.311222
C	 4.2898913511	 0.8045576476	-0.6003766441	-0.429514
C	 1.0489022711	 0.0275691107	 0.8906510282	 0.380323
O	 1.2779029129	 0.2541018907	 2.0392899143	-0.295359
H	-0.3388333917	 2.325420659	 0.0882787267	 0.123739
H	-1.7935448614	 1.530523396	-0.5399136446	 0.11863
H	-1.4340906665	 1.4885759123	 1.1964514968	 0.13457
H	-1.9111612337	-1.0550841122	-0.5965491127	 0.12345
H	-0.5655871014	-2.0155050669	 0.0352430198	 0.120039
H	-1.5876288981	-1.0928362645	 1.1477654995	 0.134411
H	 0.4548950623	-0.6473621698	-2.010201661	 0.110635
H	 0.9218568344	 1.0408041038	-1.689216947	 0.121136
H	 2.0400274333	-1.4704759636	-0.3274999187	 0.131716
H	 5.23034011	 1.2865256487	-0.7032588053	 0.198148
