18
gdb 65867	2.60243	1.27436	1.15814	3.8015	72.39	-0.2455	-0.0342	0.2113	1143.2494	0.147246	-439.146514	-439.137695	-439.136751	-439.180434	32.469	
C	-0.3552867852	 1.7765796603	 0.1449303413	-0.457902
C	 0.0887126632	 0.3056018785	 0.108051965	 0.185669
C	 0.9232807493	-0.0532849345	-1.1455660184	-0.205107
N	 1.8561081267	-1.0471805535	-0.6497303065	-0.303214
C	 1.996004277	-1.1048046005	 0.7081555008	 0.410488
O	 2.763002009	-1.8100013837	 1.3239523866	-0.375731
C	 1.0026450977	-0.090618461	 1.2912456026	-0.3941
C	-1.1791583237	-0.5480525177	 0.1672979108	 0.145292
O	-1.5928752531	-1.2566493041	-0.7107685962	-0.245517
H	 0.5166835704	 2.43448303	 0.20772992	 0.131137
H	-0.9222526077	 2.0421326196	-0.7534199919	 0.134088
H	-0.9895191431	 1.9770259733	 1.0151046671	 0.128971
H	 0.279591252	-0.463001897	-1.9286320631	 0.138079
H	 1.4401694912	 0.8326600732	-1.5391299814	 0.101424
H	 2.455434234	-1.5935958609	-1.2474260888	 0.255521
H	 1.5636424956	 0.769530709	 1.6728151725	 0.131438
H	 0.4699632715	-0.5282371768	 2.1405017169	 0.132365
H	-1.7314908748	-0.4446732143	 1.1304766125	 0.087099
