19
gdb 9346	6.75951	0.77382	0.73528	4.465	70.16	-0.2419	0.0299	0.2718	1571.1617	0.163447	-402.224308	-402.214065	-402.21312	-402.261645	34.357	
C	 0.0326923842	 1.4332269985	-0.1954600713	-0.37711
C	-0.1389853354	-0.0863352558	-0.129369899	-0.168381
C	-1.4855520696	-0.4919859739	 0.4815737576	-0.146222
N	-1.6650463184	-1.9314960105	 0.5687274432	-0.326195
C	-2.5478581031	-2.6174944465	-0.2171415305	 0.406941
O	-3.3046108185	-2.0877724183	-1.0036667727	-0.352817
C	-2.4602524953	-4.1413404276	-0.0515102646	-0.183337
O	-3.7269409322	-4.6948206007	-0.3067435612	-0.389341
H	 0.9981684778	 1.704387401	-0.6322848518	 0.116406
H	-0.7512960757	 1.8926246579	-0.8069353287	 0.124842
H	-0.0194494123	 1.8836171928	 0.8021484832	 0.115048
H	-0.064611385	-0.5198179437	-1.1334743084	 0.111428
H	 0.6762282255	-0.5263683205	 0.460826967	 0.087041
H	-1.5906825338	-0.0508399102	 1.4815664196	 0.101712
H	-2.3107464171	-0.1219650468	-0.1317880224	 0.150466
H	-1.0857721254	-2.4478637047	 1.2107889895	 0.239331
H	-1.7000925617	-4.4958133282	-0.76707055	 0.113343
H	-2.0959359263	-4.3910115824	 0.9596035563	 0.084525
H	-3.6178900776	-5.6397965807	-0.4439614361	 0.292321
