18
gdb 96608	2.3311	1.33072	1.02061	3.0955	82.61	-0.2498	-0.0478	0.2019	1238.6267	0.146012	-398.115609	-398.105964	-398.10502	-398.150414	34.103	
C	 0.4313081927	 1.1373337435	-0.2426961395	-0.344061
N	 0.1688179185	-0.2674399561	-0.0139073195	-0.261652
C	 0.45503216	-0.81772507	 1.0954629069	 0.24154
C	 1.1159809612	-0.1383184773	 2.2045542633	 0.266893
N	 1.664933185	 0.4141091208	 3.0596453668	-0.342543
N	 0.0886761234	-2.1225265512	 1.4114460785	-0.107625
C	 0.0271866753	-3.1453135354	 0.3841723555	-0.244019
C	 1.0465874689	-3.2369714376	 1.4768966935	 0.008073
C	 2.5141908641	-3.0271062138	 1.1905174792	-0.419747
H	 1.0446556137	 1.23826285	-1.1449572143	 0.136744
H	-0.517624597	 1.6454851325	-0.4498217412	 0.140535
H	 0.9328014009	 1.6540771028	 0.5861877836	 0.134121
H	-0.8591491717	-3.7725221403	 0.4048583052	 0.129104
H	 0.3701432557	-2.8583734434	-0.6062373314	 0.139433
H	 0.8342250001	-3.9134987746	 2.3020963423	 0.109631
H	 2.6636616791	-2.3535510117	 0.3416528757	 0.133697
H	 3.0313788456	-2.6069096354	 2.0585724257	 0.147363
H	 2.9853019146	-3.9855565628	 0.9503181197	 0.132515
