16
gdb 82020	2.61517	1.45016	1.32245	3.7487	70.6	-0.2362	0.0285	0.2646	1025.8444	0.12255	-437.79181	-437.783296	-437.782352	-437.824994	32.666	
O	 0.1423030962	 1.3585002582	 0.231360223	-0.420101
C	 0.0453724147	-0.016659489	 0.0668493441	 0.07869
C	-1.3493948908	-0.6391699767	 0.0067630719	-0.079141
N	-1.9755811537	-0.0449806445	-1.2071893059	-0.387093
C	-1.0985047686	-1.2357562897	-1.3294953434	-0.110945
C	 0.3174095089	-0.6267288115	-1.4170231677	 0.180141
O	 0.4967895226	 0.3131023327	-2.4415240062	-0.469095
C	 1.3865300212	-1.6066251502	-1.4350868264	 0.275271
C	 2.2559476558	-2.4355804978	-1.3997515823	-0.405643
H	-0.5022796383	 1.7583133988	-0.3653619375	 0.287788
H	 0.6983055569	-0.491913921	 0.7997768888	 0.10909
H	-1.9652160929	-1.0003056765	 0.82075255	 0.103114
H	-2.9438618685	-0.3540048334	-1.2544299771	 0.243423
H	-1.4538984438	-2.1602539483	-1.7658282029	 0.109474
H	-0.3619661838	 0.7486696011	-2.5381024563	 0.289199
H	 3.0333975342	-3.1589928823	-1.3841887119	 0.195829
