19
gdb 64978	3.57304	0.97544	0.81928	2.0163	81.89	-0.2551	-0.016	0.2391	1419.2691	0.159245	-419.24183	-419.232534	-419.23159	-419.276266	34.382	
C	 0.1432584539	 1.3408424178	-0.5745934478	-0.508799
C	 0.1078830804	-0.089611914	-0.072092732	 0.202662
C	 1.4303271874	-0.81127719	 0.1558232942	-0.274313
C	 0.6212314808	-0.3776034634	 1.3333008063	-0.274322
C	-1.0076058918	-0.9995293975	-0.5035170654	 0.410536
O	-1.0919005218	-2.1572854815	-0.1347062853	-0.381419
N	-1.946418544	-0.4415400043	-1.3548503703	-0.338628
C	-3.0381871429	-1.1359396621	-1.8503575957	 0.101556
N	-3.8589946225	-0.5573271048	-2.6288559603	-0.468551
H	 1.0140519733	 1.8618570059	-0.1676575102	 0.127364
H	 0.222039278	 1.3917921934	-1.6671460758	 0.128948
H	-0.7425404457	 1.9080519804	-0.2646847906	 0.128962
H	 1.4445057736	-1.8693006692	-0.0749462329	 0.141308
H	 2.3319686576	-0.2621299074	-0.0922766153	 0.114562
H	 0.9540924327	 0.476258287	 1.9131008693	 0.114567
H	 0.0966706434	-1.1470564447	 1.8861584083	 0.141319
H	-1.8654511699	 0.518620742	-1.6535290602	 0.261635
H	-3.068073614	-2.1658339157	-1.4910501803	 0.140678
H	-4.5993429285	-1.201406292	-2.9009870958	 0.231934
