16
gdb 5234	7.33111	1.18387	1.03241	2.2496	67.24	-0.1992	0.0529	0.252	1125.8902	0.131814	-379.961042	-379.953334	-379.95239	-379.993683	27.808	
C	-0.1105634545	 1.5026170282	 0.0116301522	-0.392146
C	-0.003863918	-0.0096973391	 0.0036118937	-0.037425
O	-1.3410469998	-0.5384541354	 0.0110780701	-0.281271
C	-1.4224107733	-1.873752677	 0.0061121921	 0.490849
N	-0.4479942223	-2.7456361865	-0.0050541421	-0.362108
C	-1.0845255513	-3.9781424327	-0.0054245235	-0.09294
C	-2.4390785645	-3.8293782169	 0.0057057413	-0.110173
N	-2.6522096778	-2.4553209533	 0.0131616119	-0.334606
H	 0.8905283498	 1.9438109203	 0.0061494447	 0.123005
H	-0.6502632974	 1.8608008771	-0.869629643	 0.127628
H	-0.6368397663	 1.8523517577	 0.9043272037	 0.127623
H	 0.5200421493	-0.3797082647	-0.8843324564	 0.122495
H	 0.5332374592	-0.3881756807	 0.8800197646	 0.122521
H	-0.5167747137	-4.895618207	-0.0137016496	 0.105269
H	-3.2559685667	-4.5305448954	 0.0090598413	 0.125359
H	-3.5320273627	-1.9692709144	 0.0219157489	 0.265921
