23
gdb 118479	2.18543	0.96388	0.72475	2.4787	79.47	-0.2473	0.0649	0.3122	1631.2549	0.203031	-462.544503	-462.533184	-462.532239	-462.58175	40.409	
C	 0.0267354693	 0.6635409375	 1.0945865222	-0.229636
O	 0.1397717745	-0.681440312	 0.6960559318	-0.233673
C	 0.6254679224	-0.8268667866	-0.6217396164	-0.077125
C	 0.6895335999	-2.3146500594	-0.9706637414	-0.027429
C	-0.7194365051	-2.9106059131	-0.9941166516	-0.11394
O	-0.5870506085	-4.3358691302	-0.8955672102	-0.426935
C	 1.459027121	-2.5293639202	-2.3012614362	 0.150358
C	 2.9767530649	-2.5227171695	-2.0961563094	-0.391392
O	 1.0743430087	-3.716189894	-2.9815590336	-0.461779
H	 0.9993918289	 1.1799790978	 1.0689998155	 0.105656
H	-0.6735889845	 1.2232590626	 0.4541330209	 0.103879
H	-0.3496057208	 0.670967329	 2.1203608583	 0.128505
H	-0.0348120405	-0.298637054	-1.3333701649	 0.086367
H	 1.6228575277	-0.3676443812	-0.7120196971	 0.093566
H	 1.2272852049	-2.8212322967	-0.1586621372	 0.09396
H	-1.2924221166	-2.5223900114	-0.1442987154	 0.115331
H	-1.2334556987	-2.6323386734	-1.9253359491	 0.100235
H	-1.4480304766	-4.7336076989	-1.0569711482	 0.293617
H	 1.1968007261	-1.699712946	-2.9778160315	 0.064117
H	 3.2720343991	-3.34596899	-1.4366915878	 0.115522
H	 3.4787887689	-2.6616164712	-3.0573772677	 0.120653
H	 3.3313418427	-1.5842640691	-1.6561676123	 0.104217
H	 0.6669475622	-4.3109425898	-2.3356418186	 0.285924
