19
gdb 105995	2.64353	1.67989	1.26076	0.8799	79.51	-0.2129	0.0862	0.2991	1065.9517	0.157173	-385.769697	-385.761291	-385.760347	-385.80254	32.27	
C	 0.1587133397	 1.2578091858	-0.1739218034	-0.256796
O	-0.1695243536	-0.0762349485	 0.1921544761	-0.280699
C	 0.5600490549	-0.5535428312	 1.2379954405	 0.391009
C	 0.5584457712	-0.2250651422	 2.7765744169	-0.18917
C	 2.015939885	-0.6561238711	 2.8530787707	-0.077581
C	 0.9105310681	-1.6799978418	 3.0581443473	-0.143349
C	 0.905243473	-1.9957200434	 1.5264992834	 0.264431
C	 0.6002710938	-3.2359786519	 0.7548268119	-0.526172
C	 2.034065011	-0.9628023474	 1.3290869568	-0.248582
H	 1.2169691097	 1.3424443266	-0.4533963714	 0.114993
H	-0.4682443446	 1.5159199809	-1.0298665602	 0.127396
H	-0.0456811278	 1.95938917	 0.6459984921	 0.11652
H	 0.0111469932	 0.4757883502	 3.3931621786	 0.087756
H	 2.7887091265	-0.3232594859	 3.5339051678	 0.083915
H	 0.669011807	-2.2855866353	 3.922883654	 0.083189
H	-0.4187351267	-3.5895718543	 0.9518677858	 0.122702
H	 0.6803844609	-3.0446594253	-0.3203558454	 0.128274
H	 1.2927155102	-4.0479436721	 1.0057096926	 0.11877
H	 2.8167464585	-0.9579210231	 0.5818214459	 0.083394
