19
gdb 79075	2.32412	1.87732	1.42498	0.9048	79.59	-0.2164	0.0157	0.2321	997.9452	0.159964	-385.861034	-385.853316	-385.852372	-385.892677	31.391	
C	-0.0161566145	 1.5628027143	-0.0730966984	-0.521944
C	 0.0369050421	 0.0684381491	-0.0096321759	 0.362158
C	 0.0493206857	-0.9011143818	-1.1639437046	-0.142934
C	 1.2593503925	-1.7702799812	-1.0473097244	-0.083842
C	 1.7567586407	-1.6723243973	 0.1902143003	-0.108675
C	 0.8192113114	-0.8302247028	 1.0202753868	-0.194076
C	-0.5328397812	-1.641244543	 1.1970268798	 0.131023
O	-1.3197086413	-1.1719359401	 2.2748813954	-0.440194
C	-1.0445435394	-0.988293068	-0.0723350754	-0.121008
H	 0.9690914995	 1.989452841	-0.2957047943	 0.120647
H	-0.7079603646	 1.8932307164	-0.8554376135	 0.118971
H	-0.3610800632	 1.9867513794	 0.8766251917	 0.126343
H	-0.3116925152	-0.5701908192	-2.1320361325	 0.080481
H	 1.6394806622	-2.3851208288	-1.853723717	 0.096147
H	 2.5931576372	-2.2285871928	 0.5955377796	 0.093049
H	 1.2046355555	-0.3825458215	 1.9371137974	 0.059572
H	-0.4322658574	-2.7362839966	 1.2232872896	 0.055334
H	-0.896402633	-1.460629114	 3.0902429844	 0.279765
H	-2.0921083071	-0.891867833	-0.3330887593	 0.089183
