21
gdb 112976	4.11592	0.86442	0.85406	1.4455	79.27	-0.2435	0.0838	0.3273	1461.1377	0.181614	-424.179753	-424.170545	-424.1696	-424.214415	33.807	
C	-0.9223640077	 1.3893602048	 0.0914171106	-0.239731
O	-0.2512727178	 0.2030687367	 0.4508179702	-0.240867
C	-0.9426031012	-0.9577359003	 0.0744007826	 0.178727
C	-0.8968493469	-1.396434615	-1.4194248766	-0.27015
C	-0.5834525779	-2.8479561257	-0.9340052366	-0.051736
C	-0.2264809116	-2.2629711404	 0.4650927862	-0.282975
C	-1.7788932743	-3.7668850217	-0.9808898356	 0.087432
C	-2.0778285568	-4.7722877735	 0.0448737742	-0.185619
O	-2.8223547502	-3.5521144417	-0.0230344665	-0.231975
H	-0.3185809882	 2.2275436552	 0.4478709762	 0.124504
H	-1.0441533887	 1.4811737236	-0.9986953778	 0.105601
H	-1.9205249739	 1.447489101	 0.553514462	 0.105173
H	-1.9758073692	-0.9347098124	 0.4487717002	 0.081844
H	-1.7957995548	-1.2568270875	-2.025408756	 0.09847
H	-0.0406167586	-0.9436701775	-1.9268210556	 0.104068
H	 0.2404893708	-3.3381087503	-1.4620782136	 0.078782
H	 0.8476442506	-2.0897866439	 0.5636418325	 0.109929
H	-0.5939945738	-2.7830867504	 1.3509949986	 0.108159
H	-2.1521060757	-3.9628336319	-1.989073576	 0.090141
H	-2.6311283863	-5.6711510978	-0.2234738726	 0.115015
H	-1.4245408677	-4.8720578113	 0.9100906437	 0.115209
