20
gdb 103960	2.72378	1.32282	1.08946	3.857	74.77	-0.2205	0.0533	0.2737	1178.1251	0.169892	-440.223699	-440.214535	-440.213591	-440.257179	35.277	
C	 1.2926805373	 2.0570684456	 0.6245980015	-0.43107
C	 1.1021739095	 0.5624808946	 0.4890969331	 0.022334
C	 0.9849635469	-0.2656982793	-0.733351079	-0.122596
N	 2.1701785533	-0.4207685816	 0.2245401239	-0.152579
C	 3.0542761344	 0.1401011416	-0.8658658034	-0.228271
C	 1.8896813355	 0.1227880105	-1.8987197623	 0.432496
O	 1.9758881421	-0.9943239417	-2.7660848621	-0.484887
C	 1.5671514722	 1.3526787396	-2.7385293591	-0.162031
O	 2.5965876691	 1.4342484634	-3.7255082299	-0.43575
H	 1.9824535995	 2.4853682503	-0.1028952138	 0.125001
H	 0.3306931334	 2.5699056251	 0.5173633615	 0.12322
H	 1.6816454401	 2.288555049	 1.6221471111	 0.12705
H	 0.4711146365	 0.1721561685	 1.2881081884	 0.098504
H	 0.2370035929	-1.0461457216	-0.8388240059	 0.099143
H	 3.5286610154	 1.0963055136	-0.6271058407	 0.096574
H	 3.8189765495	-0.5930263033	-1.1231221581	 0.118232
H	 2.4839119179	-0.6862534448	-3.5283796649	 0.285905
H	 0.5814029898	 1.2073069752	-3.2040886087	 0.098803
H	 1.5315564559	 2.2657051702	-2.1332047322	 0.093374
H	 2.3210900888	 2.0491597452	-4.4106551093	 0.296547
