20
gdb 85952	2.83849	1.22677	1.003	16.105	80.	-0.1557	-0.0357	0.1199	1233.9041	0.17017	-440.234059	-440.224437	-440.223492	-440.268795	35.657	
C	-0.0509451532	 1.5684320166	-0.1758568791	-0.450455
C	 0.017994377	 0.0604371047	-0.0496079353	 0.212071
C	 1.1144340959	-0.682747033	-0.8940499703	-0.274195
C	 1.2763056313	-1.6000814406	 0.3179737131	-0.01431
N	 2.7139398781	-2.0675206261	 0.6308888049	-0.438815
H	 3.3404119966	-1.260598733	 0.6915816226	 0.314907
H	 2.7496275573	-2.5669477405	 1.5226881105	 0.324739
H	 3.0637876782	-2.6886117182	-0.1024985621	 0.324733
C	 0.7022312793	-0.5230269014	 1.2383907147	-0.274184
C	-1.3888795973	-0.6646169625	-0.2671548909	 0.333585
O	-2.3381338455	 0.0853015665	-0.5072971646	-0.451308
O	-1.3326377469	-1.9172364633	-0.1618776052	-0.505988
H	 0.9284512359	 2.0436713055	-0.0223491798	 0.057738
H	-0.4297681281	 1.8434012774	-1.1633456284	 0.131661
H	-0.7606860432	 1.9717683755	 0.5506679424	 0.131628
H	 0.8117150133	-1.1503498879	-1.8312545208	 0.132421
H	 1.9988306881	-0.0473942761	-1.051623203	 0.067785
H	 0.6250188518	-2.4708691704	 0.2572161056	 0.177777
H	 1.4824446753	 0.1527377831	 1.6195374895	 0.067777
H	 0.060844876	-0.8593829164	 2.0533392164	 0.132433
