21
gdb 111119	3.45832	1.29916	1.20127	0.9664	81.88	-0.2402	0.0946	0.3348	1137.2726	0.184552	-387.033886	-387.026206	-387.025262	-387.065939	31.198	
C	-0.292007852	 1.2895770943	 0.0369897379	-0.244837
O	 0.3075197161	 0.0261156614	-0.1388243388	-0.265685
C	 0.8550762396	-0.4992924914	 1.0477542245	 0.172443
C	-0.1609653566	-1.2215598013	 1.9922201562	-0.087892
C	-0.1410136947	-2.3673000962	 0.9170439837	-0.218315
C	 1.3697960384	-1.9415750624	 0.8226430289	-0.074544
C	 1.8662440778	-2.3809648326	 2.2126678014	-0.034852
C	 2.1519863065	-1.3654827528	 3.2942046554	-0.315011
C	 0.7344458168	-1.8455807298	 3.079024319	-0.033587
H	 0.4235798449	 2.0255433294	 0.4367204341	 0.103667
H	-0.6303904459	 1.6263527105	-0.9459194869	 0.126105
H	-1.1575700959	 1.2506135984	 0.7146654144	 0.107292
H	 1.5294660203	 0.2453781997	 1.4843218909	 0.053749
H	-1.0841240207	-0.7388181519	 2.3147299262	 0.058435
H	-0.3505550948	-3.3808602762	 1.2688425099	 0.083182
H	-0.7124507107	-2.1329395614	 0.0196846597	 0.110459
H	 1.9894872772	-2.1739846131	-0.0435415757	 0.064577
H	 2.2487332776	-3.3896968813	 2.3201977074	 0.087043
H	 2.6367763616	-1.7686136283	 4.1786489021	 0.105731
H	 2.4638714344	-0.3526337721	 3.0725650762	 0.115689
H	 0.2607732703	-2.4473231128	 3.8467927434	 0.086351
