17
gdb 80755	3.78031	1.22561	1.1856	1.8421	67.44	-0.2425	-0.0299	0.2126	1073.7798	0.135567	-458.944915	-458.937024	-458.936079	-458.97769	29.804	
O	 0.3412855866	 0.8864246518	 0.5081458168	-0.427606
C	-0.061595314	-0.3262233533	-0.0403445572	 0.098617
C	-1.5421749557	-0.6175403458	-0.2672978999	-0.119924
C	-2.4838179725	 0.5794006745	-0.174771651	-0.281414
C	-2.2177861266	 1.3158983622	-1.5191154958	 0.00261
O	-0.8993453266	 0.9586248175	-1.9173914254	-0.259347
C	-0.6251567209	-0.3414133333	-1.4336049308	 0.019106
C	-3.2498356111	 0.9008206348	-2.559686933	 0.157382
O	-3.025825975	 0.1874817802	-3.4994418698	-0.231564
H	 0.3470760169	 1.5218365413	-0.221293605	 0.296801
H	 0.558882468	-1.1611777482	 0.2736690853	 0.103348
H	-1.9211430426	-1.6126616907	-0.0697787354	 0.100236
H	-3.5271501369	 0.270247592	-0.0691152031	 0.114566
H	-2.2294150167	 1.2249331539	 0.6697943409	 0.13194
H	-2.2578783805	 2.4066701863	-1.4111169185	 0.104856
H	-0.3537954896	-1.05997826	-2.1978808601	 0.113204
H	-4.2716489926	 1.3016301367	-2.355783398	 0.077189
