16
gdb 41567	3.09648	1.88262	1.74614	1.9625	66.38	-0.2402	0.0144	0.2545	837.9142	0.12736	-437.85167	-437.84547	-437.844526	-437.882313	24.776	
C	 0.2127600179	 1.5718273306	-0.1090550252	-0.089619
O	 1.5306091117	 1.4043522558	 0.4834697389	-0.28647
C	 1.3102349222	 0.0052751936	 0.7106436894	 0.08208
C	-0.0386750311	 0.0589737159	-0.0736510003	-0.091474
C	 0.6290454315	-0.7547214884	-1.2330830116	-0.044231
N	 1.0674247652	 0.0100502029	-2.4067397505	-0.268027
C	 2.3190262258	 0.1749948658	-2.2594284684	 0.124197
O	 2.9636272628	-0.3483503008	-1.1838597082	-0.209817
C	 1.923317259	-0.9205544686	-0.3810231327	 0.067599
H	-0.4425336307	 2.1485808019	 0.5546730112	 0.103464
H	 0.2588403775	 2.0435514049	-1.0936921719	 0.128113
H	 1.4366934424	-0.2832304953	 1.7582214268	 0.077923
H	-0.9907026692	-0.3098895159	 0.3035385334	 0.081945
H	 0.0776144269	-1.6474350967	-1.5362881748	 0.087488
H	 2.9673457908	 0.7027809705	-2.949840736	 0.145281
H	 2.2337454272	-1.9099175762	-0.0409877502	 0.091548
