24
gdb 105231	1.67238	1.47844	1.11358	1.9869	85.6	-0.2308	0.0849	0.3156	1315.3444	0.21531	-405.523215	-405.512443	-405.511498	-405.558688	40.459	
C	 1.1979679143	-0.327739264	 1.2692985055	-0.381326
C	 0.251399079	 0.1109997217	 0.1439023218	-0.264211
C	 0.7452102516	-0.2813788017	-1.2422267818	 0.318509
C	 0.5977494453	-1.6963360701	-1.6991979036	-0.301397
N	-0.1907042441	-0.6383093825	-2.3223851494	-0.130075
C	-1.6313643662	-0.6431156447	-2.1113857649	-0.319249
C	 1.861567599	 0.631234352	-1.7753499654	 0.096765
C	 2.7601557384	 0.0092529965	-2.8428420983	-0.420831
O	 1.2564139429	 1.8293374172	-2.2552050986	-0.442717
H	 1.3041305043	-1.4174559817	 1.2918405698	 0.115605
H	 2.198993172	 0.0995298635	 1.1527055995	 0.122155
H	 0.816812438	-0.0065012001	 2.2435757941	 0.114151
H	-0.7363249719	-0.3194667826	 0.3317944361	 0.093094
H	 0.127515486	 1.2004182262	 0.1619569569	 0.11689
H	 1.3428284592	-2.1793791271	-2.3248826555	 0.111794
H	 0.0737647075	-2.3739906797	-1.0237159355	 0.100725
H	-1.9561393079	-1.128584736	-1.1790609868	 0.105997
H	-2.0079336468	 0.3848811557	-2.1125144826	 0.124615
H	-2.1014372259	-1.1772647345	-2.9436597531	 0.124519
H	 2.4857897722	 0.9501425775	-0.9331388033	 0.079223
H	 3.3503847456	-0.820199891	-2.4399975972	 0.109017
H	 2.1634877419	-0.3615326668	-3.682705618	 0.12567
H	 3.4473263581	 0.7709271403	-3.2200481387	 0.11975
H	 0.6046071076	 1.5320743418	-2.9041445009	 0.281328
