18
gdb 13606	4.12189	1.39093	1.1708	3.3255	70.34	-0.2412	0.0502	0.2914	1077.3048	0.153136	-381.135158	-381.126102	-381.125158	-381.169196	31.779	
C	-0.1283735274	 1.2820895648	-0.1591668472	-0.323518
N	 0.1243831046	-0.1432528353	-0.0848445114	-0.327381
C	 0.7667402901	-0.8043663896	-1.1012415045	 0.436335
O	 1.0195100243	-0.3091784526	-2.183216557	-0.397538
N	 1.161790759	-2.1051576297	-0.744640349	-0.134037
C	 0.2492536433	-3.1410214664	-0.2759884219	-0.267771
C	 0.943988531	-3.2569353132	-1.6004552934	 0.02838
C	 0.1688104631	-3.1528640012	-2.8929387024	-0.399283
H	 0.6270539518	 1.8695523179	 0.3788760528	 0.121964
H	-0.099922112	 1.5657889356	-1.2115833985	 0.16826
H	-1.1143790374	 1.5185882425	 0.252827047	 0.120099
H	 0.135924074	-0.5791914413	 0.8227907411	 0.246796
H	 0.5824789082	-3.7182287197	 0.5831584268	 0.118057
H	-0.8166084313	-2.9213492129	-0.2970243574	 0.123115
H	 1.8103232826	-3.9155456734	-1.6461693546	 0.097459
H	-0.7373766842	-2.5534617113	-2.7723111668	 0.125052
H	 0.7740492908	-2.6804561593	-3.6700702367	 0.150142
H	-0.1206061706	-4.153681295	-3.230280197	 0.11387
