19
gdb 41861	2.55978	2.07439	1.62007	1.5853	78.56	-0.2197	0.0211	0.2408	910.573	0.163101	-385.889976	-385.883303	-385.882359	-385.920893	27.726	
C	 0.0645438189	 1.5594361841	 0.1027794386	-0.075853
O	 1.4062066094	 1.9739664612	-0.1663604283	-0.249441
C	 2.0400333231	 0.9712536678	-0.9040459507	 0.089354
C	 2.5796202462	-0.241709622	-0.1468646163	-0.119577
C	 2.598296515	-0.2990756402	 1.3318476565	-0.035546
C	 1.4937056456	-0.4844849992	 2.0549097992	-0.071995
C	 0.1314455503	-0.6511929225	 1.4259492457	-0.2704
C	 0.0322381607	 0.0113574779	 0.0380342301	-0.050599
C	 1.2411089037	-0.2947540798	-0.8631034902	-0.133524
H	-0.2166092688	 1.953402337	 1.0842822802	 0.105341
H	-0.6106590316	 1.9903433806	-0.6517357426	 0.089913
H	 2.5607553659	 1.3265915285	-1.7878685637	 0.094465
H	 3.4065053488	-0.7395498713	-0.6474446709	 0.086453
H	 3.5616721243	-0.1803896669	 1.8205537962	 0.086141
H	 1.5544834388	-0.5347648005	 3.1386153221	 0.084901
H	-0.1071668357	-1.7218681213	 1.3426767232	 0.108117
H	-0.6391355366	-0.2308280832	 2.0838487028	 0.101047
H	-0.8899980798	-0.3188462947	-0.449297583	 0.074826
H	 1.1118932719	-0.9322054454	-1.7292284787	 0.086379
