18
gdb 102873	2.05103	1.23225	1.13136	2.3764	76.79	-0.2507	0.0079	0.2586	1239.9829	0.144771	-439.038467	-439.028604	-439.02766	-439.073379	35.304	
C	 0.2037274592	 0.0531744874	 0.652662621	-0.325235
N	 0.6890107628	-0.8398982698	-0.3833251995	-0.235597
C	 0.2497744877	-0.6808604018	-1.5573996665	 0.159573
O	 0.57223991	-1.4079838773	-2.6309499944	-0.239707
C	 1.3345027647	-2.6486618251	-2.5145734216	-0.105227
C	 2.7633612908	-2.4719219781	-1.9465131849	-0.071684
O	 2.8720717632	-2.5344192704	-0.5581432986	-0.414114
C	 0.5593900158	-3.6781233413	-1.8319684517	 0.37923
C	-0.0782181074	-4.5490067924	-1.3058993351	-0.474143
H	 1.0490279653	 0.5717433965	 1.1175729228	 0.136444
H	-0.5059302372	 0.8064102726	 0.2801450703	 0.108073
H	-0.2907717846	-0.529213717	 1.4373938179	 0.138523
H	-0.4583506822	 0.1029125324	-1.8487888418	 0.112982
H	 1.4416815376	-2.9225267499	-3.5696695324	 0.128726
H	 3.3649695397	-3.2916217863	-2.357242478	 0.115407
H	 3.1548211555	-1.5324007109	-2.3746420118	 0.090133
H	 2.1704629668	-1.946975758	-0.2123031615	 0.292213
H	-0.6331590077	-5.3168357606	-0.8257034542	 0.204404
