17
gdb 79205	2.37543	2.04913	1.45115	1.9482	66.65	-0.2307	0.0654	0.2962	924.6453	0.136863	-458.897954	-458.890887	-458.889942	-458.92895	29.339	
O	 0.2035093135	 1.396558003	-0.1584070232	-0.43181
C	-0.0287284494	 0.0377820488	-0.0171930159	 0.063195
C	-0.445990349	-0.6972866858	 1.2503817163	-0.186543
C	-1.3878528992	 0.0178172639	 2.2324009679	 0.060953
C	-2.7514783852	-0.6887562975	 1.9985983021	-0.224369
C	-2.5583107454	 0.0746756168	 0.6657638685	-0.000172
O	-1.9093488397	 1.1429319883	 1.4335064572	-0.314364
C	-1.3628725673	-0.6671613012	 0.020652588	 0.29493
O	-1.6384470096	-1.8110579526	-0.7229271919	-0.464692
H	-0.4769882877	 1.8271738733	 0.3797107214	 0.292913
H	 0.7082089715	-0.5270179144	-0.5844590795	 0.110501
H	 0.0842420076	-1.5886517785	 1.5650692681	 0.101816
H	-1.0201697089	 0.311236036	 3.2148626947	 0.092619
H	-2.7764620828	-1.7796512138	 1.9701240868	 0.116662
H	-3.5527519118	-0.2709443947	 2.6104943291	 0.111048
H	-3.3774529801	 0.4112627433	 0.030344892	 0.087389
H	-1.7310796464	-1.553280615	-1.6467135515	 0.289924
