16
gdb 17505	4.81514	1.76752	1.61034	0.7528	75.08	-0.2448	0.0384	0.2832	832.0238	0.131037	-309.38432	-309.37783	-309.376886	-309.414554	26.614	
C	 0.026016835	-1.2253327639	 0.0045422417	-0.342353
C	-0.001693531	-0.0223646177	-0.0227963035	 0.042155
C	-0.0362125833	 1.4090041242	-0.0594547087	 0.242516
C	-1.0989426369	 2.2190876436	 0.7536641362	-0.268994
C	-0.9318683244	 3.3056186496	-0.3022393263	-0.073296
C	 0.5510695736	 3.3310527503	-0.7068312488	-0.073296
C	 1.2657019612	 2.2596381952	 0.1085057028	-0.268992
C	-0.3953643474	 2.3293992246	-1.3179599585	-0.122294
H	 0.0514418676	-2.2862700723	 0.0311753688	 0.178503
H	-2.0819587004	 1.7464392205	 0.692399549	 0.110402
H	-0.8540601922	 2.4394147178	 1.798769728	 0.093812
H	-1.5729338439	 4.1576415384	-0.4855932941	 0.09018
H	 0.9826961698	 4.2014734786	-1.1828482831	 0.090178
H	 1.5784760408	 2.4811218958	 1.135089134	 0.093812
H	 2.0959842812	 1.8180961792	-0.4474997261	 0.110399
H	-0.6692430697	 2.0976683661	-2.3363648214	 0.097267
