15
gdb 25739	2.78901	1.58071	1.01225	5.1094	72.59	-0.2054	-0.0183	0.1872	1092.2346	0.114812	-454.023447	-454.015654	-454.01471	-454.055627	30.104	
N	 0.0211367674	 1.3412938296	 0.0391683238	-0.559846
C	 0.0173645995	-0.0383580117	 0.1189601837	 0.351303
O	 1.0730800354	-0.6737395276	 0.2341022179	-0.42389
C	-1.2466909495	-0.7261070029	 0.1017829366	 0.064069
C	-1.3725662047	-2.114517435	 0.0407108466	 0.35197
O	-0.3525769806	-2.9787485719	 0.0290042021	-0.428881
C	-2.7517692478	-2.4293455208	-0.0299861697	-0.259787
C	-3.4307411896	-1.22836123	 0.0074990955	-0.055223
N	-2.5362258527	-0.1997393969	 0.0534479715	-0.365328
H	 0.9398753135	 1.7330508954	-0.1126932237	 0.260299
H	-0.7132140004	 1.7833592302	-0.4929240347	 0.248525
H	 0.4521626588	-2.4227101899	 0.1269148024	 0.31292
H	-3.1850699298	-3.4136134182	-0.1020874962	 0.112357
H	-4.4921288237	-1.0350375836	 0.0085150811	 0.129574
H	-2.7774443257	 0.7402011835	 0.316266483	 0.261939
