18
gdb 109476	2.15879	1.59992	0.95993	1.2366	73.76	-0.2602	-0.0415	0.2187	1210.9726	0.147124	-439.127039	-439.118238	-439.117294	-439.161382	32.017	
C	-0.2388642495	 1.625723694	-0.0985184054	-0.396799
C	-0.006991372	 0.1204540097	 0.047243296	-0.17629
C	 0.7925827832	-0.4958696099	-1.1148283044	-0.231145
C	 2.2827239334	-0.2336409359	-1.1285323839	 0.411549
N	 2.8432515311	 0.8781288545	-0.9307846258	-0.519695
O	 2.9756500091	-1.3921974475	-1.3952315518	-0.242404
C	 2.1181254201	-2.527887749	-1.4721818321	-0.198106
C	 0.7098199046	-2.0168852201	-1.1750117527	 0.37659
O	-0.2630076038	-2.7024332079	-1.0133890498	-0.301395
H	 0.7112820109	 2.1601845707	-0.1589892679	 0.159942
H	-0.8135791169	 1.8466245963	-1.0053156471	 0.110429
H	-0.8050146254	 2.0091947718	 0.7557796141	 0.112084
H	 0.5192094615	-0.0889898376	 0.9854905353	 0.107852
H	-0.9618763139	-0.4144737026	 0.0934957041	 0.123189
H	 0.3734882577	-0.1275168338	-2.0637818787	 0.141149
H	 3.8593191023	 0.7845031086	-0.9837266456	 0.226444
H	 2.1687161993	-2.9732838071	-2.4729764269	 0.146815
H	 2.4247629383	-3.2823003843	-0.7399383174	 0.149791
