17
gdb 71321	3.84884	1.46918	1.29824	3.6756	72.09	-0.2292	-0.0283	0.201	995.2931	0.135546	-421.796173	-421.788817	-421.787873	-421.827763	29.003	
C	 0.0099172389	 1.4803162422	-0.1211189092	-0.487048
C	 0.0070779257	-0.0086579809	 0.0784570762	 0.443952
C	-1.3182668045	-0.782434044	 0.2970343191	-0.273067
C	-0.5564670896	-1.8275361023	 1.1697323627	-0.190288
C	 0.6736629527	-0.8293239814	 1.2271463313	-0.154486
C	 1.3525050318	-1.614339395	 0.0640168029	-0.026769
O	 0.8223781066	-0.6943882126	-0.9176862839	-0.333893
C	 0.3311075751	-2.7502084437	 0.3180940274	 0.433408
O	 0.3268049411	-3.9267688928	 0.1023049392	-0.3082
H	 1.0322441741	 1.868830072	-0.1226125147	 0.130266
H	-0.4508254526	 1.7305542977	-1.0834275313	 0.13594
H	-0.5566912824	 1.9804306721	 0.6702555291	 0.121069
H	-2.0126783893	-0.207464491	 0.9180202742	 0.110658
H	-1.8368537193	-1.1358664109	-0.5976470951	 0.118534
H	-1.067203461	-2.2683828274	 2.0247798655	 0.09499
H	 1.1569354822	-0.4594272829	 2.1260369205	 0.089999
H	 2.4112941309	-1.837294029	-0.0799018741	 0.094935
