16
gdb 19713	4.04859	2.4259	2.24742	1.8327	65.86	-0.2325	0.0049	0.2374	683.5954	0.133837	-346.578898	-346.573582	-346.572638	-346.607866	23.201	
C	-0.0170043426	 1.5658103527	 0.0086750234	-0.208209
C	 1.5284597496	 1.6811635924	-0.0196932686	-0.11631
C	 1.8751314186	 0.7419881124	 1.1457356745	-0.073638
C	 0.9709931337	-0.2436686198	 1.1494868372	-0.07364
C	 0.0010175122	 0.0160472588	-0.0133352692	-0.116311
C	 0.8658787047	-0.2383251316	-1.2777157809	 0.058208
O	 0.8242792983	 0.7853228635	-2.2875772702	-0.264303
C	 1.8515348776	 0.8361592833	-1.2818126708	 0.058209
H	-0.4368054512	 1.9544492217	 0.9375777838	 0.095476
H	-0.507391436	 2.0123536626	-0.8553073792	 0.117585
H	 1.9637598755	 2.679567444	 0.0126526685	 0.065385
H	 2.739037381	 0.848734081	 1.7887045262	 0.098887
H	 0.9414801626	-1.1108905543	 1.7961647514	 0.098888
H	-0.9560731978	-0.503438002	 0.0248122719	 0.065385
H	 1.0654738223	-1.2461623274	-1.6291754094	 0.097195
H	 2.8714714115	 0.7225922727	-1.6366790487	 0.097195
