19
gdb 68881	2.36644	1.80968	1.41852	2.6172	75.09	-0.2394	0.0721	0.3115	1001.1651	0.158806	-422.976123	-422.967877	-422.966933	-423.00844	32.186	
C	 0.0016683301	 1.5359169545	 0.0755503279	-0.502319
C	-0.0178078487	 0.0364534868	 0.0770135391	 0.274879
C	 1.1512176544	-0.838572443	-0.3311190659	-0.415763
C	 0.5947260494	-0.9664658337	 1.0623714339	 0.359376
O	 1.3302709783	-0.6645903365	 2.1955391936	-0.470434
C	-0.6597185184	-1.8296166369	 1.0476590776	-0.165653
C	-1.7699801174	-1.3155292959	 1.9820413749	-0.089673
O	-2.2626812876	-0.3846342031	 0.9896501603	-0.291599
C	-1.2815868458	-0.8144777026	 0.0271927542	 0.065245
H	 0.9430572893	 1.9148886941	 0.4853464822	 0.123607
H	-0.1124365348	 1.9404190059	-0.9369198796	 0.116433
H	-0.818417407	 1.9194258842	 0.689919981	 0.137865
H	 1.0405644801	-1.6355903259	-1.064487478	 0.101722
H	 2.0975652359	-0.308627756	-0.3834667712	 0.115578
H	 2.0497573989	-1.3005509157	 2.2744937102	 0.286429
H	-0.571274156	-2.9074234211	 0.8982498443	 0.068999
H	-2.5338676662	-2.0616340304	 2.2320512308	 0.098499
H	-1.4330956707	-0.818440288	 2.8986497078	 0.115225
H	-1.7256706037	-1.0694294468	-0.9400132131	 0.071584
