17
gdb 77443	2.38535	1.52292	1.24005	3.9351	70.28	-0.233	0.0103	0.2434	1070.0736	0.135332	-455.134552	-455.125419	-455.124475	-455.167953	33.918	
C	 0.1137472459	 1.5123980218	-0.0657989702	-0.491071
C	 0.0516256274	 0.0327322246	 0.0894939434	 0.413035
O	 0.4850779964	-0.7925511553	-1.0344288532	-0.299523
C	 1.2017031776	-1.637304896	-0.1833256986	 0.421594
O	 1.9230920543	-2.5311668046	-0.494495775	-0.344117
C	 0.7155794222	-0.9493753368	 1.0551954996	-0.020486
N	 1.3006205422	-0.7356075432	 2.3237715482	-0.606162
C	-0.8613497462	-0.7977886961	 0.9051013615	-0.068725
N	-1.5631307583	-0.2067851577	 2.0005266057	-0.52507
H	 1.1274200238	 1.8459445033	-0.3064999971	 0.132209
H	-0.5557350379	 1.8355433952	-0.8697608294	 0.145004
H	-0.2133370411	 1.9997860945	 0.8560656781	 0.141342
H	 1.3403193989	-1.5932045897	 2.8658523943	 0.248217
H	 2.244640839	-0.371374363	 2.2518583647	 0.249856
H	-1.4046985962	-1.5891816478	 0.397381285	 0.114264
H	-2.062515505	-0.9228532232	 2.5173824779	 0.241407
H	-0.8986911229	 0.2102992139	 2.6486024152	 0.248225
