21
gdb 74362	2.64827	1.18443	0.87302	1.075	91.84	-0.2331	0.0232	0.2563	1375.4361	0.182564	-349.949648	-349.940534	-349.93959	-349.983251	35.322	
C	-0.0151958044	 1.5484592937	 0.0782816189	-0.472447
C	 0.0198536927	 0.0465554295	-0.0093601182	 0.301546
C	-0.02340927	-0.5934072123	-1.1797585276	-0.13847
C	-0.01958226	-2.1055839882	-1.3349852181	-0.200171
C	-0.3455602211	-2.807094876	 0.0032698208	-0.200009
C	 0.4551832652	-2.1750519047	 1.1435292298	-0.223
C	 0.0977045979	-0.6924852836	 1.3081516333	-0.276371
C	-0.9333340329	-2.5280958002	-2.3969082025	 0.308588
C	-1.6922599146	-2.8722250016	-3.2636371967	-0.460756
H	 0.8902828658	 1.9385741434	 0.5609855845	 0.120612
H	-0.1036786687	 2.0117142814	-0.9078601764	 0.121041
H	-0.8619152788	 1.8861078365	 0.6903739014	 0.122548
H	-0.071725308	-0.0251744963	-2.1051253757	 0.08725
H	 0.994165223	-2.4148797791	-1.6387895737	 0.109299
H	-1.4192543797	-2.7055032935	 0.200164898	 0.108984
H	-0.1361635879	-3.8775614535	-0.0839410961	 0.101839
H	 0.2753779623	-2.7137296157	 2.0798939117	 0.09302
H	 1.5275166629	-2.2693401517	 0.9278904993	 0.09927
H	 0.8296011022	-0.1970049262	 1.9598581643	 0.099162
H	-0.8665725368	-0.5914746269	 1.8293744404	 0.107625
H	-2.3582655892	-3.1768680051	-4.0321674172	 0.19044
