19
gdb 49282	2.88095	1.38917	1.00556	3.539	83.89	-0.2429	-0.0487	0.1942	1184.4043	0.160874	-385.911012	-385.903114	-385.90217	-385.943638	30.534	
O	-0.1035213041	-0.0389369624	-0.0598207439	-0.272632
C	-0.019204068	 1.1674217722	-0.0113171878	 0.086316
C	 1.2456918886	 1.9176774306	 0.0803637401	 0.21917
C	 1.2119366461	 3.2603455615	 0.0604422628	-0.135771
C	 2.4532256052	 4.1063186743	 0.0934324713	-0.256637
C	 3.6054569122	 3.4250559516	 0.8596470014	-0.234311
C	 3.7682444866	 1.9452889319	 0.5075071423	-0.039046
C	 3.2205149507	 0.8952097121	 1.4445795045	-0.283159
C	 2.5275332634	 1.1702258028	 0.1277052266	-0.111164
H	-0.9286859993	 1.8107841754	-0.0490099707	 0.060791
H	 0.2487094676	 3.7638432433	-0.0034426497	 0.09947
H	 2.7582207605	 4.3097360143	-0.9444997054	 0.125392
H	 2.2337777972	 5.0856392234	 0.5325474753	 0.109921
H	 4.5401119915	 3.9599632087	 0.6649494051	 0.103514
H	 3.4113151946	 3.5297846988	 1.9330095231	 0.107636
H	 4.6769258889	 1.6878784847	-0.0266259015	 0.086946
H	 3.7503550807	-0.0453340688	 1.5463486388	 0.115855
H	 2.7358672212	 1.2405536466	 2.3524272044	 0.111944
H	 2.6171856364	 0.3886141987	-0.6197743767	 0.105764
