22
gdb 62630	2.66628	1.80717	1.58811	1.6893	83.27	-0.2329	0.0839	0.3167	985.2372	0.197025	-367.21516	-367.207473	-367.206529	-367.246624	32.213	
C	-0.0854115194	 1.547235351	-0.0126636748	-0.449073
C	-0.0123900229	 0.0118253018	 0.0073069241	 0.318533
C	-1.4469101777	-0.5340825985	-0.087896526	-0.450465
C	 0.9162949141	-0.545202841	-1.0784817436	-0.054951
C	 2.3040622614	-0.5819458578	-0.5362896219	-0.039396
C	 2.2524700326	-0.0848906083	 0.9054235956	-0.251396
C	 0.815894646	-0.5808589772	 1.1948209273	-0.087637
C	 0.9860514276	-2.0444378219	 0.7412341615	-0.170329
N	 1.5069843304	-1.8349515488	-0.6353224782	-0.133908
H	 0.8966672847	 2.0234959314	-0.0067719933	 0.117125
H	-0.6058471115	 1.8887215761	-0.9142248753	 0.113073
H	-0.6497201594	 1.9204348048	 0.8493676215	 0.111774
H	-1.9500349181	-0.12363944	-0.9702397321	 0.112781
H	-1.488377909	-1.6214637294	-0.1707497761	 0.122803
H	-2.03299464	-0.2374656481	 0.7894014862	 0.110465
H	 0.6895972598	-0.4480148866	-2.1346723135	 0.080874
H	 3.192145804	-0.5151425178	-1.1531024282	 0.087163
H	 2.9945662432	-0.574367339	 1.5446324249	 0.098867
H	 2.3877762604	 0.9942029505	 0.9966335075	 0.101046
H	 0.4234420741	-0.4051777337	 2.1961819717	 0.061398
H	 1.7258454935	-2.5897884678	 1.3354879223	 0.098739
H	 0.0674687962	-2.6327395198	 0.7167050401	 0.102514
