25
gdb 101237	2.77559	0.94659	0.83008	1.0887	90.13	-0.2482	0.0825	0.3307	1567.9495	0.22724	-389.482534	-389.471791	-389.470847	-389.518708	39.538	
C	 0.0256910215	 1.5665136125	 0.2015050581	-0.232256
O	 0.2332088081	 0.1894921323	 0.003576876	-0.243793
C	 0.6843244902	-0.5248670168	 1.1501338648	 0.111152
C	-0.4515151752	-0.7674431965	 2.150095915	-0.404203
C	 1.2987991085	-1.8320951677	 0.6610032411	 0.033623
C	 0.4726810333	-2.7479844087	-0.2880185073	-0.244093
C	 1.7779248744	-3.0414825529	-1.0807198663	 0.058151
C	 1.7143801274	-3.1301217951	-2.5976074507	-0.406571
C	 2.4078305433	-1.780294154	-0.4243303678	-0.259935
H	 0.9295820024	 2.0627068012	 0.5896036911	 0.101687
H	-0.2203235396	 1.9986826637	-0.7721504091	 0.124383
H	-0.8035473171	 1.7780616893	 0.8925252742	 0.105088
H	 1.475802858	 0.0675390458	 1.6436747742	 0.05784
H	-1.2448594495	-1.3624709763	 1.6873045544	 0.126454
H	-0.0789033793	-1.3089701388	 3.0255699408	 0.113251
H	-0.8892390051	 0.170291773	 2.5039306978	 0.112716
H	 1.6424051095	-2.395929091	 1.5351637658	 0.062447
H	-0.0612253445	-3.5956707124	 0.1495605314	 0.085619
H	-0.2262111272	-2.1539547886	-0.8837639292	 0.111884
H	 2.2561926006	-3.9420216971	-0.6772295386	 0.063625
H	 1.2399821178	-2.2378349029	-3.0215306136	 0.113968
H	 2.7159579392	-3.215131644	-3.0350009165	 0.109062
H	 1.1352851718	-4.0021671754	-2.9228565004	 0.10911
H	 2.278346673	-0.8988318036	-1.0586930181	 0.106662
H	 3.4493100684	-1.8374886061	-0.0960229871	 0.084129
