12
gdb 24894	3.43366	1.31285	0.94972	5.2241	73.85	-0.2634	-0.1018	0.1617	1112.8864	0.078595	-435.552018	-435.545019	-435.544075	-435.583825	25.727	
O	-0.093591525	-0.0285297667	 0.0044800469	-0.320122
C	 0.0118555919	 1.1628323375	 0.0095491406	 0.430111
O	-1.1855568719	 1.9216335489	 0.0297054004	-0.257691
C	-1.1801904009	 3.2668668113	 0.0368086772	 0.296157
C	-0.043881672	 4.0042723356	 0.0254182075	-0.231334
C	 1.2030317942	 3.3073504208	 0.0048374651	-0.046898
C	 1.23033733	 1.9533257896	-0.0027716549	-0.243975
C	-2.4867895263	 3.8467737524	 0.0575265541	 0.253886
N	-3.533642812	 4.3391831071	 0.074272613	-0.310145
H	-0.1007179674	 5.0834455853	 0.0319489827	 0.147072
H	 2.1273524205	 3.8752034821	-0.0046405974	 0.138189
H	 2.1526096089	 1.3869760561	-0.0183067552	 0.14475
