21
gdb 56021	3.50524	0.94756	0.84239	3.4434	79.6	-0.2351	-0.0044	0.2307	1441.1056	0.18184	-424.2601	-424.250488	-424.249544	-424.296254	34.25	
C	 0.9030903633	 0.8051795218	 0.1877274285	-0.479823
C	-0.3331983722	-0.0621228809	 0.0912598236	 0.393069
O	-1.1458765449	-0.1483017992	 0.983310064	-0.312902
C	-0.4955026768	-0.8823063727	-1.1896062888	-0.306255
C	-0.0125740123	-2.319438661	-0.968174421	 0.161009
C	-0.1583238156	-3.2566842076	-2.1712785698	-0.240421
C	 0.9424445387	-4.29033385	-1.8949687481	-0.237353
C	 2.0428502336	-3.4263350694	-1.2591413539	-0.059224
O	 1.3891213846	-2.2981963935	-0.6722153463	-0.282915
H	 1.7855688169	 0.1790677556	 0.0186508144	 0.160258
H	 0.8925660724	 1.5667810082	-0.6011230254	 0.131207
H	 0.9540222676	 1.287122499	 1.1647976629	 0.134043
H	-1.5607431239	-0.9072900123	-1.4391704083	 0.120303
H	 0.0623812159	-0.4427192454	-2.0227655176	 0.098237
H	-0.5568164925	-2.7317051592	-0.1038654768	 0.088178
H	-1.1578158879	-3.6914553738	-2.2457579913	 0.108365
H	 0.0471194136	-2.7106012613	-3.0995351466	 0.103285
H	 0.5860135551	-5.0421980822	-1.1833677418	 0.11211
H	 1.2847559661	-4.8130533297	-2.7910600816	 0.106722
H	 2.6064383799	-3.9607351859	-0.485741621	 0.10475
H	 2.7590933584	-3.0691332406	-2.0120666953	 0.097358
