16
gdb 125517	4.31154	0.91368	0.80234	2.5554	73.08	-0.2522	-0.0395	0.2127	1401.2764	0.123625	-434.083752	-434.07487	-434.073926	-434.12011	29.801	
C	 0.0615505905	 1.4712413381	-0.1590445315	-0.497972
C	 0.0065813446	-0.0120756652	 0.0099236534	 0.310118
N	 0.0816936301	-0.847516334	-1.0301927392	-0.292362
N	-0.0146576872	-2.0579967867	-0.4815344494	 0.131869
C	 0.086146099	-3.2590917998	-1.2741085451	-0.227034
C	 1.5040925781	-3.5014227065	-1.7933325884	 0.155503
O	 1.7505332902	-4.3075388244	-2.6468261505	-0.222979
N	-0.1338267584	-2.0816068308	 0.8423561363	-0.220085
C	-0.1280904432	-0.7915449823	 1.1749047819	-0.128751
H	 0.88299447	 1.9080526103	 0.4181539207	 0.137505
H	 0.2084779313	 1.7217868628	-1.211326659	 0.147531
H	-0.864642959	 1.9462725982	 0.18122749	 0.138725
H	-0.2042318242	-4.0962379345	-0.6340495931	 0.173347
H	-0.6001534678	-3.2100809221	-2.1231526114	 0.165384
H	 2.2878459474	-2.8803423133	-1.3080380128	 0.103861
H	-0.2214969016	-0.4851679399	 2.2049547681	 0.125339
