20
gdb 86670	2.49244	1.25441	1.07586	1.9547	76.33	-0.2357	-0.0275	0.2082	1218.2277	0.168031	-440.276206	-440.266282	-440.265338	-440.310972	36.698	
C	-1.1912657357	 1.0962585263	 0.2751516412	-0.410069
C	-0.1540522124	 0.0172887114	 0.0231207812	 0.045799
N	 0.9906036523	 0.4060921198	-0.8411345986	-0.349644
C	 1.9212382446	-0.4198729379	-0.0536261998	-0.105349
C	 3.2723103157	 0.1926563883	 0.2104301532	 0.133394
O	 4.1525306355	-0.3667885323	 0.8179363583	-0.261448
C	 0.8598785642	-0.4085694194	 1.1252046131	 0.3594
C	 1.1425565428	 0.6118205861	 2.2175159169	-0.460963
O	 0.5289717055	-1.6642767662	 1.6586371537	-0.464364
H	-0.7266996706	 2.024967217	 0.6163222883	 0.12109
H	-1.7404486607	 1.3168069755	-0.6466366348	 0.117769
H	-1.9193280896	 0.7666575239	 1.0240131331	 0.122443
H	-0.6485911772	-0.9030694203	-0.3197199111	 0.080285
H	 0.9006714602	 0.1534515134	-1.8193569126	 0.222087
H	 2.0472868888	-1.4587959582	-0.3860868207	 0.095139
H	 3.3830455043	 1.2351091902	-0.166853302	 0.080071
H	 1.3572407244	 1.5978380614	 1.7957387367	 0.134625
H	 0.2820684212	 0.696218824	 2.8874175946	 0.126262
H	 2.0152110669	 0.3074487997	 2.8068648507	 0.128397
H	 1.1482714199	-1.8670976324	 2.3687956884	 0.285073
