19
gdb 95296	2.14265	1.8292	1.40752	2.2624	70.43	-0.2486	0.0511	0.2997	1016.5284	0.158835	-460.146316	-460.13789	-460.136946	-460.17904	32.256	
C	-0.5681629754	 1.4347425964	-0.037942245	-0.426984
C	 0.1061986201	 0.0746679212	-0.0471674953	 0.083915
O	 1.1076350374	 0.0490205425	-1.0582720072	-0.264536
C	 1.9134398661	-1.1002125307	-0.8065589382	-0.114036
C	 2.0457232769	-1.1744622749	 0.7095341896	 0.08402
O	 2.9730077115	-0.2020093507	 1.2341033569	-0.289231
C	 1.9115638369	 0.584328358	 1.8114462469	-0.122412
C	 0.8333474124	-0.3706066481	 1.2405349914	 0.294406
O	 0.0140778087	-1.0402581612	 2.1622232128	-0.480741
H	 0.1540081929	 2.2344783276	 0.1456015548	 0.132278
H	-1.0478066204	 1.6244723042	-1.0016062504	 0.136302
H	-1.3429873873	 1.4759686683	 0.7358672789	 0.106262
H	-0.64822924	-0.708615889	-0.244312769	 0.071696
H	 1.4259962251	-2.0121721089	-1.1886089146	 0.09188
H	 2.8729229128	-0.9643601075	-1.3106126578	 0.12227
H	 2.2136626944	-2.1774366721	 1.1121411189	 0.08846
H	 1.9446678213	 0.5810812717	 2.9077264665	 0.100745
H	 1.9206234792	 1.6151231032	 1.4403583108	 0.102467
H	-0.6950660425	-0.44563688	 2.4308318	 0.283238
