16
gdb 71335	3.32629	1.4248	1.18539	2.486	70.22	-0.2423	0.0104	0.2526	1036.8232	0.122346	-437.795701	-437.788048	-437.787104	-437.828015	29.022	
C	-0.1537164738	 1.3900716989	 0.1556232796	-0.534971
C	-0.0376739325	-0.0941221309	 0.0617250737	 0.470382
O	 0.5733817004	-0.7068291932	-1.11394714	-0.345678
C	 0.2140466972	-1.8525363776	-0.3012941448	 0.081585
C	 0.5676824779	-1.1682289196	 1.0528025402	-0.146911
N	-0.7576411737	-1.5221581066	 1.6250002746	-0.07282
C	-1.3593747414	-0.9733945175	 2.727171941	 0.13165
O	-2.5283124098	-0.662970248	 2.7963979555	-0.315576
C	-1.1213756491	-1.2365845818	 0.2143573064	-0.127227
H	 0.8359971109	 1.8558418301	 0.137214407	 0.141356
H	-0.7372975377	 1.7772087393	-0.6847102755	 0.147399
H	-0.6588181753	 1.6686104009	 1.0853487746	 0.150197
H	 0.4350351659	-2.8555911093	-0.6604010854	 0.113511
H	 1.4994206719	-1.1653351296	 1.6168817092	 0.109189
H	-0.6635880935	-0.9202665477	 3.5899448916	 0.075527
H	-2.1320065876	-1.3060577572	-0.1794759077	 0.122386
