20
gdb 95188	2.51554	1.68665	1.11497	3.7031	79.79	-0.23	0.0258	0.2558	1122.8841	0.173239	-403.181214	-403.172845	-403.171901	-403.214317	31.856	
C	-0.0032091718	 1.443491369	 0.0191312092	-0.34372
N	 0.0302566975	 0.0015730753	-0.1630415608	-0.103581
C	-1.2531612511	-0.7006763169	-0.1120846663	-0.151062
C	-1.2396340317	-1.9761538444	-0.9535061531	-0.236102
C	-0.0460382349	-2.8583655255	-0.5997370463	-0.042754
C	 1.1944100066	-2.7877660134	-1.4465939781	-0.280597
C	 1.1806063063	-2.152942985	-0.0694753214	-0.120582
C	 1.2208438177	-0.6561904067	 0.0507472553	 0.402051
O	 2.2624822615	-0.0738062244	 0.3057007849	-0.396288
H	 1.0169893069	 1.8192753599	-0.0387710389	 0.166562
H	-0.617885553	 1.9067694982	-0.7602234825	 0.116723
H	-0.4222132451	 1.7180318992	 0.9975063759	 0.117947
H	-1.520211173	-0.9360487416	 0.9305891279	 0.105593
H	-2.0195327644	-0.013801437	-0.4854241857	 0.108498
H	-2.1756876145	-2.5194306175	-0.7905567052	 0.106089
H	-1.213028065	-1.7033780178	-2.0142722257	 0.109757
H	-0.2790581771	-3.8199683096	-0.1542374217	 0.090005
H	 1.7964511106	-3.6801822566	-1.5744003727	 0.118397
H	 1.1799363916	-2.1275693777	-2.3079241792	 0.122007
H	 1.7865126929	-2.6379358775	 0.6868781445	 0.111057
