20
gdb 71306	2.52964	1.89743	1.39164	2.7155	77.04	-0.2195	0.0693	0.2887	989.399	0.173321	-403.112785	-403.105316	-403.104371	-403.144117	31.031	
O	-0.0739828247	 1.3350679601	 0.0859687047	-0.493895
C	 0.0396488547	-0.0672004823	-0.0137093484	 0.402868
C	 0.175250359	-0.6226539909	-1.465127223	-0.217321
N	-1.1488275044	-1.3333730461	-1.3904529849	-0.160477
C	-1.1943728279	-2.1697805426	-0.161002292	-0.000672
C	-0.0609054641	-2.9414961885	 0.4967385628	-0.228362
C	 1.2363514583	-2.1509900492	 0.7808757821	-0.227734
C	 0.9877386126	-0.6561981483	 1.0332230324	-0.265328
C	-1.3513248518	-0.7120035653	-0.019717273	-0.089816
H	 0.8136915089	 1.7092269021	 0.0747966854	 0.274518
H	 0.0830386842	 0.1917022677	-2.187053897	 0.111968
H	 1.0262103716	-1.2545885303	-1.7351706041	 0.090857
H	-2.1268722085	-2.7308061347	-0.1665032214	 0.096873
H	-0.4725828942	-3.3088367989	 1.4461740966	 0.109152
H	 0.1713859476	-3.8362172405	-0.0927041943	 0.107519
H	 1.7494962299	-2.5956577028	 1.6396124107	 0.097614
H	 1.9241925724	-2.2577386167	-0.0633980137	 0.108037
H	 1.9457343221	-0.1180888292	 1.0127168869	 0.082636
H	 0.550118079	-0.4866088533	 2.0250274027	 0.106132
H	-2.2621405345	-0.1959572303	 0.2650213275	 0.095432
