22
gdb 59552	2.49197	1.34368	1.03594	2.3829	82.43	-0.2187	0.0698	0.2884	1254.6984	0.193102	-404.310842	-404.301185	-404.300241	-404.344908	37.003	
C	 0.1176503059	 1.4828850251	-0.1088565214	-0.408255
C	 0.0080549345	-0.0259973241	 0.104523228	 0.120086
O	 0.5597818196	-0.4125356545	 1.3681916342	-0.437102
C	-1.4204162903	-0.5440083661	-0.0208666163	-0.037186
C	-2.1498691731	-0.520423984	-1.4158378602	-0.253955
C	-2.316952385	-2.0381293552	-1.3006770525	-0.109345
N	-0.9350805243	-2.5812063134	-1.2109399608	-0.369254
C	-1.6108892852	-2.0744168403	 0.0112345946	 0.351473
C	-1.7768698898	-2.9208614784	 1.2337989497	-0.514069
H	 1.1548683664	 1.808671236	 0.0093282118	 0.122313
H	-0.2244876167	 1.7699520571	-1.1082686028	 0.120163
H	-0.4967904894	 2.0268128283	 0.6210049173	 0.098903
H	 0.6232021271	-0.5497513743	-0.6338071868	 0.108969
H	 0.0938628885	 0.0838472905	 2.0506646292	 0.271186
H	-2.0512313519	-0.0663988115	 0.7405970449	 0.054037
H	-3.0894565893	 0.035312475	-1.3910024138	 0.098804
H	-1.5524371228	-0.1912525406	-2.2706846384	 0.104673
H	-3.1258778204	-2.6521496905	-1.6791555778	 0.087461
H	-1.0131146458	-3.5981434538	-1.186155933	 0.221174
H	-0.8350222494	-2.9745238091	 1.7897937855	 0.143792
H	-2.5368315049	-2.5009168888	 1.9025906529	 0.116058
H	-2.0856035834	-3.9401773872	 0.9751498556	 0.110075
