18
gdb 79321	3.52805	1.25106	1.17841	3.0523	78.11	-0.247	-0.0295	0.2175	1114.6997	0.147568	-401.896921	-401.889029	-401.888085	-401.929468	30.08	
C	 0.0603746161	 1.6441129607	 0.0384077045	-0.426417
C	 0.1021354657	 0.1278760201	 0.0389285667	 0.090187
C	 0.5830962328	-0.701252493	-1.1744726654	-0.159261
C	 2.0254888076	-0.1860164199	-1.4205452412	-0.252219
C	 2.334051868	-0.7034363398	-0.0133506377	-0.082035
N	 1.1722867471	-0.523384528	 0.8903503079	-0.19215
C	 1.180442949	-1.6674164638	-0.0920153642	 0.296947
C	 1.0730132901	-3.0720331378	 0.2943962024	 0.004693
O	 0.5197943398	-3.9272043101	-0.356233608	-0.271
H	 1.0056627084	 2.0921145915	-0.2768393004	 0.124211
H	-0.7286610016	 2.0008000571	-0.6323787511	 0.123636
H	-0.161627913	 2.0093401254	 1.0460016094	 0.133757
H	-0.8486332869	-0.2715017807	 0.4053522631	 0.094541
H	-0.0726079186	-0.9669846279	-1.9993414004	 0.093912
H	 2.5409842237	-0.7956887645	-2.165847748	 0.120968
H	 2.174821293	 0.8738289973	-1.6440186588	 0.104509
H	 3.2940611563	-0.8521255496	 0.4639858697	 0.113581
H	 1.5653129223	-3.2920141671	 1.2682327116	 0.082138
