19
gdb 105593	1.87238	1.60669	1.20751	2.1641	76.98	-0.2451	-0.0505	0.1946	1148.7966	0.156573	-423.049282	-423.039671	-423.038727	-423.084544	34.295	
C	-0.4729162628	 1.603557322	-0.0188324192	-0.401994
C	-0.0816136645	 0.1211389635	 0.0596495731	-0.254939
C	 0.7198773799	-0.4205666752	-1.1401461025	 0.094145
C	 0.8877869399	-1.9639371854	-1.2761977975	-0.284169
C	 0.3607129853	-1.9231473314	-2.7415340081	-0.327592
C	-0.0723891161	-0.4804180062	-2.4943270346	 0.360125
O	-0.8206806077	 0.2828404495	-3.0296534857	-0.289177
C	 2.0246134711	 0.3168211299	-1.3758737558	 0.115205
O	 3.0680286861	-0.2162452355	-1.6630575344	-0.251458
H	 0.3915965891	 2.2683605999	 0.0644701911	 0.120681
H	-0.9827820095	 1.8223510054	-0.9602458964	 0.154055
H	-1.1506338602	 1.8524178171	 0.8032376933	 0.11948
H	 0.4898808829	-0.0732193159	 0.976232878	 0.111142
H	-0.9939525904	-0.4817169058	 0.1390485696	 0.109095
H	 1.9131416306	-2.3113816582	-1.1585604148	 0.133808
H	 0.224566012	-2.508225226	-0.6015375303	 0.110166
H	 1.1669260327	-1.9705136494	-3.4810394404	 0.150886
H	-0.4316403396	-2.613721248	-3.0387702457	 0.133074
H	 1.954356961	 1.4205500697	-1.2985810395	 0.09747
