12
gdb 130594	3.51266	1.83104	1.20363	5.5064	69.36	-0.2669	-0.1155	0.1515	910.384	0.080185	-431.68473	-431.678675	-431.67773	-431.715318	23.059	
O	 0.0644865119	-0.0529993539	 0.0018860474	-0.284002
C	-0.0183063035	 1.138503976	 0.0089564678	 0.418991
C	-1.2123704462	 2.044221432	 0.0313100205	-0.21081
C	-0.8144254182	 3.3309303397	 0.0320039871	-0.202878
C	 0.6482749512	 3.3627925614	 0.0106529904	 0.353889
C	 1.7991262962	 4.1006095249	-0.0027137369	-0.197211
N	 2.8681667887	 3.2190492251	-0.0227475357	-0.16777
N	 2.4377423605	 1.99791445	-0.0225063734	-0.114427
N	 1.0836995314	 2.0740053648	-0.002279328	-0.042491
H	-2.2181019636	 1.6521021418	 0.0441620381	 0.149928
H	-1.4448373632	 4.2085547188	 0.0457799901	 0.150837
H	 1.9573738249	 5.1660196193	 0.0002842125	 0.145941
