16
gdb 65449	4.05595	0.79598	0.73597	3.2498	71.98	-0.2679	-0.0445	0.2234	1498.8893	0.120721	-437.884309	-437.87477	-437.873826	-437.919983	32.704	
C	 0.1214800122	 1.4796691974	-0.2319537577	-0.46864
C	-0.0625160523	 0.0189013265	 0.1143011385	 0.22248
O	 1.0991313854	-0.8197630513	 0.0861677298	-0.264921
C	 0.4507157716	-0.6311069615	 1.3477686534	 0.010737
C	 1.2229920621	 0.0835351148	 2.4332580884	-0.32491
C	 2.3494642018	-0.7892936174	 2.9709805668	 0.162457
O	 2.5401311455	-0.9976246615	 4.1391347405	-0.226108
C	-1.2426526269	-0.5877858062	-0.4891660605	 0.25877
N	-2.1930639539	-1.0402417419	-0.9659481039	-0.323265
H	 1.0273296478	 1.8786020081	 0.2252622408	 0.140655
H	 0.2069432444	 1.5939620419	-1.3160664143	 0.157224
H	-0.7396893204	 2.0633169778	 0.1058869085	 0.150706
H	-0.0978026648	-1.5106011761	 1.6877155797	 0.128767
H	 1.6822827791	 0.9957735433	 2.0364275235	 0.132523
H	 0.564260009	 0.3544844093	 3.2632848821	 0.139776
H	 3.0064587596	-1.2227902032	 2.1858698245	 0.10375
