22
gdb 119230	1.93724	1.1834	0.86065	2.4038	85.21	-0.2539	-0.0275	0.2264	1467.3276	0.192073	-404.349126	-404.338696	-404.337752	-404.384961	37.637	
C	-0.0101594086	 1.6453860315	 0.2427966562	-0.383055
C	-0.0784291492	 0.1227168874	 0.3798434769	-0.166992
C	-1.2881950763	-0.4804960634	-0.3488708241	-0.261499
C	-1.3764836088	-1.9838215555	-0.1916006852	 0.2197
N	-1.6860018311	-2.5235262667	 1.1560923519	-0.358498
C	-2.653253077	-2.7410858757	 0.0919926024	-0.047005
C	-4.0029654822	-2.0751243499	 0.207444777	-0.403097
C	-0.4034873951	-2.7909271271	-0.9832512536	 0.12381
O	 0.3625707077	-2.355603271	-1.8054740359	-0.265981
H	 0.8563552576	 2.0530648608	 0.7726418936	 0.111437
H	 0.0710044541	 1.9462557367	-0.8076496407	 0.116324
H	-0.9065785148	 2.1225912345	 0.65518408	 0.110569
H	 0.8388122781	-0.3239218626	-0.0193138397	 0.113324
H	-0.1342743544	-0.1557729029	 1.4387141664	 0.107236
H	-2.2047283964	-0.0138885055	 0.0234855684	 0.097178
H	-1.2223012255	-0.2558694419	-1.4196468745	 0.113393
H	-1.1428929056	-3.365343115	 1.3447188256	 0.233513
H	-2.6921992201	-3.7448422739	-0.3344894455	 0.088744
H	-3.9316236198	-1.1160060028	 0.7227504595	 0.137502
H	-4.4453457536	-1.915204743	-0.781037773	 0.126517
H	-4.682805243	-2.7126371173	 0.7825449674	 0.127334
H	-0.4350159558	-3.8835949865	-0.7423227233	 0.059547
