23
gdb 60475	5.83617	0.51932	0.49385	0.9494	89.88	-0.2566	0.055	0.3117	2264.2715	0.20207	-388.259811	-388.248413	-388.247469	-388.297407	40.363	
C	 0.0205403684	 1.5084366057	-0.0028327371	-0.392858
C	-0.0069001991	-0.0246270223	 0.0217531712	 0.020256
C	 0.7515386883	-0.5862269424	 1.230380703	-0.379478
C	-1.4501791285	-0.5260155606	-0.0083367625	-0.040796
O	-1.4523717977	-1.9359818067	-0.11486407	-0.247881
C	-2.7426872511	-2.4978112465	-0.1058165281	-0.047522
C	-2.5873151739	-4.0176645405	-0.2318570289	-0.351226
C	-3.8706309719	-4.7061684062	-0.2296902227	 0.287782
C	-4.9435977694	-5.2475147997	-0.2249024059	-0.449753
H	 1.0502123933	 1.8790138084	-0.0094253017	 0.115264
H	-0.4850495442	 1.9085245953	-0.8882186615	 0.111641
H	-0.4739543764	 1.9260538316	 0.882434383	 0.113603
H	 0.4757783182	-0.3969555562	-0.8918376529	 0.08263
H	 0.7041165778	-1.6773901141	 1.2452718243	 0.127978
H	 1.803661038	-0.2846933596	 1.208194419	 0.107672
H	 0.3186090719	-0.215441145	 2.167752433	 0.106569
H	-1.9791078855	-0.2128770792	 0.9097865671	 0.082033
H	-1.9918195878	-0.0820685819	-0.8609510586	 0.082795
H	-3.2751983751	-2.2495928816	 0.8263332495	 0.098766
H	-3.3482656984	-2.1112013618	-0.9413077648	 0.098158
H	-2.0381084245	-4.2374925783	-1.1550170833	 0.139437
H	-1.9618772377	-4.3747049991	 0.5949564157	 0.13921
H	-5.884617055	-5.7389379195	-0.2219742078	 0.19572
