21
gdb 118320	2.29873	0.95074	0.74314	1.7967	80.99	-0.2513	-0.052	0.1993	1605.6209	0.178263	-424.265317	-424.254312	-424.253368	-424.302546	37.953	
C	 0.0342844264	 1.6362016873	-0.0145811293	-0.380246
C	 0.0198607983	 0.1060200202	-0.0558679755	-0.185678
C	-1.3983939942	-0.4749173998	-0.0148197736	-0.186043
C	-1.4250360807	-2.0054465372	-0.0537363185	-0.176411
C	-0.8572676835	-2.6170943956	 1.2261203456	 0.152287
O	-0.3762150958	-3.717579844	 1.3057966986	-0.247067
C	-2.8612290735	-2.563298872	-0.2037709877	 0.356828
C	-2.9609726566	-3.9777038428	-0.7298183061	-0.484622
O	-3.8210242166	-1.8939975338	 0.0917162323	-0.286724
H	 1.0560384776	 2.0256482809	-0.0527085836	 0.115818
H	-0.5166777892	 2.0589425894	-0.8618281878	 0.118712
H	-0.4326545314	 2.0116740595	 0.9024450358	 0.11876
H	 0.5275021078	-0.2431591332	-0.964832811	 0.100463
H	 0.6085935883	-0.2869502449	 0.784354898	 0.100485
H	-1.9227511816	-0.1363126188	 0.8868668275	 0.116918
H	-1.9851680694	-0.0881042808	-0.8549569245	 0.110296
H	-0.8252383245	-2.4070137802	-0.8790901091	 0.107206
H	-0.9573411522	-1.9638083506	 2.1219055381	 0.095479
H	-2.2246981498	-4.6222056293	-0.2402023335	 0.16512
H	-3.9723082942	-4.3610026105	-0.5893989249	 0.143267
H	-2.7224732953	-3.9777142538	-1.8005206306	 0.14515
