21
gdb 116907	4.74546	0.56654	0.53091	2.0907	90.29	-0.243	0.0367	0.2797	2154.0312	0.179524	-387.053648	-387.042949	-387.042005	-387.091344	37.637	
C	-0.1359543134	 1.5746842741	 0.0903991635	-0.382399
C	-0.1861456872	 0.0468953074	 0.1492772485	-0.154087
C	 0.9584309224	-0.5446076977	 0.9975367548	-0.342876
C	 0.9305220781	-2.0006950414	 1.0681719837	 0.074049
C	 0.894045001	-3.2040351392	 1.1229214613	 0.074287
C	 0.8178839025	-4.6463727343	 1.1604991093	 0.222355
C	-0.2703813872	-5.2731010338	 0.3129170016	-0.465176
C	 2.0279147417	-5.423010119	 1.5034221104	-0.21067
O	 0.9916172269	-5.2454454441	 2.462876354	-0.260326
H	 0.8025446192	 1.9254227552	-0.3532835302	 0.116269
H	-0.957740469	 1.9734827924	-0.511709933	 0.115813
H	-0.2130344068	 2.013748847	 1.0913489228	 0.117251
H	-1.1431050951	-0.2839491787	 0.5678695236	 0.110875
H	-0.1302500909	-0.3719123442	-0.8617180305	 0.108387
H	 1.9228235808	-0.214112701	 0.5879524421	 0.126325
H	 0.9070880029	-0.1318103787	 2.0141801442	 0.131045
H	-0.1344510479	-5.0128512781	-0.7411631966	 0.128803
H	-0.250311882	-6.3606238148	 0.4182389641	 0.12609
H	-1.2526938838	-4.9093997905	 0.6281963058	 0.135151
H	 2.1375195525	-6.4323995711	 1.1066720798	 0.111316
H	 2.9579580954	-4.8973504795	 1.7121480106	 0.117516
