18
gdb 124696	3.86125	0.97345	0.84348	1.2889	73.03	-0.2604	-0.0036	0.2569	1353.3798	0.148973	-435.268914	-435.259947	-435.259003	-435.304012	32.037	
C	 0.0586005711	 1.5751531696	 0.0642912982	-0.406042
C	-0.0150780973	 0.0435533276	 0.0453665235	-0.076544
C	 0.7596975196	-0.5703230608	 1.2217485934	-0.07476
O	 2.1149792216	-0.1641254788	 1.1127106748	-0.421904
C	-1.4297539054	-0.4636364672	 0.0483783278	 0.295089
N	-1.7242860855	-1.7223998336	-0.3000416353	-0.276002
N	-3.0398563051	-1.7862757808	-0.1488146459	-0.071326
N	-3.6467502612	-0.6844327412	 0.2640540466	-0.200045
C	-2.635611374	 0.1756619117	 0.399253507	-0.131983
H	 1.1015991462	 1.8955227111	 0.0530551991	 0.139073
H	-0.4516728766	 2.0074424109	-0.8014349743	 0.116339
H	-0.4055117494	 1.9815967199	 0.9703846208	 0.111983
H	 0.4705410718	-0.3216141822	-0.8675088495	 0.104312
H	 0.3119708946	-0.2280713867	 2.1697172634	 0.084235
H	 0.6627816062	-1.6645360319	 1.181790935	 0.104131
H	 2.6017684449	-0.5363231715	 1.8533061707	 0.288469
H	-3.5543495463	-2.627630101	-0.3534586078	 0.291992
H	-2.8147274052	 1.1867687447	 0.7260237225	 0.122982
