23
gdb 119403	3.83535	0.99095	0.94068	0.9448	86.42	-0.2505	0.0864	0.337	1386.7099	0.207292	-388.275112	-388.266382	-388.265438	-388.308788	33.823	
C	 0.0476484084	 1.3714666178	-0.0202357964	-0.21706
O	 0.0969818797	-0.0332805328	-0.0399574434	-0.239569
C	 0.6232559348	-0.5844323623	 1.1515394597	-0.187678
C	 0.6263906543	-2.085815934	 1.032905591	 0.363651
C	 1.5420769349	-2.8426612659	 0.0221578594	-0.247819
C	 1.2719576835	-4.039024211	 0.9779505283	-0.01739
C	 1.2762207146	-2.9877306268	 2.1258596125	-0.275638
C	-0.2366574276	-4.2787033392	 0.7695659946	-0.212692
C	-0.7291586868	-2.7945274005	 0.8116117016	-0.244284
H	 1.0487110684	 1.8154222845	 0.104149198	 0.100996
H	-0.3665536217	 1.7000283288	-0.9768178578	 0.12476
H	-0.5940564055	 1.748105606	 0.7928040532	 0.101169
H	 1.6467478873	-0.2081077003	 1.3255525797	 0.078249
H	 0.0136361393	-0.2721273403	 2.0193523122	 0.079834
H	 1.2066938805	-2.9203377632	-1.0158377834	 0.091578
H	 2.5778876985	-2.4950766753	 0.0593713649	 0.088786
H	 1.9212592157	-4.9146240082	 1.0029921429	 0.055188
H	 2.2842579217	-2.6610274465	 2.3950751193	 0.091193
H	 0.6954992816	-3.2025696082	 3.0290694225	 0.084195
H	-0.4505840141	-4.7664851408	-0.1860660157	 0.093813
H	-0.6739992056	-4.8917794247	 1.5632718611	 0.091664
H	-1.4273053556	-2.6035679631	 1.633115075	 0.087865
H	-1.2052104363	-2.4713281541	-0.1164362793	 0.109188
