19
gdb 85078	2.5193	1.45324	1.06757	4.048	78.37	-0.2584	0.0033	0.2616	1185.0322	0.158799	-423.078717	-423.069786	-423.068842	-423.113437	33.027	
C	 0.0061279449	 1.5337201117	-0.1281716241	-0.38651
C	-0.0723790621	 0.0290162303	 0.1408783139	 0.08885
O	 0.2337400155	-0.6427048521	-1.0968170327	-0.250496
C	 1.1891072015	-1.5827611799	-1.267939391	 0.420472
O	 1.3477570736	-2.0449773933	-2.366612624	-0.333816
C	 2.0338105617	-2.0362220045	-0.0782816382	-0.203522
C	 3.5300078497	-1.949852895	-0.4460505342	-0.385804
C	 1.7202522833	-1.3224602953	 1.2023591568	-0.065387
C	 0.777133339	-0.3952881828	 1.2952115117	-0.090569
H	 1.0368789386	 1.8301161694	-0.3422750737	 0.129004
H	-0.6207764821	 1.7942837212	-0.9842538033	 0.136992
H	-0.3433475862	 2.0929294427	 0.7451059401	 0.120072
H	-1.1203352002	-0.2281849048	 0.3540950553	 0.107516
H	 1.7971155378	-3.1039328878	 0.0408622006	 0.123004
H	 3.8399579347	-0.9082944727	-0.5753348353	 0.123094
H	 4.1401659488	-2.3894473106	 0.3486273135	 0.114482
H	 3.7150254811	-2.4874244886	-1.3771597216	 0.148939
H	 2.3116533432	-1.597911862	 2.0722308125	 0.100752
H	 0.5694414371	 0.1081836141	 2.2352098436	 0.102926
