12
gdb 24843	2.62264	1.76903	1.19522	5.63	64.3	-0.2501	-0.0792	0.1709	960.0766	0.077776	-472.652812	-472.645668	-472.644724	-472.684937	25.666	
O	 0.0161334043	 0.0191982897	-0.6595994039	-0.306215
C	 0.0084765958	 1.1380435362	-0.204070322	 0.288349
C	-1.216062979	 1.841127793	 0.2136978338	-0.235976
C	-1.4037700469	 3.1470959197	 0.4557844758	 0.083962
O	-0.5981107678	 4.2113243452	 0.1991770045	-0.184935
C	 0.6279882943	 4.1120559773	-0.3932618624	 0.135791
N	 1.4446131266	 3.1570453104	-0.4242138509	-0.248184
C	 1.3093893109	 1.8832235672	 0.1405439984	 0.28482
O	 2.1631690846	 1.3857297974	 0.8233076061	-0.280771
H	-2.0658003821	 1.1942426812	 0.4067799654	 0.144377
H	-2.3439278766	 3.5142244167	 0.8510016203	 0.155766
H	 0.8641749359	 5.0689252359	-0.8523487352	 0.163016
