21
gdb 95347	2.91264	1.45848	1.13701	0.3047	78.52	-0.2284	0.0826	0.3111	1147.493	0.183926	-424.21883	-424.210754	-424.209809	-424.251152	32.143	
C	 0.0209841445	 1.5135870704	 0.041190647	-0.405147
C	 0.0432600704	-0.0052236112	-0.0107849247	 0.12219
C	 0.7183471832	-0.5441820649	-1.2700997124	-0.084523
O	 0.7366459983	-1.9642633612	-1.2892489808	-0.269239
C	 1.1797231725	-2.5440740426	-0.0891248237	 0.140111
C	 2.665723102	-2.4686973499	 0.3741302703	-0.273649
C	 2.1248749709	-2.3266423345	 1.8274157782	-0.239765
C	 0.766476569	-1.876121939	 1.2478154856	 0.084413
O	 0.7669369439	-0.4608094386	 1.13237176	-0.286916
H	 1.0382927107	 1.9141992259	-0.0083574667	 0.124541
H	-0.5570521298	 1.9223406563	-0.7930249	 0.116696
H	-0.4317175783	 1.850373852	 0.97718244	 0.12842
H	-0.9863882282	-0.4006230754	 0.0269248221	 0.069212
H	 0.173465426	-0.2379441027	-2.1682934716	 0.105697
H	 1.7394388632	-0.1347236467	-1.3285197551	 0.092845
H	 0.8472105494	-3.5857865175	-0.1187284623	 0.085892
H	 3.3026313601	-3.3233233957	 0.1391779545	 0.099072
H	 3.1577260548	-1.55362886	 0.0396744116	 0.114052
H	 2.0491702684	-3.2874897797	 2.3425719687	 0.103324
H	 2.6113977091	-1.6012887304	 2.4808173318	 0.112957
H	-0.16158114	-2.2166614647	 1.7281601874	 0.059816
