15
gdb 21188	3.42317	1.84196	1.21151	3.8007	64.	-0.2056	0.0145	0.2201	954.5175	0.120321	-395.961373	-395.953756	-395.952812	-395.993316	28.121	
C	-0.0400459493	 1.4132750348	 0.0272314003	-0.32935
N	-0.0897604759	-0.0400549714	-0.0102966524	-0.40351
C	 0.5957020253	-0.6591933123	-1.0557730304	 0.132224
C	 1.2222979025	-0.1678067675	-2.1576842605	 0.003017
O	 1.7032190364	-1.1788963563	-2.9157589454	-0.187748
N	 1.3920564972	-2.3922784016	-2.3026817158	-0.222463
C	 0.7395032514	-2.0767150245	-1.2097704345	 0.336443
N	 0.3085002148	-3.0186829197	-0.2828885942	-0.599325
H	 0.9849708373	 1.8176715775	 0.0543312465	 0.114149
H	-0.537492254	 1.8148223192	-0.8621073356	 0.13609
H	-0.5805957173	 1.7711891669	 0.9063190171	 0.127636
H	 0.1514974067	-0.4566326099	 0.8814558645	 0.240912
H	 1.3988651386	 0.8276724726	-2.5303402145	 0.136919
H	 0.4015706209	-3.9645710863	-0.632467375	 0.260208
H	-0.6395860148	-2.8451260016	 0.0298235196	 0.254796
