11
gdb 132475	3.25617	1.40783	0.98288	2.4848	59.22	-0.2416	-0.0723	0.1693	1031.1614	0.064726	-537.947339	-537.940554	-537.93961	-537.978976	25.188	
F	 0.0649534166	 0.0505350789	 0.0465768986	-0.028404
C	-0.0912125678	 1.347460757	-0.0487415507	 0.356261
C	-1.2275269191	 2.0134551578	 0.1933499004	-0.257757
N	-1.254954735	 3.3943847076	 0.053650358	-0.279595
C	-0.1877736714	 3.9797110566	-0.302810055	 0.29445
F	-0.174181548	 5.288990237	-0.4465167999	-0.032785
C	 1.0998043384	 3.3260653786	-0.5880259192	 0.286796
N	 2.1470991735	 3.9303772653	-0.9411806853	-0.500153
O	 1.0510275124	 1.9390915057	-0.4266392386	-0.229383
H	-2.1316750617	 1.5069259289	 0.4965301575	 0.146406
H	 2.924844842	 3.2862173165	-1.0868509057	 0.244163
