15
gdb 42578	3.12615	2.21106	1.71471	3.5167	67.56	-0.2414	-0.0178	0.2236	794.3704	0.115545	-416.746703	-416.740976	-416.740032	-416.776643	23.902	
O	 0.0182227372	 0.0580040895	 0.3350252254	-0.32829
C	-0.0118128818	 1.2203119329	 0.0358653362	 0.408676
C	-1.2080543506	 2.103687821	-0.0912594723	-0.158624
C	-0.8601059777	 3.2914978051	-0.8898707417	-0.047072
C	 0.6583853756	 3.3824036511	-0.6850635294	-0.041334
C	 0.3961730901	 3.8200895995	 0.7630489187	 0.016067
C	 1.3222273805	 2.7040752684	 1.2400462909	-0.19903
N	 1.1527785879	 2.054748103	-0.1349315326	-0.179463
N	-1.0848683244	 3.4605239274	 0.5820756042	-0.169337
H	-2.2085452961	 1.6939033925	-0.0463030358	 0.124802
H	-1.482623408	 3.7523558422	-1.646883146	 0.114813
H	 1.3298325825	 3.8482865523	-1.4020537695	 0.094941
H	 0.4672991235	 4.8399016588	 1.1408072691	 0.097824
H	 2.3542447122	 3.0369080425	 1.3844354896	 0.125929
H	 1.0190857891	 2.0689505138	 2.0763366431	 0.1401
