21
gdb 66246	2.54132	1.48249	1.28357	0.816	77.73	-0.2468	0.0887	0.3356	1114.3498	0.182273	-424.221458	-424.212595	-424.21165	-424.255234	33.766	
C	-0.1298839172	 1.5159049628	-0.1705947678	-0.412086
C	 0.0275227184	 0.0072161881	-0.0028173933	 0.426722
O	 0.7256784275	-0.5509030328	-1.1185723119	-0.298808
C	 2.0222814175	-0.9414363194	-0.688161042	-0.097327
C	 1.8203493245	-1.1935666556	 0.8039376633	-0.101807
O	 0.8486365428	-0.2198189294	 1.146509785	-0.291887
C	-1.3139287411	-0.6898490795	 0.1521611715	-0.003807
C	-2.1242610532	-1.0786590127	-1.0566509818	-0.268652
C	-1.4964967541	-2.1439385243	-0.192435766	-0.277932
H	 0.8511363644	 1.9815853134	-0.2923244874	 0.115174
H	-0.7436092279	 1.7348198266	-1.0475872157	 0.12539
H	-0.6113429916	 1.9448802171	 0.7126755858	 0.121825
H	 2.3276432461	-1.8264400635	-1.2530947088	 0.110606
H	 2.7519857061	-0.1372923205	-0.8613567975	 0.100403
H	 1.4536442876	-2.2123507493	 0.9931542687	 0.10173
H	 2.7158490289	-1.0195274213	 1.4065372949	 0.110704
H	-1.8667622061	-0.3222626608	 1.0114471542	 0.087076
H	-3.1992189071	-0.9414709161	-1.0202705838	 0.106417
H	-1.6754195009	-0.910855655	-2.0289299494	 0.12476
H	-0.6491947695	-2.6734938645	-0.6103511291	 0.114342
H	-2.1367761751	-2.7405301531	 0.447619861	 0.107155
