17
gdb 65374	3.52422	0.99445	0.97798	5.9245	75.56	-0.2546	0.0209	0.2756	1270.6251	0.134863	-417.96289	-417.954291	-417.953347	-417.996556	32.082	
O	-0.0056254896	 1.3296451754	 0.0203238649	-0.457974
C	 0.0399249202	-0.0574498449	-0.0054854709	 0.266181
C	-0.476232657	-0.829013248	 1.1997747394	-0.351585
C	-1.2956227917	-0.7975242779	-0.0633484896	-0.045168
N	-2.4182641343	 0.0927980388	-0.1188425426	-0.092176
C	-3.3844970471	-0.1046243443	-1.1992629971	-0.225227
C	-3.739703898	-0.4490053339	 0.204352066	-0.217234
C	 1.1539214444	-0.5939582816	-0.7501849791	 0.26285
N	 2.0347224242	-1.0575049825	-1.3389114409	-0.345911
H	-0.9509203937	 1.5488850441	-0.0475451174	 0.294485
H	 0.0027880548	-1.7627247541	 1.4700114734	 0.140111
H	-0.800272645	-0.2049524096	 2.0248901055	 0.137826
H	-1.3454885829	-1.7106546541	-0.6560420159	 0.110355
H	-3.7676644479	 0.801830709	-1.6570782315	 0.133154
H	-3.2048440418	-0.9257204751	-1.8894546689	 0.130445
H	-3.7989555534	-1.5031569946	 0.4630698744	 0.127955
H	-4.382529411	 0.2045346432	 0.7858520103	 0.131913
