18
gdb 74828	4.28556	1.09984	0.97542	2.8616	80.29	-0.2385	-0.0337	0.2048	1232.1057	0.147519	-401.953807	-401.945601	-401.944657	-401.986406	31.268	
C	-0.01216956	 1.4913778625	-0.0760828842	-0.487452
C	-0.0335129845	-0.0024370073	-0.0318301492	 0.320927
C	-0.0854626057	-0.8462685591	-1.0690945945	-0.156511
C	 0.0027476186	-2.2664560172	-0.6328736993	-0.1038
N	 1.2484664768	-2.602830322	 0.0682854785	-0.363206
C	 0.0808492121	-2.2180651349	 0.8834564796	 0.243463
C	 0.0313022263	-0.7537531256	 1.2905083427	-0.395048
C	-0.5945622916	-3.2836674257	 1.6524484608	 0.069743
O	-0.3887802242	-4.4655039756	 1.4851986081	-0.284906
H	 0.9208832438	 1.8847069905	 0.3465960189	 0.134325
H	-0.1029653023	 1.8648064892	-1.0992647529	 0.128282
H	-0.8287721699	 1.9181315986	 0.520252853	 0.126217
H	-0.1513865297	-0.5557218663	-2.1110153342	 0.098842
H	-0.5373043437	-3.0609975672	-1.1380558673	 0.110295
H	 1.3080084694	-3.6217786753	 0.1399259945	 0.246417
H	 0.9110018718	-0.4642175232	 1.8777007249	 0.126885
H	-0.8511802668	-0.5441468914	 1.9125722777	 0.108392
H	-1.3260292704	-2.9269618001	 2.4099422629	 0.077133
