16
gdb 69698	3.58103	1.30667	1.1838	2.7297	69.35	-0.2296	-0.0348	0.1948	1048.0991	0.12189	-437.778132	-437.770158	-437.769214	-437.810896	30.235	
O	 0.0345625099	 1.4915050482	 0.0032290389	-0.453587
C	 0.0338982587	 0.1163862088	 0.0638608822	 0.4062
C	-0.8606999861	-0.6298206997	 0.977305576	-0.331799
C	 0.6380840321	-0.8947824174	 1.0201720129	-0.096289
N	 1.2838430546	-1.6809231403	-0.1113819605	-0.14737
C	 0.2977818763	-2.2209866537	-1.04945205	-0.070216
C	-0.9438175624	-3.0142428168	-0.7542906932	 0.117436
O	-1.0938994167	-3.7364298311	 0.1965429823	-0.240991
C	 0.5841674385	-0.7595164714	-1.0830631149	-0.168497
H	 0.9378432281	 1.7934464199	-0.149418173	 0.291048
H	-1.1644620414	-0.0323924838	 1.8328563875	 0.130353
H	-1.6149604255	-1.3347909198	 0.652504363	 0.132557
H	 1.2111459756	-0.8026292623	 1.9327453347	 0.114582
H	 0.8139716999	-2.7360592443	-1.868533543	 0.129731
H	-1.7026549948	-2.9547456353	-1.5684404981	 0.085131
H	 1.1332622333	-0.3176409411	-1.9115166247	 0.101711
