11
gdb 3961	7.63854	2.02531	1.68139	2.1685	47.11	-0.2846	-0.0343	0.2503	683.3589	0.079608	-376.563238	-376.557315	-376.556371	-376.593512	20.437	
O	 0.0974407003	 1.3344182042	-0.2994448102	-0.407673
C	 0.0206071822	 0.0279274655	 0.2280820222	-0.160784
C	-1.3816145015	-0.5021609993	 0.1686126073	 0.36033
N	-1.982294896	-1.111437189	 1.1528169476	-0.17106
O	-3.2452131442	-1.4218184966	 0.6197218963	-0.150835
C	-3.2471679202	-0.9461229884	-0.623391194	 0.114977
N	-2.1434465614	-0.3706288179	-0.9775874447	-0.319403
H	-0.3437212582	 1.3202954139	-1.1572368379	 0.300982
H	 0.6811893532	-0.6699777198	-0.311436654	 0.116415
H	 0.3540892521	 0.0662102494	 1.2674929227	 0.144857
H	-4.1487065362	-1.0826382321	-1.2026220854	 0.172194
