19
gdb 31025	2.35464	1.33772	0.90445	1.7055	80.32	-0.1938	0.0362	0.23	1324.1897	0.159343	-419.264869	-419.255387	-419.254443	-419.29929	34.682	
C	 0.2833507837	 1.5675609238	 0.2525460505	-0.365708
C	-0.1075014041	 0.1121900009	-0.0514442189	-0.296317
C	 0.5584927758	-0.4229852237	-1.27797114	 0.186051
C	 0.0182628487	-0.8454133673	-2.4451214734	 0.235264
C	-1.3480157291	-0.9750442632	-3.0065276993	-0.497459
O	 1.0739149967	-1.2391656362	-3.2681731988	-0.218754
C	 2.1756300495	-1.0151690294	-2.5222231354	 0.4347
N	 3.3777999911	-1.3881381482	-3.0746303532	-0.589968
N	 1.9564779329	-0.5316287007	-1.3420405617	-0.386002
H	 1.3684543346	 1.6563054954	 0.3508239556	 0.136993
H	-0.0371124372	 2.2357541298	-0.5533227028	 0.111268
H	-0.1780529187	 1.9101157774	 1.1840034527	 0.106048
H	 0.1697464682	-0.5174594295	 0.8036087776	 0.113839
H	-1.1944690452	 0.0303870369	-0.160296003	 0.09613
H	-1.4785848998	-0.366661121	-3.9097826613	 0.132465
H	-1.5821419749	-2.0123718032	-3.2746395236	 0.134924
H	-2.082839348	-0.6438453799	-2.2692168686	 0.13719
H	 3.4190340992	-1.3108816216	-4.0805363016	 0.261221
H	 4.1659910166	-0.9632769406	-2.6087466848	 0.268114
