17
gdb 1756	5.59681	1.58984	1.45274	1.9112	61.47	-0.2438	0.08	0.3238	897.6015	0.146714	-346.825174	-346.817207	-346.816262	-346.857314	28.867	
C	-0.0821386946	 1.3332043466	 0.0208394279	-0.225581
O	-0.1810847359	-0.0588773376	-0.1664918348	-0.249833
C	 0.7619051092	-0.568962063	-1.0945396346	-0.127117
C	 0.6608653537	-2.0706002019	-1.0433708147	 0.432255
O	 0.9038127422	-2.5875538329	 0.2349556728	-0.473376
C	-0.3312795766	-2.7908868469	-1.9246488027	-0.313573
C	 1.161457447	-2.9021641625	-2.1788465905	-0.315954
H	 0.9130455661	 1.6253669026	 0.3908555703	 0.107991
H	-0.2762788074	 1.884031921	-0.91263251	 0.106646
H	-0.8337469891	 1.619050118	 0.7607384983	 0.128546
H	 0.5582781144	-0.1917547046	-2.1094958097	 0.085374
H	 1.7787070502	-0.2512069222	-0.80985481	 0.092976
H	 0.3222333895	-2.0949592754	 0.8276967452	 0.286599
H	-0.8241448267	-3.6528108382	-1.4905978085	 0.117951
H	-0.9350609736	-2.2145386383	-2.6173100373	 0.110134
H	 1.5823536049	-2.4054016181	-3.0466351499	 0.110913
H	 1.6458385968	-3.8331487166	-1.9079901519	 0.12605
