19
gdb 68619	2.7466	1.54142	1.21626	5.2919	79.74	-0.2546	0.0333	0.2878	1073.4703	0.161496	-382.072872	-382.064973	-382.064029	-382.104954	31.193	
C	 0.0419363082	 1.5286192535	 0.0834380064	-0.495663
C	 0.0339590337	 0.0239217591	 0.0472732698	 0.33223
C	 0.7879841621	-0.7112002801	-1.0919429474	-0.265971
C	 0.5569496219	-2.1827811174	-0.6235515601	-0.240377
C	-0.264663238	-1.8737595702	 0.6480944033	 0.001869
N	 0.4337768033	-0.721643157	 1.2885022985	-0.328243
C	-1.2906829223	-0.8263241593	 0.1137318757	-0.18812
C	-2.2675285806	-0.3620968844	 1.0806406288	 0.289874
N	-3.0813153702	 0.0138137244	 1.811071871	-0.340484
H	 1.0662998497	 1.9018913619	 0.1927616393	 0.121533
H	-0.3664680488	 1.9426421794	-0.8444463424	 0.123329
H	-0.5502419716	 1.9000576993	 0.9233483689	 0.152506
H	 0.3728833375	-0.5014607381	-2.0820177508	 0.106519
H	 1.8439672279	-0.425352308	-1.1058997361	 0.103796
H	 0.0117912671	-2.7900785787	-1.3516149711	 0.107986
H	 1.4854832293	-2.7058033687	-0.3789739946	 0.106346
H	-0.5768850779	-2.6975591171	 1.2887122542	 0.091715
H	 1.4424789235	-0.8561677992	 1.371575324	 0.209116
H	-1.7797800548	-1.0522473891	-0.8364732973	 0.112038
