17
gdb 127158	4.28801	0.9475	0.8871	3.1689	71.15	-0.2323	-0.0693	0.1631	1337.3744	0.134609	-451.253133	-451.244408	-451.243463	-451.287684	30.774	
C	 0.014140016	 1.5063506519	 0.1784007421	-0.325074
N	-0.0228639191	 0.0599924955	 0.0103536906	-0.055155
C	 0.7564358164	-0.6223850957	 1.032594782	-0.318786
C	-1.3826105842	-0.4570585078	-0.0681780366	-0.246712
C	-2.0272241829	-0.1020484937	-1.3695445144	 0.412486
N	-2.9985542927	 0.7512369772	-1.524219022	-0.140821
O	-3.25756081	 0.7490202995	-2.8503568684	-0.140315
N	-2.3882469717	-0.1536295673	-3.4735395065	 0.043956
N	-1.6578172009	-0.655636227	-2.5870062618	-0.186399
H	 1.0508819446	 1.8509543263	 0.1287647811	 0.126969
H	-0.5444546423	 1.996538717	-0.6232508215	 0.133231
H	-0.4144893317	 1.838163782	 1.1430264382	 0.098381
H	 0.3650750878	-0.4692327643	 2.0562651346	 0.097402
H	 0.7769734435	-1.6976577839	 0.8310816024	 0.125078
H	 1.7858950306	-0.2534264002	 1.0089143312	 0.12715
H	-1.338260813	-1.5491487654	-0.0077878065	 0.134261
H	-2.0352437204	-0.103730734	 0.7501787555	 0.11435
