20
gdb 115771	2.60172	1.01946	0.78874	3.0033	78.32	-0.2548	0.0165	0.2713	1481.3576	0.169464	-440.263563	-440.253764	-440.25282	-440.300191	34.131	
C	 0.0300520269	 1.3569366926	-0.1499556628	-0.387745
C	-0.0010341871	-0.1741307203	-0.1372188735	-0.182288
C	-1.3911595718	-0.7057577111	 0.1676224678	 0.112177
O	-2.373410419	-0.3357119605	-0.8367166867	-0.290366
C	-2.5760259019	-1.7066003114	-1.2304019518	-0.099952
C	-1.6637003233	-2.2108601451	-0.1037705655	 0.047981
O	-0.5736984969	-2.9869562664	-0.5605226971	-0.181373
C	-0.0754604871	-3.9310546837	 0.2660134423	 0.123277
N	 0.9611174298	-4.5697621122	-0.0597032488	-0.439001
H	 1.0266847984	 1.7268614777	-0.406786344	 0.115167
H	-0.6801944541	 1.746143187	-0.8846981179	 0.137846
H	-0.2392115368	 1.7693764934	 0.8289843399	 0.111237
H	 0.3311562424	-0.572246765	-1.1012262906	 0.117509
H	 0.6930882299	-0.5659558001	 0.6175421454	 0.100379
H	-1.7216089153	-0.366985991	 1.1596783796	 0.073612
H	-3.6295113693	-2.0033240078	-1.1792651297	 0.107942
H	-2.1814556056	-1.9225250611	-2.2304472471	 0.121031
H	-2.1812554348	-2.7262649282	 0.7115830039	 0.092543
H	-0.666422559	-4.0610070087	 1.1837459639	 0.088034
H	 1.1871152844	-5.2556869681	 0.6573903027	 0.23199
