19
gdb 108608	2.96068	1.24275	0.89484	5.2249	85.32	-0.1983	0.0053	0.2036	1303.6125	0.159463	-419.239365	-419.229855	-419.228911	-419.273969	34.129	
C	 0.1604149564	 1.4617064572	 0.0662973912	-0.335408
N	-0.1487608515	 0.0586179445	-0.152185543	-0.37451
C	 0.5089193891	-0.6933589672	-1.088790293	 0.279934
C	 0.6531838013	-2.0347948371	-1.159028432	 0.084666
C	 0.1949444578	-3.087559201	-0.2018042076	-0.518466
C	 1.3634850678	-2.3462951917	-2.3927224941	 0.361861
N	 1.6930381348	-3.4952903659	-2.8180902267	-0.568006
O	 1.6498057899	-1.1648346821	-3.056638985	-0.258136
C	 1.1492409801	-0.0688766796	-2.3033956407	-0.175576
H	 1.1604960339	 1.6327694542	 0.4925119391	 0.124663
H	 0.0916678282	 2.0135673015	-0.8756517649	 0.144096
H	-0.580153715	 1.8858735674	 0.7482077995	 0.136239
H	-0.4260117883	-0.4498744406	 0.6743573808	 0.246294
H	-0.828205184	-3.4228358872	-0.41294479	 0.131406
H	 0.8437776861	-3.963220905	-0.2828896387	 0.158965
H	 0.2181428406	-2.7358001139	 0.8371831279	 0.101056
H	 2.1954314713	-3.419757832	-3.7025670373	 0.214215
H	 0.4292801495	 0.4975149106	-2.9105240772	 0.125377
H	 1.9780050019	 0.606004498	-2.0486688182	 0.121331
