19
gdb 37720	3.11341	2.13129	1.71668	0.4668	77.27	-0.2014	0.0828	0.2842	857.4157	0.164125	-382.010165	-382.004067	-382.003123	-382.040543	26.161	
C	 0.0100915032	 1.6775539444	 0.0804214991	-0.214883
C	 1.531727828	 1.3385295492	 0.0440342155	-0.045381
C	 1.6985228957	 0.6128323699	 1.4090357703	-0.051152
C	 0.51150926	-0.2990781187	 1.3418227519	-0.051151
C	-0.0486776182	 0.1243837605	-0.0454625723	-0.045383
N	 1.151663143	 0.2653128043	-0.9193239906	-0.081612
C	 2.0420643126	-0.881502288	-1.0840330374	-0.184472
C	 2.4534161495	-1.5162464128	 0.2613340432	-0.160557
N	 1.8643176468	-0.8343104035	 1.4136197988	-0.105262
H	-0.3861217616	 2.1259307629	 0.9942057441	 0.095742
H	-0.3363530741	 2.1945815205	-0.8159541793	 0.10683
H	 2.2979031783	 2.0502814017	-0.2677536411	 0.068223
H	 2.0209398734	 1.155100499	 2.2928483982	 0.089614
H	-0.1564863028	-0.5176700459	 2.1695498848	 0.089612
H	-0.9083455734	-0.4129197747	-0.4493219153	 0.068224
H	 1.5244510684	-1.6045629946	-1.7242671234	 0.104914
H	 2.9169355736	-0.5347412291	-1.6452793075	 0.104915
H	 2.1466264422	-2.566026509	 0.3184986535	 0.105891
H	 3.5399186454	-1.4958098962	 0.3974234373	 0.10589
