18
gdb 47702	2.1723	1.6479	1.02705	3.5156	73.27	-0.2532	-0.0256	0.2276	1148.8731	0.150391	-439.167622	-439.159627	-439.158682	-439.200532	30.307	
O	 0.0278865117	-0.0941798931	-0.0511058128	-0.336424
C	-0.0579697831	 1.112354094	 0.010893829	 0.401812
C	-1.3982153758	 1.8324279302	-0.0101932816	-0.312167
C	-1.4275945045	 3.0667990237	-0.9291771497	-0.216255
C	-0.8732838042	 4.3461008673	-0.2756208459	-0.204079
C	 0.2624470329	 4.105188151	 0.7383885241	-0.307288
C	 1.3956794967	 3.2221614083	 0.2537237067	 0.393766
O	 2.531044006	 3.6191937028	 0.1127048253	-0.333146
N	 1.1154563498	 1.8715759294	 0.0266633775	-0.340673
H	-2.1098390945	 1.0746305469	-0.3431569601	 0.138065
H	-1.6874419078	 2.0994066708	 1.0140101938	 0.128298
H	-0.8632649146	 2.8364522982	-1.8396524374	 0.119103
H	-2.4578760263	 3.246418289	-1.2509429367	 0.11416
H	-0.5255660225	 5.0325935636	-1.0540654054	 0.120848
H	-1.6769832471	 4.8653991638	 0.2580044	 0.111816
H	 0.7210263711	 5.0539444946	 1.0213938105	 0.135115
H	-0.1476275446	 3.6558265828	 1.6501382869	 0.123704
H	 1.9478499667	 1.3149854568	-0.1329594743	 0.263345
