18
gdb 68135	3.99799	1.20498	1.09392	3.4243	77.16	-0.2596	0.022	0.2816	1134.1273	0.148404	-401.953041	-401.945189	-401.944244	-401.985048	30.96	
C	-0.0985770273	 1.5151085687	 0.0102825761	-0.491483
C	 0.0815502704	 0.0249960345	 0.0347576509	 0.416292
C	 1.0346139368	-0.7685985237	-0.9021810597	-0.295223
C	 0.7030572003	-1.9025056204	 0.1271252936	 0.154257
C	 0.7040391177	-0.7737936316	 1.2139237306	-0.295181
C	-0.8167949376	-2.0360546659	-0.1105600482	-0.113372
O	-1.181738828	-0.6474189775	-0.1642314701	-0.302745
C	 1.4830973369	-3.1101643326	 0.2460449727	 0.16042
N	 2.1089227665	-4.0778093254	 0.3424750111	-0.340465
H	 0.8590611687	 2.0204580544	 0.1609748358	 0.123841
H	-0.5144729941	 1.8326539034	-0.9504930925	 0.13573
H	-0.7876898581	 1.8283711031	 0.8001448704	 0.135727
H	 0.7181365752	-0.9170144408	-1.9364238857	 0.116431
H	 2.0751998505	-0.4484932048	-0.8438621453	 0.120546
H	 1.7126020478	-0.4542160901	 1.4772794593	 0.120548
H	 0.0873126353	-0.9269037127	 2.1016472613	 0.11644
H	-1.0565174897	-2.5384479163	-1.0537495511	 0.119112
H	-1.3323639514	-2.5426882025	 0.7122334307	 0.119125
