14
gdb 130625	5.10742	1.27279	1.02537	1.5352	68.55	-0.2105	-0.0024	0.2081	1060.53	0.104679	-432.914897	-432.908101	-432.907157	-432.946182	26.167	
O	-0.0182042346	-0.004508298	 0.0040510327	-0.359751
C	-0.0260559322	 1.2012324811	 0.0103034909	 0.414662
C	-1.2898735943	 2.1263012299	 0.0326678766	-0.500592
C	-0.6578482229	 3.4769321193	 0.0304501551	 0.341258
C	 0.7122129165	 3.3785683496	 0.0107237493	 0.27097
N	 1.0884415048	 2.0272697154	-0.0011478181	-0.457424
C	 1.2010474875	 4.6935717086	 0.0102617269	-0.13184
N	 0.1763335114	 5.5589193795	 0.028921763	-0.222875
N	-0.9392733813	 4.7996886213	 0.040939699	-0.320851
H	-1.908415483	 1.9004052539	-0.8422028736	 0.154927
H	-1.8834668962	 1.8917068252	 0.9224121364	 0.154925
H	 2.0231695059	 1.6564588507	-0.0164278373	 0.264626
H	 2.213597097	 5.0651257176	-0.0021702661	 0.115316
H	-1.8338390486	 5.2586301056	 0.0557862452	 0.27665
