19
gdb 94418	2.40945	1.39476	1.23549	3.4682	76.44	-0.2319	-0.0215	0.2104	1119.4641	0.158441	-423.022666	-423.013969	-423.013025	-423.056696	32.737	
O	 0.5570288343	 0.7777903281	-0.6649057177	-0.417851
C	 0.129956743	-0.2819417335	 0.141698761	 0.100919
C	-0.0229463547	-0.0921385406	 1.6684195308	-0.267595
C	-1.2843305566	-0.9937048539	 1.6074568813	-0.299641
C	-1.3735067001	-0.7621270473	 0.0786641804	 0.202153
C	-2.4217452219	 0.1752506427	-0.5891666759	-0.31864
C	-2.6530635558	-0.8746144272	-1.7213413222	-0.336286
C	-1.7657067059	-1.8425409198	-0.9219547594	 0.337856
O	-1.5046997081	-3.0098721411	-1.0059498123	-0.309917
H	 0.1365741767	 1.5851560761	-0.3507112824	 0.283528
H	 0.7817971041	-1.1284735871	-0.0938841523	 0.113472
H	 0.8106533329	-0.3934125957	 2.3067518152	 0.109674
H	-0.2868634626	 0.9451115602	 1.9053295685	 0.095708
H	-1.0621517209	-2.0418268664	 1.8252917613	 0.127944
H	-2.1512043832	-0.685350889	 2.1956376935	 0.107194
H	-3.3043757089	 0.3455168467	 0.0317314587	 0.109877
H	-2.0372819335	 1.1380850681	-0.9329717634	 0.094947
H	-3.6781144508	-1.2108486368	-1.8977575835	 0.12856
H	-2.2066693279	-0.5998010733	-2.6823204317	 0.1381
