18
gdb 90812	3.05992	1.84368	1.51283	1.6948	73.31	-0.216	0.0657	0.2817	911.2057	0.150112	-401.872239	-401.865432	-401.864488	-401.903351	28.178	
O	-0.2707278043	 1.4073363346	 0.5046949059	-0.435969
C	 0.0136751552	 0.0929154271	 0.0261452961	 0.07855
C	 0.9798792775	-0.6717520262	 0.9458053635	-0.267008
C	 0.2698310296	-1.5936192567	 1.9074092414	-0.009492
C	-1.1545580498	-1.4993493721	 2.301555555	-0.052008
C	-2.0869277744	-0.9733998245	 1.1985094277	-0.090515
C	-1.3117183941	-0.6206649933	-0.0438636754	-0.031449
C	-1.5353440769	-2.0680522701	 0.3216700024	-0.047344
N	-0.6730244379	-2.6376297456	 1.4335241385	-0.16946
H	 0.5454224661	 1.9167910904	 0.4648229008	 0.278592
H	 0.4460821367	 0.1534646211	-0.983299391	 0.064684
H	 1.6740820894	-1.274661411	 0.3472287541	 0.108779
H	 1.5864596988	 0.047520426	 1.5079918407	 0.098777
H	 0.9170284517	-2.0156722674	 2.6742389269	 0.094624
H	-1.4966288315	-1.6873298311	 3.3144081597	 0.092318
H	-3.1074123141	-0.6610376837	 1.3694024286	 0.094355
H	-1.9591697571	-0.2928201026	-0.8527520675	 0.095199
H	-2.0219513348	-2.7765139748	-0.3362814274	 0.097364
