21
gdb 115752	2.05538	1.27491	0.83616	4.0746	84.06	-0.2256	0.0338	0.2594	1407.5362	0.182368	-383.270402	-383.26076	-383.259816	-383.305624	34.89	
C	 0.0324084582	 1.6169888489	-0.0045291441	-0.383938
C	-0.0646703784	 0.0931508869	-0.0131575734	-0.137411
N	 0.5255411891	-0.4724173068	-1.2157994813	-0.07025
C	-0.1820351463	-0.3090017525	-2.5032896991	-0.161515
C	 0.2558509995	-1.7413168536	-2.8907526098	-0.272041
C	 0.5478017148	-1.9355976133	-1.3830562155	 0.062327
C	 1.8645291618	-2.6275563225	-0.9990553568	-0.346819
C	 2.0850862991	-2.6729153303	 0.4449628555	 0.268911
N	 2.2380070629	-2.7022616381	 1.5904149275	-0.317362
H	 1.0766149519	 1.9363269119	-0.0669967685	 0.126113
H	-0.5073038194	 2.0546953274	-0.8512184081	 0.116394
H	-0.403029963	 2.0238106757	 0.9128423754	 0.117709
H	 0.4708844258	-0.3185096031	 0.848856317	 0.129587
H	-1.124797963	-0.2129181467	 0.0921081681	 0.072942
H	-1.2753563947	-0.2286197808	-2.386462609	 0.089272
H	 0.1670972497	 0.5213145237	-3.1245214352	 0.107188
H	-0.4941642477	-2.3933835126	-3.3381475111	 0.112164
H	 1.1632609908	-1.7582478247	-3.4988757388	 0.111421
H	-0.2900339568	-2.4371229526	-0.8709140385	 0.074966
H	 1.866392908	-3.6545146001	-1.3837577333	 0.148377
H	 2.6973432278	-2.0931394366	-1.467966351	 0.151966
