11
gdb 911	5.89605	2.71273	1.85792	3.7714	54.33	-0.2372	-0.0374	0.1998	617.7884	0.080615	-343.296547	-343.291344	-343.2904	-343.325521	19.508	
O	 0.0031723188	-0.084466443	 0.0029602946	-0.37203
C	-0.013391794	 1.1369469366	 0.0095388416	 0.375927
C	-1.2443317198	 1.9385000615	 0.0302587784	-0.263247
C	-1.2011769535	 3.2796382332	 0.0368178588	 0.082333
O	-0.0521756876	 3.9972153396	 0.025331798	-0.189246
C	 1.1158581698	 3.3112254852	 0.0061493661	 0.082333
C	 1.19536132	 1.9717595326	-0.0020343783	-0.263247
H	-2.1994697896	 1.4279004315	 0.0402889314	 0.126168
H	-2.06434723	 3.933421491	 0.0518076287	 0.147421
H	 1.9609827651	 3.9882974594	-0.0014735273	 0.147421
H	 2.163991821	 1.4873856624	-0.0174694421	 0.126168
