17
gdb 99390	7.8635	0.54794	0.51722	3.9508	67.4	-0.2602	-0.0313	0.2289	2026.0994	0.131178	-496.116882	-496.106308	-496.105364	-496.15501	33.745	
C	 0.0984978876	 1.3291580404	 0.1079476353	-0.240359
O	-0.0550880703	-0.0954354095	 0.0364278104	-0.234064
C	-1.3280728423	-0.5358260951	 0.0109791247	 0.414861
O	-2.2985959216	 0.1680609779	 0.0433620858	-0.332512
C	-1.321770262	-2.0551563194	-0.064603996	-0.175935
O	-2.6415173666	-2.5167940827	-0.0920636025	-0.227699
C	-2.7429746565	-3.9165529724	-0.1595901867	-0.140393
C	-4.2191926826	-4.2786944624	-0.1815190407	 0.13794
O	-4.6213454308	-5.4094951743	-0.2396761437	-0.23651
H	 1.1728531766	 1.5111106218	 0.1212144295	 0.136699
H	-0.3611374009	 1.809064214	-0.7595513858	 0.144725
H	-0.36817403	 1.7207567995	 1.0151244018	 0.144765
H	-0.7591324312	-2.358315628	-0.9628175	 0.125052
H	-0.7652067978	-2.4461375234	 0.8029420683	 0.125011
H	-2.2633053836	-4.3247937402	-1.0653214199	 0.124946
H	-2.269061169	-4.4095504634	 0.7061791176	 0.12491
H	-4.8943089892	-3.3968769429	-0.1384132881	 0.108563
