21
gdb 56192	4.55587	0.72153	0.65799	2.835	80.28	-0.2435	-0.0109	0.2326	1731.1791	0.179938	-424.227982	-424.217959	-424.217015	-424.265142	35.373	
C	 0.3839825643	 0.3621017925	 0.7837460064	-0.465666
C	-0.3181619109	 0.3292091219	-0.5540228957	 0.34834
O	-0.2176698901	 1.2059998889	-1.379700093	-0.297181
C	-1.2058880724	-0.8794083834	-0.8565646169	-0.16638
O	-1.1292857958	-1.8409011471	 0.1684158758	-0.255728
C	-1.9745903923	-2.9470506483	-0.0275228852	 0.180406
C	-1.5850526471	-4.0250946708	-1.079270382	-0.247018
C	-2.0145207724	-5.0998388858	-0.0414352235	-0.218376
C	-1.8886895355	-4.0220903393	 1.0715082669	-0.25287
H	 0.9674343303	 1.2793504187	 0.8673294795	 0.13447
H	-0.3486435634	 0.29686768	 1.5948010388	 0.14654
H	 1.0290480371	-0.5159942211	 0.8891296122	 0.148376
H	-2.2377434191	-0.5093569247	-0.9835700605	 0.118523
H	-0.8943939463	-1.2889600222	-1.8298127009	 0.124182
H	-3.0104905294	-2.6060502804	-0.1826816243	 0.067226
H	-2.0849804309	-4.0123158532	-2.0502327205	 0.099118
H	-0.5013232514	-4.0254639298	-1.230449187	 0.109075
H	-3.0499307595	-5.4182703865	-0.18804744	 0.107329
H	-1.3883150226	-5.988981016	 0.0477172618	 0.105574
H	-0.8883975111	-4.015966337	 1.5133187189	 0.113414
H	-2.6332391914	-4.0004692364	 1.8698270791	 0.100648
