16
gdb 51375	4.22088	1.04942	0.95251	3.395	70.66	-0.2376	-0.0013	0.2363	1216.4855	0.1236	-437.798532	-437.790904	-437.78996	-437.831879	28.335	
O	-0.3330239535	 0.0537221043	-0.0651827961	-0.269002
C	-0.1611002716	 1.233512538	-0.0675088291	 0.170088
O	 1.069208994	 1.7889551036	-0.0215284723	-0.191727
C	 1.1582448635	 3.2036370089	-0.0468522365	 0.126553
C	 2.1685370541	 4.0214920317	 0.6737209912	-0.156325
C	 3.6278722205	 3.5790726324	 0.471660346	-0.03298
C	 3.8437202951	 2.3789959895	-0.3633448689	-0.256674
N	 3.5377801867	 3.6731244641	-1.0241565892	-0.144173
C	 2.0823510225	 4.0377385689	-0.8732605678	-0.066463
H	-0.9706162751	 1.9879027119	-0.1031034805	 0.082888
H	 0.1707568817	 3.6641726482	-0.0034328465	 0.118259
H	 1.8906369722	 4.7785428313	 1.3963787184	 0.105147
H	 4.4322867925	 4.0810792493	 0.9986425494	 0.107942
H	 4.8811866804	 2.1016907491	-0.5300264314	 0.126417
H	 3.1375572798	 1.5629992843	-0.3865288573	 0.167104
H	 1.7095771572	 4.7896475144	-1.5592604394	 0.112944
