18
gdb 93082	2.21052	1.57766	0.96555	3.9752	75.87	-0.2214	-0.005	0.2164	1185.2807	0.14953	-439.127478	-439.11918	-439.118236	-439.160484	31.733	
O	-0.1801818076	 1.4396019975	 0.0364154552	-0.430778
C	 0.0012657601	 0.0286610683	-0.0178572501	 0.105473
C	 0.9921913132	-0.4202152234	 1.0582978089	-0.295636
C	 1.1605856313	-1.900314572	 1.2424502214	-0.078903
C	 0.4593408755	-2.9192909737	 0.7361893532	 0.005231
N	-0.6571983147	-2.9305843079	-0.104827676	-0.323658
C	-1.5735765426	-1.9513526318	-0.4401973008	 0.368574
O	-2.487192463	-2.2182245871	-1.1961146872	-0.353895
C	-1.3936261233	-0.5792317201	 0.1771899323	-0.306152
H	 0.6805527906	 1.8556219851	-0.0781276707	 0.282756
H	 0.3792907007	-0.2631625108	-1.01084022	 0.081385
H	 1.9770910127	 0.0182624025	 0.8377718255	 0.097362
H	 0.6739086721	 0.041072036	 2.0052619228	 0.121222
H	 1.9735676353	-2.190388993	 1.9016501713	 0.094284
H	 0.7695882606	-3.9282849526	 0.9897537276	 0.109892
H	-0.8955086767	-3.8190706956	-0.5221150998	 0.252953
H	-1.6273669162	-0.6293939508	 1.2481712709	 0.124964
H	-2.131363988	 0.0679662895	-0.2975710844	 0.144926
