17
gdb 41149	3.0245	1.96727	1.49672	1.3862	71.85	-0.2411	-0.014	0.2271	890.9469	0.13798	-421.756145	-421.74981	-421.748865	-421.786453	26.789	
C	-0.0120202939	 1.5353796883	 0.0812503339	-0.208413
O	 1.4462237391	 1.4655181469	-0.0480147647	-0.316072
C	 1.2900157752	 0.1623837224	-0.6983792567	 0.13615
C	 2.1350624662	-1.0688996181	-0.5678701899	-0.190987
C	 1.4187507123	-2.1501105006	-0.2274609243	-0.033782
C	-0.0107818615	-1.9543158354	 0.2861826847	 0.008574
C	 0.0774838065	-0.8200509505	 1.3263144892	-0.258214
C	-0.0214327481	 0.00223984	 0.0367276749	 0.368788
O	-0.8198266117	-1.0496973712	-0.5662388731	-0.344798
H	-0.3201695108	 2.0274876152	 1.0073328644	 0.114937
H	-0.468787771	 2.0244592699	-0.7895744062	 0.112758
H	 1.1061145516	 0.3492185576	-1.7694914792	 0.092804
H	 3.1699886309	-1.1120721606	-0.8917340338	 0.106585
H	 1.8424527817	-3.1494348755	-0.218395007	 0.103909
H	-0.5443389879	-2.8810461638	 0.495293419	 0.082941
H	-0.8434028218	-0.7182949045	 1.9047931754	 0.108152
H	 0.9652487232	-0.7421644903	 1.9526035933	 0.116668
