16
gdb 86856	3.00078	1.21796	1.01649	3.4621	70.91	-0.2604	0.0071	0.2675	1161.6861	0.125775	-434.092818	-434.084527	-434.083583	-434.126053	30.913	
O	 0.3824121052	 0.9214857843	 0.646972611	-0.438375
C	-0.1313915963	-0.1990293104	-0.0136333941	 0.104512
C	-1.6110898964	-0.0591119201	-0.3952558903	-0.251397
C	-1.7385911354	-0.9839281421	-1.6357882504	-0.159848
N	-0.4134579286	-0.8827225134	-2.2340211263	-0.315994
C	 0.5510944494	-0.4437757123	-1.3544884882	 0.376039
N	 1.7884198195	-0.198720149	-1.5059241751	-0.572956
C	-2.0917396345	-2.3734584032	-1.2784393459	 0.279874
N	-2.3659685228	-3.4664398388	-1.0218891643	-0.313544
H	 1.2951342151	 1.0067365403	 0.3302773013	 0.297929
H	 0.0039821544	-1.1122755134	 0.5918203962	 0.107054
H	-2.3050683564	-0.3303903394	 0.3997865066	 0.138224
H	-1.7993511282	 0.9733432053	-0.7004724232	 0.135022
H	-2.5068106181	-0.6184330729	-2.3249756159	 0.139928
H	-0.1884842119	-1.3571511276	-3.0941972224	 0.258336
H	 2.1296467349	-0.3785010173	-2.4496300091	 0.215196
