19
gdb 124565	4.09148	0.90661	0.81167	3.6504	77.53	-0.2665	-0.0374	0.2291	1443.7327	0.158157	-419.198329	-419.189298	-419.188354	-419.233096	32.906	
C	 0.3163023877	 1.4526417813	-0.1439318718	-0.381494
C	 0.0311817202	-0.0416216462	 0.0494511857	 0.044853
C	 0.6480050812	-0.5550870868	 1.3564919573	-0.391074
C	-1.485617724	-0.3555506537	 0.021862447	-0.313121
C	-2.1546198065	-0.1012828782	-1.2896119193	 0.249389
C	-2.4407971203	-0.9296618176	-2.3299196756	-0.044837
O	-3.0396477111	-0.2407681112	-3.29825887	-0.161164
N	-3.1331603389	 1.1047188536	-2.8239967915	-0.007121
N	-2.6194188131	 1.1431309423	-1.6783844655	-0.165923
H	 1.3946879107	 1.6405720456	-0.1611031337	 0.110942
H	-0.1095511976	 1.8340230517	-1.0754137343	 0.133729
H	-0.1118267471	 2.0391219318	 0.6776466719	 0.115379
H	 0.4912355886	-0.5900950431	-0.7845143221	 0.074179
H	 0.202731854	-0.0530104216	 2.223749536	 0.116418
H	 0.4942223641	-1.6325598952	 1.4797984281	 0.108817
H	 1.7255030205	-0.364532131	 1.382098704	 0.115287
H	-1.6336658739	-1.4082991877	 0.2873879518	 0.107268
H	-1.9895222864	 0.2383020661	 0.7938078489	 0.123143
H	-2.2853561482	-1.9825565899	-2.5000948069	 0.165328
