17
gdb 98031	6.01242	0.60385	0.57552	2.3504	84.61	-0.2578	-0.0283	0.2295	1936.2864	0.134338	-421.81448	-421.804846	-421.803902	-421.850965	32.824	
C	-0.0064622127	 1.3650947957	-0.2335167705	-0.239617
O	-0.0489870844	-0.0672753309	-0.2234760884	-0.218672
C	-1.2330440146	-0.5957398454	 0.150470676	 0.247186
O	-2.2000435324	 0.0599425425	 0.4584778991	-0.364363
C	-1.1869567741	-2.0331388708	 0.132349055	-0.08299
C	-1.2255032567	-3.2399316461	 0.1415323655	 0.269026
C	-1.2646584072	-4.6663280127	 0.1503981687	-0.179819
C	-2.1015232993	-5.3922633009	 1.1991849814	-0.249998
C	-2.5548562216	-5.3887494167	-0.2247457935	-0.250003
H	 1.002389794	 1.6264307238	-0.5526991619	 0.133391
H	-0.7458334615	 1.7692950098	-0.9297596012	 0.141651
H	-0.2091174808	 1.765220163	 0.7632956892	 0.141646
H	-0.3417309193	-5.1558563536	-0.1446155416	 0.121146
H	-1.6792504147	-6.301673592	 1.6107995229	 0.126761
H	-2.6384505341	-4.7754004585	 1.9092989902	 0.138947
H	-3.4026287133	-4.7694802663	-0.490947788	 0.13895
H	-2.4496011574	-6.2957141309	-0.8087880129	 0.126758
