17
gdb 91865	3.34162	1.24088	1.12444	2.4109	68.87	-0.2641	-0.0442	0.2199	1107.4197	0.135653	-458.968454	-458.960624	-458.959679	-459.000807	30.221	
O	-0.4330478326	 1.2008340868	 0.5099656455	-0.439414
C	 0.1833175168	 0.0193441421	 0.032929119	 0.116429
C	 0.8265665288	-0.8013862146	 1.1832696599	-0.269748
C	-0.2776821378	-1.7371136492	 1.629445167	-0.004556
O	-1.5566631555	-1.1118971568	 1.7598786934	-0.297652
C	-1.2791135798	-1.8350884784	 0.5350266578	 0.301353
C	-0.8416303681	-0.9515646487	-0.6122383887	-0.317881
C	-2.08610984	-3.0708159727	 0.3496167747	 0.087249
O	-2.2842321069	-3.5868100909	-0.7210776625	-0.253439
H	-1.1058630761	 0.9181341617	 1.1427160606	 0.287286
H	 0.9313724047	 0.3511777448	-0.6902231424	 0.092559
H	 1.6765628853	-1.3971050059	 0.8298876115	 0.114818
H	 1.180058149	-0.1419001551	 1.9805370831	 0.127079
H	-0.0924629688	-2.5504399603	 2.327135145	 0.110876
H	-1.6659070633	-0.3987684345	-1.0692745422	 0.128376
H	-0.3880353871	-1.5811464525	-1.3848778257	 0.127195
H	-2.4904441985	-3.4851474158	 1.2990603939	 0.089469
