14
gdb 28080	4.72454	0.93816	0.78882	6.8774	67.29	-0.2041	0.0084	0.2126	1341.2224	0.101807	-470.059983	-470.05173	-470.050786	-470.093515	29.542	
N	 0.0226547502	 1.3794097328	 0.1122799463	-0.593849
C	-0.0198184106	-0.0018205522	-0.0192281157	 0.415866
N	-1.114236968	-0.7219518263	-0.1627797486	-0.387269
C	-0.6754882592	-2.0213141599	-0.1496116381	 0.370665
O	-1.5188979528	-3.0855525707	-0.3165405662	-0.229565
C	-2.815509531	-2.959110476	 0.0860250275	 0.152264
O	-3.6022663185	-3.839749424	-0.0827783648	-0.271396
C	 0.676426147	-2.1109744028	-0.0169519965	-0.219971
N	 1.0906813332	-0.7800246108	 0.0629283932	-0.289504
H	 0.7221076977	 1.8299701646	-0.4647809328	 0.253545
H	-0.8905805456	 1.7752885076	-0.0697593961	 0.267531
H	-3.0188590083	-1.9878471157	 0.5580549815	 0.121199
H	 1.3590591039	-2.9405459814	 0.0077262501	 0.141316
H	 2.0269500119	-0.4632448251	 0.2470935701	 0.269167
