17
gdb 94386	2.95689	1.49781	1.26952	0.5892	67.33	-0.2449	0.0621	0.307	1019.5963	0.134988	-458.891652	-458.883846	-458.882902	-458.924244	29.849	
O	 0.2220986297	 1.185054794	-0.3499446343	-0.422432
C	 0.0845770254	-0.1483484948	 0.0646452234	 0.006891
C	 0.0000757608	-0.31831153	 1.5882959972	-0.102817
O	-1.2357779778	-1.066725211	 1.4668056971	-0.331384
C	-1.325998906	-0.7764640155	 0.0670271793	 0.425832
C	-2.5949416072	 0.0067180779	-0.4088171088	-0.330803
C	-2.8619848051	-1.1355249866	-1.3963493726	 0.039635
O	-1.6738812099	-1.2848510077	-2.1936379754	-0.255684
C	-1.7147818492	-1.9085780749	-0.899005235	-0.083019
H	 0.2063401824	 1.1944007784	-1.3130768075	 0.293399
H	 0.8277633484	-0.8020235527	-0.4098241907	 0.082484
H	 0.785638804	-0.9010199319	 2.0789068789	 0.109173
H	-0.1443204842	 0.6333114964	 2.112596348	 0.11576
H	-3.321717361	 0.0426357944	 0.4068286635	 0.12424
H	-2.4477465033	 1.0025834215	-0.8318870145	 0.110465
H	-3.7943325882	-1.4654929658	-1.8386494678	 0.109633
H	-1.5269096888	-2.9740974817	-0.8348888506	 0.108627
