19
gdb 57692	3.10218	0.82073	0.75586	2.68	82.47	-0.2628	0.0278	0.2906	1546.8747	0.15707	-382.050081	-382.039665	-382.038721	-382.085543	38.005	
C	 0.1382763858	 1.5657286542	 0.018181072	-0.403533
C	 0.0220459576	 0.0307022242	 0.021531349	 0.070064
N	 0.7003236272	-0.4881823652	 1.2168404503	-0.510175
C	-1.4505748798	-0.4528903275	 0.0277803843	-0.179808
C	-2.2573684812	 0.0223982661	 1.2537175767	-0.376244
C	-3.5797866784	-0.5881195052	 1.2997633526	 0.284114
C	-4.6640688923	-1.1063857127	 1.3144643507	-0.42507
C	 0.6524354733	-0.487598882	-1.2210282184	 0.249117
N	 1.1693671779	-0.9150954531	-2.1632136442	-0.33937
H	 1.1837530469	 1.870261916	-0.0853275904	 0.132119
H	-0.4233002218	 1.9971513956	-0.8139216629	 0.138055
H	-0.2427574599	 1.9655012534	 0.9598260283	 0.140799
H	 0.7334266178	-1.5036835818	 1.1878671699	 0.243174
H	 1.6640669579	-0.1672387806	 1.2387537772	 0.241435
H	-1.9388060564	-0.1200590374	-0.8929173886	 0.128607
H	-1.4549281924	-1.5479186362	 0.0020071881	 0.123817
H	-1.697621788	-0.21754623	 2.1640433715	 0.153764
H	-2.3656614775	 1.1131675886	 1.2348398546	 0.132938
H	-5.6251411766	-1.5568160567	 1.3400032693	 0.196196
