19
gdb 108807	3.21711	1.11692	0.87363	2.987	77.69	-0.2396	-0.0063	0.2333	1353.1851	0.159172	-419.278917	-419.269605	-419.268661	-419.313423	33.775	
C	 0.0954723797	 1.5431153121	 0.0013650174	-0.366415
C	-0.0249748834	 0.0198415648	 0.0373371278	-0.298268
C	-1.4421434312	-0.4675980633	 0.0185445183	 0.388314
N	-2.4881515453	 0.2680866481	-0.0111812736	-0.297258
C	-3.6468265694	-0.6340354455	-0.0213463528	-0.103573
C	-4.5702417333	-0.3993304742	-1.2184891217	-0.383434
C	-3.0705160051	-2.0602151315	-0.0025351412	 0.410344
O	-3.6356320577	-3.1261485764	-0.0255968613	-0.370868
N	-1.6994323673	-1.8439850621	 0.0372004986	-0.383603
H	 1.1473786502	 1.8406273543	 0.0180581784	 0.110915
H	-0.3690454287	 1.9490384578	-0.9000912507	 0.136939
H	-0.4097515978	 1.9932229735	 0.8587891224	 0.137868
H	 0.5044519953	-0.4305280459	-0.8138962531	 0.12196
H	 0.4646883015	-0.3855330707	 0.9336724444	 0.123642
H	-4.2185120423	-0.4865989646	 0.9045597944	 0.121082
H	-4.0192866739	-0.5061927413	-2.1575545256	 0.122584
H	-5.3825110531	-1.1307325886	-1.2067522636	 0.138034
H	-4.9890011616	 0.6087984936	-1.1794091982	 0.12955
H	-1.0146090565	-2.5828528	 0.03240526	 0.262189
