21
gdb 83261	1.8682	1.77946	1.50337	1.1112	77.08	-0.2311	0.0753	0.3064	1066.6846	0.181966	-424.213838	-424.204568	-424.203624	-424.247323	35.28	
C	-0.6507016171	 1.2964125659	 0.114424285	-0.415206
C	 0.0683066865	-0.046932149	-0.0453015348	-0.04576
C	 1.1057289501	-0.0536844993	-1.1926812349	-0.101481
O	 2.2593510407	-0.790813675	-0.752361387	-0.279013
C	 2.1669802258	-1.031739765	 0.6293911139	-0.01275
C	 2.1731303306	 0.2076638905	 1.4892285691	 0.029658
O	 2.5061372503	 1.4328211134	 0.9037079319	-0.428919
C	 0.8634290571	-0.5119842496	 1.1760800689	 0.253291
C	 0.1168795192	-1.1906609316	 2.3001515144	-0.486094
H	 0.0693394583	 2.0883523481	 0.3337033615	 0.145576
H	-1.195750739	 1.5615041116	-0.7982385624	 0.10958
H	-1.3799541868	 1.2568882603	 0.9299094119	 0.113162
H	-0.6809420243	-0.8253883208	-0.241273853	 0.072941
H	 0.7285088754	-0.5338577855	-2.1019711319	 0.104719
H	 1.40413374	 0.9705194674	-1.4434463096	 0.098785
H	 2.6449277749	-1.9593830131	 0.9272314309	 0.096766
H	 2.5229399323	 0.1103001608	 2.5165481301	 0.088945
H	 3.1184335324	 1.2379745817	 0.1835293585	 0.297103
H	-0.5934832757	-0.5054330994	 2.7771324264	 0.123795
H	-0.446648961	-2.0571271569	 1.9343972041	 0.117827
H	 0.8011399904	-1.5441264546	 3.0778722769	 0.117076
