20
gdb 52960	5.50466	0.7628	0.72394	1.5564	91.75	-0.2276	0.0416	0.2692	1652.2451	0.16982	-365.954431	-365.944792	-365.943848	-365.990561	34.923	
C	-0.0469403482	 1.5068270502	 0.0320440932	-0.508678
C	-0.0370374101	 0.0522274191	 0.0029929714	 0.23185
C	-0.0349288921	-1.1529634496	-0.006693153	-0.11421
C	-0.0026166634	-2.5772168604	-0.0673157251	 0.156665
C	 0.790408816	-3.4149424768	-1.0938691847	-0.324069
C	-0.3808931916	-4.4576721104	-1.1209636697	 0.021102
C	-0.0868794379	-5.9212398688	-0.8151130545	-0.40902
C	-1.1087998814	-3.6160924905	-0.0565739311	-0.112482
N	-0.2973303867	-3.3795905281	 1.1257372982	-0.35082
H	 0.8402856038	 1.9200873987	-0.460755326	 0.147225
H	-0.9279548605	 1.9127391627	-0.4780189386	 0.146925
H	-0.057858811	 1.8818293932	 1.0615248681	 0.151161
H	 0.9306364124	-2.9098801449	-2.0512057389	 0.114441
H	 1.7631184231	-3.7711392025	-0.7365750959	 0.094665
H	-0.9101322556	-4.380769726	-2.0760754164	 0.082413
H	 0.4169934281	-6.0430827758	 0.1506071695	 0.109607
H	-1.0089446163	-6.5117348407	-0.7846753722	 0.120522
H	 0.5653129765	-6.3573766577	-1.5793271282	 0.119603
H	-2.1804312102	-3.4742939988	 0.03248681	 0.098475
H	 0.402814265	-4.1024508028	 1.2866433437	 0.224624
