16
gdb 44868	3.44716	1.69097	1.54685	5.0262	66.92	-0.2544	0.0062	0.2605	885.295	0.127784	-437.888683	-437.882629	-437.881685	-437.918934	25.365	
O	-0.030227951	 0.0320968038	 0.0362900698	-0.340389
C	 0.0188066224	 1.2225185654	 0.0199167511	 0.47865
O	-1.097863104	 2.028419751	 0.0577510254	-0.246515
C	-0.6071966139	 3.4047964929	 0.0097207918	 0.079507
C	 0.5841849022	 3.2624225252	-0.9480520268	-0.279598
C	 1.2188552408	 2.1870258776	-0.0433666373	-0.134171
N	 1.2440329132	 2.7374820396	 1.3512307792	-0.101425
C	 1.4036176287	 4.1971207124	 1.4660042988	-0.263323
C	 0.0410276668	 3.6145092734	 1.3748685562	-0.023139
H	-1.4357551541	 4.0524412731	-0.2680144085	 0.100288
H	 0.2715976888	 2.8679327438	-1.916443891	 0.131738
H	 1.1721473299	 4.1646985169	-1.1054382366	 0.118919
H	 2.1568988708	 1.7177002526	-0.3280319385	 0.105369
H	 1.7613166038	 4.5018671888	 2.4448128797	 0.133699
H	 1.8158237174	 4.7768400345	 0.6477221494	 0.12266
H	-0.6005282717	 3.5438388389	 2.2474671672	 0.117729
