18
gdb 34140	2.71851	1.7596	1.39627	1.5317	82.59	-0.2351	0.0287	0.2638	982.6768	0.149014	-364.723956	-364.716768	-364.715823	-364.755321	29.456	
C	 0.0044768799	-1.1506985713	-0.0332093967	-0.362383
C	-0.0189255381	 0.0510789743	 0.0175055889	 0.083102
C	-0.0180399038	 1.4832958086	 0.0720486461	 0.254856
C	-0.6688789177	 2.4288276409	 1.107082616	-0.277236
C	-0.0684810255	 3.317504438	 0.005624251	-0.053407
C	 1.221999417	 2.4463748676	-0.032373112	-0.044704
C	 1.7132490697	 2.3971863258	-1.4708372838	-0.263305
C	 0.3222250337	 2.3377220782	-2.163100936	-0.169684
N	-0.6428223612	 2.3582938819	-1.0373773401	-0.15112
H	 0.0156321499	-2.211846045	-0.0740894168	 0.182982
H	-1.7574149361	 2.391674678	 1.1564552821	 0.114563
H	-0.1991044154	 2.4679848541	 2.0908569062	 0.100552
H	-0.1522658512	 4.3975350212	-0.1221460107	 0.082367
H	 1.9480734325	 2.4846911467	 0.7825201181	 0.072689
H	 2.2948225729	 3.2833414094	-1.7429909819	 0.100884
H	 2.3284364966	 1.5147073431	-1.6696167839	 0.109783
H	 0.1270582744	 3.1940726086	-2.8148827153	 0.105296
H	 0.1719119623	 1.42472476	-2.7451547312	 0.114764
