18
gdb 78979	3.28596	1.87163	1.73825	2.1161	72.13	-0.2271	0.0641	0.2912	852.3181	0.151589	-401.910654	-401.904519	-401.903575	-401.940736	26.602	
O	-0.0153648385	 1.4286374397	 0.1212011258	-0.445553
C	 0.0272315118	 0.0235364452	-0.0171541364	 0.155981
C	-1.3584007986	-0.562436853	-0.2771850333	-0.011617
C	-1.5897734134	-0.4701274223	-1.8394717478	-0.069119
C	-0.2927905326	 0.1534971494	-2.3864712941	-0.213313
C	 0.6299521055	-0.5224438105	-1.3452539299	-0.12003
C	 0.092550242	-1.9739279095	-1.30747887	-0.051828
C	-1.2954413403	-1.9799462691	-1.8392598595	-0.034513
N	-1.0858313489	-2.0477747185	-0.362791289	-0.162509
H	 0.886043425	 1.7473156574	 0.2314562527	 0.284886
H	 0.4808571498	-0.4560006007	 0.8613777852	 0.077031
H	-2.1630568787	-0.3000314995	 0.4058920456	 0.079761
H	-2.5461191151	-0.1091194843	-2.2091298943	 0.072139
H	-0.084681907	-0.1686362106	-3.4112839938	 0.09201
H	-0.2642289937	 1.2432522247	-2.3239010941	 0.10751
H	 1.7072021564	-0.4215910264	-1.4779603026	 0.057622
H	 0.7316920776	-2.8472295712	-1.3194579083	 0.093338
H	-1.7654286112	-2.7795225708	-2.4012094463	 0.088205
