18
gdb 79146	2.54452	1.80099	1.28746	2.3454	70.01	-0.2293	0.0635	0.2927	994.7734	0.14889	-439.031022	-439.023456	-439.022512	-439.062735	30.274	
O	-0.0363997544	 1.384903221	 0.0148917894	-0.447735
C	 0.024161483	-0.0265668353	 0.0200328594	 0.12087
C	-1.4109055431	-0.5569173298	-0.0530670743	-0.051962
C	-1.2633008582	-0.8665310874	-1.5078000282	-0.06601
C	 0.268748478	-0.6461119779	-1.3990426867	-0.110922
C	 0.8411597966	-2.0550696699	-1.2661502447	 0.110513
O	 2.1180862269	-1.9987311117	-0.6481549535	-0.437921
C	-0.2616681437	-2.7580594484	-0.4205371641	-0.204448
N	-1.4858513089	-1.9413331829	-0.5429993391	-0.106578
H	 0.866369053	 1.7165698566	-0.0258152018	 0.2849
H	 0.6707398487	-0.393750176	 0.8262844853	 0.077267
H	-2.2537621847	-0.1651145572	 0.5055623361	 0.096869
H	-1.9267067828	-0.7245972549	-2.351841592	 0.093043
H	 0.7754117151	 0.006729597	-2.1087357842	 0.073125
H	 0.9185883129	-2.5288824264	-2.2572428424	 0.068113
H	 2.4637190133	-2.8942468839	-0.5864984812	 0.287094
H	-0.485815729	-3.7648639676	-0.7865837544	 0.102869
H	 0.0539276675	-2.8380322254	 0.6248310764	 0.110912
