21
gdb 38779	2.75075	1.88304	1.57008	0.3843	83.77	-0.2406	0.078	0.3187	956.2128	0.187071	-349.92061	-349.913953	-349.913009	-349.951122	29.152	
C	 0.0213072604	 1.54389172	-0.1840220352	-0.309661
C	 1.3234481161	 0.7841197164	-0.0730660134	-0.017911
C	 2.2339016847	 0.8195576741	 1.1474955902	-0.240853
C	 1.5897253179	 0.3545042377	 2.4639173407	-0.014616
C	 0.3628281282	 1.1638697968	 3.0070257037	-0.250257
C	-0.5419002426	-0.0296542753	 2.6999124656	-0.080437
C	-0.3553166419	-0.6268612741	 1.3184299073	-0.017427
C	 0.0051990576	 0.0462312909	 0.0175882702	-0.032812
C	 0.6804331662	-0.8933992825	 2.3734812919	-0.093209
H	-0.3046441818	 2.1808781387	 0.6267580044	 0.11646
H	-0.2499751561	 1.9178363801	-1.1660594523	 0.101711
H	 1.864011796	 0.6747142923	-1.0088784432	 0.078222
H	 3.0902686494	 0.1632161981	 0.9429484251	 0.094532
H	 2.6508486527	 1.8257591012	 1.2880121645	 0.095583
H	 2.369181494	 0.2566120247	 3.2225663914	 0.069515
H	 0.4540082286	 1.3023675587	 4.0881936237	 0.097412
H	 0.1354652976	 2.136925855	 2.5654013794	 0.092968
H	-1.4144728657	-0.301045349	 3.2837801706	 0.078401
H	-1.03643366	-1.4628273797	 1.1792377334	 0.080802
H	-0.2775328326	-0.5419396868	-0.850429282	 0.075253
H	 0.9406657415	-1.8864572276	 2.7202024342	 0.076323
