21
gdb 108622	2.37939	1.37233	1.02165	1.8311	85.49	-0.219	0.018	0.237	1247.8463	0.182867	-387.092658	-387.083639	-387.082695	-387.126377	34.545	
C	 0.2081026174	 1.5135544424	 0.1166721923	-0.507145
C	 0.0703563247	 0.027070636	-0.0060941448	 0.222984
C	-0.1579657433	-0.7131074367	-1.1059709682	 0.160626
C	-0.2632089025	-0.2534597511	-2.5271888203	-0.166987
O	 0.7694116332	-0.7986563528	-3.3540533662	-0.415667
C	-0.2625752876	-2.1943088033	-0.7776443537	-0.307561
C	 0.0588452907	-2.2689945776	 0.7118395825	-0.039903
C	 1.4081570474	-1.7858214595	 1.1718204092	-0.277464
C	 0.2194930541	-0.8420114161	 1.2034950044	-0.113631
H	 1.1802767048	 1.7812481704	 0.5495099171	 0.128203
H	 0.1066120267	 2.0300679909	-0.8405518936	 0.124213
H	-0.5535666708	 1.9182830031	 0.7955431298	 0.128492
H	-1.1965865115	-0.6147425388	-2.9766894299	 0.108655
H	-0.278802585	 0.8439353819	-2.5890733207	 0.087823
H	 1.6085797516	-0.551144925	-2.9514340428	 0.276637
H	-1.2754499439	-2.5668363808	-0.9880432131	 0.100815
H	 0.4174030556	-2.7941701583	-1.3941296514	 0.116136
H	-0.4443209995	-3.011448669	 1.3197666846	 0.083803
H	 1.7710371296	-2.1685264258	 2.1203615059	 0.107492
H	 2.1823163667	-1.5990192353	 0.4334262103	 0.102327
H	-0.1549485085	-0.5009367046	 2.1634674085	 0.080151
