23
gdb 112705	3.01015	1.05867	0.90204	2.897	81.51	-0.2435	0.0734	0.3169	1394.3066	0.205741	-425.441974	-425.432164	-425.431219	-425.476977	37.077	
C	-0.7522158196	 1.2869994228	 0.0203965929	-0.417627
C	 0.013489476	-0.0333428011	-0.0336863448	 0.015122
C	 1.0510680936	-0.1449507453	-1.1638728985	-0.267074
C	 1.9310664399	-1.3075263816	-0.6976233374	 0.117911
C	 3.4111968968	-1.1940178541	-1.0462010679	-0.063468
O	 4.1623554364	-2.2254260392	-0.4407623776	-0.424678
O	 1.8252292736	-1.3396141093	 0.737669236	-0.306103
C	 0.8610869955	-0.3885592417	 1.2103633865	 0.128471
C	 1.5715753205	 0.7831868353	 1.8885660702	-0.397521
H	-0.0758003742	 2.1424553575	 0.1116497044	 0.120285
H	-1.3434735537	 1.4270982057	-0.89013154	 0.117607
H	-1.4440749144	 1.3134032229	 0.8691430852	 0.117335
H	-0.7095377064	-0.8485591315	-0.1656426541	 0.080862
H	 0.5969102572	-0.3292341948	-2.1405159879	 0.10575
H	 1.6376776995	 0.7794801268	-1.2392335612	 0.099343
H	 1.5531283238	-2.2662757947	-1.0818197221	 0.076427
H	 3.5531175273	-1.2829696645	-2.1293672819	 0.101917
H	 3.7729500169	-0.197798307	-0.7389750785	 0.077576
H	 3.8894634608	-2.22982705	 0.4850762348	 0.289286
H	 0.2453078167	-0.9032820158	 1.9589245673	 0.076918
H	 2.1535879841	 1.3750519908	 1.1747758116	 0.115023
H	 0.8556280268	 1.4465342151	 2.384225733	 0.113914
H	 2.260215163	 0.3992269135	 2.6462772099	 0.122723
