16
gdb 34390	2.65659	1.63179	1.31809	4.9205	73.96	-0.2667	-0.0231	0.2435	996.3953	0.125761	-400.750952	-400.743621	-400.742677	-400.782937	27.953	
N	-0.0464183361	-1.1249012741	-0.2252980843	-0.337443
C	-0.039278893	 0.0251728556	-0.1106805758	 0.23704
C	-0.0122734897	 1.4784456043	 0.059731178	 0.288749
O	-0.3683153774	 2.1625642363	-1.1674476132	-0.312913
C	 0.8387446032	 2.9624165592	-1.1177658017	-0.088695
C	 1.3651784066	 2.213565974	 0.1261421452	-0.131546
C	 1.401452125	 2.9699565413	 1.4651150251	-0.286805
C	 0.0048426631	 2.7847960586	 2.0120132212	-0.060756
C	-0.7529959002	 1.9704492695	 1.2781086339	-0.128418
H	 1.4289047368	 2.8470803392	-2.0323534244	 0.120387
H	 0.6166686226	 4.0247822051	-0.9595281623	 0.109656
H	 2.2426881028	 1.5969889649	-0.0602575457	 0.108207
H	 2.153977524	 2.5601797766	 2.1499898125	 0.125304
H	 1.6529355943	 4.0296254657	 1.3310831301	 0.119451
H	-0.3253503415	 3.2754848145	 2.9213045629	 0.114691
H	-1.7776024305	 1.6854984691	 1.4800477484	 0.123091
