20
gdb 63823	3.09857	1.5016	1.33691	1.3818	77.9	-0.2241	0.0749	0.299	1034.9813	0.170898	-403.076787	-403.068779	-403.067834	-403.108597	32.965	
C	-0.2520747746	 1.609748007	-0.0423694784	-0.458614
C	 0.013257859	 0.1144039705	-0.0032036725	 0.408692
O	-1.2030078275	-0.6191118553	-0.1473253281	-0.485226
C	 1.1445933779	-0.4678401264	-0.9293943337	-0.302458
C	 1.7619435953	-1.2104186548	 0.2927465922	-0.022905
C	 2.8928168279	-0.5007439562	 1.0768230711	-0.06168
N	 2.6817676031	 0.9573471842	 0.9394242679	-0.331441
C	 1.8945337192	 0.1926521239	 1.9432361779	-0.078691
C	 0.7246168662	-0.5218332318	 1.2311996454	-0.038735
H	 0.6717499782	 2.172659925	 0.0971976539	 0.143189
H	-0.6837309479	 1.8924356923	-1.0119213968	 0.094959
H	-0.9689272092	 1.8875784148	 0.7373023688	 0.112132
H	-1.5911818729	-0.3696299042	-0.9935641125	 0.269695
H	 0.7459632816	-1.1328890481	-1.6992480976	 0.086749
H	 1.7987897876	 0.2800165364	-1.3793876017	 0.109589
H	 1.8398949492	-2.2956279877	 0.2486030275	 0.070579
H	 3.877347746	-0.8893652781	 1.3091577794	 0.089347
H	 3.4344869122	 1.4179968762	 1.4494672926	 0.229435
H	 1.9435630295	 0.4719007873	 2.9890256803	 0.089984
H	 0.0781170291	-1.103400375	 1.8874006145	 0.075399
