16
gdb 65855	3.5144	1.10588	1.07235	4.7203	71.33	-0.2432	0.022	0.2652	1158.2395	0.123246	-437.890783	-437.882132	-437.881188	-437.924034	32.677	
O	-0.0882938486	 1.4047049654	 0.0167509257	-0.450092
C	-0.0116478928	-0.0189622048	-0.0062591786	 0.174363
C	 0.5834029953	-0.5518484802	 1.3386305377	-0.193885
N	-0.5808481105	-0.6284941907	 2.1910591973	-0.306668
C	-1.7852817803	-0.6422713766	 1.5384005959	 0.400128
O	-2.8742787283	-0.7605671012	 2.0504119803	-0.37675
C	-1.4701418499	-0.5127899374	 0.0450191844	-0.34747
C	 0.7523302362	-0.4823504835	-1.1641328253	 0.280924
C	 1.4072875796	-0.8332956922	-2.1089780384	-0.449482
H	 0.8003222684	 1.7519616412	-0.1187884064	 0.285645
H	 1.06618206	-1.5274177502	 1.1939519826	 0.117718
H	 1.330498219	 0.1517668328	 1.7199624501	 0.114124
H	-0.53729724	-0.7741584848	 3.1866544822	 0.254969
H	-2.1419733424	 0.1890722623	-0.4483710671	 0.152542
H	-1.5784181626	-1.4941261321	-0.4249117361	 0.139575
H	 1.973684797	-1.1480686381	-2.9509284041	 0.204361
