18
gdb 112530	2.91994	1.05116	0.92898	3.0106	72.59	-0.252	0.0073	0.2594	1291.9965	0.148826	-435.238316	-435.229036	-435.228092	-435.273381	33.684	
N	 0.1936272316	 1.4474533732	 0.2141135876	-0.498126
C	 0.0922187645	 0.0183202781	 0.0761454108	-0.020668
C	-1.3527646777	-0.5683685317	 0.0915650287	 0.023811
C	-2.5382110165	 0.3225150612	 0.4416855137	-0.063659
O	-3.73941497	-0.2696005554	-0.0253849524	-0.423291
N	-1.2582494071	-0.8380510518	-1.3699581995	-0.333455
C	 0.2079367021	-0.6457158552	-1.364928933	-0.168114
C	 0.7247123527	 0.2074548994	-2.4313863091	 0.297595
N	 1.1483877807	 0.9247156722	-3.2332762405	-0.32518
H	 1.1650268776	 1.7405737952	 0.2089791194	 0.244191
H	-0.2603778286	 1.9320416727	-0.5539431773	 0.248586
H	 0.7662982186	-0.4449748603	 0.797699685	 0.100321
H	-1.4061687878	-1.4865797477	 0.69104688	 0.079419
H	-2.6325990146	 0.4258048197	 1.5267519787	 0.116317
H	-2.4023704486	 1.3284743311	 0.023266367	 0.089658
H	-3.6697623775	-0.2884214841	-0.9871970548	 0.287575
H	-1.5550484118	-1.7600744094	-1.668193399	 0.232998
H	 0.7928957825	-1.5740648271	-1.3395436352	 0.11202
