15
gdb 46456	3.97878	1.19165	1.07105	3.7831	73.13	-0.2347	0.005	0.2397	1107.6537	0.113458	-416.785702	-416.777952	-416.777008	-416.81791	29.697	
O	 0.0128331802	-0.0443830784	 0.0011565365	-0.38273
C	 0.010141527	 1.1653971825	 0.023958799	 0.478809
N	-1.083624583	 1.9817559379	 0.1456388652	-0.333707
C	-0.8419965802	 3.4089687257	 0.0252308314	-0.219581
C	 0.6840414571	 3.4900300401	-0.0928875338	 0.184503
N	 1.3473900816	 2.9393405966	 1.1147141695	-0.359143
C	 1.2062139107	 2.0886308153	-0.086957614	-0.246409
C	 1.2882333642	 4.5572591577	-0.8266236747	 0.170873
C	 1.7833094982	 5.4731654553	-1.4289256394	-0.374366
H	-1.9939082309	 1.5904806831	 0.32528544	 0.257574
H	-1.3154289014	 3.8278165312	-0.8706843014	 0.123992
H	-1.1942560165	 3.9623650732	 0.9028140324	 0.129899
H	 2.3010740894	 3.2972609231	 1.1452497302	 0.246403
H	 2.0777168156	 1.7703695642	-0.6442624979	 0.125499
H	 2.2254507679	 6.2757110925	-1.9661413331	 0.198383
