15
gdb 48581	4.12292	1.25532	1.12863	2.258	65.48	-0.2707	-0.0556	0.2151	1049.2139	0.112508	-457.783336	-457.776006	-457.775061	-457.816257	27.275	
O	-0.343500584	 0.3515670928	-0.5841226007	-0.249618
C	 0.086507858	 1.1068652126	 0.2490005941	 0.057302
C	 1.3416199991	 1.9001512412	 0.0320311686	 0.348388
C	 2.7205333222	 1.2743396961	-0.3128021951	-0.267415
C	 3.0380020642	 2.7779933727	-0.6252974191	-0.205053
C	 1.5672611821	 2.8667738224	-1.1623833453	-0.267407
C	 2.8200710678	 3.3623694325	 0.7658927067	 0.459951
O	 3.426226445	 4.1506696673	 1.4205680728	-0.338322
O	 1.6551766628	 2.7394489782	 1.1795799437	-0.293485
H	-0.4112528131	 1.2681481241	 1.2278377858	 0.110612
H	 3.2570447239	 0.7859243203	 0.5025985162	 0.129728
H	 2.686763506	 0.6497499883	-1.2054443401	 0.137724
H	 3.9123370641	 3.1200383605	-1.1710436257	 0.11014
H	 1.4342921255	 2.3791563966	-2.1281009467	 0.137727
H	 1.0533595866	 3.8287759944	-1.1208003352	 0.129728
