17
gdb 93188	2.9229	1.45279	1.01262	4.757	72.46	-0.2591	-0.0413	0.2178	1151.7186	0.136913	-455.165194	-455.15697	-455.156026	-455.198352	30.684	
C	-0.2643065078	 1.4324781604	 0.0480044677	-0.40703
C	-0.0096791805	-0.0576917651	-0.1009596849	 0.100482
C	 1.0183284648	-0.3891151346	-1.1621849466	-0.093633
O	 1.2030698547	-1.8063627244	-1.24789032	-0.250713
C	 1.251504414	-2.5071247775	-0.0865650758	 0.306983
N	 1.5173452192	-3.7443187276	-0.0570374185	-0.512722
C	 0.9766347031	-1.7896584632	 1.2201700767	 0.325557
N	 1.2181241063	-2.2891390473	 2.3539948034	-0.477369
O	 0.4698375387	-0.5319777939	 1.1633664494	-0.244533
H	 0.6668185637	 1.9641809579	 0.2645113883	 0.135991
H	-0.7009282974	 1.840030509	-0.8682245241	 0.125876
H	-0.9579799204	 1.6086782713	 0.8730964856	 0.147331
H	-0.9469475161	-0.5800282151	-0.3428566622	 0.102085
H	 0.6901209303	-0.0699838191	-2.1538983518	 0.13101
H	 1.9742123484	 0.0977039791	-0.92864152	 0.125879
H	 1.6986869741	-4.0960105019	-0.9982750235	 0.232325
H	 1.6041810048	-3.224125348	 2.2156559062	 0.252481
