20
gdb 17841	3.60591	1.50613	1.34725	1.5655	74.4	-0.2442	0.0779	0.3221	1017.1013	0.176976	-348.972067	-348.963718	-348.962773	-349.005154	31.71	
C	 0.006946052	 1.4737867769	-0.0960024864	-0.397749
C	 0.0396588959	-0.0410762058	 0.1207546436	 0.118525
O	 0.6841658914	-0.3739960446	 1.351924011	-0.43425
C	-1.3496436583	-0.6458550652	 0.0411493031	-0.01778
C	-1.9969842566	-1.2248807349	-1.1925208895	-0.074861
C	-0.990005959	-1.9853703637	-2.0673959248	-0.230197
C	-0.6193296763	-2.8819286619	-0.8406811996	-0.230847
C	-1.64727261	-2.1192472785	 0.0059651012	-0.072946
H	 1.0141869286	 1.8919091566	-0.0192467668	 0.120169
H	-0.4033333268	 1.7202331332	-1.0809361892	 0.117232
H	-0.6227232952	 1.9602818928	 0.6595836906	 0.102257
H	 0.6842074247	-0.4870194679	-0.6426055343	 0.086656
H	 0.0945243982	-0.1139495031	 2.0680834099	 0.272938
H	-2.0726114359	-0.1011263502	 0.651249217	 0.071693
H	-2.9685368132	-0.8800198224	-1.5274708396	 0.080082
H	-1.4829160953	-2.5606141568	-2.8542709516	 0.101774
H	-0.1886179743	-1.3984903341	-2.5280125509	 0.096727
H	-0.8949732853	-3.9262665855	-1.0005559874	 0.099575
H	 0.4139392609	-2.8465206895	-0.4837268899	 0.111529
H	-2.3120133856	-2.5730068355	 0.7317803035	 0.079473
