19
gdb 87687	2.54766	1.3231	1.06768	1.4425	78.45	-0.2414	-0.0268	0.2146	1217.5866	0.156503	-423.02085	-423.011491	-423.010547	-423.055168	34.186	
C	 0.0198649362	 1.4737899467	-0.3037599649	-0.40198
C	 0.1853899545	-0.0264980646	-0.2172849738	-0.075977
C	 1.5558063984	-0.6456676752	-0.0797397237	-0.358804
C	 0.6146730373	-0.6397818972	 1.0929670004	 0.321713
O	 0.8370331908	 0.1166500197	 2.2867561246	-0.33666
C	 0.2732649885	-0.9282112685	 3.1352689018	 0.032606
C	-0.9302464576	-0.4750590372	 3.9384889388	-0.403918
C	 0.0158491426	-1.7686985292	 1.8677714313	 0.265754
O	-0.4651715472	-2.8351722383	 1.6189689953	-0.306216
H	 0.7244423883	 1.9828371321	 0.3590744565	 0.135877
H	 0.1904904268	 1.8262379677	-1.3262600313	 0.122892
H	-0.9899384452	 1.7739723878	-0.0063670022	 0.124278
H	-0.5459636138	-0.6152748602	-0.7661062868	 0.107978
H	 1.7636428958	-1.5980479031	-0.5561491189	 0.132435
H	 2.4025185812	 0.0287343766	 0.0027743965	 0.131719
H	 1.049548815	-1.3584901136	 3.7813537477	 0.10962
H	-1.7042677659	-0.0636002021	 3.2846912675	 0.128544
H	-1.3499531825	-1.3234537885	 4.4879658071	 0.135862
H	-0.6386787432	 0.294936487	 4.6586588439	 0.134278
