17
gdb 106022	2.66666	1.58222	1.23839	3.4183	71.64	-0.2266	-0.003	0.2235	1051.3048	0.134818	-421.775223	-421.767261	-421.766317	-421.808203	29.963	
C	 0.0734768485	 1.5116757687	 0.2214335501	-0.379667
C	-0.042125292	 0.0151414305	-0.1040204803	-0.31367
C	-1.4620304445	-0.463409145	-0.0538049728	 0.159273
C	-2.2001100005	-0.9713946646	 1.1879893132	 0.053435
O	-3.6073344397	-0.7717686591	 1.0189393156	-0.28968
C	-3.4319997059	-1.290612221	-0.3294013398	-0.080019
C	-2.0508407619	-1.9256826901	 0.0675583793	-0.199377
C	-2.5747492052	-0.2031093364	-1.0249253117	 0.423733
O	-2.6478774396	 0.3943261961	-2.0619000721	-0.341093
H	 1.114671398	 1.8415712779	 0.1634939126	 0.116737
H	-0.5118188388	 2.1045623178	-0.4870609316	 0.145376
H	-0.296165052	 1.7274986752	 1.2289105958	 0.119643
H	 0.3618102177	-0.1744420728	-1.1058750837	 0.119874
H	 0.5686669792	-0.5706712552	 0.5942808555	 0.103198
H	-1.7745430667	-0.9382660013	 2.1832404867	 0.12483
H	-4.3108279162	-1.758117511	-0.7638899986	 0.108341
H	-1.5636862105	-2.8733697998	-0.1070696382	 0.129065
