20
gdb 78743	2.74138	1.6293	1.45247	1.5749	77.66	-0.2334	0.0625	0.2958	1012.3219	0.172473	-403.125902	-403.117951	-403.117006	-403.157803	31.905	
C	 0.0084708422	 1.4419148415	 0.0565141733	-0.484925
C	 0.0364738328	-0.0644116784	-0.0288987896	 0.351193
C	-0.0394258621	-0.7182304254	-1.4092965072	-0.292254
C	-0.8049401509	-2.0366064321	-1.1451486165	-0.203134
C	-0.7239392487	-2.1790750105	 0.3698778847	-0.05746
C	 0.7468320919	-2.2934746555	 0.8734290993	 0.106856
O	 1.7616106949	-2.7684352279	 0.012409149	-0.432832
C	 0.7060925222	-0.7985480324	 1.0795722846	-0.100144
N	-0.8180522296	-0.7734992611	 0.9546980619	-0.185983
H	 0.8890218218	 1.8735186784	-0.4318212039	 0.118801
H	-0.883583309	 1.8384006236	-0.4398960509	 0.120688
H	-0.006948229	 1.7771380645	 1.0970218204	 0.125775
H	-0.574538916	-0.0674608917	-2.1077710266	 0.096032
H	 0.9569800757	-0.9016442653	-1.8175658211	 0.121037
H	-1.8503011401	-1.9570461714	-1.4590499107	 0.102043
H	-0.3587032965	-2.8930491322	-1.6573348129	 0.099187
H	-1.4446638142	-2.8676597814	 0.8122028236	 0.068908
H	 0.7819887604	-2.8051647205	 1.8432580705	 0.079325
H	 1.8028028702	-3.7269387907	 0.0865879212	 0.284428
H	 1.2183253139	-0.2673451014	 1.8773061212	 0.082459
