18
gdb 91589	2.7168	1.50188	1.15615	4.5589	73.23	-0.2448	0.0149	0.2597	1083.6809	0.147983	-439.079486	-439.071157	-439.070213	-439.112557	31.772	
O	 0.0088174193	 1.416209395	-0.0129216099	-0.443083
C	-0.0160998706	 0.021018488	 0.0505097758	 0.102584
C	 0.2496768228	-0.6057712441	 1.4552383122	-0.248249
C	-1.1046123569	-1.3258336319	 1.3631411204	-0.147629
C	-2.1944440574	-0.2880018729	 1.2374288081	-0.308723
C	-1.3882109862	-0.6621678972	 0.0231888582	 0.383019
N	-1.9661547412	-1.1625720519	-1.1830643971	-0.388881
C	-2.0532544842	-0.3837265386	-2.288294772	 0.133091
O	-1.6382957637	 0.7598990407	-2.3687054363	-0.333015
H	-0.4645366673	 1.6372308776	-0.8304863519	 0.297205
H	 0.6377616817	-0.4383698583	-0.7053290456	 0.068856
H	 1.1175598096	-1.2672649575	 1.4658424333	 0.104969
H	 0.3336633038	 0.1180998698	 2.2698312288	 0.112427
H	-1.3098702335	-2.3421089415	 1.6786094129	 0.089713
H	-3.2088804189	-0.6740729629	 1.2366648114	 0.107524
H	-2.0749004041	 0.6928047571	 1.6895005463	 0.129025
H	-2.3340542528	-2.1006040602	-1.2200675686	 0.253587
H	-2.5373496802	-0.902259871	-3.1365814461	 0.08758
