15
gdb 20604	3.29885	2.03436	1.27187	2.7097	64.04	-0.1994	0.043	0.2424	909.7159	0.119779	-396.005475	-395.997194	-395.99625	-396.037906	29.97	
C	-0.0216693791	 1.5767782838	-0.0063801637	-0.523291
C	-0.0207523391	 0.0814550678	-0.0187504919	 0.068891
C	 0.0054675117	-0.7821444584	-1.1009548493	 0.307396
N	-0.0571074813	-0.5439545083	-2.4766457561	-0.607905
N	 0.0558530426	-2.0464002429	-0.6124557682	-0.266042
N	 0.0277157102	-2.0797490445	 0.7593341779	-0.351799
C	-0.0106563408	-0.8031091641	 1.08925328	 0.363123
O	-0.0118680857	-0.3995310503	 2.3794642611	-0.432141
H	 0.4514990411	 1.986412793	-0.9071596619	 0.104416
H	-1.031248747	 2.0026617747	 0.0528468309	 0.128545
H	 0.5362705342	 1.9556947535	 0.8551822909	 0.140247
H	-0.0665546731	 0.446421807	-2.6827134594	 0.253186
H	 0.6972631427	-0.9828202011	-2.9925787046	 0.250188
H	-0.1036946367	-2.8966088954	-1.1230689867	 0.265507
H	 0.0354705203	-1.1973122748	 2.9212056509	 0.299682
