20
gdb 118675	2.92186	0.92657	0.79434	4.3285	73.1	-0.2501	0.0047	0.2548	1475.1966	0.170111	-477.433169	-477.422994	-477.422049	-477.469651	35.888	
O	 0.2469631488	 1.4081540816	-0.4187666334	-0.412598
C	 0.1478429099	 0.0362573465	-0.0937699183	-0.062349
C	-1.2982603238	-0.3829918594	 0.1983880511	-0.195545
N	-2.1821624424	-0.2181329398	-0.9518617372	-0.038129
C	-2.0997983994	-1.1895761369	-2.0567110955	-0.20119
C	-3.4204183847	-1.9030702683	-2.4087914887	-0.042521
O	-4.2052817109	-1.2147124987	-3.3439164616	-0.423713
C	-2.9814968404	 0.8723844121	-1.0431231371	 0.142854
O	-3.7315027637	 1.1306714492	-1.9726731496	-0.363729
H	-0.1399416715	 1.5389799794	-1.2905099589	 0.294037
H	 0.5786909153	-0.6009091844	-0.8811679693	 0.099361
H	 0.746926516	-0.1140688353	 0.8105199246	 0.120859
H	-1.3285604252	-1.4272290499	 0.5316707198	 0.115659
H	-1.6812555652	 0.2355106775	 1.0151605782	 0.1318
H	-1.7355553421	-0.6947053907	-2.9651647386	 0.129736
H	-1.3548939232	-1.9313359637	-1.7567264098	 0.112459
H	-3.1669334868	-2.8686545795	-2.8629289429	 0.104909
H	-3.9622031386	-2.1183818812	-1.4710044983	 0.082213
H	-4.2620172028	-0.2963340037	-3.0299603926	 0.304239
H	-2.8928548595	 1.537279025	-0.1667921218	 0.10165
