23
gdb 78025	2.32031	1.46828	1.2511	1.319	85.34	-0.2217	0.0795	0.3012	1182.5233	0.205333	-388.29139	-388.281753	-388.280809	-388.325221	36.75	
C	 0.3176104817	 2.055266531	 0.2093094121	-0.422357
C	 0.3011923974	 0.5418585608	 0.1678293387	-0.072211
C	 0.6107536927	-0.3566933635	-1.0336624352	-0.151463
C	 1.3954900018	 0.1397789911	-2.2408875405	 0.000824
C	 0.6624845558	 1.0884950319	-3.1939951262	-0.405955
C	 2.6673519083	 0.7560322021	-1.6053531461	-0.105261
O	 2.7454509576	 0.3189108115	-0.2489268571	-0.300455
C	 1.5447516084	-0.3182222128	 0.1437532636	 0.414367
C	 1.796367891	-1.4325270326	 1.1212681708	-0.461085
H	-0.5482009471	 2.4830551305	-0.30789303	 0.115137
H	 0.2804009904	 2.3986502713	 1.2491790305	 0.116823
H	 1.2212762651	 2.477506657	-0.231266636	 0.130099
H	-0.495531519	 0.1166325497	 0.7762753776	 0.079936
H	-0.0487599465	-1.2042189889	-1.1915985192	 0.080663
H	 1.6869456169	-0.7527621167	-2.8094036429	 0.07745
H	 0.3361525774	 1.9971122876	-2.6795892756	 0.121932
H	 1.3094120443	 1.3871276261	-4.0265731292	 0.112733
H	-0.2236882535	 0.6082091555	-3.6207837958	 0.115334
H	 3.585203772	 0.4461039306	-2.118756641	 0.101567
H	 2.6256994321	 1.8530368369	-1.6439459191	 0.09472
H	 2.2821201795	-1.0508443464	 2.0257610291	 0.12571
H	 0.8563361004	-1.9074173744	 1.4157734795	 0.113277
H	 2.4504468331	-2.1941799483	 0.6839086222	 0.118213
