20
gdb 86791	3.07326	0.99059	0.84956	5.6288	79.69	-0.2594	0.035	0.2944	1409.4411	0.169747	-403.155909	-403.146216	-403.145272	-403.19143	34.921	
C	 0.2194770309	 1.4935388281	-0.2591866512	-0.404171
C	 0.0773577585	 0.0206403688	 0.0626170683	 0.159003
O	 0.8944376309	-0.8143683662	-0.7983322414	-0.303857
C	 1.3790276933	-1.5777590108	 0.3163171632	 0.149658
C	 2.9035543392	-1.7376589464	 0.2896889226	-0.364611
C	 3.3466347072	-2.6008576207	-0.803014156	 0.268829
N	 3.6929053445	-3.2945935026	-1.6594945347	-0.301859
C	 0.732605687	-0.5981363133	 1.3342912294	-0.096376
C	 1.6448081823	 0.2832635589	 2.1801914533	-0.411258
H	 1.2568916342	 1.8284556236	-0.1829845824	 0.119957
H	-0.1197439869	 1.6774526126	-1.2833361841	 0.135592
H	-0.3972065683	 2.097603669	 0.414845711	 0.119149
H	-0.9783796217	-0.2725252446	-0.0275003696	 0.078934
H	 0.92135176	-2.5764880849	 0.3396042434	 0.091599
H	 3.3815194356	-0.7597091573	 0.1825063282	 0.152809
H	 3.2437228567	-2.1729017386	 1.2369017309	 0.150942
H	 0.0086427771	-1.0927335251	 1.986730822	 0.083562
H	 2.3994863754	 0.8070843799	 1.5871102859	 0.125176
H	 1.0599680516	 1.0422054833	 2.7093528363	 0.12527
H	 2.1679155926	-0.3105498934	 2.9372174448	 0.121648
