20
gdb 76857	2.37786	1.79564	1.54336	1.5568	77.75	-0.2071	0.0568	0.2638	985.5222	0.171406	-403.065152	-403.057001	-403.056057	-403.097346	32.403	
C	-0.4529078017	 1.5584131879	-0.0271630979	-0.417149
C	-0.0300621113	 0.1003768948	 0.0048230588	 0.019988
C	 0.9757321482	-0.4809611758	-1.059208932	 0.040508
O	 1.6719871458	 0.4117904942	-1.9017000788	-0.413076
C	 1.8046274098	-1.0113792788	 0.1497933576	 0.014601
C	 2.9738796599	-0.236376093	 0.770819048	-0.078068
C	 2.7551239281	 1.2476201076	 0.7311306148	-0.296456
C	 1.9313589594	 0.4207987808	 1.6876762101	-0.022333
N	 0.8402303103	-0.4073459745	 1.128186613	-0.141862
H	 0.3808357872	 2.2498894184	-0.1457710608	 0.130955
H	-1.1561395259	 1.7274827297	-0.8505073902	 0.109218
H	-0.972491635	 1.8113367698	 0.9032448113	 0.127308
H	-0.9385791182	-0.5148991242	 0.0129116148	 0.076979
H	 0.5315825941	-1.2922335647	-1.6517052988	 0.069029
H	 1.087883312	 0.6529770917	-2.6274426094	 0.287432
H	 1.911774764	-2.0989717914	 0.1971706476	 0.072935
H	 3.9277620383	-0.6816641408	 1.0225528708	 0.088443
H	 3.5324096166	 1.8160886296	 1.235044403	 0.107185
H	 2.3589923615	 1.7175332166	-0.1570277474	 0.134911
H	 1.9589131868	 0.6034160523	 2.7565587055	 0.089454
