14
gdb 125480	5.38602	1.05348	0.88595	4.0857	74.28	-0.247	-0.0997	0.1473	1236.8584	0.100051	-432.885593	-432.877572	-432.876628	-432.919289	27.775	
C	-0.0196144042	 1.4866303661	 0.007770377	-0.457183
C	-0.0025060671	-0.0100507875	-0.0061657749	 0.401049
N	 0.1282775809	-0.6270578723	-1.1911332538	-0.269227
C	 0.1365162638	-1.9494101442	-1.1374211957	-0.042842
C	 0.0161246289	-2.6266416197	 0.0779908603	 0.225196
C	 0.0271654585	-4.119268546	 0.1225320336	 0.111734
O	-0.070484789	-4.7824095984	 1.1200616604	-0.229466
N	-0.1113499761	-1.9486248676	 1.2251234366	-0.210528
N	-0.1209702631	-0.630408418	 1.1848213804	-0.21016
H	 0.9060181026	 1.8759001071	-0.4278188798	 0.153195
H	-0.8428654671	 1.8576258085	-0.6108405898	 0.1532
H	-0.1301764117	 1.8543766222	 1.0274944253	 0.153999
H	 0.2407822449	-2.4906420132	-2.0768691301	 0.13779
H	 0.1374943287	-4.5867154269	-0.8823766796	 0.083242
