21
gdb 1132	4.06437	1.54353	1.36761	1.0249	71.72	-0.2419	0.0805	0.3224	1021.1314	0.191749	-312.131398	-312.121927	-312.120983	-312.165172	34.217	
C	 1.3997073174	 0.7855559069	-0.6413451946	-0.38545
C	 0.2949901475	-0.0451178929	 0.0043663251	 0.152431
C	-0.221639042	-1.1433721301	-0.9304757399	-0.384028
O	 0.8447561148	-0.6085382975	 1.1920679932	-0.274511
C	-0.0826174278	-0.91337392	 2.2300421249	 0.152428
C	 0.5299969594	-2.044804463	 3.0497527592	-0.385449
C	-0.3711571205	 0.3258374476	 3.0833281354	-0.384024
H	 2.2606397244	 0.1502100752	-0.8731617973	 0.122039
H	 1.0498368848	 1.2457088453	-1.570511316	 0.108559
H	 1.7327303921	 1.5747695219	 0.0378783858	 0.117159
H	-0.5415455797	 0.6222787416	 0.265132058	 0.063668
H	 0.5995261792	-1.8066512429	-1.2205778572	 0.120002
H	-0.9943507474	-1.749114553	-0.4473115814	 0.113446
H	-0.655829141	-0.7100794079	-1.8376522358	 0.109427
H	-1.0271160638	-1.2688752931	 1.7887431361	 0.063671
H	 1.491814636	-1.728652425	 3.4663618451	 0.122039
H	-0.1281292067	-2.3285204125	 3.8767201554	 0.108559
H	 0.7036036594	-2.922681454	 2.4218194002	 0.117159
H	 0.5520927326	 0.6836401559	 3.550229503	 0.120003
H	-0.7852122178	 1.1394081546	 2.4799081277	 0.113446
H	-1.093625951	 0.0950616029	 3.8732738533	 0.109426
