19
gdb 106070	2.42134	1.63939	1.36651	2.3353	74.89	-0.2392	0.0608	0.2999	1029.8996	0.159134	-422.969105	-422.960686	-422.959741	-423.002149	32.575	
O	 0.0841493249	 1.3751748783	 0.2618349892	-0.42105
C	 0.0394417467	-0.0263643316	 0.0171956007	-0.224356
C	-1.3613253959	-0.5373553286	 0.0220432845	 0.315603
C	-2.3822711467	-0.8661593583	 1.0826765222	-0.112298
C	-3.4007793017	 0.1165015581	 0.505526761	-0.296299
C	-2.6028360325	-0.0367591839	-0.8194240793	 0.323412
O	-2.4609875621	 1.0100613874	-1.7261797817	-0.488314
C	-2.8581474148	-1.5056098431	-1.2647054918	-0.292958
C	-2.0411983948	-1.88423685	-0.0268274039	-0.140056
H	-0.4596753813	 1.7887686613	-0.4189816024	 0.292235
H	 0.5303086104	-0.2711637046	-0.938847913	 0.092083
H	 0.6257919746	-0.5010049986	 0.8118758901	 0.110231
H	-2.197675495	-1.0965578581	 2.1241150784	 0.089468
H	-4.4642694944	-0.1521969897	 0.4986401328	 0.082604
H	-3.2617500922	 1.115412042	 0.927556372	 0.107843
H	-3.3338638906	 1.2991005593	-2.015154759	 0.28507
H	-3.8969470495	-1.8478574579	-1.3460645933	 0.083582
H	-2.3131328679	-1.732689101	-2.1849845655	 0.104016
H	-1.6123709572	-2.8479013512	 0.2163810389	 0.089183
