18
gdb 82257	3.13253	1.3755	1.05865	1.8089	87.22	-0.223	-0.0238	0.1992	1143.9176	0.147792	-364.76827	-364.760063	-364.759118	-364.800726	32.246	
C	-0.1022406597	 1.5480624073	 0.0196609637	-0.396476
C	 0.0194449101	 0.0196640599	-0.0023088016	-0.104691
C	 0.7999460284	-0.5289403467	-1.1971854992	-0.059086
N	 2.1971623551	-0.0556136506	-1.268944914	-0.329838
C	 1.8928882567	-1.4013689534	-0.6904723446	-0.084705
C	 1.7971739538	-1.3681882285	 0.7922385537	-0.171554
C	 0.7953213939	-0.5627028409	 1.1890072244	 0.17302
C	 0.4525531054	-0.2422330913	 2.5230202567	 0.239565
C	 0.1144849194	 0.0537813226	 3.6420031189	-0.428193
H	 0.8875729104	 2.0027508575	-0.0674256562	 0.139893
H	-0.7195991173	 1.8979514891	-0.8139677427	 0.107776
H	-0.5640922673	 1.8870428187	 0.9511628165	 0.124319
H	-0.990583171	-0.4133359124	-0.0032767976	 0.086954
H	 0.2749605299	-0.7455823238	-2.1215767897	 0.086988
H	 2.5272557661	-0.183770306	-2.2244647267	 0.228424
H	 2.2426059598	-2.2836788099	-1.2149375457	 0.091192
H	 2.4692388499	-1.8965100865	 1.4564064971	 0.105039
H	-0.1666483635	 0.306478935	 4.6340361971	 0.191373
