21
gdb 58770	3.00521	1.32364	1.27198	2.3555	77.73	-0.2459	0.0784	0.3243	1120.0639	0.183179	-424.209819	-424.201428	-424.200483	-424.242523	33.512	
C	 0.1049649951	 1.5144650503	 0.1495771539	-0.405377
C	-0.0519546042	-0.0030251638	 0.0149180824	 0.020792
O	-1.4166513216	-0.3815645698	-0.1258891615	-0.440491
C	 0.7411177713	-0.5660054644	-1.1440261256	 0.462742
C	 2.2644111518	-0.4155882988	-1.3939434062	-0.286195
C	 1.9462880963	-1.5051549367	-2.4674438584	-0.079772
C	 0.9208404889	-2.0774918047	-1.4398522427	-0.273358
C	 0.9969790213	-0.7184231615	-3.378745768	-0.077027
O	 0.1696604171	-0.0716941068	-2.3849747032	-0.335652
H	 1.1404309419	 1.7869966549	 0.3801632772	 0.110358
H	-0.1800731902	 2.0112488352	-0.7822969227	 0.127
H	-0.537959305	 1.8796669949	 0.9543167605	 0.11997
H	 0.2957019719	-0.4877800457	 0.9351600054	 0.082842
H	-1.651825007	-0.1771198655	-1.0396777175	 0.288081
H	 2.6226706995	 0.5600186743	-1.7313181918	 0.100596
H	 2.8763246332	-0.7972229215	-0.5748041262	 0.103442
H	 2.7169647251	-2.1127098722	-2.9396710399	 0.074498
H	 1.3972667647	-2.6196550405	-0.6213987825	 0.101629
H	 0.0499780943	-2.6192323126	-1.8148692291	 0.102782
H	 1.500867209	 0.0361826166	-3.9939133295	 0.101397
H	 0.3824540166	-1.3557671618	-4.0251752845	 0.101745
