20
gdb 84893	1.98176	1.7419	1.24037	3.8377	83.65	-0.2513	0.0124	0.2637	1116.1152	0.172662	-366.053706	-366.045139	-366.044195	-366.086713	32.896	
C	-0.0710627347	 1.5683567865	-0.0326461262	-0.417417
C	 0.0457688168	 0.038118586	-0.0143036838	-0.024421
C	 0.6787520304	-0.4922454227	-1.2804863676	-0.039195
C	 1.5225426555	-1.5219209671	-1.328233514	-0.05719
C	 1.940666051	-2.3158795941	-0.1192851093	-0.255129
C	 1.0570204816	-2.0138150334	 1.0978074985	-0.226964
C	 0.7914804523	-0.4968037952	 1.2399430693	-0.17055
C	 2.0501215479	 0.2198958184	 1.4785049845	 0.29544
N	 3.0461053056	 0.771784272	 1.6791801113	-0.344943
H	 0.9133421192	 2.0397662767	-0.1038912638	 0.14796
H	-0.6663744309	 1.8934042545	-0.8915122998	 0.117463
H	-0.5605939399	 1.9382284102	 0.8743503197	 0.115689
H	-0.9751479525	-0.3664538473	 0.0584951544	 0.092907
H	 0.4131124557	 0.0299842145	-2.1969808067	 0.087541
H	 1.9516631069	-1.8187097692	-2.2820674233	 0.091736
H	 1.9026488889	-3.3885354556	-0.3446414675	 0.108935
H	 2.9925343494	-2.0994697385	 0.1142466116	 0.134071
H	 0.0835258207	-2.5030003061	 0.9805641933	 0.109919
H	 1.5099389803	-2.4053391127	 2.0131244406	 0.114557
H	 0.160450596	-0.3208661068	 2.1195232989	 0.119589
