15
gdb 127613	3.55932	1.64774	1.13441	2.5886	74.04	-0.216	-0.0046	0.2113	1010.1472	0.115563	-416.82406	-416.816985	-416.816041	-416.856325	26.401	
C	-0.0158418692	 1.4366451442	-0.0616298252	-0.338397
N	-0.0065570631	-0.005202849	 0.0290706792	-0.111988
N	-0.0358793132	-0.7578313451	-1.1059041884	-0.261994
C	-0.0191811948	-2.0407357246	-0.73095212	-0.146939
C	 0.0215109241	-2.0997801179	 0.6693883344	 0.247114
C	 0.0288745633	-0.7969461327	 1.1311765833	 0.349001
C	 0.0703934791	-0.8613892926	 2.5613848884	-0.356737
C	 0.084312579	-2.1988314725	 2.8322538686	 0.006318
O	 0.0554179715	-2.9818016954	 1.7054969861	-0.208761
H	 0.8863230045	 1.8643723802	 0.3885421416	 0.137387
H	-0.0470570632	 1.6938152159	-1.1199198868	 0.163614
H	-0.894960611	 1.8561283978	 0.4390702384	 0.137387
H	-0.0370594214	-2.8208873325	-1.4747268272	 0.123351
H	 0.0877924785	-0.0678575187	 3.2905511145	 0.120967
H	 0.1136347458	-2.7420697771	 3.7631062331	 0.139678
