20
gdb 70075	2.55772	1.78819	1.36109	1.4799	84.02	-0.2244	0.0167	0.2411	1026.1523	0.173389	-365.992097	-365.984538	-365.983594	-366.023539	31.363	
C	-0.0364161506	 1.4855965449	-0.0070729006	-0.486415
C	-0.0295622774	-0.0299984809	 0.0316339006	 0.37453
C	-0.3258326783	-0.7279214679	 1.3280847	-0.329092
C	 1.1001384029	-0.7231812125	 0.7882340854	-0.123803
C	 1.7089674164	-1.9372135138	 0.2081697689	-0.061475
C	 1.3123047813	-2.4912607205	-0.9431451967	-0.062152
C	 0.2155949684	-1.9179593807	-1.7522681011	-0.072482
N	-1.1645055642	-1.9790090679	-1.1902919527	-0.343091
C	-0.4686842688	-0.6856146493	-1.2572012904	-0.123568
H	 0.5934041856	 1.8675355001	-0.8193490166	 0.117223
H	-1.0506774347	 1.8736702475	-0.1609137583	 0.116591
H	 0.340193399	 1.906124246	 0.9300545567	 0.114819
H	-0.5276210257	-0.114342294	 2.2001588198	 0.102303
H	-0.8723285835	-1.6611428093	 1.2704696446	 0.139422
H	 1.7912558975	-0.0766823393	 1.3229629701	 0.079819
H	 2.5348904689	-2.3808775507	 0.7589260078	 0.088225
H	 1.8067307872	-3.3810292706	-1.3218947042	 0.085152
H	 0.3007108355	-2.0508578689	-2.8284420582	 0.081431
H	-1.8359827703	-2.045928975	-1.9515320024	 0.227637
H	-0.8028164593	 0.0189856728	-2.0153653827	 0.074927
