14
gdb 4440	3.59257	1.81018	1.21723	3.7422	60.74	-0.1856	0.0445	0.2301	928.9915	0.107062	-415.918064	-415.910047	-415.909103	-415.950091	29.034	
C	 0.0143235253	 1.5180432649	-0.0279373455	-0.507249
C	-0.0433423857	 0.0332146074	-0.005370732	 0.235882
C	-1.0953960157	-0.802670295	 0.0984676745	 0.246229
O	-2.4109502789	-0.5229211887	 0.287052112	-0.427195
N	-0.6261270565	-2.1200113802	 0.0285689274	-0.397473
C	 0.7655420904	-2.1375064676	-0.0619376676	 0.43695
O	 1.5072756395	-3.0992434913	-0.0834937108	-0.429764
N	 1.0906913162	-0.7910992298	-0.1211224456	-0.402179
H	 0.6220716143	 1.9168617405	 0.7939799254	 0.132571
H	 0.4406518531	 1.899000611	-0.9644946872	 0.130221
H	-0.9951931871	 1.9214652551	 0.0759932616	 0.146653
H	-2.902512614	-0.7112482442	-0.5222826593	 0.305248
H	-1.1552245952	-2.9419787272	 0.2629880876	 0.266668
H	 2.0463555243	-0.4817880749	-0.1449582504	 0.263439
