17
gdb 115231	4.43368	0.99114	0.85304	5.612	65.76	-0.2785	0.0389	0.3174	1318.1912	0.135709	-496.125073	-496.116308	-496.115364	-496.159728	30.434	
C	-0.113039789	 1.4554469535	 0.0330044525	-0.245785
O	-0.0459366503	 0.0453956822	 0.140442806	-0.243284
C	-1.2839986214	-0.613753429	 0.020717961	 0.063591
C	-1.6819490577	-0.8518037391	-1.4324486581	-0.091648
O	-2.8694693334	-1.6476797844	-1.4981365566	-0.252641
C	-3.0801924726	-2.6798334576	-0.6475836097	 0.480847
O	-4.0028604516	-3.4196269054	-0.8046488937	-0.357441
O	-2.2433813247	-2.8335221472	 0.4026431146	-0.260849
C	-1.1176965663	-1.9842014377	 0.6558174327	-0.082205
H	 0.8982012368	 1.8323234671	 0.1987098219	 0.140827
H	-0.4518100131	 1.7849471677	-0.9588321972	 0.117021
H	-0.78334162	 1.8838474845	 0.79203675	 0.118913
H	-2.0839928745	-0.0561011546	 0.5320697752	 0.092701
H	-1.9202752947	 0.0717787134	-1.9637301338	 0.127842
H	-0.8606816008	-1.3548131887	-1.9585322	 0.126525
H	-0.2119901879	-2.4555880804	 0.2562529857	 0.131171
H	-1.0231507488	-1.9175829943	 1.7415647396	 0.134417
