20
gdb 113261	3.32881	0.87711	0.78188	3.0065	76.28	-0.2468	-0.0383	0.2086	1489.8951	0.168571	-440.263247	-440.253013	-440.252069	-440.299642	36.223	
C	 0.0410800158	 1.7856439151	 0.105177785	-0.454428
C	-0.1438151071	 0.2826207328	 0.1899168591	 0.307889
C	-1.4327186573	-0.2344790361	-0.4681442995	-0.359044
C	-1.2748452369	-0.2779869444	-1.9767555833	 0.158668
O	-0.7817279557	-1.2164334399	-2.552018457	-0.23916
N	 1.0683056155	-0.5297172644	-0.011817118	-0.374517
C	 0.4053568886	-0.5414729805	 1.3084780387	-0.07532
C	 1.2602044886	-0.0292428162	 2.4463155123	-0.076282
O	 2.3416959605	-0.9119465166	 2.6914668422	-0.418647
H	 1.0195463883	 2.0858848527	 0.4811553205	 0.138055
H	-0.025066844	 2.1243941414	-0.9347914942	 0.12167
H	-0.732223659	 2.3092822763	 0.6780654226	 0.119684
H	-1.6359654772	-1.255570139	-0.1327443006	 0.127225
H	-2.2777041219	 0.40547772	-0.1907894174	 0.113204
H	-1.6095037315	 0.6211658714	-2.5395573646	 0.088514
H	 0.8487620932	-1.3644376463	-0.551212834	 0.245387
H	-0.1637072633	-1.4350491818	 1.5616239707	 0.089642
H	 1.6185698948	 0.9874350675	 2.2350589953	 0.088577
H	 0.675951147	 0.0095882259	 3.3718764769	 0.107748
H	 2.7996392816	-1.0052080779	 1.8471070352	 0.291135
