18
gdb 72918	2.70876	1.83185	1.42344	2.8683	70.05	-0.2344	0.0604	0.2947	948.4765	0.149171	-439.039782	-439.032453	-439.031509	-439.071225	29.597	
O	 0.132061627	 1.3416557629	-0.2923917594	-0.477532
C	 0.0580399863	-0.0246734737	 0.0534100155	 0.340136
C	 0.1616448279	-0.9981616	-1.1504254902	-0.119684
O	-1.2502087497	-1.2925018484	-1.089117595	-0.286111
C	-1.4035922625	-0.5332720242	 0.1280455291	 0.09509
C	-1.4994470762	-1.3573264667	 1.3989865661	-0.067338
N	-0.5432077262	-2.4846941491	 1.4194122922	-0.326709
C	-0.2103125906	-1.2517456422	 2.1475234847	-0.033203
C	 0.7630073706	-0.3626802898	 1.3878629549	-0.304624
H	 1.0473376145	 1.5470170121	-0.5128621925	 0.279501
H	 0.4365071819	-0.5098689658	-2.0931520059	 0.08909
H	 0.7690668405	-1.8937285902	-0.9839577855	 0.107554
H	-2.1899248497	 0.2238712768	 0.0495483941	 0.083629
H	-2.4502866081	-1.4691085941	 1.9087759094	 0.086176
H	-0.8763409126	-3.1931289717	 2.0676947432	 0.234042
H	-0.1811688193	-1.2706270115	 3.2327858133	 0.08822
H	 1.7343251608	-0.8489556628	 1.2464237684	 0.10462
H	 0.9206748553	 0.5725689184	 1.9349186878	 0.107144
