20
gdb 20026	3.28421	1.44482	1.11873	1.038	76.18	-0.2297	0.0854	0.3151	1123.1869	0.176302	-348.961589	-348.953004	-348.952059	-348.995028	31.774	
C	-0.4993383412	 0.9708994246	-0.1316708582	-0.238373
O	 0.5148339493	 0.0072133638	 0.0807667744	-0.234349
C	 0.9280396634	-0.6072737413	-1.0994811978	 0.119855
C	 1.6089676326	-1.9303332051	-0.9546772486	-0.341134
C	 0.2252377938	-1.8604264863	-1.581205339	-0.045012
C	-0.9550660572	-2.4079755546	-0.8438027478	 0.029398
C	-2.3150871683	-2.4510594566	-1.4997980499	-0.273373
C	-1.5575791115	-3.731724084	-1.2448940054	-0.277001
H	-0.1543265627	 1.7757446173	-0.798770923	 0.104694
H	-1.4027511227	 0.5219042482	-0.5660148652	 0.117287
H	-0.7427775662	 1.4015840105	 0.8425685174	 0.124476
H	 1.299890451	 0.0887387513	-1.8540992393	 0.077748
H	 2.4685162426	-2.1494945498	-1.5782141891	 0.109468
H	 1.6661318132	-2.3261222425	 0.0539271143	 0.123292
H	 0.1816642688	-1.9926596893	-2.660266284	 0.076205
H	-0.946068716	-2.189253908	 0.2192713093	 0.092
H	-3.1896846162	-2.2382736754	-0.8946367302	 0.108899
H	-2.393026762	-2.106451447	-2.5261569645	 0.107451
H	-1.1279815981	-4.2430494542	-2.100358421	 0.109106
H	-1.9132708724	-4.3962264915	-0.4649621426	 0.109362
