14
gdb 9037	7.93192	0.82506	0.75101	2.4011	63.91	-0.2546	-0.0732	0.1813	1380.1263	0.10388	-415.877723	-415.868792	-415.867848	-415.913429	29.718	
N	 0.153758681	 0.9778959573	 0.5887465544	-0.552462
C	-0.0688070761	-0.1654373163	-0.1139226177	 0.291013
C	 1.1754911696	-0.948663772	-0.4167934764	 0.141399
O	 2.2670441438	-0.6245671117	-0.0168016013	-0.264498
N	-1.1668424891	-0.6507447772	-0.562774152	-0.292707
C	-2.3906814462	 0.0662585607	-0.2923362966	-0.254913
C	-3.5815203101	-0.6456059523	-0.9231734319	 0.149215
O	-4.7197343483	-0.2798789889	-0.799126688	-0.24221
H	 1.0888553694	 1.1078997859	 0.9448809406	 0.27655
H	-0.598013488	 1.4789389631	 1.0277603302	 0.268078
H	 0.9866539324	-1.8478031391	-1.031203806	 0.114428
H	-2.5980244819	 0.1650875337	 0.7873025959	 0.131232
H	-2.3692275706	 1.0960216669	-0.6892688434	 0.137597
H	-3.2991449758	-1.5424059101	-1.5168697377	 0.097279
