19
gdb 112608	4.02963	0.82626	0.79696	2.9846	73.27	-0.2646	-0.0344	0.2302	1467.1473	0.157037	-460.156383	-460.146938	-460.145994	-460.191008	34.779	
O	 0.0285224	 1.366125481	-0.2770886509	-0.422101
C	 0.048207172	-0.0165949742	 0.0430439122	-0.09617
C	-1.3841027456	-0.5085595016	 0.0473900643	 0.050231
C	-2.1326182334	-0.579115192	-1.3090103413	-0.291781
C	-2.7157566726	-1.9731189775	-0.8962907274	 0.338785
O	-2.6901248549	-2.9822053181	-1.8532012821	-0.482844
C	-1.6250839026	-2.0296846029	 0.2281744105	-0.324559
C	-4.1011473833	-1.8439689047	-0.3162730306	 0.118418
O	-5.015241547	-2.5480988554	-0.6758390951	-0.284143
H	 0.9361438924	 1.6809252904	-0.3198434779	 0.289123
H	 0.6293949048	-0.5916668204	-0.6967958114	 0.084945
H	 0.5059329862	-0.1951963505	 1.0304129966	 0.087824
H	-1.95083462	 0.0768037602	 0.7785727511	 0.082242
H	-2.8326535975	 0.2209049898	-1.559832101	 0.110515
H	-1.4474945325	-0.7284844546	-2.1476773574	 0.122831
H	-3.5919017388	-3.3409125428	-1.8874020561	 0.289848
H	-0.7881037872	-2.6275928661	-0.1430563387	 0.122399
H	-1.9168262487	-2.3992020111	 1.2147325567	 0.106066
H	-4.2401781612	-1.0646327197	 0.4607375784	 0.098371
