22
gdb 103986	2.53632	1.31264	1.20419	2.9286	82.19	-0.22	0.0727	0.2928	1181.4643	0.192904	-404.306483	-404.29676	-404.295816	-404.340232	37.356	
C	-0.127594869	 1.5452008261	 0.099473522	-0.518836
C	 0.1057743073	 0.0662325462	 0.0200762125	 0.297289
N	-0.7547280485	-0.8821391213	 0.7706594369	-0.378643
C	 0.7188813647	-0.8991674078	 0.97475368	-0.104428
C	 1.2784772977	-1.7593299397	-0.1566817415	-0.263415
C	 0.6611851422	-0.7378641738	-1.1906288908	 0.310495
C	-0.3643168544	-1.287823549	-2.1762215313	-0.462961
C	 1.7664241219	 0.0371877526	-1.8994449686	-0.138077
O	 2.48374991	-0.8679950038	-2.7276844148	-0.425199
H	 0.7263689407	 2.1132617986	-0.2840434889	 0.123999
H	-1.0106587247	 1.8404898504	-0.4799983006	 0.128671
H	-0.2919439271	 1.8567434443	 1.1372934693	 0.115646
H	-1.1584256196	-0.3568958396	 1.5470015856	 0.218433
H	 1.1360450084	-0.7311970542	 1.9612270239	 0.084626
H	 2.3680838142	-1.7915937485	-0.209915723	 0.105856
H	 0.8808592117	-2.7762257667	-0.1962364704	 0.102593
H	-1.1541624173	-1.8193266221	-1.6416712593	 0.132491
H	-0.8251043176	-0.4790914181	-2.7572519281	 0.09711
H	 0.1145964472	-1.9722358055	-2.8818295997	 0.127325
H	 1.324301518	 0.8514714632	-2.4970247637	 0.082496
H	 2.4336728822	 0.4991276689	-1.1528103909	 0.077901
H	 3.1667834322	-0.3752723803	-3.1911132086	 0.286628
