13
gdb 5004	3.451	2.37465	1.40812	3.7982	65.96	-0.2019	-0.0387	0.1632	810.1664	0.097349	-398.661372	-398.654875	-398.65393	-398.691758	25.304	
N	 0.0046920681	 1.394423584	 0.1276210676	-0.572662
C	-0.0768344854	 0.0244699111	 0.039547498	 0.148464
C	-1.2180322558	-0.7231251796	 0.0159681129	-0.175786
C	-1.131878295	-2.1489588886	-0.0121797281	-0.157906
C	 0.0778070454	-2.7359000597	-0.0194461723	 0.045877
O	 1.2267785259	-2.0112749497	-0.0104457974	-0.209644
C	 1.2334017009	-0.6405127445	 0.0083892711	 0.420487
O	 2.2900332553	-0.0519134856	-0.0103478832	-0.371191
H	 0.9170581909	 1.7613350697	-0.1039327293	 0.271368
H	-0.7796811794	 1.9329566547	-0.2023829525	 0.253722
H	-2.190162915	-0.2405493839	 0.0260252073	 0.098706
H	-2.0243705453	-2.7607788987	-0.0246218257	 0.111907
H	 0.2760897195	-3.7984103191	-0.0353559183	 0.136658
