17
gdb 95059	2.18314	2.04672	1.27893	3.7461	66.51	-0.2734	-0.0008	0.2726	985.4216	0.137847	-459.004696	-458.997311	-458.996367	-459.036576	28.834	
O	 0.3644413084	 1.0865317841	-0.7122163262	-0.436539
C	 0.078716101	-0.1215683759	-0.0517911977	 0.143975
C	 0.5043303641	-0.1947337811	 1.4343728038	-0.262998
C	-0.3319758161	-1.3512248388	 2.0136287995	-0.231325
C	-1.6776096158	-1.239404932	 1.3014386683	 0.109619
O	-2.4651104856	-0.0898063232	 1.8012690136	-0.257588
C	-2.2587579621	 0.6086127978	 0.6444569757	 0.449226
O	-2.5964059307	 1.7243022319	 0.3909633814	-0.339536
C	-1.4278631911	-0.4846089419	-0.0211843058	-0.255502
H	-0.2575805362	 1.7579164894	-0.4036542977	 0.296663
H	 0.6087293512	-0.8978958539	-0.6162650229	 0.096812
H	 1.5804242928	-0.3390594935	 1.547647659	 0.112488
H	 0.2475679404	 0.749229179	 1.928469852	 0.121477
H	 0.1143501606	-2.3186541173	 1.7525141631	 0.113071
H	-0.4386064051	-1.3203647258	 3.1008566686	 0.125
H	-2.297254529	-2.1355704645	 1.3014197004	 0.101024
H	-1.822865337	-0.8713725144	-0.959212705	 0.114134
