17
gdb 43164	2.22094	1.91589	1.82288	4.1856	72.	-0.2149	-0.0203	0.1946	895.3298	0.139551	-418.036621	-418.029502	-418.028558	-418.068149	27.949	
O	 0.0010087733	 0.0350867884	 0.092299107	-0.327689
C	-0.0025992988	 1.2337406037	 0.02267805	 0.423328
C	-1.2247488161	 2.1734255604	 0.0074250282	-0.096228
C	-0.8275178537	 3.2055974479	 1.0847088393	-0.228191
C	 0.7489337111	 3.2180934352	 1.0776701418	-0.220458
C	 1.1550031694	 2.2190572135	-0.025743125	-0.082599
N	 1.1424199286	 2.8928546978	-1.3501116921	-0.258162
C	-0.0058109407	 3.1260596267	-1.8588682274	 0.08047
N	-1.2268013402	 2.7415642798	-1.3507507144	-0.296746
H	-2.161851379	 1.6476491173	 0.1871982	 0.098759
H	-1.2509893366	 4.1888619252	 0.864035548	 0.105021
H	-1.2090818993	 2.8972537572	 2.0626696629	 0.115069
H	 1.152602782	 4.2083778325	 0.8564467122	 0.118719
H	 1.1428252353	 2.9029184967	 2.0485344676	 0.111276
H	 2.1276930049	 1.7526743203	 0.1274460419	 0.092447
H	-0.0615719292	 3.6513226031	-2.8131081792	 0.119291
H	-2.0404669109	 3.2636019143	-1.6423052809	 0.245694
