17
gdb 108695	2.19655	1.30693	0.85878	2.3477	74.9	-0.2482	-0.0699	0.1783	1296.4686	0.134734	-458.967197	-458.958101	-458.957156	-459.002146	31.523	
O	 0.8617569447	-0.7983846399	 0.9131395805	-0.405196
C	 0.060050734	-0.0150206045	 0.0372369263	-0.180732
C	-1.3688822204	-0.4696949187	 0.0277910482	 0.156411
C	-2.5053297051	 0.2351903382	 0.1598107462	 0.093384
C	-3.691563679	-0.6893272672	 0.0479092303	-0.153975
O	-3.1342505968	-1.9972839529	-0.0669545446	-0.266875
C	-1.7212962027	-1.9207366176	-0.1715194758	-0.135062
C	-2.6610047953	 1.6739843614	 0.3663368755	 0.065596
O	-3.7413733566	 2.2198349387	 0.4438742355	-0.265177
H	 0.5530659077	-0.6442253201	 1.8124354066	 0.291347
H	 0.1381873984	 1.0559935806	 0.2640140576	 0.110875
H	 0.493059091	-0.1649896124	-0.9596632694	 0.134819
H	-4.3447435602	-0.6381327729	 0.9289293386	 0.124873
H	-4.3112880258	-0.4506694506	-0.8292812611	 0.12032
H	-1.3769976082	-2.2765916734	-1.1584501028	 0.112332
H	-1.2482645506	-2.5667845673	 0.5806151706	 0.125093
H	-1.7209605952	 2.2586336386	 0.4564681176	 0.071966
