16
gdb 67132	2.4944	1.91872	1.66419	2.7221	68.51	-0.2282	-0.0348	0.1933	885.5731	0.124801	-437.789771	-437.782831	-437.781887	-437.820647	28.307	
O	-0.1617952818	 1.4174899426	-0.2098202003	-0.455447
C	-0.0337758796	 0.0610549982	-0.0485042375	 0.251443
C	-1.0813831112	-0.9519463358	-0.3458542067	-0.103067
C	-0.8790945342	-1.759467387	-1.6490979669	-0.231423
C	 0.4278625389	-1.2598911628	-2.3590891084	-0.181862
N	 1.4721377104	-1.5208627116	-1.3477295687	-0.205967
C	 1.1679809076	-0.8890212535	-0.305646263	 0.201369
O	 1.0864687768	-1.4927395043	 0.959298399	-0.264696
C	-0.2568565076	-0.9295476294	 1.0272346565	-0.012266
H	 0.4839428363	 1.8591678344	 0.3544680329	 0.297063
H	-2.1006510719	-0.6216999381	-0.1482024079	 0.104864
H	-0.7849940783	-2.8327632747	-1.4595268328	 0.129101
H	-1.7508384374	-1.6152706919	-2.2981698451	 0.105812
H	 0.6461684176	-1.8337791841	-3.2612308955	 0.112615
H	 0.3172765906	-0.203292506	-2.6347845301	 0.123872
H	-0.7319710361	-0.9149088263	 1.9993613646	 0.128588
