17
gdb 33392	2.33973	1.39498	1.04882	1.9327	79.18	-0.2467	0.0305	0.2772	1182.5646	0.133191	-384.591302	-384.582103	-384.581159	-384.625737	33.498	
C	 0.0444776946	-1.2209173815	-0.0640389846	-0.439242
C	 0.0564540451	-0.0209429364	-0.0310000387	 0.340089
C	 0.0297032861	 1.4438501856	 0.0031728645	-0.381758
C	 1.3793973203	 2.0151410585	-0.0265615143	 0.349761
C	 2.4743508309	 2.5083621616	-0.0399132423	-0.458837
C	-0.86862767	 1.9973119912	-1.1343232276	 0.157441
C	-0.8829315853	 3.5243937312	-1.3568008308	-0.313768
C	-0.3381783939	 3.1730483561	-2.7559004211	-0.054329
O	-0.321091015	 1.762233944	-2.4396779509	-0.279302
H	 0.0462995074	-2.2822818147	-0.0978712682	 0.199896
H	-0.4534879147	 1.7555641648	 0.9427292207	 0.136026
H	 3.4509173343	 2.925570573	-0.0527402677	 0.201384
H	-1.8568570794	 1.5324848418	-1.0247866678	 0.08911
H	-1.8687658985	 3.989783506	-1.3298021651	 0.111918
H	-0.1929506286	 4.082708791	-0.7230478527	 0.124328
H	-1.0109777475	 3.3913079611	-3.5936340057	 0.103742
H	 0.6645026443	 3.5467482967	-2.9887536377	 0.113542
