17
gdb 29478	3.0381	1.67191	1.09295	0.6683	82.73	-0.189	-0.0068	0.1821	1079.6907	0.137465	-384.731428	-384.724041	-384.723097	-384.763087	28.937	
C	-0.0191101605	 1.5087828153	 0.0899323024	-0.505257
C	-0.0069175166	 0.0155435794	 0.0233642532	 0.19037
C	-0.0258961242	-0.785188914	-1.0684199812	-0.181053
C	-0.0031556168	-2.2631762961	-0.6953733796	-0.422907
C	 0.0326101355	-2.203253281	 0.8046710517	 0.226194
C	 0.0290223584	-0.8882212641	 1.162137034	 0.293375
O	 0.0601328079	-0.7232509966	 2.5026313929	-0.208431
C	 0.0837685725	-1.9977056681	 3.0170708911	-0.024644
C	 0.069369638	-2.9395827034	 2.0258647025	-0.355503
H	 0.8696197127	 1.8891690202	 0.606936132	 0.134756
H	-0.0477975822	 1.9480534686	-0.9102231925	 0.126186
H	-0.8881995682	 1.8728882381	 0.6502264824	 0.13475
H	-0.0538926088	-0.4410145397	-2.0944247145	 0.093635
H	-0.8862180333	-2.7862431334	-1.0857219118	 0.128738
H	 0.8696058046	-2.7698894239	-1.1281516385	 0.128741
H	 0.1099119845	-2.0595853725	 4.0921505525	 0.130542
H	 0.0832145166	-4.0078926388	 2.1784366535	 0.110508
