20
gdb 15825	3.81627	1.00735	0.84808	2.8084	71.56	-0.2622	0.0789	0.341	1363.1143	0.175113	-386.113276	-386.103735	-386.102791	-386.148156	33.69	
C	 0.0863221816	 1.7739089832	-0.0051575788	-0.401346
C	 0.0318712601	 0.2387575015	 0.0460654048	-0.014218
C	 0.6395154502	-0.4343573224	-1.1974860308	-0.166988
C	-0.1244644308	-0.1801108174	-2.491388591	-0.086657
O	 0.5059451888	-0.9372696243	-3.5144607891	-0.419779
C	 0.7411274594	-0.258859299	 1.2890417463	 0.100262
C	 0.0345136486	-0.5293721281	 2.5464170492	-0.185505
O	 0.4626185746	-1.5986624824	 1.6990594154	-0.243314
H	 1.1192090043	 2.1260388703	-0.110300035	 0.117887
H	-0.4853415771	 2.1708867006	-0.8482610751	 0.120016
H	-0.3242941275	 2.2122919981	 0.9101499492	 0.115679
H	-1.0172155859	-0.0766268438	 0.1304111816	 0.075393
H	 1.6777754701	-0.1037635221	-1.3321181274	 0.099304
H	 0.671056909	-1.5168453519	-1.0332698991	 0.125359
H	-1.1776664123	-0.4820270878	-2.3632584259	 0.084034
H	-0.1212438114	 0.8924196856	-2.7403121492	 0.084126
H	 0.042071909	-0.771260309	-4.3401513553	 0.28468
H	 1.7993208262	 0.008346764	 1.352244066	 0.08778
H	 0.5581182553	-0.4475625324	 3.4980238769	 0.113115
H	-1.0435654322	-0.3788436325	 2.5971040173	 0.110172
