18
gdb 79368	3.04483	1.41701	1.10683	4.3027	81.79	-0.2969	0.0222	0.3191	1121.3515	0.148353	-364.759154	-364.751504	-364.75056	-364.791168	29.98	
C	-0.1573806782	 1.5947997793	-0.0179856363	-0.425654
C	-0.0331190113	 0.0799872373	-0.0011222017	-0.00599
C	 1.186995862	-0.5907388823	-0.6736751303	-0.081407
C	 2.1359463478	-0.3013422258	 0.5451802151	-0.07456
C	 2.5902913468	-1.7695605361	 0.6462110888	-0.313496
C	 1.0962368381	-1.8541305279	 0.2665641626	 0.245648
C	 0.2830311413	-3.020403451	 0.0491108763	 0.157656
N	-0.3656715688	-3.9627836615	-0.1244703168	-0.354414
C	 0.7222527437	-0.6084289297	 1.1592077982	-0.081399
H	 0.7898765948	 2.086156565	 0.2266578439	 0.115938
H	-0.4721913762	 1.9492143197	-1.0053343653	 0.123002
H	-0.9058007759	 1.93269503	 0.7067697946	 0.123002
H	-0.9896389328	-0.3954793934	-0.2482458523	 0.086657
H	 1.4763234783	-0.6222305764	-1.7253170815	 0.087055
H	 2.7243855974	 0.5999236079	 0.7030832908	 0.089053
H	 3.2999594131	-2.1230899845	-0.1068896761	 0.110927
H	 2.8570414893	-2.139948222	 1.6399063549	 0.110927
H	 0.4757214105	-0.6603147183	 2.2208969352	 0.087053
