18
gdb 87265	3.59941	0.93687	0.83248	2.5703	69.05	-0.2419	0.0302	0.2721	1373.8079	0.145956	-476.221875	-476.212265	-476.211321	-476.257284	34.901	
O	-0.0091837234	 1.1229983595	 0.4155001986	-0.431691
C	-0.082633921	-0.2115628095	-0.0147489898	 0.003706
C	-0.6723346057	-1.2553192027	 0.9135236489	-0.386076
C	-1.4911444578	-0.6913991955	-0.2304466491	 0.42734
O	-2.5141562072	 0.2139150996	 0.0670590438	-0.490805
C	-1.83737632	-1.5652328801	-1.4115583176	-0.22561
N	-2.9561082753	-2.4549487729	-1.1370299811	-0.263394
C	-2.7762761884	-3.7547882713	-0.7852534753	 0.160932
O	-1.707710207	-4.3320476143	-0.7576597303	-0.333079
H	 0.552027504	 1.1648939348	 1.1964253807	 0.298612
H	 0.7006610042	-0.5067455229	-0.7109777776	 0.100089
H	-0.310562775	-2.2750743223	 0.8412345024	 0.144916
H	-0.9529100125	-0.9238352145	 1.9081250294	 0.112673
H	-2.0744500965	 1.0339366734	 0.3345056739	 0.291515
H	-2.0870740016	-0.9312391519	-2.2691554412	 0.114741
H	-0.9904337459	-2.2011933243	-1.6763619297	 0.140795
H	-3.8639307418	-2.0402250821	-0.9967184557	 0.258193
H	-3.735515029	-4.2526975629	-0.5417739901	 0.077143
