17
gdb 88407	2.10271	1.39115	0.91662	2.3517	74.55	-0.2508	-0.0576	0.1932	1251.6386	0.133659	-417.985261	-417.975791	-417.974847	-418.020548	32.885	
C	-0.5011184337	 1.3630606676	 0.0916840451	-0.327784
N	-0.0043567923	-0.0075053763	 0.1068121896	-0.078505
C	 1.3703149081	-0.251369446	-0.30806769	-0.250836
C	 0.9505082314	-0.4542039321	 1.1080935667	 0.003342
C	 1.486169026	 0.470403098	 2.2137772935	-0.274142
C	 0.4817013959	 0.481167253	 3.3821131333	 0.172149
O	-0.3013058452	 1.3711130458	 3.560468572	-0.229016
C	 2.7904068726	-0.0014598728	 2.6762175019	 0.272222
N	 3.8045988851	-0.395603421	 3.0659046008	-0.304516
H	 0.2766571918	 2.1314625136	 0.2236370709	 0.105483
H	-0.9787609212	 1.5395203631	-0.8762965395	 0.133843
H	-1.2489251238	 1.4922456662	 0.8778953406	 0.149605
H	 1.5397872773	-1.1030656673	-0.96082703	 0.131718
H	 2.002285883	 0.6134010235	-0.5118110745	 0.117778
H	 0.7777255725	-1.4695996382	 1.4616340429	 0.116327
H	 1.5785865893	 1.4968091341	 1.8510179707	 0.147825
H	 0.5149510632	-0.4219679214	 4.0270620761	 0.114506
