13
gdb 131130	3.94583	1.09875	1.02881	2.3519	60.33	-0.2883	-0.0679	0.2204	1129.7189	0.088556	-489.878429	-489.870742	-489.869798	-489.912207	26.694	
O	 0.2419298939	 1.5516371424	 0.0473117715	-0.407797
C	 0.0643607766	 0.1750645338	 0.0891435394	-0.059629
C	 0.6009525994	-0.4816894804	-1.1921066568	 0.126669
O	 1.0835264417	 0.1918551292	-2.0638867038	-0.237349
C	 0.7351486896	-0.4664236883	 1.2745964985	 0.397967
N	 0.3950638802	-1.5799605391	 1.8541212994	-0.31538
C	 1.3753408746	-1.7001807761	 2.8092124926	 0.039093
N	 2.2562145213	-0.7386838419	 2.8269664146	-0.102581
O	 1.8317811045	 0.096918453	 1.7845677036	-0.179755
H	 0.7147429119	 1.7333749433	-0.7817439684	 0.30632
H	-1.0013276028	-0.0993141437	 0.1573606386	 0.1432
H	 0.5111896	-1.581633963	-1.2556628472	 0.133939
H	 1.4273965991	-2.5208474492	 3.509652528	 0.155303
