22
gdb 122285	4.88667	0.74599	0.72837	1.9282	83.73	-0.2414	0.0805	0.3219	1674.876	0.194174	-404.269372	-404.26021	-404.259265	-404.304372	34.08	
C	 0.0658924756	 1.4885649325	 0.0241135203	-0.383243
C	-0.0351568745	-0.0383595489	-0.0082423765	-0.183848
C	-1.4767287122	-0.5243922754	 0.0253828657	-0.070753
O	-1.4768389555	-1.946301984	-0.0075886117	-0.293038
C	-2.7272512165	-2.5194376613	 0.0177117968	 0.394035
C	-3.9060281902	-2.4202618799	-0.9915802729	-0.235345
N	-4.4181753696	-3.4268807209	 0.0488255186	-0.139293
C	-3.000878976	-4.0268385264	-0.009216264	-0.222894
C	-3.8411269582	-2.4694377061	 1.1016011859	-0.235342
H	 1.1099379291	 1.8131012561	-0.0009153271	 0.119151
H	-0.4428206229	 1.9413902263	-0.83415294	 0.117047
H	-0.3876979388	 1.9002998304	 0.9325135993	 0.117049
H	 0.4439293252	-0.433276104	-0.911383903	 0.108627
H	 0.4986324189	-0.4740837909	 0.8440259029	 0.108631
H	-1.9817396424	-0.1673652819	 0.9370343539	 0.092486
H	-2.036947199	-0.1262609871	-0.8355780669	 0.09249
H	-4.4943632933	-1.4999283769	-1.0266967427	 0.100257
H	-3.7704221373	-2.85306187	-1.9860571754	 0.103037
H	-2.7957016417	-4.5713808331	-0.9341437051	 0.103828
H	-2.7396180088	-4.6138720839	 0.8746665714	 0.10383
H	-3.6448241649	-2.9482221961	 2.0643673816	 0.103037
H	-4.424819867	-1.5526232983	 1.2162261756	 0.100255
