18
gdb 5973	2.75593	1.45326	1.21924	3.4431	69.14	-0.2675	0.0342	0.3016	1087.3119	0.152073	-381.119132	-381.109483	-381.108539	-381.153401	33.966	
C	 0.7416897813	 1.4240466598	-0.3306742527	-0.229
O	 0.9914185911	 0.0378052126	-0.3897240642	-0.232931
C	-0.0910431553	-0.6991544727	-0.8922774366	-0.040936
C	 0.312725563	-2.1836436304	-0.974296309	 0.054147
C	 0.6625779959	-2.724197113	 0.4205226713	-0.399198
N	-0.8443493317	-2.9170674018	-1.502076408	-0.524832
C	 1.4944730582	-2.3152890393	-1.8643666504	 0.264899
N	 2.3732941483	-2.4680261506	-2.6001826292	-0.345797
H	 0.5280934564	 1.8396011115	-1.3271732245	 0.112703
H	-0.1071766809	 1.6561567574	 0.3308569753	 0.108562
H	 1.6418129307	 1.8982550214	 0.0658574515	 0.136058
H	-0.9752385667	-0.6267235806	-0.2400835103	 0.106565
H	-0.3817250229	-0.3396834335	-1.8938750198	 0.093109
H	-0.2321762902	-2.6828896833	 1.0473771768	 0.131402
H	 1.0027128763	-3.7619573293	 0.3602359304	 0.126416
H	 1.4511013003	-2.1210960182	 0.8716627635	 0.155324
H	-1.0037641406	-2.6680840644	-2.4748080344	 0.241557
H	-0.6505137031	-3.9143509356	-1.4912226798	 0.241952
