20
gdb 54587	2.58971	1.47685	1.26587	2.4922	78.23	-0.2188	-0.0153	0.2035	1101.1194	0.170332	-403.124146	-403.115287	-403.114343	-403.158527	32.841	
C	 0.2352617289	 1.4469798559	 0.0691885843	-0.483231
C	 0.1217619171	-0.0630295465	 0.0489253893	 0.287976
O	 0.158610519	-0.7398924188	 1.0529079643	-0.30661
C	-0.0551660886	-0.716138506	-1.3084297005	 0.298656
C	 0.697332915	-2.0435455275	-1.551617572	-0.309657
C	 1.3357586296	-1.3503665984	-2.7856210651	-0.166347
N	 0.5837950225	-0.0763295241	-2.5361107637	-0.171685
C	-0.7520343023	-0.0541945901	-3.2154855361	-0.16413
C	-1.4681780503	-0.5896033165	-1.9479686152	-0.303191
H	 1.090671056	 1.7551338763	-0.5397872397	 0.15926
H	-0.6470587449	 1.9089559409	-0.3882947831	 0.134841
H	 0.3432220544	 1.7965804266	 1.0963222082	 0.136306
H	 1.3859561209	-2.3120371159	-0.7494481692	 0.126703
H	 0.0595300818	-2.9046749817	-1.7638679655	 0.106214
H	 2.4161299931	-1.1954484081	-2.7113738871	 0.110607
H	 1.1197439026	-1.8020722489	-3.7594274834	 0.102484
H	-1.0419513448	 0.9555961507	-3.5201318608	 0.108955
H	-0.8078961398	-0.7050290614	-4.0951988759	 0.10329
H	-2.0126610678	-1.5310317306	-2.0461255682	 0.116309
H	-2.1201021923	 0.1370251039	-1.4578538706	 0.113251
