20
gdb 76816	2.73967	1.56171	1.22177	1.957	81.37	-0.2179	0.0491	0.267	1095.4031	0.168933	-402.980847	-402.972532	-402.971588	-403.013142	32.989	
C	 0.0314591675	 1.5259111411	 0.0823553761	-0.408873
C	 0.0380977678	 0.0127901381	 0.0547137167	-0.043686
N	 1.0835029779	-0.6464175042	-0.8550416777	-0.126795
C	 0.6936031544	-0.9438449562	-2.2196365286	-0.32445
C	 1.1535793813	-1.7861106513	 0.1039332019	 0.018381
C	 2.0320311297	-2.0228116974	 1.3938011655	-0.008997
C	 2.2365427808	-0.5208671485	 1.5403752162	-0.243853
C	 0.7543955127	-0.8057033712	 1.1593696226	 0.317
O	 0.7331339695	-1.8948469377	 2.1886488764	-0.376597
H	 1.0211687736	 1.9144683941	 0.335702881	 0.130666
H	-0.2537765649	 1.9292412987	-0.8953776609	 0.121753
H	-0.6918549433	 1.8915124331	 0.8183469697	 0.126531
H	-0.9625254887	-0.3960685915	-0.154449578	 0.08422
H	 0.5018353147	-0.012075432	-2.7622966453	 0.121625
H	 1.51298457	-1.4639152588	-2.7258493688	 0.127513
H	-0.2116797667	-1.5745590067	-2.2885979948	 0.096314
H	 0.433010476	-2.5870920932	-0.0959776226	 0.079795
H	 2.658852051	-2.8645786553	 1.700427613	 0.090461
H	 2.392201146	-0.1778193057	 2.5630179023	 0.103369
H	 2.8509065107	-0.0134346253	 0.7978358152	 0.115624
