12
gdb 129534	5.2922	1.05661	0.88079	4.65	57.16	-0.2602	-0.0415	0.2186	1185.2423	0.076811	-505.951048	-505.943188	-505.942244	-505.98469	27.188	
N	 0.1808108492	 1.2302439204	 0.2585237135	-0.565643
C	-0.2488589816	 0.0769905478	-0.3000689314	 0.508535
O	-0.5544299628	-0.09930793	-1.4519688407	-0.373945
O	-0.2742229039	-0.8995125713	 0.67273702	-0.267014
C	-0.663710667	-2.1498726032	 0.3256814733	 0.348051
C	-1.0626177767	-2.742306789	-0.8322310657	-0.061358
O	-1.3219987521	-4.0229098858	-0.5459362783	-0.158405
N	-1.0698754875	-4.2038885286	 0.8309914564	 0.001911
N	-0.6890808138	-3.0983565343	 1.3099228316	-0.196935
H	 0.1929213823	 2.0562685747	-0.3118465465	 0.283304
H	 0.3490105458	 1.2957377349	 1.2465639425	 0.282582
H	-1.1947532219	-2.3999020657	-1.8399561749	 0.198916
