19
gdb 77115	3.24176	1.04586	0.87589	2.0447	77.42	-0.2525	-0.0271	0.2254	1329.4291	0.157023	-423.00704	-422.998014	-422.997069	-423.04131	33.153	
C	-0.5904724353	 1.1384662031	-0.0723292816	-0.422917
C	-0.0039929687	-0.2441364026	 0.1571025027	-0.075519
C	 1.2746577052	-0.6750263377	-0.652683691	-0.082393
C	 1.8125733189	-1.3738433362	 0.6395857307	-0.354936
C	 0.7909846506	-0.5587783553	 1.4295679407	 0.455891
C	 1.0100009552	 0.283739878	 2.6060639096	-0.267368
O	 0.2329225211	-0.924670291	 2.6716218242	-0.273069
C	 1.0344304842	-1.5553519372	-1.8440831853	 0.159342
O	 1.4010001087	-1.3260838998	-2.9678024744	-0.252499
H	 0.1723084707	 1.9160446295	 0.0381013322	 0.120157
H	-1.0144202441	 1.2240633513	-1.0779944722	 0.130035
H	-1.3922484824	 1.3441320524	 0.6449350339	 0.12956
H	-0.7789340823	-1.0129979453	 0.0370228845	 0.092384
H	 1.8782704573	 0.1855497514	-0.9483086794	 0.093034
H	 1.566219866	-2.4411848782	 0.6544081312	 0.121031
H	 2.8719851834	-1.2479857176	 0.8694061355	 0.120842
H	 1.9679548427	 0.2501407428	 3.1236951792	 0.118376
H	 0.4449215823	 1.2058434519	 2.7329857331	 0.119738
H	 0.4557799963	-2.4813990697	-1.6055808837	 0.068313
