21
gdb 70789	2.92459	1.66472	1.4199	1.5086	82.21	-0.2342	0.095	0.3292	1029.0311	0.182759	-387.066077	-387.058156	-387.057212	-387.097715	32.695	
C	-0.1048286425	 1.4823450527	 0.0765865643	-0.499389
C	 0.0874288586	-0.0068985492	 0.0570108275	 0.416992
C	 0.9682027867	-0.7697922519	-0.961956863	-0.321113
C	 0.8296967461	-1.916069151	 0.0520848014	 0.324122
C	 1.6609643055	-3.1721363461	 0.045134211	-0.51126
C	-0.7230655523	-1.9816015331	 0.410889223	 0.046348
C	-0.3801297302	-1.659189839	 1.8835155469	-0.254321
C	 0.7533924665	-0.8608716525	 1.2261346187	-0.140879
O	-1.1672423947	-0.7106591442	-0.0790247516	-0.302335
H	 0.8586090787	 1.9951299398	 0.1502413661	 0.115878
H	-0.6022083143	 1.8143381428	-0.8407819363	 0.128346
H	-0.7251108161	 1.7819913314	 0.926895527	 0.125169
H	 0.5691884358	-0.8792942955	-1.9747244992	 0.092519
H	 1.9987940211	-0.401502589	-0.9877722337	 0.091127
H	 2.7314301466	-2.9398077909	 0.0288372339	 0.11753
H	 1.469165681	-3.7935344134	 0.926886629	 0.11745
H	 1.4408494749	-3.7814702488	-0.8395644277	 0.120648
H	-1.3904724313	-2.7837862277	 0.0965098888	 0.071742
H	-1.1506476812	-1.1427756797	 2.4612940562	 0.097192
H	 0.0064213296	-2.5184296141	 2.437659926	 0.098525
H	 1.6233780815	-0.4558179108	 1.7418972618	 0.06571
