21
gdb 104767	2.23501	1.10117	0.95005	2.7086	81.37	-0.2434	-0.0188	0.2247	1372.0281	0.179321	-424.217867	-424.207551	-424.206606	-424.253385	37.099	
C	 0.8664030822	 1.5061760949	 0.2433180018	-0.378922
C	 0.1335414812	 0.1788118822	 0.0138504496	-0.262741
C	 0.5332475061	-0.4766162974	-1.2971538092	 0.433058
C	 1.7209377309	-1.3614714093	-1.3714412805	-0.351073
C	 0.3356361487	-1.9890510577	-1.5408761224	-0.173607
C	-0.2029615847	-2.8977952012	-0.5092674693	 0.154603
O	-1.0096060621	-3.7711305079	-0.72371222	-0.272737
O	 0.3570512865	 0.3071670222	-2.4401589692	-0.27683
C	-0.9927919345	 0.578382547	-2.7817181554	-0.256593
H	 1.9495103922	 1.3532994023	 0.2893953029	 0.121144
H	 0.6675978295	 2.2096365443	-0.5692464426	 0.132057
H	 0.5490778981	 1.9673219977	 1.1829252766	 0.114299
H	 0.3476845701	-0.5107004414	 0.8364235672	 0.104476
H	-0.9508953267	 0.3402551572	 0.0335354506	 0.108119
H	 2.3361855383	-1.3084610578	-2.2613676709	 0.136552
H	 2.2535174227	-1.5787141661	-0.4506100816	 0.122102
H	 0.040216303	-2.2436344879	-2.5528049742	 0.113841
H	 0.1991151332	-2.7356189062	 0.5180583875	 0.063845
H	-0.9723242079	 1.0876051986	-3.7475326879	 0.13265
H	-1.5778615845	-0.346493154	-2.874529128	 0.120136
H	-1.4837442124	 1.2333233405	-2.0500221151	 0.115624
