16
gdb 80223	2.27123	1.5566	1.21725	4.5706	72.02	-0.2518	-0.0426	0.2092	1071.6156	0.121949	-437.862537	-437.854008	-437.853063	-437.895993	30.824	
C	-0.0508998639	 1.563047817	 0.0067676822	-0.432837
C	 0.0810915326	 0.0585947294	 0.1123025959	-0.014247
N	 1.2414588228	-0.7359193503	-0.2439539027	-0.169659
C	 2.4738683801	 0.0549190644	 0.1113077734	-0.287035
C	 2.0540662495	 0.0811238454	 1.5933253417	 0.345417
O	 2.5909432863	 0.3866435257	 2.6136637295	-0.279057
C	 0.7851818529	-0.6601705478	 1.2427723912	 0.083028
C	 0.1572781047	-1.8046527331	 1.9410563548	 0.0622
O	 0.2289015753	-2.0015094689	 3.1262480084	-0.236524
H	 0.7948996983	 2.1106092217	 0.4243229839	 0.143661
H	-0.1688115798	 1.8526373342	-1.0427808845	 0.140899
H	-0.9484303667	 1.8823373781	 0.5442966971	 0.145606
H	-0.8266173964	-0.4632696107	-0.1922937446	 0.118669
H	 3.3634008489	-0.5633263718	-0.0347361753	 0.153594
H	 2.593427614	 0.9999420218	-0.4226546598	 0.137809
H	-0.3976789884	-2.4854047851	 1.2556089789	 0.088475
