19
gdb 80955	2.30177	1.45398	1.39697	3.4006	81.45	-0.2241	0.0175	0.2416	1077.3316	0.15839	-382.011798	-382.002995	-382.002051	-382.044901	33.398	
C	 0.0028714485	 1.4963377913	 0.0709711043	-0.367273
N	 0.0523920706	 0.0381628614	-0.0063000018	-0.121592
C	-1.084454369	-0.8002170124	 0.5204456923	-0.045198
C	-0.0879544975	-1.9869333692	 0.4636433283	-0.248492
C	 0.6542637179	-0.785179377	 1.1223256323	 0.312339
C	 2.0854848906	-0.6650160659	 1.552328347	-0.519871
C	-0.6449868419	-0.6090702877	 2.0151831665	-0.167002
C	-0.9159349268	 0.5871695918	 2.7905547358	 0.259619
N	-1.1452979656	 1.4828953956	 3.487185044	-0.344725
H	 1.0073983174	 1.8808033878	-0.1341369878	 0.124914
H	-0.6516657913	 1.8523894366	-0.7314207542	 0.126161
H	-0.3445597119	 1.9329189571	 1.0133338637	 0.144875
H	-2.0959432397	-0.7352741284	 0.1194458574	 0.098676
H	-0.2966657987	-2.8563639943	 1.0889988422	 0.098436
H	 0.2593958306	-2.2382201791	-0.5367212185	 0.114967
H	 2.748448298	-0.819315696	 0.6954498364	 0.139113
H	 2.2883754172	 0.3247199792	 1.9737546894	 0.140803
H	 2.3236351258	-1.4133623186	 2.3143761429	 0.131828
H	-0.8612701839	-1.4668996323	 2.6599487599	 0.122424
