20
gdb 23179	2.25733	1.56868	1.03119	0.8479	82.81	-0.2261	0.0111	0.2372	1194.6915	0.171537	-403.11805	-403.109529	-403.108584	-403.151172	33.3	
O	-0.1204520749	 1.3135802082	 0.139394119	-0.396902
N	 0.0130196417	-0.0886586423	 0.1997837347	-0.2532
C	-1.1105957335	-0.6672464745	 0.0446298666	 0.355394
C	-2.470676072	-0.0355186165	-0.1642337723	-0.30194
C	-3.3747491592	-1.2190352012	-0.5673816838	-0.221085
C	-2.7405090214	-2.4364251861	 0.1368333194	-0.300892
C	-1.2429536251	-2.1555159876	 0.0523109893	 0.298918
C	-0.3266425792	-2.9861174505	-0.834599753	-0.295261
C	-0.1907821619	-3.043295971	 0.6605526202	-0.321248
H	 0.7879439251	 1.6074056763	 0.2634942823	 0.303484
H	-2.8004803216	 0.4192608558	 0.7790345468	 0.124913
H	-2.4311744886	 0.7728042857	-0.8984948886	 0.12773
H	-4.4221624748	-1.0663476941	-0.2956522281	 0.098337
H	-3.3340491287	-1.3603063198	-1.6531245641	 0.106891
H	-3.058261189	-2.4680260655	 1.1873404817	 0.101911
H	-3.0206770372	-3.3906905845	-0.3176922062	 0.09806
H	-0.7621441721	-3.8375935071	-1.3479142354	 0.10966
H	 0.4322102042	-2.4487635459	-1.3921401476	 0.124983
H	 0.6616554756	-2.5473059001	 1.1110426113	 0.131023
H	-0.5286218073	-3.9384597292	 1.1729316178	 0.109224
