19
gdb 82981	2.53257	1.99258	1.61562	2.5772	72.93	-0.2426	0.0694	0.312	913.1483	0.162429	-423.005116	-422.998312	-422.997368	-423.036145	28.327	
O	 0.1338576125	 1.3917193432	 0.1705026949	-0.440342
C	-0.0005845086	 0.0067155058	 0.0413853167	 0.145806
C	-1.419062676	-0.6384100969	 0.0528875615	-0.076586
C	-2.4856392601	 0.1536832064	-0.7421250815	-0.251568
C	-2.0661491173	-0.5645327903	-2.064197167	-0.037658
C	-1.2089888422	 0.2433272866	-3.0275471464	-0.091364
O	 0.0526908542	 0.4373615457	-2.373717567	-0.286534
C	 0.2524945852	-0.5764081276	-1.3841409186	 0.041431
C	-1.0417029002	-1.4182637522	-1.2610064763	-0.06809
H	 0.0992998102	 1.7313694384	-0.7359899725	 0.289037
H	 0.6383591673	-0.4824659843	 0.785199536	 0.078922
H	-1.7384605305	-1.1160471976	 0.9789757151	 0.065336
H	-3.5054898999	-0.0951874283	-0.4417843703	 0.103198
H	-2.3735489471	 1.2417392882	-0.7190696485	 0.102378
H	-2.8694194823	-1.1025006964	-2.5701015592	 0.076168
H	-1.057378748	-0.3004950723	-3.9717400492	 0.097328
H	-1.6212516032	 1.230973549	-3.2604746289	 0.109761
H	 1.2084436144	-1.0742381902	-1.5645484273	 0.07785
H	-0.9982429386	-2.4994970171	-1.3740075816	 0.064929
