13
gdb 25215	2.70235	1.73691	1.05732	4.1765	72.24	-0.2608	-0.0884	0.1724	1024.9877	0.091402	-452.79588	-452.788694	-452.787749	-452.828643	26.045	
O	-0.0489095175	-0.0680114116	 0.0024860222	-0.296272
C	 0.0147641336	 1.1339163087	 0.0087594141	 0.329038
N	-1.1915559249	 1.8601834012	 0.0286611508	-0.347283
C	-1.5346567191	 3.1847337478	 0.0409745411	 0.128129
N	-0.8270145749	 4.2541959092	 0.0370653872	-0.284801
C	 0.5448580518	 4.2871590393	 0.0181034098	 0.006867
C	 1.4861240739	 3.3108165371	 0.0007732816	-0.162087
C	 1.3746700938	 1.8599998297	-0.0042711763	 0.253141
O	 2.3549238265	 1.1449644402	-0.0197151451	-0.295236
H	-1.9740101902	 1.2145748182	 0.0353666091	 0.272364
H	-2.6173363162	 3.310078887	 0.056766689	 0.140949
H	 0.9216325418	 5.3081569977	 0.0176019595	 0.128502
H	 2.5228572814	 3.6338786155	-0.0117733331	 0.126689
