16
gdb 49522	2.95207	1.83353	1.51207	5.0196	68.52	-0.2391	0.0242	0.2633	893.5194	0.125711	-437.841272	-437.834681	-437.833737	-437.87225	26.322	
O	 0.1102714192	 0.0528112685	 0.4469208839	-0.321596
C	 0.1162386063	 1.2485360233	 0.2774463366	 0.15659
N	 1.1486526029	 1.9384252344	-0.3182426099	-0.031597
C	 2.5796572851	 1.6020975479	-0.2052928175	-0.072486
C	 2.8326468047	 2.9604079673	-0.9424249372	-0.229492
C	 1.5652760375	 3.3413974583	-0.1051385266	-0.087605
C	 2.1817199691	 3.3064167648	 1.3298171344	 0.032361
O	 1.756215719	 2.1858583219	 2.1066062433	-0.223613
C	 2.9050483246	 2.0357632771	 1.2632336834	 0.040748
H	-0.7514297012	 1.9064972427	 0.4866287971	 0.071256
H	 2.9201199727	 0.6357524952	-0.5667079089	 0.10815
H	 3.759705252	 3.4916507975	-0.7179566401	 0.108374
H	 2.640985247	 2.9092313913	-2.0145241492	 0.12369
H	 0.8790682541	 4.1414481653	-0.3765689668	 0.093504
H	 2.4872133455	 4.1985887834	 1.8642279908	 0.114349
H	 3.8435320814	 1.8031176011	 1.7518129466	 0.117368
