15
gdb 33681	3.23496	1.47257	1.38934	3.7618	69.94	-0.2394	0.0086	0.248	954.7971	0.115409	-416.769907	-416.763285	-416.762341	-416.801005	25.961	
N	-0.0705251085	-1.1473580468	 0.0227570455	-0.354761
C	-0.0428422182	 0.010160014	 0.0064055199	 0.150934
C	-0.0065248282	 1.4258354761	-0.0208491487	 0.183234
C	-0.6915561902	 2.5071142614	 0.8216113699	-0.108611
N	 0.5770566086	 3.1950280856	 1.0506756786	-0.306964
C	 1.2187615766	 2.3861883415	-0.0352558598	-0.088128
C	 1.0797917534	 3.0814853163	-1.3842179513	-0.095315
O	-0.3375885593	 3.2826128158	-1.5284298137	-0.26613
C	-0.9804963219	 2.3877365872	-0.6615574204	 0.053043
H	-1.4355540896	 2.389508549	 1.6017769405	 0.121488
H	 0.5331726501	 4.1903897972	 0.8318274446	 0.227345
H	 2.2050012183	 1.9912196355	 0.2070583993	 0.110011
H	 1.5707147644	 4.0594449479	-1.4149657793	 0.122402
H	 1.4655991654	 2.4603577967	-2.2059389254	 0.116791
H	-1.9492364109	 2.0449192325	-1.0039272297	 0.134662
