18
gdb 78182	2.38521	1.65528	1.29591	2.6406	72.64	-0.2107	-0.0163	0.1944	1037.4616	0.147423	-439.075307	-439.067008	-439.066064	-439.107963	31.779	
C	 0.0614469981	 1.5284735526	-0.0220114622	-0.323039
N	 0.0767041823	 0.0750634752	 0.0223913381	-0.064379
C	 0.5159642504	-0.5950435282	-1.1961680802	-0.275601
C	 1.1359564995	-1.915062524	-0.7337311262	 0.415119
O	 1.3374429115	-2.8823165932	-1.4237721835	-0.329564
C	 1.3995524792	-1.8035118227	 0.7360558846	-0.258887
C	 2.2350460137	-0.5963443185	 1.1886849897	 0.07644
O	 2.9632818595	 0.1691032764	 0.2797391959	-0.41045
C	 0.7413251367	-0.5041808573	 1.1659177728	-0.047655
H	 1.0564198589	 1.9685697826	-0.1930704368	 0.121458
H	-0.6100299518	 1.861016147	-0.8204041512	 0.119896
H	-0.3305836086	 1.9164083204	 0.9239219649	 0.116816
H	-0.3146200912	-0.7831774199	-1.886250238	 0.126456
H	 1.2921057661	-0.0356095223	-1.7434448051	 0.119674
H	 1.4217978121	-2.7121008787	 1.3238822081	 0.112007
H	 2.7049917498	-0.7297073104	 2.1636421237	 0.101909
H	 3.7401969678	-0.332921821	 0.0085257891	 0.296889
H	 0.205821686	-0.4167640881	 2.1071576762	 0.102912
