17
gdb 81755	3.26564	1.25733	1.06692	3.3689	74.64	-0.2508	-0.0039	0.2469	1146.8351	0.135618	-417.976966	-417.968287	-417.967343	-418.010171	32.321	
C	-0.0644186158	 1.6125132263	-0.133378843	-0.407263
C	 0.0114873666	 0.0955534681	-0.0520233865	-0.015427
C	 0.723970883	-0.6438356598	-1.1908975815	-0.059192
O	 2.1026272055	-0.258791908	-1.1662864004	-0.277519
C	 1.6765504238	-1.2917582335	-0.2629258053	 0.315365
C	 2.3282281079	-2.5615546842	-0.311920044	 0.182013
N	 2.8382521499	-3.5996770286	-0.2803158135	-0.338104
C	 1.0424380252	-0.563609345	 0.9606574833	-0.089018
N	 1.8490917859	 0.3324002489	 1.7435815533	-0.503221
H	 0.8975107781	 2.0397940116	-0.4282859724	 0.12922
H	-0.8130124424	 1.9245051222	-0.8688425615	 0.118725
H	-0.3389129934	 2.0350122	 0.8366437911	 0.137173
H	-0.9803376914	-0.3350123481	 0.1166152784	 0.091786
H	 0.3351450322	-1.0138046976	-2.1324516785	 0.128247
H	 0.5388010365	-1.2731040206	 1.6210880335	 0.102049
H	 2.4193663522	-0.175009627	 2.4120151424	 0.240703
H	 2.4752417361	 0.8572746853	 1.1404347347	 0.244462
