17
gdb 125581	3.08903	1.39554	0.96781	3.747	83.51	-0.1918	-0.0322	0.1596	1183.6991	0.138011	-414.211922	-414.20363	-414.202686	-414.244318	32.503	
C	-0.0551377433	 1.4900483765	-0.0436827951	-0.496668
C	-0.0184822867	-0.0115449876	 0.0037212709	 0.313171
N	-0.0147841067	-0.6432733317	-1.1295915618	-0.250203
N	 0.0083808059	-1.983974285	-1.1080983316	-0.31502
C	 0.0333288087	-2.8278309888	 0.0138016749	 0.388416
N	 0.05800201	-4.1133295269	-0.0367549544	-0.578601
C	 0.0357993492	-2.089934554	 1.253156713	-0.217114
C	 0.0043170871	-0.7297689259	 1.2719443465	 0.27283
N	-0.0694934524	 0.0086016448	 2.441179296	-0.588646
H	 0.843095749	 1.9357715206	 0.4048691365	 0.124042
H	-0.1092477575	 1.8168111966	-1.08278946	 0.148281
H	-0.9218702415	 1.886842979	 0.4977222257	 0.138712
H	 0.0065729423	-2.4034327418	-2.0255330426	 0.25841
H	 0.0561182866	-4.4488418115	-1.001237659	 0.187908
H	 0.0587149735	-2.6779659296	 2.1632192051	 0.103612
H	 0.168400878	-0.4901584778	 3.285712737	 0.256349
H	 0.3246617477	 0.9359464531	 2.412914599	 0.254518
