23
gdb 76752	2.16262	1.51702	1.31948	1.2633	84.44	-0.2396	0.0749	0.3145	1150.8142	0.204837	-388.27002	-388.260451	-388.259506	-388.303963	37.259	
C	-0.0323444408	 1.6240026865	 0.0775846938	-0.414954
C	 0.0488269683	 0.103659698	 0.0273667052	 0.024369
C	 1.0628647963	-0.6087913191	-0.9480472192	-0.069202
C	 2.1010962449	 0.2335152172	-1.6805411592	-0.413307
C	 1.5230660722	-1.5282588827	 0.2376161154	 0.415572
O	 1.2633063404	-2.8988001994	 0.0850494274	-0.486527
C	 2.8080761394	-1.114998074	 0.9959793776	-0.29669
C	 1.9580613806	-0.1310894756	 1.8562530326	-0.23059
C	 0.6474620957	-0.6870853362	 1.2211292744	-0.083335
H	 0.9398434025	 2.0958215079	 0.2472303789	 0.114829
H	-0.4309727936	 2.0269853089	-0.8600982231	 0.112282
H	-0.6994173028	 1.9475280704	 0.884676939	 0.113511
H	-0.955600348	-0.2836250791	-0.1734649983	 0.075403
H	 0.5261086551	-1.2233860381	-1.6778917684	 0.06974
H	 2.6681871225	 0.8839667335	-1.0078371569	 0.118138
H	 2.8228516023	-0.401983246	-2.2068372024	 0.107153
H	 1.62456346	 0.8755342031	-2.4292522251	 0.114628
H	 1.8186872742	-3.2324647902	-0.6287949522	 0.272539
H	 3.1775844228	-1.9591626203	 1.5839328555	 0.102699
H	 3.6384712135	-0.6981509464	 0.4193542996	 0.088231
H	 2.0372702919	-0.2913594451	 2.9333485134	 0.102956
H	 2.1488953933	 0.9268444433	 1.6628279986	 0.097267
H	-0.0526917905	-1.1562840468	 1.9133668534	 0.065286
