17
gdb 85293	2.59461	1.61059	1.19181	4.7025	68.26	-0.26	-0.0106	0.2494	1062.6933	0.134747	-458.995963	-458.987661	-458.986716	-459.028652	31.14	
C	 0.1262753087	 1.4935198841	-0.0779422425	-0.406998
C	-0.0447239802	-0.0114943473	 0.0445523524	 0.071239
O	 0.5324205192	-0.6537772367	-1.1179900077	-0.249278
C	 1.3356444385	-1.7028993676	-0.7878950128	 0.473224
O	 1.7734576564	-2.4706345282	-1.5934004667	-0.340788
C	 1.5256968659	-1.6958081643	 0.7066486128	-0.217902
O	 2.0759062835	-0.439972346	 1.1532507612	-0.282213
C	 0.6617006977	-0.6393113654	 1.2452368804	 0.396456
C	 0.0403465153	-0.6165822853	 2.6117839266	-0.496446
H	 1.1877068216	 1.7499221427	-0.0524455351	 0.148658
H	-0.3037916392	 1.847345937	-1.0177203423	 0.138516
H	-0.3831901321	 2.0022991962	 0.7463488343	 0.122101
H	-1.1080826893	-0.2818036552	 0.0641878936	 0.098282
H	 1.8480786047	-2.5901324663	 1.2275627898	 0.125319
H	-0.1027071379	 0.413246095	 2.9556578411	 0.140048
H	-0.9365660971	-1.1099657436	 2.602948729	 0.135047
H	 0.6864280644	-1.1268247392	 3.3295080759	 0.144734
