16
gdb 10266	2.64403	1.70949	1.30952	4.7012	65.66	-0.2525	-0.0502	0.2022	983.1499	0.127863	-379.918785	-379.909704	-379.90876	-379.95272	31.059	
C	 0.1334331788	 1.4840602368	-0.0020778176	-0.329996
N	 0.0670995084	 0.028986865	 0.0897211461	-0.059954
C	 0.7703802882	-0.4854635878	 1.2635667556	-0.342602
C	-1.2795302703	-0.4955882358	-0.0478554533	-0.229406
C	-1.2260188214	-1.9911459674	-0.4129862057	 0.155229
O	-1.9876302265	-2.8252940884	-0.016788545	-0.214514
C	-2.1685376461	-0.236427946	 1.1058733654	 0.301702
N	-2.7995174799	 0.0257281267	 2.0375466462	-0.323794
H	 1.1828954603	 1.7911641488	-0.018490323	 0.131849
H	-0.3326284077	 1.8173746912	-0.9343826226	 0.125615
H	-0.3626124602	 1.9965375878	 0.8388728299	 0.126159
H	 0.3399209585	-0.1332049405	 2.2149998975	 0.132267
H	 0.7490665556	-1.5798327988	 1.2654384983	 0.134867
H	 1.8156250646	-0.1688963753	 1.2165323495	 0.132719
H	-1.7331756798	-0.0129709868	-0.9271228874	 0.149971
H	-0.3962431522	-2.2058502697	-1.1191909836	 0.109889
