17
gdb 44459	4.13176	1.42412	1.30402	4.1197	72.43	-0.2701	0.0079	0.2781	985.368	0.138227	-421.799424	-421.792987	-421.792043	-421.830111	26.784	
O	 0.0175660995	 0.0080937295	 0.0586119669	-0.315176
C	-0.0316391795	 1.198176255	 0.0277158467	 0.419944
C	-1.3087994678	 2.098233196	 0.1196102684	-0.49992
C	-0.6468331244	 3.4071450505	 0.4443767656	 0.303499
C	-0.5654855032	 4.9481307348	 0.2333045632	-0.318345
C	 0.8640237314	 4.5017638068	 0.7560668129	-0.100773
C	 0.1250522605	 3.6302111937	 1.7939419358	-0.256769
C	 0.7075916661	 3.3321209931	-0.2575490113	 0.133802
O	 1.112510004	 1.9737556188	-0.0912560185	-0.24997
H	-1.81284858	 2.0847596312	-0.8534334381	 0.139673
H	-1.9846645592	 1.6815933198	 0.867801861	 0.141768
H	-0.6281684183	 5.3097747928	-0.7963884592	 0.105095
H	-1.1360964026	 5.5783787833	 0.9178585001	 0.109458
H	 1.7238901372	 5.1520300657	 0.9151341539	 0.086077
H	-0.4265756337	 4.1608085153	 2.5731103654	 0.096409
H	 0.6720136813	 2.7783229485	 2.1991646725	 0.120484
H	 0.7699103986	 3.5977972049	-1.3171380554	 0.084745
