17
gdb 33920	3.41275	1.38738	1.17936	1.585	80.78	-0.2205	0.0057	0.2262	1071.2638	0.13549	-384.636273	-384.628458	-384.627514	-384.66827	31.025	
C	-0.0182440542	-1.1230584054	 0.056747206	-0.383413
C	-0.0226838389	 0.0777145241	 0.0067433211	 0.256461
C	-0.0023718208	 1.5131194471	-0.0709730943	 0.221678
C	 0.5673235202	 2.1553660201	-1.3143865732	-0.348074
C	 1.34928581	 2.2234214563	-0.0057954352	-0.14486
C	 1.348995868	 3.4885529341	 0.7619980214	-0.0402
C	 0.2093088411	 4.0864212819	 1.1089819333	-0.104262
C	-1.1233205667	 3.4826798866	 0.7620808955	-0.138718
O	-1.0848293114	 2.0642544837	 0.6269064017	-0.2993
H	-0.0202834417	-2.1836731786	 0.1068116985	 0.191555
H	 0.9270145795	 1.4944528087	-2.0939509602	 0.130891
H	 0.1191472298	 3.0781823201	-1.6645457849	 0.127655
H	 2.2312162817	 1.5984221684	 0.0711581428	 0.106114
H	 2.3093240618	 3.9110515909	 1.0418368932	 0.097999
H	 0.2051372326	 5.0209693377	 1.660669119	 0.098758
H	-1.8498378885	 3.6675519218	 1.5599135413	 0.12222
H	-1.5393451224	 3.9395110826	-0.1523812958	 0.105495
