10
gdb 4212	6.06795	2.70281	1.86991	1.0018	49.78	-0.2608	-0.0539	0.2069	593.2708	0.068855	-363.504227	-363.499332	-363.498388	-363.532944	18.01	
F	 0.0017645249	 0.0217409368	 0.0034256825	-0.064171
C	-0.0162935236	 1.3519791418	 0.0107392916	 0.216166
C	-1.2171871435	 2.0461170758	 0.0301336128	-0.082696
N	-1.2377979061	 3.3794191728	 0.037491369	-0.231563
C	-0.0521227801	 3.9909793143	 0.0252097172	 0.077676
N	 1.1497161817	 3.412003808	 0.0064569688	-0.231563
C	 1.1653106811	 2.0786326265	-0.0008351273	-0.082696
H	-2.1656210758	 1.5146674906	 0.0397137905	 0.135585
H	-0.0668704082	 5.0773277365	 0.0312536195	 0.127679
H	 2.1278224295	 1.573265987	-0.0160942046	 0.135585
