20
gdb 73099	2.59468	1.54469	1.29788	3.2655	79.8	-0.2506	0.0326	0.2833	1080.5165	0.171867	-403.175636	-403.167441	-403.166496	-403.208446	32.165	
C	-0.0937981502	 1.5712100513	 0.0949986278	-0.4568
C	 0.029960369	 0.0635682421	 0.0593015502	 0.399959
C	-1.229879057	-0.8131873099	 0.2753466399	-0.259239
C	-0.398480137	-1.7565495271	 1.1902871021	-0.240691
C	 0.7654286762	-0.7184262196	 1.1938532018	-0.060708
C	 2.0932026896	-1.1468575584	 0.5846272803	-0.317996
C	 1.8418977978	-1.0596822519	-0.9092576173	 0.391904
N	 2.5655577944	-1.5739878625	-1.8070833015	-0.541828
O	 0.7131659051	-0.3255796762	-1.1523546324	-0.278242
H	 0.893913683	 2.0431490741	 0.0748264007	 0.123235
H	-0.6598202568	 1.9316196948	-0.7700543944	 0.130975
H	-0.6130603043	 1.8921782854	 1.0030463766	 0.116841
H	-2.0140224746	-0.2769412655	 0.81648494	 0.102856
H	-1.6553806798	-1.2416185798	-0.6340123171	 0.112706
H	-0.8330342449	-1.9865502644	 2.164730101	 0.104634
H	-0.1217063923	-2.6973935893	 0.7072781296	 0.114154
H	 0.8636255884	-0.1720773973	 2.1327875494	 0.075192
H	 2.9042798785	-0.4588758942	 0.848683014	 0.129493
H	 2.416538503	-2.1521044935	 0.8622038716	 0.134833
H	 2.1900243918	-1.3603809683	-2.7328887022	 0.218722
