10
gdb 132822	2.47638	1.81232	1.04647	0.1807	51.88	-0.2888	-0.0481	0.2407	958.6717	0.053355	-562.003002	-561.996572	-561.995628	-562.034248	23.408	
F	 0.0018837279	 0.0521768873	 0.0044198115	-0.032577
C	-0.0187971584	 1.3688670395	 0.0110816345	 0.253378
N	-1.1881249408	 1.9707132102	 0.0295617077	-0.297724
C	-1.1605228326	 3.3029131802	 0.0356926023	 0.070587
N	-0.0741221459	 4.0743869486	 0.0249895406	-0.297724
C	 1.0808038944	 3.4453423953	 0.0065702097	 0.253377
F	 2.1815079822	 4.1681636495	-0.0045273072	-0.032577
C	 1.1895489959	 2.0583486415	-0.0016206264	-0.035788
F	 2.359073189	 1.4389837615	-0.0201713573	-0.028206
H	-2.1194814617	 3.8107628164	 0.0508813446	 0.147254
