23
gdb 109307	2.14939	1.43872	1.1284	1.415	87.89	-0.2296	0.0272	0.2568	1247.1437	0.204718	-388.317029	-388.306985	-388.306041	-388.351613	38.243	
C	 0.1278740679	 1.771615511	-0.1433089101	-0.370678
C	 0.01522044	 0.2366778226	-0.0733836775	-0.291222
C	 0.682232042	-0.4586880426	-1.2268761562	 0.321928
C	 1.8992149345	-1.0056742769	-1.2415480277	-0.182245
C	 2.2622205992	-1.6121609808	-2.5743064679	-0.256008
C	 1.159130878	-1.05817516	-3.5047937559	-0.266201
C	-0.0152914148	-0.6641982187	-2.5689725311	 0.301294
C	-1.0807469094	-1.7687792863	-2.4763182139	-0.437317
O	-0.638308018	 0.5635571015	-2.9612191274	-0.470655
H	 1.1774548039	 2.0819807884	-0.1250867142	 0.111111
H	-0.3211219817	 2.1469727499	-1.0646004813	 0.144245
H	-0.3785544269	 2.234743407	 0.7100097136	 0.101544
H	 0.4584745208	-0.1169138469	 0.864862411	 0.096338
H	-1.0466804563	-0.0370232272	-0.0405027365	 0.098657
H	 2.5617783294	-1.047780406	-0.382328261	 0.082748
H	 3.271067075	-1.3418905732	-2.906927034	 0.101954
H	 2.2417586969	-2.7104839748	-2.5276098978	 0.102587
H	 1.5059900436	-0.1391622146	-3.9860239546	 0.109406
H	 0.8615570675	-1.7600910898	-4.2902437724	 0.083055
H	-0.6319130928	-2.7265027481	-2.1956136123	 0.121983
H	-1.8472681129	-1.5154167148	-1.7383497942	 0.122955
H	-1.5748859661	-1.9046045616	-3.4470899719	 0.101451
H	-1.1976789601	 0.3813854021	-3.723482567	 0.273071
