16
gdb 66745	2.79663	1.92833	1.52072	1.2241	70.62	-0.2416	-0.021	0.2206	896.8703	0.124823	-400.682496	-400.675681	-400.674737	-400.713606	27.194	
C	-0.1495005762	 1.5344681113	 0.0167988697	-0.526239
C	-0.0308072034	 0.0468762039	 0.0075443637	 0.396454
C	 0.7287219173	-0.8338884997	-1.0639568259	-0.258601
C	-0.4081330219	-1.8186649603	-0.7577626607	-0.044518
C	-0.4191105222	-1.8289083742	 0.7417102009	-0.044521
C	 0.7130210016	-0.8485053048	 1.0779497921	-0.258595
C	 1.8005063533	-1.1047343937	 0.0131141181	 0.44034
O	 2.9850141919	-1.2523323689	 0.0207896979	-0.317192
N	-1.2805627852	-0.8609505192	-0.0077977702	-0.203648
H	 0.8418672967	 2.000617212	 0.0263522637	 0.133727
H	-0.6871588288	 1.8842715112	-0.8704700709	 0.137424
H	-0.6986639058	 1.8724256763	 0.901607992	 0.137403
H	 0.9522399771	-0.5378145741	-2.084974416	 0.095605
H	-0.8124291302	-2.6027870481	-1.3848201379	 0.108379
H	-0.8324597038	-2.6214849998	 1.3520121787	 0.108379
H	 0.9215170696	-0.5664086918	 2.1060785146	 0.095605
