18
gdb 66787	2.97278	2.23482	1.80599	1.9556	75.95	-0.2164	0.0703	0.2867	835.7157	0.14998	-364.744634	-364.738466	-364.737522	-364.774669	26.796	
C	-0.0392451706	 1.5150750582	-0.0144758133	-0.523308
C	-0.0325811028	 0.0100638547	-0.0486004995	 0.341364
C	 0.6567245977	-0.7506433558	-1.2207549452	-0.14242
C	 0.2758249548	-2.1823476477	-0.9244226481	-0.07187
C	 1.4789260569	-1.5754062377	-0.236831303	-0.081286
C	 0.787679489	-0.871620241	 0.9430398498	-0.069772
N	-0.45524147	-1.6420772706	 1.3771483661	-0.159526
C	-0.8801633363	-2.1988944478	 0.059944682	-0.062972
C	-1.2652161827	-0.8143591893	 0.4069040291	-0.110371
H	 0.9666006928	 1.9167165115	-0.1783587085	 0.120829
H	-0.6920659972	 1.9253304261	-0.7942463692	 0.119696
H	-0.3974989192	 1.8870591933	 0.9513952853	 0.124006
H	 0.9171663812	-0.3693515665	-2.2016583707	 0.083532
H	 0.4044721001	-2.9571120557	-1.6684026497	 0.090161
H	 2.4882670473	-1.9613141834	-0.3046291033	 0.088682
H	 1.36476269	-0.4581903126	 1.7676080284	 0.07444
H	-1.5762241427	-3.0275661046	 0.1084849553	 0.091809
H	-2.2630065884	-0.4562702312	 0.6419031045	 0.087005
