20
gdb 121968	6.09744	0.58211	0.55454	6.1658	77.88	-0.2787	0.037	0.3157	1984.2319	0.168544	-440.294001	-440.28335	-440.282406	-440.33097	36.784	
C	-0.1522688601	 1.4732242078	-0.1276760142	-0.387728
C	-0.0563415066	-0.0357893641	 0.0107957722	-0.034601
O	-1.368936093	-0.5725760103	 0.0312500942	-0.262466
C	-1.4146743447	-1.978078241	 0.142093861	-0.08466
C	-2.8849888772	-2.3680926948	-0.0036418145	 0.121647
O	-3.4041173061	-1.871421727	-1.2175612382	-0.431875
C	-3.0550374344	-3.8930953692	-0.0203558091	-0.345718
C	-4.4571403925	-4.30332749	-0.003189341	 0.273056
N	-5.5620777788	-4.6381974169	 0.0296999967	-0.305059
H	 0.8477177991	 1.9161111896	-0.1439404049	 0.122552
H	-0.665249988	 1.7434511124	-1.0551118945	 0.128298
H	-0.7083262637	 1.9019185434	 0.7106337438	 0.132148
H	 0.5126550663	-0.4709040181	-0.8268209158	 0.095156
H	 0.4716381146	-0.3085320162	 0.9387322813	 0.094747
H	-0.8208323367	-2.4498792917	-0.6588131803	 0.094598
H	-1.0115316096	-2.3124748119	 1.1121619486	 0.092636
H	-3.4355574814	-1.9547618147	 0.8561711157	 0.094622
H	-3.1152474787	-0.9517061069	-1.2709438691	 0.294718
H	-2.580014485	-4.2931231764	-0.9228607091	 0.159277
H	-2.5523980935	-4.335179404	 0.8471674272	 0.148652
