18
gdb 20076	4.20554	1.61285	1.46583	1.3969	67.04	-0.2429	0.0858	0.3288	920.8077	0.155298	-384.922679	-384.91535	-384.914406	-384.954901	27.211	
C	 0.3297975068	 1.4420442159	 0.2757214726	-0.172602
O	 1.2606628155	 0.3678428628	 0.0788068601	-0.241342
C	-0.1350324202	 0.0660467458	 0.083257584	 0.067796
C	-0.6222761601	-0.7931736797	 1.2339713681	 0.096266
C	-0.0514029954	-2.2363872133	 1.1677371723	-0.253818
C	 0.4532525502	-2.4864917868	 2.5995645865	-0.211566
C	 0.8037705269	-1.068238739	 3.050394538	-0.073579
O	-0.2206553703	-0.2491268917	 2.4906004679	-0.265294
H	 0.3183656432	 1.8577445729	 1.2791528719	 0.131329
H	 0.2646245351	 2.1544208203	-0.5454750338	 0.109584
H	-0.5394018242	-0.2162330167	-0.8919269118	 0.087582
H	-1.720885327	-0.7960056686	 1.2154241934	 0.078303
H	-0.8010160351	-2.961318153	 0.8437026508	 0.104826
H	 0.7822761252	-2.2728998052	 0.4603800184	 0.121983
H	-0.3461128826	-2.8913941834	 3.2284448427	 0.106416
H	 1.3027028647	-3.172744916	 2.6401637891	 0.103513
H	 0.7853306304	-0.9276483211	 4.1347696414	 0.103742
H	 1.7885736867	-0.7648621432	 2.6682497784	 0.10686
