20
gdb 16909	3.72594	1.75635	1.37485	1.3193	73.73	-0.2227	0.0794	0.302	963.6071	0.1788	-348.996678	-348.989177	-348.988233	-349.028133	29.75	
C	 0.0114930316	 1.5591698123	 0.0022687557	-0.403775
C	 0.0114554366	 0.0293504845	-0.0000408796	 0.023832
C	 0.681331047	-0.5259319974	-1.2589283226	-0.078465
O	 0.5482717128	-1.9341860598	-1.3700883775	-0.256688
C	 0.9023029021	-2.6751079692	-0.2380973999	 0.134853
C	 2.2341643338	-2.5347672917	 0.4458415813	-0.32957
C	 0.9626032241	-2.0477867282	 1.1311757874	-0.074181
C	 0.6995393626	-0.547378862	 1.2518565506	-0.227965
H	 1.0336872281	 1.9541319787	-0.0375662073	 0.114334
H	-0.5359073167	 1.96234095	-0.8563376988	 0.113282
H	-0.456774501	 1.9505918896	 0.9114530128	 0.115063
H	-1.027164651	-0.3278030122	-0.0162903068	 0.080457
H	 0.2120133885	-0.1214380405	-2.1611520815	 0.105189
H	 1.7437978012	-0.2270283959	-1.2821447046	 0.084948
H	 0.4867845957	-3.6729246123	-0.3320234781	 0.096729
H	 2.7192796205	-3.4325606507	 0.8134006929	 0.108068
H	 2.9201740996	-1.7740787435	 0.0871906403	 0.112677
H	 0.5994726466	-2.6542376341	 1.9548282376	 0.085516
H	 1.6412056638	-0.0087244912	 1.4239951656	 0.096344
H	 0.0744660041	-0.3516626563	 2.1294762624	 0.099352
