14
gdb 129486	4.67381	1.11219	0.89936	1.0664	66.93	-0.2202	-0.0364	0.1838	1201.6251	0.102472	-466.222375	-466.214201	-466.213257	-466.25533	29.908	
N	-0.1442074998	 1.3275240672	 0.0224004574	-0.565235
C	 0.0867964011	-0.0008362051	 0.0091479506	 0.525646
O	 1.1574617576	-0.5596278265	 0.0114801159	-0.371253
N	-1.1276762593	-0.7641604851	-0.0087056275	-0.013297
C	-1.2344480698	-2.1258466137	-0.0345496813	-0.15428
C	-2.5919715326	-2.3447753504	-0.0346316778	 0.318977
N	-3.320845036	-3.5222507046	-0.1177227487	-0.589756
N	-3.230599059	-1.1320908507	-0.0098721556	-0.243396
N	-2.3435119903	-0.1836715232	 0.0016428754	-0.155932
H	 0.6471504023	 1.9455162301	 0.0362196564	 0.277975
H	-1.0880260661	 1.6795229607	 0.0192336332	 0.291573
H	-0.3670916293	-2.7598163225	-0.0521670441	 0.165136
H	-2.911496131	-4.3030930528	 0.3750303673	 0.254021
H	-4.2846814378	-3.3823827036	 0.155161279	 0.259821
