15
gdb 126128	4.62928	1.01391	0.84026	2.0383	67.49	-0.2673	-0.0724	0.1949	1313.5645	0.111846	-453.961529	-453.953214	-453.95227	-453.995889	28.678	
C	-0.0471299354	 1.5196917266	 0.0748725015	-0.386393
C	 0.0268531559	-0.0002271131	-0.0442485209	-0.28378
C	 0.744326533	-0.4603575829	-1.2982172177	 0.297683
O	 1.205597133	 0.2899853245	-2.1233825115	-0.281902
C	 0.8698051838	-1.9467842164	-1.4951031661	 0.289288
N	 0.3900803903	-2.8067941432	-0.6300440952	-0.15485
O	 0.7122741945	-4.0416841716	-1.180157542	-0.150746
C	 1.3568870925	-3.7790879361	-2.3255567777	 0.111277
N	 1.4911101246	-2.521509504	-2.5855162631	-0.282294
H	 0.9527592067	 1.9602802872	 0.0983419055	 0.134087
H	-0.5741755192	 1.9545227735	-0.7780591934	 0.13435
H	-0.5730873394	 1.8049848751	 0.9896979217	 0.115057
H	 0.5350770464	-0.4515218625	 0.8177150636	 0.140659
H	-0.97163784	-0.4566209222	-0.0440172449	 0.140578
H	 1.6917470434	-4.6274453048	-2.9040329699	 0.176985
