19
gdb 35962	3.19465	1.19103	0.92755	1.9649	77.85	-0.2566	0.0374	0.294	1258.9197	0.159524	-422.984131	-422.975506	-422.974562	-423.017913	32.494	
C	 0.1784728835	-1.2277464585	 0.0702881442	-0.402918
C	 0.1165046604	-0.0289729157	 0.0321206752	 0.306611
C	 0.0021836777	 1.4285864253	 0.0023092087	-0.094125
C	-0.831095906	 1.9418904255	 1.1970978672	-0.190766
C	-1.3682892325	 3.3875552873	 1.079259256	-0.227957
C	-0.5752170505	 4.3332195838	 0.1660433504	-0.074029
O	 0.8325705474	 4.2559916093	 0.3355932376	-0.229442
C	 1.4537986063	 3.274630192	-0.4455080791	 0.011298
O	 1.3274472639	 1.9656786585	 0.0385982481	-0.241959
H	 0.2440984152	-2.2873794294	 0.0968603256	 0.196354
H	-0.4792768439	 1.7156254847	-0.9482021793	 0.094263
H	-1.6694706225	 1.2576185852	 1.357878899	 0.112862
H	-0.1782990933	 1.8512326362	 2.06987373	 0.128524
H	-2.3989557005	 3.3753639664	 0.7031938903	 0.102454
H	-1.4171529756	 3.8161421995	 2.0856469345	 0.112877
H	-0.8240765237	 4.1413483233	-0.889555669	 0.090122
H	-0.8597087154	 5.3689168411	 0.3786499161	 0.108084
H	 1.0707867084	 3.330160671	-1.4818688663	 0.078332
H	 2.5242234411	 3.4897905143	-0.425444349	 0.119415
