14
gdb 132553	3.17239	1.4116	0.98284	1.8424	67.15	-0.2519	-0.0366	0.2153	1109.5121	0.101635	-478.051809	-478.044284	-478.04334	-478.084107	27.805	
C	-0.0731944328	 1.526258212	 0.0422397707	-0.503112
C	-0.0148729061	 0.0265518362	-0.0123925186	 0.082584
C	-0.0535605959	-0.7189730677	-1.187311561	-0.040821
N	-0.002089578	-2.0521944546	-1.2403077883	-0.299493
C	 0.0920279691	-2.6592274905	-0.0652187203	 0.460216
O	 0.1451244288	-3.9965718465	-0.0927726376	-0.387741
N	 0.1392873463	-2.0770284644	 1.1404817014	-0.406196
C	 0.0850615011	-0.7668195648	 1.1310984566	 0.297873
F	 0.1304359779	-0.1708176271	 2.3154923574	-0.055633
H	 0.8185730912	 1.9455985575	 0.5196120811	 0.143881
H	-0.1468501847	 1.9442128182	-0.9650352812	 0.131227
H	-0.9372865832	 1.873806171	 0.6180862499	 0.143883
H	-0.1309033318	-0.206137288	-2.1444028773	 0.123376
H	 0.2113168283	-4.2908577312	 0.8256123072	 0.309956
