16
gdb 15356	4.18567	1.2125	1.08568	5.3339	65.83	-0.2474	0.0291	0.2765	1089.6026	0.130172	-379.887342	-379.879087	-379.878142	-379.920589	29.398	
O	 1.1259545094	-1.008582267	-0.0864919093	-0.398683
C	 0.0945923204	-0.0478924576	-0.2516720263	-0.117618
C	-1.3212797217	-0.5589060455	-0.0230994768	-0.006043
C	-1.6440425157	-2.0137222883	 0.0135612601	-0.253365
N	-1.7745440048	-1.1943321419	 1.2173863414	-0.088314
C	-0.7963436686	-1.4111617148	 2.2854138287	-0.307157
C	-1.232684969	-2.5085808617	 3.1547202574	 0.282034
N	-1.5546176986	-3.3839845453	 3.8359035825	-0.304362
H	 1.0732505334	-1.632565685	-0.81767443	 0.291179
H	 0.3200312497	 0.7521071325	 0.463211587	 0.126914
H	 0.1304778283	 0.4057738273	-1.2531728003	 0.108633
H	-2.0695863735	 0.1187480786	-0.4336327395	 0.104253
H	-2.5727417049	-2.3912949905	-0.4039965028	 0.128719
H	-0.8083656949	-2.7094616778	-0.02873088	 0.114252
H	 0.2170710809	-1.6336863954	 1.9235735595	 0.167073
H	-0.7366993206	-0.4983512576	 2.8896699683	 0.152484
