23
gdb 103466	2.2696	1.48499	1.1172	1.3138	85.66	-0.2259	0.074	0.2998	1220.1548	0.204656	-388.266014	-388.256295	-388.255351	-388.299804	37.957	
C	 0.2855415262	 1.3851068942	 0.3086309208	-0.377933
C	-0.1803991897	-0.0039269447	-0.1484725768	-0.25694
C	 0.6225738178	-0.5714272229	-1.3148152734	 0.308424
C	 0.4129364094	 0.1750792468	-2.62650388	-0.453658
C	 2.0468436427	-1.0966563035	-1.1514722091	-0.185085
C	 2.2324752355	-1.8249200862	 0.1841754448	-0.243101
C	 1.0693725364	-2.8020801079	-0.1866573233	-0.302023
C	 0.8724477752	-2.0408064414	-1.5009618531	 0.335181
O	 0.487686643	-2.6510702324	-2.6829984832	-0.454825
H	 1.3428626477	 1.3695571744	 0.5943286472	 0.11766
H	 0.1672993406	 2.1358288206	-0.4785970478	 0.117034
H	-0.2912209374	 1.7245610166	 1.1747782173	 0.108481
H	-0.1433528292	-0.684127639	 0.7077236261	 0.095965
H	-1.2370758843	 0.0432982112	-0.4436460112	 0.093592
H	 0.7065602737	 1.225229598	-2.5315225111	 0.110447
H	 0.9937476581	-0.269374633	-3.4368971558	 0.121067
H	-0.6405833256	 0.14506445	-2.9255576478	 0.116365
H	 2.8481239695	-0.714133483	-1.7738333531	 0.079077
H	 3.195328961	-2.3349354095	 0.2625771777	 0.098827
H	 2.0884848777	-1.2262970148	 1.0888432238	 0.099739
H	 1.4417322734	-3.8156409465	-0.3673926842	 0.090359
H	 0.2122243139	-2.8709080866	 0.490962042	 0.099768
H	 1.0887871642	-3.3847918104	-2.8528673799	 0.281579
