15
gdb 125710	3.17635	1.47297	1.01263	2.7196	74.78	-0.2339	-0.0542	0.1796	1117.796	0.112958	-450.133945	-450.125774	-450.12483	-450.166585	30.67	
C	-0.250952806	 1.4764331659	 0.0133575448	-0.450019
C	 0.027909263	 0.0016449643	-0.0088838275	 0.387863
N	 0.1558878846	-0.5244802083	-1.1838079873	-0.166204
O	 0.4206543101	-1.9254764958	-1.199015167	-0.27584
C	 0.5291464547	-2.6467536354	-0.0663392356	 0.383096
N	 0.7644880444	-3.896740331	-0.0409454626	-0.551836
C	 0.3559203632	-1.892793045	 1.1980971875	 0.366241
N	 0.4659302022	-2.6210358042	 2.3138158879	-0.53955
N	 0.1144192838	-0.6158241584	 1.2202233808	-0.382522
H	 0.5349761014	 1.9919719585	 0.5742010377	 0.14128
H	-0.3011770095	 1.874678956	-1.0000798324	 0.14494
H	-1.196366343	 1.6652460104	 0.5315844126	 0.141283
H	 0.8594794941	-4.2779268854	-0.9828697548	 0.235631
H	 0.6545932971	-3.606555686	 2.2178162246	 0.291768
H	 0.3614223898	-2.1817629355	 3.2122825313	 0.273869
