25
gdb 100765	2.70825	0.94068	0.82179	0.6807	85.6	-0.247	0.0685	0.3156	1561.1826	0.225443	-426.623352	-426.611531	-426.610587	-426.660343	43.01	
C	-0.2083989415	 1.3435697779	-0.0376413187	-0.236767
O	-0.0039450298	-0.0479931688	-0.0192845121	-0.249214
C	 0.7033975634	-0.5361940081	 1.1219412194	 0.155856
C	-0.2359119918	-0.6623983898	 2.3240994186	-0.422608
C	 1.3495751284	-1.8672854662	 0.6810402516	 0.003256
C	 2.3339424283	-1.6202532471	-0.4725346742	-0.422285
C	 1.9909829448	-2.6179763012	 1.8697320996	 0.124897
C	 2.6032475486	-3.9680036822	 1.492009069	-0.415703
O	 2.9362788089	-1.8020528891	 2.5660577396	-0.43823
H	 0.7428723463	 1.8966025832	 0.0150717547	 0.101519
H	-0.702555453	 1.5844838219	-0.9827593987	 0.123234
H	-0.8504339305	 1.692457006	 0.7849250413	 0.10448
H	 1.5086584201	 0.1711402528	 1.3754106445	 0.067007
H	-0.9746217381	-1.454540094	 2.1616236454	 0.115169
H	 0.3227163026	-0.8776575388	 3.2380912766	 0.135787
H	-0.7776260946	 0.273592722	 2.4868285781	 0.111557
H	 0.5318821726	-2.4984877157	 0.3052774971	 0.077843
H	 2.6745975819	-2.5537940506	-0.9279648461	 0.112126
H	 1.8516591405	-1.0209522797	-1.2461332152	 0.137086
H	 3.2188884043	-1.0671559071	-0.1323677614	 0.09539
H	 1.2094476216	-2.8069167659	 2.6123675554	 0.090326
H	 3.4503241447	-3.8513670871	 0.8069901636	 0.111548
H	 2.9659878486	-4.4735116937	 2.3911532988	 0.122377
H	 1.8664046327	-4.6145602029	 1.0039050243	 0.116272
H	 3.7070547012	-1.6956777859	 1.9985264189	 0.279076
