21
gdb 61306	5.25249	0.70001	0.65557	4.2441	84.61	-0.2349	0.0236	0.2585	1716.1456	0.181823	-383.251677	-383.241842	-383.240898	-383.287064	35.66	
C	-0.3669098112	 1.3099208258	 0.1434520047	-0.338811
N	 0.0561305325	-0.0721430216	-0.0543963309	-0.066889
C	 0.8436207091	-0.5636576132	 1.066625857	-0.278452
C	 2.1168569265	 0.154787866	 1.2068282576	 0.275346
N	 3.1177994823	 0.7170952	 1.3336128339	-0.309418
C	-1.0514630333	-0.981721971	-0.3519636033	-0.150628
C	-1.7112966783	-0.6974350881	-1.6823396963	 0.008083
C	-3.0388893655	-1.3418747893	-1.9927985376	-0.278515
C	-2.9601287583	 0.1469822769	-1.779840198	-0.252687
H	 0.5082925733	 1.9408704299	 0.3189807041	 0.145693
H	-0.8736875827	 1.6700980764	-0.7524680723	 0.140671
H	-1.0559435027	 1.4254805268	 1.0019745933	 0.09197
H	 0.3133698616	-0.4998214215	 2.0380325447	 0.125279
H	 1.0739006906	-1.6224607036	 0.9037763494	 0.151054
H	-0.6389012432	-1.9984721918	-0.3718355383	 0.10418
H	-1.8213281271	-0.968829472	 0.4468589327	 0.075796
H	-1.0073290799	-0.6176702309	-2.5056205495	 0.097152
H	-3.2049375905	-1.7153441416	-2.9967505072	 0.116951
H	-3.5052012234	-1.9388680574	-1.2153162029	 0.112888
H	-3.3758689989	 0.5465118584	-0.8603413698	 0.113299
H	-3.0746340211	 0.7990593519	-2.6387143611	 0.117038
