18
gdb 61273	3.38971	0.82667	0.69879	6.652	73.45	-0.2651	-0.0333	0.2317	1578.6456	0.144158	-439.120666	-439.110271	-439.109326	-439.157335	35.895	
C	 0.1457051579	 1.3904857432	 0.1469459689	-0.47208
C	 0.3388686944	-0.088679056	-0.1219636631	 0.383583
O	 1.2925509508	-0.698428785	 0.3091224416	-0.290095
C	-0.7426095168	-0.7654741574	-0.9582474716	-0.348025
C	-0.6994209628	-2.3003851429	-0.9757310693	 0.137305
O	-1.9106852265	-2.8324044323	-1.4800580867	-0.421296
C	 0.529207768	-2.8329349698	-1.743387549	-0.37707
C	 0.5765554698	-4.2918111203	-1.787752316	 0.271314
N	 0.6270129846	-5.4452911199	-1.8255698871	-0.305806
H	 1.0299379266	 1.7973715507	 0.6383750186	 0.150357
H	-0.0524514643	 1.9347548199	-0.7827697395	 0.139602
H	-0.7284081868	 1.5370210014	 0.792193687	 0.150029
H	-1.7265819602	-0.4549249205	-0.587627805	 0.137265
H	-0.6757345938	-0.3650627002	-1.9819143137	 0.119492
H	-0.6384117799	-2.6615417182	 0.0550880426	 0.126953
H	-1.9857895839	-2.6012848641	-2.412924014	 0.282428
H	 0.5191369251	-2.4511395731	-2.7734956166	 0.131164
H	 1.4344944479	-2.4536561053	-1.2607738171	 0.184881
