14
gdb 21994	4.02583	1.11951	0.87593	2.7894	72.57	-0.1907	-0.0179	0.1728	1215.1239	0.100941	-473.807948	-473.800129	-473.799185	-473.840159	29.664	
O	-0.1228227905	 1.3568868705	 0.1090294187	-0.407008
N	 0.0492409552	-0.0454645966	 0.0737277767	-0.264613
C	-1.0881466805	-0.648140815	-0.0471260373	 0.367933
C	-2.39700974	-0.0061286285	-0.1382878458	-0.224214
C	-3.5016674777	-0.7453871197	-0.2612021143	 0.044349
O	-3.4986300471	-2.115405464	-0.310098749	-0.249994
C	-2.289964237	-2.7385870758	-0.2269866546	 0.477903
O	-2.4209339893	-4.0724034506	-0.2862398628	-0.411051
C	-1.1188898435	-2.0966474925	-0.1017816244	-0.347178
H	 0.784764364	 1.6626897619	 0.1991766529	 0.303476
H	-2.4714412416	 1.0706142008	-0.1061411749	 0.137107
H	-4.5107749025	-0.3634646171	-0.3355423002	 0.141548
H	-3.359560126	-4.2776670622	-0.3756642114	 0.309429
H	-0.2021680636	-2.6661952613	-0.0422258035	 0.122314
