23
gdb 103434	2.22903	1.51165	1.31059	1.115	85.32	-0.2379	0.0838	0.3217	1156.1114	0.204184	-388.257676	-388.247973	-388.247029	-388.29141	37.477	
C	 0.0374435776	 1.3336504729	 0.2310514396	-0.248939
O	 0.0771637886	-0.0674330041	 0.058973541	-0.286137
C	 0.6501543219	-0.5555256906	-1.143895866	 0.405966
C	 2.0070770602	 0.0713053125	-1.4555553322	-0.467225
C	 0.7117798564	-2.0829803358	-1.1291485922	-0.08052
C	-0.6599316884	-2.6790986732	-1.0147930213	-0.296867
C	-0.2073626248	-2.1563246453	-2.3496800553	-0.051731
C	-0.3123620193	-0.6265172137	-2.4135878505	-0.046134
C	-1.7009612524	 0.0011494254	-2.3616357579	-0.413386
H	 1.0336986717	 1.7628769156	 0.4062674757	 0.107327
H	-0.4164869857	 1.8524369325	-0.624083235	 0.106173
H	-0.5779363067	 1.5220206088	 1.1149121304	 0.123576
H	 2.6776925041	-0.0233307804	-0.5943822295	 0.120116
H	 2.4679221184	-0.443819192	-2.3030271116	 0.121442
H	 1.9245614927	 1.1309484726	-1.7162861826	 0.114633
H	 1.6101285216	-2.6494494746	-0.9122218017	 0.077324
H	-0.6797819984	-3.7609671403	-0.9283536086	 0.106455
H	-1.4258544727	-2.1724271728	-0.4376844151	 0.120482
H	-0.1178419042	-2.8051680615	-3.2128984373	 0.078942
H	 0.2267018836	-0.2456729631	-3.2873965638	 0.062507
H	-2.2133708716	-0.2260885702	-1.4234425192	 0.125563
H	-1.656256615	 1.0908222651	-2.4612086955	 0.109394
H	-2.3187186274	-0.3777903479	-3.1836550215	 0.11104
