23
gdb 115620	2.39377	1.16692	0.95541	1.7271	86.14	-0.2196	0.0746	0.2942	1387.2858	0.204282	-388.266058	-388.256127	-388.255183	-388.301138	36.951	
C	 0.0038395578	 1.560169497	-0.0547444264	-0.384618
C	-0.1164803688	 0.0787107035	 0.316429233	-0.192471
C	-1.4827508147	-0.5082254326	-0.0212114518	-0.118407
C	-1.7950953863	-0.7615082175	-1.51635738	-0.08865
O	-1.9624824671	-2.1791617258	-1.2935148383	-0.310549
C	-1.6654891086	-2.0239172905	 0.0958821005	 0.447718
C	-0.8623423972	-3.0425925826	 0.8428696411	-0.368787
C	-2.3470143423	-2.8489365298	 1.1378833912	-0.072105
C	-2.8052850314	-2.2475445743	 2.4473957017	-0.409639
H	 0.9945041704	 1.9526173304	 0.1935972062	 0.115405
H	-0.1542559052	 1.7157560476	-1.1276992945	 0.118732
H	-0.7384985247	 2.1640035621	 0.4790190706	 0.115505
H	 0.6590569397	-0.5011294683	-0.1996867158	 0.103677
H	 0.0734336824	-0.0461286215	 1.3903514799	 0.097378
H	-2.2708938014	 0.0565361648	 0.4883495228	 0.0764
H	-2.7090147074	-0.301202495	-1.9085426259	 0.101316
H	-0.9643231234	-0.5547217199	-2.2036440047	 0.097756
H	-0.5644941534	-3.9324641448	 0.2984373743	 0.119103
H	-0.1427069763	-2.6979785836	 1.5803685959	 0.108107
H	-2.9934189856	-3.6237413288	 0.7321686971	 0.093522
H	-2.1315567825	-1.448076428	 2.774650335	 0.113134
H	-3.8103029812	-1.8191798613	 2.3618555454	 0.118115
H	-2.8295585227	-3.0006329211	 3.2427910428	 0.119359
