17
gdb 90318	2.54564	1.71772	1.23312	3.5491	75.61	-0.2341	-0.0139	0.2202	1025.2074	0.13555	-421.816991	-421.809137	-421.808193	-421.849507	30.198	
O	 0.045763563	 1.4138722568	 0.0694700448	-0.417178
C	 0.0932102501	 0.0096912878	 0.0488148374	 0.109156
C	 0.1346486596	-0.6581919386	 1.4889897805	-0.351265
C	-1.3688284011	-0.724204343	 1.3668510819	 0.265866
C	-2.4798575929	-0.2718680427	 1.9461736206	-0.211652
C	-3.4894620673	 0.127613821	 0.8895056171	-0.356921
C	-2.6342635221	 0.2326870601	-0.4099279449	 0.392086
O	-2.9441449892	 0.8079317126	-1.4137964954	-0.295289
C	-1.3531427226	-0.573598312	-0.1255381544	-0.186853
H	 0.9128512279	 1.7426021015	 0.3274034393	 0.288859
H	 0.8435079537	-0.3645280979	-0.6594459703	 0.075086
H	 0.6339284604	-1.6322044559	 1.4518671487	 0.111206
H	 0.557677455	-0.0600977841	 2.3009745263	 0.10809
H	-2.6104245288	-0.0469990522	 2.9985154468	 0.09895
H	-4.2923346738	-0.6038628616	 0.7200147797	 0.132214
H	-3.9823232555	 1.083382369	 1.0992088559	 0.134106
H	-1.3427541766	-1.4885000905	-0.7280715639	 0.10354
