19
gdb 95106	2.59069	1.65306	1.19835	4.3267	79.82	-0.2195	0.026	0.2456	1070.663	0.16087	-382.066147	-382.057959	-382.057015	-382.098665	31.804	
C	-0.5084337855	 1.4454943748	 0.3827267146	-0.350523
N	 0.0971995549	 0.1574995927	 0.0342496148	-0.128125
C	-0.8956674936	-0.8316129665	-0.4364792646	-0.194488
C	-1.293268416	-1.7143537112	 0.77874429	-0.230742
C	-0.0530711381	-1.6912159784	 1.6521376708	-0.08969
C	 1.2689596947	-1.8988947076	 0.9618914363	-0.33528
C	 0.7607363667	-0.4830245629	 1.1647535928	 0.256299
C	 1.4801944474	 0.3564636453	 2.0810350598	 0.214185
N	 2.0650336713	 1.0143785024	 2.8320791863	-0.358776
H	 0.2649847064	 2.1347472353	 0.7285772816	 0.152014
H	-0.9592302087	 1.8718594877	-0.5169374435	 0.12513
H	-1.2836079342	 1.3821055045	 1.1658948241	 0.102927
H	-1.7482227827	-0.3169870813	-0.8833474598	 0.112788
H	-0.4492380221	-1.4506474559	-1.2209926657	 0.114647
H	-2.1375878489	-1.2842330248	 1.3272493373	 0.113967
H	-1.5806345764	-2.7223166783	 0.4646713747	 0.112225
H	-0.1339347594	-1.917894431	 2.7081987395	 0.111884
H	 2.1093347757	-2.1940116966	 1.5788604422	 0.14014
H	 1.3004883385	-2.2831500881	-0.0513429413	 0.131421
