18
gdb 124477	3.20786	1.21686	1.08332	1.6978	73.21	-0.2638	-0.0114	0.2524	1169.6566	0.146094	-439.086456	-439.077554	-439.07661	-439.12027	33.459	
C	-0.1980246972	 1.5408921135	-0.0362487958	-0.420774
C	 0.0000366779	 0.0218903834	 0.0014728276	 0.237341
C	 0.8098484869	-0.4007248835	 1.2340245697	-0.392219
O	-1.257517977	-0.6493719726	 0.1323101241	-0.451916
C	 0.6902656251	-0.4801494915	-1.2544254323	 0.353304
N	 1.4905099533	 0.283651943	-1.9594110736	-0.213444
O	 1.950418065	-0.5095039355	-3.0083939608	-0.169721
C	 1.4013963681	-1.7281781418	-2.8982828544	 0.077477
C	 0.5912287762	-1.7897897139	-1.8140018668	-0.335601
H	 0.7587663568	 2.0600943012	-0.1250783989	 0.143606
H	-0.8081755546	 1.8311863555	-0.8980236938	 0.112089
H	-0.7030656434	 1.8642902064	 0.8778054948	 0.117908
H	 0.2892717064	-0.0803365341	 2.1407701306	 0.123864
H	 0.9191814774	-1.4879266477	 1.2642289355	 0.124765
H	 1.8043354315	 0.0514237027	 1.2119403955	 0.129486
H	-1.8316928232	-0.3389215704	-0.5766303847	 0.279601
H	 1.678308155	-2.4373589553	-3.6631585629	 0.152167
H	 0.0023533658	-2.6157191294	-1.4548470137	 0.132067
