14
gdb 42147	3.59691	0.74079	0.64234	3.6194	86.	-0.2605	-0.0836	0.1769	1662.1432	0.099076	-399.459768	-399.450815	-399.449871	-399.495216	30.931	
O	 0.0377598757	-0.0268592554	-0.4584974806	-0.268289
C	-0.034242454	 1.1549128277	-0.1800842297	 0.154221
C	 1.1438174949	 1.9705390785	 0.0516426441	 0.284165
C	 2.1270304447	 2.6383480409	 0.2410898335	-0.477807
C	-1.2839436891	 1.8601962565	-0.0527204821	 0.084563
C	-2.3398275608	 2.4406029799	 0.056955662	 0.03134
C	-3.5865533603	 3.1296610266	 0.1614902041	-0.16863
C	-3.7828704787	 4.1120983286	 1.2788761933	-0.221072
N	-3.6447802021	 4.5928529328	-0.0905919367	-0.295529
H	 3.0018090071	 3.2192873147	 0.4063822043	 0.220159
H	-4.4553783084	 2.5921377799	-0.2073964704	 0.134135
H	-4.7769101008	 4.208554517	 1.7053299025	 0.138396
H	-2.9615735067	 4.2458015909	 1.9762400348	 0.135292
H	-2.7009333116	 4.9405453215	-0.2445938191	 0.249057
