23
gdb 114673	3.14288	1.25436	1.19126	0.1611	88.85	-0.2312	0.0233	0.2545	1197.7217	0.209013	-351.172658	-351.164686	-351.163742	-351.204891	32.828	
C	 0.0612880841	 1.6221871346	-0.0464049063	-0.383409
C	 0.055886175	 0.0898479551	-0.0493601718	-0.196024
C	 0.6554499311	-0.5229048017	 1.2192216007	 0.070492
C	-0.1723744657	-0.2998923867	 2.5283350993	-0.224374
C	-0.3211541856	-1.7485887341	 3.1088322014	-0.05327
C	 1.0408180818	-2.3592324224	 2.7005666667	-0.215592
C	 0.8167652858	-2.0873025351	 1.1947114704	-0.077527
C	-0.5687754845	-2.6907914804	 1.0165731213	-0.071679
C	-1.2429835846	-2.4925566255	 2.1540250621	-0.077537
H	 1.0809779041	 2.0139633772	 0.0433753271	 0.110736
H	-0.3682499461	 2.0227055837	-0.9701618458	 0.108966
H	-0.5197822032	 2.0239487739	 0.7905425646	 0.116721
H	-0.9708685888	-0.2743597332	-0.1765568974	 0.096052
H	 0.6203164725	-0.2688716452	-0.9209690306	 0.086312
H	 1.6579890661	-0.0977585263	 1.3567016205	 0.062752
H	 0.3562021737	 0.3495208888	 3.2327814755	 0.092064
H	-1.1481562695	 0.154073057	 2.3324272092	 0.094245
H	-0.5914830234	-1.7844068164	 4.1648622488	 0.054538
H	 1.9021321415	-1.8250269887	 3.1164807668	 0.084109
H	 1.1165395261	-3.4239327776	 2.9353409245	 0.091933
H	 1.5858818196	-2.4359048491	 0.5033711094	 0.051481
H	-0.9488006165	-3.1072077868	 0.0920518794	 0.090333
H	-2.2870571735	-2.7067250109	 2.3474578444	 0.088678
