17
gdb 43385	2.33868	1.94959	1.25885	4.8312	74.23	-0.2307	-0.0567	0.1741	1000.4006	0.137823	-421.833629	-421.826286	-421.825341	-421.865917	27.921	
O	-0.0310040048	 0.0314557323	-0.361373891	-0.33072
C	 0.0038264955	 1.2359880587	-0.2134601225	 0.382858
C	-1.1666862427	 2.0101884991	 0.2428579532	-0.15296
C	-1.2559963041	 3.3381846196	 0.0922003038	-0.044467
C	-0.1882138113	 4.1888199398	-0.537224469	-0.299371
C	 1.2042680063	 3.5612582529	-0.4848103611	-0.080657
C	 1.8901089057	 3.4812054657	 0.8963254857	-0.076107
O	 2.0444739929	 2.0508657567	 0.7915607598	-0.285456
C	 1.2992600144	 2.0123760808	-0.4537659253	 0.017586
H	-1.9918613129	 1.4263734423	 0.6391095747	 0.112906
H	-2.1710093431	 3.8468311942	 0.3888181274	 0.111222
H	-0.4793514593	 4.3899193847	-1.5785074096	 0.129981
H	-0.1640204633	 5.1738538575	-0.0533971002	 0.119386
H	 1.8507089959	 4.002871876	-1.2453573355	 0.09041
H	 2.8558371723	 3.9897672729	 0.9945552894	 0.107969
H	 1.2490447167	 3.7622860651	 1.7424909664	 0.103281
H	 1.8692458817	 1.5224937418	-1.249620116	 0.094139
