13
gdb 21937	3.33803	1.86316	1.2963	2.2491	55.77	-0.2396	-0.0077	0.2319	886.5495	0.097124	-431.912378	-431.905024	-431.90408	-431.944757	26.174	
O	 0.1959561931	 1.3746888335	-0.0311070828	-0.412389
C	 0.0974856322	-0.045924568	-0.0377897958	-0.16689
C	-1.3158561331	-0.5329184752	-0.0522500524	 0.203842
N	-1.9808975981	-0.8484747096	 1.0645655218	-0.256993
N	-3.1887319172	-1.1696273675	 0.640237996	-0.088036
N	-3.3939188736	-1.1021619596	-0.6805093979	-0.30353
C	-2.2141988663	-0.6937695494	-1.1301807812	 0.318281
O	-1.9457647379	-0.4874763881	-2.4297332443	-0.418428
H	-0.2681080854	 1.6868972154	 0.7529549532	 0.284535
H	 0.6104426127	-0.3701601438	-0.9473586701	 0.126797
H	 0.6161414303	-0.4900312799	 0.8229632232	 0.107846
H	-3.9128220714	-1.4727512175	 1.2694813089	 0.294195
H	-2.7432455453	-0.6910270903	-2.9337828086	 0.310771
