16
gdb 48576	4.96104	0.95317	0.91535	1.5639	71.87	-0.2547	-0.0607	0.1941	1251.4637	0.122721	-437.822845	-437.814527	-437.813583	-437.856804	29.667	
O	-0.5205307046	 0.6996206294	-0.6518902453	-0.237699
C	 0.177151281	 1.0790032571	 0.2533582356	 0.033142
C	 1.3872048129	 1.9367379176	 0.0651096933	 0.244008
C	 2.8763262852	 1.4776353007	 0.1673468641	-0.26716
C	 2.8429290753	 3.028370207	-0.01390699	 0.243997
C	 1.7825990836	 2.8421678118	-1.1310351133	-0.310333
N	 1.7609108113	 3.0301386566	 1.0656558414	-0.38906
C	 4.0139677369	 3.9560380327	 0.045048586	 0.033127
O	 4.5091131104	 4.469773873	-0.9250406042	-0.237708
H	-0.024362694	 0.8038362782	 1.3125465271	 0.092911
H	 3.1916199035	 1.1283181033	 1.1499140271	 0.125583
H	 3.2706620206	 0.8917374172	-0.6622985028	 0.125939
H	 2.0941798877	 2.3594894259	-2.0590549575	 0.122299
H	 1.1301077731	 3.6989842725	-1.3148975288	 0.1113
H	 1.1469770547	 3.8373782925	 0.9076312586	 0.216737
H	 4.4064872324	 4.1274945145	 1.0720534386	 0.092916
