17
gdb 124966	3.15592	1.19533	0.87631	2.555	80.15	-0.2255	0.0278	0.2533	1284.5457	0.135829	-380.86555	-380.856507	-380.855563	-380.901289	32.299	
C	-0.9578156857	 1.4348409876	 0.3665166538	-0.513825
C	-0.2569939645	 0.1261322995	 0.1651716324	 0.106592
C	 0.4079239481	-0.318054708	-0.9672476143	 0.314145
C	 0.6285951032	 0.3456069787	-2.3007448506	-0.481806
C	 1.3929700012	-0.4731080443	-3.2368794489	 0.282449
C	 2.0240954908	-1.1689948311	-3.9864655074	-0.422099
N	 0.8762063166	-1.5551663432	-0.67373872	-0.243494
N	 0.5705360372	-1.9634755161	 0.5699205919	-0.240712
C	-0.1168111637	-0.9431522019	 1.0781260792	-0.07514
H	-0.2803638015	 2.2902089943	 0.253984882	 0.124441
H	-1.7791175825	 1.5799593079	-0.345993638	 0.124458
H	-1.3864882601	 1.4910447959	 1.3708022717	 0.129666
H	-0.3410491708	 0.6002801137	-2.7505915788	 0.1551
H	 1.1440802657	 1.3048783872	-2.1541280283	 0.155094
H	 2.5803087474	-1.764836096	-4.6675782329	 0.206175
H	 1.4057894362	-2.1517370807	-1.2889133111	 0.273323
H	-0.4951129378	-1.0012690736	 2.0893746293	 0.105635
