14
gdb 26572	2.38952	1.89531	1.05696	4.8433	68.59	-0.2008	-0.0149	0.186	1032.7873	0.102571	-473.890771	-473.883284	-473.882339	-473.922416	29.139	
O	 0.2050478506	 1.35648772	 0.0148085833	-0.424103
C	 0.0628218374	 0.0122938302	 0.0084349926	 0.379061
C	-1.117546685	-0.6585822872	-0.0218037468	 0.101571
O	-2.3011856447	 0.0035315477	-0.049399243	-0.466209
C	-1.1829012079	-2.1066230832	-0.0264404089	 0.325282
O	-2.3027041843	-2.6424962023	-0.0549310775	-0.452325
C	 0.1035577586	-2.7707768653	 0.0038120027	-0.266303
C	 1.2557352529	-2.0506211142	 0.0334895845	 0.018603
N	 1.2412422143	-0.684110632	 0.0358575338	-0.376732
H	-0.6832015917	 1.736631668	-0.0076199146	 0.326462
H	-2.9478697398	-0.7340373055	-0.0669386228	 0.303108
H	 0.1358963863	-3.8525430946	 0.0023675981	 0.11661
H	 2.2391616892	-2.5018505092	 0.0567500705	 0.138526
H	 2.0972203642	-0.1534155423	 0.0577394082	 0.276449
