21
gdb 39890	2.65388	1.78117	1.58698	0.2195	85.72	-0.2314	0.0242	0.2556	978.2964	0.185769	-349.949833	-349.942716	-349.941772	-349.980779	30.502	
C	-0.0397770761	 1.4738137327	 0.0106222348	-0.356363
C	 1.2889500928	 0.7324744768	-0.0066279477	-0.365701
C	 0.0018949227	-0.0218904428	 0.001868337	 0.477147
C	-0.4951714417	-0.9302183443	 1.1300396005	-0.149166
C	-2.0277435197	-0.9560237018	 0.7977810468	-0.201227
C	-2.0431592806	-0.9473459911	-0.7641917781	-0.201228
C	-0.5174406928	-0.9176269455	-1.1263378657	-0.149164
C	 0.0496624723	-2.2579836606	-0.6798058741	-0.076035
C	 0.0628111591	-2.2654668118	 0.657463848	-0.076032
H	-0.3263052926	 1.9811796183	 0.9270551638	 0.107236
H	-0.3442833621	 1.9913486453	-0.8942540586	 0.107236
H	 1.8705554808	 0.755762339	-0.9227733931	 0.108837
H	 1.8885342859	 0.7456115416	 0.8980572854	 0.108838
H	-0.2556956255	-0.6330085853	 2.1521491888	 0.054688
H	-2.5225455063	-1.8318550673	 1.223999097	 0.094187
H	-2.5182037252	-0.0645235702	 1.1997659762	 0.094769
H	-2.5463530357	-1.8184526627	-1.1902687061	 0.094189
H	-2.5413874572	-0.0515007286	-1.1464808943	 0.094769
H	-0.298166264	-0.60899445	-2.1495950266	 0.054688
H	 0.2847220873	-3.0794861903	-1.3454444404	 0.089164
H	 0.3108383287	-3.0943367316	 1.3091169063	 0.089166
