17
gdb 48253	2.47547	1.0749	0.81024	3.6288	73.72	-0.2604	-0.0472	0.2132	1375.6874	0.134617	-417.994538	-417.98516	-417.984216	-418.030393	32.227	
O	-0.3284107966	 0.0153717676	 0.2073940408	-0.233937
C	-0.1605046404	 1.1656405947	-0.0934629534	 0.172768
C	 1.1835694956	 1.8820837705	-0.0042877976	-0.107374
C	 1.4224511935	 2.8034233948	-1.2238327333	-0.369185
C	 1.5254808084	 2.0701500429	-2.4837246968	 0.259461
N	 1.6043838442	 1.4742564606	-3.4703659206	-0.291792
C	 1.2101835622	 2.6979718671	 1.2812971157	 0.003429
C	 1.559511753	 2.0495460565	 2.5672975862	-0.245599
N	 2.4868845732	 3.0103703698	 1.9412431853	-0.321494
H	-1.0082249313	 1.8091300072	-0.4271824775	 0.084846
H	 1.9560195124	 1.107789496	 0.043339354	 0.114681
H	 0.6059070945	 3.5312436553	-1.3070028964	 0.159486
H	 2.3399794043	 3.3814308127	-1.0721832885	 0.169033
H	 0.5068046274	 3.5295211077	 1.2983606542	 0.104169
H	 1.0999029567	 2.3909343186	 3.4895870494	 0.132567
H	 1.8062004614	 0.9915033143	 2.545466381	 0.133111
H	 3.2483537815	 2.5070149638	 1.4904140273	 0.23583
