23
gdb 100289	1.90019	1.32053	1.13258	3.4915	77.14	-0.2465	0.0512	0.2978	1260.7855	0.202957	-462.552837	-462.541605	-462.540661	-462.588381	41.951	
C	-0.3953355679	 1.7463846592	-0.3100867141	-0.419324
C	-0.1626300323	 0.2394351835	-0.1449142948	 0.142071
O	 0.7965029125	 0.0056534977	 0.8794661824	-0.452444
C	-1.4562412774	-0.6098350889	 0.0684235836	 0.182614
C	-1.0626547812	-2.0582518531	 0.4172765418	-0.427929
C	-2.3399442339	-0.0366585161	 1.1868194904	-0.111464
O	-1.5613538409	 0.0998994237	 2.378177898	-0.428809
C	-2.3119535119	-0.6113879695	-1.220347982	-0.09254
O	-1.6353915456	-1.113094549	-2.3602239426	-0.421975
H	 0.565736678	 2.2297335104	-0.5040301234	 0.124041
H	-1.0653700937	 1.9821181333	-1.1427615269	 0.112158
H	-0.8069627431	 2.1858505092	 0.6044987558	 0.108913
H	 0.2988090585	-0.138649012	-1.0631978996	 0.092705
H	 0.3492203862	 0.2049400043	 1.7124074644	 0.284572
H	-0.566162481	-2.105913645	 1.3859979615	 0.140252
H	-1.9497362292	-2.7028780255	 0.4499978818	 0.09605
H	-0.3625205065	-2.4663473518	-0.3189907076	 0.11107
H	-2.7476249237	 0.9386617783	 0.8847474943	 0.094315
H	-3.1919624119	-0.7106677469	 1.3650566093	 0.091195
H	-2.1013836575	 0.517666603	 3.0548673806	 0.294377
H	-3.239229479	-1.1777216238	-1.0323035875	 0.083324
H	-2.6079344157	 0.4084357873	-1.4847066839	 0.109546
H	-1.4574386826	-2.0472739485	-2.2140464914	 0.287282
