18
gdb 79434	2.90633	1.74696	1.35692	2.2568	75.33	-0.2201	-0.012	0.2081	983.0713	0.149338	-401.912046	-401.90499	-401.904046	-401.943255	28.552	
C	-0.1769611417	 1.5177589609	 0.012905652	-0.416415
C	-0.006560874	 0.0123928977	-0.0716704875	 0.062406
C	 0.8847335698	-0.56260295	-1.2127708194	-0.19026
C	 2.0974844164	-0.3248849167	-0.2254664973	-0.009314
C	 2.7306479907	-1.6608277303	 0.1837243702	-0.250651
C	 1.2587659694	-1.9817821159	 0.5524353922	-0.124498
N	 1.0591631943	-0.4918705901	 0.883676959	-0.153713
C	 0.6744423088	-2.0362411166	-0.8663667379	 0.4462
O	 0.2039645481	-2.9439264934	-1.4918780854	-0.339603
H	 0.7672581962	 2.0492070972	-0.1352092641	 0.122136
H	-0.8831343504	 1.8642373524	-0.7482475167	 0.122622
H	-0.568547006	 1.7920622329	 0.997424796	 0.132482
H	-0.978517123	-0.4792647713	 0.0620791914	 0.087448
H	 0.8350257869	-0.2601051355	-2.2572939123	 0.083464
H	 2.6579953142	 0.6064417638	-0.2931233364	 0.089927
H	 3.2247753362	-2.2861920406	-0.5632195873	 0.117305
H	 3.3579608409	-1.5390895006	 1.068876388	 0.124623
H	 0.9622069732	-2.7284845037	 1.2852745056	 0.095841
