16
gdb 36148	4.06619	1.1041	1.00556	3.658	68.08	-0.2479	0.0287	0.2766	1167.7851	0.124376	-437.870572	-437.862713	-437.861768	-437.903557	29.079	
N	 0.0012794335	-1.1865578539	 0.3176119082	-0.304025
C	-0.0272052214	-0.0518421178	 0.1044520505	 0.277054
C	-0.0673740004	 1.3905693374	-0.1524096621	-0.428576
C	 1.3048727004	 2.0119562421	-0.2365412822	 0.416099
C	 2.1571154701	 2.3436360174	 0.9734620993	-0.38735
C	 1.6593730111	 3.4378089738	 0.0425552792	 0.017194
O	 2.4936427171	 3.8620102847	-1.0026028699	-0.252728
C	 2.9393876143	 2.6872805826	-1.6587388755	 0.005854
O	 1.9783994134	 1.6713272769	-1.4253281523	-0.289039
H	-0.6035658266	 1.5691924621	-1.0908990578	 0.165886
H	-0.6386683101	 1.8689199882	 0.6498653584	 0.156174
H	 1.6729267445	 2.2815347878	 1.9426400954	 0.129479
H	 3.2060198624	 2.0707505784	 0.9786446298	 0.137478
H	 0.9742992792	 4.209260958	 0.3708987113	 0.120771
H	 3.0131317411	 2.8765417092	-2.7334726686	 0.130794
H	 3.9195631813	 2.3788507132	-1.2629760239	 0.104935
