22
gdb 63031	3.29472	1.22086	1.15686	1.5486	87.07	-0.2183	0.0793	0.2976	1207.9904	0.193461	-367.157934	-367.149024	-367.148079	-367.190783	35.452	
C	-0.0210152442	 1.4304480172	-0.0523473797	-0.443725
C	-0.0358746224	-0.0876820395	-0.0483608631	 0.334211
C	-1.3008480315	-0.6754407588	 0.5449822154	-0.471532
C	 0.7374010481	-0.7353745454	-1.1374439604	-0.166009
N	 1.3184995964	-0.6103989899	 0.2741575653	-0.175856
C	 1.2448614196	-2.1132045743	 0.3893596686	-0.254734
C	 0.7411793496	-2.2423952863	-1.0502569212	 0.373069
C	-0.190417778	-3.2375650016	-1.6835297371	-0.324306
C	 1.2636664107	-3.1798567034	-2.0947346806	-0.341813
H	 0.9328531886	 1.8072322764	-0.4293542288	 0.126098
H	-0.8286420276	 1.8266994421	-0.6776711063	 0.109854
H	-0.1564982917	 1.8172494454	 0.9635401546	 0.118184
H	-2.1755713927	-0.2194087296	 0.0692719333	 0.118017
H	-1.381788543	-1.7541892943	 0.4102258047	 0.129887
H	-1.3579057133	-0.4537300663	 1.6172048957	 0.11983
H	 1.146221598	-0.1680213617	-1.9707724017	 0.08434
H	 2.2519131592	-2.510768959	 0.5404449075	 0.110307
H	 0.5964993977	-2.4741363194	 1.1944899747	 0.100033
H	-0.5162671772	-4.0818151735	-1.0838618091	 0.112737
H	-0.9366466744	-2.8727380481	-2.3820281871	 0.113714
H	 1.5012520341	-2.7724009631	-3.072634555	 0.114606
H	 1.9199768439	-3.9840364168	-1.7764833098	 0.11309
