16
gdb 113533	3.87539	0.97704	0.87035	2.443	67.58	-0.2729	-0.004	0.2689	1309.649	0.123194	-474.982147	-474.973687	-474.972743	-475.015883	30.63	
O	 0.0446705413	 1.349122132	-0.4763544652	-0.410689
C	 0.0375714709	 0.1399765022	 0.2575958783	-0.080407
C	-1.3427322451	-0.4640909375	 0.3118708813	-0.065862
O	-1.7728066981	-1.121524347	-0.9019109649	-0.277442
C	-1.5680814288	-1.9094212044	 0.2436700619	 0.276772
C	-0.6462331791	-3.1243148653	 0.3607071372	-0.162909
O	-1.7191641137	-3.8291084852	 1.0627889184	-0.263195
C	-2.6014796249	-2.7684532618	 0.9206135095	 0.37961
N	-3.7966483359	-2.6287310888	 1.2593604012	-0.545452
H	-0.2723852691	 1.1460807777	-1.3637229829	 0.296154
H	 0.7434619988	-0.5951270115	-0.1588955292	 0.093302
H	 0.3709702741	 0.3918181835	 1.270226339	 0.123067
H	-2.1180702951	 0.1475766505	 0.7721061939	 0.131474
H	-0.4020709392	-3.611166672	-0.5864219021	 0.137688
H	 0.2402370592	-3.0258284209	 0.9914100005	 0.130737
H	-4.1680595654	-3.4657530914	 1.7108514831	 0.237152
