14
gdb 27586	3.51203	1.21561	0.90365	5.4961	80.57	-0.2361	-0.0583	0.1778	1191.8372	0.103852	-395.804149	-395.796733	-395.795789	-395.835984	28.23	
N	-0.0164952436	 1.4055525143	 0.1390347499	-0.592566
C	-0.012459646	 0.0240897842	 0.0432913016	 0.299994
C	-1.1934628127	-0.7204407052	 0.0361965704	-0.244333
C	-1.1142711772	-2.1141936969	 0.0005976075	 0.144712
C	 0.145955349	-2.7264442826	-0.0285548091	-0.072739
N	 1.2755043463	-2.0224849458	-0.0255405716	-0.257278
C	 1.1960669201	-0.6970789326	 0.0083160129	-0.036004
C	-2.3021638778	-2.9090848974	-0.009956432	 0.212935
N	-3.2624210139	-3.5556596725	-0.0198525844	-0.329408
H	 0.8227363263	 1.8710979838	-0.1721557912	 0.25892
H	-0.8549906605	 1.8717425259	-0.1725484107	 0.258368
H	-2.1605788348	-0.2299769377	 0.0610446909	 0.119336
H	 0.2300835788	-3.8077994926	-0.056898807	 0.130411
H	 2.1402192861	-0.1539684148	 0.010911573	 0.10765
