21
gdb 89302	2.23106	1.67757	1.15321	0.6967	77.91	-0.2398	0.0611	0.3009	1141.6921	0.181117	-424.200462	-424.191276	-424.190332	-424.233895	35.565	
C	 0.2980692118	 1.5183866338	-0.4221244681	-0.4206
C	 0.0289137134	 0.089245926	 0.0210280551	 0.137966
O	 0.5073240866	-0.8937878089	-0.9344123428	-0.345324
C	 1.2205246203	-1.621879312	 0.0955772631	 0.46535
C	 0.9175533508	-3.0966000147	 0.0911111316	-0.479259
C	 2.6952838465	-1.1358322958	 0.2047846298	-0.336495
C	 2.2863658388	-0.2640725411	 1.4339493245	 0.148612
O	 2.7509458163	 1.0534082185	 1.5794601204	-0.432838
C	 0.7875582154	-0.5874185802	 1.186989661	-0.204833
H	 1.3332259216	 1.6513481254	-0.7521119498	 0.1094
H	-0.3373419926	 1.7683770203	-1.2776756551	 0.129257
H	 0.0814499101	 2.2265531282	 0.3839062822	 0.128987
H	-1.0547575102	-0.034023723	 0.161186627	 0.080204
H	 1.2654416887	-3.5496352723	-0.8442357757	 0.129294
H	 1.4232603066	-3.6019465448	 0.9203588696	 0.116748
H	-0.1584559867	-3.2754036318	 0.1753416277	 0.122502
H	 3.4543238264	-1.8958680409	 0.4067468451	 0.101057
H	 2.9894036076	-0.5643488356	-0.6793560816	 0.104126
H	 2.5899657313	-0.7692410163	 2.3563327705	 0.095565
H	 2.5738526147	 1.5324742594	 0.7654469216	 0.280155
H	 0.1842515828	-0.828239864	 2.062814254	 0.070126
