20
gdb 90877	2.69923	1.72573	1.53939	0.7278	77.52	-0.222	0.072	0.294	966.213	0.173817	-403.106614	-403.099311	-403.098367	-403.137923	30.295	
O	-0.0579864095	 1.4437241969	 0.2135571405	-0.424361
C	 0.0517264806	 0.0230123152	 0.0932051731	 0.098197
C	-1.360777419	-0.5531617162	 0.264998657	-0.213632
C	-2.1544302461	-0.5358804344	-1.0426043841	-0.039679
C	-2.0587184804	 0.7661574324	-1.9137127303	-0.26007
C	-1.2239840115	-0.017151541	-2.9379125752	-0.0453
C	-1.4545237891	-1.3061406521	-2.1896863746	-0.06363
N	-0.1237101286	-0.7849643932	-2.3803400949	-0.081036
C	 0.7124928294	-0.4279765882	-1.235354977	-0.172501
H	 0.8119873565	 1.8222184089	 0.0510411352	 0.279222
H	 0.6901843504	-0.3472277452	 0.9105902813	 0.06395
H	-1.2853037374	-1.5854396622	 0.6297004183	 0.094871
H	-1.8645507141	 0.0291455434	 1.0432409299	 0.109749
H	-3.1859560618	-0.8537852273	-0.876839611	 0.06991
H	-3.0341181781	 1.0270828741	-2.3336024289	 0.094853
H	-1.6073473367	 1.6457785622	-1.4574539778	 0.122504
H	-1.2037071495	 0.1603669703	-4.008230877	 0.087542
H	-1.6962569235	-2.302564779	-2.5469055376	 0.081613
H	 1.4260451579	 0.3405001904	-1.5599161309	 0.092207
H	 1.3041911104	-1.3273397748	-1.0207173461	 0.105589
