18
gdb 84771	2.2862	1.52648	1.30191	1.531	77.83	-0.2513	0.0174	0.2688	1081.1431	0.145916	-401.933863	-401.924872	-401.923928	-401.967681	33.938	
C	 0.0429155954	 1.5984675605	-0.170489105	-0.398627
C	 0.0432278535	 0.0827308559	 0.0034286828	-0.007621
N	 0.7014898352	-0.5954795139	-1.1266690484	-0.273286
C	 1.4789070374	-1.4563678375	-0.6220567047	 0.110106
O	 1.5959710957	-1.5703481995	 0.7205606446	-0.247117
C	 0.7831685594	-0.4834518167	 1.2856446908	 0.163208
C	 1.7549928769	 0.4788226783	 1.9746680143	-0.428416
C	-0.1570450802	-1.0527431579	 2.243691581	 0.32851
C	-0.9554492814	-1.4793954141	 3.0338734064	-0.472619
H	 1.0567955803	 1.9984535673	-0.2524393325	 0.122252
H	-0.4896502469	 1.8487805934	-1.091298933	 0.134832
H	-0.4645476373	 2.0920875712	 0.6639491493	 0.1195
H	-0.9976144118	-0.2588142565	 0.0330310907	 0.10337
H	 2.0965206809	-2.1515667906	-1.1809414231	 0.14084
H	 2.4759451341	 0.8716236533	 1.2534932184	 0.129704
H	 1.2161960806	 1.3130598988	 2.4296681027	 0.132976
H	 2.298375537	-0.0525560358	 2.7589458368	 0.138485
H	-1.656979909	-1.8679239262	 3.7304940491	 0.203902
