22
gdb 96270	2.10158	1.53602	1.0943	3.8881	82.23	-0.2327	0.0336	0.2663	1207.7636	0.196774	-404.40409	-404.395198	-404.394254	-404.437549	34.633	
C	-0.1991129425	 1.5008223363	 0.0748120619	-0.388575
C	 0.0150523674	-0.0191765133	-0.0242316154	 0.030461
C	 0.4665542385	-0.4949753137	-1.4190458446	-0.188357
C	 1.7928057524	 0.0619898466	-1.9500233417	-0.194392
C	 3.0297782246	-0.3295729771	-1.1338002148	-0.194885
C	 3.0766663347	 0.2459679468	 0.2919016668	-0.2986
C	 2.1831766398	-0.4360843302	 1.3234769244	 0.368884
O	 2.6459390436	-0.8826226606	 2.3600898854	-0.371064
N	 0.8420317555	-0.5495834028	 1.0633360018	-0.294919
H	 0.7304712131	 2.060504025	-0.0533832947	 0.126487
H	-0.9019484032	 1.8383969163	-0.6941839414	 0.116591
H	-0.6115589853	 1.760734014	 1.0537389263	 0.12073
H	-0.9633936303	-0.4846108989	 0.1396965677	 0.088231
H	 0.5194669901	-1.590434436	-1.3959782065	 0.101233
H	-0.3316462828	-0.2351446837	-2.1252648452	 0.096486
H	 1.9223243059	-0.2964775595	-2.9780875534	 0.097849
H	 1.7387804672	 1.1562896563	-2.0206224249	 0.097103
H	 3.113757107	-1.4230833399	-1.0872368486	 0.106025
H	 3.9208461123	 0.0222948709	-1.665981865	 0.10098
H	 4.0845707416	 0.1540755725	 0.7009975204	 0.126684
H	 2.8421712271	 1.3182510781	 0.2631361026	 0.111717
H	 0.3531829633	-0.983250667	 1.8330661589	 0.241332
