11
gdb 128863	9.8307	0.6763	0.63277	7.1262	82.34	-0.2667	-0.0681	0.1986	1580.1995	0.06804	-410.57373	-410.566636	-410.565692	-410.606126	25.008	
N	 0.0853007382	-3.7084912453	-0.0188422269	-0.331247
C	 0.0589034953	-2.5464245386	-0.0120791873	 0.173306
C	 0.0209156806	-1.1841103612	-0.0040557457	 0.211085
C	-0.0242933372	 0.025221054	 0.0032197872	 0.009898
C	-0.0747212644	 1.4305086605	 0.0116708435	 0.15287
C	-1.1841953069	 2.2558991282	 0.0311692663	-0.184988
N	-0.6612166847	 3.4953528445	 0.03098972	-0.156426
N	 0.691354226	 3.4670230017	 0.0126071497	-0.098325
N	 1.051761449	 2.2268002335	 0.0009050085	-0.246853
H	-2.2412518993	 2.0535920205	 0.0442799772	 0.172992
H	-1.1361503466	 4.384955912	 0.0423038028	 0.297688
