19
gdb 10082	2.38766	1.55317	1.09062	4.0022	69.15	-0.2458	0.0363	0.2821	1134.0211	0.164296	-402.226985	-402.217313	-402.216369	-402.262029	33.691	
C	 0.11524495	 1.558391706	-0.2096604887	-0.38405
C	 0.0980594545	 0.0369825578	-0.0531677444	-0.168539
C	 0.7138458677	-0.715313951	-1.2473367544	 0.038478
C	 0.7166036238	-2.2288647583	-1.0293236831	-0.099619
O	-0.6417517843	-2.6596704886	-1.0169800975	-0.427219
N	 0.0210903341	-0.4278304475	-2.4984507795	-0.269494
C	 0.5581422475	 0.3077966174	-3.504493029	 0.155114
O	 1.6345415103	 0.8688955221	-3.4707900247	-0.333221
H	 1.1337767322	 1.9341189342	-0.3503373613	 0.12777
H	-0.4728278069	 1.8728155243	-1.0766110803	 0.122085
H	-0.306760117	 2.0442213377	 0.6753493749	 0.108699
H	 0.6598920533	-0.2494441462	 0.8451322728	 0.093817
H	-0.9269326955	-0.3197485727	 0.0983119152	 0.108703
H	 1.7457054534	-0.3810053412	-1.3921689553	 0.116067
H	 1.2750941225	-2.7135179318	-1.842903034	 0.098616
H	 1.2184317877	-2.4645281562	-0.0790702682	 0.094404
H	-0.6590331103	-3.6195796258	-0.9740738708	 0.294658
H	-0.8530183629	-0.9078875939	-2.6496738398	 0.253172
H	-0.11365191	 0.3477001236	-4.3856513219	 0.070558
