14
gdb 45851	2.43864	1.7753	1.04961	4.5994	66.75	-0.2198	-0.0192	0.2006	1047.4798	0.104578	-470.092685	-470.085251	-470.084307	-470.12501	27.841	
O	 0.0262909345	-0.0540099699	-0.1206460966	-0.372815
C	-0.0492080233	 1.1516453776	-0.0192299584	 0.440044
N	-1.228775384	 1.8247747472	-0.2338813499	-0.36829
C	-1.5691964976	 3.1345842593	 0.1197858766	-0.02811
C	-0.7454004909	 4.1815539597	 0.1137679426	-0.02811
N	 0.605736583	 4.1562724108	-0.2472826388	-0.36829
C	 1.5386647468	 3.1696868701	-0.0308301777	 0.440044
O	 2.727656566	 3.3791794149	-0.1403813428	-0.372815
N	 1.0763157504	 1.9019619021	 0.3579541013	-0.405531
H	-1.9817276917	 1.1848139899	-0.4340522367	 0.266583
H	-2.5972438914	 3.2694465919	 0.4313379297	 0.127909
H	-1.1165919241	 5.1512204257	 0.4205216279	 0.127909
H	 1.0494683123	 5.0371881179	-0.4561965385	 0.266583
H	 1.8656148054	 1.2816481497	 0.4862011313	 0.27489
