21
gdb 41590	2.73251	1.709	1.62162	1.4597	80.01	-0.2423	0.0744	0.3167	969.1125	0.186136	-387.064973	-387.057913	-387.056969	-387.096442	29.234	
C	-0.1315634931	 1.2350656104	 0.5674084227	-0.22699
C	 1.1778333659	 1.6938296962	-0.14507689	-0.226986
C	 1.4442029059	 0.2320446134	-0.6037808696	-0.027939
C	 0.1294727387	-0.2286165723	 0.1116716926	-0.027942
C	-0.455701807	-0.692582132	-1.260046557	-0.033387
C	-1.5452128921	 0.14136317	-1.9354124717	-0.109645
O	-0.8804674191	 1.275042423	-2.489910894	-0.251385
C	 0.3770245377	 0.8149683244	-2.9814669655	-0.109638
C	 0.8608010725	-0.2312582054	-1.9764812582	-0.033394
H	-0.0998916447	 1.3501226514	 1.6538422383	 0.093357
H	-1.050366949	 1.6995483524	 0.2051205447	 0.109874
H	 1.0469431689	 2.4344139595	-0.9360277079	 0.109865
H	 1.9413591774	 2.0652257268	 0.5431643302	 0.093359
H	 2.4235040738	-0.1815628512	-0.3574020987	 0.058687
H	 0.1216755128	-0.9880533018	 0.8952525324	 0.058686
H	-0.6743690029	-1.7615696171	-1.2970950809	 0.067669
H	-2.0322462157	-0.4452811862	-2.7319968224	 0.085884
H	-2.3217452968	 0.510741716	-1.2594779513	 0.108186
H	 0.2552208969	 0.3563195498	-3.9768086435	 0.085882
H	 1.0310378516	 1.6856473932	-3.0840080037	 0.108187
H	 1.4499026083	-1.0171786506	-2.4531469064	 0.067669
