16
gdb 16927	3.71449	2.19158	1.99094	3.9362	64.85	-0.2354	0.0283	0.2637	745.4609	0.134757	-379.929013	-379.923072	-379.922127	-379.958867	24.277	
N	-0.0718694647	 1.2792632735	-0.0838648317	-0.565844
C	-0.0388651963	 0.0233996513	-0.011509678	 0.48176
O	 1.0979718569	-0.7574202977	 0.0379536817	-0.265557
C	 0.6368532892	-2.1364218776	 0.0861900721	 0.087301
C	 0.01919277	-2.3408697055	 1.4805746255	-0.17535
N	-1.2076130778	-1.4949369573	 1.4180641541	-0.300584
C	-1.2034558206	-0.9487507473	 0.0337818702	-0.102225
C	-0.6026744131	-2.0906888104	-0.8194205048	-0.242363
H	 0.8754288554	 1.6639570861	-0.0906304023	 0.221764
H	 1.4679453094	-2.7863494912	-0.1799487809	 0.092478
H	-0.207199075	-3.3962194653	 1.6690560229	 0.101647
H	 0.7011014675	-1.9877839538	 2.2601228077	 0.122187
H	-2.0345988128	-2.0690470528	 1.5387139422	 0.225007
H	-2.1572542816	-0.5095423129	-0.2450960185	 0.098196
H	-0.3613179136	-1.8131735041	-1.8479167181	 0.120257
H	-1.199765893	-3.0057164648	-0.800741842	 0.101327
