18
gdb 84316	2.72424	1.61404	1.20675	4.5565	78.24	-0.242	-0.0412	0.2008	1058.3945	0.149036	-401.960032	-401.952146	-401.951202	-401.99318	30.231	
C	 0.2365198894	 1.6266017867	-0.1610864937	-0.394785
C	 0.008826323	 0.1115494391	 0.0146018131	-0.068299
C	 0.372894566	-0.6391403133	-1.2435895531	-0.056308
C	 1.4112593375	-1.4736846613	-1.3366765321	-0.147966
C	 2.3606503678	-1.6500967941	-0.2121396107	 0.349149
O	 3.5149142871	-1.9793178748	-0.3759723438	-0.337437
N	 1.8329831415	-1.3998626876	 1.0674967634	-0.111952
C	 2.0709996015	-0.1208410543	 1.7245648548	-0.252911
C	 0.7015671115	-0.4947308456	 1.239855904	-0.037138
H	 1.2887712215	 1.8495495893	-0.3588018274	 0.128346
H	-0.3481792476	 2.0113848168	-1.0029586997	 0.121224
H	-0.0668473127	 2.1681346482	 0.7399323163	 0.124833
H	-1.0693038828	-0.0270141077	 0.1680812898	 0.096652
H	-0.240879465	-0.4340175417	-2.1188806217	 0.10882
H	 1.6871373665	-1.9543447924	-2.2686719482	 0.115954
H	 2.2985548359	-0.163708402	 2.7860994706	 0.126913
H	 2.637408775	 0.6210038424	 1.1679107703	 0.131123
H	 0.0115799339	-0.8433773678	 2.0058984681	 0.103783
