24
gdb 100791	3.05321	1.00406	0.8054	0.4708	86.72	-0.231	0.0909	0.3219	1509.0323	0.214725	-405.510456	-405.499583	-405.498638	-405.546685	39.609	
C	 0.0984331528	 1.3476694669	 0.1285939937	-0.235197
O	-0.0482760196	-0.0417000082	-0.0399535191	-0.248358
C	 0.6221005877	-0.5840237479	-1.1747732361	 0.147597
C	 2.1185725509	-0.7463663887	-0.9048990445	-0.411877
C	-0.1059842225	-1.9053277309	-1.4958509856	 0.039035
C	-1.5652940448	-1.6390287291	-1.8698929106	-0.397199
N	 0.5669812144	-2.5794784114	-2.6090076435	-0.07189
C	 1.5489507281	-3.610993637	-2.2902240171	-0.223447
C	 0.2146300073	-3.9770706034	-2.8332164192	-0.222945
H	 1.1353511938	 1.6439829464	 0.3450517014	 0.105568
H	-0.2382459977	 1.9037557818	-0.7605118976	 0.103433
H	-0.5245287793	 1.6358887285	 0.9795149641	 0.124444
H	 0.4847636254	 0.0897911098	-2.0369717279	 0.067543
H	 2.6304329945	-1.1320100967	-1.7890365074	 0.132424
H	 2.5735466143	 0.2154574765	-0.6508926698	 0.1112
H	 2.2874807686	-1.4316404914	-0.0679345605	 0.114527
H	-0.0796704314	-2.5238923827	-0.5787970451	 0.060519
H	-1.6169157947	-1.0728819629	-2.8058899306	 0.116719
H	-2.1125628044	-2.5753678732	-2.0117575676	 0.107146
H	-2.0536525153	-1.0650048696	-1.0810984234	 0.131025
H	 2.4333060081	-3.6378279331	-2.9210165071	 0.113926
H	 1.7323937215	-3.8363003134	-1.2409783349	 0.11163
H	-0.4841966257	-4.4477746809	-2.1432721603	 0.109981
H	 0.0979237581	-4.2776835293	-3.8706500513	 0.114194
