17
gdb 28578	5.45696	0.93423	0.8451	4.4391	77.67	-0.2107	0.0214	0.2321	1361.6905	0.136713	-418.027739	-418.019346	-418.018402	-418.061711	30.216	
C	 0.1567427778	 1.4900299597	 0.0124354186	-0.500545
C	 0.024182394	 0.0051418165	-0.0445029484	 0.340992
N	-0.1487647297	-0.7167830165	-1.1304423927	-0.291696
C	-0.216890032	-2.025042306	-0.7086894841	-0.174799
C	-0.0858049943	-2.1039138993	 0.6537369341	 0.306291
N	 0.0732229725	-0.7936841658	 1.0672645109	-0.361871
C	-0.0928181305	-3.2441007154	 1.5865842691	-0.063294
C	-1.223707061	-4.1918713263	 1.6727429312	-0.167948
O	-0.0197065644	-4.5380797149	 0.9907260305	-0.217772
H	 1.1201970686	 1.7998335189	 0.4339792271	 0.131005
H	 0.083484084	 1.8824815347	-1.0024078137	 0.160065
H	-0.6326458905	 1.9499570984	 0.6185287043	 0.129826
H	-0.3377830435	-2.8428735964	-1.4013945138	 0.118541
H	 0.1908390914	-0.4834735277	 2.0176802925	 0.259577
H	 0.524909834	-3.1269514653	 2.480288376	 0.09221
H	-1.4084823879	-4.7337733961	 2.6000219367	 0.116063
H	-2.0904626183	-4.0279881985	 1.0352995017	 0.123353
