17
gdb 8768	2.49487	1.70428	1.07607	5.183	69.02	-0.2618	-0.0381	0.2237	1083.5461	0.139473	-363.891296	-363.881913	-363.880969	-363.926246	32.155	
C	-0.1333807334	 1.4870249278	 0.0719132286	-0.423664
C	 0.0134588644	-0.0456018291	 0.0124328523	-0.052139
C	-1.389126221	-0.643823805	 0.0378693999	 0.162498
O	-1.9802413846	-0.924191469	 1.0453955297	-0.242532
C	 0.7963149285	-0.5159055066	-1.2424005012	-0.15283
C	 2.2446921964	 0.0083004066	-1.3018696393	-0.404715
C	 0.7960575127	-1.9832413969	-1.3131686507	 0.270647
N	 0.7995845043	-3.138176601	-1.3591631286	-0.316576
H	 0.8396246104	 1.9794160119	 0.1365865195	 0.134426
H	-0.6518798827	 1.871967992	-0.8137051994	 0.126006
H	-0.7135347929	 1.7681687173	 0.9543237721	 0.148365
H	 0.5264053734	-0.3946415636	 0.9146793306	 0.117827
H	-1.8662595464	-0.7627819337	-0.9637046464	 0.082932
H	 0.2589772128	-0.157957218	-2.1316892821	 0.129479
H	 2.7622767912	-0.3980372692	-2.1739119607	 0.144697
H	 2.2566081884	 1.0974305736	-1.3763061165	 0.132933
H	 2.8006585085	-0.287522777	-0.4077662577	 0.142644
