16
gdb 7326	4.17668	1.19668	0.94152	9.0649	64.17	-0.2286	-0.0308	0.1978	1196.837	0.129965	-417.108035	-417.099234	-417.09829	-417.142582	30.668	
C	 0.0040004363	 1.5998219954	-0.1021930469	-0.404239
C	 0.0132812572	 0.0850472757	 0.0715492318	-0.142908
N	 0.6541798313	-0.5620408082	-1.0647427868	-0.263954
C	 0.7632845425	-1.8419928679	-1.3033506612	 0.305308
N	 0.3163652033	-2.8347494965	-0.5685466166	-0.501223
H	 0.53764707	-3.7357525844	-0.9947707011	 0.295468
H	-0.1783751282	-2.753829032	 0.3042241061	 0.272309
C	 1.5193449729	-2.2461724468	-2.6327481196	 0.399775
O	 1.9086971456	-1.2548131342	-3.2625670063	-0.464754
O	 1.572925626	-3.4725702362	-2.7815984614	-0.460098
H	 1.0233364486	 1.9895379625	-0.1806472809	 0.145404
H	-0.5460486914	 1.8860841461	-1.003242516	 0.146045
H	-0.4759284101	 2.074017157	 0.7570567594	 0.137924
H	 0.5452801813	-0.1892712813	 0.992357345	 0.128299
H	-1.0137186022	-0.292939446	 0.1631804892	 0.125098
H	 1.107255557	-0.0388076933	-1.8212633148	 0.281545
