23
gdb 108373	2.00282	1.58481	1.21206	1.4847	86.	-0.2247	0.0752	0.2999	1203.8185	0.20413	-388.262963	-388.253108	-388.252164	-388.297114	37.648	
C	 0.2470452201	-1.4019923569	 0.8959071155	-0.375703
C	 1.6714709808	-1.5106708662	 0.3310572783	-0.291312
C	 1.7060772328	-1.2519448758	-1.1450568609	 0.441604
O	 0.9721221298	-2.1923948446	-1.9579370996	-0.326218
C	 2.0321778156	-2.1939327319	-2.9496687032	-0.112129
C	 2.7868982494	-1.1056315779	-2.2057989092	-0.249172
C	 1.8546501037	 0.0619361523	-1.8774469204	 0.26798
C	 0.7923887263	 0.5469626672	-2.8450088685	-0.465894
C	 2.5482474522	 1.1785836586	-1.1147231782	-0.46303
H	-0.1509962268	-0.3897193479	 0.771718709	 0.116117
H	-0.4241859218	-2.0925724156	 0.3779210873	 0.138655
H	 0.2306570177	-1.6443558562	 1.9626094435	 0.109316
H	 2.3343197472	-0.8046940735	 0.8412399231	 0.102789
H	 2.0673458638	-2.5153379614	 0.5235425484	 0.10427
H	 2.548829051	-3.1609077913	-2.9555525263	 0.106
H	 1.6621483058	-1.9709758681	-3.9577418157	 0.100978
H	 3.8630577722	-1.030560199	-2.1094998005	 0.089441
H	 0.1989373958	-0.281216076	-3.2363133028	 0.13598
H	 0.1042033168	 1.2341753701	-2.3393002026	 0.111208
H	 1.2396256607	 1.08906658	-3.6863320867	 0.108862
H	 3.0068060794	 1.8880945317	-1.8133703262	 0.117672
H	 1.8374908135	 1.7377470309	-0.4956009485	 0.117076
H	 3.342388054	 0.8047570218	-0.4615921757	 0.11551
