21
gdb 60119	3.77988	0.83377	0.77746	0.8577	81.43	-0.2269	0.0155	0.2424	1530.7024	0.181444	-424.228084	-424.218349	-424.217405	-424.263572	35.32	
C	 0.5871382961	 0.217810728	-0.6952670043	-0.403719
C	 0.0942826151	-0.0541953891	 0.7247990765	 0.144871
O	 0.1099998441	 1.1298583766	 1.5138849964	-0.425624
C	-1.3046931138	-0.7127549507	 0.7850216789	-0.341796
C	-1.388969434	-2.0607923189	 0.1288583633	 0.302828
C	-1.0343831941	-3.2473884051	 0.6188173458	-0.206304
C	-1.2890576194	-4.3287947899	-0.3904666032	-0.101693
O	-1.8054908074	-3.6548996241	-1.5366470838	-0.263975
C	-1.9326579151	-2.2656967635	-1.2655349761	-0.152458
H	 1.5555765633	 0.7241897309	-0.6627500681	 0.126595
H	 0.7004350469	-0.7096315174	-1.2636691283	 0.129686
H	-0.117762846	 0.8617971076	-1.2372822032	 0.104236
H	 0.8023061308	-0.7258068872	 1.2240771992	 0.095015
H	-0.4370126887	 1.786890846	 1.068931435	 0.276018
H	-1.5726106766	-0.7892273465	 1.8434024392	 0.12085
H	-2.0293893767	-0.0264004043	 0.3240036209	 0.088292
H	-0.6331458241	-3.4438034544	 1.6058570196	 0.099456
H	-0.3761867207	-4.880017941	-0.6668694795	 0.103951
H	-2.0170079368	-5.0748064413	-0.0309544828	 0.102367
H	-2.9904813806	-1.957325894	-1.3323293006	 0.098855
H	-1.3860642922	-1.6879871417	-2.0276398049	 0.10255
