21
gdb 80330	2.08076	1.45995	1.29988	0.7891	88.86	-0.246	0.0492	0.2953	1159.5897	0.180903	-349.900662	-349.891222	-349.890278	-349.934229	36.422	
C	-0.1007920602	 1.5043183999	-0.1749769799	-0.422089
C	 0.0691452468	 0.0096650796	 0.0061815939	-0.049474
C	 1.3366331672	-0.7725091155	-0.2283064467	-0.126168
C	 2.5652788548	-0.0040957213	 0.2662269399	-0.255803
C	 1.9532208828	 0.0027493183	 1.7155134271	-0.227817
C	 1.8219842435	 1.2461719765	 2.4551460617	 0.331011
C	 1.728330781	 2.2677754742	 3.0843077772	-0.471222
C	 0.6938617145	-0.7177840716	 1.1702024241	 0.331415
C	-0.0296808702	-1.7686137063	 1.9636863713	-0.497624
H	 0.7567694234	 2.0765436291	 0.1818289618	 0.13278
H	-0.2511872355	 1.7432551066	-1.2340732643	 0.109525
H	-0.977266472	 1.8631969786	 0.3751942577	 0.117071
H	-0.7963330833	-0.5482352495	-0.35156078	 0.081052
H	 1.3732718269	-1.6067054473	-0.9200063815	 0.081673
H	 3.4918190528	-0.5793733224	 0.2224069387	 0.10623
H	 2.7423428343	 0.9758981351	-0.1844222319	 0.106561
H	 2.5155599853	-0.7075982547	 2.3319014333	 0.102745
H	 1.6379231535	 3.1718079007	 3.6337192234	 0.192213
H	-0.5976540805	-1.3199861839	 2.7879751002	 0.12681
H	-0.7383658958	-2.3197948809	 1.3369066654	 0.11783
H	 0.6671610208	-2.4945708952	 2.3996214585	 0.113279
