17
gdb 1963	7.52443	1.42914	1.27779	2.9522	64.9	-0.2392	-0.0162	0.223	946.2511	0.147052	-309.735489	-309.727948	-309.727004	-309.767494	27.467	
C	 0.0886213505	 1.4815345079	-0.1783667943	-0.380126
C	-0.0087195044	-0.0298617205	 0.0484833969	-0.191557
C	-1.4444165029	-0.5355684344	 0.1336951915	 0.04711
C	-2.2956394343	-0.5153177679	-1.1795373019	-0.354847
C	-2.67797546	-1.9761136996	-0.8933957436	 0.404423
O	-3.5054257477	-2.7184760584	-1.3356718066	-0.289761
C	-1.6531820447	-2.0800716622	 0.2469509987	-0.369086
H	 1.1312328428	 1.8074966784	-0.2416003158	 0.115974
H	-0.4093310958	 1.7770337801	-1.108287351	 0.119638
H	-0.3848041495	 2.0351038218	 0.6400629163	 0.116554
H	 0.507622763	-0.55993714	-0.7640338867	 0.093422
H	 0.5210356926	-0.2982765568	 0.9717001192	 0.100421
H	-1.974304883	-0.0166410618	 0.9391796639	 0.079137
H	-3.1251258573	 0.1919550658	-1.2570809835	 0.127506
H	-1.6838175663	-0.4312141567	-2.0859407784	 0.12699
H	-0.7702028478	-2.6555967375	-0.0558311752	 0.127074
H	-2.0236396852	-2.4880377883	 1.1909207305	 0.127127
