17
gdb 52903	2.03971	1.11245	0.78353	4.3311	79.64	-0.2478	0.0043	0.2521	1471.8041	0.132499	-421.807841	-421.797944	-421.797	-421.844688	33.868	
C	-0.1166076795	 1.5486894225	-0.0039727233	-0.500844
C	-0.0663641668	 0.0948177713	-0.0221503433	 0.02902
C	-0.0254649169	-1.1091556019	-0.0439252283	 0.089259
C	 0.046513063	-2.5430247538	-0.0770327981	 0.224363
C	-0.3207694555	-3.3686393814	 1.1425128894	-0.314175
C	-1.2052464032	-3.3810412471	-0.076331383	-0.306877
O	 1.0711253134	-3.0777338996	-0.9139877262	-0.217228
C	 2.3451235207	-2.8689032859	-0.5081258678	 0.160257
O	 3.2823929757	-3.2681275166	-1.1299597955	-0.270891
H	 0.62195137	 1.970066486	-0.6944298392	 0.159743
H	-1.1023314551	 1.9166795263	-0.3086676198	 0.154385
H	 0.0968364477	 1.9455205639	 0.9944887533	 0.152512
H	 0.2884156634	-4.2454550188	 1.3302833205	 0.13524
H	-0.6513274199	-2.834377853	 2.0249397401	 0.134542
H	-2.1522424297	-2.8572782152	-0.0412193415	 0.135002
H	-1.1797335313	-4.2596507413	-0.710021039	 0.142586
H	 2.4088481639	-2.3029583655	 0.4382003518	 0.093106
