22
gdb 80912	2.05333	1.66335	1.45816	1.906	83.89	-0.2006	0.0739	0.2744	1091.0531	0.191245	-404.269772	-404.259854	-404.25891	-404.303787	38.16	
C	 0.3401444066	 1.5113414419	 0.1239414424	-0.332674
N	 0.2478934022	 0.0516180461	 0.0426810804	-0.124371
C	-0.9489234952	-0.7323256321	 0.5311009706	-0.119579
C	-0.0325503892	-1.9773937324	 0.3960203859	-0.245665
C	 0.7956168269	-0.8691840668	 1.1225178652	 0.272418
C	 2.2408598769	-0.8923543428	 1.5259591456	-0.529218
C	-0.4682701045	-0.6226759617	 2.0281192724	 0.423235
C	-0.6771230442	 0.6372568041	 2.8595246619	-0.496901
O	-0.7276002564	-1.7370416327	 2.8746584226	-0.47777
H	 0.976887274	 1.8681267928	 0.9429094094	 0.114002
H	 0.7803431428	 1.8846352974	-0.8086851551	 0.113484
H	-0.642891206	 1.9855831763	 0.2278721227	 0.115993
H	-1.9441393207	-0.5732420032	 0.1091540149	 0.067052
H	-0.2969276093	-2.8612533311	 0.968858751	 0.114191
H	 0.29772252	-2.1790311876	-0.6222213438	 0.092497
H	 2.8777913239	-1.1338299635	 0.6693557084	 0.128679
H	 2.5600006888	 0.0760253681	 1.9278580489	 0.117693
H	 2.3999994344	-1.6470547046	 2.3024147995	 0.135148
H	-1.7034952867	 0.6417068627	 3.2518956394	 0.105142
H	-0.0000586055	 0.6237771243	 3.720211225	 0.126583
H	-0.5397330894	 1.571886679	 2.3252759783	 0.125907
H	-1.5095313296	-1.539778944	 3.4002310645	 0.274157
