19
gdb 79237	2.35946	1.65215	1.39122	0.6969	74.54	-0.238	0.0651	0.3031	1026.3591	0.158164	-422.972914	-422.964319	-422.963375	-423.005417	33.799	
C	-0.0946176697	 1.5319886996	 0.0118845408	-0.512371
C	-0.0917123586	 0.0277565873	 0.0040636794	 0.196303
C	 0.4768781781	-0.7859194987	-1.1930516855	-0.285528
C	-0.4769144373	-1.9035434513	-0.7740488254	-0.125658
C	-0.5175289016	-1.919230709	 0.7829104369	-0.231453
C	 0.3798055291	-0.7860716342	 1.257330432	 0.142934
O	 1.7516569442	-0.9889053995	 1.4944940716	-0.447787
C	-1.3561811553	-0.9547526031	-0.0255489083	 0.340436
O	-2.7071648466	-0.7496971719	-0.1299257972	-0.451539
H	 0.9300220793	 1.9171876878	 0.0730314444	 0.128677
H	-0.5541227997	 1.939627319	-0.8947523882	 0.120606
H	-0.6463553117	 1.927126075	 0.8726884804	 0.110513
H	 0.179840455	-0.347132053	-2.1496597561	 0.105274
H	 1.5586436845	-0.9731745233	-1.2062276322	 0.075965
H	-0.7789818038	-2.7835786284	-1.326572469	 0.092404
H	-0.8412434058	-2.8040070509	 1.3166339816	 0.087553
H	-0.0158213367	-0.324863442	 2.1687012567	 0.078348
H	 2.0881155869	-1.5762111978	 0.8104418096	 0.283897
H	-3.0483627502	-0.4888861455	 0.7328473686	 0.291426
