19
gdb 117465	5.78616	0.55575	0.52135	3.59	75.13	-0.254	-0.0236	0.2304	2077.5885	0.155599	-460.214424	-460.203831	-460.202887	-460.252669	35.2	
C	 0.1564444808	 1.5229520455	-0.0619757239	-0.391919
C	-0.1023647916	 0.0294111946	-0.0851946557	-0.04548
O	 0.6919884454	-0.5351932249	-1.151556481	-0.24395
C	 0.608024684	-1.867291472	-1.303959591	 0.456073
O	-0.0611031185	-2.5874057162	-0.605376147	-0.356201
C	 1.4432660167	-2.3300949338	-2.4851802206	-0.343311
C	 1.8084946886	-3.8156024192	-2.3864668946	-0.2661
C	 2.2663384834	-4.3760365188	-3.7120287611	 0.160152
O	 3.2802563613	-4.9984929005	-3.8899848338	-0.236874
H	 1.2136909158	 1.7334731323	 0.1216488785	 0.131972
H	-0.1266891881	 1.9843414318	-1.0121933103	 0.131191
H	-0.431044362	 1.9876474335	 0.735295651	 0.126298
H	 0.1793013442	-0.4530471491	 0.8555964137	 0.126638
H	-1.1557776191	-0.2033550399	-0.2699558794	 0.12371
H	 0.8429828891	-2.1449259534	-3.3874004022	 0.138406
H	 2.3276684273	-1.6937693444	-2.5740911385	 0.140971
H	 2.5814787647	-3.9967078717	-1.6355309417	 0.129656
H	 0.9078907213	-4.3639585572	-2.0786963839	 0.149713
H	 1.5641466768	-4.1720552768	-4.5567155685	 0.069056
