13
gdb 8748	4.1953	1.28899	1.20907	4.9324	60.31	-0.2904	0.0016	0.292	989.782	0.092774	-398.558204	-398.549603	-398.548658	-398.591345	30.278	
O	 0.5083143008	 1.571675944	 0.0535148055	-0.429536
C	 0.1840306567	 0.1836959593	 0.0567576496	-0.077414
C	 0.677480965	-0.5002647251	-1.135949193	 0.296562
C	 1.0611046048	-1.0339583436	-2.1415176407	-0.426704
C	 0.8504076241	-0.3695346982	 1.3458044968	-0.01316
O	 2.2143957697	-0.0533416459	 1.3835579547	-0.404779
C	 0.1315959504	 0.1466630572	 2.5353530096	 0.271841
N	-0.4263283216	 0.5381361361	 3.4678346298	-0.316407
H	 0.4198685873	 1.9038068683	-0.8454702619	 0.3053
H	-0.903589626	 0.0417222273	 0.1370807863	 0.127524
H	 1.4058310564	-1.5155194078	-3.0239068484	 0.213778
H	 0.7650629689	-1.4602252508	 1.3459315184	 0.149883
H	 2.2773415334	 0.8792817593	 1.1323582031	 0.303112
