15
gdb 44109	3.27744	1.79661	1.58298	3.9498	70.64	-0.2291	-0.0401	0.1889	861.5685	0.115055	-416.758196	-416.751943	-416.750999	-416.788693	25.543	
O	-0.2507336739	 0.1151306988	 0.3876445891	-0.324186
C	-0.1328512542	 1.2702949293	 0.103880098	 0.419779
N	-1.2256708807	 2.1577260105	-0.2549091657	-0.368413
C	-0.6378014084	 3.3638555454	 0.2686995921	 0.107391
C	-0.6025762725	 3.757573848	 1.5521035353	-0.139657
C	 0.8509258983	 3.8165440761	 2.0019734245	-0.265654
C	 1.5925070326	 3.2115622695	 0.8027771192	-0.022599
C	 0.7250896189	 3.3609042065	-0.3665603112	-0.071148
N	 1.1171286985	 1.985637688	-0.030992254	-0.18762
H	-2.0933516478	 1.8431651524	 0.1636054256	 0.252435
H	-1.4064140065	 3.5873160948	 2.2593055587	 0.107133
H	 1.2846561028	 4.8060616554	 2.2080603098	 0.125365
H	 0.9477099371	 3.2340522714	 2.925981232	 0.136852
H	 2.6717570278	 3.2939827003	 0.7406474007	 0.119415
H	 0.952101528	 3.7671556837	-1.3466266342	 0.110906
