21
gdb 53388	2.8096	1.01191	0.82457	0.2411	92.65	-0.2375	0.0528	0.2903	1489.2274	0.181495	-349.910562	-349.900871	-349.899927	-349.946513	35.378	
C	 0.1458713807	 1.4077577291	-0.5508888298	-0.499258
C	 0.0898786606	-0.0184463424	-0.2617566825	 0.079435
C	 0.0580927623	-1.1989381517	-0.018707241	 0.064713
C	-0.0077843106	-2.6157655538	 0.2754544991	-0.238505
C	-0.0330628492	-3.088131014	 1.7699999546	-0.221781
C	-1.1157323385	-4.1400904638	 1.3982387475	-0.306809
C	-1.3490653182	-3.3718353503	 0.0926149677	 0.378321
C	-2.6377526012	-2.7359887651	-0.3302629577	-0.316353
C	-1.9970409757	-3.8114495926	-1.1820015662	-0.332792
H	 1.1130499022	 1.8342182596	-0.2616404001	 0.14675
H	 0.00657528	 1.6044046493	-1.6199245808	 0.145907
H	-0.6322409089	 1.9578534773	-0.0099199407	 0.145513
H	 0.7874233126	-3.1459854916	-0.2636543551	 0.093327
H	 0.9105203773	-3.4532574951	 2.1798944655	 0.100358
H	-0.4268809853	-2.3043631928	 2.4199202014	 0.112559
H	-0.6898794872	-5.1350546466	 1.2308140794	 0.100347
H	-1.9668908426	-4.2349630021	 2.0771136497	 0.100061
H	-3.5370723795	-2.988928672	 0.2228042702	 0.105984
H	-2.5981903725	-1.7123036763	-0.688430555	 0.121036
H	-1.5370427401	-3.5102502534	-2.1183247962	 0.112743
H	-2.4618050862	-4.7923943916	-1.2084399999	 0.108442
