21
gdb 120932	3.42628	0.88686	0.81465	2.0953	79.1	-0.2286	0.0723	0.301	1515.7381	0.180623	-424.182672	-424.173142	-424.172197	-424.217292	35.716	
C	-0.1238927442	 1.5482077777	 0.0457211105	-0.383708
C	-0.1284508575	 0.0267514931	-0.1200862656	-0.15934
C	 0.8951747769	-0.4670124324	-1.1509070303	-0.204075
C	 0.8776440672	-1.973000328	-1.3212777035	 0.078716
O	-0.3973327375	-2.5037460668	-1.8119072062	-0.308326
C	 0.2795399345	-3.2638627649	-2.8140222972	 0.052911
C	 0.9605111	-2.3512477973	-3.800975817	-0.367079
C	 1.6164884145	-2.6674689889	-2.4723485604	 0.287028
O	 2.8505190453	-3.2724115919	-2.3461758794	-0.454823
H	 0.8554831008	 1.9095986273	 0.3796138719	 0.110887
H	-0.3553153798	 2.050384992	-0.9003430195	 0.113906
H	-0.8661429193	 1.8705217976	 0.7825587466	 0.113089
H	 0.0745330542	-0.4503844189	 0.8476975819	 0.094439
H	-1.1236843602	-0.3137130128	-0.4270641358	 0.119935
H	 0.7056037291	 0.0146258471	-2.1178707299	 0.094836
H	 1.9085393589	-0.1729241152	-0.8419893199	 0.093233
H	 1.1241352112	-2.4743925589	-0.3749032291	 0.085615
H	-0.0571985051	-4.2734416057	-3.014725294	 0.112041
H	 1.4269129299	-2.8676942126	-4.6352986507	 0.11628
H	 0.5373084054	-1.3770343645	-4.0290412352	 0.114839
H	 3.5141901457	-2.6929776661	-2.7358686874	 0.289595
