16
gdb 54018	2.09419	1.53295	1.07279	3.6256	67.95	-0.2769	-0.0437	0.2332	1152.7138	0.120035	-475.095252	-475.085264	-475.084319	-475.1312	33.743	
C	 0.2060033421	 1.2907544665	-0.7138643962	-0.506971
C	-0.0315469502	-0.1650549857	-0.3714888752	 0.42082
O	 0.8262643114	-1.013903696	-0.4698098832	-0.328977
N	-1.3072641542	-0.5363370898	 0.0757003137	-0.193787
C	-2.4379306824	 0.2601345317	 0.124181983	 0.159021
O	-3.5262879535	-0.1634356423	 0.4301417494	-0.302544
C	-1.4657113515	-1.9603965158	 0.509033974	 0.416417
C	-1.8763200398	-2.8810381092	-0.5987503464	-0.486481
O	-1.2734154977	-2.2415102408	 1.6487262755	-0.248836
H	 1.253294108	 1.3921040544	-0.9967667366	 0.162974
H	-0.4231481731	 1.6136781524	-1.5490565095	 0.15354
H	-0.0054523145	 1.9421878533	 0.1391304158	 0.157709
H	-2.2520235128	 1.3107912504	-0.1505422803	 0.108175
H	-1.1261296089	-2.8423871261	-1.3944455683	 0.16593
H	-1.9717703381	-3.8983012262	-0.2194027524	 0.156278
H	-2.8318942047	-2.5403903569	-1.0101358432	 0.166734
