16
gdb 31681	4.8222	0.86394	0.74389	5.9566	76.86	-0.218	-0.0271	0.1908	1447.3308	0.12463	-437.92766	-437.919025	-437.918081	-437.962196	30.731	
O	 0.0878068659	 1.2979723201	 0.4959837936	-0.403076
C	 0.0026532051	 0.0108986867	-0.0913879638	-0.190206
C	-1.4182767613	-0.4469932163	-0.0153419455	 0.342418
C	-2.5948253074	 0.2526432777	-0.0931534183	-0.330266
C	-3.6670460995	-0.6891769646	 0.0061233978	 0.187879
C	-5.0968581798	-0.4091519613	-0.0199414079	 0.070803
O	-5.9738998845	-1.2447516999	 0.0592561941	-0.292507
C	-3.0949413958	-1.9447582246	 0.1403981078	-0.149756
N	-1.745555859	-1.7832403506	 0.1292072234	-0.313826
H	 0.9249939458	 1.6904680171	 0.2307438841	 0.292057
H	 0.3418726769	 0.0398286092	-1.1404741034	 0.107632
H	 0.651338447	-0.7168561562	 0.4283037911	 0.087565
H	-2.6805574736	 1.322812728	-0.1983353636	 0.116044
H	-5.3480316693	 0.6711422708	-0.1225671236	 0.059198
H	-3.5593154327	-2.9110326483	 0.2467863451	 0.151199
H	-1.0767934478	-2.5290993479	 0.2285944192	 0.264842
