16
gdb 55245	3.26772	1.25409	1.04108	6.441	66.38	-0.2328	0.0068	0.2396	1137.4753	0.125836	-471.254502	-471.245979	-471.245035	-471.288573	30.934	
N	 0.1746364496	 1.1181877416	-0.4059153451	-0.52165
C	 0.0630031111	-0.1568467756	 0.0621125451	 0.391581
O	 1.0075299758	-0.8041840193	 0.4639415561	-0.348703
C	-1.3727668142	-0.7246760255	 0.0712101978	-0.122387
C	-2.0406754771	-0.8419668217	-1.319534481	-0.103015
O	-1.8186307264	-2.1933443694	-1.7128096964	-0.241166
C	-1.4497908691	-2.9382996386	-0.6197160541	 0.461597
N	-1.2115685519	-4.1770995783	-0.6154328743	-0.581555
N	-1.3993807284	-2.1053851064	 0.495851351	-0.31706
H	 1.0746312261	 1.5674966971	-0.3514020105	 0.270673
H	-0.6272269323	 1.6853094959	-0.6205819712	 0.262786
H	-1.977013389	-0.0869754709	 0.7295712312	 0.108938
H	-3.1181523035	-0.6517096961	-1.2557321916	 0.122393
H	-1.6014726415	-0.1803918005	-2.0701728291	 0.123989
H	-1.3383711704	-4.5661233485	-1.5468006208	 0.224351
H	-0.6836369088	-2.3691736438	 1.1606721028	 0.269227
