16
gdb 36497	4.22831	1.07782	0.94068	5.2483	68.9	-0.2746	0.0364	0.311	1205.9962	0.124751	-437.879497	-437.871747	-437.870803	-437.912495	28.401	
N	-0.1187749541	-1.1110508986	-0.1567787164	-0.305475
C	-0.0624933334	 0.0421087874	-0.1190171248	 0.26956
C	 0.0002958373	 1.4993256737	-0.0458614777	-0.351263
C	 1.4380259047	 2.0289612171	 0.066391365	 0.10799
O	 2.1382057187	 1.6550903134	-1.114520931	-0.264831
C	 3.0442753269	 2.6828387618	-1.5062531235	-0.107135
C	 2.5162272757	 3.9491911152	-0.8716669004	 0.028433
O	 1.1178484883	 4.1538697484	-1.1090399303	-0.246759
C	 1.5214784471	 3.5432835202	 0.121018324	-0.011638
H	-0.4528797696	 1.9330491394	-0.942233548	 0.173352
H	-0.5828558745	 1.8299461581	 0.8211976542	 0.14925
H	 1.9220155894	 1.6089261396	 0.9625312314	 0.095492
H	 4.0641073399	 2.484478934	-1.1414714029	 0.106835
H	 3.0621222504	 2.713595153	-2.6000665391	 0.130169
H	 3.1295665318	 4.8412375581	-0.7855744786	 0.113785
H	 1.3051023515	 4.0884380791	 1.035429308	 0.112235
