6
gdb 12	73.8472	11.34793	9.83639	3.7286	21.57	-0.2543	0.0302	0.2845	145.3078	0.045279	-169.860788	-169.856903	-169.855958	-169.885594	10.89	
N	-0.0258998583	 1.34614561	 0.0088939089	-0.463064
C	 0.0464672751	-0.0117434132	 0.0012042484	 0.169707
O	 1.0718352049	-0.6525878165	-0.0111331282	-0.304836
H	 0.8253549651	 1.8850494841	 0.0037376912	 0.264237
H	-0.9083767959	 1.8267963784	 0.018919919	 0.26171
H	-0.9614410008	-0.4750037629	 0.0080739107	 0.072245
