16
gdb 54059	1.91896	1.5698	0.94085	2.518	74.44	-0.2507	0.003	0.2537	1215.2834	0.123876	-434.07235	-434.063138	-434.062194	-434.106657	33.652	
N	 1.1640477973	-0.8365334752	 0.4520303492	-0.575972
C	 0.1895208687	 0.1120648934	 0.2455970653	 0.471887
O	 0.4071566163	 1.3070807133	 0.2685166654	-0.386365
N	-1.0816205372	-0.4142863054	-0.0506118444	-0.122095
C	-1.3197778703	-1.8412895472	-0.284217626	-0.330241
C	-1.2250943655	-2.6625551376	 0.9224411814	 0.302176
C	-1.1059656969	-3.3427387375	 1.9066634572	-0.450889
C	-2.1393161833	 0.4744706251	-0.2111318228	 0.106984
N	-3.30453117	 0.0727735802	-0.5232067999	-0.487718
H	 2.0241707512	-0.43543247	 0.7931628769	 0.265919
H	 0.9078611156	-1.7235467961	 0.8627159419	 0.266525
H	-2.3283186209	-1.9066862621	-0.7024732604	 0.192792
H	-0.6129024402	-2.2072060793	-1.0372200641	 0.15332
H	-1.0356456	-3.9455104388	 2.7788338626	 0.210882
H	-1.8193332819	 1.5015976394	-0.0387109573	 0.150026
H	-3.9416154331	 0.8623180377	-0.5956757948	 0.23277
