25
gdb 109680	2.65928	0.95029	0.88978	1.2252	89.78	-0.2408	0.0632	0.304	1532.7248	0.226367	-389.486465	-389.475039	-389.474095	-389.522905	41.941	
C	-0.27790869	 1.5514944423	 0.272282772	-0.372406
C	 0.072329868	 0.0970364377	-0.0697325205	-0.212436
C	 0.7971394343	-0.599769421	 1.0650199435	-0.0938
C	 0.0364959778	-1.4099991876	 2.1002231559	 0.050023
O	-1.3346763876	-1.6435454863	 1.9281277546	-0.423747
C	 0.9775376907	-2.1123710717	 1.1544920119	 0.286595
C	 0.3998045769	-2.9991346434	 0.0662584257	-0.461777
C	 2.2989749611	-2.5938030233	 1.7466376907	-0.238111
C	 2.2194944848	-3.9402315018	 2.4773761974	-0.382177
H	 0.6213165281	 2.132837777	 0.5041942112	 0.114925
H	-0.7888362192	 2.0443837355	-0.5608022378	 0.111079
H	-0.9357148837	 1.607401987	 1.1473079264	 0.102273
H	-0.8450002948	-0.4455715404	-0.3148097174	 0.10715
H	 0.6946823266	 0.0781432132	-0.9735623779	 0.096354
H	 1.6325431516	-0.0222132628	 1.4591951384	 0.06949
H	 0.3457293595	-1.3268388698	 3.1432876901	 0.074986
H	-1.8048016363	-0.832889201	 2.149894617	 0.287737
H	-0.5867030568	-2.6638225182	-0.2531722727	 0.132571
H	 1.060919697	-3.018075336	-0.808222451	 0.107136
H	 0.2880218277	-4.0290710016	 0.4196606811	 0.116958
H	 3.0474924193	-2.6540134093	 0.9444493032	 0.091797
H	 2.6700046665	-1.8341284617	 2.4458705709	 0.089259
H	 1.9600128501	-4.7589107499	 1.7997715524	 0.118703
H	 3.181122317	-4.1886728053	 2.9375053524	 0.108753
H	 1.4644132816	-3.9134074715	 3.2703269526	 0.118666
