19
gdb 108526	2.60163	1.53822	1.1733	2.5975	70.04	-0.2519	0.0587	0.3105	1086.5645	0.160502	-460.138439	-460.130321	-460.129377	-460.171502	30.719	
O	 0.0644106775	 1.3463293986	-0.0568682156	-0.422137
C	 0.0169918258	-0.0384489196	 0.2300639597	-0.132874
C	-1.396074154	-0.5585668918	 0.0479543977	 0.409168
C	-2.4236894355	-0.069289233	 1.0873141575	-0.140944
O	-2.8384171858	-1.2387366165	 1.7828968389	-0.245708
C	-2.8719541194	-2.2990861592	 0.836967066	-0.096712
C	-1.6536112515	-2.0771938772	-0.0776558019	-0.158306
C	-1.9176553642	-1.7641576	-1.5630046964	-0.095924
O	-1.8171549798	-0.3390607457	-1.3338372427	-0.341444
H	-0.3102498555	 1.4439646027	-0.9413800338	 0.295047
H	 0.7071728471	-0.6082692079	-0.412580055	 0.084833
H	 0.3397795273	-0.1669759705	 1.2689737507	 0.115609
H	-2.0121091208	 0.6304567613	 1.8176295401	 0.121251
H	-3.2630673803	 0.4090501821	 0.5610248771	 0.101554
H	-2.8432364681	-3.239460735	 1.3925533297	 0.113381
H	-3.8054900373	-2.2701953042	 0.2506021911	 0.092129
H	-0.821086559	-2.7467273399	 0.1419952063	 0.086677
H	-1.141720508	-2.1171245434	-2.2523318943	 0.106928
H	-2.9018993784	-2.0488374608	-1.953513285	 0.10747
