13
gdb 7017	7.37961	1.00827	0.89194	6.9305	60.97	-0.273	-0.0405	0.2325	1177.2638	0.095379	-394.819863	-394.811842	-394.810898	-394.853257	27.253	
N	-0.1174826495	 1.4768189066	 0.0625517653	-0.468857
C	-0.0263455048	 0.2187900886	 0.0401100861	 0.408497
C	-1.2604374189	-0.6732057755	 0.1085436498	-0.452863
C	-2.5157995494	 0.0631991144	 0.1998259797	 0.308289
N	-3.5425552575	 0.5845882604	 0.2734223468	-0.29574
N	 1.1566386598	-0.5502540959	-0.0468231448	-0.352103
C	 2.4416381484	-0.0606989422	-0.1238485878	 0.171732
O	 2.7490205725	 1.1075851973	-0.128476117	-0.287519
H	 0.8028151932	 1.9144185462	 0.0085291362	 0.262731
H	-1.2958237124	-1.319823913	-0.7784403479	 0.170341
H	-1.1818621388	-1.3429459334	 0.9753673816	 0.170336
H	 1.0649633382	-1.5556041703	-0.0540447168	 0.261493
H	 3.182337319	-0.8803534032	-0.1827132513	 0.103663
