17
gdb 70063	3.07547	1.6454	1.31326	0.9826	73.74	-0.2284	-0.0038	0.2246	980.347	0.136509	-421.763771	-421.756558	-421.755614	-421.79501	29.218	
O	-0.169520301	 1.439575204	 0.0236388843	-0.473716
C	-0.0453712536	 0.0505194179	 0.0756088044	 0.359463
C	-0.3291717292	-0.7557822711	-1.1619182489	-0.335979
C	-1.3185661648	-0.8014113024	 0.000266435	-0.115741
C	-1.0847215398	-1.9954425222	 0.8799912432	-0.194724
C	 0.0535747961	-1.8245150106	 1.5527317584	 0.143154
C	 1.3992866896	-2.4755577705	 1.7690151284	-0.145503
O	 1.9875458647	-1.3682680638	 1.0175293624	-0.30846
C	 0.7661235109	-0.5546069244	 1.203265221	 0.02782
H	 0.5828566591	 1.7853035394	-0.4690643445	 0.286793
H	-0.627587964	-0.1701450814	-2.0250942283	 0.116754
H	 0.2676718018	-1.6361605067	-1.3734578673	 0.124088
H	-2.2864251639	-0.3310363609	-0.1298638837	 0.101811
H	-1.6424219258	-2.9189887756	 0.7713836228	 0.104072
H	 1.7704433742	-2.490129888	 2.8021265039	 0.107639
H	 1.5763937109	-3.4466452805	 1.2962304443	 0.118665
H	 0.9379889247	 0.1917005568	 1.9897749847	 0.083863
