19
gdb 67028	2.14312	2.07594	1.62217	0.873	79.33	-0.2195	0.02	0.2395	950.7587	0.15948	-385.863854	-385.856097	-385.855153	-385.895308	31.982	
C	 0.0211349477	 1.5680407397	-0.0270428469	-0.495093
C	 0.0000327881	 0.0565152518	 0.0558240822	 0.195889
C	 0.295790334	-0.7569826202	-1.2755464997	-0.249262
C	-0.8850911933	-1.6565076026	-0.9594196944	-0.126232
C	-0.9197480588	-2.0454889389	 0.5700287046	-0.174214
C	 0.3014625494	-1.8363660576	 1.3876385648	-0.089568
C	 0.7976093986	-0.6146626895	 1.1484260743	-0.14751
C	-1.3954415887	-0.707524373	 0.071743985	 0.353159
O	-2.6502164013	-0.1551090793	 0.1858529868	-0.460209
H	 1.0329390064	 1.9359477126	-0.2316935038	 0.115925
H	-0.6364640907	 1.9298752881	-0.8234685081	 0.123019
H	-0.3123000448	 2.0223964294	 0.912774255	 0.111923
H	 0.078214775	-0.1396803543	-2.151886583	 0.103535
H	 1.2925648778	-1.199653855	-1.3682690639	 0.090801
H	-1.4367782746	-2.2774129048	-1.6546362083	 0.092027
H	-1.6512597407	-2.810992388	 0.8027223502	 0.084545
H	 0.7221705576	-2.5849182671	 2.0479422893	 0.093179
H	 1.7085892487	-0.1961621022	 1.560906485	 0.08965
H	-2.8181347703	 0.0267948708	 1.1180048508	 0.288434
