14
gdb 1853	5.82001	2.20266	1.73396	4.3063	59.89	-0.2415	-0.0264	0.2151	717.7613	0.114539	-324.629301	-324.622779	-324.621835	-324.65978	24.071	
C	-0.063230798	 1.5894145197	 0.0163364396	-0.39011
C	 0.0205330659	 0.0562778159	 0.0020727593	-0.00736
N	 0.8058977347	-0.467804055	-1.0962351905	-0.327583
C	 1.8529921816	-1.2739818174	-0.6996395475	 0.395615
O	 2.6368262435	-1.850000933	-1.4238145939	-0.385831
C	 1.7883134744	-1.2632937423	 0.7954448389	-0.188131
C	 0.7548580398	-0.5202305678	 1.191121528	-0.065829
H	 0.9379009168	 2.0265211355	 0.0613637698	 0.134203
H	-0.5632401421	 1.9572252077	-0.8850618109	 0.121422
H	-0.6377108823	 1.9331968764	 0.8823408368	 0.122431
H	-1.0041948048	-0.3487155003	-0.0237182495	 0.10088
H	 0.5825725041	-0.3320893401	-2.0676291564	 0.250898
H	 2.502344975	-1.8013212141	 1.4024196486	 0.122964
H	 0.4400629015	-0.3127540854	 2.2062175777	 0.116431
