12
gdb 21892	5.73297	1.61213	1.25829	3.0255	59.81	-0.2266	-0.0636	0.163	866.5222	0.086164	-414.703352	-414.697149	-414.696204	-414.733638	23.808	
O	-0.0096931921	 1.3405897198	 0.0098375865	-0.41652
C	 0.0260190205	-0.0099261267	 0.0026389268	 0.442514
N	 1.1742373789	-0.6097676203	-0.0073901042	-0.299557
N	 1.1399369793	-1.9623894447	-0.0141707356	-0.278296
C	 0.0295791135	-2.8011799615	-0.0118304004	 0.425093
O	 0.149452884	-4.0146762231	-0.0188084292	-0.394672
C	-1.2263362171	-2.0519180347	-0.0003498744	-0.184204
C	-1.2301819716	-0.7013088176	 0.006655205	-0.148327
H	 0.9063051626	 1.6499533161	 0.005898738	 0.307209
H	 2.0460890407	-2.4096323451	-0.0219591449	 0.274936
H	-2.1369387976	-2.6386709594	 0.0021215664	 0.137708
H	-2.1447496111	-0.1189221829	 0.015192126	 0.134116
