16
gdb 66581	3.40721	1.91083	1.58372	1.3908	75.26	-0.1976	-0.0438	0.1538	852.7011	0.124192	-400.589718	-400.583137	-400.582193	-400.620059	27.783	
O	 0.034654541	 1.34318306	 0.1685289066	-0.441817
C	 0.0757323161	-0.0150717112	 0.2112405494	 0.330149
C	-1.0693308546	-0.9472956303	 0.0605879093	-0.164236
C	-0.2190731188	-0.9315632316	-1.1771238934	-0.093288
N	 0.3350570364	-2.287012583	-0.9933489001	-0.111177
C	 1.8283354899	-2.462947946	-0.8362687235	-0.194865
C	 2.2086549111	-1.4133353338	 0.224044116	-0.155678
C	 1.040433992	-1.0269271676	 0.7761999868	-0.034961
C	-0.0723104652	-2.0743151232	 0.4258212586	-0.045005
H	 0.876886256	 1.6713354417	-0.1701465256	 0.295233
H	-2.1359992561	-0.8546701499	 0.2128863593	 0.103998
H	-0.3471476252	-0.4252964715	-2.1262629613	 0.100847
H	 1.9828645449	-3.5171194314	-0.5773027115	 0.119929
H	 2.3788888285	-2.2668933991	-1.7637092153	 0.113837
H	 3.059728838	-0.7563773952	 0.0711814316	 0.091067
H	-0.265281534	-2.928350408	 1.073789203	 0.085968
