18
gdb 432	4.34218	3.60938	2.38799	0.1206	63.28	-0.2822	0.0842	0.3663	624.4665	0.166462	-235.696852	-235.689979	-235.689035	-235.726894	25.85	
C	-0.5901292802	 1.3810537075	-0.0785250261	-0.412044
C	 0.0765349232	 0.0142273364	-0.0310963668	 0.061543
C	 1.4601247405	-0.1834043477	-0.7105291043	-0.223375
C	 1.8596219798	-1.126405486	 0.4553951685	-0.217176
C	 0.6944511056	-0.5326985704	 1.3030326971	 0.016698
C	 1.1455232339	 0.522196928	 2.3105998004	-0.391248
H	 0.0710866611	 2.1684055777	 0.2979277395	 0.112204
H	-0.8615982443	 1.6441375651	-1.107311042	 0.111112
H	-1.5082742055	 1.4025176593	 0.5198395493	 0.110679
H	-0.6205959964	-0.7373171842	-0.4201187327	 0.066959
H	 1.4721949048	-0.5924126808	-1.724176776	 0.090525
H	 2.0467971243	 0.7410693743	-0.7092602924	 0.095601
H	 1.6960472135	-2.1788955931	 0.2072677433	 0.095265
H	 2.8685833628	-1.0216326267	 0.8645682793	 0.089561
H	 0.0715419367	-1.2721178022	 1.8170062672	 0.05894
H	 1.8044275226	 1.2685697652	 1.8532493927	 0.112285
H	 0.2941254279	 1.0547479655	 2.7481074982	 0.111838
H	 1.7020317499	 0.0540541922	 3.1300572247	 0.110633
