12
gdb 502	18.86105	1.34062	1.32968	0.0008	48.98	-0.2578	-0.0386	0.2193	826.9499	0.093635	-306.384286	-306.377325	-306.376381	-306.416352	21.865	
O	-0.0670888036	-0.0762020768	 0.0118855551	-0.226989
C	-0.0242663248	 1.1191920839	-0.1119942606	 0.161155
C	 1.2412949959	 1.9478869952	-0.0378943509	-0.28117
C	 1.4806320878	 2.7124841809	-1.3592697939	-0.28116
C	 2.7461000541	 3.5413624877	-1.2853026039	 0.161137
O	 2.7887381933	 4.7367224342	-1.4095701573	-0.226981
H	-0.9480289743	 1.711866888	-0.3068647385	 0.080857
H	 1.1265422804	 2.6726286944	 0.7796315825	 0.13503
H	 2.0780367384	 1.2847306404	 0.1993730078	 0.131107
H	 1.5954391854	 1.9877385034	-2.1767874523	 0.135041
H	 0.6438445792	 3.3755661577	-1.5965846968	 0.13111
H	 3.6699607382	 2.9489057209	-1.0902455312	 0.080861
