16
gdb 66261	2.07842	1.6468	1.42204	5.0191	68.41	-0.2859	-0.0211	0.2648	1013.8194	0.124716	-437.946758	-437.938442	-437.937498	-437.979736	30.339	
C	-0.2840080052	 1.5803845276	 0.0562711213	-0.436036
C	 0.0670597041	 0.088788325	-0.0362566365	-0.044884
C	 0.9984675373	-0.3188358798	-1.1995945308	-0.262974
C	 1.7455145739	-1.5207749247	-0.6113967046	-0.096319
O	 1.8404062801	-1.2549081228	 0.8019710299	-0.216569
C	 0.9110261594	-0.3577481989	 1.1963163475	 0.454848
O	 0.7957063854	 0.0312383555	 2.3179101688	-0.329897
C	-1.1537709967	-0.7269624004	-0.0606491755	 0.274076
N	-2.1103393923	-1.3747066106	-0.1029608016	-0.330633
H	 0.6325053321	 2.1762941624	 0.0480339946	 0.13391
H	-0.9119177069	 1.8838691644	-0.784575607	 0.13901
H	-0.8143910648	 1.7783187896	 0.9895178518	 0.165083
H	 0.467185676	-0.558560257	-2.1212111526	 0.140301
H	 1.6927944569	 0.5029626707	-1.3980498801	 0.128181
H	 1.1978336262	-2.4581379601	-0.7539748313	 0.143771
H	 2.7606182745	-1.6369987909	-0.9933673539	 0.138133
