17
gdb 10945	5.42437	1.35318	1.21978	4.2969	71.03	-0.2321	0.0256	0.2577	1011.5883	0.141949	-363.853021	-363.84534	-363.844396	-363.885091	28.477	
C	-0.1890171079	 1.5230245449	 0.0470198788	-0.493896
C	 0.0671895936	 0.0463649091	-0.0041199099	 0.313734
C	-0.7437761546	-0.9816453892	 0.7510230252	-0.333437
C	 0.7381443363	-0.8799979713	 1.0075684178	-0.069453
N	 1.480069026	-1.5178596496	-0.0704835631	-0.037146
C	 0.8850027483	-0.656867122	-1.1085573237	-0.23043
C	 1.9246246258	-2.7945516186	-0.1960147896	 0.131012
O	 2.192740344	-3.3312421971	-1.2504524706	-0.326467
H	 0.7238085903	 2.0939009941	-0.155549647	 0.125345
H	-0.9394948071	 1.8190951909	-0.6954694727	 0.128852
H	-0.5634658829	 1.825155417	 1.0299982311	 0.124127
H	-1.3769264959	-0.5727206591	 1.533114784	 0.119517
H	-1.1464134036	-1.8605583166	 0.253792789	 0.119807
H	 1.1928367216	-0.6725533411	 1.9689642622	 0.111074
H	 0.3328426393	-1.2009623432	-1.8811739564	 0.127124
H	 1.6293352559	-0.0074965874	-1.5806117891	 0.122061
H	 2.0565212909	-3.2814447709	 0.792871484	 0.068173
