21
gdb 91068	3.47817	1.28248	1.20331	1.7426	80.84	-0.2488	0.0838	0.3326	1136.7171	0.184256	-387.068089	-387.060414	-387.05947	-387.100068	31.232	
C	-0.0855063931	 1.5540958886	 0.008499703	-0.404726
C	 0.0820321503	 0.0362089556	 0.0081895428	 0.059781
C	 0.911974849	-0.5154737533	-1.1783269969	-0.238646
C	 1.3146958732	-1.9301627236	-0.7346126451	-0.046819
C	 2.8103181455	-2.29439074	-0.6139299627	 0.00944
O	 3.4433278849	-1.2651639433	 0.1575211224	-0.240695
C	 2.7419807617	-2.3021478491	 0.856048019	 0.009434
C	 1.2414078747	-1.9385664255	 0.8412480403	-0.04682
C	 0.79849187	-0.5284971475	 1.2606967175	-0.238645
H	 0.88972612	 2.0523948661	 0.0565357032	 0.116927
H	-0.5930793616	 1.9003003194	-0.8983304316	 0.109332
H	-0.6752586054	 1.8908686121	 0.8679212661	 0.109332
H	-0.9158936784	-0.424375537	-0.0407016382	 0.065893
H	 0.3524222813	-0.4974560104	-2.1182915766	 0.088747
H	 1.8073363295	 0.102475412	-1.3083308624	 0.10929
H	 0.7286776937	-2.7253205881	-1.200954296	 0.071101
H	 3.4409635373	-2.8494009862	-1.2994822827	 0.098967
H	 3.306578669	-2.8646614213	 1.5912625163	 0.098969
H	 0.615050373	-2.7383691073	 1.2426976038	 0.071106
H	 1.677597612	 0.0876002309	 1.4798539327	 0.109286
H	 0.1540707234	-0.5202332322	 2.1447839352	 0.088746
