13
gdb 2634	15.36347	0.96061	0.95661	3.4488	57.61	-0.2789	0.0011	0.28	1133.2561	0.099399	-344.440065	-344.432332	-344.431387	-344.472938	25.81	
O	 0.1459855881	 0.0430490557	-0.2106656799	-0.267876
C	 0.1783858834	 1.2347489987	-0.2461231895	 0.170249
O	 0.8760523754	 1.9724122858	 0.6412280779	-0.171058
C	 0.8800422187	 3.3924303341	 0.4822174507	-0.084299
C	 2.2627045912	 3.8571619723	 0.0017250159	-0.34153
C	 2.3311167665	 5.3079968099	-0.103096554	 0.283499
C	 2.3465323925	 6.5070393654	-0.1775973012	-0.435563
H	-0.3561211672	 1.8565455741	-0.9916520457	 0.08018
H	 0.1028956999	 3.7037380573	-0.2258475644	 0.125394
H	 0.6482607248	 3.8262750844	 1.4577278768	 0.141185
H	 3.0204196118	 3.4856366688	 0.7012293908	 0.153496
H	 2.4797169887	 3.3943423624	-0.9688821012	 0.141811
H	 2.3793279162	 7.5661612511	-0.2482109461	 0.204512
