18
gdb 37987	3.03371	1.80338	1.35396	1.2923	71.62	-0.2453	0.0777	0.323	954.2891	0.150848	-438.998505	-438.99189	-438.990946	-439.029382	27.228	
C	-0.0145475659	 1.4154286128	 0.0077105518	-0.088674
C	 1.3621031409	 2.0582290323	 0.0259007008	-0.08838
O	 2.0061361914	 1.954367074	 1.2810014197	-0.264797
C	 2.2070620133	 0.6884676113	 1.8192700165	 0.178342
C	 2.3485519879	-0.625979312	 0.9871956143	-0.147405
N	 2.1681134379	-1.3147878214	 2.3271510588	-0.315097
C	 1.0606292727	-0.2776360984	 2.2882083744	-0.146677
C	 0.7875183754	-0.7073405161	 0.8092442203	 0.136618
O	 0.0349445094	 0.0073578649	-0.1244348591	-0.265636
H	-0.5586900413	 1.7053567252	 0.9199628851	 0.104521
H	-0.5825935505	 1.7713571104	-0.8576650008	 0.112117
H	 1.9786115626	 1.6119747211	-0.7698706252	 0.104442
H	 1.2757297028	 3.1318470022	-0.1693913248	 0.112608
H	 2.9808939588	 0.7938107364	 2.5799532648	 0.106071
H	 3.1387548305	-0.9248895286	 0.2967050107	 0.082892
H	 1.7609160689	-2.2417470797	 2.1716813925	 0.216178
H	 0.3643115538	-0.1590257078	 3.1197093403	 0.082689
H	 0.4387725313	-1.7417266265	 0.7180891099	 0.080188
