20
gdb 82454	2.38533	1.72859	1.35588	2.2848	78.69	-0.2129	0.0636	0.2765	1052.3616	0.169882	-403.074344	-403.06562	-403.064675	-403.106964	34.202	
C	-0.100940888	 1.560961959	-0.0610274592	-0.435605
C	 0.0960120237	 0.0612767816	 0.0792205953	 0.010553
N	 1.0952547893	-0.6486877523	-0.8370410789	-0.186176
C	 2.4214614151	 0.0092470999	-0.4959165854	-0.234296
C	 2.3443318363	-0.6106020931	 0.8857818776	 0.247294
C	 3.4009775551	-0.7721110602	 1.9360393971	-0.518062
C	 1.3695036739	-1.6238795153	 0.3294533056	-0.127822
C	 0.8260741401	-0.5816701847	 1.2491489394	 0.302024
O	 0.3863994786	-0.7923689473	 2.5410172613	-0.461185
H	 0.7786226513	 2.1373934139	 0.2372647559	 0.114507
H	-0.3445896477	 1.8166079102	-1.0979693543	 0.130609
H	-0.9375982724	 1.8850355401	 0.5670855132	 0.120099
H	-0.8607523418	-0.44982386	-0.0766126503	 0.08463
H	 3.2023830569	-0.4424507527	-1.1162574734	 0.104161
H	 2.4552204437	 1.0971032633	-0.6172356955	 0.091425
H	 3.7406695357	 0.2015742599	 2.3106564271	 0.115037
H	 3.0165105212	-1.3418845891	 2.7878434432	 0.130142
H	 4.2788458614	-1.2984737278	 1.5454587128	 0.123813
H	 1.3168955806	-2.7024093935	 0.2824800735	 0.100645
H	 0.6097411369	-0.0195749118	 3.0722281948	 0.288204
