14
gdb 127681	2.55371	1.86773	1.08606	4.8744	68.	-0.2373	-0.0482	0.1891	1025.5954	0.102169	-470.055362	-470.047452	-470.046508	-470.088779	28.163	
C	-0.0155576203	 1.4183801496	-0.0343605067	-0.319502
N	 0.0009938163	-0.0414721983	-0.0254400089	-0.075639
N	-0.0731408018	-0.6453556754	-1.2539860444	-0.239086
C	-0.0599227775	-1.9266862996	-1.2665580081	 0.115252
N	 0.022625283	-2.7112925256	-0.1414648284	-0.369142
C	 0.1017915463	-2.200709704	 1.1479538659	 0.359385
O	 0.1736854205	-2.9027813963	 2.1245148288	-0.324617
C	 0.08847893	-0.6775744457	 1.1991883445	 0.317905
O	 0.1503918472	-0.0648135605	 2.2426337894	-0.348936
H	 0.8968208552	 1.8083900137	 0.4240692981	 0.153724
H	-0.0876467818	 1.7360050254	-1.0725276066	 0.150514
H	-0.8679395651	 1.7890480067	 0.5407355597	 0.153742
H	-0.117070257	-2.4351755962	-2.2205354779	 0.154627
H	 0.0285531549	-3.7202406437	-0.2201133153	 0.271773
