19
gdb 76824	2.73069	1.58624	1.20555	2.6185	76.06	-0.2237	0.0159	0.2396	1074.262	0.160712	-419.190456	-419.18208	-419.181136	-419.223313	31.721	
C	-0.2708761613	 1.5264002762	-0.1601059714	-0.397679
C	-0.0897101072	 0.0247538318	-0.0268416031	-0.02181
C	 1.1551127603	-0.5515622872	-0.8383208461	 0.023695
O	 1.7531804217	 0.2201473544	-1.834728487	-0.418987
C	 1.8059830622	-0.5732015051	 0.5291626992	 0.291977
N	 2.9122287346	-0.3153939151	 1.0979424845	-0.347344
C	 2.5044789987	-0.0344040817	 2.5057456444	-0.169072
C	 0.9571304274	 0.2360666891	 2.4647783283	-0.200188
N	 0.6051415249	-0.4620444533	 1.2196039973	-0.089842
H	 0.6642466747	 2.0681240934	 0.0144680459	 0.116829
H	-0.6076049499	 1.7660691966	-1.1725383279	 0.138396
H	-1.0184003817	 1.8991195613	 0.5469710824	 0.123647
H	-1.0341059584	-0.5009449476	-0.1927129903	 0.086103
H	 0.9371182199	-1.5403110003	-1.2500267032	 0.1178
H	 2.4056958584	 0.7909867967	-1.4136718033	 0.299157
H	 2.7280732741	-0.906683733	 3.1320840035	 0.117191
H	 3.0733807201	 0.810670625	 2.9019620066	 0.111945
H	 0.43087833	-0.1711393587	 3.3312975545	 0.114076
H	 0.7380177717	 1.3104421175	 2.3981388556	 0.104107
