21
gdb 109777	1.90906	1.522	1.02431	3.4783	78.98	-0.2447	0.064	0.3087	1251.159	0.182053	-424.183353	-424.173933	-424.172989	-424.218111	35.112	
C	-0.4838729838	 1.0752799831	-2.2557639672	-0.415155
C	-0.3093283214	-0.1134376077	-1.3327110584	-0.045131
C	 1.0237034018	-0.5371221022	-0.7704986337	-0.045876
C	 2.3286245273	 0.1885045945	-1.0353870747	-0.081956
O	 3.2439620591	 0.0386640405	 0.0323612265	-0.429219
C	-0.040242165	 0.0422049338	 0.1561505062	-0.0881
C	 0.1121424805	 1.3910532845	 0.792161174	 0.065122
C	 0.2385538575	 1.5338506263	 2.2497140537	-0.183078
O	 1.3798591252	 1.7200275354	 1.4129160156	-0.237399
H	 0.177144564	 1.9092262303	-2.0078371286	 0.125721
H	-0.2726135288	 0.7913571369	-3.2921313642	 0.12329
H	-1.5138917182	 1.4477010755	-2.2191898796	 0.117888
H	-0.9809569365	-0.9332601229	-1.5757968237	 0.086412
H	 1.1680252278	-1.6084824257	-0.6572869812	 0.091738
H	 2.8105826977	-0.2477659512	-1.9181059696	 0.103955
H	 2.1518828056	 1.2500457271	-1.2597270637	 0.085874
H	 2.8483955301	 0.5097400034	 0.7795224302	 0.288726
H	-0.5311421138	-0.6842967488	 0.7972302733	 0.091655
H	-0.304951565	 2.2403340362	 0.253623243	 0.103683
H	-0.1220650038	 2.4325317276	 2.7474591268	 0.119809
H	 0.2551857396	 0.6364261035	 2.8666889752	 0.122042
