17
gdb 55841	4.59091	0.84959	0.76527	6.4131	70.2	-0.2423	0.016	0.2583	1442.3935	0.135637	-455.206256	-455.197096	-455.196152	-455.241424	32.853	
N	 0.015041384	 1.304552607	-0.0411112225	-0.521074
C	 0.0065700795	-0.0177533356	-0.3659438027	 0.420438
O	 0.9370659746	-0.5529993721	-0.9427037017	-0.365061
C	-1.258783577	-0.7774390325	 0.0346781783	-0.336768
C	-1.0185194433	-2.2829270878	 0.0809837731	 0.076785
C	-2.2765262777	-3.2009558406	 0.1241589447	-0.423024
C	-1.7864965992	-3.7360067177	-1.2499232631	 0.428932
O	-2.1688360288	-4.5502383776	-2.0464492205	-0.362519
N	-0.7041605968	-2.8943499173	-1.2100742349	-0.304401
H	 0.7920052226	 1.8677317809	-0.3465466981	 0.265361
H	-0.7676864375	 1.7565373523	 0.3974218814	 0.262222
H	-1.6256752165	-0.42253665	 1.0053500178	 0.114399
H	-2.0374820379	-0.5519620027	-0.7058985575	 0.13329
H	-0.2748119492	-2.5169573003	 0.8507320468	 0.092288
H	-2.2915970629	-3.9469878991	 0.9202782521	 0.130782
H	-3.2375963521	-2.6835396731	 0.0867662007	 0.122877
H	 0.0662441483	-2.7050988539	-1.8332287537	 0.265474
