19
gdb 52928	5.88849	0.74924	0.74872	1.4143	87.91	-0.2362	0.0528	0.2889	1587.4197	0.158011	-385.823913	-385.814692	-385.813747	-385.861035	34.112	
C	-0.0163468889	 1.4083365302	 0.0203659703	-0.517793
C	 0.0025491056	-0.046621641	 0.004138251	 0.410599
C	 0.0179265238	-1.2517140821	-0.009777941	-0.443868
C	 0.0371798466	-2.6827552241	-0.0246018132	 0.286213
C	 0.6806881084	-3.6389985654	 1.0399811073	-0.285069
C	 0.0665846539	-4.5583931885	-0.03685982	 0.355996
O	 0.1321466575	-5.9346335585	 0.0290550299	-0.468639
C	-1.1986704116	-3.645520998	-0.022403597	-0.318551
C	 0.669058881	-3.6090438395	-1.1186629999	-0.318516
H	 0.9990721148	 1.8203556435	 0.0152982272	 0.147998
H	-0.5401799556	 1.8098161665	-0.8544414434	 0.14753
H	-0.5235738718	 1.7905665708	 0.9133845874	 0.147997
H	 1.7709514125	-3.6189974193	 1.1074578671	 0.098524
H	 0.207837848	-3.6495153334	 2.0248285931	 0.098509
H	-0.3149865604	-6.3002759125	-0.7417859992	 0.283068
H	-1.802341556	-3.6525681786	 0.8882893499	 0.098671
H	-1.8164132106	-3.6317643635	-0.92490018	 0.089331
H	 0.1818484375	-3.5927255667	-2.0977717063	 0.089328
H	 1.7582261153	-3.58306258	-1.2015105733	 0.098671
