17
gdb 90692	3.4572	1.11965	1.00632	3.5534	69.46	-0.2415	0.0279	0.2694	1203.1945	0.13615	-455.13186	-455.123484	-455.12254	-455.165402	31.831	
N	-0.1029120877	 1.3071275803	-0.0513498883	-0.535031
C	-0.0478908075	-0.0645867409	-0.021194142	 0.40495
O	 0.8508608278	-0.6929169422	 0.4946145921	-0.359434
N	-1.1492917689	-0.6544949942	-0.6945822359	-0.183277
C	-2.4572498046	-0.7132708473	 0.0030063101	-0.048814
C	-3.4733300594	-1.17943031	-1.0380319462	-0.292256
C	-2.5809835619	-2.4724685563	-1.2502905391	 0.127215
O	-2.0448773791	-2.7210205391	-2.515410062	-0.429599
C	-1.6191526615	-1.9401830741	-0.1723427197	-0.057065
H	 0.7516149352	 1.7809893336	 0.193452057	 0.26527
H	-0.6872839895	 1.7484400665	-0.7422704335	 0.261356
H	-2.6103431528	-0.1193906631	 0.8951327165	 0.116702
H	-4.4533390089	-1.4134499788	-0.6160686649	 0.111643
H	-3.5902428463	-0.5365736912	-1.9137040986	 0.105249
H	-3.1043336214	-3.3778063138	-0.9357379738	 0.098823
H	-1.4436216047	-1.9873736775	-2.6994509903	 0.288025
H	-0.9934296989	-2.4729835718	 0.5311885684	 0.126242
