19
gdb 82388	2.74801	1.82484	1.4123	2.6652	73.65	-0.2172	0.0592	0.2763	960.9642	0.162708	-419.150016	-419.142987	-419.142042	-419.181048	29.5	
O	 0.0479375178	 1.4569761741	-0.0225825409	-0.440068
C	-0.0119902383	 0.0469636287	-0.0011490741	 0.084112
C	 0.6591041604	-0.5099938449	 1.2705926978	-0.060232
N	 1.0437036609	 0.5179562848	 2.2500839633	-0.355489
C	-0.1237740138	-0.3525627973	 2.5205127659	-0.014529
C	-1.5025767686	 0.2734917408	 2.3578897201	-0.179082
N	-2.2223236256	-0.3809695253	 1.2458944835	-0.106068
C	-2.6087849664	 0.4511573457	 0.1028381903	-0.245577
C	-1.4542681087	-0.4725270663	-0.0075898628	-0.01446
H	 0.5519690595	 1.7073526037	 0.771172277	 0.294457
H	 0.5024413393	-0.3501694573	-0.8868786595	 0.070369
H	 1.2976923105	-1.3792201376	 1.1497668839	 0.092219
H	 1.8543792518	 0.2264812066	 2.7878202471	 0.240654
H	-0.0069485991	-1.1038592225	 3.2958948668	 0.095394
H	-2.096668371	 0.1337176289	 3.2660696873	 0.10501
H	-1.3830287527	 1.3520327494	 2.2006576296	 0.112632
H	-3.5614517332	 0.200385488	-0.3565792511	 0.107169
H	-2.3702440844	 1.5105430791	 0.1408709176	 0.130444
H	-1.5765582383	-1.4228216484	-0.5257190216	 0.083045
