20
gdb 12088	3.55426	1.4844	1.36252	1.3621	75.49	-0.2415	0.0726	0.3141	1024.9924	0.176057	-348.974635	-348.966048	-348.965104	-349.007647	33.088	
C	-0.1623277111	 1.5805464076	-0.0891487692	-0.426856
C	 0.011928097	 0.0839111052	 0.0743657413	-0.00162
C	 1.3458594008	-0.5866949758	-0.1626639851	-0.308102
C	 0.7479421622	-0.5786640975	 1.2225476018	-0.045358
C	 1.408380625	 0.1431273913	 2.3651782739	 0.398651
O	 2.1614047824	 1.2846988873	 2.0317879641	-0.4675
C	 0.7479773407	 0.1358360967	 3.7235714059	-0.327158
C	 2.006653794	-0.6728234248	 3.4761369643	-0.291422
H	 0.7789901864	 2.1172351268	 0.0509424636	 0.11941
H	-0.5154476013	 1.8143180251	-1.0996827996	 0.117877
H	-0.9006570002	 1.9844846533	 0.6142141789	 0.111398
H	-0.853543974	-0.4814408353	-0.2643097863	 0.080658
H	 1.3868599427	-1.5186128299	-0.7161013255	 0.103761
H	 2.1958171974	 0.0699970177	-0.3155087723	 0.124704
H	 0.3056755382	-1.5170578704	 1.5481777442	 0.07576
H	 1.5568395387	 2.0322607193	 1.989445675	 0.282802
H	 0.8457054175	 1.0317850353	 4.327332655	 0.109635
H	-0.1944376802	-0.3891128428	 3.8384840792	 0.111038
H	 1.9295224223	-1.7533642456	 3.4258161139	 0.111593
H	 2.9294948414	-0.2976798834	 3.902458017	 0.120727
