25
gdb 119075	1.90982	1.27407	0.91956	0.904	89.47	-0.2516	0.0776	0.3292	1444.0393	0.227748	-389.476421	-389.465791	-389.464847	-389.512471	39.034	
C	-1.7704066105	-0.3304261514	-0.2446951718	-0.392869
C	-0.2953342931	-0.0076424231	 0.0197999866	-0.242713
C	 0.6879798293	-0.5809025175	-1.0059241029	 0.33795
C	 0.4502701831	-0.0336983443	-2.4106999826	-0.104763
O	 0.5791955748	 1.373017229	-2.3893899309	-0.238277
C	 0.3998960188	 1.9628095948	-3.6530023549	-0.223776
C	 2.1980057469	-0.4888332615	-0.6141973318	-0.259037
C	 2.3830647143	-1.9756824788	-1.0205497813	-0.212256
C	 0.8386886832	-2.137047015	-1.0469190516	-0.267984
H	-2.1328417418	 0.1447490543	-1.1614844391	 0.119185
H	-1.9361923569	-1.4096324507	-0.3394681811	 0.112681
H	-2.3980599871	 0.0280256628	 0.5771765813	 0.11088
H	-0.1601382873	 1.0789291977	 0.0620563706	 0.111317
H	-0.0161919875	-0.3964012599	 1.0074921578	 0.082828
H	 1.1800166139	-0.4699702438	-3.1149644877	 0.078022
H	-0.551478927	-0.3212396344	-2.7732320508	 0.083598
H	 0.5173064828	 3.0427444345	-3.5323996285	 0.125359
H	 1.1445393232	 1.6039180053	-4.381745973	 0.101663
H	-0.6023596806	 1.7584785206	-4.0629422063	 0.101721
H	 2.7872163561	 0.2610787708	-1.146871378	 0.102162
H	 2.3288722967	-0.3301385652	 0.4601115813	 0.092198
H	 2.8343143585	-2.0903411092	-2.0095845181	 0.100386
H	 2.9322071965	-2.6138334157	-0.3244523004	 0.095089
H	 0.4500539206	-2.6035823215	-0.1368367771	 0.096484
H	 0.4043909932	-2.656018878	-1.9072161797	 0.090152
