17
gdb 123822	3.6347	1.54646	1.11443	2.6323	81.32	-0.2006	-0.0034	0.1973	1051.6565	0.140866	-380.914198	-380.907431	-380.906487	-380.945225	27.237	
C	-0.0244358032	 1.4966825336	 0.0894398288	-0.261394
C	 1.38174667	 2.131354869	-0.0439681084	-0.339366
C	 2.1635389055	 1.3697083263	-1.065242283	 0.315726
C	 1.9641106133	 0.0251423227	-1.3359483461	 0.186585
C	 2.9692399391	-0.297561613	-2.2771466791	-0.126965
N	 3.7302031327	 0.7539559572	-2.5704890931	-0.231492
N	 3.2210671715	 1.7547787765	-1.8110760348	-0.298144
C	 0.899320038	-0.6998240929	-0.6617275616	-0.161143
C	-0.0179629849	-0.0189974403	 0.0400465101	-0.095228
H	-0.4935739714	 1.8485511823	 1.013531828	 0.105963
H	-0.6596720671	 1.8662601244	-0.7308388199	 0.117414
H	 1.2945040776	 3.1941188885	-0.2935685732	 0.108458
H	 1.904194401	 2.0778804218	 0.9228709082	 0.122177
H	 3.1639972989	-1.2452528616	-2.7585996883	 0.109134
H	 3.6448540036	 2.6658064232	-1.8665386317	 0.268698
H	 0.8616316817	-1.7824261348	-0.7324434958	 0.089481
H	-0.8282064964	-0.5395177729	 0.5406636099	 0.090097
