18
gdb 27926	2.40881	1.31793	0.861	5.805	85.37	-0.2107	-0.021	0.1897	1328.3574	0.14711	-402.02012	-402.010804	-402.00986	-402.054664	33.273	
C	 0.0223670589	 1.4908723409	 0.0749313296	-0.503133
C	 0.0160649345	 0.0039236844	-0.0490178454	 0.330482
C	-0.0450479863	-0.8182094022	-1.1385351058	-0.335356
C	-0.0185643603	-2.1741601556	-0.6720489861	 0.119783
C	-0.065104415	-3.3611488502	-1.5065544265	 0.070172
O	-0.1332117329	-3.3560632532	-2.7196178155	-0.300526
C	 0.0595159098	-2.1354008638	 0.7171406368	 0.232859
C	 0.1176343951	-3.2168891173	 1.7456913552	-0.50959
N	 0.0792686405	-0.8165505135	 1.0703726059	-0.351045
H	 0.9329973291	 1.8613863276	 0.5621509259	 0.128706
H	-0.0296641105	 1.9437634666	-0.9172632788	 0.146341
H	-0.8324329979	 1.8612929488	 0.6546413335	 0.128834
H	-0.1031044295	-0.5172963378	-2.1725052083	 0.118821
H	-0.0337586109	-4.3276625764	-0.9529239707	 0.044806
H	 1.0361404232	-3.1589735071	 2.3425346238	 0.135676
H	-0.7290910054	-3.1605637406	 2.4407740335	 0.135687
H	 0.0922708898	-4.2005333043	 1.2749167591	 0.151426
H	 0.1318118877	-0.4827776563	 2.0189886939	 0.256055
