14
gdb 2169	3.81949	3.11023	1.81928	2.6161	54.34	-0.2693	0.0189	0.2882	673.3919	0.115102	-361.73193	-361.725633	-361.724689	-361.762049	23.532	
O	 0.3780639581	 1.1031400646	 0.6020748102	-0.439627
C	-0.0146617639	-0.112434764	 0.0300137107	 0.075398
C	-1.5086479865	-0.2194846327	-0.2959981535	-0.25387
C	-1.4924585512	-1.2522335595	-1.4292874457	-0.095304
O	-0.2387529298	-1.0421414358	-2.1260771999	-0.233466
C	 0.6062385063	-0.3366094323	-1.3373242439	 0.397875
N	 1.7367226136	 0.1267276221	-1.6538939584	-0.567698
H	 1.2190377811	 1.3284679177	 0.1762219287	 0.297323
H	 0.2777463659	-0.9615003663	 0.6736187311	 0.09343
H	-2.1263946476	-0.5278896655	 0.5488231195	 0.118173
H	-1.8600506019	 0.752431642	-0.6554106919	 0.128019
H	-1.5109279067	-2.281522315	-1.0524800557	 0.12035
H	-2.2964903372	-1.1308222608	-2.1573451733	 0.129202
H	 1.9877185197	-0.0833453747	-2.6196248878	 0.230195
