22
gdb 110639	2.39465	1.43172	1.09704	0.7697	87.31	-0.2064	0.0735	0.2799	1234.8671	0.192777	-367.122983	-367.11386	-367.112916	-367.156577	35.664	
C	 0.805903321	 1.5332990996	-0.2291950603	-0.37595
C	 0.0020617845	 0.2328082919	-0.1566995891	-0.125223
N	 0.4469139308	-0.5666262575	 0.9865142064	-0.110753
C	-0.2703046564	-1.2972574486	 1.993366597	-0.125231
C	-1.3424324534	-2.3302154632	 1.5024166086	-0.064416
C	-1.5424643522	-2.3863904042	 0.0146995105	-0.313653
C	-0.2965025737	-2.982406554	 0.6116723531	-0.106387
C	 0.7782433373	-1.9535203419	 1.1327516112	 0.30729
C	 2.1849004175	-2.3879770876	 1.4231256202	-0.480653
H	 1.8735050285	 1.3206131384	-0.3392148192	 0.116945
H	 0.4845427231	 2.1427143624	-1.0811395889	 0.102568
H	 0.6736421918	 2.1188175296	 0.6854210797	 0.118174
H	-1.0645243893	 0.4681953131	-0.0615304523	 0.108221
H	 0.1349173422	-0.32950813	-1.088976551	 0.106277
H	-0.217548084	-0.9683029223	 3.0273862833	 0.087237
H	-2.0145100968	-2.8195878131	 2.1955918851	 0.086728
H	-2.2690071612	-3.1320578754	-0.2986344852	 0.109823
H	-1.5373739023	-1.5087809308	-0.6135572988	 0.1136
H	-0.070158794	-4.0380156093	 0.5278372344	 0.084861
H	 2.744618144	-2.5556726747	 0.4941142625	 0.116792
H	 2.705868888	-1.6205374624	 2.0011691608	 0.126894
H	 2.1981513246	-3.3266157999	 1.9884109222	 0.116857
