18
gdb 70401	2.40918	1.54475	1.36383	3.7602	75.9	-0.2428	0.0247	0.2676	1037.3788	0.148528	-398.100819	-398.092133	-398.091189	-398.133504	33.865	
N	-0.0478987914	 1.4308788791	-0.1873475185	-0.600394
C	-0.0522245043	 0.0247965358	-0.0122788689	 0.336578
C	-0.4145607346	-0.8732151217	-1.1652701377	-0.332829
C	-1.2490923631	-0.9277813993	 0.0832190858	-0.062606
C	-0.5325186314	-1.791263784	 1.1211687363	-0.293776
C	 0.7073142538	-0.7908380411	 1.0763237013	 0.064116
N	 2.0541972769	-1.2089043984	 0.7291157121	-0.567879
C	 0.7640476165	-0.0162618963	 2.3196926101	 0.28277
N	 0.7761822365	 0.6135527982	 3.289228041	-0.347781
H	-0.1301366867	 1.9135817028	 0.703101338	 0.246599
H	 0.8119691808	 1.7439093175	-0.6280466323	 0.240547
H	-0.8484116736	-0.3282377003	-1.9961238882	 0.13129
H	 0.1948249622	-1.7261107737	-1.4569993715	 0.098724
H	-2.301602567	-0.6784924678	 0.0884103246	 0.10151
H	-1.0160408418	-1.8250476404	 2.0984607533	 0.127574
H	-0.2857585762	-2.8105938775	 0.8061301061	 0.099637
H	 2.4509946517	-1.8063567662	 1.4480232861	 0.240702
H	 2.0369521118	-1.7397112967	-0.1351094677	 0.235218
