19
gdb 109347	2.92039	1.25929	0.95279	1.5385	76.74	-0.239	0.0069	0.2459	1242.0212	0.16016	-423.013529	-423.005195	-423.004251	-423.046694	31.722	
O	 0.2187654006	 1.3418736521	 0.1697233547	-0.408537
C	 0.0286275977	-0.0586444165	 0.1937021301	-0.153245
C	-1.4093163284	-0.5022373297	 0.0605257396	 0.253467
C	-2.44513672	 0.3394808359	 0.0598236305	-0.152399
C	-3.8777462427	-0.1094405704	-0.0867918857	-0.263847
C	-4.0206608304	-1.4247324685	-0.878522191	-0.235952
C	-2.950467562	-2.4471155439	-0.5192531816	 0.044002
O	-1.8109296197	-2.5057350604	-1.3884773075	-0.258999
C	-1.6402607072	-1.9695773825	-0.059757201	-0.056635
H	-0.063097532	 1.6553933291	-0.6963544035	 0.284498
H	 0.6291666124	-0.5614340269	-0.5835851935	 0.108119
H	 0.4348241117	-0.3972157358	 1.1565246187	 0.121748
H	-2.2582948009	 1.40118904	 0.1958974366	 0.095131
H	-4.3206212719	-0.2224690472	 0.9139869892	 0.115897
H	-4.4653050633	 0.6754221184	-0.5757027105	 0.107329
H	-5.0162147224	-1.8511684543	-0.7199032349	 0.098949
H	-3.9264352064	-1.2175966705	-1.9495876084	 0.121332
H	-3.2929459375	-3.4256434202	-0.1843998383	 0.091386
H	-1.0374693775	-2.6075434585	 0.5886896467	 0.087756
