17
gdb 60767	2.59357	1.10805	0.88058	4.0268	72.96	-0.2557	-0.0585	0.1972	1307.9832	0.134319	-455.175698	-455.16611	-455.165166	-455.211493	33.071	
C	 0.0605931477	 1.3304453477	-0.4804739346	-0.38089
N	-0.0510635278	-0.10073087	-0.1883442416	-0.111331
C	 0.4280692994	-0.5504310534	 1.0430616325	 0.168077
O	 0.9202767194	 0.1760713192	 1.8736543375	-0.318723
C	-0.6688871631	-1.00349095	-1.0680495671	 0.351421
N	-0.9699268834	-2.1766396591	-0.6702104173	-0.495219
C	-0.8706400236	-0.4971964084	-2.4931302993	-0.378531
C	 0.4451937619	-0.5640395605	-3.2631370303	 0.160698
O	 1.0476210056	 0.3972519186	-3.6604437568	-0.218794
H	 0.6018852888	 1.5086714007	-1.4113371369	 0.161886
H	-0.9278846332	 1.7976065899	-0.5401389848	 0.135281
H	 0.6071105166	 1.7730386514	 0.351090161	 0.177321
H	 0.3127363703	-1.63495495	 1.1551953896	 0.142623
H	-1.3658422291	-2.7295351533	-1.4261144245	 0.225368
H	-1.5907550668	-1.1605818076	-2.9818305622	 0.133345
H	-1.2487917782	 0.5250684685	-2.5312427959	 0.144757
H	 0.8274534255	-1.5958657637	-3.4224359792	 0.10271
