18
gdb 45256	3.0674	1.60626	1.31205	2.0705	74.67	-0.2278	-0.0246	0.2032	991.7996	0.149494	-401.932311	-401.925259	-401.924314	-401.963865	28.369	
O	 0.1232279922	 0.2177685079	-1.0236616138	-0.294901
C	 0.0642500977	 1.1925597845	-0.3338953147	 0.408102
C	-1.0725592013	 1.8779611252	 0.4491176848	-0.376877
C	-0.1018626898	 3.0737918882	 0.7211719355	-0.029901
C	 0.3757685652	 3.3759051851	 2.1594244979	-0.185415
N	 1.6403566813	 2.6590554536	 2.4172578674	-0.088062
C	 1.5429924274	 1.1981172501	 2.3400086637	-0.257578
C	 2.0429892001	 1.9731027864	 1.1719410026	-0.024977
C	 1.0753881226	 2.298558437	 0.0371055386	-0.159569
H	-1.9477918862	 2.1012270694	-0.1684642604	 0.131599
H	-1.4162481449	 1.3303429141	 1.332504828	 0.130567
H	-0.4129324329	 3.9813788759	 0.2023840697	 0.088298
H	 0.5840531516	 4.44549464	 2.2630792272	 0.113694
H	-0.3676641353	 3.1116546538	 2.9194099085	 0.11082
H	 2.2455690865	 0.6612604122	 2.9713308989	 0.122122
H	 0.5613214186	 0.7354978139	 2.2823967637	 0.115893
H	 3.1033071393	 1.9648012035	 0.9402530715	 0.101282
H	 1.5877951981	 2.7606026392	-0.809286739	 0.094902
