18
gdb 36076	4.00198	1.14627	1.14015	1.2184	80.36	-0.2267	0.0471	0.2738	1145.3192	0.147814	-364.699477	-364.691679	-364.690735	-364.732099	30.465	
C	-0.9764090749	-0.1196768813	 1.2089275656	-0.449846
C	-0.2953501626	 0.2337020921	 0.2842535823	 0.302568
C	 0.551733055	 0.6815701489	-0.816413461	-0.50426
C	 1.6600764547	 1.57287528	-0.3429897628	 0.397264
C	 2.681665568	 1.5297615746	 0.7531127406	-0.130455
C	 3.7695212815	 1.6636736956	-0.2961036374	-0.17717
N	 2.7353223117	 2.2180482551	-1.2602444253	-0.218613
C	 2.3890862836	 3.5388680895	-0.595380574	-0.177175
C	 1.7703904483	 2.7676269671	 0.555539371	-0.130425
H	-1.5876659617	-0.4411108844	 2.0154060423	 0.198844
H	 0.9765544369	-0.1873915732	-1.3371419836	 0.141708
H	-0.0553016314	 1.2146071365	-1.5608038531	 0.141716
H	 2.6512013144	 0.9560009489	 1.6706943956	 0.097877
H	 4.6240700629	 2.3266231432	-0.1187336568	 0.096997
H	 4.1263033653	 0.6980079387	-0.6640109009	 0.108048
H	 3.2488514508	 4.1947368826	-0.416899582	 0.096998
H	 1.6472098064	 4.0655845162	-1.2014722761	 0.108047
H	 1.0844435908	 3.0842252099	 1.3309928757	 0.097878
