16
gdb 126887	6.23723	0.83046	0.74625	3.1725	71.15	-0.2282	0.0241	0.2522	1502.5585	0.123514	-471.19393	-471.185083	-471.184139	-471.228857	31.581	
C	-0.2603890009	 0.7965941429	 1.065670106	-0.366881
C	 0.3173844698	 0.3682296249	-0.2804549693	-0.131738
N	 1.0787625818	-0.8700576109	-0.1307350804	-0.377188
C	 1.9623994189	-1.1376127074	-0.9681146669	 0.549241
O	 2.3669183183	-0.4486998748	-2.0689572572	-0.258975
N	 3.4664685144	-1.1484721472	-2.6782283217	-0.22284
C	 3.5871729783	-2.1970043258	-1.9404871162	 0.484916
N	 4.4324752411	-3.2452596482	-2.13677452	-0.588604
O	 2.7390923445	-2.2840054613	-0.8942867422	-0.222137
H	-0.8942879788	 0.007159362	 1.4794789528	 0.124191
H	 0.539730063	 0.9965882855	 1.7846934625	 0.118747
H	-0.8605416714	 1.7053842207	 0.9558886099	 0.107412
H	-0.5004316727	 0.1984611689	-0.9944721483	 0.110758
H	 0.9359102954	 1.1729619354	-0.7016579779	 0.109923
H	 5.1719716503	-3.0632571693	-2.7991295847	 0.282844
H	 4.730415128	-3.7177576855	-1.2960376364	 0.280331
