17
gdb 125304	3.06353	1.66051	1.09129	1.8914	81.87	-0.208	0.002	0.2101	1077.4578	0.138959	-380.908218	-380.900845	-380.8999	-380.9398	28.889	
C	-0.0192361406	 1.4946918069	 0.0986641	-0.499373
C	-0.0069812549	 0.0017385148	 0.0267800256	 0.229849
C	-0.0257561297	-0.7845229485	-1.0700771067	-0.18525
C	-0.0037449834	-2.2736169189	-0.7387003803	-0.4314
C	 0.0317078046	-2.2376492479	 0.7608702405	 0.219519
C	 0.0662253617	-2.9663258923	 1.9217072457	-0.212179
N	 0.0815643009	-2.042756803	 2.9330169325	-0.190376
N	 0.0593485972	-0.7540802124	 2.5075898112	-0.353565
C	 0.0291717718	-0.8894972686	 1.1881239935	 0.291783
H	 0.8690916301	 1.8678837615	 0.6212341476	 0.135786
H	-0.0492531353	 1.9437032998	-0.8974322367	 0.119185
H	-0.8861598633	 1.8512624485	 0.666762266	 0.135801
H	-0.0536205425	-0.4228521421	-2.091318763	 0.090649
H	-0.8867215679	-2.7876049184	-1.1412672561	 0.124327
H	 0.8686336115	-2.7709333977	-1.1831454278	 0.124328
H	 0.0813324592	-4.0232636758	 2.1372763545	 0.130956
H	 0.1067414705	-2.2248231557	 3.9215549635	 0.269961
