20
gdb 83602	2.16589	1.6531	1.30416	1.9691	79.43	-0.2293	-0.0263	0.203	1101.9386	0.169526	-403.133916	-403.124803	-403.123859	-403.167797	33.98	
C	-0.5642741682	 1.3229800744	 0.1717040843	-0.394765
C	 0.0214549513	-0.0821749086	 0.0946471959	-0.081804
N	 0.8341008364	-0.3513409374	-1.1401830761	-0.173846
C	 0.7827003153	-1.7897983788	-1.562100064	-0.164873
C	 2.0488897248	-2.1422077792	-0.7412681583	-0.304066
C	 2.0855561865	-0.6493569163	-0.306441214	 0.22637
C	 3.3527570242	 0.1427944247	-0.5355939775	-0.466088
C	 1.2739170915	-0.3320353661	 0.9590660698	 0.350182
O	 1.5342295615	-0.2349663276	 2.1227143441	-0.300769
H	 0.2059847307	 2.0771171184	-0.0118049562	 0.125075
H	-1.3487603106	 1.4493993461	-0.5797427542	 0.126096
H	-0.9923773267	 1.4978732347	 1.1636511336	 0.129643
H	-0.7674666313	-0.8278791864	 0.262207181	 0.095053
H	-0.1371312154	-2.3041572699	-1.2635054783	 0.10447
H	 0.8962408736	-1.8963785963	-2.6444386306	 0.110745
H	 1.9225194239	-2.8685848174	 0.064513536	 0.11852
H	 2.9156095918	-2.4357237828	-1.3377844142	 0.115031
H	 3.7309690669	-0.0158516707	-1.5503487143	 0.123247
H	 3.1827195262	 1.2147144356	-0.3969809218	 0.127068
H	 4.1223030677	-0.1745277363	 0.1764893146	 0.134709
