19
gdb 78987	2.69893	1.90804	1.47191	1.2835	77.62	-0.2187	0.0589	0.2776	956.0841	0.159152	-385.815604	-385.808027	-385.807083	-385.847195	30.889	
C	-0.2831424964	 1.4926183828	-0.1354972044	-0.412449
C	-0.053881906	-0.0141620562	-0.0738686999	 0.009212
C	 1.0911671201	-0.5431923314	-0.9800951455	-0.142433
C	 1.2651824489	-2.0426239231	-0.6436083912	-0.070687
C	 1.0845936279	-2.0079154024	 0.8791388114	-0.070682
C	 2.4567171266	-1.8445334902	 0.2656563356	-0.163643
C	 2.1456348102	-0.3269842277	 0.1942424737	 0.416877
O	 3.1391540817	 0.6189904686	 0.2906403505	-0.479471
C	 0.8446561207	-0.4958227143	 1.0978412041	-0.142498
H	 0.651389162	 2.0588543127	-0.0380566819	 0.090592
H	-0.7384345193	 1.7862120524	-1.0875861373	 0.117994
H	-0.9462388856	 1.8265317107	 0.669962999	 0.117971
H	-1.008351454	-0.5435102572	-0.1750032948	 0.064279
H	 1.2393875895	-0.2111059457	-2.0080668203	 0.059854
H	 1.013017252	-2.903855027	-1.2478171705	 0.084801
H	 0.6935776657	-2.8424452548	 1.4457454083	 0.084803
H	 3.3724408549	-2.4058640491	 0.3870571256	 0.090676
H	 2.7484979871	 1.4971188297	 0.2260102646	 0.284974
H	 0.7501458741	-0.1171119279	 2.115992853	 0.059832
