15
gdb 43842	3.07807	1.59469	1.21792	4.334	65.92	-0.2636	-0.0147	0.2489	997.6332	0.112521	-457.760538	-457.753533	-457.752589	-457.79205	27.265	
O	-0.0055679775	 0.0299127673	 0.297328165	-0.335196
C	 0.0170572564	 1.1919454547	 0.0206490938	 0.446176
O	-1.1088275288	 1.9088778477	-0.2759120639	-0.263782
C	-0.7858294178	 3.2030088569	-0.7810736454	 0.44455
C	-1.5190799445	 3.6636477024	-2.0048555446	-0.331053
C	-1.828361092	 4.2636989003	-0.6456454643	-0.321824
C	 0.6810017794	 3.3993053161	-0.5730642152	-0.072342
O	 1.0588792972	 3.249741611	 0.7959397842	-0.238574
C	 1.2041621261	 2.1198247048	-0.0823573557	-0.127629
H	-0.9798638465	 4.261740051	-2.7321116906	 0.125166
H	-2.2418297514	 2.9731093562	-2.4232459822	 0.141762
H	-2.7558721216	 3.9671261108	-0.1702640255	 0.144555
H	-1.5050247552	 5.2756594294	-0.4291624762	 0.131807
H	 1.251388758	 4.1054686579	-1.1677886849	 0.123533
H	 2.2028721283	 1.7260369335	-0.2287443646	 0.132848
