18
gdb 22850	3.19383	1.218	0.94761	0.4353	72.24	-0.2468	0.0006	0.2474	1216.6614	0.148436	-476.173199	-476.164912	-476.163968	-476.206186	31.418	
O	-0.1393369459	 1.4446261356	-0.2690074576	-0.395933
N	 0.1161761855	 0.0906522941	-0.0035547971	-0.180482
C	-0.9445542124	-0.6186388662	 0.0720326856	 0.370964
C	-0.7379012665	-2.0972955914	 0.2913570294	-0.269996
C	-1.7027386964	-2.732314258	 1.3011857027	-0.091869
O	-3.0394621494	-2.6601526172	 0.8123233901	-0.242419
C	-3.7649342227	-1.5427758938	 1.2491465042	-0.000367
O	-3.0434736158	-0.3416860876	 1.2046128092	-0.238091
C	-2.3605436919	-0.0833964906	-0.0228681328	-0.181843
H	 0.7457164461	 1.8223796837	-0.2431259777	 0.308092
H	-0.892869404	-2.6186579099	-0.663740051	 0.120848
H	 0.3004431127	-2.268581813	 0.5899073431	 0.117335
H	-1.4678525046	-3.7959994333	 1.4067533131	 0.110551
H	-1.6169052267	-2.2605336158	 2.2879638308	 0.112994
H	-4.6514090783	-1.5114558873	 0.5986102511	 0.101373
H	-4.0722681546	-1.639594256	 2.300656047	 0.102231
H	-2.3453804494	 0.996808479	-0.1559749505	 0.143712
H	-2.8882071456	-0.5416466521	-0.8704556795	 0.112899
