17
gdb 50681	2.11529	1.63475	1.00389	3.5223	74.31	-0.246	-0.028	0.218	1159.2988	0.134211	-421.798753	-421.789864	-421.78892	-421.833648	31.813	
O	-0.6288453848	 0.3564972122	 0.1466144258	-0.23693
C	 0.4651794205	 0.534686238	-0.3152168832	 0.156628
C	 1.3256633565	 1.7622820058	-0.0287066785	 0.038125
O	 2.6458273056	 1.3082471519	 0.2382367645	-0.270647
C	 3.5881041893	 1.9913150795	-0.5880266971	-0.076365
C	 2.8136636376	 2.3839715955	-1.8415288209	-0.230624
C	 1.430364044	 2.7457225056	-1.2491768152	-0.232291
C	 0.3259584521	 2.6791033446	-2.1920734163	 0.31436
C	-0.5836737066	 2.6152274745	-2.9747769283	-0.436105
H	 0.9609696429	-0.2077970377	-0.9798931744	 0.080186
H	 0.9036632872	 2.273549638	 0.8439651454	 0.104252
H	 3.9790981147	 2.8790475538	-0.06750002	 0.099626
H	 4.4216785729	 1.3105584111	-0.7797299327	 0.119099
H	 3.2597114955	 3.2173304278	-2.3882005622	 0.119684
H	 2.7188947848	 1.533609264	-2.5225068014	 0.125065
H	 1.4832262604	 3.7617249722	-0.8404965458	 0.122253
H	-1.3941871026	 2.5578027131	-3.6587393898	 0.203683
