17
gdb 18504	5.99518	1.14343	1.08451	3.0271	69.1	-0.223	-0.024	0.199	1098.0507	0.141189	-363.814301	-363.806686	-363.805742	-363.847092	27.804	
O	-0.4861863792	 0.4838346174	 0.6751149852	-0.237641
C	 0.0309453592	 1.0568115417	-0.2476236137	 0.159059
C	 1.3681356675	 1.7778198411	-0.1768718275	-0.241008
N	 1.3699939881	 2.9430570846	-1.037537327	-0.093274
C	 0.7679431675	 4.2218972874	-0.5490457338	-0.187537
C	 2.0594128813	 4.959950486	-0.9078022881	-0.067726
C	 3.2118003281	 4.3540551021	-0.1461744371	-0.292048
C	 2.6339096945	 3.6181898042	-1.3278331866	 0.000198
H	-0.4365415353	 1.0966148375	-1.2575536326	 0.082896
H	 1.6107957986	 1.9661687065	 0.8816503482	 0.10705
H	 2.1202268833	 1.0737507139	-0.5635114069	 0.129743
H	-0.1068921142	 4.5095644765	-1.1401022056	 0.11367
H	 0.4979343321	 4.2279745508	 0.5159262837	 0.104116
H	 2.1202325159	 5.9128534555	-1.4147816141	 0.098185
H	 4.1769465865	 4.8177879946	-0.3249272969	 0.116504
H	 3.0709429888	 3.9888465611	 0.8678716979	 0.111512
H	 3.2188536473	 3.3405702693	-2.1984098849	 0.0963
