20
gdb 40098	3.11015	1.49656	1.26434	1.3934	77.87	-0.2354	0.0698	0.3052	1059.0154	0.173696	-403.116141	-403.108676	-403.107731	-403.148126	29.991	
C	-0.5460687765	 1.2772537087	 0.0305374482	-0.299633
N	 0.9057087069	 1.0149693008	-0.0243598018	-0.380485
C	-0.0267881948	-0.1068212908	 0.034612379	 0.347656
C	-0.0490847363	-1.1717946927	 1.136855923	-0.319515
C	-0.415639896	-2.2414757835	 0.0613902196	-0.038922
C	-1.890498791	-2.6588226181	-0.0485793188	-0.231267
C	-2.5249100877	-1.514975818	-0.86125794	-0.089166
O	-1.5059456065	-1.0732148939	-1.7568451931	-0.250861
C	-0.2781573246	-1.1590163409	-1.0627311098	 0.014044
H	-0.8907319546	 1.7299668128	 0.9568998373	 0.115974
H	-1.0553494064	 1.6185446943	-0.8671630334	 0.122715
H	 1.2421088413	 1.1346161505	-0.9782243366	 0.22947
H	 0.9288608592	-1.330449783	 1.5979918988	 0.113126
H	-0.7892979056	-1.0236861461	 1.9291332033	 0.097818
H	 0.2647733137	-3.0915686658	 0.0110880577	 0.075838
H	-1.9701611872	-3.5977051704	-0.6048956252	 0.108001
H	-2.3734885636	-2.7990857582	 0.9225745746	 0.10288
H	-3.385303258	-1.8214967546	-1.4610889486	 0.108674
H	-2.8399014739	-0.693205289	-0.200770516	 0.097275
H	 0.5211160517	-1.2667567523	-1.801933128	 0.076376
