17
gdb 133672	2.56327	1.22799	1.01374	1.431	60.91	-0.2542	0.0655	0.3198	1179.9292	0.132088	-549.496516	-549.487567	-549.486622	-549.530893	32.495	
C	-0.1500699326	 1.4210355764	-0.0785557763	-0.413566
C	 0.0519605862	-0.0980661108	 0.0162264043	-0.165958
C	 0.797706216	-0.648643146	-1.1859815944	 0.030449
C	 0.5932784585	-2.0464341942	-1.6322232224	-0.243892
N	 0.0793927279	-0.9237156754	-2.4391867449	-0.3311
C	 0.7824773752	-0.4666827758	 1.3034046242	 0.291544
F	 0.1427410041	 0.0067577026	 2.3858264261	-0.082047
F	 0.8842340215	-1.796424755	 1.4542864029	-0.077782
F	 2.0290617118	 0.0355745033	 1.3248097123	-0.086373
H	 0.8140323807	 1.9367599318	-0.1094499228	 0.137901
H	-0.6952379351	 1.6684232224	-0.9927876396	 0.129688
H	-0.7139387501	 1.7991787827	 0.7769926074	 0.134235
H	-0.9242342951	-0.595288946	 0.0833263351	 0.096814
H	 1.7743776544	-0.1961878237	-1.3436722642	 0.107419
H	 1.4112727675	-2.5996368345	-2.0835830067	 0.126069
H	-0.1114894282	-2.6565209957	-1.0740591407	 0.117398
H	-0.9239216627	-0.8287176821	-2.2946795104	 0.229201
