14
gdb 19247	3.31903	2.01383	1.60153	5.7601	61.29	-0.2613	0.0238	0.2851	806.106	0.108421	-378.682709	-378.675874	-378.674929	-378.713838	25.741	
O	-0.0145736143	 1.3915473311	 0.1969106678	-0.414599
C	 0.0163741235	 0.0168357677	 0.0368801652	 0.146876
C	-1.3289225138	-0.7234123659	 0.0505798335	-0.087482
N	-2.0758282477	-0.1143711388	-1.0749738057	-0.342812
C	-1.1334102955	-1.2223102692	-1.3360794216	-0.047837
C	 0.2579856676	-0.5834353357	-1.4383404174	-0.239417
C	 0.489425614	 0.3603745649	-2.5169838978	 0.308307
N	 0.6724275685	 1.1208287744	-3.3681053772	-0.331796
H	-0.7519591127	 1.7133456634	-0.341624369	 0.30349
H	 0.7516442498	-0.3868005696	 0.7346264308	 0.108239
H	-1.8434824977	-1.1679225684	 0.8926904743	 0.109813
H	-3.0209820546	-0.4923354318	-1.0757722517	 0.245358
H	-1.458941081	-2.144506131	-1.7984083166	 0.115916
H	 1.0564612939	-1.3288818009	-1.4158753046	 0.125945
