19
gdb 61927	2.50833	1.08189	0.89864	2.8163	75.71	-0.2459	0.0021	0.248	1348.9534	0.158516	-419.178426	-419.168835	-419.16789	-419.214182	34.097	
C	 0.1412259748	 1.2040540014	-0.4942128819	-0.399681
C	 0.1817033735	-0.1915044605	 0.1309434986	 0.077009
O	 0.5113076365	-0.1150297224	 1.52810808	-0.250368
C	 1.875109789	 0.0148232247	 1.8272078384	-0.196496
C	 2.6498072726	-1.2064940377	 1.5257580443	 0.254698
N	 3.2483076315	-2.1641916734	 1.2821061655	-0.300189
C	-1.1609670871	-0.8935105097	 0.0281216378	 0.015117
C	-1.5254263469	-2.0022031909	 0.9371182633	-0.24445
N	-2.192308332	-0.6885253043	 1.0545241312	-0.322537
H	 1.1054775954	 1.7149506148	-0.412653384	 0.115784
H	-0.1021327908	 1.131349662	-1.5585243237	 0.129659
H	-0.6214667028	 1.8174426675	-0.0062305219	 0.13746
H	 0.9361954206	-0.8074736298	-0.3808328767	 0.102757
H	 2.3446189183	 0.857513621	 1.3001567226	 0.144789
H	 1.9467294787	 0.217820372	 2.9001061695	 0.163851
H	-1.5496399565	-0.9063014185	-0.9885584	 0.093145
H	-2.1589065799	-2.8082637793	 0.578746939	 0.11806
H	-0.8076313482	-2.2808483694	 1.701894786	 0.122062
H	-1.7721979467	-0.1894466374	 1.836233882	 0.23933
