22
gdb 122389	4.32032	0.70768	0.69572	1.9876	82.99	-0.2313	0.0799	0.3113	1709.9323	0.194014	-404.290761	-404.281291	-404.280347	-404.326246	34.905	
O	-0.188780269	 1.4090279221	-0.3802987056	-0.420608
C	-0.0410388846	 0.0906092685	 0.1259003522	-0.073669
C	-1.3566505246	-0.643984401	-0.0916096561	-0.161661
C	-1.3091200349	-2.0950492238	 0.3871928937	-0.15157
N	-2.6150441727	-2.7199964501	 0.2173886246	-0.07221
C	-3.0631897198	-3.299075089	-1.0304143092	-0.039305
C	-1.9499617143	-4.044458368	-1.7938719287	-0.243987
C	-1.7020982113	-4.9230293396	-0.527438404	-0.243602
C	-2.8223263076	-4.149158894	 0.198136098	-0.042821
H	 0.636910405	 1.8801523601	-0.2362474344	 0.284405
H	 0.7759674361	-0.4428261565	-0.3884375176	 0.081462
H	 0.2068226079	 0.1020080768	 1.200319389	 0.083645
H	-2.1588714698	-0.1126246545	 0.430704053	 0.115768
H	-1.600899576	-0.6146320141	-1.1602479858	 0.107597
H	-0.4938081723	-2.6253055176	-0.1297035777	 0.086863
H	-1.0749999782	-2.1306232888	 1.4586703991	 0.099936
H	-3.9928472044	-2.9400045383	-1.4591617344	 0.090287
H	-2.3443816721	-4.6286798821	-2.6279047923	 0.105554
H	-1.1177893684	-3.4368266671	-2.1623021002	 0.10016
H	-1.9679576279	-5.9688476596	-0.6954298216	 0.105224
H	-0.7086122737	-4.8878240348	-0.0704560623	 0.099439
H	-3.5294393572	-4.5745463687	 0.9029954101	 0.089093
