18
gdb 51672	4.19684	1.02714	0.9294	3.6726	73.71	-0.245	0.0301	0.275	1265.6851	0.148914	-439.073828	-439.065853	-439.064909	-439.107403	29.605	
O	-0.2292725823	 0.1797087366	 0.0946692533	-0.327238
C	 0.031756019	 1.3621860218	 0.0185413022	 0.15185
N	 1.2810306887	 1.8822716811	-0.1077740332	-0.276902
C	 2.4785153381	 1.0885542236	-0.0933198862	 0.041709
C	 3.3263271002	 0.9468189157	-1.4068200115	-0.265174
C	 4.5668358785	 1.5285726234	-0.6718849006	-0.079902
C	 4.6532502071	 3.0592896101	-0.7349143343	-0.078212
O	 3.6878597704	 3.2022275438	 0.3424931862	-0.305489
C	 3.6853413814	 1.7759249803	 0.5867494079	 0.088071
H	-0.7418720493	 2.1552558838	 0.0408921036	 0.07409
H	 1.4119458808	 2.8836977751	-0.1117288841	 0.255549
H	 2.2334896732	 0.1167577572	 0.3383650518	 0.118527
H	 3.4364442548	-0.0864181351	-1.7412468221	 0.117642
H	 2.972014384	 1.5488722449	-2.247901308	 0.103554
H	 5.4903614949	 0.9535580136	-0.6778715121	 0.085353
H	 5.6242125868	 3.4779563337	-0.4425975655	 0.10862
H	 4.317060822	 3.5394207673	-1.6617583873	 0.106115
H	 3.9313859616	 1.5327179631	 1.6234243798	 0.081835
