19
gdb 47489	2.86768	1.37899	1.07083	4.4593	75.46	-0.2531	0.0156	0.2688	1151.1434	0.160618	-423.060511	-423.052555	-423.051611	-423.093205	30.917	
O	 0.0027492122	 0.0001038815	 0.4346059715	-0.322701
C	-0.0234344842	 1.1157696634	-0.0081042798	 0.410579
C	-1.313001526	 1.9267637686	-0.1050149318	-0.417864
C	-1.2617440095	 3.1092384556	-1.0511306116	 0.37048
C	-1.84119558	 2.9689360843	-2.4395787412	-0.30436
C	-2.5354891622	 3.8244900998	-1.4032867331	-0.335119
C	 0.0331003973	 3.8714337974	-0.8732083696	-0.303155
C	 1.1961156412	 2.9227583682	-1.1316099577	-0.058427
O	 1.1438826139	 1.7151129959	-0.3510242022	-0.231031
H	-2.1148852759	 1.2260272793	-0.3494663326	 0.134104
H	-1.5110482277	 2.2766804842	 0.9184881022	 0.138189
H	-1.3397865133	 3.4710955759	-3.2607373003	 0.11333
H	-2.3002052476	 2.0247289143	-2.7128280746	 0.12011
H	-3.4632590452	 3.4565498681	-0.9771440581	 0.116821
H	-2.4998437235	 4.9022444169	-1.5247450892	 0.114338
H	 0.1037564531	 4.7154204335	-1.5677340029	 0.106289
H	 0.0997937514	 4.2774114944	 0.1446519916	 0.110077
H	 1.219249085	 2.6366312977	-2.1906679975	 0.116921
H	 2.1570274111	 3.3801269208	-0.8826737631	 0.121417
