14
gdb 133593	3.19785	1.31203	1.22072	2.8374	53.72	-0.2575	0.0599	0.3174	1005.8506	0.097325	-568.144315	-568.13695	-568.136006	-568.176858	27.573	
F	 0.4028883232	 0.1671454808	-0.0931412396	-0.068013
C	-0.028713289	 1.4308934167	-0.0248131825	 0.266305
F	 1.033919082	 2.2378793777	-0.1833597667	-0.078553
F	-0.856544588	 1.6322964232	-1.0575006721	-0.070075
C	-0.7170812118	 1.766235434	 1.2916587628	-0.016411
O	-1.8143042457	 0.8869250795	 1.6085516702	-0.295472
C	-1.2814960493	 0.6945293437	 2.9315114847	 0.110317
C	 0.0269049661	-0.0136145822	 2.8824654744	-0.298526
C	-0.0255469444	 1.4823435399	 2.6198724083	-0.155612
H	-1.0641619415	 2.8034660108	 1.210851129	 0.113848
H	-1.9788178623	 0.7203466301	 3.7592544525	 0.115376
H	 0.4494865676	-0.2605033104	 3.8516139571	 0.122773
H	 0.2354578005	-0.720616867	 2.0895252372	 0.139421
H	 0.5153554226	 2.2105809631	 3.2063384346	 0.11462
