17
gdb 102274	2.4403	1.16353	0.99653	2.4846	65.83	-0.2622	-0.0314	0.2308	1259.4934	0.131817	-496.137435	-496.127288	-496.126344	-496.173721	34.303	
C	-0.2376292936	 1.4091119383	-0.0691916913	-0.485686
C	 0.0188217394	-0.07305668	-0.0074948203	 0.45474
O	 1.0891066258	-0.6144377713	-0.0761853743	-0.348589
O	-1.1521575429	-0.7538556393	 0.1481316514	-0.258503
C	-1.0728540753	-2.174808872	 0.0515197982	-0.007057
C	-2.3218097638	-2.736290336	 0.7294521432	-0.090403
O	-3.5032908659	-2.3260057791	 0.0754301161	-0.414044
C	-1.00403213	-2.5983054515	-1.4122113291	 0.17157
O	-0.9330806687	-1.8336499927	-2.33375725	-0.237174
H	 0.7075593464	 1.9448674947	 0.007635795	 0.153056
H	-0.7143377221	 1.6462676026	-1.0253820152	 0.165819
H	-0.9195338148	 1.7184400447	 0.7264869867	 0.145841
H	-0.1661896871	-2.540174576	 0.5509194355	 0.129359
H	-2.2979414946	-3.8301829086	 0.6857587886	 0.122774
H	-2.3088224177	-2.442244418	 1.7891770815	 0.109621
H	-3.4804988381	-1.3633594241	 0.0281647527	 0.297795
H	-1.021985487	-3.7015755017	-1.5567194189	 0.090882
