18
gdb 16014	4.0423	1.77026	1.40918	1.9146	74.32	-0.2406	0.0109	0.2515	917.5326	0.155565	-347.805699	-347.79876	-347.797816	-347.836675	27.584	
C	 0.0234045968	 1.4986573266	 0.0143292708	-0.246116
O	 1.2151300788	 0.7217595398	-0.0413870614	-0.282509
C	-0.0602944407	 0.0290245267	 0.0040977545	 0.420391
C	-0.3641449376	-0.7199202712	 1.2889568614	-0.28472
C	-0.0589585416	-2.2152762603	 1.1332825377	-0.215368
C	-0.871743038	-2.8173497482	-0.0218159837	-0.251745
C	-0.8030986111	-1.9605849793	-1.259102534	-0.068966
C	-0.4161405853	-0.6836480963	-1.2468879903	-0.096952
H	-0.1479352044	 2.0345882444	 0.9485469842	 0.107972
H	-0.2151777714	 2.0624720981	-0.8878496357	 0.108544
H	 0.2173554762	-0.2763410694	 2.1025526663	 0.107485
H	-1.4270380954	-0.5872296207	 1.5334101695	 0.100799
H	 1.0103621383	-2.340061284	 0.924543864	 0.11354
H	-0.2684582583	-2.7482172439	 2.0662030034	 0.093302
H	-0.5118341321	-3.8268842279	-0.2542624578	 0.106249
H	-1.9230154594	-2.9440702095	 0.2795653666	 0.109171
H	-1.0792469319	-2.4263927725	-2.2021036654	 0.090801
H	-0.3411864929	-0.1141537824	-2.1692422101	 0.088122
