13
gdb 25992	5.02949	1.06765	1.01314	2.2339	60.08	-0.2419	0.0066	0.2484	1145.1381	0.089848	-489.947074	-489.939316	-489.938372	-489.98055	27.484	
N	-0.2119358449	 1.2852576572	 0.1769889342	-0.560384
C	-0.0793638877	 0.0036259162	-0.237748905	 0.491362
O	 0.4942954438	-0.4008062378	-1.208720003	-0.359131
O	-0.7627910049	-0.8187287276	 0.6627700189	-0.291675
C	-0.7664083496	-2.1351213728	 0.3877717533	 0.508308
N	-0.1370936003	-3.0619432441	 1.0218658229	-0.330794
C	-0.5634086723	-4.2288403911	 0.3912360428	-0.102609
C	-1.4343030852	-3.9141639741	-0.5934980998	-0.032369
O	-1.5813254265	-2.54973314	-0.6012051652	-0.164228
H	 0.3459692184	 1.9793822582	-0.2881443104	 0.281069
H	-0.5802539538	 1.48259204	 1.0911116739	 0.279014
H	-0.2061042207	-5.198839486	 0.6969442743	 0.130225
H	-1.9986451862	-4.4617143782	-1.3275474366	 0.151211
