19
gdb 72362	2.33052	1.67375	1.46416	2.5763	80.02	-0.2353	-0.0173	0.218	1017.7858	0.159385	-385.918128	-385.910064	-385.90912	-385.950638	31.483	
C	 0.2359415467	 1.5278566399	-0.0995020881	-0.473348
C	-0.0447004602	 0.0403319032	 0.0895055449	 0.21487
C	-1.5447350425	-0.3415725662	 0.1017545144	-0.323831
C	-1.6305598028	-1.3901132286	 1.1861808844	-0.061691
C	-0.482152662	-1.5608229298	 1.8423683365	-0.078476
C	 0.6259851886	-0.6913896573	 1.3153263871	-0.11499
C	 1.6365658541	-1.4141561526	 0.3633510664	-0.359905
C	 0.8244566843	-0.8609308835	-0.8187735351	 0.377606
O	 0.8244694461	-1.0671184497	-1.9981821525	-0.305838
H	 1.3081068129	 1.7479039404	-0.0573947549	 0.116662
H	-0.1353920512	 1.8686333524	-1.071385269	 0.134864
H	-0.2596915645	 2.1148324425	 0.6812909249	 0.120985
H	-2.1803551193	 0.525779157	 0.3287614578	 0.105025
H	-1.8719917416	-0.7149912459	-0.8761093387	 0.125707
H	-2.5506516319	-1.9249002047	 1.397079455	 0.09694
H	-0.3315011578	-2.2594282772	 2.6588855713	 0.095553
H	 1.0929659714	-0.0625394831	 2.0785356212	 0.075043
H	 2.650951383	-1.001197426	 0.3896097001	 0.127433
H	 1.7016564168	-2.5034575506	 0.4277568643	 0.127391
