19
gdb 72937	2.74356	1.72383	1.45096	3.2744	73.84	-0.2353	0.0443	0.2796	981.8486	0.159634	-422.955836	-422.948202	-422.947258	-422.988445	29.732	
C	-0.1851241294	 1.504398077	-0.1386904984	-0.49909
C	 0.0192828891	 0.0157010671	 0.0300974912	 0.287306
C	-1.2230219288	-0.8860559745	 0.1929464585	-0.131099
O	-0.6611869507	-1.5372486963	 1.3566213613	-0.278967
C	 0.4858014746	-0.6776888929	 1.3475569506	 0.05181
C	 1.7428530726	-1.2522094982	 0.6071748568	 0.104335
O	 1.596594416	-2.5749381497	 0.0763278435	-0.277778
C	 1.2016085943	-2.0593109373	-1.2180852658	-0.093447
C	 1.2552493989	-0.6028931508	-0.7159768146	-0.156995
H	 0.753036641	 2.0543012018	-0.0052400771	 0.12024
H	-0.5618124006	 1.7374573026	-1.1422376675	 0.122277
H	-0.9070750196	 1.8910219763	 0.5883642206	 0.122809
H	-2.1331122658	-0.3281192259	 0.4521437472	 0.097394
H	-1.4620768187	-1.5933843193	-0.6086158194	 0.10402
H	 0.6493730418	-0.1678660442	 2.3031397627	 0.067794
H	 2.7169253683	-1.0811907927	 1.0759169006	 0.072602
H	 1.9579895168	-2.2875022618	-1.97973585	 0.102582
H	 0.2371108908	-2.4580511586	-1.550395799	 0.10684
H	 1.8471636894	 0.1025024073	-1.298968071	 0.077368
