23
gdb 101148	3.3418	0.89654	0.87992	0.9328	89.26	-0.2281	0.03	0.258	1507.5125	0.20509	-388.300796	-388.290695	-388.28975	-388.336595	36.644	
C	 0.0409616764	 1.3342575705	 0.1516511212	-0.228653
O	-0.0829997171	-0.0517441166	-0.0566894501	-0.250667
C	 0.6195337728	-0.5520006719	-1.1943037945	 0.008524
C	 2.1331506164	-0.6304393603	-0.937714472	-0.404086
C	 0.030345217	-1.8988007692	-1.5059916513	 0.375367
C	-0.3982898049	-2.317575398	-2.6971753018	-0.197731
C	-0.9563056877	-3.7195637495	-2.6559220392	-0.244227
C	-0.5157830889	-4.2283816614	-1.2580289163	-0.210308
C	-0.1841713386	-2.9552952458	-0.4392823777	-0.293076
H	 1.0628962501	 1.6375784398	 0.4230875272	 0.10445
H	-0.2614604597	 1.9081859147	-0.7389697925	 0.101732
H	-0.6251634847	 1.5952027019	 0.9782848697	 0.125502
H	 0.4432993472	 0.1196246562	-2.0508287159	 0.06205
H	 2.6413910142	-1.0348076916	-1.8179338229	 0.119881
H	 2.5548116673	 0.3573820692	-0.7300037304	 0.113486
H	 2.3451653275	-1.2800476687	-0.0837130651	 0.124835
H	-0.395436328	-1.7149960178	-3.6002009388	 0.079777
H	-2.0509305693	-3.700680828	-2.7601511241	 0.103862
H	-0.5854826615	-4.3543743353	-3.4690646547	 0.098295
H	-1.2713116929	-4.8555608849	-0.7780096973	 0.09478
H	 0.3874975312	-4.8378849931	-1.3638115068	 0.101236
H	 0.6848555267	-3.0927126261	 0.2136077294	 0.098017
H	-1.0101155636	-2.6525035541	 0.2165605339	 0.116953
