15
gdb 21044	3.89545	1.8509	1.26916	3.0786	64.39	-0.193	0.0408	0.2337	922.6811	0.12146	-392.193782	-392.185863	-392.184919	-392.225764	28.95	
C	 0.0087378644	 1.4063322035	-0.0522504789	-0.332081
N	 0.0046667851	-0.0328159938	 0.0081547468	 0.003729
N	 0.0487440653	-0.7926214175	-1.1474284702	-0.352829
C	-0.0143845411	-2.0202871491	-0.6604152632	 0.397779
N	-0.080121778	-3.1431799869	-1.4644813538	-0.584516
N	-0.0619068386	-2.120842148	 0.7017723555	-0.383567
C	-0.044251695	-0.8509221546	 1.0757456587	 0.397382
N	-0.1431946341	-0.3980641789	 2.382489909	-0.605251
H	 1.0204212487	 1.8097123325	-0.1812965082	 0.133446
H	-0.6033007481	 1.7251492121	-0.8983015141	 0.158146
H	-0.4245003844	 1.8029832071	 0.8693455587	 0.141798
H	 0.2942586293	-2.9937515815	-2.390336329	 0.25277
H	 0.2996738338	-3.9655593138	-1.0187339114	 0.253155
H	-0.0953465211	-1.1756679379	 3.0274189856	 0.26569
H	 0.5281961937	 0.3161159467	 2.6321092645	 0.254349
