14
gdb 14660	16.72035	0.54271	0.52909	4.8589	91.64	-0.2566	-0.0796	0.177	1999.5772	0.104726	-345.369532	-345.360448	-345.359503	-345.405215	29.617	
C	-0.0450033476	 1.5693662341	 0.0547280039	-0.370729
C	 0.0102766	 0.0309719125	-0.0118922345	-0.348345
C	 0.6850729199	-0.4721697993	-1.1967701475	 0.322449
C	 1.2498463077	-0.8799195014	-2.1889331677	-0.219634
C	 1.8801973406	-1.3377984558	-3.2964298171	-0.153852
C	 2.4452152596	-1.7518522814	-4.2895984632	 0.232569
C	 3.1194967925	-2.2032039592	-5.475018686	-0.036095
O	 3.2914908324	-3.3659559708	-5.7666759796	-0.223959
H	 0.961696533	 1.9945888767	 0.0630531742	 0.137006
H	-0.5796178482	 1.9768987154	-0.8069208264	 0.137012
H	-0.562267638	 1.8854435999	 0.9646992301	 0.125558
H	 0.518570127	-0.3634149257	 0.8777864305	 0.148063
H	-1.0070317883	-0.380971397	 0.0165877695	 0.148052
H	 3.4837733894	-1.3828578777	-6.1263485062	 0.101904
