19
gdb 23477	3.36169	1.12584	0.92621	1.3162	81.46	-0.2118	0.0066	0.2184	1291.2771	0.158405	-419.116983	-419.108294	-419.10735	-419.150452	32.778	
C	 0.0566776137	 1.5219419054	 0.0812549111	-0.325444
N	 0.0919455456	 0.081108038	 0.1554809847	-0.065775
C	-1.1724895533	-0.6638326904	 0.3157895283	-0.176146
C	-0.4860500468	-1.6025080275	 1.3267153316	-0.046351
C	 0.4968556279	-2.6662031089	 0.7360325922	-0.339839
C	 1.6342999029	-1.6811765106	 0.96823924	 0.474752
N	 2.8979400854	-1.7295607316	 1.0009565484	-0.255129
O	 3.3655501839	-2.9999388456	 0.6112315787	-0.392215
C	 0.6928511204	-0.5629861895	 1.3532362043	-0.1142
H	 1.0774175681	 1.916639247	 0.0502601982	 0.128318
H	-0.4480530148	 1.830595711	-0.8407257075	 0.122079
H	-0.4707758095	 1.9960972067	 0.9316884188	 0.088051
H	-1.9691842352	-0.0673032432	 0.7903879916	 0.085773
H	-1.5680787782	-1.1041636086	-0.6078640596	 0.10015
H	-1.0376876405	-1.898449404	 2.2160301298	 0.083386
H	 0.5940234718	-3.5890838878	 1.3146624739	 0.127809
H	 0.3205665417	-2.9332556359	-0.310105809	 0.127136
H	 4.3192858952	-2.9001358999	 0.7012057155	 0.305862
H	 0.9394762817	 0.0997345453	 2.188059299	 0.071784
