9
gdb 23894	5.68867	0.89104	0.89103	2.5912	56.01	-0.2826	-0.0517	0.2309	1199.3664	0.043048	-490.503111	-490.495639	-490.494694	-490.535664	25.863	
F	 0.0187044724	 0.0578915971	-0.0283534185	-0.067076
C	-0.0175533726	 1.3954484419	 0.0110868309	 0.226064
F	 1.2446243384	 1.8391878954	-0.0332205195	-0.067325
F	-0.6382513779	 1.8196295478	-1.096532298	-0.067307
C	-0.701245205	 1.8687265829	 1.2129646504	 0.270662
C	-1.2662549246	 2.2572452444	 2.2057099809	-0.23105
C	-1.9030328563	 2.6947232737	 3.3244853182	 0.282965
C	-2.4680475932	 3.082690866	 4.3173240142	-0.556075
H	-2.9657607712	 3.4243456807	 5.1917632614	 0.209142
