18
gdb 74183	2.44141	1.64757	1.06997	4.5139	79.94	-0.2327	-0.0254	0.2074	1128.6205	0.149313	-401.992377	-401.984413	-401.983469	-402.024759	31.037	
C	-0.0529251517	 1.4837700222	 0.0737927019	-0.484313
C	 0.0140240301	-0.0140238223	-0.0097555773	 0.322361
C	 0.0006107319	-0.6805859318	-1.1738926225	-0.278842
C	-0.0004128898	-2.155490978	-1.2826048037	 0.403314
O	 0.0119413531	-2.7393046186	-2.3547541096	-0.389148
N	-0.0459144913	-2.8417097957	-0.0897302498	-0.349566
C	 0.08966974	-2.2614324273	 1.2073225754	 0.021386
C	 1.3515797596	-1.5480996637	 1.6198362329	-0.309913
C	 0.0951971604	-0.7521732064	 1.2747643351	-0.140886
H	 0.8185873431	 1.883816162	 0.6066855509	 0.135558
H	-0.0971503105	 1.9424099087	-0.9164789955	 0.132767
H	-0.937494928	 1.8006797845	 0.6408617912	 0.133499
H	-0.0331810519	-0.1644302978	-2.1267171363	 0.105636
H	 0.0074894797	-3.8450429881	-0.1824528212	 0.246329
H	-0.4576871209	-2.7970656623	 1.976593033	 0.106677
H	 1.6475274957	-1.5887380793	 2.6621818781	 0.119227
H	 2.1638792497	-1.517637247	 0.9025619532	 0.129734
H	-0.4177096495	-0.2869764591	 2.1112845942	 0.09618
