20
gdb 94012	4.03184	1.0006	0.85266	3.8943	85.84	-0.2153	-0.0026	0.2127	1377.9426	0.172747	-403.200147	-403.191635	-403.190691	-403.233316	32.524	
C	-0.0976214328	 1.5717570121	 0.0028197295	-0.398925
C	-0.014652449	 0.0385032403	 0.0017411382	-0.023302
C	 0.6750805852	-0.4901888586	-1.2692214467	-0.214731
C	 1.0047688715	-1.9785279256	-1.1395524917	-0.185522
N	 1.8648535008	-2.2080454042	 0.0185929299	-0.070033
C	 2.8586051405	-3.1544986972	 0.0000548988	 0.146538
O	 3.5780403161	-3.4316562029	 0.934238249	-0.328382
C	 1.5922167748	-1.4814495561	 1.1844607225	 0.015885
C	 0.7126662528	-0.4770373405	 1.2209379161	-0.135169
H	 0.9032315701	 2.0167202038	-0.0062888218	 0.121227
H	-0.6413568111	 1.9369936617	-0.8747089505	 0.112303
H	-0.6171370341	 1.9353798645	 0.8951925992	 0.116355
H	-1.0472017708	-0.3446214125	 0.0166141131	 0.084063
H	 0.0401674234	-0.3327931903	-2.147165322	 0.102652
H	 1.604866475	 0.0675098633	-1.4349167182	 0.111483
H	 0.0752661771	-2.5541626329	-1.0265490681	 0.116757
H	 1.5183288858	-2.3503114894	-2.0308290888	 0.117045
H	 2.9316337539	-3.646918546	-0.9888522165	 0.075494
H	 2.1581584277	-1.8229332358	 2.041359183	 0.143197
H	 0.5349114231	 0.0177506861	 2.170409135	 0.093067
