18
gdb 79676	2.57576	1.56791	1.19694	3.3786	77.93	-0.234	-0.0308	0.2033	1076.1956	0.146718	-401.865691	-401.857519	-401.856575	-401.898259	31.251	
C	-0.0671737339	 1.6272843868	 0.3564361337	-0.443877
C	 0.0903353582	 0.1103896608	 0.357566091	-0.057092
C	 1.1630529995	-0.7295228035	-0.2377503169	-0.131452
C	 2.599703226	-0.3701541601	 0.1691996025	-0.04353
C	 2.7688221527	 0.7323632235	 1.1480263616	-0.257108
N	 2.3226101139	-0.5832876612	 1.6318881518	-0.175822
C	 0.8709507559	-0.8243399956	 1.2820935398	 0.199717
C	 0.1928921127	-1.9201366434	 1.9900234947	 0.085464
O	-0.9132818416	-2.3340123514	 1.7200932403	-0.283455
H	 0.7301142792	 2.1322462316	-0.192248167	 0.134726
H	-1.0095167982	 1.883424391	-0.1367663729	 0.126397
H	-0.1100316685	 2.0407480702	 1.3689017422	 0.135218
H	-0.863450378	-0.3985151403	 0.2209933664	 0.135963
H	 0.9628801823	-1.5157510819	-0.9550540779	 0.117449
H	 3.4527746107	-0.8528798158	-0.2957361809	 0.109286
H	 3.7943520284	 0.9377845303	 1.4447086764	 0.129498
H	 2.1140843336	 1.5881633162	 1.1968184159	 0.132272
H	 0.8042637371	-2.3613854171	 2.8058558392	 0.086348
