14
gdb 62424	2.55553	1.5371	1.37715	4.2946	67.94	-0.2705	-0.0378	0.2327	976.3744	0.100212	-432.816728	-432.80876	-432.807816	-432.849218	29.489	
O	 0.0763351491	 1.4368444991	-0.0717525582	-0.449501
C	 0.0012762148	 0.0375236091	-0.019603518	 0.14662
C	 0.8860691258	-0.5134379408	 1.0143445895	 0.232263
N	 1.5776782739	-0.9071854424	 1.8525831485	-0.319768
C	-1.3730214789	-0.6595894674	-0.0483067332	-0.071263
C	-2.0937922236	-0.3218765553	-1.2829538443	-0.257215
N	-1.0379006405	-1.3722561334	-1.3640549911	-0.131888
C	 0.2064865601	-0.6413477082	-1.4057354139	 0.359411
N	 1.0834686299	-0.6676949327	-2.2954280157	-0.493185
H	-0.0087781331	 1.7948383576	 0.8202688314	 0.302302
H	-1.8036091422	-1.2068872299	 0.780831442	 0.13141
H	-3.0902698968	-0.731211279	-1.406905069	 0.148291
H	-1.9173763275	 0.6329130668	-1.7686823945	 0.153303
H	 1.8755937589	-0.0694485134	-2.0552210335	 0.24922
