19
gdb 29570	2.79436	1.35419	0.96776	2.9931	82.23	-0.2046	0.0446	0.2492	1225.7894	0.161084	-382.081548	-382.072862	-382.071918	-382.115687	32.4	
C	-0.0752094173	 1.5174216846	 0.023992503	-0.505208
C	-0.0344033498	 0.0195477277	-0.000015032	 0.185649
C	-0.0306673708	-0.7863657195	-1.1146563959	-0.163234
N	 0.0108776298	-2.0952142803	-0.7014534178	-0.246819
C	 0.0366873202	-2.1434820884	 0.6676723425	-0.182248
C	 0.0025474281	-0.8494108681	 1.1412467273	 0.183627
C	 0.0332023622	-0.4275218376	 2.5627672568	-0.125198
C	-1.218173907	-0.0628587079	 3.2847434326	-0.229255
N	-0.495785353	-1.3023901961	 3.6253648962	-0.322314
H	 0.8276018239	 1.9445898219	 0.4776586043	 0.12337
H	-0.1588956347	 1.925979366	-0.9872941726	 0.116176
H	-0.9263797334	 1.8902724684	 0.6057578783	 0.125502
H	-0.061519974	-0.5329531871	-2.1628206346	 0.115671
H	 0.0216093027	-2.8947381688	-1.3088748874	 0.260727
H	 0.0975622416	-3.0839657059	 1.1920815679	 0.120585
H	 0.9377186751	 0.0953043597	 2.872964429	 0.09517
H	-1.1999678226	 0.7036144942	 4.0545832782	 0.112707
H	-2.1533912655	-0.1435585105	 2.7375894096	 0.109336
H	-0.9792490858	-2.085930892	 3.1918069845	 0.225759
