25
gdb 65557	3.20915	0.94274	0.89192	0.1119	92.47	-0.2626	0.0813	0.3439	1484.4892	0.229092	-352.338003	-352.328359	-352.327415	-352.372615	37.594	
C	 0.1098488307	 1.5916656937	 0.0034683027	-0.445735
C	-0.022561788	 0.0656112518	 0.0155457262	 0.372418
C	-1.4879785303	-0.3839553253	 0.0913798784	-0.286869
C	-2.3815952807	 0.0813106484	-1.0419595069	 0.032854
C	-2.4855018125	-0.7038824302	-2.327922725	-0.253466
C	-3.6488202631	-0.6687554026	-1.3676213073	-0.277828
C	 0.8719455835	-0.6026532018	-1.0817532241	-0.242158
C	 1.9725092395	-0.84208567	-0.0146340242	-0.213458
C	 0.916823729	-0.5741515711	 1.0906736123	-0.258848
H	 1.1610647668	 1.8980793225	 0.0234581297	 0.109406
H	-0.3397304174	 2.0289881507	-0.8938855906	 0.114289
H	-0.3803710861	 2.0351222572	 0.8784293267	 0.107919
H	-1.5166841271	-1.4814117448	 0.1336054753	 0.080578
H	-1.9079531627	-0.0340886755	 1.0465274106	 0.090558
H	-2.4505097296	 1.1599302916	-1.1512068458	 0.082194
H	-2.5705291267	-0.1615316205	-3.2632887028	 0.107521
H	-1.925936421	-1.6299659933	-2.4052118909	 0.109475
H	-3.863524877	-1.5693271077	-0.8009225702	 0.107472
H	-4.5300232405	-0.1003387155	-1.6443113765	 0.107461
H	 0.4416889517	-1.5414873567	-1.4414151417	 0.092238
H	 1.1329753151	 0.0094511817	-1.9495204572	 0.08978
H	 2.4570390224	-1.8211906331	-0.011081307	 0.093543
H	 2.7541779032	-0.078359906	-0.0401717475	 0.100743
H	 1.2121857033	 0.0627623769	 1.9296871475	 0.089072
H	 0.4985967476	-1.5021056806	 1.4933975985	 0.090843
