18
gdb 62481	2.44346	1.51692	1.27267	2.5772	73.11	-0.2399	0.0263	0.2661	1071.3835	0.145186	-439.088458	-439.079148	-439.078204	-439.122151	34.742	
C	-0.0582631562	 1.5922065762	-0.0063325844	-0.449515
C	-0.0291371551	 0.0731098306	 0.0385041829	 0.107436
O	-1.3081551446	-0.4970180288	-0.141938928	-0.469835
C	 1.0728186762	-0.6063547707	-0.837630743	 0.426548
O	 1.2670201542	-0.7248238111	-2.0190725149	-0.380989
N	 1.7201791851	-1.0613253562	 0.2837112231	-0.424909
C	 0.7182259598	-0.5797214171	 1.2231904095	 0.431357
C	 0.9543619671	-0.0730495138	 2.6066740827	-0.337988
C	 0.1271904445	-1.331682831	 2.364255859	-0.31736
H	 0.9289945417	 2.0150649232	 0.2010673874	 0.128002
H	-0.3716537705	 1.9319361238	-0.9991171504	 0.126777
H	-0.7708431931	 1.9769796866	 0.7298686503	 0.125284
H	-1.5377195025	-0.4002595848	-1.0736886383	 0.29282
H	 2.4783988053	-1.7199285975	 0.3918899832	 0.250077
H	 1.9448918901	-0.1943482926	 3.0334391096	 0.116407
H	 0.4414102857	 0.8302916484	 2.9210901845	 0.123031
H	-0.9486771481	-1.2811888684	 2.4907938147	 0.13749
H	 0.5693671404	-2.2849639369	 2.635496802	 0.115369
