17
gdb 62523	1.78152	1.55374	1.08425	4.6434	72.33	-0.2426	-0.0491	0.1935	1168.4766	0.132024	-458.965642	-458.956079	-458.955135	-459.000084	34.333	
C	-0.0143034116	 1.4888866172	-0.3629428943	-0.478914
C	 0.0078813534	 0.0120970634	-0.0453644249	 0.381718
O	-1.1666658974	-0.6681268406	-0.3661548001	-0.442597
C	 1.298838869	-0.8173498645	-0.2035676927	-0.203834
C	 2.5782774421	-0.2198074428	-0.6369921119	 0.141997
O	 3.0556824256	 0.8194600324	-0.236537663	-0.275584
C	 0.6605751914	-0.5426642732	 1.1822670632	-0.168501
C	 1.3123566719	 0.3181789591	 2.213167395	 0.146159
O	 1.2724012515	 0.0389905279	 3.3874195391	-0.264761
H	 0.9425779927	 1.9680165198	-0.1565656916	 0.16774
H	-0.2358572255	 1.6366288236	-1.4270476435	 0.116397
H	-0.8000740846	 1.9805889939	 0.2178382579	 0.14189
H	-1.3975027563	-0.4562048205	-1.2782374424	 0.289283
H	 1.1188171942	-1.8217306245	-0.5716706186	 0.113914
H	 3.0997036384	-0.8099307755	-1.4222328849	 0.089899
H	 0.1631461702	-1.4070084147	 1.6094158564	 0.1309
H	 1.827251305	 1.2234365692	 1.8480663165	 0.114295
