19
gdb 108121	3.04764	1.52022	1.38063	0.3413	73.76	-0.2405	0.0706	0.3111	1027.2265	0.159995	-422.981844	-422.974409	-422.973464	-423.013772	29.75	
C	-0.0691500057	 1.5752769448	-0.0661116516	-0.383218
C	-0.0489537775	 0.0411267768	-0.0490205357	-0.320936
C	 0.6760641039	-0.5363250694	-1.2268696772	 0.451414
O	 0.118690738	-0.2924509953	-2.5251269043	-0.330077
C	 1.0417474209	-1.3157891247	-3.0016640134	 0.026082
C	 2.3906562951	-0.5821858374	-2.8924900194	-0.21141
C	 2.2841605563	-0.4982360315	-1.3607743124	-0.0097
O	 2.3344390763	-1.9083953434	-0.9890159515	-0.294774
C	 1.028146689	-1.9937844517	-1.5554180751	-0.007824
H	 0.945020081	 1.9859329911	-0.0211433784	 0.116884
H	-0.540341421	 1.9452023554	-0.9808743135	 0.138714
H	-0.6268851931	 1.9671143668	 0.7890294386	 0.115488
H	 0.4376097997	-0.3284599233	 0.8613603986	 0.116406
H	-1.0746176108	-0.3461750167	-0.0441369978	 0.110153
H	 0.7308956342	-1.7988018568	-3.9253212248	 0.085254
H	 3.2652456553	-1.1624636354	-3.1928018071	 0.110684
H	 2.3536743239	 0.3750881466	-3.4154662903	 0.110862
H	 2.9494058479	 0.1366719592	-0.7787007991	 0.083682
H	 0.4616130267	-2.8988691651	-1.3429346357	 0.092316
