18
gdb 68267	2.40376	1.49103	1.42558	2.3958	76.6	-0.2585	0.0187	0.2772	1041.1059	0.145765	-401.907207	-401.898532	-401.897588	-401.940009	33.125	
C	 0.0520796505	 1.4833421409	 0.0944303942	-0.519307
C	 0.0212987484	-0.0028540009	-0.058365645	 0.379571
C	 0.693861217	-0.9279136101	-1.1067570044	-0.291208
C	 0.0953901658	-1.8002151476	 0.0141851266	 0.018683
O	 0.6298249557	-0.8470658806	 1.0032463105	-0.341538
C	-1.2360981506	-0.9710318982	-0.0195662616	 0.160081
C	-2.1041692502	-0.9614720753	 1.2350963005	-0.478235
C	-2.0462457369	-1.0486399422	-1.2299621605	 0.211028
N	-2.705716701	-1.101898009	-2.1789244792	-0.347309
H	 1.0861067533	 1.8362759677	 0.1478762032	 0.143552
H	-0.4347339937	 1.9575839009	-0.7630527758	 0.145167
H	-0.4682352569	 1.7902619147	 1.0063971835	 0.140222
H	 0.2639195656	-0.9861280923	-2.1075153318	 0.134491
H	 1.7827190589	-0.8843788726	-1.1043903806	 0.115318
H	 0.2122053837	-2.8636218291	 0.2199137326	 0.109089
H	-1.4638357248	-0.8988205408	 2.1152513115	 0.150213
H	-2.7906905359	-0.1097040314	 1.224972782	 0.13432
H	-2.7075921188	-1.8720789938	 1.2927212745	 0.135862
