18
gdb 55877	3.31238	0.92408	0.79494	2.4224	79.84	-0.2372	-0.0124	0.2248	1442.9873	0.143881	-401.897548	-401.887741	-401.886796	-401.933575	34.928	
C	 0.8681993558	 0.3933341595	-0.3231270967	-0.462208
C	-0.3912373126	 0.4634218548	 0.5138492375	 0.373212
O	-0.5034237439	 1.202097716	 1.4639682928	-0.291874
C	-1.5733923298	-0.4142286578	 0.0880052851	-0.249775
N	-1.1446967011	-1.6525077939	-0.5493835658	-0.094351
C	-1.0727139486	-2.8404436893	 0.2865967311	-0.248325
C	-2.1499502709	-2.7137838186	-0.7507189544	-0.17313
C	-3.5204920981	-2.5384945372	-0.3553862651	 0.3394
C	-4.6783645612	-2.387172219	-0.0668250941	-0.463171
H	 1.3301727101	-0.5939206312	-0.2207545704	 0.148216
H	 0.6324719349	 0.5086144237	-1.3859936076	 0.140908
H	 1.5651205686	 1.1664167484	 0.002465006	 0.134707
H	-2.2233203748	-0.5540992711	 0.9618861631	 0.125858
H	-2.146065457	 0.1653657988	-0.6494475625	 0.135955
H	-0.2322849662	-3.5050839666	 0.1062991353	 0.125375
H	-1.385811492	-2.7559789827	 1.3254471195	 0.131514
H	-2.0173218203	-3.2499811913	-1.6877544098	 0.122292
H	-5.6986690929	-2.2592144026	 0.1989743561	 0.205399
