19
gdb 110806	2.38535	1.36253	1.04649	1.6538	81.21	-0.2374	0.0187	0.2561	1219.8859	0.157514	-385.808313	-385.799406	-385.798461	-385.842133	33.637	
C	-0.1655056532	 1.6059676813	-0.2178735035	-0.377601
C	-0.0323017199	 0.1408092638	 0.2148154988	-0.210362
C	-1.3598386915	-0.586205094	 0.1533737447	-0.013516
C	-1.8875837142	-1.2842609668	-1.0596580972	 0.075998
O	-0.8338759871	-1.9141655775	-1.8029614348	-0.292742
C	-0.595918007	-2.8418029003	-0.7000254148	-0.060842
C	 0.7954995075	-3.0029802905	-0.3103066027	 0.324797
C	 1.9371765249	-3.1920155793	 0.0154872485	-0.432532
C	-1.5917154967	-2.0880319352	 0.1905347885	-0.189923
H	 0.7982288823	 2.1213842715	-0.1635220903	 0.111917
H	-0.5272009814	 1.678682502	-1.24877831	 0.121644
H	-0.8704327561	 2.1501509034	 0.4211295495	 0.108555
H	 0.6911671536	-0.3670810831	-0.4268251745	 0.126194
H	 0.3635088229	 0.087939808	 1.2363221091	 0.096733
H	-2.1630203463	-0.0836908731	 0.6941391467	 0.087905
H	-2.8063446741	-1.0650449918	-1.5912013246	 0.103798
H	-1.0063521467	-3.8209037122	-0.9798567212	 0.114761
H	 2.9475663336	-3.3426861411	 0.306561866	 0.201819
H	-2.2518063605	-2.5683466753	 0.8999119518	 0.103397
