19
gdb 124646	4.27306	0.93879	0.85051	1.266	78.23	-0.2053	0.0251	0.2304	1401.3348	0.159685	-419.222249	-419.213268	-419.212324	-419.256548	33.282	
C	-0.0839534831	 1.5728057472	 0.1315698696	-0.393448
C	 0.0181802144	 0.0589811922	-0.0027659553	 0.13923
C	 0.7221135116	-0.5908282843	 1.1884387003	-0.396105
O	-1.3304320982	-0.416517802	-0.1232065524	-0.292322
C	-1.5151532967	-1.6563747935	-0.6388169623	 0.276553
C	-2.7470020075	-2.2800650544	-0.7161659369	-0.150982
N	-2.5147932222	-3.476646864	-1.3184335467	-0.173719
N	-1.2302059783	-3.6795500093	-1.6321130991	-0.230016
C	-0.6060719711	-2.5728017388	-1.2226599178	-0.115747
H	 0.912195433	 2.0174988539	 0.2109071814	 0.115881
H	-0.591163494	 2.0025486181	-0.7359659849	 0.124907
H	-0.6531340308	 1.8361149963	 1.028606655	 0.125532
H	 0.5575319035	-0.1826534139	-0.9296935416	 0.083996
H	 0.7364185563	-1.6796719997	 1.0963300574	 0.131113
H	 1.7566178166	-0.2397074162	 1.2564280054	 0.115774
H	 0.2063099803	-0.3313447246	 2.1183380195	 0.123688
H	-3.7264412401	-1.9614287365	-0.4016234579	 0.132113
H	-3.188015325	-4.1906256427	-1.53632724	 0.27469
H	 0.4601235514	-2.483287868	-1.3582148836	 0.108862
