17
gdb 72150	2.63524	2.0408	1.81872	2.1685	65.7	-0.247	0.0619	0.3089	841.4242	0.138237	-458.951452	-458.945025	-458.944081	-458.981752	27.36	
O	-0.0747909174	 1.3591863013	 0.0546225269	-0.495469
C	 0.0532930412	-0.0254304532	 0.0577477673	 0.361086
C	 0.888540441	-0.7730770894	 1.0902654796	-0.325354
C	 0.4451356443	-2.1206447316	 0.5113959815	 0.185274
O	-0.9737136462	-2.0694769775	 0.59832886	-0.277162
C	-1.3136162283	-0.799715951	 0.0140697086	 0.068479
C	-1.1927476614	-0.8893019496	-1.5247355351	-0.249743
C	 0.3336468699	-0.7847540177	-1.3039219856	 0.02703
O	 0.8472302965	-2.0498482971	-0.8539304441	-0.277712
H	 0.7931447606	 1.746685174	-0.1025862088	 0.285662
H	 1.9651438315	-0.6092994347	 0.9989228515	 0.103498
H	 0.5528390505	-0.6183857217	 2.117126572	 0.117305
H	 0.803694286	-3.0511499694	 0.9461023662	 0.096121
H	-2.2051069368	-0.3954525002	 0.4941609905	 0.086152
H	-1.566891862	-1.7954531045	-2.0029863157	 0.109586
H	-1.5912019438	 0.0057661149	-2.0100327246	 0.110871
H	 0.9919729145	-0.3721495525	-2.0709785201	 0.074376
