25
gdb 63163	2.15928	1.57226	1.25641	0.1104	92.38	-0.2455	0.0794	0.3249	1198.2047	0.229273	-352.369823	-352.359957	-352.359012	-352.403636	38.474	
C	 0.0234547768	 1.5409135619	 0.0927605886	-0.465131
C	 0.066383812	 0.0215120867	 0.050097823	 0.287594
C	-1.2396584066	-0.5353663439	-0.503392541	-0.452516
C	 1.3168856618	-0.7580221173	-0.3280966084	-0.124435
C	 2.681954127	-0.0865503131	-0.3760486744	-0.230254
C	 2.9181129553	 0.535117406	 1.0278245605	-0.219325
C	 1.8389706202	-0.0640407755	 1.9698903021	-0.271747
C	 0.807670079	-0.7982646545	 1.1032536964	 0.302055
C	 0.1904536063	-2.02062408	 1.751775094	-0.482623
H	 0.9107570091	 1.9991643676	 0.5276119476	 0.116899
H	-0.0972257374	 1.9495977917	-0.9178638654	 0.111223
H	-0.8389514279	 1.8787746267	 0.6805466428	 0.111206
H	-1.4706052602	-0.0616071089	-1.4650364516	 0.110452
H	-1.2021899053	-1.6131566074	-0.6761660501	 0.112979
H	-2.0807259776	-0.3327712818	 0.1708967467	 0.110197
H	 1.1641492992	-1.6112805922	-0.9837584004	 0.067794
H	 3.4407448038	-0.8466626769	-0.5933099845	 0.09673
H	 2.7602931386	 0.664745117	-1.1702685884	 0.095402
H	 3.9254384043	 0.315223013	 1.3931951869	 0.094347
H	 2.8470444683	 1.6249237588	 0.9881417137	 0.105849
H	 2.2920983885	-0.7953361573	 2.6489199341	 0.093446
H	 1.3838058316	 0.7031699497	 2.6071354927	 0.094014
H	-0.3772631367	-1.747050727	 2.6500108166	 0.112537
H	-0.4894845306	-2.5593418533	 1.088903732	 0.113123
H	 0.9712909206	-2.7244037801	 2.0648005266	 0.110185
