19
gdb 126516	3.18845	0.96787	0.78862	3.8872	78.78	-0.2095	0.0146	0.2241	1472.7042	0.159376	-419.213329	-419.203982	-419.203037	-419.248468	33.897	
C	-0.0859404149	 1.6207382473	 0.0264873017	-0.378209
C	-0.0522924469	 0.0909916131	 0.0138510607	-0.152585
C	 0.737331149	-0.5010572679	 1.198679199	-0.339044
C	 0.7831627162	-1.9990521566	 1.2188065278	 0.086426
C	 1.7190611548	-2.8373661651	 0.6677727193	 0.389851
N	 2.9084361498	-2.6049741879	 0.0133740998	-0.595438
O	 1.4089324009	-4.120139096	 0.8911955824	-0.21397
N	 0.2071961825	-4.1775334188	 1.6330323212	-0.169152
C	-0.1269601806	-2.9224038115	 1.7996589846	-0.024854
H	 0.9253012989	 2.0410381005	-0.0185078865	 0.112363
H	-0.6485595859	 2.0151748874	-0.8251383519	 0.114715
H	-0.5574209711	 1.998307318	 0.9406718862	 0.117194
H	-1.0741821564	-0.3066543452	 0.0337216359	 0.104294
H	 0.3878784447	-0.2651782687	-0.9267321218	 0.088716
H	 1.7603880719	-0.101125718	 1.1832665178	 0.098589
H	 0.2951013527	-0.1380226858	 2.1349302043	 0.109262
H	 2.9259223659	-1.7604340017	-0.53860347	 0.264217
H	 3.253477617	-3.4048815407	-0.4986154275	 0.26672
H	-1.0302608885	-2.6993205823	 2.3532247569	 0.120905
