14
gdb 17016	5.87188	1.43446	1.37595	1.5469	62.99	-0.2532	-0.0426	0.2107	880.9697	0.10676	-382.505828	-382.499118	-382.498174	-382.536977	24.774	
O	-0.6780954628	 0.8154858757	 0.5749105982	-0.238429
C	 0.1016239804	 1.0710842879	-0.3078126356	 0.119893
C	 1.2943003898	 1.9850117509	-0.1979397806	-0.081312
C	 1.0927327537	 3.5126605132	-0.5902022957	-0.192961
C	 0.3645055539	 3.6799249797	 0.7850603639	-0.240913
C	 1.583740678	 2.749694244	 1.1383601719	-0.17742
C	 2.3785121503	 3.7103251177	 0.2378710137	 0.452831
O	 3.4099681809	 4.3018251937	 0.1994163754	-0.315806
H	-0.0058187868	 0.6095447133	-1.3161163234	 0.08811
H	 2.149486354	 1.5080235868	-0.6899633219	 0.106701
H	 0.8134437871	 3.912845625	-1.5620672316	 0.104622
H	 0.3659659729	 4.6806790564	 1.2190873276	 0.120673
H	-0.6074372443	 3.2000620599	 0.8679596276	 0.146407
H	 1.837506123	 2.3143418059	 2.1010053904	 0.107605
