6
gdb 8	127.83497	24.85872	23.97872	1.5258	16.97	-0.2653	0.0784	0.3437	83.794	0.051208	-115.679136	-115.675816	-115.674872	-115.701876	8.751	
C	-0.0082881667	 1.3904697792	-0.0056006901	-0.22018
O	-0.0079703813	-0.0250453723	 0.0203060595	-0.403148
H	 1.0065833848	 1.8155636589	 0.0034833514	 0.102778
H	-0.5465747513	 1.7991697458	-0.8739012577	 0.102783
H	-0.5228887142	 1.7255524029	 0.8990732632	 0.131574
H	 0.4414201887	-0.3335442546	-0.7715205863	 0.286193
