20
gdb 126580	5.41573	0.65289	0.62922	5.0546	81.71	-0.2483	0.0037	0.252	1821.2036	0.172201	-399.341984	-399.332772	-399.331828	-399.377621	32.805	
C	 0.0595086617	 1.5777693141	-0.1390404268	-0.383943
C	 0.0200538183	 0.0549531172	 0.0129052697	-0.164259
C	-1.4020646736	-0.513005745	-0.0195542561	-0.15509
C	-1.4386636446	-2.0465051124	 0.1358289923	-0.333728
C	-2.8191416931	-2.61864217	 0.1302027692	 0.343984
C	-3.6275895164	-3.1387290118	 1.1163599821	-0.15389
N	-4.8251336381	-3.5027842251	 0.5772767781	-0.185362
N	-4.8145821104	-3.2397354659	-0.6961018337	-0.118972
N	-3.606766642	-2.7042719767	-0.9729424424	-0.232553
H	 1.0868312746	 1.9534373602	-0.1125681045	 0.116587
H	-0.3860698693	 1.8932858558	-1.0889160206	 0.116002
H	-0.4965240525	 2.070415953	 0.6659894266	 0.119029
H	 0.6150438761	-0.4102168355	-0.7844288868	 0.096607
H	 0.5017958042	-0.2330732153	 0.9565986901	 0.100282
H	-2.0031450266	-0.0603051708	 0.7786866818	 0.110512
H	-1.8887274969	-0.22883865	-0.9622955183	 0.092713
H	-0.8391766132	-2.5067836829	-0.6609107451	 0.113197
H	-0.9583423435	-2.3275754998	 1.0789865886	 0.124109
H	-3.4140951694	-3.2714809553	 2.1649641176	 0.118763
H	-3.3969893354	-2.4350380338	-1.9210441418	 0.276012
