18
gdb 79166	2.59574	1.86307	1.43299	2.6143	73.94	-0.2384	-0.023	0.2154	960.6765	0.149331	-401.93511	-401.927778	-401.926834	-401.966777	28.941	
C	-0.355850579	 1.5397861951	 0.0818599608	-0.403618
C	 0.0239042294	 0.0600305863	-0.0346297002	-0.124871
C	 0.7891003059	-0.377451016	-1.2662351136	-0.0402
C	 2.2380066682	-0.0954133977	-1.4546455792	-0.037597
C	 2.9828192519	 0.1984051073	-0.1608440358	-0.26
C	 2.1792672648	-0.9950022937	 0.4437198192	-0.116726
N	 1.7749846529	-1.4511278081	-0.9536099748	-0.15524
C	 0.9412152617	-0.4184762623	 1.1048410326	 0.421542
O	 0.7301441908	-0.3044499052	 2.2839401978	-0.327144
H	 0.5177883977	 2.1861134615	-0.0454852648	 0.123138
H	-1.0928039557	 1.8173323764	-0.6775004992	 0.120363
H	-0.7855954929	 1.7346191013	 1.0683146794	 0.141935
H	-0.8916949132	-0.5445378342	 0.0310460036	 0.114362
H	 0.2298569897	-0.5706066441	-2.1767611926	 0.099915
H	 2.6543721685	 0.0222355578	-2.4506756898	 0.097852
H	 4.0394079519	-0.0614539577	-0.2481606025	 0.128159
H	 2.8947795107	 1.1858213213	 0.3021051592	 0.116019
H	 2.7178267068	-1.7330909282	 1.0330980399	 0.102113
