15
gdb 2236	4.71385	2.77565	2.20187	1.2709	61.33	-0.2276	0.0209	0.2485	638.4994	0.125817	-308.508824	-308.502727	-308.501783	-308.538206	24.352	
O	-0.0464289403	 1.4331076205	 0.0793235141	-0.469006
C	 0.0057976263	 0.038882212	 0.0570483278	 0.378259
C	-0.3798488159	-0.7234861652	-1.1916556937	-0.338472
C	-1.2616640042	-0.7888702339	 0.0412545807	-0.080017
C	-1.0708708213	-1.9508394527	 1.0125596585	-0.273621
C	 0.3574853527	-1.7794248988	 1.4933783318	-0.070965
C	 0.9280834541	-0.6839798321	 0.9893405178	-0.144235
H	 0.6213829306	 1.7668851966	-0.5288160974	 0.282297
H	-0.7741777769	-0.1351893137	-2.0147112335	 0.108558
H	 0.2080776352	-1.5893180819	-1.4807670721	 0.108663
H	-2.2213885981	-0.290507144	-0.0171406362	 0.094844
H	-1.7820559837	-1.90649973	 1.8480854846	 0.110025
H	-1.2245506105	-2.92455307	 0.5290942843	 0.109615
H	 0.8408442577	-2.4970048973	 2.1468579577	 0.094064
H	 1.9374012442	-0.3398907294	 1.1865486658	 0.089989
