21
gdb 53116	2.03067	1.2342	0.87369	1.811	87.62	-0.2422	0.0464	0.2886	1421.7138	0.180672	-387.063926	-387.053597	-387.052653	-387.100153	37.292	
C	-0.1938341266	 1.493801396	-0.0815800976	-0.500213
C	-0.1000010962	 0.0400883001	-0.0481037897	 0.049517
C	 0.0202192454	-1.1608875555	-0.0249835306	 0.083631
C	 0.0851300383	-2.6105975277	-0.0118975399	-0.258781
C	 0.2429571983	-3.261642944	 1.4143764939	 0.041312
C	 0.9865725026	-2.5151819804	 2.508256732	-0.409983
C	-1.3021233476	-3.3869596776	 1.4923140661	-0.272902
C	-1.3549728791	-3.2546652502	-0.0512802933	 0.165
O	-2.3951790369	-2.5589866953	-0.667584957	-0.43162
H	 0.782621897	 1.9561956409	 0.1002211102	 0.151918
H	-0.5513483484	 1.8478493227	-1.0547540893	 0.151334
H	-0.8841991583	 1.8689888817	 0.6818674394	 0.148353
H	 0.7843386699	-2.9647848712	-0.7753610994	 0.092008
H	 0.6847731829	-4.2540362309	 1.2744051445	 0.076845
H	 0.5922558929	-1.5018088037	 2.6287556039	 0.122541
H	 0.8868454603	-3.0362032695	 3.4668139736	 0.112934
H	 2.0554322352	-2.4334059186	 2.2821472597	 0.114186
H	-1.7304474558	-4.2831118856	 1.9472178164	 0.096555
H	-1.743066767	-2.5025433808	 1.9645337924	 0.099792
H	-1.3051079693	-4.2363681909	-0.5311832295	 0.089782
H	-2.2678902478	-1.6225997293	-0.4639921356	 0.277793
