14
gdb 3310	5.4522	2.29105	2.09253	1.5593	56.94	-0.2453	-0.033	0.2122	653.8441	0.113436	-324.530742	-324.524486	-324.523542	-324.561248	22.707	
O	-0.6560269952	 0.7702814308	-0.4884899461	-0.241615
C	 0.1934302903	 0.9582212632	 0.3458759582	 0.15048
C	 1.3330891349	 1.9354454492	 0.2080956914	-0.033094
C	 1.2876504878	 3.012215044	-0.8987387616	-0.272861
C	 1.2687226122	 4.0338715376	 0.2372596386	-0.003058
C	 0.1480200253	 3.7906196118	 1.1592459676	-0.245461
N	 1.3724832836	 2.9683817924	 1.3247244063	-0.158699
H	 0.1784682321	 0.4219413996	 1.3220373637	 0.089427
H	 2.274088789	 1.3748639691	 0.2366083139	 0.107803
H	 2.1973051954	 3.038403577	-1.4996874877	 0.116544
H	 0.4172961812	 2.9951166032	-1.5587752984	 0.128128
H	 1.8751456887	 4.9320950584	 0.2825840187	 0.102478
H	 0.0117481672	 4.4820534158	 1.9843912392	 0.128077
H	-0.7686879026	 3.3331280078	 0.7937523464	 0.13185
