25
gdb 96546	2.17541	1.46888	1.02809	1.1575	88.73	-0.2402	0.0787	0.3189	1300.1714	0.230519	-389.507545	-389.498099	-389.497155	-389.541274	37.338	
C	 0.0097586451	 1.5982091758	-0.0759242106	-0.39944
C	 0.0162314698	 0.0650702735	 0.013317278	 0.03166
C	 0.5940096128	-0.5124522696	-1.3028807904	-0.184909
C	 1.1815298179	-1.9343897018	-1.2657573798	-0.216098
C	 2.6166541399	-1.9814184629	-0.7151101405	-0.185397
C	 2.7499619107	-1.6481780589	 0.7725517975	-0.071416
O	 2.1507552901	-0.421950396	 1.1508742551	-0.263121
C	 0.7294074417	-0.47273507	 1.2760660309	 0.137108
C	 0.3553749699	 0.2627924436	 2.5616276821	-0.408308
H	 1.032987102	 1.9869017345	-0.0318038332	 0.12641
H	-0.4300886079	 1.9238301024	-1.024531986	 0.106342
H	-0.5655195374	 2.0614032889	 0.7302944362	 0.109707
H	-1.0259152395	-0.2749011416	 0.1025609081	 0.064293
H	-0.1994732019	-0.467793928	-2.0583935491	 0.089755
H	 1.381493851	 0.1624335039	-1.6619986128	 0.097106
H	 0.5290483458	-2.6143873246	-0.7014229493	 0.091376
H	 1.2005970319	-2.3246025875	-2.2901022248	 0.092231
H	 3.0482148379	-2.9786322243	-0.8739922392	 0.087668
H	 3.231835117	-1.2789677849	-1.2921458611	 0.100078
H	 2.3268771941	-2.4687660931	 1.3763307177	 0.083395
H	 3.8095120447	-1.5629099283	 1.0386926622	 0.099419
H	 0.4315901078	-1.5252805988	 1.3958322176	 0.061768
H	 0.7492637123	 1.2822938871	 2.5540430963	 0.128528
H	-0.7313197618	 0.3116183941	 2.6870382043	 0.108479
H	 0.7807058261	-0.2555355534	 3.4253365409	 0.113367
