23
gdb 110217	2.11042	1.28647	1.17316	1.6449	86.62	-0.2228	0.0832	0.306	1285.1503	0.203763	-388.266898	-388.256734	-388.255789	-388.301695	37.888	
C	-0.2726204295	 1.4564608037	-0.0789201733	-0.373067
C	 0.1360153765	-0.0110914608	 0.0996379423	-0.212556
C	 0.7814288908	-0.5836954827	-1.1456891749	-0.110724
C	 1.0241138547	-2.0625429639	-1.4325152519	 0.175351
C	 2.3668974187	-2.6511863793	-1.7547131756	-0.498472
C	-0.1971782019	-2.856137301	-0.9779740194	-0.137473
O	-1.0970649186	-1.9855494998	-1.7106079151	-0.324922
C	 0.0228235665	-1.2629484802	-2.2555406537	 0.416872
C	-0.0705720051	-0.8448906592	-3.6871292026	-0.490024
H	 0.5920002835	 2.0851283693	-0.3204124356	 0.10881
H	-0.9987405083	 1.5642950981	-0.8913392597	 0.120545
H	-0.7285319061	 1.8546220273	 0.8330055821	 0.109566
H	 0.8278015612	-0.0999749436	 0.9474226975	 0.090315
H	-0.7509997438	-0.6010020001	 0.3493734479	 0.114216
H	 1.6055743498	 0.017650183	-1.5319853105	 0.07567
H	 2.9321057469	-2.8857203145	-0.8441771208	 0.121672
H	 2.2712297084	-3.577549171	-2.3330961485	 0.117427
H	 2.9730588895	-1.9533748832	-2.3416583071	 0.119313
H	-0.2245602344	-3.8715872635	-1.3930669203	 0.101051
H	-0.4280937698	-2.8949063417	 0.0935298845	 0.098924
H	-0.8687271759	-0.1055927964	-3.8214132958	 0.131507
H	 0.8676055631	-0.3879030049	-4.0153625779	 0.121129
H	-0.2903313963	-1.6997438657	-4.3348066817	 0.124872
