20
gdb 81244	2.94182	1.52103	1.40469	1.1674	79.06	-0.2333	0.0634	0.2967	1038.8181	0.172499	-403.044647	-403.036952	-403.036008	-403.076827	30.747	
C	 0.0133565282	 1.6122640867	-0.0627970612	-0.450281
C	 0.1354490968	 0.1004361001	-0.0671029845	 0.030595
N	 1.438986936	-0.5383623605	-0.5852542459	-0.193548
C	 2.0462008597	-0.1922015881	 0.801582113	-0.255915
C	 0.6392590493	-0.7503580132	 1.1410056101	 0.37011
O	-0.120990055	-1.2196235127	 2.2085830961	-0.323855
C	-0.7915215753	-2.4032233267	 1.6845492714	-0.084921
C	-0.3579944872	-2.6388580011	 0.1791006933	-0.334826
C	 0.949846394	-1.8462014837	 0.1692484198	 0.035078
H	 0.0979165244	 1.9955631245	-1.0854679526	 0.130519
H	-0.9751959058	 1.8922116718	 0.3161336775	 0.124595
H	 0.7561298954	 2.1249146993	 0.5511251771	 0.121819
H	-0.7240543836	-0.3118501732	-0.5997207227	 0.070013
H	 2.9084531078	-0.8091139317	 1.0626976326	 0.108977
H	 2.262189691	 0.8665123094	 0.9292936436	 0.10908
H	-0.5058031327	-3.2530741227	 2.313688565	 0.113102
H	-1.8725312049	-2.2585133618	 1.7720884883	 0.113883
H	-0.2136092054	-3.7018770364	-0.0238468451	 0.110305
H	-1.1248407765	-2.274345789	-0.505072064	 0.126227
H	 1.8121224037	-2.4789630712	 0.3906575085	 0.079041
