14
gdb 69234	2.75656	1.68892	1.21236	1.6901	64.26	-0.2767	-0.0331	0.2435	981.0987	0.100689	-473.856114	-473.848549	-473.847605	-473.888252	28.477	
O	-0.0158426153	 1.3916355155	-0.0422710515	-0.461578
C	-0.0528073653	 0.0146155841	-0.0158532016	 0.302143
C	-0.4203986552	-0.8070365885	-1.2272403155	-0.347801
C	-1.31322181	-0.8141919652	 0.0070282324	-0.200595
C	-1.0345902604	-1.9227242466	 0.9547137661	 0.433456
N	-1.83872588	-2.7824944904	 1.3868412977	-0.522405
O	 0.3184661335	-1.8652844903	 1.3338423952	-0.226142
C	 0.8781954755	-0.6741136138	 0.9310715803	 0.381583
O	 1.933009345	-0.2744722277	 1.3249607971	-0.340759
H	 0.8918965512	 1.6466635053	 0.1721855644	 0.306507
H	-0.7967609688	-0.2213273471	-2.0580679721	 0.147926
H	 0.1399363014	-1.696508306	-1.4937392733	 0.142032
H	-2.3104558493	-0.4012809956	-0.0425597887	 0.143395
H	-1.3850067923	-3.4226889037	 2.0401331896	 0.242237
