19
gdb 48444	2.39154	1.40393	1.12748	2.9216	75.11	-0.2543	-0.0361	0.2182	1154.7724	0.157982	-422.990159	-422.98124	-422.980296	-423.025202	32.062	
O	-0.3109604065	 0.1578964541	-0.1655997186	-0.251151
C	-0.099698562	 1.2895998576	 0.1870264415	 0.086198
C	 1.237919825	 1.9942441364	 0.0863569786	 0.190657
C	 1.7191282758	 2.5004043604	 1.477052247	-0.12529
O	 2.7334753003	 1.4855565086	 1.5391216808	-0.269706
C	 2.4511068411	 1.0402132992	 0.1942242353	-0.115076
C	 1.2732253088	 2.9983471444	-1.0485630059	-0.065243
C	 0.7727761626	 2.6434349707	-2.4278466401	-0.272294
C	 0.0468234431	 3.6819952842	-1.6109513836	-0.286189
H	-0.9099389324	 1.9091133149	 0.6353676461	 0.08823
H	 2.1386115818	 3.5153445232	 1.4669790368	 0.101662
H	 0.9992800884	 2.4221979462	 2.3030448591	 0.104608
H	 2.2173447655	-0.0272156157	 0.1438486571	 0.127494
H	 3.2701711077	 1.2746868223	-0.4967125426	 0.098916
H	 2.1714328154	 3.6105518413	-1.0210109769	 0.094215
H	 1.3562944962	 2.9690841182	-3.2812595141	 0.118807
H	 0.2933247504	 1.6788609207	-2.556686996	 0.135394
H	-0.9309491781	 3.4274478389	-1.2180449967	 0.119199
H	 0.1426817569	 4.7233380943	-1.8969167578	 0.11957
