19
gdb 49810	2.81544	1.23839	0.99954	3.0427	84.65	-0.2336	-0.0343	0.1993	1228.808	0.160078	-385.904295	-385.895797	-385.894853	-385.938354	31.557	
O	 0.3633313032	-0.2410969482	 0.5564510826	-0.240282
C	 0.1130911381	 0.8971314525	 0.2660481408	 0.15575
C	 1.1526886195	 2.0305854595	 0.1656985664	-0.154911
C	 1.1110678151	 2.5536557616	-1.2493546689	-0.087282
C	 0.3340913204	 3.5146278482	-1.7496965996	-0.056307
C	-0.6427977489	 4.3785384197	-0.9917595119	-0.260699
C	-0.0448203343	 5.09828132	 0.2285350874	-0.241052
C	 0.428530601	 4.2159050887	 1.352374183	-0.056224
C	 0.9143212915	 2.9736835568	 1.3201879268	-0.077281
H	-0.9234034588	 1.2332763788	 0.0406719508	 0.08263
H	 2.1184103901	 1.5411310339	 0.3345557111	 0.103087
H	 1.7537232497	 2.0085921836	-1.9368258628	 0.100803
H	 0.4141719087	 3.7108013682	-2.8167853014	 0.093976
H	-1.0536821097	 5.1322900236	-1.67117595	 0.103444
H	-1.4985712905	 3.7772271418	-0.657877886	 0.117884
H	 0.7855383315	 5.7371344144	-0.1039451049	 0.120083
H	-0.7989497308	 5.785924395	 0.6307912639	 0.103883
H	 0.3796649758	 4.6827999808	 2.3350366381	 0.091427
H	 1.1889784581	 2.528231311	 2.2749044849	 0.101073
