19
gdb 114294	2.27506	1.53803	1.12859	1.6239	81.52	-0.2378	0.0533	0.2911	1152.4512	0.157728	-385.812054	-385.803166	-385.802222	-385.845712	33.5	
C	-0.1162597646	 1.3696876779	 0.1108219438	-0.23516
O	 0.4202809383	 0.0930514093	-0.1483762452	-0.23406
C	 0.7960031235	-0.593102895	 1.0106706468	 0.15158
C	-0.295662502	-1.2036536032	 1.9674048306	-0.295354
C	 0.4005347329	-2.5595977393	 1.8087443548	-0.071107
C	 0.3447873253	-3.0048562754	 0.3642828448	-0.202603
C	-0.7755469694	-2.7676209188	-0.5036787164	 0.351302
C	-1.731259644	-2.6325638479	-1.2212855295	-0.46231
C	 1.3809798644	-1.9781124448	 0.7874277676	-0.118801
H	 0.6028958559	 2.0128645187	 0.6437248146	 0.099999
H	-0.3504724033	 1.8262529276	-0.8535641888	 0.128034
H	-1.0378946403	 1.3160044126	 0.709431422	 0.108819
H	 1.4947336568	 0.0188271565	 1.6033396538	 0.069606
H	-0.2568947948	-0.7948926556	 2.9785469659	 0.10176
H	-1.3227185413	-1.168716045	 1.5949524556	 0.118323
H	 0.5950004967	-3.2686186004	 2.6036169748	 0.094081
H	 0.8058287386	-3.979195298	 0.2152057555	 0.114339
H	-2.5602294364	-2.4875145831	-1.8682808767	 0.19041
H	 2.4338002236	-2.1891341062	 0.6424182461	 0.091143
