13
gdb 21536	3.57947	1.95625	1.26683	2.1543	71.33	-0.1991	-0.0114	0.1877	886.8365	0.096945	-357.628388	-357.621085	-357.620141	-357.659634	27.472	
N	 0.0466443321	 1.4412655085	 0.1649254592	-0.622174
C	 0.0283688928	 0.0535181591	 0.0464372421	 0.083003
C	-1.0957833937	-0.7723717535	 0.0160911664	 0.219468
N	-0.6035484497	-2.0564344632	-0.025496406	-0.294466
N	 0.7261478396	-2.110347494	-0.0339549255	-0.203169
C	 1.1234350757	-0.8376369163	 0.0129398632	-0.065091
C	-2.4628034895	-0.4528839875	 0.0214487984	 0.241549
C	-3.6324138361	-0.1569836862	 0.0166794984	-0.439785
H	 0.822652016	 1.8792513045	-0.3120922533	 0.249661
H	-0.8255837416	 1.8738735479	-0.1098526198	 0.251744
H	-1.1415886102	-2.9055933393	-0.0552486915	 0.276653
H	 2.1768487463	-0.5994071924	 0.0225388038	 0.10862
H	-4.6629747818	 0.0982299924	 0.0243311548	 0.193986
