23
gdb 81429	3.1409	1.39401	1.2941	0.1145	88.98	-0.2399	0.0977	0.3377	1133.8845	0.207584	-351.122572	-351.11444	-351.113496	-351.154427	33.973	
C	-0.0570890317	 1.5993945287	 0.0096259868	-0.440044
C	-0.0073997849	 0.0735373613	 0.0136963493	 0.051102
C	 1.0585130141	-0.6129953004	-0.8950476527	-0.047453
C	 2.0836036193	-0.3134739556	 0.2536321498	-0.228379
C	 0.821311168	-0.6174453884	 1.1380088214	-0.093822
C	 0.6790876875	-2.1374003152	 0.8612190281	 0.367727
C	 1.3866925484	-3.0897658306	 1.7937555166	-0.476529
C	-0.4391863189	-2.6303655411	-0.0298791804	-0.375385
C	 0.8418127726	-2.1229072825	-0.6530866743	-0.072496
H	 0.9191546554	 2.0762208374	 0.1235202092	 0.117392
H	-0.4918877752	 1.9606838034	-0.9292091804	 0.11359
H	-0.6956510909	 1.9591123964	 0.8243718978	 0.113379
H	-1.0336058687	-0.2776615028	-0.1052368056	 0.058215
H	 1.222887209	-0.2861886143	-1.9235796142	 0.052684
H	 2.93415749	-0.994019593	 0.3476104676	 0.087705
H	 2.433383695	 0.7186120244	 0.2980732718	 0.091196
H	 0.7495487389	-0.2955851176	 2.1793097334	 0.049638
H	 0.8602117773	-3.175850294	 2.7523793893	 0.113565
H	 1.450233812	-4.094536677	 1.3630594738	 0.111546
H	 2.4085840502	-2.7561657552	 2.0099013476	 0.113117
H	-0.5533111439	-3.7108634565	-0.0472898528	 0.10093
H	-1.3835395765	-2.1113193317	-0.1394612048	 0.112103
H	 1.493292513	-2.8228581457	-1.1665683074	 0.080221
