19
gdb 63581	3.05631	1.35366	1.16	0.772	79.73	-0.2084	0.0189	0.2272	1129.1991	0.157415	-423.012356	-423.003539	-423.002594	-423.045564	33.866	
C	-0.1086134796	 1.5441041035	-0.0713280416	-0.444425
C	-0.0165508132	 0.0374439457	-0.0425907218	 0.307928
O	-1.105434186	-0.6354345727	-0.6258180625	-0.464888
C	 1.3369885858	-0.6478114926	-0.1339191795	-0.420751
C	 0.551427075	-0.6598465348	 1.1670921903	 0.403697
O	 1.0416915653	 0.1287372744	 2.2321296602	-0.314799
C	 0.7640545653	-0.5260926931	 3.4728388015	-0.1315
C	 0.0721707498	-1.8057926204	 3.091541332	-0.120566
C	-0.0443843634	-1.8713736869	 1.7684955885	-0.131295
H	 0.7009969486	 1.9963110793	 0.5046999908	 0.137218
H	-0.0535479758	 1.9176208492	-1.101376755	 0.103025
H	-1.0609023008	 1.8694590163	 0.3589421501	 0.12569
H	-1.0454433679	-0.5149742194	-1.5807033224	 0.279739
H	 1.3993626907	-1.5749919281	-0.6942070795	 0.110973
H	 2.2236979665	-0.0228803517	-0.1560966415	 0.119687
H	 1.7063956121	-0.6940763172	 4.0170173534	 0.107198
H	 0.1357036501	 0.1226885197	 4.1030907004	 0.107619
H	-0.2715235322	-2.53369793	 3.8146309265	 0.105772
H	-0.5090162905	-2.6484084313	 1.17982921	 0.119677
