17
gdb 28779	3.16908	1.7003	1.1197	1.0003	83.02	-0.1845	0.005	0.1894	1050.4125	0.138829	-380.909296	-380.901769	-380.900824	-380.941295	29.404	
N	 0.2034965063	 1.425163586	 0.042595429	-0.611202
C	 0.0285125476	 0.0239721451	-0.0183971324	 0.2043
C	-1.080093222	-0.8010548143	-0.0481474828	-0.197554
C	-0.6334174783	-2.1619915963	-0.0521149779	-0.3211
C	 0.7384177471	-2.1306220811	-0.0361295873	 0.346851
C	 1.9859079027	-2.9731675831	-0.02000854	-0.417766
C	 3.0748342716	-1.9101533129	 0.0405063274	-0.14297
C	 2.5225161335	-0.6905638549	 0.0506369456	-0.013986
N	 1.1264678565	-0.8030867366	-0.0023484457	-0.00932
H	 0.2546751063	 1.8466179067	-0.8809937522	 0.242052
H	-0.5706847187	 1.8607491747	 0.529589232	 0.244852
H	-2.1057122109	-0.4630247597	-0.0716805463	 0.081988
H	-1.2593978902	-3.0410024431	-0.0713311734	 0.091451
H	 2.0326826216	-3.6472593038	 0.8455682417	 0.130849
H	 2.0876824742	-3.6095312848	-0.9095718861	 0.128694
H	 4.1326721559	-2.1235064874	 0.0744626504	 0.10591
H	 2.9774047569	 0.2871523455	 0.097555258	 0.13695
