23
gdb 121150	3.21181	0.88019	0.76418	1.8023	86.29	-0.2227	0.0792	0.3019	1602.3951	0.20454	-388.262911	-388.253094	-388.25215	-388.298455	36.346	
C	 0.0450346725	 1.554860256	-0.0773924319	-0.381068
C	 0.002522209	 0.0384675114	 0.1286031717	-0.167099
C	-1.3608200038	-0.5764163583	-0.2111349067	-0.186708
C	-1.4078269289	-2.085139622	-0.0014118625	-0.135524
C	-1.4578008564	-2.607215524	 1.4552985263	-0.085107
O	-2.7179305414	-3.2763348442	 1.2242665784	-0.307777
C	-2.7609279272	-2.7912029768	-0.1184962825	 0.459047
C	-4.0396576906	-2.3350974627	-0.7427842276	-0.336401
C	-3.3439967407	-3.6036872974	-1.2242263072	-0.335313
H	 1.0290052155	 1.9645706178	 0.1708503618	 0.112702
H	-0.1729568934	 1.8188237483	-1.1182977868	 0.114349
H	-0.6951840386	 2.0606292276	 0.5523948341	 0.115745
H	 0.777013383	-0.4385680508	-0.4866390492	 0.095797
H	 0.2577825428	-0.1958649877	 1.1706521113	 0.099011
H	-2.1426537726	-0.1025118133	 0.3973802404	 0.099616
H	-1.6086776026	-0.3481814581	-1.2571473445	 0.093623
H	-0.6280610536	-2.5730118153	-0.5958484893	 0.077427
H	-0.6721422576	-3.3117738499	 1.7498916841	 0.102252
H	-1.5484699074	-1.8272248474	 2.2227909472	 0.097202
H	-4.9420474381	-2.455767287	-0.1528189676	 0.122742
H	-4.030117009	-1.4600377484	-1.3846942267	 0.112611
H	-2.8538495329	-3.5920852282	-2.1929961653	 0.110609
H	-3.7942279078	-4.5528791794	-0.9536083075	 0.122265
