12
gdb 23931	9.8341	0.68631	0.64154	1.0926	94.87	-0.2313	-0.0593	0.172	1600.3396	0.077543	-398.326576	-398.31905	-398.318105	-398.359201	27.221	
C	 0.1328208656	-3.7458385159	-0.0202595616	-0.601554
C	 0.0799783388	-2.5384253589	-0.0128203505	 0.255086
C	 0.0224406955	-1.1838716765	-0.004513567	 0.009389
C	-0.0359891713	 0.0289420775	 0.0030007927	 0.346147
C	-0.1188017911	 1.4215334748	 0.0118453662	 0.057088
C	-1.1565116918	 2.312501427	 0.0313818839	-0.214964
N	-0.6623031332	 3.6007011351	 0.0315182403	-0.240595
C	 0.624271461	 3.4450713189	 0.012528946	 0.058728
O	 1.0447379973	 2.1663143139	-0.0004460096	-0.16616
H	 0.1783231001	-4.8068346992	-0.0267645424	 0.198082
H	-2.2132578923	 2.1003155307	 0.0451043613	 0.141191
H	 1.3888599815	 4.2063163525	 0.0059498507	 0.157562
