15
gdb 131647	3.60584	1.1507	0.91167	1.2123	74.5	-0.2443	-0.0607	0.1836	1222.7031	0.11301	-453.912055	-453.904109	-453.903165	-453.945099	29.223	
O	 0.102547529	 1.4037963774	-0.0218611753	-0.405709
C	 0.0355315504	-0.0085669871	-0.0137912508	-0.147882
C	-1.3784444523	-0.5163184729	-0.1077648973	 0.399414
C	-1.883973441	-1.3310099907	-1.0472536275	-0.269625
C	-3.2738920246	-1.7302622636	-0.9783401717	 0.285836
N	-3.8170940792	-2.5213048476	-1.8322416795	-0.52113
C	-3.9643982686	-1.1142039104	 0.166495866	-0.019595
N	-3.4653674091	-0.3307921754	 1.0513130129	-0.060131
O	-2.1117027798	-0.0248218572	 0.9301051788	-0.296065
H	-0.41096046	 1.7220605403	 0.7287340303	 0.299682
H	 0.5971140584	-0.3624063866	-0.8814894953	 0.134455
H	 0.5045362064	-0.4310814832	 0.8892392995	 0.116471
H	-1.263790725	-1.6896958527	-1.858701221	 0.128949
H	-4.8039960314	-2.6704484442	-1.6090511196	 0.215006
H	-5.0232339733	-1.3181071861	 0.3180641104	 0.140324
