12
gdb 130911	2.2247	1.62124	0.93781	4.7286	70.84	-0.2653	-0.082	0.1833	1127.4621	0.076095	-435.447615	-435.439988	-435.439044	-435.480249	27.29	
O	-0.0696546672	 0.0240563623	-0.0012313278	-0.230762
C	 0.0079800236	 1.2248351451	 0.0067216619	 0.083078
C	 1.284232331	 1.9880193611	-0.0010119633	 0.204277
N	 2.4528290356	 1.3864192683	-0.0178062428	-0.158462
O	 3.3926025463	 2.3965231231	-0.0202598788	-0.146541
C	 2.779602577	 3.5856435007	-0.0048569643	-0.007421
C	 1.4242730681	 3.4199959595	 0.0083945672	-0.039664
C	 0.4094785303	 4.40043397	 0.0265693876	 0.23022
C	-0.4671812587	 5.2247739147	 0.0421655173	-0.419935
H	-0.8898469235	 1.8758883379	 0.0208150857	 0.102414
H	 3.4160867942	 4.4559396379	-0.0051047304	 0.177461
H	-1.2380893166	 5.9556180793	 0.0562006175	 0.205335
