17
gdb 68675	2.33887	1.90213	1.45723	3.1962	68.11	-0.2271	-0.0299	0.1972	956.8842	0.135527	-458.948189	-458.940353	-458.939409	-458.980255	30.066	
C	 0.0435317082	 1.5564693954	 0.0924130861	-0.474155
C	 0.0114420793	 0.0606646993	-0.0622521563	 0.292889
C	 0.6759609069	-0.6912929601	-1.2612967967	-0.336342
C	-0.3440366017	-1.8387615892	-1.0034581322	-0.012526
O	 0.0332221246	-2.6264078334	 0.1322887118	-0.273194
C	 0.8368033943	-1.8912680116	 1.0344249689	 0.023555
O	 0.4162167139	-0.5516185878	 1.1841044646	-0.310417
C	-1.2785399874	-0.7105788429	-0.4772337832	 0.416039
O	-2.4474268146	-0.4735490069	-0.4984248771	-0.309772
H	 1.0624385107	 1.9031277741	 0.2883821456	 0.129039
H	-0.3290294578	 2.0417917364	-0.813712011	 0.126788
H	-0.5909731795	 1.8567972374	 0.930724848	 0.146736
H	 0.4548891421	-0.1826617339	-2.2031546002	 0.125679
H	 1.7406093641	-0.9192438143	-1.2096819602	 0.124562
H	-0.6556209265	-2.5140097179	-1.7999577308	 0.104107
H	 0.7472452542	-2.3703515499	 2.0122577734	 0.130927
H	 1.8868762889	-1.9217975946	 0.7078139493	 0.096086
