15
gdb 60726	3.39662	1.1238	0.84888	3.0571	65.23	-0.2553	-0.0717	0.1835	1263.6595	0.111576	-491.162568	-491.153245	-491.152301	-491.198267	32.387	
C	 0.036947622	 1.5310665827	 0.1035124686	-0.332276
N	-0.0109497685	 0.0644717885	-0.0190285292	-0.173771
C	 0.0402085111	-0.6838398045	 1.173445414	 0.176546
O	 0.1197221637	-0.1851446182	 2.2666544696	-0.302169
C	-0.1021620258	-0.6449252582	-1.2055125945	 0.367411
O	-0.1388086997	-1.8618153918	-1.2474499717	-0.364135
C	-0.1586618962	 0.1483939476	-2.541957263	 0.310889
N	-0.2468942565	-0.7082856673	-3.5799224033	-0.502651
O	-0.1266825581	 1.3598639459	-2.6301225602	-0.357536
H	 0.9024187591	 1.9339539616	-0.4199849528	 0.154673
H	-0.8598867917	 1.9828209674	-0.3171706315	 0.154558
H	 0.1050252051	 1.7399070473	 1.1702893672	 0.162826
H	-0.0009532485	-1.7621158306	 0.9819930245	 0.145474
H	-0.2646844094	-1.6984836508	-3.3964198168	 0.286718
H	-0.2906495367	-0.3443099895	-4.5162517309	 0.273445
