23
gdb 64210	2.57969	1.19075	1.03187	1.7159	85.9	-0.2389	0.076	0.3148	1314.5292	0.204701	-388.266733	-388.257067	-388.256122	-388.301411	36.669	
C	-0.2242327225	 1.5488590591	 0.022906755	-0.445071
C	-0.0422436174	 0.0313105165	 0.013735325	 0.256642
C	-1.3552766895	-0.6837104195	-0.2876361399	-0.457028
C	 1.1937041552	-0.4195520105	-0.8048205885	-0.105456
O	 1.9526763747	-0.6806254893	 0.3907495604	-0.300522
C	 0.7737086299	-0.5400284142	 1.2206580358	 0.110557
C	 1.0140109469	 0.2660627553	 2.4592605873	 0.012813
C	 0.1021296971	 0.0824429959	 3.6520651301	-0.273115
C	 1.5181512125	-0.423465888	 3.7043843618	-0.271853
H	 0.724367588	 2.0687992367	 0.1867044163	 0.122166
H	-0.6255306072	 1.8879228438	-0.938904079	 0.110665
H	-0.922788749	 1.8631673517	 0.8056175106	 0.1179
H	-1.7591633218	-0.3746323994	-1.258602479	 0.114267
H	-1.2228574426	-1.7703443996	-0.3106897604	 0.114402
H	-2.1116546343	-0.4531383721	 0.4713871672	 0.117001
H	 1.0364532743	-1.3314088236	-1.3986938001	 0.08781
H	 1.6710287026	 0.3389488551	-1.4372098279	 0.095776
H	 0.39565671	-1.5341415301	 1.5134375821	 0.052256
H	 1.3895093057	 1.269210206	 2.2867608567	 0.084139
H	-0.1583311752	 0.9598573081	 4.2330225699	 0.112981
H	-0.6956060913	-0.6491071155	 3.573650195	 0.112027
H	 1.6786091114	-1.4952835569	 3.6562896221	 0.117793
H	 2.2338099223	 0.1063371406	 4.3225843795	 0.113851
