20
gdb 40937	3.4271	1.34308	1.19332	2.3341	79.04	-0.2433	0.0306	0.2739	1108.7574	0.173269	-403.160288	-403.152579	-403.151635	-403.192484	30.573	
C	 0.096249142	 1.3578921682	-0.5367444164	-0.218154
C	 1.395955199	 1.6489977305	 0.2627830679	-0.269511
C	 1.3656792889	 0.176754841	 0.7674523547	 0.447491
C	-0.114730178	 0.0904540424	 0.337237149	-0.284542
C	 2.3197879279	-0.7681871984	 0.0458890066	-0.283964
C	 3.7447127043	-0.5410421359	 0.5598476122	-0.163372
N	 3.822277348	-0.5194202673	 2.0169469918	-0.266176
C	 2.7592404287	-0.2691432403	 2.6532245512	 0.113467
O	 1.5195468046	 0.0265321773	 2.1873924983	-0.273849
H	-0.6860756195	 2.117517322	-0.5017400467	 0.106831
H	 0.2953885562	 1.1155374016	-1.583446053	 0.1075
H	 2.2820348825	 1.9716703968	-0.2902993032	 0.100079
H	 1.2217250086	 2.3385453597	 1.0920148544	 0.113994
H	-0.7647530124	 0.2871619322	 1.1932918728	 0.115662
H	-0.4360593946	-0.832310714	-0.1525315437	 0.099683
H	 2.013037482	-1.8012702316	 0.2501448574	 0.110259
H	 2.2558593965	-0.6153526601	-1.0365232628	 0.103111
H	 4.4145099294	-1.3265677288	 0.1938368163	 0.110444
H	 4.1492009303	 0.4050772314	 0.1735051482	 0.11134
H	 2.7486710856	-0.2715521066	 3.7420002347	 0.119708
