21
gdb 102117	2.5796	1.14978	0.92897	1.9511	78.66	-0.242	-0.0252	0.2168	1354.6847	0.180616	-424.219459	-424.209534	-424.20859	-424.255399	34.975	
C	-0.1248638325	 1.5624182921	-0.0649969792	-0.395882
C	 0.0021913365	 0.0365524803	-0.0136581799	-0.19819
C	 0.7532827978	-0.4729188318	 1.2268415796	-0.081973
C	-0.0054200038	-0.1420991027	 2.5046288569	 0.165973
O	 0.5143893665	 0.0557540887	 3.5743186827	-0.263907
C	 0.9810666687	-1.9909950567	 1.1595269668	 0.136637
C	 1.6738118383	-2.7082695442	 2.3387014481	-0.31121
C	 0.3858784789	-3.5538937893	 2.3934836822	-0.062016
O	-0.2409174651	-2.7428469071	 1.3715598573	-0.302043
H	 0.8609235101	 2.04015147	-0.076948815	 0.120451
H	-0.6632323849	 1.882554826	-0.9619117593	 0.119797
H	-0.668039042	 1.9541618004	 0.8021925397	 0.122863
H	-0.9915786734	-0.4278763232	-0.0362124718	 0.121545
H	 0.5240024275	-0.3190116845	-0.9098469324	 0.101214
H	 1.7419923452	-0.0010135046	 1.3008476921	 0.096101
H	-1.1124578585	-0.1193667981	 2.3958262174	 0.088802
H	 1.4189794695	-2.2346794298	 0.1803815968	 0.075076
H	 2.5940827749	-3.2400618228	 2.0944104627	 0.108656
H	 1.8342419965	-2.0724998388	 3.209740121	 0.141087
H	 0.4968020806	-4.595683969	 2.0683408886	 0.103646
H	-0.1773288707	-3.5300079949	 3.3325944957	 0.113374
