16
gdb 36748	7.25725	0.5841	0.5464	3.2174	80.22	-0.243	0.0152	0.2583	1892.5464	0.122386	-396.898986	-396.889141	-396.888196	-396.935304	33.867	
C	-0.4869702441	-0.5811194553	-1.0675371109	-0.46591
C	-0.2244151915	 0.3270867302	-0.3239240987	 0.286725
C	 0.1280518645	 1.4366055987	 0.5667019648	-0.260376
N	 1.4367691288	 2.055213191	 0.3900677726	-0.267003
C	 2.1990146973	 1.6615269463	-0.5480065666	 0.119841
N	 3.4038583116	 2.2682149601	-0.7948203609	-0.321345
C	 3.9065886205	 3.258001977	 0.1401525993	-0.250075
C	 5.0649276488	 3.9576450414	-0.4164424596	 0.247669
N	 5.9909770086	 4.495701165	-0.8484721062	-0.29401
H	-0.7427289687	-1.3853475785	-1.7125626841	 0.202483
H	-0.6337766754	 2.2227413032	 0.4724868223	 0.141793
H	 0.0583094509	 1.0922529922	 1.6073983962	 0.140833
H	 1.9652545252	 0.8505398028	-1.2448482017	 0.11747
H	 4.0841931628	 1.7511942689	-1.3275805879	 0.261156
H	 3.1042476569	 3.9729214824	 0.3476629005	 0.183957
H	 4.1839513339	 2.8210659646	 1.1111664807	 0.156791
