17
gdb 31498	3.25251	1.11895	0.84484	0.6081	72.53	-0.2053	0.0096	0.2149	1339.3762	0.135982	-455.18167	-455.172298	-455.171354	-455.216955	33.067	
C	 0.0627415343	 1.4695886646	 0.6722546523	-0.503588
C	 0.0135757976	 0.0736643421	 0.1803448394	 0.222918
C	-0.9459613023	-0.7296384125	-0.342289576	 0.248804
O	-2.241778126	-0.4267814804	-0.5715306813	-0.436236
N	-0.430670014	-1.9774831982	-0.6383162288	-0.398925
C	 0.8186745695	-1.8961222406	-0.2891044115	 0.376748
C	 1.8720068161	-2.9639841561	-0.3848481145	-0.279572
N	 1.4151732708	-4.2315522834	-0.936927145	-0.486638
O	 1.1687600908	-0.6959654644	 0.2130737869	-0.212334
H	 0.3536791265	 1.5240323384	 1.7280569823	 0.135486
H	 0.7714057816	 2.0822118923	 0.1023308159	 0.135487
H	-0.9295583259	 1.9155090521	 0.5703888629	 0.149287
H	-2.6476365257	-1.2168272593	-0.9467128532	 0.30361
H	 2.7043135117	-2.5859577309	-0.9920497735	 0.135351
H	 2.2918016189	-3.1367876016	 0.6142822086	 0.135353
H	 0.636976921	-4.5718501964	-0.3784112277	 0.237129
H	 1.0187759751	-4.0650019056	-1.8580431269	 0.23712
