19
gdb 44065	3.20671	1.51218	1.40172	3.2607	80.38	-0.225	-0.0047	0.2202	999.4764	0.161299	-385.825009	-385.818205	-385.817261	-385.855898	28.993	
O	-0.0043853425	 0.0051324905	 0.1965018567	-0.339335
C	 0.0325996433	 1.2045186373	 0.1269485309	 0.451579
C	-1.1249590507	 2.2146654317	 0.1785964639	-0.366002
C	-0.3088326265	 3.5246151759	 0.0151996966	 0.298907
C	-0.9627423607	 4.5367733052	-0.977883032	-0.32287
C	-0.3540050984	 3.6181483504	-2.1345969492	-0.299498
C	 0.7079254535	 3.2062683537	-1.0554881856	 0.034869
C	 1.2283621889	 2.1194323214	-0.0318049542	-0.199748
C	 0.8385517103	 3.2592711571	 1.0530064197	-0.335854
H	-1.8554342759	 2.0192588868	-0.6102945592	 0.121348
H	-1.6542582832	 2.1675326436	 1.1361034704	 0.120783
H	-2.048283453	 4.6609528128	-0.9436025183	 0.103761
H	-0.4838001546	 5.5192175738	-0.9719983355	 0.111596
H	-1.0460801373	 2.8348160876	-2.4451460537	 0.121678
H	 0.0295528315	 4.1237383931	-3.0228894185	 0.105748
H	 1.4653700853	 3.9974992208	-1.0692730189	 0.086429
H	 2.214636507	 1.6595531085	-0.070305489	 0.084306
H	 1.6018688184	 4.0384128665	 1.0910756793	 0.115659
H	 0.5836707846	 2.9189052833	 2.0618933166	 0.106645
