18
gdb 55704	2.46373	1.29192	1.0656	1.4417	79.68	-0.2424	0.0277	0.2701	1221.8592	0.144347	-401.905743	-401.896155	-401.895211	-401.940383	35.342	
C	 0.1333915085	 1.4468744019	-0.1448819893	-0.461046
C	-0.1923104116	-0.0113790907	 0.0517881504	 0.37043
N	-0.8213003956	-0.5688266977	 0.9983551636	-0.497092
O	 0.3101431355	-0.7266305426	-0.9918244507	-0.276819
C	 0.1568133917	-2.1356645355	-0.9669606768	 0.27462
C	-1.2040636007	-2.6873306523	-1.3128849997	-0.292142
C	-0.098979427	-2.7274574132	-2.3347192406	-0.322057
C	 1.0121490119	-2.8293893965	-0.0437424759	 0.332695
C	 1.747582633	-3.426270544	 0.6963604272	-0.488358
H	 1.2182355139	 1.5886268611	-0.1676539174	 0.150621
H	-0.2584072905	 1.7964751684	-1.1048459311	 0.144471
H	-0.2901547158	 2.0522573868	 0.6578739579	 0.126813
H	-1.1179993153	 0.1225884684	 1.68351165	 0.220461
H	-1.50586647	-3.605304704	-0.8239798428	 0.133704
H	-1.9912117265	-1.9547754983	-1.4410383659	 0.130416
H	-0.1361805825	-2.0173142726	-3.1527145945	 0.128119
H	 0.3745144302	-3.6746849837	-2.5617902104	 0.130384
H	 2.3834206909	-3.9468284253	 1.3685082861	 0.194779
