23
gdb 112972	4.76318	0.77567	0.71089	1.501	87.29	-0.2386	0.0884	0.327	1689.8907	0.20537	-388.270273	-388.260659	-388.259714	-388.305663	35.722	
C	-0.2761788415	 1.6636532728	-0.075961551	-0.380211
C	-0.1164526359	 0.1796215328	-0.416359294	-0.184963
C	-1.3032687929	-0.6510373506	 0.0466904582	 0.17051
C	-1.14092006	-2.1854763142	 0.04783715	-0.33856
C	-1.2420559848	-2.0650315033	 1.5865168665	 0.152929
O	-1.4609196347	-0.6334266421	 1.4894917759	-0.315982
C	-2.3607422755	-2.7830176986	 2.2794913484	 0.016679
C	-2.097464243	-4.1286129243	 2.9145991689	-0.272938
C	-2.3495101816	-2.922447628	 3.7806425411	-0.266255
H	 0.6061096638	 2.2384804553	-0.3728044117	 0.108833
H	-1.144521047	 2.0955885674	-0.5860971048	 0.111285
H	-0.4228764693	 1.7900121517	 1.0004235652	 0.136868
H	-0.0014136851	 0.0438849852	-1.5004321579	 0.09189
H	 0.7943358508	-0.2162346797	 0.050950919	 0.094318
H	-2.2212688386	-0.2892871763	-0.4384798906	 0.068784
H	-1.9603813431	-2.7402614763	-0.4131759909	 0.104699
H	-0.1909213917	-2.5583706755	-0.3407195249	 0.103393
H	-0.2968745548	-2.274467921	 2.10962819	 0.063593
H	-3.3323580594	-2.6457105784	 1.812009331	 0.081087
H	-2.8686870564	-4.8869862724	 2.8421956966	 0.112619
H	-1.0862960087	-4.5206944371	 2.871717542	 0.111252
H	-1.5084946554	-2.4981999683	 4.3191018947	 0.116395
H	-3.2946481453	-2.8517607789	 4.3068376983	 0.113774
