19
gdb 36415	3.65725	1.07431	1.00915	2.0787	79.83	-0.2546	0.0561	0.3107	1236.4129	0.159474	-385.854524	-385.846312	-385.845368	-385.88744	31.985	
C	-0.3189694608	-0.970734923	-0.5217567075	-0.447594
C	-0.1411749812	 0.2112817969	-0.389151457	 0.295598
C	 0.1068922408	 1.637775412	-0.2174611949	-0.360591
C	 1.547290713	 1.9505343963	 0.2579028632	 0.003746
C	 2.6205450633	 1.5447426377	-0.793166215	-0.254027
C	 2.9427363981	 2.8240759477	-1.5362589203	 0.055869
O	 1.7811758687	 3.5424301901	-1.9856246297	-0.257025
C	 2.4308671577	 3.9713563418	-0.7783347908	 0.057906
C	 1.7548482521	 3.4765190625	 0.4838749906	-0.270054
H	-0.492815381	-2.0109552218	-0.6433333951	 0.192036
H	-0.0763637587	 2.1665574737	-1.1587797502	 0.15402
H	-0.6044809714	 2.0407167736	 0.5150597405	 0.121598
H	 1.7096512405	 1.4038831697	 1.1903158023	 0.085593
H	 3.533400509	 1.1831683325	-0.3049520329	 0.101806
H	 2.2664118344	 0.7444744296	-1.4495391755	 0.124445
H	 3.8065908176	 2.887094738	-2.1935026579	 0.092983
H	 2.8806745596	 4.9603433025	-0.8205312663	 0.093027
H	 0.8139723806	 3.9984894129	 0.6887494852	 0.10836
H	 2.4197339578	 3.6611466872	 1.3360833711	 0.102303
