18
gdb 55528	4.32355	0.88815	0.78554	3.6155	75.78	-0.2599	-0.0186	0.2414	1479.0343	0.146163	-439.12129	-439.111982	-439.111037	-439.15653	33.136	
C	-0.4408383305	 1.4342316766	 0.3764934151	-0.442517
C	 0.1355719362	 0.0531900456	 0.2908277682	 0.396101
N	 1.3451809012	-0.219750318	 0.4913714966	-0.484062
O	-0.911545761	-0.832776698	-0.0454423375	-0.278073
C	-0.7411660729	-2.1765261209	-0.2066636998	 0.466349
O	 0.3058057386	-2.7659896308	-0.0843920688	-0.366178
C	-2.0328057676	-2.813184596	-0.5552786051	-0.13105
C	-1.9816727936	-4.0148928527	-1.4870570263	-0.249786
C	-2.2684676239	-4.2253449628	-0.0404040053	-0.249786
H	 0.3499031552	 2.1366166363	 0.6367682183	 0.152204
H	-0.8906003616	 1.7195416336	-0.5798502038	 0.140871
H	-1.2329336639	 1.4706416588	 1.1311430233	 0.14083
H	 1.527979726	-1.2161071868	 0.3831317105	 0.259358
H	-2.8789029373	-2.1428310137	-0.6255358773	 0.10792
H	-2.7887529701	-4.1083416441	-2.2040858905	 0.125403
H	-0.99907314	-4.291953545	-1.8502364315	 0.143504
H	-1.4794050936	-4.6444140762	 0.5727237211	 0.143513
H	-3.2787265013	-4.4679280459	 0.2674455926	 0.125399
