21
gdb 106780	2.11149	1.57461	1.15747	1.8071	79.6	-0.2256	0.0832	0.3087	1187.5017	0.179461	-424.184067	-424.174183	-424.173239	-424.218522	36.502	
C	 0.2976774122	 1.3307776862	 0.3134961108	-0.254363
O	-0.1529139335	 0.031767124	-0.0429487691	-0.278802
C	 0.4945918622	-0.5018933997	-1.1321730653	 0.302846
C	 1.929076259	-0.9985590258	-1.1022950295	-0.405714
C	 0.7977985264	-1.9389873169	-1.4558610882	 0.378606
C	 0.500979954	-3.255454267	-0.8185991451	-0.486968
O	 0.4471414931	-1.760268989	-2.8370998335	-0.339515
C	 0.029220175	-0.3802616342	-2.5893803507	 0.070792
C	-1.4622105618	-0.2085030203	-2.7899603552	-0.396993
H	 1.3737874265	 1.3331642952	 0.5323542898	 0.115563
H	 0.1003341483	 2.062514059	-0.4820560163	 0.112653
H	-0.2545333374	 1.6235147292	 1.2090741279	 0.129063
H	 2.6508889761	-0.7023346395	-1.8593256007	 0.10858
H	 2.3251006508	-1.1261776713	-0.0987576688	 0.114599
H	 0.6946687927	-3.2082408725	 0.2565546186	 0.128895
H	-0.5454601849	-3.5347577308	-0.9739053851	 0.129374
H	 1.1324660349	-4.0429275239	-1.2448973879	 0.13063
H	 0.5974269046	 0.3120143986	-3.2244791298	 0.073509
H	-2.0228641316	-0.8704541406	-2.1247792232	 0.127885
H	-1.7620168661	 0.8240904928	-2.5815663488	 0.115224
H	-1.7276633204	-0.4419503636	-3.82527249	 0.124134
