18
gdb 108443	2.24722	1.71645	1.18984	1.2772	72.47	-0.2175	-0.031	0.1865	1079.6085	0.146789	-439.04902	-439.040402	-439.039458	-439.0826	31.731	
C	 0.1937740451	 1.5534669117	-0.0358660529	-0.343611
N	 0.038341159	 0.0925344648	-0.0094736288	-0.367469
C	 0.5865304709	-0.5198507816	 1.1641951734	 0.188489
C	 2.1277520328	-0.4658694615	 1.3191950788	-0.108745
O	 2.2224355728	-1.8873476708	 1.5485448426	-0.283605
C	 0.8033304545	-2.0613851101	 1.4040393756	 0.038979
C	 0.0650226399	-1.9977146022	 2.7625932634	-0.364733
C	-0.1655919998	-0.4877851409	 2.5176848094	 0.327333
O	-0.8315399588	 0.3469121065	 3.0620512645	-0.298918
H	 1.2593244387	 1.8044220425	-0.0636839133	 0.128516
H	-0.2591089332	 1.9399524995	-0.952789288	 0.124183
H	-0.2582110158	 2.0634321324	 0.8258511501	 0.134441
H	-0.9497433188	-0.1324120202	-0.0801202253	 0.224348
H	 2.6165148942	-0.1817891657	 0.3803141111	 0.119444
H	 2.5359453062	 0.1251950012	 2.1462416995	 0.11405
H	 0.5307574549	-2.8405240957	 0.6906102928	 0.092685
H	-0.879847457	-2.5510177964	 2.7962045675	 0.133474
H	 0.6697819544	-2.2640029435	 3.6321800598	 0.141138
