16
gdb 29321	3.36117	1.27369	0.93005	2.4227	85.22	-0.1897	-0.0042	0.1855	1216.7041	0.123315	-400.751094	-400.742151	-400.741207	-400.784381	33.372	
C	-0.0468833476	 1.5249190924	-0.0100201763	-0.516559
C	-0.0144682164	 0.0295816769	 0.0000171986	 0.246727
C	-0.0135949431	-0.8230022466	-1.0626346865	-0.132897
O	 0.0044921567	-2.1154267806	-0.6784357306	-0.189187
C	 0.0252974705	-2.1166253001	 0.702974724	 0.205446
C	 0.0539706368	-3.3306267255	 1.3969380126	 0.218146
C	 0.0896916884	-4.3511483864	 2.0414848634	-0.425343
C	 0.0077757152	-0.8175311025	 1.1593759592	 0.000129
N	-0.0605116698	-0.3899037648	 2.479572527	-0.620927
H	 0.8498301959	 1.9566939784	 0.4528546583	 0.123815
H	-0.1034955095	 1.9105761545	-1.0312925632	 0.130663
H	-0.9116279095	 1.9091451662	 0.543305822	 0.138521
H	-0.02726528	-0.6489681782	-2.1271863666	 0.132677
H	 0.1063241283	-5.2551378332	 2.5976173888	 0.18704
H	 0.1782632838	-1.1120888787	 3.14676197	 0.253651
H	 0.4567598103	 0.4585070082	 2.6657641294	 0.248098
