15
gdb 31889	3.95801	1.01411	0.84707	3.7208	77.09	-0.2612	-0.0534	0.2079	1324.3455	0.113488	-416.864185	-416.856024	-416.85508	-416.898022	28.808	
C	-0.1145232169	 1.5008412781	 0.3726652271	-0.384403
C	-0.0916991698	 0.0286990386	-0.075525507	-0.298222
C	-1.4495783468	-0.5740526964	-0.1639262909	 0.398861
N	-2.0738664389	-1.0195347946	-1.2163079633	-0.290782
C	-3.2940347977	-1.4553831284	-0.7483648104	-0.180529
C	-3.3564689781	-1.2491934438	 0.596734475	 0.219571
O	-2.167019169	-0.6798311804	 0.9816909185	-0.197632
C	-4.3402157533	-1.4982651819	 1.5727330257	 0.222512
N	-5.1643845121	-1.7124689721	 2.3583808091	-0.329848
H	 0.9050061928	 1.8904278737	 0.4319964286	 0.129098
H	-0.6754092775	 2.1169712618	-0.3357151934	 0.135805
H	-0.5778034141	 1.6036008594	 1.3573800341	 0.140513
H	 0.36325924	-0.0713294251	-1.0633796184	 0.145088
H	 0.5100848007	-0.5600656931	 0.6269634315	 0.135993
H	-4.0433944593	-1.8845697158	-1.3939464062	 0.153976
