19
gdb 65348	3.18532	1.00169	0.97417	4.2114	82.47	-0.2538	0.0368	0.2906	1314.9563	0.158618	-382.042937	-382.033877	-382.032933	-382.076912	33.621	
C	-0.0522322108	 1.5382740873	-0.0116114961	-0.459971
C	-0.0044176584	 0.0187225128	 0.0070718314	 0.12911
C	 1.3315212852	-0.6934481988	-0.1912492015	-0.33463
C	 0.6845533261	-0.7190973403	 1.1589167164	 0.019646
N	 1.2634274952	 0.076480769	 2.1984302511	-0.068882
C	 0.6349547284	-0.0110627644	 3.515919205	-0.224851
C	 1.9530930722	-0.6538991982	 3.262147475	-0.222044
C	-1.1670369465	-0.6353142359	-0.5395530629	 0.239299
N	-2.1060737499	-1.1561605323	-0.9714576584	-0.349514
H	 0.8202142912	 1.9393166553	 0.5054193191	 0.14495
H	-0.0645145352	 1.9102575232	-1.0401635025	 0.132576
H	-0.9498549522	 1.9057203975	 0.4942334566	 0.134175
H	 1.3484587992	-1.6031030371	-0.7790764234	 0.136569
H	 2.1908907944	-0.0432803394	-0.3089867255	 0.133293
H	 0.2133289496	-1.6578672081	 1.4601860694	 0.098255
H	 0.5728763415	 0.9218721574	 4.0677416116	 0.125165
H	-0.2279014809	-0.6652511563	 3.6243444793	 0.122875
H	 1.9754034235	-1.7401515163	 3.2007924146	 0.119313
H	 2.8697868573	-0.1980756152	 3.6240176907	 0.124666
