19
gdb 68176	4.12486	1.11954	1.02335	0.9578	92.39	-0.2132	-0.0225	0.1908	1226.8866	0.158837	-348.703385	-348.695234	-348.69429	-348.73561	32.891	
C	 0.0114432885	 1.5511632551	 0.0220426323	-0.505741
C	 0.0254717945	 0.0400410725	 0.0277399281	 0.304878
C	 0.9523891744	-0.8160016311	-0.9154478415	-0.244001
C	 0.5894194519	-1.9348467965	 0.1126173407	-0.128344
C	 0.652840724	-0.8108229224	 1.1956682109	-0.244003
C	-0.9406711178	-2.0170742482	-0.1042301723	 0.272743
C	-1.2948236635	-0.7198521067	-0.1577812137	-0.256197
C	-1.6987389238	-3.1950739728	-0.2088468702	 0.072478
C	-2.311667962	-4.2307931998	-0.2932494081	-0.365044
H	 1.0183396921	 1.9563911513	 0.1639035033	 0.115485
H	-0.3744123078	 1.939896465	-0.9271143804	 0.119965
H	-0.6229299664	 1.9441929707	 0.82453598	 0.119966
H	 0.630404485	-0.9541835185	-1.9504246629	 0.096511
H	 2.0032573741	-0.5107187338	-0.870381355	 0.091961
H	 1.1417209733	-2.8692104901	 0.1932777863	 0.071158
H	 1.6749791263	-0.5050584724	 1.4432437571	 0.09196
H	 0.0555591937	-0.9442401738	 2.1008754649	 0.096511
H	-2.2739237578	-0.2834966176	-0.2978307685	 0.108188
H	-2.8640047487	-5.1340090106	-0.3694016011	 0.181525
