16
gdb 15974	2.88194	2.04665	1.37182	1.8693	65.79	-0.2374	-0.0313	0.2061	898.4689	0.130505	-379.869087	-379.861489	-379.860545	-379.90159	27.549	
O	-0.4983236674	 1.4686840782	 1.0063950517	-0.2597
C	 0.2138704742	 1.0375055865	 0.1334272789	 0.149962
C	 1.5432264821	 1.6554044748	-0.2328067295	-0.135587
N	 2.3210537034	 0.9192711542	-1.2515126347	-0.332566
C	 2.5326554814	 2.1486645987	-2.0660215918	-0.229481
C	 1.4595566579	 2.841821611	-1.2257797645	 0.332519
C	 0.2595775003	 3.6063112071	-1.6260167782	-0.300797
N	 1.3909269544	 4.2538176064	-0.9256053155	-0.357278
H	-0.0793566807	 0.1794497005	-0.5115067301	 0.089013
H	 2.0824032521	 1.9326753917	 0.6843782854	 0.092263
H	 3.1691910451	 0.4851525379	-0.9073571683	 0.227285
H	 3.5157940714	 2.6213501143	-1.9446776206	 0.108884
H	 2.3279797974	 2.014598717	-3.1333095152	 0.113457
H	 0.131038098	 3.9092946828	-2.6615647334	 0.124224
H	-0.6618164265	 3.4358318929	-1.0759910921	 0.135668
H	 1.1607810469	 4.400864556	 0.0548941577	 0.242134
