23
gdb 92174	2.52339	1.78015	1.57641	0.0791	87.56	-0.2592	0.0847	0.3439	1013.9182	0.209675	-351.140924	-351.1336	-351.132656	-351.172026	31.528	
C	-0.3553349162	 1.510268424	 0.0672772162	-0.414538
C	 0.0316377875	 0.0274503308	-0.0170318177	 0.045331
C	 0.769459293	-0.3816080526	-1.3307220683	-0.231882
C	 2.2675150138	-0.5839261036	-1.0643279667	-0.020938
C	 2.8355088312	 0.6421467104	-0.2952375684	-0.239458
C	 2.4334664918	-0.0956297937	 0.9940306331	-0.018271
C	 2.5156207893	-1.4552558007	 0.2347110029	-0.010926
C	 1.2502836382	-1.9460816023	 0.9523208252	-0.251781
C	 0.8943915768	-0.4444998114	 1.1656962224	-0.02445
H	 0.5130315	 2.1732296298	 0.0967751995	 0.121802
H	-0.9684109334	 1.8036568432	-0.7919143181	 0.108757
H	-0.9421147058	 1.7009283299	 0.9731298762	 0.107865
H	-0.9074584409	-0.5399770037	 0.030706275	 0.067243
H	 0.3403825609	-1.3075057022	-1.7294175891	 0.0943
H	 0.6307857554	 0.3819864899	-2.1053465642	 0.090511
H	 2.7949479641	-0.8988318383	-1.9680348608	 0.055447
H	 3.9276373236	 0.687879613	-0.3638792377	 0.092337
H	 2.4332942956	 1.6317179199	-0.5279426704	 0.088029
H	 2.9599107514	 0.0951361357	 1.9310418285	 0.055265
H	 3.4187724839	-2.0676241547	 0.206460629	 0.054945
H	 0.5260352303	-2.5677100971	 0.4140112457	 0.084802
H	 1.5121130005	-2.4452217558	 1.8905165365	 0.092088
H	 0.4452059093	-0.1685373507	 2.1234199409	 0.053523
