20
gdb 116117	2.70628	1.15245	0.84962	4.2974	77.16	-0.2521	0.0256	0.2777	1351.12	0.172173	-440.301343	-440.292422	-440.291478	-440.335265	33.321	
O	-0.0551444164	 1.4399068022	 0.0073099755	-0.420845
C	 0.0389572515	 0.0245615937	 0.0115267132	-0.097592
C	-1.3751554077	-0.5457259144	 0.0091148886	 0.014234
C	-1.3808363516	-2.0751623919	-0.0607752195	-0.229335
C	-2.8173760888	-2.5806231439	-0.0732232039	-0.080346
O	-3.6007814797	-2.0985788466	 1.0270064313	-0.254066
C	-3.5179030785	-0.7744446171	 1.3731861272	 0.362545
N	-4.5083683636	-0.1651178509	 1.8732649354	-0.499385
C	-2.1653478858	-0.1129826551	 1.2531064279	-0.255489
H	 0.831437781	 1.8049704121	 0.0766398762	 0.290187
H	 0.5830005914	-0.3418324713	-0.8744267652	 0.085325
H	 0.578624719	-0.3383525089	 0.9026631747	 0.084888
H	-1.8814581293	-0.1520798124	-0.8836098071	 0.08972
H	-0.8717391609	-2.4373645065	-0.9616514114	 0.102381
H	-0.8504756941	-2.4923540853	 0.8052578688	 0.106208
H	-3.3101622172	-2.2835600613	-1.0104264936	 0.106605
H	-2.8620817841	-3.670183943	-0.0012234637	 0.116703
H	-5.3160342514	-0.7919549165	 1.9059850809	 0.215144
H	-1.5876667166	-0.3968923842	 2.1455672251	 0.115729
H	-2.3030351772	 0.9666433112	 1.2903504397	 0.147389
