25
gdb 72536	2.40044	1.54188	1.54169	0.1092	90.29	-0.2749	0.0668	0.3417	1097.7463	0.233271	-352.399813	-352.391446	-352.390502	-352.432686	34.444	
C	-0.0188011999	 1.5638291942	 0.0107716834	-0.44952
C	 0.001418254	 0.0341164963	 0.0020760999	 0.295592
C	 0.7199448082	-0.4952185043	-1.2599130234	-0.210869
C	 0.7423567317	-2.0509461469	-1.2702325505	-0.214538
C	 0.0372291256	-2.5879285	-0.0121735151	 0.011774
C	 0.7657535024	-2.0643952816	 1.237890638	-0.214613
C	 0.7432085855	-0.5085726762	 1.244542171	-0.210711
C	-1.4178144091	-2.0875324001	 0.0043554	-0.214634
C	-1.4369112307	-0.5314119805	 0.0126758613	-0.21104
H	 0.9976276517	 1.974003122	 0.0010271082	 0.105228
H	-0.5452265699	 1.9588915233	-0.8656772356	 0.105194
H	-0.524056991	 1.9487481023	 0.9040474463	 0.105186
H	 0.2121245993	-0.1092181656	-2.1516040964	 0.086644
H	 1.739277481	-0.0926000018	-1.2890467931	 0.086634
H	 0.2446171232	-2.4386921226	-2.1659772526	 0.088587
H	 1.7725337333	-2.4226482115	-1.3029799624	 0.088605
H	 0.0521700885	-3.6834838729	-0.0181179371	 0.051462
H	 0.2850516942	-2.4620910342	 2.1385322261	 0.088603
H	 1.7963350598	-2.4362275322	 1.246900769	 0.088593
H	 1.7628395155	-0.1059960472	 1.2588283491	 0.086623
H	 0.2518262369	-0.1316685334	 2.1491555338	 0.086637
H	-1.9517519564	-2.4761287297	-0.8698982572	 0.088626
H	-1.9344613594	-2.4850513402	 0.8849970594	 0.088626
H	-1.9646948034	-0.1551034578	 0.8968987712	 0.086655
H	-1.981656791	-0.1459417296	-0.857126213	 0.086658
