21
gdb 76656	2.66392	1.04078	0.96006	1.9331	79.96	-0.2585	0.0167	0.2752	1382.9295	0.179527	-424.256732	-424.246083	-424.245139	-424.293677	37.221	
C	 0.1516450251	 1.431579676	 0.3506381203	-0.411435
C	 0.1723596775	-0.044160816	 0.0170204569	-0.047743
C	 0.7168353636	-0.5829376331	-1.3014761277	-0.076758
C	 1.2705374392	 0.3128734626	-2.3894145107	-0.404213
C	 1.4612228743	-0.8257877783	-0.0199558838	 0.109045
O	 2.6788534219	-0.1144230779	 0.1254674199	-0.24388
C	 3.3114011584	-0.2432025728	 1.3180705005	 0.430618
C	 4.5907405654	 0.5587327721	 1.3204022438	-0.481527
O	 2.9005547659	-0.9155614724	 2.2274380319	-0.346292
H	 1.0608586028	 1.9396081271	 0.0230788795	 0.123267
H	-0.7015966737	 1.9292145041	-0.1222532909	 0.118002
H	 0.0651411767	 1.5773095657	 1.4326897792	 0.125123
H	-0.6714776799	-0.5957062249	 0.4241751344	 0.089583
H	 0.1958693586	-1.457101439	-1.6844985448	 0.088399
H	 1.8707149124	 1.1301352111	-1.9861671091	 0.128292
H	 1.9136817448	-0.2596941894	-3.0662688962	 0.119387
H	 0.4612612001	 0.7462698163	-2.9866347043	 0.117146
H	 1.5024809298	-1.8137081219	 0.4219241737	 0.116391
H	 4.370167004	 1.6179464178	 1.1595591837	 0.148317
H	 5.0985905789	 0.4269138709	 2.2749098176	 0.14832
H	 5.2398479141	 0.2342212821	 0.502387596	 0.149959
