15
gdb 49462	2.99027	1.26463	1.1388	4.3389	65.89	-0.2586	-0.0384	0.2203	1084.5566	0.112543	-457.795809	-457.788369	-457.787424	-457.828356	27.6	
O	 0.3116969912	-0.1405578298	 0.5804254224	-0.261528
C	 0.1629534799	 0.9839289499	 0.1683392302	 0.155486
C	 1.2893843363	 1.94036867	 0.015432945	-0.154586
C	 1.4320195565	 2.9039715302	-1.1779317762	-0.107846
C	 0.2206917171	 3.2233499334	-2.0268386732	-0.385807
C	-0.7750265864	 3.8611617461	-1.0511838179	 0.423553
O	-1.890132137	 4.2266100538	-1.2574439938	-0.313248
O	-0.195754859	 3.9489732639	 0.1942507359	-0.211792
C	 1.1197294994	 3.4412167424	 0.1780326647	 0.066749
H	-0.8437360414	 1.3558106339	-0.1127863237	 0.09694
H	 2.2302108588	 1.5414245276	 0.3803603307	 0.123452
H	 2.4211006932	 2.9929386814	-1.6079440173	 0.122949
H	 0.4635868568	 3.9536599276	-2.8048012737	 0.154975
H	-0.2532288131	 2.3726784562	-2.5223531163	 0.157402
H	 1.7954532077	 4.0091569435	 0.8043384734	 0.133301
