16
gdb 80041	3.21039	1.36407	1.21182	3.1874	70.98	-0.2389	-0.0093	0.2295	1041.4644	0.124218	-437.846912	-437.839326	-437.838382	-437.879046	29.141	
O	 0.1021348041	 1.289726257	-0.1165381882	-0.420046
C	-0.007497099	-0.0800327092	 0.0874116684	 0.1537
C	-0.0795357958	-0.7131584395	 1.5493152932	-0.13881
C	-1.223633842	 0.1067393553	 2.1536026826	-0.057731
C	-2.1309281868	 0.1251852957	 1.1746085141	-0.059362
C	-1.4496394786	-0.6903822145	 0.0650266647	-0.130267
N	-0.8637167275	-1.8046998777	 0.8878883247	-0.033661
C	-0.3476050263	-2.9816698128	 0.4301900778	 0.129413
O	 0.6133019711	-3.5534402157	 0.9010832083	-0.330424
H	 1.0315546229	 1.5109690922	-0.229562966	 0.293314
H	 0.6818853563	-0.6549413685	-0.5446705116	 0.093916
H	 0.7900211103	-1.0035272163	 2.1321360271	 0.105387
H	-1.2402721735	 0.556172914	 3.134686827	 0.116899
H	-3.1033764515	 0.5898964072	 1.1214434542	 0.117667
H	-1.9837966223	-0.9438814793	-0.8491232357	 0.088883
H	-0.9640909213	-3.402065178	-0.3915937207	 0.071123
