23
gdb 81645	3.4125	1.19294	1.12866	0.25	91.52	-0.2196	0.0274	0.2469	1244.465	0.207417	-351.166659	-351.15818	-351.157236	-351.199019	34.463	
C	-0.1219000243	 1.5093290048	 0.015355295	-0.427463
C	 0.0228618248	-0.0081218789	 0.0130516731	 0.053894
C	 0.8409996279	-0.6022788193	-1.1784860589	-0.020239
C	 2.1160451764	-0.4183042699	-0.3055790416	-0.228711
C	 1.1630019048	-0.5951234642	 0.9164986804	-0.053306
C	 0.9039100466	-2.0758409493	 1.0916059217	-0.168883
C	 0.5960333336	-2.8084893003	 0.0164393247	 0.324043
C	 0.3192365177	-4.2830519621	 0.0473657675	-0.480486
C	 0.523578881	-2.100330309	-1.3272801888	-0.304493
H	 0.831882363	 2.022789002	-0.1423908439	 0.114122
H	-0.804785751	 1.8341896462	-0.7782467907	 0.111487
H	-0.5318497853	 1.8610666748	 0.9687348112	 0.112003
H	-0.9573888449	-0.4690101766	 0.1758214927	 0.059172
H	 0.7919144414	-0.0832915979	-2.1404704952	 0.05176
H	 2.9223706196	-1.1476879974	-0.415495077	 0.088892
H	 2.5255989979	 0.5908504326	-0.3817704717	 0.09399
H	 1.4016216222	-0.0851890403	 1.8523295	 0.04969
H	 0.9715485438	-2.522311179	 2.0801142452	 0.07394
H	 0.3963002289	-4.6861700093	 1.0611186132	 0.117874
H	-0.6859574809	-4.5090332677	-0.3326919629	 0.118647
H	 1.0212665238	-4.8345176696	-0.5921760346	 0.11868
H	-0.4770106587	-2.2352413757	-1.764783532	 0.09792
H	 1.2218043317	-2.5717248842	-2.0351311674	 0.097469
