25
gdb 116160	3.07885	0.97346	0.78559	1.2336	89.75	-0.2418	0.0875	0.3293	1563.9678	0.229703	-389.519439	-389.509651	-389.508707	-389.553841	37.698	
C	-0.1012800102	 1.5785957694	 0.0968346352	-0.391025
C	-0.0026077002	 0.0521102367	 0.0095346655	-0.181643
C	 0.7438085744	-0.4740261928	-1.2260924737	 0.029966
C	 2.2300537854	-0.0809215325	-1.2572211588	-0.201949
C	 2.9345165056	-0.7255387871	-2.4531732868	-0.079442
O	 2.7896731479	-2.1338401149	-2.4621553238	-0.257161
C	 1.4287285406	-2.5466505836	-2.5327357806	 0.13291
C	 1.4289094566	-4.0663022085	-2.6117099445	-0.40066
C	 0.6351298399	-2.0043353284	-1.3377010118	-0.200304
H	 0.8828646558	 2.0482509219	 0.1895165342	 0.11857
H	-0.5848982733	 1.9951267199	-0.7941498333	 0.112363
H	-0.6915554156	 1.8832074829	 0.9667107551	 0.112055
H	 0.4856911326	-0.3374837764	 0.9134540863	 0.092985
H	-1.0156117334	-0.3715438152	 0.0082698761	 0.089958
H	 0.2652521231	-0.0398357994	-2.1188044333	 0.062912
H	 2.3534443298	 1.0065872285	-1.310582806	 0.09226
H	 2.7170147329	-0.4194428837	-0.332805778	 0.09757
H	 2.5361073249	-0.2995555124	-3.3915524474	 0.079504
H	 4.0109767871	-0.5297781311	-2.4305619775	 0.101398
H	 0.9841630312	-2.1358520251	-3.4588131776	 0.055795
H	 1.8718227319	-4.4945220028	-1.7069885738	 0.120964
H	 0.4081495987	-4.4472185672	-2.7128640158	 0.110464
H	 2.0146623303	-4.4033780651	-3.4711506859	 0.120681
H	 1.0257998248	-2.4681065012	-0.4212952789	 0.094132
H	-0.4159079106	-2.3054729917	-1.4286939049	 0.087698
