18
gdb 126223	3.06147	1.21211	0.91844	3.5975	76.48	-0.2113	0.015	0.2263	1284.5007	0.148257	-435.266431	-435.257053	-435.256109	-435.300847	34.319	
C	 0.2342913818	 1.6074697513	-0.2226749733	-0.370627
C	-0.1151311839	 0.1511980539	 0.1285129932	-0.303078
C	 0.5504774219	-0.3277593297	 1.3735196621	 0.418568
C	 0.0830184811	-0.8669402266	 2.5330127903	-0.051062
N	-1.2121099746	-1.2341989378	 2.9581336247	-0.626897
C	 1.2691314996	-1.0995075876	 3.2999262644	 0.403974
N	 1.2828235783	-1.5933337817	 4.5932702429	-0.595048
N	 2.3537138254	-0.7317213386	 2.6594917985	-0.246148
O	 1.898557221	-0.2468663306	 1.4224980349	-0.242948
H	 1.3128369797	 1.7232764233	-0.3529319075	 0.144552
H	-0.2600680201	 1.9075641136	-1.1510648601	 0.113988
H	-0.0832655807	 2.2890707231	 0.5720166235	 0.122437
H	-1.1987361604	 0.046171516	 0.257698457	 0.099335
H	 0.1607497662	-0.5011905798	-0.7102462795	 0.126785
H	-1.8928564781	-1.1669805292	 2.2112518868	 0.242314
H	-1.5336478961	-0.6597692536	 3.7316724226	 0.249132
H	 0.5713392296	-2.2979900308	 4.7419008591	 0.256622
H	 2.1969757694	-1.9120123552	 4.8862250605	 0.258099
