19
gdb 74747	3.34134	1.54648	1.40803	2.0744	78.11	-0.2238	0.0129	0.2367	996.1302	0.161488	-385.875833	-385.868853	-385.867909	-385.906849	29.125	
C	-0.0178552341	 1.4853431594	 0.0498878932	-0.51245
C	-0.037900385	-0.0053910381	-0.0142772968	 0.353169
C	-0.0554895166	-0.8118399814	-1.0844045749	-0.190923
C	 0.011299711	-2.2618143695	-0.5868180665	-0.113255
C	-0.8054050314	-2.119244945	 0.7231775783	-0.212046
C	 0.0359722331	-0.9203741859	 1.226245041	-0.167431
C	 1.4631105867	-1.5255695511	 1.1574461061	 0.054839
O	 1.5514262771	-2.9537916264	 1.3085470961	-0.266849
C	 1.4469669291	-2.3944254995	-0.0134085596	 0.059562
H	 0.8949383433	 1.8541440856	 0.5358853972	 0.127013
H	-0.0708910218	 1.9303296147	-0.9478519621	 0.125419
H	-0.858748455	 1.8711293731	 0.6403207442	 0.127466
H	-0.0476645226	-0.5122335914	-2.1250674226	 0.091166
H	-0.2954239919	-3.0337860343	-1.2924124664	 0.063115
H	-1.8406125381	-1.8365909742	 0.526530645	 0.093058
H	-0.759140204	-2.9932555975	 1.3718098916	 0.115505
H	-0.2441916914	-0.4638476424	 2.176517929	 0.061038
H	 2.3315292775	-0.96038084	 1.4827370227	 0.096169
H	 2.301714394	-2.5498392661	-0.6649188754	 0.095437
