16
gdb 51591	5.83502	0.63943	0.62422	3.0298	71.21	-0.266	-0.0409	0.2251	1706.8346	0.121686	-437.880849	-437.871532	-437.870588	-437.917109	31.487	
O	-0.7402216129	 0.5560021669	 0.2746171519	-0.228002
C	-0.0639312242	 1.5479664976	 0.2100834944	 0.160051
C	 1.3537280857	 1.5804369233	-0.3432162833	-0.317624
C	 1.5031742176	 2.6565960257	-1.3977896546	 0.037876
O	 1.5013760186	 4.0199451464	-0.9497267781	-0.243851
C	 2.6811839432	 3.5227361813	-1.5719582708	 0.064079
C	 3.9339705573	 3.426135121	-0.7157241809	-0.373603
C	 4.6398064094	 4.7057042725	-0.6385262958	 0.265943
N	 5.1975003322	 5.7160071845	-0.5919598935	-0.291606
H	-0.4378453472	 2.5330496577	 0.5645241055	 0.103852
H	 2.0254098051	 1.7772336111	 0.5005042854	 0.126058
H	 1.5881837903	 0.5943842459	-0.7553125493	 0.134068
H	 0.8934260698	 2.4919623152	-2.2880087457	 0.116169
H	 2.862887573	 3.9240706968	-2.5694557371	 0.121246
H	 3.6847948841	 3.1033213827	 0.2982377095	 0.161719
H	 4.6140499581	 2.6794941813	-1.1435424777	 0.163626
