16
gdb 29396	5.51334	0.98373	0.83912	0.6822	76.57	-0.2043	-0.0099	0.1943	1325.214	0.126071	-434.148287	-434.140072	-434.139128	-434.181352	30.08	
C	-0.0645925628	 1.5110580159	 0.0726107212	-0.48864
C	 0.0110985695	 0.0227749195	-0.0220493527	 0.281935
C	 0.2430198847	-0.7537473041	-1.1272741319	-0.18717
N	 0.2137594105	-2.0648118832	-0.6845602854	-0.28397
C	-0.0310265512	-2.0050883369	 0.6459073242	 0.478724
N	-0.1326453305	-3.139246661	 1.4481993045	-0.392189
C	-0.0040621883	-4.4250379497	 1.0197336294	 0.151448
O	 0.2186290606	-4.75550756	-0.1309410415	-0.33522
N	-0.1607488457	-0.7799691499	 1.0938662622	-0.398425
H	 0.0961480325	 1.9737380596	-0.9048424974	 0.117913
H	-1.0419461005	 1.8344187854	 0.4472264316	 0.131411
H	 0.6896803759	 1.9022457496	 0.764104868	 0.131422
H	 0.4216015428	-0.5091647396	-2.1607426824	 0.127148
H	 0.3392247172	-2.9322072581	-1.1855340135	 0.288411
H	-0.3176054747	-2.951387888	 2.4222555119	 0.276744
H	-0.12550305	-5.1505640895	 1.8424750218	 0.10046
