19
gdb 67970	2.22822	1.74035	1.27451	3.2186	74.46	-0.236	-0.0215	0.2145	1050.3663	0.159167	-423.051217	-423.043084	-423.04214	-423.083882	32.086	
O	-0.0172751839	 1.4945283568	 0.2175418266	-0.488322
C	 0.0147095386	 0.0980728696	 0.0251892681	 0.414307
C	 0.3094345154	-0.3628549841	-1.4439299841	-0.419974
C	-1.0535466717	-1.0693505385	-1.4451936803	 0.416857
O	-1.608705872	-1.7989377293	-2.2160477833	-0.305827
C	-1.414550908	-0.5450905594	-0.0456991075	-0.172595
C	-1.482761306	-1.6248464752	 1.0463672658	-0.220972
C	-0.0054604978	-2.0102525937	 1.2750761247	-0.223474
C	 0.7550666899	-0.6768327661	 1.131691894	-0.279491
H	 0.8893610148	 1.8199909594	 0.2148704717	 0.277991
H	 0.3350646115	 0.4829950261	-2.1387031604	 0.133462
H	 1.1785523672	-1.003335286	-1.6234977344	 0.120417
H	-2.2492166576	 0.1598909266	-0.0434159461	 0.105515
H	-1.9090342514	-1.1957281172	 1.9598926526	 0.107596
H	-2.1086014436	-2.4720564874	 0.7528279811	 0.118161
H	 0.1650844734	-2.4907278268	 2.2419174434	 0.103898
H	 0.319810033	-2.7193658305	 0.5041019179	 0.112221
H	 1.8223219661	-0.8092282024	 0.9245279903	 0.092434
H	 0.661835862	-0.0932129117	 2.0549138599	 0.107796
