13
gdb 130083	5.60626	1.3568	1.09461	6.8738	65.64	-0.232	0.0093	0.2413	1003.3715	0.093206	-445.106972	-445.10031	-445.099366	-445.137798	25.782	
N	 0.0287175817	 1.3367034584	-0.1323873575	-0.591023
C	-0.0073469997	-0.034862715	-0.028153692	 0.458263
N	-1.1061307151	-0.7488435666	 0.0133535644	-0.328965
N	-0.6147221673	-2.0463366468	-0.0065167893	 0.017693
C	-1.0129871387	-3.3554154424	 0.0064789784	-0.007326
N	 0.0553595901	-4.1237423336	-0.0131959218	-0.222762
N	 1.2015087587	-3.3301597785	-0.0333678753	-0.363606
C	 0.7400680798	-2.107629157	-0.0296050655	 0.505701
N	 1.1541092238	-0.7861661462	-0.0207396768	-0.454156
H	 0.6868195346	 1.7912290967	 0.4872918978	 0.266603
H	-0.895651628	 1.740246746	-0.0545328609	 0.278483
H	-2.0385397625	-3.6812743313	 0.0312091346	 0.151266
H	 2.0725896627	-0.4557800937	-0.2601157462	 0.289827
