22
gdb 122063	3.1933	0.66122	0.57399	4.6854	83.4	-0.2701	0.0348	0.3049	1961.8865	0.192459	-404.369871	-404.358712	-404.357768	-404.407205	38.738	
C	-0.0527201572	 1.5713848774	 0.07550404	-0.398576
C	 0.0203487695	 0.0453176374	-0.0010717922	-0.18287
C	 0.7193743905	-0.4868874137	-1.2737647128	-0.131716
C	 0.8629330978	-2.0256114169	-1.2606676043	-0.202264
C	 1.6731977547	-2.5839073382	-2.4327631276	-0.185843
C	 1.7965503575	-4.1019261216	-2.3868997927	-0.074158
O	 2.5909081322	-4.5040150617	-3.4904523116	-0.418533
C	 0.0032407292	-0.0442071332	-2.4763068354	 0.289798
N	-0.5791935002	 0.2980158745	-3.4147351729	-0.341085
H	 0.9476548998	 2.0176951563	 0.0603413531	 0.118385
H	-0.6168171323	 1.9846703264	-0.7658913135	 0.14553
H	-0.5450357817	 1.8885739226	 0.99923302	 0.120611
H	 0.5732988706	-0.3469468209	 0.8602067034	 0.104836
H	-0.9873042601	-0.3830628322	 0.051110352	 0.115901
H	 1.7249966524	-0.0467203641	-1.3239206284	 0.122972
H	 1.3412783284	-2.2992647963	-0.3122120013	 0.103137
H	-0.1390472007	-2.4721258384	-1.2467726373	 0.113994
H	 1.2109679455	-2.2997330289	-3.3844754573	 0.134367
H	 2.6828655985	-2.1548412891	-2.4317723662	 0.107662
H	 2.253775184	-4.4110056108	-1.4317064377	 0.082337
H	 0.7930749822	-4.556539983	-2.4279718129	 0.088402
H	 2.6451425894	-5.4639610654	-3.4904245643	 0.287113
