20
gdb 6097	4.59086	0.87161	0.79918	1.2829	72.27	-0.2416	-0.0062	0.2354	1480.5339	0.173416	-386.170418	-386.160242	-386.159297	-386.206511	35.605	
C	-0.1187849039	 1.535435049	-0.0898638813	-0.403098
C	-0.0239154137	 0.0109749862	-0.0379074269	 0.13046
O	 0.6892119339	-0.5008833813	-1.1653413061	-0.429349
C	 0.5854935999	-0.4882733294	 1.2779278105	-0.187577
C	 0.6352653473	-2.012406574	 1.364138094	-0.301963
C	 1.4864641465	-2.5437858137	 2.5082889361	 0.377132
C	 1.3749946028	-4.0333384795	 2.7861252074	-0.473264
O	 2.2160769661	-1.8279547035	 3.1568229245	-0.296828
H	 0.8735049652	 1.9896332781	 0.0257980263	 0.108961
H	-0.5344476621	 1.8587553407	-1.0479969875	 0.123202
H	-0.7539537137	 1.920563662	 0.7142562357	 0.117555
H	-1.0314431333	-0.4111208898	-0.1488160359	 0.084902
H	 1.565239983	-0.0981372065	-1.1586374757	 0.276889
H	 1.6029279998	-0.091495648	 1.3834863945	 0.107686
H	 0.0175683137	-0.0813100534	 2.1227778959	 0.101391
H	-0.3718076038	-2.4445202476	 1.4401358719	 0.109267
H	 1.0473566987	-2.4152433228	 0.4283697014	 0.13867
H	 1.4791374362	-4.6140766627	 1.863422594	 0.134978
H	 2.1340221676	-4.3361296136	 3.5084455234	 0.14072
H	 0.3814176095	-4.2586321602	 3.1917249775	 0.140266
