20
gdb 103021	2.28125	1.67454	1.15544	3.9934	83.38	-0.2972	0.0291	0.3263	1128.4533	0.171867	-365.979802	-365.97139	-365.970446	-366.012821	32.578	
C	 0.8261612513	-0.495426425	 1.3011641914	-0.38882
C	 0.0592660338	-0.0359580323	 0.0556205747	-0.278935
C	-1.369390814	-0.6031100661	-0.0201021733	 0.220487
C	-2.1504651677	-0.0184247637	 1.074426682	 0.235879
N	-2.7225404124	 0.4722304557	 1.9522150447	-0.362195
C	-2.1236021091	-0.7081917341	-1.4036418182	-0.083815
C	-1.19596972	-1.9069827954	-1.7602835422	-0.24894
C	-1.6296910527	-2.1397813536	-0.2844778529	-0.067953
C	-3.067517639	-1.7553147837	-0.7429943832	-0.244496
H	 1.8207469568	-0.0412678532	 1.3293203087	 0.119418
H	 0.3010513672	-0.2117170015	 2.2180745955	 0.14453
H	 0.9548793425	-1.5828568032	 1.3088537767	 0.118642
H	-0.0121601951	 1.0579430523	 0.050605094	 0.117999
H	 0.6187620477	-0.3086563769	-0.8413607	 0.107933
H	-2.4034547511	 0.1337354714	-2.0377873858	 0.087306
H	-1.6078947514	-2.6142593981	-2.4830354855	 0.102626
H	-0.145411808	-1.712283639	-1.9708301506	 0.102809
H	-1.3413295417	-2.9576204373	 0.3763400626	 0.087821
H	-3.7594466781	-1.3970140867	 0.0200147274	 0.131249
H	-3.5494566288	-2.4569539295	-1.4265238857	 0.098456
