19
gdb 91544	2.66963	1.37797	1.15603	2.4391	75.32	-0.2336	0.0702	0.3037	1136.3296	0.158041	-422.959573	-422.951153	-422.950209	-422.992868	31.928	
C	 0.016279807	 1.6195479034	-0.022375992	-0.412983
C	 0.0819331751	 0.1105083156	 0.0842166336	 0.086439
O	 1.063478038	-0.4915185501	-0.8179722539	-0.306675
C	 1.6229113565	-1.2379340863	 0.2586751535	 0.059496
C	 2.2267269787	-0.338100367	 1.2869588407	-0.372291
C	 0.7268572263	-0.5841254172	 1.2929516209	 0.273827
C	-0.0014841543	-1.1495901171	 2.4504188511	-0.043612
C	-1.1944315407	-0.514248465	 3.0309219416	-0.18824
O	-1.3133260683	-1.6730444825	 2.2038357528	-0.235474
H	 0.9690355002	 2.0867822535	 0.2401878758	 0.120825
H	-0.2349855091	 1.9095993678	-1.0475350976	 0.132616
H	-0.7615467467	 2.0155103526	 0.6394373088	 0.118716
H	-0.8978435516	-0.3395711629	-0.1138962634	 0.100962
H	 1.8949554091	-2.2718576752	 0.0803999117	 0.109678
H	 2.7597842009	-0.8398448336	 2.0898425754	 0.116769
H	 2.6397766826	 0.6225549073	 0.994311311	 0.117861
H	 0.6045024231	-1.7717157102	 3.1115207462	 0.090772
H	-1.4290772737	-0.6617237892	 4.084401196	 0.117127
H	-1.5768664532	 0.4093407259	 2.5982989676	 0.114186
