21
gdb 70153	2.69735	1.57752	1.22349	1.5537	83.52	-0.2305	0.0046	0.2351	1108.2544	0.183744	-387.088608	-387.080245	-387.079301	-387.12101	33.222	
C	-0.1392383078	 1.6217959482	 0.2536884145	-0.467623
C	-0.0473292268	 0.1180743155	 0.1346962292	 0.393356
C	-1.3086608488	-0.5979013247	-0.3435980863	-0.287
C	-1.1003897294	-1.7995586409	-1.2853124427	-0.183709
C	-0.1012537954	-2.8988149075	-0.8263914321	-0.24549
C	 0.1311666268	-3.0023392638	 0.6640130927	-0.104396
C	 0.5993486942	-2.0196758199	 1.4381797556	-0.034004
C	 0.8922127068	-0.6322545891	 1.0048184178	-0.039805
O	 1.1991400452	-0.3705368643	-0.3780997786	-0.288772
H	 0.7886995964	 2.0410745549	 0.6507402445	 0.124834
H	-0.327251269	 2.0725475388	-0.7274633757	 0.1245
H	-0.9643274598	 1.9079157371	 0.9152416645	 0.121713
H	-1.8632056372	-0.9275687999	 0.5441946219	 0.109094
H	-1.9557838275	 0.1245467593	-0.8544486582	 0.09505
H	-2.0880092635	-2.2499383994	-1.439161676	 0.094221
H	-0.7769795131	-1.4345011294	-2.2655071708	 0.105009
H	-0.4497830803	-3.865402473	-1.203232713	 0.089749
H	 0.8628589862	-2.7082579846	-1.3041197091	 0.135682
H	-0.0641797695	-3.9646729961	 1.1307024323	 0.090107
H	 0.75661665	-2.2064953999	 2.4977712971	 0.083804
H	 1.5036705224	-0.0510584314	 1.6957581523	 0.083681
