20
gdb 105428	2.33862	1.3876	1.16737	3.9637	83.23	-0.2552	0.0094	0.2646	1176.9549	0.171423	-366.047915	-366.038935	-366.037991	-366.081725	33.744	
C	 0.0540089646	 1.5491189849	-0.0035580245	-0.401043
C	-0.0350969972	 0.0216190126	 0.0166192403	-0.232882
C	-1.4747874755	-0.5449984743	-0.0059208651	 0.14113
C	-2.2705122096	-0.1853708769	-1.3108794058	-0.294968
C	-3.0101818565	-1.4563398746	-1.6429564393	-0.058747
C	-2.5951034482	-2.490779351	-0.9170154398	-0.056
C	-1.4972065459	-2.1141879187	 0.043972595	-0.307208
C	-2.2155777499	-0.0340193945	 1.156324405	 0.279327
N	-2.7851831562	 0.3735775528	 2.076627286	-0.360872
H	 1.0992423165	 1.8707796161	 0.0157201795	 0.119509
H	-0.4053821063	 1.9688450928	-0.904349507	 0.121189
H	-0.4489319832	 1.9856615269	 0.8644931065	 0.145847
H	 0.4861062279	-0.3978491662	-0.8522661229	 0.1042
H	 0.476406046	-0.3658023468	 0.9053197106	 0.11438
H	-2.9317677252	 0.6739487313	-1.1653632583	 0.128636
H	-1.5741248459	 0.0883227419	-2.1151361753	 0.113116
H	-3.7683848906	-1.4952141759	-2.4165923137	 0.101848
H	-2.9612560397	-3.507216389	-1.0043032517	 0.102141
H	-0.5279040532	-2.516171085	-0.2813209652	 0.111945
H	-1.6631700019	-2.4852177564	 1.0600737956	 0.128453
