18
gdb 1678	3.73261	2.12277	1.52532	3.4689	65.39	-0.2314	0.0367	0.2681	865.2535	0.158517	-327.013853	-327.004948	-327.004004	-327.047524	30.639	
C	-0.2116441934	 1.6605020805	-0.0985745394	-0.377333
C	 0.0628130182	 0.1565353114	-0.0090200092	-0.146033
N	-1.1538225604	-0.6540395753	-0.065644058	-0.067867
C	-1.6135229611	-1.0416202492	-1.3843586083	-0.341981
C	-1.7989759829	-0.9272895637	 1.1139001785	 0.402163
C	-3.0607786962	-1.7796291668	 1.0557633764	-0.499069
O	-1.3756707147	-0.5081804079	 2.1805721203	-0.38297
H	 0.7288780145	 2.2205625256	-0.0866176568	 0.115563
H	-0.7449815497	 1.9207841059	-1.0190276151	 0.110504
H	-0.8134385371	 1.9806454274	 0.7555157756	 0.144033
H	 0.7144253689	-0.1651137351	-0.829686359	 0.093915
H	 0.5622581594	-0.0700230616	 0.9343447291	 0.139107
H	-2.5597112802	-1.5761792632	-1.3285770193	 0.138332
H	-1.7641201404	-0.1616841278	-2.0231844311	 0.127672
H	-0.8815382833	-1.6929306872	-1.8807575888	 0.125843
H	-2.8838516956	-2.7506468157	 0.583158301	 0.134304
H	-3.3875119634	-1.9369275929	 2.0830140752	 0.147572
H	-3.8632510325	-1.2795205244	 0.5037973489	 0.136245
