16
gdb 3323	6.43039	1.94104	1.76672	1.6101	60.57	-0.2336	0.0728	0.3064	756.1055	0.137081	-325.712603	-325.705857	-325.704912	-325.743374	24.728	
C	 0.0272415441	 1.3071878946	-0.1536484013	-0.239511
O	-0.0223435546	-0.0054395189	 0.3609709182	-0.243211
C	-1.2708620173	-0.6213976748	 0.1824735901	 0.134787
C	-1.6428522507	-1.2271740272	-1.2052698537	-0.203151
N	-1.832846888	-2.5965864694	-0.6057811586	-0.128079
C	-0.5163490843	-2.9580606913	-0.0567444648	-0.229809
C	-1.354633126	-2.0332467499	 0.7304855378	-0.064423
H	 1.0249724333	 1.7005937412	 0.053905592	 0.129961
H	-0.1428785411	 1.3314924938	-1.240803068	 0.108161
H	-0.7196917233	 1.9595722003	 0.3255299129	 0.106163
H	-2.074345278	 0.0247573774	 0.5645537163	 0.073472
H	-2.5835688228	-0.8591664065	-1.6191451172	 0.110491
H	-0.8616794165	-1.1877231989	-1.9717510553	 0.106429
H	-0.4678124444	-3.987797521	 0.2832579066	 0.121291
H	 0.3839549367	-2.5894391028	-0.542090968	 0.121996
H	-1.8163286369	-2.3166143666	 1.6701520029	 0.095433
