15
gdb 1304	3.50696	2.57633	2.22623	3.9969	56.57	-0.2679	0.0137	0.2816	686.7649	0.124338	-345.689766	-345.682556	-345.681612	-345.720707	25.972	
C	-0.1153932287	 1.5491157286	 0.0542223745	-0.444061
C	-0.0303100866	 0.0245493698	-0.0229789407	 0.104889
C	-1.3946127589	-0.642423169	 0.1540150669	-0.444061
C	 0.8593702726	-0.5462822174	-1.1544251354	-0.111307
O	 1.8130346559	-1.0580212686	-0.1682608703	-0.24563
C	 1.0656638343	-0.5742458883	 0.8760754448	 0.444768
O	 1.2990426557	-0.6574896232	 2.0389691856	-0.332445
H	 0.8647103099	 2.016269106	-0.0820214636	 0.128767
H	-0.7893542956	 1.9359506286	-0.7174210194	 0.122839
H	-0.5024665192	 1.8578768308	 1.0297153902	 0.140709
H	-2.0934279178	-0.2981256129	-0.6156696335	 0.122838
H	-1.3234265217	-1.7324034489	 0.088645356	 0.128766
H	-1.8150573904	-0.3908875432	 1.13212648	 0.140709
H	 0.4336529928	-1.3652727076	-1.7385891041	 0.12161
H	 1.3385785677	 0.1850656553	-1.8091905709	 0.12161
