18
gdb 20036	5.14624	1.04892	0.97343	2.2043	68.94	-0.261	0.0789	0.3399	1226.3802	0.15307	-384.89669	-384.888347	-384.887403	-384.930456	30.311	
O	-0.0932844488	 1.368615787	-0.6543097224	-0.419453
C	 0.0393200046	 0.2388178632	 0.1927747253	-0.08396
C	-1.2790702101	-0.4793824355	 0.3356521999	 0.01914
O	-1.7251214009	-1.1772102516	-0.8423332976	-0.276742
C	-1.4508109652	-1.9422904546	 0.3393659472	 0.06545
C	-0.3507116618	-2.9466067431	 0.2852976068	-0.011896
C	-0.1842649155	-3.9072505237	 1.4410945316	-0.268441
C	-0.7034739992	-4.4071195122	 0.1207272119	-0.267177
H	-0.4532021497	 1.0447572464	-1.4881023856	 0.293238
H	 0.8146698773	-0.4467433636	-0.1751363687	 0.091678
H	 0.3638753349	 0.6203158386	 1.167147891	 0.112436
H	-2.0602789739	 0.1233984219	 0.8033399758	 0.095283
H	-2.353775421	-2.3162562283	 0.8302617634	 0.085706
H	 0.5557205291	-2.6149143134	-0.2075487939	 0.092427
H	 0.8238547879	-4.1713515157	 1.7390702596	 0.118749
H	-0.8841799416	-3.8317632795	 2.2669298647	 0.116063
H	-1.7551542195	-4.6653991525	 0.0529233097	 0.118882
H	-0.0542530666	-5.0190276435	-0.4948127185	 0.118617
