17
gdb 55902	2.67901	0.9875	0.8678	3.4635	71.52	-0.2515	-0.0244	0.2271	1384.2208	0.132692	-458.993186	-458.983698	-458.982753	-459.029446	32.734	
C	-0.1853124216	 1.4113446198	 0.0160723974	-0.482563
C	-0.0044195844	-0.0743198413	-0.1598177658	 0.431428
O	 0.9400508254	-0.6214444077	-0.6617692622	-0.33686
O	-1.0805145801	-0.7417295601	 0.3478029179	-0.246413
C	-1.0539207552	-2.1480136645	 0.2335571992	 0.128816
C	-2.1814657399	-2.8678003153	 0.8593625812	-0.343816
C	-2.0753214988	-2.8208492959	-0.6714716845	-0.137127
C	-3.0740887457	-2.0049434516	-1.4015456076	 0.16853
O	-3.5065500141	-2.2820328458	-2.4928093713	-0.265332
H	 0.7061629655	 1.9278417767	-0.3368213285	 0.154292
H	-1.0579534265	 1.7485481654	-0.5510978043	 0.156528
H	-0.3684888818	 1.6484739584	 1.0674867312	 0.153542
H	-0.0533526261	-2.5606466483	 0.2390926199	 0.143747
H	-1.9990320246	-3.8156031315	 1.3511609397	 0.139652
H	-2.9652372981	-2.2614010893	 1.3017498458	 0.139811
H	-1.7545937267	-3.714262665	-1.1952359687	 0.118746
H	-3.4173575172	-1.0974202939	-0.8572215395	 0.077019
