16
gdb 28961	2.89679	1.51316	1.00006	2.4113	88.18	-0.241	-0.0406	0.2004	1136.3048	0.124868	-363.649988	-363.641881	-363.640937	-363.682799	30.352	
C	-0.0378842253	 1.5239629557	-0.0092755248	-0.50712
C	-0.0102925611	 0.0212442455	-0.0120808921	 0.223801
C	-0.0241350292	-0.7141600958	-1.1940422282	-0.180506
C	 0.0025101562	-2.1044826074	-1.1481546437	 0.006129
N	 0.0418071514	-2.8069367709	-0.0121775807	-0.274449
C	 0.0552926124	-2.1123164856	 1.1222961306	-0.055382
C	 0.0311021615	-0.7100794286	 1.1933236659	 0.03541
C	 0.0484874108	-0.0602298391	 2.4590014846	 0.231585
C	 0.0633466097	 0.4857011462	 3.5328833972	-0.422805
H	 0.8440970801	 1.9303745054	 0.4971165164	 0.146978
H	-0.068864419	 1.9210905882	-1.0263742412	 0.124258
H	-0.9097003626	 1.898100707	 0.5379441727	 0.146978
H	-0.0556835029	-0.2047026847	-2.15168489	 0.099509
H	-0.0081476588	-2.6818859213	-2.069541526	 0.11188
H	 0.087263561	-2.6850351475	 2.0455405434	 0.117087
H	 0.076568726	 0.963159323	 4.4813573361	 0.196645
