21
gdb 111792	2.60971	1.41318	1.17202	1.8278	78.6	-0.226	0.0854	0.3113	1168.453	0.182872	-424.191351	-424.18267	-424.181726	-424.224742	33.046	
C	-1.1278041649	 1.4137161205	-0.8071255126	-0.242978
O	-0.4078542589	 0.2901243835	-0.3490143354	-0.249597
C	 0.3441532752	-0.3324699422	-1.3445026045	 0.165861
C	 0.9309338716	-1.7199131991	-0.968910922	-0.14387
C	-0.3632145754	-2.4456156309	-0.5766385001	-0.081483
O	-1.231692618	-2.0361788617	-1.6662017592	-0.281178
C	-0.3623096491	-1.1972760166	-2.4345680842	 0.036208
C	 0.9512077007	-2.0288711808	-2.508720745	 0.025874
C	 2.124867143	-1.531569562	-3.3439310815	-0.438493
H	-0.4593333392	 2.1780069874	-1.2342465411	 0.101033
H	-1.8730035943	 1.1384808603	-1.5665204896	 0.116885
H	-1.6444183638	 1.8409550828	 0.055404577	 0.128087
H	 1.0873452258	 0.3549107684	-1.764075863	 0.067845
H	 1.8005464259	-1.8342144939	-0.3225605776	 0.071031
H	-0.2588871435	-3.536447238	-0.5705534779	 0.094573
H	-0.7800223528	-2.1057886848	 0.375281109	 0.114442
H	-0.8901285056	-0.8059542255	-3.3035286446	 0.072714
H	 0.7484433204	-3.0776858983	-2.74589467	 0.08024
H	 2.3911879307	-0.4896621073	-3.1503986515	 0.121272
H	 3.0154960482	-2.1382767456	-3.1468777124	 0.120949
H	 1.8991834441	-1.6206749163	-4.4123559539	 0.120584
