17
gdb 34974	4.24579	1.38458	1.32836	4.3216	75.82	-0.248	0.0089	0.2569	982.9752	0.139461	-380.821744	-380.815278	-380.814334	-380.852539	26.484	
N	-0.0666896051	-1.2271234637	-0.2391329583	-0.331542
C	-0.0265735648	-0.0778631761	-0.1194066718	 0.282457
C	-0.0031102849	 1.3706520374	 0.0483351376	-0.114014
C	-0.2239294349	 2.0349614366	 1.4083363179	-0.060682
C	 1.0874500193	 1.8137488395	 2.2889330483	-0.061403
C	 1.3168546587	 3.3481991917	 2.2227206552	-0.240813
C	 0.6412537335	 3.2018683832	 0.8614592181	 0.013074
N	 1.3477441315	 2.080177498	 0.0209395964	-0.161699
C	 2.0319008665	 1.3738533343	 1.1546983408	-0.176585
H	-0.6434534446	 1.8214278891	-0.7159473851	 0.128333
H	-1.1877367115	 2.1403050806	 1.9043768978	 0.087554
H	 1.0720400373	 1.2631459783	 3.2270757296	 0.08334
H	 0.6616637082	 3.9061495701	 2.8977474767	 0.110848
H	 2.3403123767	 3.7258975118	 2.2945876111	 0.107846
H	 0.2795873486	 4.0195218989	 0.2412008009	 0.089368
H	 3.0489764575	 1.7529744794	 1.2758615586	 0.109703
H	 2.0785018279	 0.300271391	 0.9667356362	 0.134215
