16
gdb 12253	3.26316	1.59114	1.20579	0.8096	62.1	-0.2518	0.0123	0.2641	992.5193	0.13103	-417.040832	-417.032587	-417.031643	-417.073828	29.712	
N	 0.227039564	 1.4787892119	 0.2167473722	-0.514691
C	 0.0702404291	 0.0503556832	 0.0606767973	-0.126272
C	-1.3446815006	-0.5742359971	 0.2171619893	 0.095697
C	-2.5489403681	 0.3437440243	 0.1740401294	-0.060407
O	-3.7391387066	-0.3922748533	-0.0302890405	-0.419282
O	-1.1770847963	-1.2504875386	-1.0835981784	-0.281952
C	 0.0213674617	-0.6029161887	-1.3191924064	 0.404763
N	 0.7454623109	-0.5595982457	-2.3410324196	-0.543078
H	 1.209984907	 1.7134854816	 0.2975093343	 0.247242
H	-0.116038687	 1.9712332535	-0.6016746141	 0.242356
H	 0.7911656075	-0.4563762113	 0.7073162305	 0.11893
H	-1.459726089	-1.3237176622	 1.0045507298	 0.10047
H	-2.64764517	 0.863089724	 1.1318602936	 0.129292
H	-2.4101266909	 1.1093891315	-0.6053591909	 0.084424
H	-3.6156457853	-0.8996719288	-0.8409888392	 0.292844
H	 0.3550831636	-1.1120878644	-3.1065075975	 0.229667
