21
gdb 89431	2.75945	1.6288	1.39266	1.3608	81.13	-0.2483	0.0775	0.3258	1034.5584	0.183983	-387.074703	-387.066812	-387.065868	-387.106408	32.658	
C	-0.0039291866	 1.5240429513	 0.006325617	-0.490052
C	 0.0300586898	 0.0089351818	 0.0092021268	 0.325769
C	-1.3078498845	-0.7283647318	 0.3768741127	-0.267847
C	-0.5115694277	-1.6170887743	 1.3283938573	-0.056231
C	 0.7612731005	-2.1278300688	 0.6713002803	-0.033176
C	 0.7113358305	-0.7270418934	 1.2104555407	-0.128528
C	 0.8435680038	-2.1382671192	-0.8476075482	 0.082326
O	-0.1665410129	-3.0034501476	-1.3652977162	-0.432306
C	 0.655909538	-0.6442412411	-1.233570613	-0.27233
H	 1.0001403306	 1.9445086656	-0.1262290313	 0.10978
H	-0.6327520157	 1.9026540945	-0.8079716374	 0.113618
H	-0.4086116029	 1.9136453659	 0.9466060277	 0.113692
H	-1.9833438882	-0.0640583852	 0.9242638071	 0.088589
H	-1.8491834256	-1.2165590304	-0.4380225021	 0.100211
H	-0.9010948275	-2.1172635325	 2.2074590367	 0.079035
H	 1.2933301	-2.8894554772	 1.2300593255	 0.081062
H	 1.3675956559	-0.307948366	 1.9628179494	 0.076795
H	 1.8317850886	-2.497206681	-1.1701619551	 0.058591
H	-0.0573175766	-3.0429446021	-2.3207206812	 0.278423
H	 0.0342670776	-0.5372965932	-2.1301745378	 0.084808
H	 1.630489713	-0.1858286052	-1.4437751089	 0.087772
