15
gdb 29596	3.14378	1.24712	0.97765	2.2632	71.19	-0.209	0.0082	0.2173	1158.0072	0.113964	-416.842482	-416.834349	-416.833405	-416.875629	30.008	
N	 0.1906143321	 1.3709594736	 0.1980729185	-0.619056
C	 0.060716156	-0.0188050296	 0.0869657207	 0.124999
C	-1.0635374507	-0.7794619496	-0.0377914591	-0.075717
O	-0.7310156054	-2.0970430026	-0.2148216754	-0.144816
C	 0.6150960708	-2.1709554418	-0.1863517827	-0.100138
C	 1.1664716735	-0.9398943381	-0.0148913227	 0.215248
C	 2.6279405598	-0.5900517651	 0.0116603705	-0.460175
C	 3.0056330687	 0.1508185284	 1.2209277114	 0.267849
N	 3.2607368718	 0.7642017611	 2.1669448242	-0.319393
H	 0.8687301149	 1.6470799428	 0.8998293401	 0.263641
H	-0.6893177907	 1.8331645145	 0.3873403213	 0.246889
H	-2.1161341506	-0.5534867393	-0.0331724827	 0.129621
H	 1.0432911585	-3.1534769406	-0.3037061065	 0.140114
H	 3.2401107206	-1.4954018713	-0.0514511599	 0.160393
H	 2.8946506407	 0.0347490876	-0.8509329176	 0.170543
