19
gdb 82252	2.52863	1.89715	1.41216	1.9525	72.87	-0.2507	0.0678	0.3185	969.0109	0.161264	-423.001613	-422.994217	-422.993273	-423.033427	29.752	
O	 0.0957647048	 1.4320489293	 0.0633314332	-0.435363
C	 0.0422201192	 0.0205604288	-0.0254408145	 0.105103
C	 0.7558570534	-0.6730439439	 1.1269667914	-0.003839
O	 0.0629051055	-0.4598833228	 2.3705809989	-0.269353
C	-0.0966067029	-1.7238852972	 1.6982168472	 0.028887
C	-1.3928035282	-1.8379069165	 0.9186974388	-0.054077
C	-2.6705220872	-1.2947955564	 1.6243276099	-0.222155
C	-2.495391175	 0.0563467135	 0.8727633233	-0.224661
C	-1.3893183714	-0.5877293615	-0.0171182125	-0.042347
H	-0.176416238	 1.6642341099	 0.9586966579	 0.2909
H	 0.5482434657	-0.228474653	-0.9654062815	 0.086219
H	 1.841261739	-0.6695742857	 1.1932849994	 0.098856
H	 0.3109873353	-2.5747958896	 2.2392527212	 0.094606
H	-1.4710408244	-2.8248191297	 0.4546472679	 0.069128
H	-3.5711192753	-1.8357527378	 1.3247026326	 0.100278
H	-2.6349398699	-1.2522962513	 2.7147802395	 0.107934
H	-3.3720412251	 0.4233073481	 0.3347000901	 0.098169
H	-2.130582805	 0.8561806947	 1.5187023072	 0.098479
H	-1.7389010505	-0.7792400888	-1.0327719801	 0.073235
