19
gdb 115891	2.50647	1.55604	1.13228	2.5334	71.98	-0.2533	0.0806	0.3339	1135.781	0.157639	-460.143267	-460.134282	-460.133338	-460.177117	32.711	
C	 0.105153729	 1.3167522801	 0.1262766341	-0.238199
O	 0.0289934949	-0.090896197	-0.0203581711	-0.239868
C	 0.6216046037	-0.5696709663	-1.177187357	 0.194053
O	 2.0286106045	-0.3535204401	-1.1579072925	-0.285083
C	 2.7162655382	-1.4764119783	-1.6987854443	-0.105504
C	 1.7413465858	-2.629466597	-1.6166772224	-0.048401
O	 1.1898496553	-2.776801615	-0.3049184966	-0.280416
C	 0.4235190021	-2.0754013147	-1.2946541313	 0.365604
C	-0.92001554	-2.6326400336	-1.6619117207	-0.499889
H	 1.1415392511	 1.649888604	 0.2492127535	 0.133298
H	-0.333395726	 1.8319897385	-0.7421348794	 0.103308
H	-0.4678280368	 1.5738157328	 1.0194885727	 0.128469
H	 0.1900058402	-0.0570090314	-2.0601384566	 0.050924
H	 3.0057648525	-1.3009189368	-2.7468154517	 0.097232
H	 3.62438236	-1.6389647188	-1.1084602333	 0.122129
H	 1.8913348784	-3.5393532233	-2.1919376019	 0.099734
H	-1.658167789	-2.3538714232	-0.9034143393	 0.146511
H	-1.2583175286	-2.2362969384	-2.6250789566	 0.123304
H	-0.8793259353	-3.7223842217	-1.7237937857	 0.132792
