16
gdb 88903	6.04788	0.58379	0.55977	5.9393	83.73	-0.2748	-0.0333	0.2415	1875.5841	0.123338	-400.716942	-400.707838	-400.706894	-400.751921	32.462	
O	-0.1591179331	 1.4428471125	 0.4387615549	-0.413788
C	-0.0047654107	 0.0699703384	 0.2251480717	 0.083763
C	-0.729750929	-0.905236096	 1.1183732687	-0.316707
C	-1.2073817396	-0.6635530198	-0.2985718143	-0.014763
C	-2.4974534613	 0.1081840959	-0.5452118308	-0.401493
C	-3.6870801446	-0.7043514541	-0.3450731254	 0.107911
C	-4.6655913282	-1.3934354835	-0.1761046987	 0.031702
C	-5.7716957554	-2.1692191887	 0.0165507995	 0.206976
N	-6.7129719312	-2.8303893918	 0.1814748673	-0.341712
H	 0.3052709247	 1.6753390255	 1.2493748542	 0.295132
H	 0.9671302385	-0.2226408389	-0.1709035122	 0.097753
H	-0.2617707953	-1.8529375133	 1.3594505407	 0.122357
H	-1.3291525247	-0.4777788385	 1.9159640936	 0.123346
H	-1.0163379098	-1.453856867	-1.0172587966	 0.10738
H	-2.5290607596	 0.9803980904	 0.1165921408	 0.161603
H	-2.5049696707	 0.505647799	-1.5686209034	 0.150541
