16
gdb 27068	3.19075	1.30481	0.98755	1.9602	73.92	-0.1875	-0.0266	0.161	1150.743	0.124021	-437.920759	-437.912344	-437.9114	-437.954002	31.106	
N	-0.1882270959	 1.295961685	-0.3919939145	-0.60077
C	-0.1363839059	-0.0532318078	-0.1298503058	 0.318418
C	-1.106379679	-1.0187220682	-0.0124854614	 0.159463
C	-2.592802112	-0.7753476393	-0.0173309749	-0.39629
C	-2.9586901898	-0.147527104	-1.3480208883	 0.156326
O	-2.9962418336	 1.0467348855	-1.5338576663	-0.25564
C	-0.3909140843	-2.2582382194	 0.1429946155	-0.279362
C	 0.927088394	-1.9547812619	 0.1392262109	-0.027328
O	 1.0973451334	-0.6007982539	-0.0373285616	-0.171783
H	 0.4575246478	 1.8666424959	 0.1349433616	 0.255978
H	-1.1257391539	 1.6715267668	-0.4435819615	 0.271627
H	-3.126100531	-1.7219305216	 0.1125219572	 0.116704
H	-2.8977053959	-0.0883373496	 0.7814612496	 0.121238
H	-3.1297391529	-0.8589382619	-2.1844349158	 0.091431
H	-0.8235551114	-3.2394293472	 0.267362153	 0.106795
H	 1.8333318603	-2.5239020885	 0.2512383224	 0.133194
