15
gdb 124369	5.04124	0.98618	0.82909	1.4723	69.74	-0.2479	-0.0168	0.2311	1314.4316	0.112726	-453.977073	-453.968833	-453.967889	-454.011397	29.106	
C	-0.0153460006	 1.5496097175	-0.1237506135	-0.503961
C	-0.0171359149	 0.0544526799	 0.1432072434	 0.406175
O	-0.0529431838	-0.4273900865	 1.255828672	-0.341365
N	 0.0263484167	-0.7115436496	-1.0060498384	-0.431309
C	 0.0364744402	-2.096997065	-1.0648098092	 0.495241
N	 0.0800673874	-2.667659418	-2.2509125346	-0.245085
O	 0.0794895945	-4.0355367532	-1.9949767041	-0.162605
C	 0.0358281684	-4.2283200213	-0.6699823164	 0.087699
C	 0.0059415821	-3.0482285733	-0.0031488236	-0.335304
H	 0.893210579	 1.8494184727	-0.6565566658	 0.146462
H	-0.8742006369	 1.8386634757	-0.7385129457	 0.145727
H	-0.062299688	 2.0723206871	 0.8304854509	 0.158239
H	 0.0541916984	-0.2480681487	-1.902211598	 0.266731
H	 0.0310331129	-5.257555092	-0.3457521271	 0.154022
H	-0.0311940153	-2.8501757753	 1.0509868	 0.159331
