14
gdb 129892	5.44417	1.34202	1.07803	2.4083	71.29	-0.1803	0.0127	0.1931	1032.8177	0.105001	-429.070998	-429.064085	-429.063141	-429.101982	27.081	
N	 0.0209696184	 1.3550993463	 0.1555989563	-0.593926
C	-0.0322737676	-0.034677164	 0.056507847	 0.295782
C	-1.1549319012	-0.8463915968	 0.0305080273	-0.233997
N	-0.6179828423	-2.1293297577	 0.0034925008	 0.048782
N	-1.028059483	-3.4325570732	-0.0369267294	-0.254339
C	 0.1005587356	-4.0981578645	-0.0486162162	 0.038641
N	 1.2094711354	-3.2808767561	-0.020028148	-0.412707
C	 0.7321743925	-1.9928923247	 0.0132805084	 0.508008
N	 1.1551563223	-0.749253456	 0.0418853439	-0.455991
H	 0.9154419675	 1.7057082955	-0.1610306757	 0.249484
H	-0.7366275462	 1.8266038946	-0.3190172977	 0.243313
H	-2.2109575625	-0.6512090917	 0.0455154682	 0.12595
H	 0.1657099057	-5.1728673113	-0.0776599149	 0.15407
H	 2.1734986755	-3.5616612703	-0.0193200497	 0.286931
