19
gdb 10499	2.82346	1.32624	1.01115	1.4876	81.18	-0.2313	0.0508	0.2821	1240.1154	0.163803	-327.881733	-327.872157	-327.871213	-327.918084	33.523	
C	 0.1214051907	 1.453357021	 0.3158870413	-0.377002
C	-0.0276770174	 0.0104441697	-0.1777080772	-0.255735
C	-1.4533298047	-0.5198705102	-0.0648278285	 0.100634
C	-1.6513261599	-1.9699889229	 0.2359644783	-0.275129
N	-1.9356868309	-0.9668852852	 1.2704464611	-0.333839
C	-2.4319993455	 0.170372778	-0.8730593861	 0.080975
C	-3.2180919541	 0.750774301	-1.5775935071	 0.095689
C	-4.1855274636	 1.4445052666	-2.4155653956	-0.501961
H	 1.1543066687	 1.7975668642	 0.2084002963	 0.111748
H	-0.5246651522	 2.1257969821	-0.2555763702	 0.133415
H	-0.1560755219	 1.5429430141	 1.3714680239	 0.116999
H	 0.2908569272	-0.0567354108	-1.2247885043	 0.109142
H	 0.6336942513	-0.6531519439	 0.394232073	 0.088543
H	-2.5261857168	-2.4802485155	-0.1549664319	 0.123999
H	-0.761931977	-2.5891861262	 0.3274164125	 0.109859
H	-1.1579810527	-0.9228011953	 1.9265829216	 0.228114
H	-5.1779762746	 0.9877281338	-2.3333725832	 0.150451
H	-4.2815005676	 2.4976532828	-2.1288151823	 0.14782
H	-3.8939444092	 1.4136027267	-3.4713739719	 0.146278
