18
gdb 32956	3.77042	0.97086	0.89729	1.5641	76.07	-0.2337	-0.0016	0.2321	1373.9859	0.147057	-439.113846	-439.104668	-439.103724	-439.149153	31.947	
C	 0.0501809013	 0.546647043	-0.321670341	-0.238389
O	-0.2516159418	 0.2461714604	 1.0271899127	-0.228149
C	 0.7422040436	-0.5326073487	 1.6677935852	-0.178963
C	 0.7754201325	-1.9539871326	 1.203203927	 0.353621
N	 1.6253046356	-2.5226914708	 0.406270485	-0.294834
C	 1.1694522588	-3.8290126722	 0.2865683349	-0.197115
C	 0.0451893621	-3.9893845798	 1.0285287886	 0.324416
C	-0.8803822497	-5.1157662956	 1.3037844772	-0.495161
O	-0.2165270829	-2.7845619026	 1.6254672893	-0.196685
H	 0.1453404912	-0.3571885425	-0.9382177291	 0.122576
H	-0.7743052067	 1.154439516	-0.7011733978	 0.127476
H	 0.9868274754	 1.1189535084	-0.4053924177	 0.10792
H	 1.7449723166	-0.1114000664	 1.5115115382	 0.118008
H	 0.5038036514	-0.4985040426	 2.73485739	 0.124599
H	 1.6819125262	-4.5579669758	-0.3213260426	 0.119972
H	-0.9186389881	-5.3518222918	 2.372979352	 0.143834
H	-1.9013144524	-4.8831999445	 0.9814653214	 0.145332
H	-0.546080553	-6.0068355619	 0.7678500968	 0.141541
