19
gdb 9302	4.30233	0.91428	0.82941	4.4631	73.63	-0.247	0.0112	0.2582	1433.3957	0.163033	-402.19152	-402.181619	-402.180675	-402.22736	33.848	
C	-0.0559678942	 1.2906630815	 0.0119229194	-0.25028
O	 0.0586075832	-0.1257456287	-0.0716768181	-0.193404
C	 0.5865906865	-0.7328980555	 1.0068306076	 0.13031
N	 0.7451625649	-1.9804544356	 1.0304944433	-0.234066
C	 1.331206758	-2.5848756691	 2.2223143502	 0.020598
C	 0.2740981186	-3.4267225288	 2.9456543581	-0.369403
C	 2.5111793933	-3.4491444287	 1.7399109682	-0.043395
O	 2.0996187233	-4.3993719818	 0.7804680606	-0.423106
H	 0.9267838478	 1.7674969963	 0.1089172557	 0.129819
H	-0.520027331	 1.6158572715	-0.9196483021	 0.149594
H	-0.6904768558	 1.59306101	 0.8536643933	 0.129453
H	 0.8505867047	-0.0538769279	 1.8328016216	 0.0771
H	 1.7248637178	-1.8196311341	 2.9145968289	 0.053948
H	-0.0682163585	-4.2349912113	 2.2956369673	 0.137196
H	 0.6955032343	-3.8680780049	 3.8546351855	 0.110433
H	-0.5870825764	-2.8134383994	 3.225642485	 0.107294
H	 3.2948193943	-2.7855279671	 1.3383195252	 0.07773
H	 2.9409826642	-4.0027151581	 2.5822503805	 0.098739
H	 1.547603135	-3.9064025385	 0.1580656699	 0.291439
