14
gdb 29110	3.13111	1.477	1.00482	3.5061	70.49	-0.1952	-0.0359	0.1594	1085.593	0.101726	-470.022869	-470.014881	-470.013937	-470.055575	29.886	
O	 0.0995533229	 1.3829014851	 0.0512740895	-0.415512
C	-0.0347783787	 0.0426543593	 0.0192583058	 0.374906
C	-1.1700425798	-0.6132732594	-0.2090949577	-0.162548
N	-1.1511298486	-2.0036581879	-0.3205712308	-0.357725
C	-0.024484322	-2.7676945003	-0.1441113237	 0.324676
N	-0.063368579	-4.0388179813	-0.2382531908	-0.527747
C	 1.2304196286	-1.9894787344	 0.1617173897	 0.333943
N	 2.316522667	-2.5980646279	 0.3703622357	-0.500813
O	 1.1629587371	-0.61463894	 0.193207433	-0.265006
H	 0.7708621688	 1.6095037008	 0.70731761	 0.307821
H	-2.112574273	-0.1035203496	-0.3264268249	 0.143173
H	-1.99913806	-2.5093219717	-0.5188689696	 0.266961
H	 0.8719830215	-4.4087685921	-0.0728028684	 0.244314
H	 3.0785844351	-1.9462803106	 0.5567420124	 0.233557
