22
gdb 116778	3.13057	0.82496	0.7886	2.8564	85.81	-0.2391	0.0243	0.2634	1597.3543	0.191887	-404.327243	-404.31667	-404.315725	-404.363626	37.657	
C	 0.6035390504	 0.3826290196	-0.2349294308	-0.249428
O	-0.5765457615	 0.060028427	 0.4867926743	-0.195149
C	-1.2963486089	-0.9725060577	-0.0102088242	 0.133568
N	-2.3831389469	-1.2919331594	 0.5329996202	-0.237809
C	-3.1632517579	-2.4231625814	 0.0518293028	-0.20242
C	-2.8271675669	-3.0554714384	-1.2948443031	 0.355055
C	-3.1236089768	-2.2005241801	-2.5147767084	-0.458343
C	-1.6688337549	-4.0298676235	-1.3525782101	-0.29309
C	-3.0870150956	-4.5390064476	-1.4189415699	-0.32662
H	 1.0890482146	 1.1913384429	 0.3129403327	 0.144019
H	 1.2902024567	-0.4714912109	-0.2926390054	 0.123266
H	 0.3743824659	 0.727389559	-1.2512345161	 0.123534
H	-0.8345739835	-1.4616162626	-0.8768427251	 0.085129
H	-3.1174516254	-3.1956047199	 0.8320273013	 0.104663
H	-4.2120442459	-2.0960001057	 0.0317212592	 0.108216
H	-2.5785886395	-1.2514065962	-2.497533911	 0.11403
H	-2.8530059944	-2.7230339753	-3.4378666825	 0.110958
H	-4.1920147836	-1.9609081231	-2.5687399245	 0.119739
H	-1.0702251049	-4.0649051792	-2.2573203066	 0.106545
H	-1.106509608	-4.2135414606	-0.4427606931	 0.113757
H	-3.4815960559	-5.0679597799	-0.5574477127	 0.111715
H	-3.4516842273	-4.9099383572	-2.3710736069	 0.108664
