13
gdb 24482	4.07591	1.7294	1.21421	4.2522	74.96	-0.2265	-0.0683	0.1582	918.9598	0.093187	-415.652677	-415.64688	-415.645935	-415.682776	23.142	
O	-0.0226162953	 1.3407144973	 0.0096132991	-0.161723
C	 1.1534976836	 2.0258095152	 0.0019887725	 0.095818
N	 2.3320502096	 1.5233412834	-0.0121648074	-0.300086
C	 2.4017953232	 0.1591809494	-0.020309008	 0.341068
N	 3.4893238594	-0.5699626249	-0.0348353998	-0.33297
C	 3.0246855073	-1.8827723393	-0.0375170983	-0.023514
C	 1.6554264284	-2.0117070039	-0.0249749142	-0.309585
C	 1.1781005484	-0.6671059514	-0.0129974483	 0.208402
C	-0.0015997721	-0.0105190668	 0.0020094446	-0.051843
H	 0.9698133329	 3.0930343747	 0.0096079641	 0.154431
H	 3.7462721373	-2.6902175784	-0.0489205284	 0.114386
H	 1.0747155469	-2.9209138338	-0.0243322477	 0.108316
H	-1.0006071996	-0.4288026016	 0.0093827518	 0.1573
