22
gdb 59869	3.05874	0.86661	0.85166	2.1684	79.63	-0.2339	0.0163	0.2501	1546.5299	0.191752	-441.529174	-441.518084	-441.517139	-441.565871	39.697	
C	 0.0619944299	 1.5023350331	-0.0168145038	-0.39747
C	 0.007849588	-0.0213022462	-0.007754874	 0.14378
C	-1.3996558691	-0.5815790655	-0.1462855034	-0.393528
O	 0.759853292	-0.5421211247	-1.1400626158	-0.260392
C	 2.0875795646	-0.6692114358	-0.9907497414	 0.469238
O	 2.6957726025	-0.3938315964	 0.0161387445	-0.377288
C	 2.741539851	-1.1607291539	-2.2761261104	-0.053259
C	 2.9227318686	 0.0466753048	-3.2220226204	-0.402939
N	 3.9748034898	-1.8559938179	-1.9202779345	-0.524688
H	 1.0924545649	 1.8499466829	 0.0837454396	 0.140205
H	-0.3601357432	 1.8981393852	-0.9461726593	 0.120398
H	-0.5171021465	 1.9025306406	 0.8212316123	 0.120408
H	 0.4868982007	-0.3989582944	 0.8996579107	 0.112883
H	-1.8664797643	-0.2347361979	-1.0735067118	 0.124697
H	-1.3831636139	-1.6745617473	-0.1565057181	 0.127341
H	-2.0180252657	-0.2528931755	 0.6941694343	 0.12101
H	 2.0481247157	-1.8651813398	-2.7501545498	 0.100222
H	 3.5725549166	 0.7985686927	-2.7621621546	 0.124697
H	 3.3859967739	-0.2819017245	-4.1579696215	 0.116171
H	 1.9622683447	 0.512128877	-3.4636476739	 0.126211
H	 4.6160580231	-1.8532579884	-2.7066553975	 0.222273
H	 4.4186070966	-1.3486998979	-1.1592311414	 0.240029
