19
gdb 31147	1.92594	1.76978	0.98009	0.3871	79.08	-0.1736	0.0668	0.2404	1220.5991	0.159417	-419.233092	-419.22344	-419.222496	-419.267415	35.523	
C	 0.4162383236	 1.3836690574	 0.3988948396	-0.321385
N	-0.2057438961	 0.2438175342	-0.2824326346	-0.408185
C	 0.5931988166	-0.4030935231	-1.2682190424	-0.005048
C	 0.243440208	-0.3484492393	-2.5969869499	 0.383972
O	-0.8148825558	 0.2533523034	-3.1797177469	-0.44087
N	 1.1547385656	-1.0397152124	-3.3297620451	-0.322915
C	 2.1124178708	-1.5645169892	-2.4685353973	-0.193413
C	 1.7989140127	-1.1895243965	-1.1865131848	 0.224235
C	 2.5591478795	-1.5461372271	 0.0542136046	-0.509047
H	 1.328257393	 1.1316196324	 0.9615514433	 0.106458
H	 0.6824906588	 2.1417178077	-0.3435242152	 0.125605
H	-0.3038796207	 1.8259258365	 1.0955382587	 0.110223
H	-0.5534240603	-0.4162062539	 0.4054804887	 0.223374
H	-1.3151131263	 0.6232358518	-2.4355266975	 0.298557
H	 1.1179521859	-1.1593554644	-4.3261159322	 0.263576
H	 2.9286957984	-2.1561686735	-2.8493955551	 0.109946
H	 3.0424015777	-0.6737265743	 0.5114746881	 0.122938
H	 1.9060093662	-1.9828576629	 0.8198809523	 0.113224
H	 3.3431910125	-2.277644247	-0.1628821644	 0.118755
