17
gdb 17746	3.86186	2.5497	2.07774	1.9024	69.7	-0.2257	0.0762	0.3019	722.5637	0.143854	-326.645599	-326.639592	-326.638648	-326.675215	25.05	
C	-0.026695079	 1.4915689267	 0.0087125024	-0.512807
C	-0.0192567257	-0.0128999713	-0.0589587788	 0.329485
C	 0.2324889436	-0.8183476087	-1.3653588558	-0.288845
C	-0.4738503365	-1.9798966829	-0.6241211519	-0.076099
C	 0.3212292344	-2.2239877785	 0.6746514153	-0.037683
C	 0.649421721	-0.8293731363	 1.0741278891	-0.088618
N	-0.6161195786	-1.4683783393	 1.576414718	-0.183877
C	-1.2350215542	-0.9507841581	 0.2716320484	-0.02573
H	 0.9771287176	 1.8982959372	-0.1637564678	 0.119047
H	-0.6923858383	 1.920271331	-0.7479147947	 0.116682
H	-0.3622605293	 1.8415639762	 0.9911096052	 0.127287
H	-0.3760031006	-0.4358991937	-2.1924832979	 0.096769
H	 1.2651372569	-0.9625587765	-1.6988563129	 0.093345
H	-0.9379754712	-2.8219272271	-1.132616356	 0.073825
H	 0.8474987971	-3.1095746407	 1.0096917092	 0.092855
H	 1.4505139886	-0.5405106307	 1.7448762429	 0.088435
H	-2.2902616459	-0.6890307774	 0.2195564054	 0.07593
