18
gdb 33205	3.77785	0.89005	0.87209	0.9169	74.48	-0.2457	-0.005	0.2406	1422.8983	0.147721	-439.108379	-439.099554	-439.09861	-439.144019	30.918	
C	-0.3565449246	 1.3345470776	 0.033032301	-0.382361
C	-0.7649184549	-0.0663010497	-0.3878740791	-0.04286
O	-0.8856732902	-0.8598925429	 0.7851334775	-0.239318
C	-1.2331918294	-2.2063207129	 0.533835239	-0.176073
C	-2.656900574	-2.3848038129	 0.1064026668	 0.365094
N	-3.1154527283	-2.6769833998	-1.0719905299	-0.293939
C	-4.4953971696	-2.6956600518	-0.9171600755	-0.11503
C	-4.797368866	-2.4058916486	 0.3697839688	-0.038067
O	-3.6273105973	-2.2055503165	 1.041135354	-0.16088
H	-0.2441584372	 1.9768931781	-0.8454984204	 0.116152
H	-1.1126518482	 1.7737779445	 0.6899303442	 0.127754
H	 0.5945983701	 1.3124891189	 0.572456271	 0.126203
H	-1.7153649554	-0.0457511766	-0.9409149404	 0.104367
H	-0.0111192127	-0.5089635142	-1.0595816822	 0.090389
H	-0.5998045244	-2.6495029957	-0.2469404885	 0.119526
H	-1.0628266175	-2.740106845	 1.4736689861	 0.125884
H	-5.1589041072	-2.9148634758	-1.7383148975	 0.125917
H	-5.7048279032	-2.3094405567	 0.9405110552	 0.147241
