17
gdb 84707	3.02896	1.59685	1.13405	0.2873	75.1	-0.2394	0.0003	0.2397	1050.3861	0.137417	-421.819409	-421.812085	-421.811141	-421.851143	28.78	
O	-0.0397205268	 1.3977391159	-0.1688355883	-0.422382
C	 0.0536815829	-0.0114372854	-0.0636763979	-0.006122
C	 0.6139528098	-0.5138234152	 1.2702566067	-0.112238
C	-0.0870038977	-1.5273427173	 1.7890264734	-0.121674
C	-1.1820450269	-1.9532885439	 0.8338239664	 0.056737
O	-2.5015846229	-2.1379160828	 1.338443991	-0.285489
C	-3.4008014218	-1.4150580744	 0.4879641999	-0.110971
C	-2.5345068451	-0.4205806664	-0.2577857467	-0.246927
C	-1.2629223283	-0.7432193559	-0.0645535286	 0.231356
H	-0.6361849169	 1.6913468397	 0.5298673478	 0.278267
H	 0.7072859904	-0.3085893477	-0.8946691839	 0.109185
H	 1.4991047186	-0.0593114258	 1.7023378141	 0.106944
H	 0.1318372907	-2.0466478012	 2.7148852611	 0.110229
H	-0.8729557202	-2.8716288801	 0.3016916283	 0.083413
H	-3.9355344661	-2.1064765277	-0.1850378666	 0.103571
H	-4.1550225921	-0.919405539	 1.1132228032	 0.113404
H	-2.9252697774	 0.4483209071	-0.7716282499	 0.112699
