20
gdb 101553	2.73654	0.91499	0.77341	2.5139	78.12	-0.2676	-0.0745	0.1931	1538.6148	0.16809	-440.310317	-440.299941	-440.298997	-440.346362	36.599	
C	 0.0215978575	 1.5579651107	-0.0682010478	-0.388112
C	 0.0920633909	 0.029480955	-0.0349385986	-0.17908
C	 0.6871849955	-0.53124154	 1.253541038	 0.146402
C	 0.6779903931	-2.0546986345	 1.3134344188	-0.411555
O	 2.059530945	-0.0503589389	 1.3114732569	-0.25968
C	 2.6409792051	 0.0525688643	 2.5122566457	 0.31047
N	 2.0993803205	-0.2471616158	 3.6190608443	-0.508021
C	 4.0507876844	 0.5897764753	 2.3682523772	 0.107302
O	 4.7618590595	 0.7783202963	 3.3199792063	-0.23593
H	 1.0180458624	 1.9972735188	 0.0287049001	 0.125193
H	-0.4127921568	 1.9098315814	-1.008440156	 0.115803
H	-0.5963898194	 1.9432276644	 0.7502346677	 0.118043
H	-0.9130095812	-0.3946639598	-0.14484331	 0.103241
H	 0.6815922691	-0.3413583232	-0.8826347193	 0.105172
H	 0.166522695	-0.1243578857	 2.1268692916	 0.113517
H	 1.120293254	-2.4057256306	 2.2476944639	 0.145477
H	-0.3518401665	-2.4214395853	 1.2634416393	 0.120866
H	 1.235572916	-2.4771006914	 0.4714977355	 0.120076
H	 2.7714393643	-0.0517242064	 4.3642878145	 0.245149
H	 4.3711951017	 0.7927490854	 1.3270486319	 0.105666
