16
gdb 113127	2.37518	1.2342	0.93799	4.8247	76.26	-0.2841	-0.0297	0.2544	1268.4304	0.12294	-396.917006	-396.907872	-396.906928	-396.951232	32.377	
C	 0.252833927	 1.556830026	 0.080451823	-0.38601
C	-0.2454583997	 0.134610811	-0.1537777536	-0.136889
N	 0.5432489605	-0.4897977646	-1.224618748	-0.098012
C	 1.7400841036	-1.2062813738	-0.869899282	-0.256617
C	 0.5154325413	-1.9581781544	-1.3551957638	 0.035436
C	-0.1955828367	-2.764265097	-0.3839985994	 0.261895
N	-0.778167911	-3.3897541178	 0.3940256018	-0.32679
C	 0.4669427052	-2.4616399321	-2.7125664738	 0.269808
N	 0.4497551017	-2.8638560769	-3.7950684292	-0.318397
H	 1.2932103258	 1.5605317228	 0.4210175273	 0.125217
H	 0.1916697227	 2.1449331847	-0.8387572612	 0.141162
H	-0.3546767606	 2.0434731129	 0.8483976227	 0.131247
H	-0.2019241722	-0.4475341057	 0.7790376471	 0.118791
H	-1.2881045846	 0.1429031131	-0.4861645253	 0.133823
H	 2.5836138879	-1.1142052343	-1.5471482102	 0.15826
H	 1.983380669	-1.3411698639	 0.1833548045	 0.147077
