18
gdb 88777	3.42709	1.25837	1.08802	2.8111	72.09	-0.2514	0.0214	0.2728	1148.8769	0.147955	-439.076355	-439.067993	-439.067049	-439.11038	30.249	
C	 0.1069045513	 1.5689753275	-0.2571106949	-0.431701
C	 0.0933266522	 0.0990108822	 0.0717382607	 0.078866
O	 1.3434636704	-0.6148391821	 0.0784831726	-0.256847
C	 0.6082238922	-0.5390807971	 1.2950107734	 0.0386
C	 1.2803116883	 0.0999790312	 2.4906667911	 0.044092
C	 2.4397362226	-0.7770431804	 3.0618369981	-0.19691
N	 3.6442095831	 0.0592566796	 2.9512507147	-0.255749
C	 3.2570827002	 1.1541210472	 2.4533520919	 0.126729
O	 1.9434588553	 1.3439541225	 2.1644237699	-0.220261
H	 0.9067053597	 2.0906439597	 0.2637933074	 0.152576
H	 0.2329936815	 1.7030127268	-1.33674484	 0.126345
H	-0.8521971131	 2.0197750718	 0.0215749001	 0.119241
H	-0.6991061263	-0.4580019784	-0.4352200341	 0.090101
H	 0.1309906138	-1.4801946713	 1.5896468359	 0.091892
H	 0.5191815921	 0.322103588	 3.2467634654	 0.099496
H	 2.2760401419	-1.059946797	 4.1061137901	 0.118977
H	 2.5749157836	-1.6970487014	 2.4837983349	 0.130752
H	 3.8879569114	 2.0063364411	 2.2277377927	 0.143801
