21
gdb 91490	2.47078	1.8216	1.46055	1.7772	82.26	-0.2433	0.0568	0.3001	1008.8205	0.184338	-386.985965	-386.978538	-386.977594	-387.017271	31.154	
C	 0.0100027066	 1.5338783954	 0.1212156089	-0.421712
C	 0.1094183665	 0.0115881619	 0.0349662921	 0.04655
C	 0.9992758991	-0.5449732676	-1.1176600585	-0.234777
C	 1.9300295642	-1.4290211668	-0.2907502653	-0.097203
C	 2.3269000421	-0.4394969532	 0.9259905128	-0.333813
C	 0.8055697099	-0.6475336253	 1.2691043567	 0.224667
C	-0.2672133157	-1.3065485345	 2.1834048145	-0.204219
O	-0.3523923488	-2.4173540878	 1.2019313144	-0.325081
C	 1.0351349851	-2.0540545145	 0.8421802377	 0.142002
H	 0.9921469397	 2.0084848133	 0.2194214569	 0.112228
H	-0.4633587402	 1.9436485445	-0.7776049137	 0.113919
H	-0.5946235652	 1.8419139924	 0.9818250717	 0.111215
H	-0.8979200917	-0.3998280526	-0.0594519991	 0.087711
H	 0.4266128255	-1.1129655451	-1.8558509033	 0.10437
H	 1.5483768044	 0.2393314811	-1.6493772707	 0.092886
H	 2.6958268658	-2.0087119733	-0.80982349	 0.068123
H	 3.0171772503	-0.8942640173	 1.6367305353	 0.112072
H	 2.6768687487	 0.5547157623	 0.6385420624	 0.104784
H	 0.0953620397	-1.6776216608	 3.1486611579	 0.107072
H	-1.2299853297	-0.8006891271	 2.2986828769	 0.11177
H	 1.6847495439	-2.6263068248	 1.5161259723	 0.077438
