20
gdb 117373	5.15782	0.73349	0.67721	1.253	77.73	-0.2534	0.0606	0.314	1722.7133	0.169337	-440.280135	-440.270352	-440.269408	-440.315928	34.972	
C	 0.0067989759	 1.4284131958	-0.1823528834	-0.390455
C	 0.2145120548	-0.0599080437	 0.023724147	-0.024819
O	 0.4398634941	-0.6437514099	-1.2695015948	-0.246013
C	 0.6438138216	-1.9631429974	-1.2903629693	 0.491865
N	 0.6283854634	-2.6927964964	-0.2537855271	-0.607634
O	 0.8499409135	-2.299368899	-2.590756613	-0.237735
C	 1.0044048562	-3.6668772297	-2.8687969835	 0.119476
C	 1.8215081393	-3.9844670905	-4.0767644289	-0.290713
C	 2.3614043343	-4.2957128162	-2.6961500678	-0.284233
H	 0.8862106761	 1.8855715327	-0.6446936588	 0.12841
H	-0.8566871734	 1.616539636	-0.8266017088	 0.129048
H	-0.1687810656	 1.9143412307	 0.7820140474	 0.119784
H	 1.0762212646	-0.2709256416	 0.6652511297	 0.119743
H	-0.6565307474	-0.5375459579	 0.4835358972	 0.121413
H	 0.8282508253	-3.6630428726	-0.4747745398	 0.226835
H	 0.1157087212	-4.2566280389	-2.6579921522	 0.10983
H	 1.4986869156	-4.8010934819	-4.7117968056	 0.122676
H	 2.2549709393	-3.1404028911	-4.6000809552	 0.135943
H	 3.1497886614	-3.6561102979	-2.316882411	 0.134627
H	 2.4151870397	-5.3292819203	-2.3726500923	 0.121953
