19
gdb 44954	2.48838	1.75962	1.52168	2.3804	73.34	-0.2334	-0.0203	0.2131	967.2266	0.162188	-423.070445	-423.063335	-423.062391	-423.101799	29.063	
O	-0.0194842488	 0.0023522539	 0.0692155199	-0.320083
C	-0.045254795	 1.2018345531	-0.0002879026	 0.406115
C	-1.2773652629	 2.1115079558	-0.0900477777	-0.34586
C	-0.6532843745	 3.5111588335	 0.0592599701	 0.080855
C	-0.4443027276	 3.9536754423	 1.5150374456	-0.200876
C	 0.3970280019	 2.9208481942	 2.2933078876	-0.226491
C	 1.6004996859	 2.4279215261	 1.4630104563	-0.207957
C	 1.161194893	 2.1552243938	 0.0124898283	-0.019662
O	 0.6398485575	 3.3536218962	-0.5585587453	-0.267707
H	-1.7336821224	 1.9925875323	-1.0782905845	 0.138577
H	-2.0219066027	 1.8395478239	 0.6620407426	 0.130235
H	-1.1858360978	 4.2758784874	-0.5098639563	 0.084978
H	 0.0746536454	 4.9185315416	 1.4917189859	 0.108348
H	-1.4097422173	 4.1159929051	 2.0079720409	 0.097557
H	 0.7368030577	 3.3469029219	 3.2422707627	 0.103256
H	-0.2318045212	 2.0613931691	 2.557488225	 0.114171
H	 2.3828043042	 3.1942596912	 1.4274750585	 0.109746
H	 2.0342259928	 1.5244895793	 1.9038541939	 0.114308
H	 1.9812009519	 1.7911850392	-0.6097563611	 0.100489
