22
gdb 8313	6.02342	0.88505	0.8556	0.9795	80.07	-0.2418	0.0876	0.3293	1463.874	0.199053	-350.198701	-350.189351	-350.188407	-350.233215	34.123	
C	-0.0409272227	 1.5116227873	 0.0753945795	-0.384218
C	 0.2761598428	 0.02889995	-0.0240297338	-0.03956
O	 0.3766608871	-0.4978340542	 1.2854034983	-0.252225
C	 0.6383791171	-1.8742588926	 1.3214267415	 0.172815
C	 2.0777329511	-2.3838038991	 1.0187961794	-0.26788
C	 1.9274530522	-3.3551982267	 2.226034911	 0.051472
C	 3.1242830751	-3.5914331115	 3.13380233	-0.402725
C	 0.7592690102	-2.4634161204	 2.7386917688	-0.271812
H	 0.7498823589	 2.036745206	 0.6187279013	 0.125142
H	-0.1290303882	 1.9523703929	-0.9221790176	 0.11219
H	-0.9827445192	 1.6666173315	 0.6094745141	 0.125556
H	-0.5143233581	-0.499759712	-0.5839785385	 0.083106
H	 1.218242003	-0.1274338352	-0.5743215714	 0.088297
H	-0.1037525496	-2.4199298951	 0.7163802492	 0.058697
H	 2.2912791406	-2.8086591493	 0.0348487529	 0.090733
H	 2.8046546266	-1.5940294374	 1.2371956522	 0.101094
H	 1.5329054955	-4.3164262502	 1.8778980836	 0.069979
H	 3.535183679	-2.641827902	 3.4948639357	 0.112007
H	 2.8478147953	-4.1894025553	 4.0096590907	 0.113241
H	 3.925531521	-4.1231538589	 2.6080391005	 0.112538
H	 1.1235270832	-1.6918579901	 3.424531034	 0.107275
H	-0.1185385709	-2.9450963977	 3.1754892687	 0.09428
