15
gdb 128319	5.50742	0.91997	0.79396	3.4459	74.79	-0.2192	-0.0706	0.1487	1374.6885	0.113755	-450.154458	-450.146025	-450.145081	-450.187945	29.601	
C	 0.1214277079	 1.4443518621	 0.0230507849	-0.320459
N	-0.1055149317	 0.018299573	-0.1180655727	-0.377097
C	 0.5412670538	-0.6941935616	-1.0837913137	 0.446985
N	 1.1591799869	-0.1136368811	-2.1256401006	-0.289752
N	 1.5899351887	-1.1898465455	-2.8177007993	-0.232069
C	 1.2437792101	-2.336962204	-2.1901061358	 0.275317
C	 1.6064290226	-3.6505229514	-2.740246988	 0.088642
O	 1.338245489	-4.7110327951	-2.2354220942	-0.241438
N	 0.5749953035	-2.0532688689	-1.0800910377	-0.363915
H	 1.1587555782	 1.6927250568	 0.2893648036	 0.122047
H	-0.1119087514	 1.9479867081	-0.9184128167	 0.151535
H	-0.5449984241	 1.8315076259	 0.7964977514	 0.127297
H	-0.2815653303	-0.5107643199	 0.720965988	 0.257235
H	 2.1036974631	-1.058943038	-3.6743116379	 0.285013
H	 2.1718397337	-3.5845297804	-3.6986640312	 0.07066
