25
gdb 96477	2.21717	1.41721	0.97909	0.2591	94.8	-0.2206	0.0303	0.2509	1340.2673	0.230586	-352.381454	-352.372037	-352.371092	-352.414968	37.539	
C	-0.0083049541	 1.6095037707	-0.0410190288	-0.420927
C	 0.0588508791	 0.0755247897	 0.0128723073	-0.052648
C	 0.7266516283	-0.488662686	-1.2670786156	-0.173583
C	 0.273389417	-1.9047600274	-1.6544342727	-0.191469
C	 0.589942378	-3.0269822893	-0.6551248705	-0.172246
C	-0.0366667687	-2.8355059071	 0.7418525551	-0.251976
C	 0.6480330715	-1.7778559168	 1.5744082047	-0.145892
C	 0.724579376	-0.4770976539	 1.2743411243	 0.326764
C	 1.509102778	 0.4610154394	 2.1578522936	-0.480791
H	 0.9876321772	 2.0599094851	-0.1086219036	 0.11514
H	-0.572478083	 1.9279742208	-0.9232914224	 0.10945
H	-0.5066546339	 2.0290020475	 0.8380367009	 0.112512
H	-0.980289141	-0.2862035691	 0.010543399	 0.078213
H	 0.4896957037	 0.1773022478	-2.1067143286	 0.084298
H	 1.8175791388	-0.4587335525	-1.1489609804	 0.089832
H	-0.8135041613	-1.8836639161	-1.8209802314	 0.089365
H	 0.7196773056	-2.1624061499	-2.6230724859	 0.088235
H	 0.2273751992	-3.9716940257	-1.0794673633	 0.086623
H	 1.6767927016	-3.1325085715	-0.5449215751	 0.092427
H	-1.1046122525	-2.5995357312	 0.6181483571	 0.099415
H	-0.0014041684	-3.7885447589	 1.279656297	 0.09098
H	 1.1512487874	-2.1273325654	 2.4739152289	 0.071182
H	 1.9584225984	-0.0793749645	 2.9949904255	 0.11396
H	 2.3190515957	 0.9553063615	 1.6061607874	 0.120314
H	 0.8853359673	 1.2623416327	 2.5711114576	 0.120824
