16
gdb 69129	2.81518	1.50981	1.15937	6.188	70.84	-0.2355	-0.0629	0.1726	1063.3757	0.124462	-437.929169	-437.921304	-437.92036	-437.961404	30.227	
C	 0.0071173288	 1.5456546426	 0.0222373119	-0.467561
C	 0.0395154309	 0.0398647138	 0.0327007044	 0.327665
C	-0.8460289614	-0.7934647152	 0.9118932034	-0.328212
C	 0.6766097882	-0.7783971074	 1.133063556	-0.2011
C	 1.4709458598	-1.8524322949	 0.4684032889	 0.327861
O	 2.2436744677	-2.6289040449	 0.9593385018	-0.293822
C	 1.1626298833	-1.7554314048	-1.0563231132	 0.285751
O	 1.4942373298	-2.5339987739	-1.9158369332	-0.34178
N	 0.4296060185	-0.6038170487	-1.2043480452	-0.358889
H	 0.9752871983	 1.9529622713	-0.2837621267	 0.139196
H	-0.7549860889	 1.91599912	-0.6730304648	 0.128239
H	-0.235492571	 1.9317129426	 1.0158787501	 0.131471
H	-1.4255494613	-0.3014314441	 1.685586551	 0.134145
H	-1.3022887221	-1.6846328281	 0.494664264	 0.136867
H	 1.0563755653	-0.3311771597	 2.0425308779	 0.12398
H	-0.0634864959	-0.4287207286	-2.0681772964	 0.256188
