20
gdb 95621	2.0603	1.82979	1.173	4.2072	76.3	-0.252	0.0254	0.2773	1110.2296	0.171852	-440.30618	-440.297308	-440.296364	-440.339551	33.91	
C	 0.0032484596	 1.5815176677	-0.0200703651	-0.393615
C	 0.1332554585	 0.0580946906	 0.015142451	-0.061802
C	 0.7868252994	-0.5119690798	-1.2528230459	 0.094918
O	 2.0644457399	 0.1047514193	-1.3863606811	-0.426987
C	 0.9157576724	-2.0332218908	-1.122028464	-0.253147
C	 1.7335664641	-2.35974286	 0.1193179828	-0.060794
O	 1.1969192727	-1.75946324	 1.3049459226	-0.262462
C	 0.8206759356	-0.4417939641	 1.2782956466	 0.395371
N	 0.9217842087	 0.2827391072	 2.3103759581	-0.505976
H	 0.9881638036	 2.0479562489	-0.0751981655	 0.140819
H	-0.5749541396	 1.8874578804	-0.8986235724	 0.095748
H	-0.4958979757	 1.9441094074	 0.878760627	 0.137666
H	-0.8749023028	-0.3819153273	 0.0463721423	 0.100316
H	 0.1512155711	-0.2579106806	-2.1143266262	 0.067014
H	 2.4476271315	-0.1697635585	-2.2252942684	 0.285548
H	-0.0814230224	-2.4835760652	-1.0545508532	 0.109422
H	 1.4070171293	-2.4602534743	-2.0053168222	 0.092401
H	 1.7522878119	-3.4332452938	 0.3213331129	 0.113388
H	 2.7647112068	-2.0120611283	-0.0152271307	 0.115218
H	 1.3673970354	-0.2494759888	 3.0609077014	 0.216955
