21
gdb 107921	3.84122	1.13031	1.09008	1.5593	82.15	-0.2229	0.0839	0.3068	1247.3929	0.181722	-387.034682	-387.026044	-387.0251	-387.067808	33.578	
C	 0.2560052573	 1.5021578163	 0.0764060982	-0.3752
C	-0.0883456877	 0.0294646663	-0.1836107436	-0.30988
C	 0.683724846	-0.5436352431	-1.3259587669	 0.490916
O	 0.4864948468	 0.0035891909	-2.6393307607	-0.333591
C	 1.2134780167	-1.1519603897	-3.1392601747	 0.059939
C	 0.9577360196	-1.9314324456	-1.7966637771	-0.225678
C	 2.1267844622	-1.0893898616	-1.2763871165	-0.158476
C	 2.6795667631	-0.8873988979	-2.6913964216	 0.006017
C	 3.6754018928	-1.949484575	-3.1394399563	-0.407372
H	 1.309396392	 1.6167937153	 0.3507520332	 0.117211
H	 0.0772113625	 2.1008529603	-0.8210234053	 0.137981
H	-0.3544489059	 1.9095096188	 0.8875458538	 0.109383
H	 0.1153262741	-0.5755245856	 0.708271714	 0.103243
H	-1.1599162829	-0.0713711789	-0.3952828604	 0.110225
H	 0.9444863474	-1.4359126972	-4.1556751002	 0.080958
H	 0.5646720367	-2.9037721612	-1.5335479011	 0.094605
H	 2.6721026905	-1.2085105278	-0.3474324379	 0.083406
H	 3.0378970439	 0.118826385	-2.9394360273	 0.070429
H	 3.3028916925	-2.9574572537	-2.9261343193	 0.115767
H	 3.8665252683	-1.8781827097	-4.2160281653	 0.113344
H	 4.6348412044	-1.833984526	-2.624539525	 0.116775
