15
gdb 19315	7.25524	0.80555	0.80215	2.0042	73.48	-0.2445	0.0147	0.2593	1420.4514	0.118517	-362.570889	-362.563017	-362.562073	-362.605037	27.369	
C	-0.2797616336	 1.3142809911	-0.3221757867	-0.219419
N	 0.9810299041	 1.2617592563	 0.4197107074	-0.294569
C	 0.2602217963	-0.0040912414	 0.1312504361	-0.228394
C	-0.3079122986	-0.7141973382	 1.2419083656	 0.164123
C	-0.800588978	-1.3223461431	 2.1585553262	 0.104928
C	-1.3668748954	-2.065336659	 3.2495671874	-0.118885
C	-1.8657045679	-1.3971271689	 4.4683155276	-0.158885
O	-2.7751091921	-1.9124177485	 3.5057528966	-0.215988
H	-1.1096112806	 1.7544290935	 0.2212662879	 0.135077
H	-0.2653131298	 1.520207051	-1.38930587	 0.119379
H	 1.7671185628	 1.3456002168	-0.2203081943	 0.237554
H	 0.6739291935	-0.6387967409	-0.6496375249	 0.112649
H	-1.016376975	-3.0922747191	 3.3479688525	 0.116571
H	-1.8264085907	-1.9300261363	 5.4177264645	 0.1189
H	-1.8103496651	-0.3121497933	 4.5312392641	 0.126959
