16
gdb 133523	2.11585	1.472	1.31806	1.896	62.91	-0.276	0.0396	0.3156	1049.5536	0.117463	-532.235587	-532.22603	-532.225086	-532.269669	35.184	
C	-0.0300876527	 1.5534090158	 0.0177708964	-0.422471
C	-0.0095684403	 0.0077774472	 0.0290482401	-0.099763
C	 0.7434175886	-0.5211150003	 1.2711480155	-0.42247
C	-1.3785706242	-0.513852346	 0.0105319138	 0.344104
C	-2.5073860146	-0.923050193	 0.0299353541	-0.474263
C	 0.7163100732	-0.4873144613	-1.2383523786	 0.298834
F	 1.9816175386	-0.034726702	-1.2707488126	-0.085773
F	 0.7690160282	-1.824039598	-1.288963228	-0.076678
F	 0.1113412885	-0.0615788261	-2.3541190011	-0.076677
H	 0.9903543271	 1.9445847011	 0.0172987478	 0.13197
H	-0.5534462366	 1.9287442203	-0.8634500376	 0.14237
H	-0.5462633319	 1.9166080736	 0.9088771041	 0.131799
H	 0.2357585821	-0.1809536145	 2.1761314402	 0.131799
H	 0.7669404326	-1.6123339847	 1.2759416875	 0.142374
H	 1.7692790558	-0.1444815372	 1.2795421178	 0.131966
H	-3.5032532042	-1.2923800849	 0.0333388108	 0.202881
