16
gdb 56389	3.28978	0.72913	0.61652	3.4495	81.6	-0.2549	-0.0214	0.2335	1746.9348	0.120959	-400.716908	-400.706315	-400.705371	-400.754875	36.119	
C	-0.2643411379	 1.627373609	-0.2495584295	-0.379683
C	-0.031536145	 0.1039588394	-0.076898305	-0.333099
C	-1.2942647143	-0.6076756664	 0.1499787301	 0.340555
C	-2.3392979407	-1.1653782362	 0.3472690711	-0.461527
C	 0.7015940407	-0.4489156684	-1.2198411125	 0.093127
C	 1.3199033063	-0.876009513	-2.1613628671	 0.032893
C	 2.1138082983	-1.3520481442	-3.2867410019	 0.26363
N	 1.5487909627	-2.4029097533	-3.9485746043	-0.51988
O	 3.1762413603	-0.8524028535	-3.6023377456	-0.334319
H	 0.6931352391	 2.1374488956	-0.3769766856	 0.137953
H	-0.8851994576	 1.8185516048	-1.1272107877	 0.141904
H	-0.7710587884	 2.0247356107	 0.6329157397	 0.132462
H	 0.5987064258	-0.0358402099	 0.8136110253	 0.147843
H	-3.2593657286	-1.6663562235	 0.5216517795	 0.202978
H	 0.6816079965	-2.8115743356	-3.6476427014	 0.268831
H	 2.0474714326	-2.8020972056	-4.7266423451	 0.266332
