19
gdb 105311	2.34169	1.49091	1.13927	3.5085	79.29	-0.2495	0.0334	0.2829	1144.2545	0.159653	-382.043531	-382.034871	-382.033927	-382.07671	32.867	
C	 0.0957374783	 1.5173206788	-0.0986764314	-0.397163
C	 0.0029995939	 0.0043503889	 0.1153048354	-0.242212
C	-1.4295653752	-0.5467592923	 0.0372485994	 0.167929
C	-2.1653628635	-0.514095792	-1.3745093094	-0.276381
C	-2.2762601736	-2.0385607888	-1.3124108044	-0.027791
N	-0.8866016528	-2.5465265787	-1.2217567311	-0.339435
C	-1.5837902125	-2.0919230027	-0.0006440221	-0.100496
C	-2.2777578138	 0.0253838519	 1.0791187007	 0.248044
N	-2.9427892352	 0.4754613463	 1.9115730809	-0.353092
H	 1.1367347566	 1.8480624723	-0.0415736195	 0.120022
H	-0.2903846677	 1.8070198506	-1.0818019537	 0.119498
H	-0.4730142774	 2.0646793127	 0.6593794255	 0.139363
H	 0.5856365944	-0.5296956993	-0.6400379575	 0.130279
H	 0.423230106	-0.2595560837	 1.0933511424	 0.108115
H	-3.1243349566	 0.0023441112	-1.3302658363	 0.132241
H	-1.5637805885	-0.1229810837	-2.1978238433	 0.119003
H	-3.0733169359	-2.658519329	-1.7013715739	 0.104975
H	-0.9284694557	-3.5650791605	-1.2248291013	 0.236976
H	-1.7236779309	-2.741948042	 0.8536397694	 0.110127
