19
gdb 61769	3.3798	0.81394	0.75792	2.6743	77.21	-0.244	-0.0391	0.2049	1524.1167	0.156036	-419.2086	-419.198198	-419.197253	-419.244706	36.127	
C	-0.1484670537	 1.5840887151	 0.2406369328	-0.401767
C	 0.0255410629	 0.0774215782	-0.0572542363	-0.114977
C	-1.2795427655	-0.604724554	 0.031852499	 0.291501
N	-2.3122230344	-1.1165986125	 0.1097628293	-0.322546
N	 0.6682487604	-0.2699545792	-1.3267941135	-0.069386
C	-0.0311467188	 0.1945665393	-2.5208973729	-0.350753
C	 2.0920498957	 0.0076117352	-1.3674423776	-0.245382
C	 2.7998088704	-0.9155311319	-2.3543242204	 0.153746
O	 3.7984849572	-0.6228123418	-2.9545393269	-0.232204
H	 0.8238599773	 2.0831846906	 0.2114410785	 0.131972
H	-0.8102582715	 2.059629729	-0.4866224018	 0.143033
H	-0.579327423	 1.725572513	 1.2352034293	 0.143219
H	 0.6505220839	-0.3549114143	 0.7341495594	 0.131248
H	 0.021523455	 1.28645052	-2.6668710732	 0.110825
H	 0.4101851198	-0.2783534037	-3.4035812347	 0.136918
H	-1.081530073	-0.1036145444	-2.4743324738	 0.15253
H	 2.3579288193	 1.0495272107	-1.6126273093	 0.116642
H	 2.5279612168	-0.214969998	-0.3831564158	 0.130683
H	 2.3143427812	-1.9128893512	-2.4502035524	 0.094697
