16
gdb 71144	2.97555	1.82026	1.42517	5.2975	67.63	-0.2742	0.0095	0.2837	925.6425	0.124955	-437.888946	-437.882035	-437.881091	-437.920028	27.587	
C	 0.0448658529	 1.4870891764	-0.0826189509	-0.487927
C	 0.0129046965	-0.0097085973	 0.0458945653	 0.383458
C	-1.3177313817	-0.7722130623	 0.3541931542	-0.289411
C	-0.4989044316	-1.6934594307	 1.26256307	-0.05593
C	 0.666371043	-0.7706585536	 1.2367759764	-0.102272
N	 0.8048219233	-2.0964854387	 0.6408707338	-0.187246
C	 0.8910356979	-1.9232697051	-0.7877144332	 0.44763
O	 1.2012198617	-2.7569298759	-1.5779964759	-0.336237
O	 0.5985280952	-0.6294553132	-1.1172247029	-0.260829
H	 1.0725661352	 1.8353900849	-0.2218100642	 0.14041
H	-0.5488035102	 1.814543219	-0.940731882	 0.143037
H	-0.3630054754	 1.9532193235	 0.8187640072	 0.128521
H	-2.0008709589	-0.1611798547	 0.9500032348	 0.119787
H	-1.844781704	-1.1988413156	-0.5035883651	 0.123486
H	-0.8606564033	-2.343150207	 2.0489267713	 0.120474
H	 1.3636174994	-0.4285587998	 1.9916710714	 0.113049
