25
gdb 60366	3.16998	0.6183	0.59321	2.8056	90.86	-0.244	-0.0174	0.2266	2025.8463	0.225437	-389.517272	-389.505501	-389.504557	-389.555751	41.593	
C	 0.22317814	 1.5431692522	-0.0393422301	-0.381417
C	 0.0410782175	 0.0201618688	 0.029361294	 0.040072
C	 0.774822727	-0.5558167755	 1.2480680233	-0.389868
C	-1.4422168287	-0.3962509146	 0.0497788008	-0.175776
C	-2.2204183589	-0.0364906197	-1.2236301275	-0.206245
C	-3.6400119248	-0.6455330212	-1.2883692635	-0.060837
C	-4.5746425768	-0.118550469	-0.1855051945	-0.408579
C	-4.2397759198	-0.320578765	-2.6420441898	 0.159298
O	-4.5073909787	-1.1220786416	-3.4993151975	-0.250724
H	 1.2852997026	 1.8091145576	-0.0393565397	 0.112249
H	-0.2224964084	 1.9732614759	-0.9410162071	 0.113773
H	-0.2393663782	 2.0300685887	 0.8281444956	 0.110299
H	 0.4948126278	-0.4156100585	-0.8729372269	 0.073382
H	 0.3589029749	-0.1569469257	 2.1812827355	 0.111218
H	 0.6910212299	-1.6470395485	 1.2868880622	 0.110375
H	 1.839564294	-0.3013352689	 1.2260274598	 0.110684
H	-1.4975654546	-1.4830136247	 0.1983657974	 0.093494
H	-1.9228562722	 0.0571321636	 0.9265414592	 0.095486
H	-2.2976810932	 1.0536027217	-1.3256191262	 0.100862
H	-1.6524174255	-0.3888448333	-2.0947973278	 0.107155
H	-3.5691411578	-1.737431383	-1.2277918233	 0.092791
H	-5.5726182458	-0.5594356151	-0.2712434278	 0.127951
H	-4.1887537891	-0.3609517481	 0.8076307977	 0.130123
H	-4.6807950877	 0.9708963724	-0.2469379332	 0.119738
H	-4.4200327437	 0.7709129315	-2.8036545106	 0.064495
