15
gdb 52030	2.91215	0.81475	0.66262	1.7193	69.51	-0.2637	-0.0503	0.2134	1585.7462	0.106454	-457.716128	-457.706001	-457.705056	-457.753305	33.247	
O	-0.8637193454	 0.8393705597	 0.7339570519	-0.232699
C	-0.1388892941	 1.1362673189	-0.1766759032	 0.142401
C	 0.9404284279	 2.1996825868	-0.0707310382	-0.152674
O	 1.6941071722	 2.1727697227	-1.2651901892	-0.254036
C	 2.7159044184	 3.1494892902	-1.3441203205	-0.116222
C	 3.4566921041	 2.8595982192	-2.6637013598	 0.157433
O	 4.6382754264	 2.9909899194	-2.8057139741	-0.227428
C	 2.1994233149	 4.5196456444	-1.3797602603	 0.321433
C	 1.7710565267	 5.6407301645	-1.4483049223	-0.461533
H	-0.2041774313	 0.6607628712	-1.1796511446	 0.100095
H	 0.4598236775	 3.178279375	 0.0805335235	 0.142387
H	 1.564746064	 1.9961050947	 0.8128147235	 0.131324
H	 3.438160604	 3.0410922688	-0.5213069817	 0.124476
H	 2.7754582471	 2.5180282347	-3.4704550508	 0.107889
H	 1.3996984178	 6.6353511899	-1.4972473643	 0.217154
