17
gdb 51515	4.85916	0.8395	0.75718	2.5058	76.31	-0.2443	-0.0537	0.1906	1438.5619	0.134913	-421.870202	-421.861626	-421.860682	-421.905353	30.429	
O	-0.2128195239	-0.0593530162	-0.2333331606	-0.234203
C	-0.0780312954	 1.1211744127	-0.0408013762	 0.155631
C	 1.2449507445	 1.8537274672	-0.0286672684	-0.284356
C	 1.3483277534	 2.8511099223	-1.208384392	-0.061659
C	 2.612665153	 3.7370689042	-1.1753167386	-0.361202
C	 3.2749000548	 3.5696409577	-2.5544189891	 0.382303
O	 4.2546179116	 4.1575804238	-2.9456138215	-0.324019
C	 2.4817572876	 2.554289766	-3.2876382131	-0.184646
C	 1.435881331	 2.1600838547	-2.5543649667	-0.042248
H	-0.9646243254	 1.7784211186	 0.1261506573	 0.076035
H	 1.3116555025	 2.4188420752	 0.9104036394	 0.123943
H	 2.0598691821	 1.1249124543	-0.0619338716	 0.128186
H	 0.445513261	 3.4786055282	-1.1915169746	 0.100461
H	 2.4008387062	 4.7927405655	-0.9872343979	 0.135409
H	 3.3218749798	 3.4124075333	-0.4067453633	 0.136552
H	 2.7493171692	 2.2145389944	-4.2798848609	 0.1217
H	 0.702094338	 1.4195917281	-2.8562709622	 0.13211
