16
gdb 128043	6.60922	0.78438	0.70754	3.9307	77.17	-0.2288	0.0071	0.2359	1554.7525	0.124957	-434.078323	-434.069877	-434.068933	-434.112526	29.997	
C	-0.0328819004	 1.3881559506	-0.0058660251	-0.315191
N	 0.2603835006	-0.025171315	 0.1186209067	-0.202313
C	 0.5604904339	-0.6410869264	-0.9325252347	 0.11388
O	 0.8050262399	-1.9832401034	-0.8640972662	-0.238337
C	 1.2895768184	-2.610607517	-1.9662154746	 0.46158
N	 1.8586998808	-1.9718680352	-2.9786007798	-0.316813
N	 2.1964950481	-2.9696606044	-3.8291068242	-0.196166
C	 1.8668712239	-4.1966624532	-3.3660509053	 0.002771
C	 1.2640126372	-4.010383815	-2.1408212256	-0.333161
H	 0.6459973451	 1.9585614799	 0.6378650871	 0.129915
H	 0.0526315219	 1.7771892843	-1.0329983803	 0.10058
H	-1.0497401182	 1.5825005012	 0.3536016333	 0.129124
H	 0.6427487438	-0.2240961075	-1.9405586757	 0.12143
H	 2.6606925524	-2.7338733297	-4.6884983094	 0.27976
H	 2.0794900562	-5.0914986466	-3.9292639743	 0.142136
H	 0.8625910263	-4.7522610226	-1.4724404521	 0.120803
