18
gdb 32160	2.74604	1.23899	0.87321	2.278	83.99	-0.2008	0.0032	0.204	1299.8497	0.149702	-402.012151	-402.003726	-402.002782	-402.045329	32.568	
N	-0.1336284318	 1.3505472394	-0.076526879	-0.589171
C	-0.0346162487	-0.041669835	-0.0542854378	 0.334526
C	-1.1836212333	-0.8390303182	-0.1327784738	-0.274012
C	-1.1023357372	-2.2277991888	-0.0489550415	 0.264612
C	-2.3658932097	-3.0628450414	-0.1083722674	-0.151644
O	-3.3877192316	-2.5026986922	-0.9194533142	-0.408223
C	 0.1435558055	-2.8387197122	 0.1072403955	-0.237157
C	 1.2895479745	-2.0518157453	 0.1888909938	-0.077892
C	 1.2098089896	-0.6673428425	 0.1085559753	-0.194599
H	 0.6977520049	 1.8317022069	-0.3869028627	 0.244865
H	-0.9610958691	 1.7097038757	-0.5297546563	 0.245699
H	-2.1573297278	-0.3761834061	-0.2616452656	 0.091604
H	-2.1140135924	-4.0860019757	-0.4276853306	 0.092208
H	-2.8102253812	-3.1444426075	 0.891213894	 0.125442
H	-3.0155924727	-2.3726277704	-1.7983331905	 0.28088
H	 0.2160018062	-3.9204724704	 0.1594358017	 0.08194
H	 2.2607974699	-2.5222352183	 0.3062341195	 0.091514
H	 2.1096949449	-0.0623717778	 0.1709694797	 0.079408
