14
gdb 25892	4.35071	1.09595	0.87608	4.5288	65.91	-0.2209	-0.013	0.2079	1224.7421	0.102368	-470.07877	-470.070553	-470.069609	-470.111711	30.202	
N	-0.1135794445	 1.3114671201	-0.0055550152	-0.539238
C	 0.0372887725	-0.0399837713	-0.0160051023	 0.308889
O	 1.1136475916	-0.612158105	-0.0502785579	-0.374043
C	-1.249048602	-0.7763164662	 0.0162194211	 0.183052
C	-1.4166354332	-2.1165263333	 0.0188755178	-0.106121
O	-2.7703416184	-2.367909533	 0.0555031314	-0.179527
C	-3.3383422242	-1.1376444847	 0.0712405227	 0.461134
N	-4.7019132021	-1.0955372786	 0.175061724	-0.592343
N	-2.500375163	-0.1489354802	 0.0456713886	-0.410251
H	 0.7066502	 1.8927375066	-0.0109805701	 0.25987
H	-1.0332157257	 1.7174619734	 0.0388173124	 0.272575
H	-0.757644075	-2.9646332066	-0.0030930411	 0.171446
H	-5.1870855836	-1.8913774355	-0.2114828734	 0.270153
H	-5.0989900423	-0.2055670857	-0.0848903581	 0.274402
