18
gdb 37488	3.82148	1.99299	1.68505	0.9379	81.56	-0.2004	-0.036	0.1643	841.1612	0.150469	-364.688768	-364.682889	-364.681945	-364.718423	26.204	
C	-0.0908545742	 1.5438703194	-0.0542169027	-0.256632
C	 1.4286273626	 1.4505952344	 0.1082219009	-0.037185
C	 1.3977017343	 0.0321666668	 0.7215610669	-0.014784
C	-0.0619130804	 0.0166417204	-0.2349936777	-0.103298
C	 0.7832574526	-0.3244606722	-1.4078021321	 0.104659
C	 1.216724211	-1.5894233773	-1.5840974397	-0.163518
C	 2.5800194781	-1.6480084099	-0.8873902831	-0.198762
N	 2.5901292093	-0.3711673407	-0.0886577329	-0.110407
C	 1.9988726846	 0.5961179437	-1.0582371418	-0.050859
H	-0.5774912354	 1.8438672557	 0.8791043441	 0.099116
H	-0.4919417834	 2.1372175428	-0.8814059342	 0.099025
H	 2.0564442499	 2.2482404824	 0.5006147534	 0.076231
H	 1.3238022743	-0.2498042125	 1.7712953167	 0.081168
H	-0.8918814271	-0.6301558585	 0.0423304148	 0.075885
H	 0.5484365307	-2.4453488487	-1.5613278135	 0.094945
H	 2.6326250976	-2.5431320803	-0.2578971349	 0.115092
H	 3.4819697176	-1.6300941632	-1.5116129498	 0.117556
H	 2.6266596178	 0.9826752575	-1.8624685645	 0.071768
