21
gdb 96102	2.62928	1.30981	0.99226	3.0625	77.93	-0.2591	0.0722	0.3314	1235.6326	0.183661	-424.227958	-424.21955	-424.218605	-424.260653	33.468	
O	-0.1171436211	 1.440648885	 0.0396579764	-0.437305
C	 0.0273166428	 0.0269226543	 0.0184787415	 0.128421
C	 0.7922799378	-0.4979900928	 1.2403837277	-0.215692
C	 0.8377549371	-2.0334264899	 1.2593686981	-0.214934
C	-0.5778234819	-2.6323273772	 1.2042755727	-0.269439
C	-1.3460419413	-2.0762561051	 0.0207402009	 0.450166
C	-1.4799911896	-2.8662279658	-1.2140114828	-0.243285
O	-2.5726231248	-2.7394528485	-0.2986779393	-0.296827
C	-1.3852591258	-0.5613301446	-0.0333865954	-0.271083
H	 0.7627010436	 1.8290899282	 0.0800018432	 0.278807
H	 0.5683630064	-0.2846031081	-0.8925121183	 0.061994
H	 1.8103441478	-0.0876256	 1.2450568188	 0.082081
H	 0.2923870374	-0.1230655836	 2.1429781337	 0.10439
H	 1.4176724911	-2.392528686	 0.3986508255	 0.098251
H	 1.3602464904	-2.3851976104	 2.1547356217	 0.10052
H	-0.5445208941	-3.7245104311	 1.1492233969	 0.101098
H	-1.1209840568	-2.3747196988	 2.1236452048	 0.105112
H	-1.6119328418	-2.3610696972	-2.1703801971	 0.110236
H	-1.035289429	-3.8592671617	-1.2746367511	 0.108338
H	-1.9472444985	-0.1811510724	 0.8295722758	 0.110523
H	-1.9045346597	-0.2205968843	-0.9332430336	 0.108626
