14
gdb 9106	6.73801	0.89766	0.79603	2.0718	74.11	-0.2538	-0.066	0.1878	1357.9222	0.106944	-374.91787	-374.909415	-374.90847	-374.951321	28.957	
C	 0.1293008409	 1.7330542371	 0.7534545389	-0.314565
N	-0.0049028057	 0.3338438907	 1.1029436431	-0.234678
C	 0.1310287336	-0.5163106954	 0.1770917844	 0.119789
N	 0.0114308381	-1.8718542859	 0.4616672097	-0.340144
C	 0.1404360623	-2.8767428483	-0.4681251967	 0.31366
N	 0.3862282035	-2.6570246678	-1.7020462301	-0.5067
C	-0.030602013	-4.2073992661	 0.092991826	 0.225294
N	-0.1594546482	-5.2828843027	 0.497306334	-0.310404
H	 0.9342564955	 2.1812241644	 1.3469951782	 0.134018
H	 0.3410920817	 1.9080895379	-0.3124840088	 0.107191
H	-0.7919884231	 2.2645494496	 1.0177052524	 0.134017
H	 0.3419385102	-0.3082486789	-0.8747383799	 0.143881
H	-0.183624072	-2.1094266144	 1.4230938996	 0.279124
H	 0.4447224661	-3.5249927403	-2.227569811	 0.249515
