22
gdb 101374	3.14772	1.06448	0.92504	1.4012	82.59	-0.226	0.0814	0.3074	1366.3448	0.193423	-404.291923	-404.282364	-404.281419	-404.326737	35.512	
C	 0.841643432	 1.2616845367	 0.8143852294	-0.233029
O	 0.7635468604	-0.1164453662	 0.5421808589	-0.251942
C	 0.3532953287	-0.4400204294	-0.7845250974	 0.131798
C	 1.4894583737	-0.257575563	-1.7948235119	-0.41148
C	-0.1339277849	-1.8805482879	-0.7271164934	 0.018278
C	-1.4231252179	-2.1968021772	 0.1152247674	-0.246754
C	-2.0623140443	-2.7685002116	-1.1544103954	-0.043421
N	-2.0959582591	-1.6568021462	-2.1371743403	-0.33199
C	-0.8524186376	-2.4519676811	-1.9602677933	-0.078712
H	 1.6358515041	 1.7652681665	 0.2430190092	 0.101983
H	-0.1097671669	 1.7741787017	 0.6007757362	 0.102899
H	 1.0659548675	 1.3684315374	 1.879248661	 0.122141
H	-0.4941017431	 0.2010703531	-1.0700735384	 0.082219
H	 1.1531878204	-0.5291726874	-2.8004711044	 0.119071
H	 1.8321115519	 0.7804757813	-1.8337406852	 0.113873
H	 2.3435678386	-0.889362127	-1.5287507934	 0.115935
H	 0.6921963681	-2.5280806676	-0.4175529886	 0.076199
H	-1.2412769962	-2.9438242269	 0.8898773459	 0.102207
H	-1.9376658666	-1.3368075364	 0.549718036	 0.106855
H	-2.7543459924	-3.5972967476	-1.2398630174	 0.090341
H	-2.554095802	-2.0138790765	-2.9755162844	 0.225697
H	-0.4133080543	-2.979245885	-2.7987662106	 0.08783
