19
gdb 32627	2.93831	1.26094	0.95973	0.4633	79.3	-0.176	0.053	0.229	1254.0188	0.159208	-419.233955	-419.224087	-419.223143	-419.269407	35.69	
C	-0.1484825038	 1.5632121013	-0.0113991107	-0.370232
C	 0.0190215982	 0.0410070585	-0.0127577561	-0.146078
N	 0.6978745091	-0.4602853329	-1.1952082623	-0.0021
C	 0.1040573646	-0.7786898343	-2.3826115725	-0.093456
C	 1.0793980438	-1.1595459153	-3.2832792719	-0.311863
C	 2.3184718935	-1.0549081322	-2.6022148242	 0.25748
O	 3.580516982	-1.3291817647	-3.0611962798	-0.458646
C	 2.0731007405	-0.6188066843	-1.3162139627	 0.161788
N	 2.9281059929	-0.3816109482	-0.2173965013	-0.618097
H	 0.8266128164	 2.0581280209	-0.0302971586	 0.126425
H	-0.7184200906	 1.8967707806	-0.8837398116	 0.12258
H	-0.6785994043	 1.8858811578	 0.8906187502	 0.114346
H	 0.6060807132	-0.2704917973	 0.8540793859	 0.134503
H	-0.9579334919	-0.4498060995	 0.0447506249	 0.108349
H	-0.9660499973	-0.710677188	-2.4987659663	 0.110507
H	 0.9179218133	-1.4806414702	-4.3018019176	 0.084548
H	 3.5070388887	-1.6720724981	-3.955917549	 0.293132
H	 3.5068057923	 0.4418181673	-0.3571081799	 0.241172
H	 3.5624360994	-1.1618234714	-0.0792940264	 0.245644
