18
gdb 40857	5.05677	1.24911	1.15443	2.3634	75.82	-0.2375	0.0722	0.3097	1077.2881	0.148634	-401.814662	-401.807693	-401.806749	-401.846433	27.352	
C	-0.1029669021	 1.610157041	-0.0549034636	-0.186807
C	 1.3983327933	 1.3484766153	-0.0246986334	-0.066922
C	 1.1495197387	 0.1360719071	 0.9256431334	-0.104861
N	-0.0905381131	 0.0838673586	-0.0147909049	-0.162931
C	 1.1781965282	 0.0878648743	-0.917659704	-0.104841
C	 1.9050692657	-0.8509464532	 0.040708166	 0.349109
C	 3.4166208402	-1.1258228664	 0.071359051	-0.163445
O	 3.1869767642	-2.5490486427	 0.1048045679	-0.277208
C	 1.7512310494	-2.3780321793	 0.078200058	-0.150185
H	-0.568151418	 2.0648459917	 0.8259153013	 0.103787
H	-0.540169847	 2.0178136997	-0.9723185649	 0.103787
H	 2.2480285052	 2.0393337621	-0.0295454206	 0.071376
H	 1.0204025662	 0.148602339	 2.0100506121	 0.085204
H	 1.0828660403	 0.0436016348	-2.0047295621	 0.085207
H	 3.9779579836	-0.8184880477	-0.8211038855	 0.101987
H	 3.9501752397	-0.7720697926	 0.9636747421	 0.101981
H	 1.269912187	-2.7881673209	 0.9746275688	 0.107376
H	 1.2974202684	-2.834787101	-0.8099921114	 0.107385
