16
gdb 133568	3.02982	1.26236	1.26073	2.3635	60.95	-0.2725	0.079	0.3515	1044.2491	0.121892	-532.229037	-532.221451	-532.220506	-532.262126	28.871	
F	 0.5683442287	 0.2037729761	-0.0453934892	-0.079431
C	-0.0222175234	 1.409675269	-0.0137722461	 0.266986
F	 0.9188784437	 2.3155651588	-0.3351066874	-0.078456
F	-0.9340249737	 1.4256414856	-1.002667375	-0.078462
C	-0.662561222	 1.7558567383	 1.3022195768	-0.157445
C	-1.451266817	 0.8484043187	 2.2026964702	-0.080255
C	-0.8443606534	-0.5560338472	 2.3418172099	-0.230098
C	 0.4967230362	 0.0849036768	 2.826455243	-0.230013
C	-0.130727255	 1.4795031934	 2.6796282303	-0.080285
H	-1.1056926361	 2.7455232911	 1.2195503819	 0.118267
H	-2.4680932878	 1.1121367514	 2.4685929219	 0.094514
H	-1.3317286222	-1.12376317	 3.1368607134	 0.105986
H	-0.81132436	-1.1709884194	 1.4413798196	 0.114103
H	 0.7027843986	-0.1510477452	 3.8723095657	 0.105968
H	 1.3926377296	-0.1179332145	 2.2380629329	 0.114106
H	 0.022207674	 2.3023050471	 3.367961262	 0.094517
