20
gdb 88757	3.87068	1.06037	0.93372	1.4051	79.46	-0.2321	0.0713	0.3035	1311.5655	0.171041	-403.074932	-403.066451	-403.065507	-403.108754	32.327	
C	-0.1241593304	 1.5360837984	-0.0872244999	-0.394248
C	-0.0177299399	 0.0360604054	 0.0499346709	 0.009863
N	 1.3189105319	-0.5676917009	-0.0715398826	-0.346985
C	 0.5955133529	-0.6673761097	 1.2125916947	-0.050163
C	 1.2297379795	 0.0463540543	 2.3703688061	 0.154101
O	 0.2789682079	 0.4375428013	 3.4114206936	-0.31241
C	 1.1082817642	-0.1637193349	 4.4093875227	 0.113101
C	 1.183332967	-1.6427343025	 4.2161069654	-0.300417
C	 2.0696988863	-0.7267043396	 3.391091307	-0.15579
H	 0.7433555379	 2.0397300444	 0.343637804	 0.128321
H	-0.1808069416	 1.8183906874	-1.143993538	 0.116638
H	-1.0243947973	 1.9069191925	 0.4134688499	 0.125856
H	-0.8387006556	-0.5079328575	-0.4168516995	 0.08188
H	 1.2756809168	-1.4520492787	-0.5696029522	 0.231934
H	 0.1568928102	-1.6301849563	 1.4677420368	 0.078534
H	 1.7678023924	 0.9315692244	 2.0164050626	 0.087091
H	 1.249407588	 0.3681632223	 5.3427867412	 0.102067
H	 1.7156927823	-2.1908588449	 4.987556138	 0.113969
H	 0.3403328287	-2.1695863867	 3.7784873993	 0.114389
H	 3.148775749	-0.7914804787	 3.3939272096	 0.102269
