19
gdb 17826	4.57268	1.26527	1.09546	1.7607	71.86	-0.229	0.0769	0.3059	1111.7605	0.165403	-364.999739	-364.991518	-364.990573	-365.033251	29.574	
C	-0.522059675	 1.2502728409	 0.1071550214	-0.314882
N	 0.0534016249	-0.085987827	 0.0708922472	-0.083382
C	 1.3711751368	-0.2437833877	-0.5283291031	-0.263118
C	 1.1798217693	-0.430288563	 0.9416843683	 0.002512
C	 1.7953947237	 0.5187039865	 1.9353998863	-0.040943
C	 1.2575485106	 0.4987212453	 3.3880212703	-0.086969
O	 2.5669304961	 0.2157932583	 3.9198313503	-0.27077
C	 3.121204105	 0.0689214357	 2.5979890574	-0.089832
H	 0.2106243347	 2.0685583041	 0.1872292259	 0.100657
H	-1.0928101479	 1.4061286532	-0.8138370691	 0.126701
H	-1.2165858944	 1.3255868594	 0.9503188634	 0.12434
H	 1.5028649986	-1.0968168196	-1.189229716	 0.115921
H	 1.8979288448	 0.657953964	-0.8428503608	 0.103235
H	 1.1163755395	-1.4539321093	 1.3141180739	 0.090872
H	 1.8642631432	 1.5296201855	 1.5313153389	 0.080552
H	 0.8494663339	 1.4396589227	 3.7752172278	 0.102278
H	 0.5451021297	-0.3114257648	 3.5971691121	 0.100844
H	 3.4059409798	-0.970891674	 2.38466447	 0.099248
H	 3.9928355566	 0.7145148498	 2.4398865656	 0.102736
