16
gdb 14249	4.14237	1.74105	1.57625	3.4435	65.93	-0.2368	0.0193	0.2561	860.778	0.131492	-379.887002	-379.87998	-379.879036	-379.918189	26.896	
C	 0.3800105362	 1.5273734737	 0.0069341818	-0.387558
C	 0.1221688091	 0.0330352847	 0.0439434561	 0.024615
N	 0.9805890947	-0.7893744646	-0.8689372908	-0.332182
C	 1.3087445972	-1.739721609	 0.2309119764	-0.15221
C	 0.6305984084	-0.7936553418	 1.2475950932	 0.082395
O	 1.943512233	-0.3923928577	 1.7433063592	-0.274042
C	 2.5902848894	-1.3170218812	 0.9258580677	 0.48312
N	 3.7971477616	-1.6372269105	 0.8572140872	-0.549315
H	 1.4295477042	 1.7376469852	 0.2240912119	 0.139198
H	 0.1455848665	 1.929767861	-0.9834298414	 0.120481
H	-0.2432616463	 2.047251857	 0.7426119729	 0.114911
H	-0.9480301928	-0.1779265282	-0.0943269912	 0.075589
H	 0.4737134239	-1.2209749273	-1.632031192	 0.227086
H	 1.1053150804	-2.7985880713	 0.0797699962	 0.101161
H	-0.0389853058	-1.059214386	 2.0638081143	 0.097129
H	 4.3685834502	-1.0914967541	 1.5048658184	 0.22962
