17
gdb 68434	2.70485	1.63982	1.27559	1.3942	73.74	-0.2496	0.0255	0.2752	1010.8677	0.13506	-421.761095	-421.753198	-421.752254	-421.793153	31.414	
O	-0.1093338993	 1.3909546899	-0.015240184	-0.473558
C	-0.052071183	 0.0099073587	 0.0284845283	 0.367277
C	 0.3785571744	-0.8352739711	 1.2781015577	-0.304382
C	-0.3721149599	-1.917346296	 0.4709739726	 0.101064
C	-1.3643439964	-0.8160773212	 0.0265458438	-0.275452
O	 0.4674213124	-2.1087656511	-0.6896402245	-0.278422
C	 0.7513908555	-0.7448762934	-1.077104484	-0.157786
C	 0.3412808	-0.4576651956	-2.4437750549	 0.344347
C	 0.0193866354	-0.1975032996	-3.5720356854	-0.430208
H	 0.7850599762	 1.742832931	-0.0868791393	 0.28624
H	 1.4425968967	-0.9985961515	 1.4670696798	 0.097684
H	-0.1445449905	-0.5164988391	 2.1807922618	 0.109183
H	-0.6694890141	-2.8839013905	 0.8688921213	 0.090158
H	-2.0438611399	-0.5012796873	 0.8195494819	 0.110365
H	-1.8858138668	-0.9523580565	-0.9217914337	 0.119252
H	 1.8303241174	-0.557640659	-0.9741128222	 0.095589
H	-0.2701251081	 0.0263689423	-4.5691124795	 0.198649
