25
gdb 101017	2.45009	1.02621	0.97402	0.9987	89.03	-0.2289	0.0831	0.3119	1459.7218	0.226297	-389.471871	-389.460779	-389.459835	-389.508117	40.998	
C	-0.1138586444	 1.5702958331	-0.1141273561	-0.393784
C	-0.1413523576	 0.0409597713	-0.1978950631	-0.166576
C	 0.844986836	-0.5598077431	-1.2193888963	-0.006883
C	 2.3144136817	-0.2897435451	-0.8626799476	-0.400592
C	 0.6001240466	-2.0548763191	-1.3883156203	 0.465146
C	-0.5047041763	-2.5041863432	-2.3075790699	-0.335835
C	 0.9524561967	-2.6977806283	-2.7043041173	-0.348856
O	 0.8235629349	-2.6900015232	-0.1519737525	-0.297264
C	 0.9921377844	-4.0855260154	-0.1253322643	-0.250565
H	 0.8481655755	 1.9457588764	 0.2480855167	 0.116992
H	-0.2993187732	 2.026145036	-1.0940091144	 0.107644
H	-0.885102535	 1.9363524015	 0.5711329874	 0.109591
H	 0.0637952221	-0.3922157364	 0.7871855527	 0.10911
H	-1.1540214972	-0.2838172229	-0.4675651026	 0.090883
H	 0.6376062726	-0.1001827133	-2.195977809	 0.062858
H	 2.9829008235	-0.727421298	-1.6112532847	 0.107195
H	 2.5262543372	 0.7817948827	-0.8144444856	 0.108322
H	 2.56003007	-0.7338605062	 0.1060638368	 0.125764
H	-1.066404908	-3.3956407576	-2.0503751331	 0.113279
H	-1.0910624145	-1.7449636539	-2.8144318881	 0.112378
H	 1.3720177015	-2.0662515125	-3.4806471885	 0.112672
H	 1.3248960525	-3.7150988143	-2.7199969136	 0.112849
H	 0.1359914653	-4.6275747917	-0.5532324854	 0.10723
H	 1.9049869501	-4.4050717402	-0.6472191946	 0.110887
H	 1.0789990857	-4.3650316965	 0.9276750937	 0.127556
