21
gdb 56757	2.79055	1.27937	1.03239	0.4663	87.93	-0.2469	0.0545	0.3014	1243.2601	0.181404	-349.897263	-349.888063	-349.887119	-349.931081	35.543	
C	-0.0661215831	 1.6138079311	 0.2603482328	-0.387843
C	-0.0215478131	 0.0836481018	 0.0503204833	-0.276403
C	 0.7848183199	-0.5662686823	 1.083020114	 0.332252
C	 1.4404112521	-1.0940140646	 1.9420569567	-0.479615
C	-1.4215985155	-0.4988745985	-0.0292332001	 0.403823
C	-2.2455767921	-0.8721329427	 1.1715700337	-0.324352
C	-1.9276841412	-1.9317331198	 0.1484878071	-0.111471
C	-2.8527227996	-1.7811557657	-1.0642360264	-0.22112
C	-2.346270771	-0.3116095756	-1.2443902273	-0.300594
H	 0.9414442236	 2.0376921976	 0.2576683155	 0.121988
H	-0.6437778695	 2.0871196182	-0.5395341301	 0.118262
H	-0.5394044226	 1.8536001709	 1.2163578812	 0.129056
H	 0.4682013804	-0.1053203274	-0.9168891086	 0.101385
H	 2.0293398712	-1.5611917268	 2.6920077812	 0.194662
H	-1.6906729726	-0.9544295899	 2.1002098389	 0.121932
H	-3.2629392064	-0.5009165632	 1.2813957066	 0.096485
H	-1.364751649	-2.8181771209	 0.4152183063	 0.090944
H	-2.5730673537	-2.4192063476	-1.9054434167	 0.102308
H	-3.9223176095	-1.9124231055	-0.8689332358	 0.094992
H	-3.0929494351	 0.485576625	-1.1651600423	 0.094263
H	-1.7952909034	-0.177980534	-2.1797136503	 0.099045
