15
gdb 49615	2.99659	1.57661	1.1188	6.6507	67.48	-0.2508	-0.0125	0.2383	1034.4644	0.113798	-453.990533	-453.983026	-453.982082	-454.022819	28.054	
O	-0.2099190782	 0.0369217127	-0.0409827274	-0.272775
C	-0.0462430114	 1.225685877	 0.002221028	 0.15599
N	 1.1699369888	 1.8914745849	-0.0012771669	-0.143018
C	 1.2695683822	 3.3285183993	 0.0268474191	-0.009346
C	 1.9532360099	 3.9633886795	 1.2199965201	-0.325133
C	 2.7416332076	 3.6287139427	-0.0319051128	-0.010479
N	 3.3599780412	 2.3427703651	-0.119271209	-0.362872
C	 2.4671868148	 1.2891650903	-0.0063322129	 0.467114
O	 2.7306529143	 0.1226487048	 0.0894978767	-0.358128
H	-0.8803565447	 1.9562519914	 0.0446753262	 0.079765
H	 0.5358117086	 3.8736149556	-0.5534704719	 0.126831
H	 1.737438517	 5.0109680154	 1.3989287503	 0.129969
H	 2.1100938907	 3.3583173156	 2.1061344349	 0.135336
H	 3.1485567568	 4.4128959803	-0.6594105138	 0.121474
H	 4.3211614824	 2.1721106452	 0.1280440993	 0.26527
