16
gdb 48648	2.39712	1.42618	1.1247	4.1343	76.76	-0.2648	-0.0493	0.2155	1107.8572	0.12409	-400.75109	-400.742986	-400.742041	-400.784032	29.916	
O	-0.1303989681	 0.0174844601	 0.0517378326	-0.254547
C	-0.0190120001	 1.2123401102	-0.0779711461	 0.07107
C	 1.2709794834	 1.9202609004	-0.0072761939	 0.210327
C	 1.3702633578	 3.3837396718	 0.3327527487	-0.366649
C	 1.8062782532	 2.98455622	-1.0439026289	 0.156331
C	 3.1823405864	 2.2923734307	-1.0115211904	-0.282133
C	 2.645847692	 1.2535705451	 0.0233942592	-0.293277
C	 1.1603843239	 3.4759315736	-2.2163080388	 0.207638
N	 0.6538620782	 3.8736550488	-3.1785696128	-0.340349
H	-0.8986453051	 1.86525013	-0.2733379652	 0.08635
H	 0.4266769112	 3.9179273448	 0.3822123147	 0.150118
H	 2.1159964173	 3.7060685032	 1.0547283569	 0.135829
H	 3.4382993089	 1.837815829	-1.9687190789	 0.138865
H	 4.0048426354	 2.9367147728	-0.6902657394	 0.120599
H	 3.1339300937	 1.2402053813	 1.0010663772	 0.116689
H	 2.6113783419	 0.2377250481	-0.3704620448	 0.143139
