18
gdb 65825	2.50981	1.28097	1.1757	4.2625	75.48	-0.2533	-0.031	0.2224	1145.6093	0.147086	-402.004943	-401.996246	-401.995302	-402.038421	32.642	
C	-0.1217869155	 1.5428292211	-0.0146335702	-0.436248
C	 0.0345631252	 0.0134081272	 0.0076985982	 0.092013
C	 0.8511371731	-0.532623038	-1.2076925881	-0.242477
C	 1.3275135948	-1.922262596	-0.7710229486	-0.330811
C	 1.5106960802	-1.8129032693	 0.7465863951	 0.412364
O	 2.0913346789	-2.5930237006	 1.4514359052	-0.300717
C	 0.8385994496	-0.5160958786	 1.2228768683	-0.349959
C	-1.2995077828	-0.6087483112	-0.0003398081	 0.270954
N	-2.3474401946	-1.096977621	-0.0138553713	-0.339365
H	 0.8659974147	 2.0132794238	-0.0012409004	 0.124966
H	-0.6478138245	 1.8681111129	-0.9166123637	 0.138525
H	-0.6850387059	 1.8959958159	 0.8532021279	 0.140718
H	 0.2621508112	-0.5352738983	-2.126794351	 0.127772
H	 1.7062078214	 0.1352733277	-1.3612218501	 0.113057
H	 0.5559685436	-2.680598813	-0.9551959353	 0.15611
H	 2.2440625731	-2.2678386154	-1.2530891298	 0.136015
H	 1.6323628761	 0.1988969411	 1.4737016232	 0.136538
H	 0.2475328012	-0.6801269283	 2.1254509085	 0.150543
