15
gdb 41119	3.663	2.0152	1.62367	0.6935	66.95	-0.2488	-0.0236	0.2252	809.4552	0.114882	-416.71641	-416.710611	-416.709667	-416.746245	24.271	
C	 0.0514569376	 1.4816904387	-0.1054023863	-0.185032
O	 1.4605210518	 1.3777355378	 0.2565944331	-0.301039
C	 1.3041865334	 0.0056690275	 0.710573432	 0.087833
C	 1.8005058056	-1.0784768182	-0.2099198373	-0.067493
C	 0.6762360509	-0.8474643409	-1.14964007	-0.08723
N	 0.6832932876	-2.1331983657	-0.4571945523	-0.172455
C	-0.4727102676	-2.0594106013	 0.4041314423	 0.026131
N	-1.0250973721	-0.9186797039	 0.5717188216	-0.2569
C	-0.0659570959	-0.0302205062	-0.0538526489	 0.270379
H	-0.5234335321	 1.999924859	 0.6717535063	 0.120569
H	-0.0924205125	 1.975705986	-1.0713372971	 0.113632
H	 1.3914445242	-0.0791685601	 1.7964079175	 0.08968
H	 2.8005115819	-1.4550923705	-0.383040129	 0.11801
H	 0.6292766464	-0.7859174218	-2.2314996903	 0.108539
H	-0.8306094692	-2.9796973305	 0.8526131083	 0.135377
