17
gdb 13490	3.0769	1.77635	1.46071	2.4789	64.52	-0.2509	0.0262	0.2771	919.759	0.142106	-401.023092	-401.014861	-401.013917	-401.055796	30.257	
C	-0.013301909	 1.5765398971	 0.0392088964	-0.418057
C	 0.0251997601	 0.0477350502	 0.0157632737	 0.110998
O	 0.7851411821	-0.4777379622	 1.1015192719	-0.438454
C	-1.3853569546	-0.5491534486	 0.0078992961	-0.147727
C	-1.5207079931	-2.0990270139	 0.0870697152	-0.189654
N	-2.285159887	-1.9038172601	 1.3284279846	-0.313793
C	-2.0771257495	-0.5507285977	 1.3977779066	 0.411633
O	-2.2871201714	 0.2719593503	 2.2538246259	-0.375181
H	 1.0030514056	 1.9748458711	 0.0994002291	 0.122892
H	-0.4889180713	 1.9729112021	-0.8637541794	 0.115128
H	-0.5865184734	 1.9280804848	 0.9036308831	 0.146882
H	 0.5559868063	-0.2922077221	-0.8820424634	 0.091293
H	 0.4502703907	-0.068990388	 1.909305151	 0.292153
H	-2.0002662438	-0.0972588447	-0.7748611772	 0.101016
H	-2.0863804455	-2.5800913797	-0.7153558213	 0.110045
H	-0.5628745141	-2.6040996665	 0.239781611	 0.129979
H	-2.5262847021	-2.5555875321	 2.0614169766	 0.250846
