24
gdb 68778	2.27927	1.42452	1.29426	1.7492	89.89	-0.2139	0.0722	0.2861	1198.7472	0.215503	-368.394818	-368.38469	-368.383746	-368.428552	39.706	
C	-0.0443359264	 1.5627800273	 0.0676421273	-0.51123
C	 0.1430802164	 0.0782441248	 0.0067557046	 0.304131
C	 0.6645271054	-0.7387237483	-1.1808104219	-0.32554
C	 1.2964812739	-1.7678579412	-0.1636014842	 0.311473
C	 0.7859210679	-3.2037451979	-0.2500751029	-0.451553
C	 2.8239529152	-1.7131084616	-0.1904421399	-0.451247
C	 0.7021359202	-0.9038738439	 0.983481845	 0.263773
C	 1.2465130331	-0.7421290071	 2.3706104829	-0.519983
N	-0.7652976444	-0.8538929476	 0.7308822306	-0.419576
H	 0.8325110394	 2.0875688283	-0.3270490022	 0.121567
H	-0.9128248745	 1.8765615735	-0.5243317529	 0.127372
H	-0.2044290856	 1.9034593662	 1.0968918067	 0.113572
H	-0.1117295591	-1.1293772522	-1.8444276215	 0.096907
H	 1.42360575	-0.2186813937	-1.7718123592	 0.090609
H	 1.085583939	-3.6684766185	-1.1967104971	 0.104376
H	 1.1952685469	-3.8182682234	 0.5609379923	 0.101352
H	-0.3038773172	-3.2259570107	-0.1820973893	 0.136232
H	 3.1926285033	-0.6846947247	-0.1042759077	 0.106768
H	 3.2602036308	-2.2963574453	 0.6287009197	 0.110059
H	 3.2063180771	-2.1259276968	-1.1306377393	 0.112583
H	 2.3278142776	-0.5718547112	 2.3623037745	 0.124662
H	 0.7801025871	 0.1089051036	 2.8797582626	 0.113569
H	 1.055153909	-1.6347365899	 2.9787571805	 0.127146
H	-1.1737996852	-0.3271990599	 1.5045304016	 0.21298
