17
gdb 5616	3.22324	1.80115	1.25873	1.7779	70.71	-0.1857	0.0514	0.2371	977.1447	0.142585	-363.89788	-363.889565	-363.888621	-363.930582	30.793	
C	 0.0005643466	 1.5814930107	-0.118294322	-0.365596
C	-0.0304303609	 0.0483958926	 0.025927123	-0.32704
C	-1.418030642	-0.523924855	 0.0357296581	 0.165432
C	-2.118932348	-1.0236685339	 1.1145812895	-0.166679
N	-3.3599695411	-1.4047415902	 0.6882158674	-0.241284
C	-3.4869490137	-1.1710616536	-0.6653713681	-0.166001
C	-2.2981846019	-0.624198296	-1.0855508226	 0.228903
O	-2.0414149915	-0.2362729286	-2.3731888674	-0.451989
H	 1.0286084488	 1.9573832607	-0.1496579657	 0.106912
H	-0.5068726568	 1.902466674	-1.0341416212	 0.116711
H	-0.5148094403	 2.0572573986	 0.7214040142	 0.121597
H	 0.5588563608	-0.3994709711	-0.7890200894	 0.089885
H	 0.4868136241	-0.2409060605	 0.9475189254	 0.103899
H	-1.8216987577	-1.1345262337	 2.1455370482	 0.113397
H	-4.0705407176	-1.8130316743	 1.2672222167	 0.260065
H	-4.3872607592	-1.4050260018	-1.2070352587	 0.117026
H	-1.0998140096	-0.0586985678	-2.4527704973	 0.294761
