17
gdb 66969	2.58142	1.69288	1.28172	0.9082	77.38	-0.2394	0.0423	0.2817	1011.9405	0.135294	-384.597963	-384.590267	-384.589323	-384.629766	31.044	
O	-0.182496026	 1.3459182154	 0.0719788285	-0.461515
C	-0.0040731703	-0.0167572889	 0.0329991197	 0.389271
C	-0.2252199234	-0.8423353375	-1.2497463781	-0.132143
C	 0.4680115659	-2.1881312313	-1.0594947362	-0.23948
C	 0.0317794629	-2.0722545048	 0.4262798066	-0.076051
C	-1.0893202132	-1.0473312532	-0.0148292034	-0.154352
C	 0.8518766658	-0.8582955063	 0.9943584525	-0.229934
C	 2.3007197233	-0.8416834135	 0.9000670758	 0.294109
C	 3.5002635558	-0.8092454934	 0.8078887699	-0.454148
H	 0.5482735661	 1.7607360817	-0.4007221088	 0.291912
H	-0.50589144	-0.3358044743	-2.1647698339	 0.087087
H	-0.0715976979	-2.9910998354	-1.5695732282	 0.100527
H	 1.5405454131	-2.2698314551	-1.2623233908	 0.105565
H	-0.1115419678	-2.9510131393	 1.0498369453	 0.080303
H	-2.15394923	-0.9874562806	 0.153106869	 0.100763
H	 0.5292937599	-0.6527596769	 2.0204569907	 0.104678
H	 4.5594192457	-0.7876151865	 0.7342052214	 0.19341
