18
gdb 39870	3.42463	1.67489	1.53521	0.542	75.19	-0.2126	0.0635	0.2761	926.8939	0.149025	-401.854409	-401.847752	-401.846808	-401.885186	27.686	
C	 0.0229603033	 1.5354392514	 0.0630663565	-0.331927
C	 1.3004825374	 0.7178663034	 0.0165466531	-0.342449
C	-0.0389646149	 0.0475632907	 0.0380340419	 0.400773
C	-0.5282254361	-0.957042346	 1.0682479902	-0.018419
O	-1.9671308364	-0.8837490311	 1.2493963866	-0.303889
C	-2.1997780515	-1.59173352	 0.0094209449	 0.089976
C	-2.0112771588	-0.6739254362	-1.2111708781	-0.187573
N	-0.5030153437	-0.7771653461	-1.1122500398	-0.213906
C	-0.6971990713	-1.934720632	-0.1195758088	-0.043471
H	-0.2401206546	 2.0467031839	 0.98305362	 0.122613
H	-0.2669782321	 2.0588723436	-0.8423783171	 0.121205
H	 1.8448438628	 0.6874488256	-0.9206194122	 0.125273
H	 1.9160792142	 0.6701489748	 0.9090603439	 0.11356
H	 0.0025397719	-1.1100827691	 2.0104620409	 0.078747
H	-3.0455173271	-2.2790538326	 0.076618788	 0.081899
H	-2.341792525	-1.1435236254	-2.1436203683	 0.107175
H	-2.4144974765	 0.3397220977	-1.1415597019	 0.114086
H	-0.2155289618	-2.8945952427	-0.2900479998	 0.086325
