13
gdb 4708	6.70868	1.32937	1.11724	5.1554	66.76	-0.2544	-0.0732	0.1812	1000.9304	0.095245	-398.646232	-398.639115	-398.638171	-398.677881	24.834	
C	 0.150450656	 1.4568005866	 0.0640677742	-0.496815
C	-0.056130274	-0.0087082268	-0.0306181281	 0.326848
C	-1.1385299331	-0.8133567041	-0.2506990108	-0.177076
N	-0.7498425805	-2.1315214116	-0.2363734728	-0.26742
C	 0.5311922086	-2.0916702762	-0.0126240999	 0.279695
O	 1.0209467749	-0.821846217	 0.12340312	-0.188874
C	 1.5104664805	-3.1795849795	 0.1134500778	 0.086554
O	 1.242768877	-4.3515052308	 0.0198418402	-0.243596
H	 0.855281769	 1.8088775132	-0.6968296228	 0.153203
H	-0.8001364091	 1.9741058187	-0.0805314542	 0.14924
H	 0.5526901338	 1.7392501328	 1.0429225777	 0.153199
H	-2.1638504588	-0.5212278425	-0.4167224509	 0.133208
H	 2.5402654958	-2.8124660327	 0.3068498896	 0.091833
