20
gdb 100516	2.78061	1.11959	0.88072	2.283	78.06	-0.2328	-0.0517	0.181	1382.2388	0.167724	-440.332256	-440.321264	-440.320319	-440.369751	37.456	
C	-0.4377141735	 1.7199406119	 0.0407378509	-0.379165
C	-0.3143775628	 0.2077803741	-0.162405993	-0.152178
N	-1.5745019409	-0.5066146271	 0.0691433177	-0.090439
C	-2.4468733836	-0.667922182	-1.0864065588	-0.337306
C	-1.8384603917	-0.9010689212	 1.3410593261	 0.329084
O	-1.1030830377	-0.64182475	 2.2873224343	-0.391218
C	-3.0819692714	-1.7761180532	 1.6296593349	 0.292525
C	-3.6137164673	-1.6406170112	 3.0357740771	-0.466342
O	-3.5286190614	-2.5560081594	 0.8201287163	-0.299401
H	 0.5178885919	 2.2084121086	-0.173738055	 0.120216
H	-1.1936421922	 2.1561857924	-0.6203288245	 0.115968
H	-0.7106583753	 1.9374526702	 1.0760055296	 0.144756
H	 0.0070079012	-0.021235537	-1.1840164993	 0.104666
H	 0.4261662314	-0.198242972	 0.5288365747	 0.140954
H	-2.0611156215	-1.4368129105	-1.766621525	 0.133743
H	-3.4494434411	-0.9561339794	-0.7860381554	 0.161059
H	-2.4981407964	 0.2803898403	-1.6327870511	 0.122871
H	-3.9597571882	-0.6143392646	 3.2049250895	 0.143956
H	-4.4340264168	-2.3426463296	 3.1865922556	 0.135206
H	-2.8070073826	-1.8129858503	 3.7519511352	 0.171042
