19
gdb 61064	2.85409	1.19785	0.90384	1.9687	78.42	-0.2363	-0.0264	0.2099	1290.0857	0.157542	-423.037619	-423.028419	-423.027475	-423.072944	32.804	
C	-0.049177744	 1.5167453129	-0.0890828945	-0.417247
C	-0.0155824617	-0.0149632518	 0.0196334796	-0.073863
C	 0.8177881244	-0.4377822078	 1.2121269719	 0.158141
O	 1.6894281972	-1.2689310962	 1.1951048781	-0.253746
C	-1.4499654185	-0.5916469945	 0.1781926404	 0.074843
O	-2.2894130215	-0.1114916707	-0.8738118639	-0.278233
C	-2.8569688144	-1.2014237328	-1.5995049109	-0.117925
C	-2.3111147496	-2.435168757	-0.9405886636	-0.105765
C	-1.5227917087	-2.0924008459	 0.0704715945	-0.085516
H	 0.9489297947	 1.9204378225	-0.2825229913	 0.122666
H	-0.7138911517	 1.8123681272	-0.9025001438	 0.148217
H	-0.424979281	 1.9695964751	 0.8359492165	 0.117934
H	 0.4330664394	-0.4593759472	-0.8742571449	 0.097164
H	 0.5517500623	 0.089760161	 2.1603479896	 0.070371
H	-1.8577435107	-0.2325530399	 1.139269207	 0.08464
H	-3.9555737559	-1.1468490504	-1.5471731325	 0.110132
H	-2.5794220766	-1.1305309925	-2.6624353785	 0.110855
H	-2.5477948969	-3.4380847488	-1.2718578592	 0.1123
H	-0.9776894569	-2.7553764632	 0.7292014957	 0.125033
