16
gdb 54947	3.17736	1.09195	0.98521	4.7687	72.22	-0.2664	-0.0522	0.2142	1228.968	0.121649	-437.904482	-437.89548	-437.894536	-437.938489	32.768	
C	-0.0099625986	 1.4373306518	-0.001890189	-0.486132
C	 0.0297656771	-0.0707362452	-0.035223704	 0.416388
O	 1.0851896793	-0.688344032	-0.02640503	-0.357237
C	-1.2737047255	-0.7827496928	-0.0554237598	-0.218809
C	-1.3825905096	-2.0933302061	-0.827725968	-0.333215
C	-1.3007955041	-2.1697987049	 0.6634968385	 0.278514
O	-0.1807871041	-2.6483394355	 1.3059659942	-0.452132
C	-2.5172765026	-2.4525309037	 1.3947680786	 0.283744
N	-3.5085595668	-2.6607494797	 1.9510748237	-0.332796
H	 1.0039119374	 1.8375331079	 0.0120685219	 0.153092
H	-0.5523278507	 1.821805665	-0.8730244366	 0.151592
H	-0.5555743863	 1.776242476	 0.8863648318	 0.1573
H	-2.1673037089	-0.1749933077	 0.0200092237	 0.124031
H	-2.3254540706	-2.298058659	-1.3201134436	 0.149789
H	-0.4882175604	-2.4078945075	-1.355116227	 0.151236
H	 0.5869476942	-2.2120637465	 0.8884117457	 0.314636
