23
gdb 41776	2.75744	1.49887	1.0985	0.2531	90.42	-0.2292	0.0239	0.2531	1184.2853	0.20926	-351.159486	-351.151494	-351.15055	-351.191688	32.72	
C	 0.0949528348	 1.6425419525	 0.2594369132	-0.239786
C	 1.5121667987	 1.5921454867	-0.3690513396	-0.232476
C	 1.2084124243	 0.1503015765	-0.8779701172	-0.018831
C	 2.3017996643	-0.8708390628	-0.7631506679	-0.058527
C	 2.1309236838	-2.1416991466	-0.3964261636	-0.069904
C	 0.7808236807	-2.7391403006	-0.0714698936	-0.247632
C	 0.1550311419	-2.206640815	 1.2387875965	-0.198201
C	 0.2348645255	-0.6763797529	 1.3985443511	-0.186733
C	-0.0211955603	 0.099105596	 0.1056130307	 0.000439
H	 0.0176606242	 2.036723502	 1.2768697059	 0.092433
H	-0.6195499668	 2.1784510505	-0.3715333868	 0.095711
H	 1.7554061235	 2.3443833625	-1.1234438916	 0.093912
H	 2.3029095717	 1.5970522416	 0.3868989471	 0.101152
H	 0.8506701597	 0.2019976062	-1.9152564799	 0.078198
H	 3.3054453859	-0.5135924889	-0.9921377984	 0.078804
H	 2.9999050759	-2.7914474863	-0.3236298177	 0.080852
H	 0.0897303798	-2.5285201861	-0.8971482866	 0.107091
H	 0.8541515292	-3.829898077	-0.0147163787	 0.091837
H	-0.8941058212	-2.526543064	 1.2655369464	 0.091941
H	 0.6414194113	-2.6785603509	 2.1006700376	 0.093967
H	-0.4879777175	-0.356817113	 2.1599889475	 0.087734
H	 1.2228916372	-0.4014362488	 1.7859917844	 0.098178
H	-0.9545988165	-0.2451343815	-0.3526923289	 0.059841
