18
gdb 31064	2.51405	1.28438	0.87555	0.5963	77.69	-0.1736	0.0338	0.2074	1329.5892	0.146466	-439.105451	-439.095832	-439.094888	-439.140298	34.447	
C	 0.1124271849	 1.3742913283	-0.1683301824	-0.322216
N	-0.0085358208	 0.0324247676	 0.3919597711	-0.399873
C	-1.213345732	-0.645752347	 0.1627334895	 0.183955
C	-1.3614918738	-1.9601429575	-0.1568331543	 0.243866
O	-0.4432721953	-2.9050525885	-0.4602838758	-0.431482
O	-2.6840648062	-2.3048979138	-0.2263441729	-0.206552
C	-3.4008524018	-1.1741395413	 0.0489935285	 0.366336
C	-4.8813731026	-1.2986608263	 0.0327094014	-0.487256
C	-2.5554764519	-0.1356011854	 0.2875401641	-0.342608
H	 1.1079063651	 1.7645012555	 0.0598878533	 0.120037
H	-0.042386648	 1.4209839085	-1.2583195054	 0.107708
H	-0.6161522767	 2.0405710865	 0.3035385816	 0.129037
H	 0.7730449987	-0.5517155319	 0.1219810361	 0.232507
H	-0.4427484644	-3.5924049713	 0.218270583	 0.303863
H	-5.2344724616	-2.0334617756	 0.7658659183	 0.133287
H	-5.3349971249	-0.3342282205	 0.2726467673	 0.132337
H	-5.2515562721	-1.6154367895	-0.9495322767	 0.135265
H	-2.8480724466	 0.8726756222	 0.5357702334	 0.101788
