20
gdb 119755	4.22518	0.81125	0.69241	6.4684	87.64	-0.211	-0.0026	0.2084	1636.6064	0.171102	-403.203933	-403.194321	-403.193376	-403.239652	34.418	
C	-0.1164968297	 1.5850154496	 0.050504521	-0.413027
C	 0.0051621681	 0.0676268825	-0.0352471233	-0.105574
N	-1.3037101718	-0.5619762946	 0.0157860821	-0.373185
C	-1.4930606101	-1.8981705037	 0.0080520659	 0.428803
C	-0.5531706597	-2.8828033197	 0.0209142835	-0.3514
C	-1.1816460961	-4.1949090688	 0.0258100715	 0.401353
O	-0.6469985438	-5.2855044318	 0.0356355594	-0.371659
C	-2.7120236589	-3.9762783651	 0.0132818017	-0.329114
C	-2.9054124829	-2.4504690167	-0.0016822809	-0.330516
H	 0.8727630459	 2.0475763057	 0.0141334207	 0.13497
H	-0.7018129984	 1.9823517898	-0.7860697189	 0.125482
H	-0.5997390929	 1.8892318639	 0.9844835618	 0.130295
H	 0.5250114544	-0.2206260338	-0.96032748	 0.116865
H	 0.6124203499	-0.3101672538	 0.7974165921	 0.123478
H	-2.1102672534	 0.0328708267	-0.08172804	 0.243007
H	 0.5195176064	-2.7507735319	 0.0244657099	 0.089198
H	-3.1417348938	-4.4690216771	-0.8632443091	 0.124453
H	-3.1532563439	-4.451802612	 0.8936397917	 0.124846
H	-3.4634627959	-2.0834198659	 0.8680423455	 0.117112
H	-3.4454574532	-2.0999221432	-0.8898568047	 0.114614
