19
gdb 62023	2.5737	0.94241	0.79264	2.4812	72.97	-0.2351	-0.0212	0.2139	1478.7371	0.156733	-456.377473	-456.366732	-456.365787	-456.415255	36.941	
C	-0.8684090012	 1.1058471085	 1.186364016	-0.431216
C	 0.1947046926	 0.1709322644	 0.5993803115	-0.024545
N	 0.5319390831	-0.8701618582	 1.5730698853	-0.292637
C	 1.8047213742	-1.5183002915	 1.3142225376	-0.286977
C	 3.009356904	-0.6640669993	 1.7542815191	 0.407456
N	 4.2177498985	-1.0702848519	 1.2791530911	-0.517481
O	 2.8755664064	 0.2748987153	 2.5169073935	-0.36436
C	-0.3828989639	-0.5180326559	-0.6312321199	 0.180045
O	-0.0274057086	-0.3249626679	-1.7650936042	-0.254318
H	-0.4675575559	 1.6146517884	 2.0686542603	 0.138258
H	-1.1633062987	 1.8663419572	 0.4585569872	 0.13393
H	-1.7571889317	 0.5415411723	 1.48710161	 0.13008
H	 1.0624724637	 0.7654900599	 0.2761707644	 0.086558
H	 0.5945307252	-0.4411474777	 2.4925201427	 0.232435
H	 1.8560659194	-2.4660448289	 1.8670166683	 0.131376
H	 1.884402069	-1.7739320955	 0.2512473784	 0.124222
H	 4.3017021404	-1.7772597838	 0.5695940251	 0.263529
H	 5.0369375336	-0.5404828224	 1.5295120137	 0.264919
H	-1.1878297502	-1.2475415428	-0.3814449301	 0.078728
