18
gdb 85564	2.79506	1.37987	0.97209	0.5946	73.66	-0.2517	-0.0327	0.219	1191.8266	0.147594	-439.125152	-439.116581	-439.115636	-439.158778	31.837	
C	-0.0183638501	 1.5572149866	-0.0491844012	-0.404188
C	 0.1087272407	 0.0352886219	-0.0049545925	-0.098129
C	 0.9278444422	-0.5621291505	-1.1677579818	-0.310099
C	 0.9003275457	-2.067834936	-1.1282080171	 0.394102
N	 0.7452644141	-2.7702626062	-2.1676220745	-0.513149
O	 0.9856506003	-2.6364500188	 0.1156531984	-0.243092
C	 1.3947358098	-1.8292927248	 1.2168902024	-0.186178
C	 0.7290666623	-0.4537397754	 1.2950969535	 0.365795
O	 0.7633088231	 0.1802687654	 2.3211313081	-0.3032
H	 0.9689035198	 2.030229559	-0.0673421307	 0.124394
H	-0.5652758745	 1.8724001923	-0.9420357973	 0.119889
H	-0.543212054	 1.9228848541	 0.8355146921	 0.142407
H	-0.8965680588	-0.4125535105	-0.0453118495	 0.122312
H	 0.5444040608	-0.2452617672	-2.1380020617	 0.145443
H	 1.9657912638	-0.2071299957	-1.1008574229	 0.126014
H	 0.7509610404	-3.7638226739	-1.9264606286	 0.221976
H	 1.160544302	-2.3938846324	 2.1214280748	 0.154701
H	 2.4837316024	-1.6733734577	 1.1977151784	 0.141
