18
gdb 111201	4.94833	0.93127	0.90282	3.5404	75.29	-0.2382	0.0138	0.2519	1325.9343	0.146741	-439.018632	-439.010203	-439.009259	-439.052182	30.793	
C	 0.200290101	 1.2687914277	-0.2422079701	-0.246218
O	 0.0450921859	-0.0082198383	 0.3489123298	-0.248917
C	-1.2575805756	-0.4795441916	 0.3023881456	 0.187319
C	-1.780776035	-1.2438038814	-0.9742623661	-0.079735
C	-0.7738179081	-2.3847216137	-0.6264885981	-0.231553
C	-1.4561201702	-1.9630564895	 0.710966286	-0.10121
N	-2.7676495472	-1.8612850299	-0.0263061351	-0.078722
C	-3.6217768043	-2.8899099667	-0.3320902454	 0.133028
O	-4.15849704	-3.0521238232	-1.4054849908	-0.315437
H	 1.2397084742	 1.5672248628	-0.0927614335	 0.13567
H	-0.0152090107	 1.2480654579	-1.3198192405	 0.116478
H	-0.4580120124	 2.011832351	 0.2311018327	 0.116046
H	-1.9814273207	 0.2234436763	 0.7329556734	 0.086794
H	-2.0896896625	-0.8639654329	-1.9454007868	 0.110555
H	-1.0329687569	-3.3736829841	-1.0065265044	 0.118478
H	 0.2864643344	-2.1535802043	-0.7258820089	 0.123121
H	-1.3820705067	-2.4079568939	 1.7030261886	 0.100494
H	-3.843809685	-3.5142721965	 0.5579122537	 0.073807
