17
gdb 71195	2.74889	1.52504	1.24829	3.3951	71.76	-0.2356	-0.0275	0.2081	1037.5493	0.134177	-421.769699	-421.761793	-421.760848	-421.802543	30.015	
C	-0.0534865679	 1.4950045699	-0.0211503316	-0.508625
C	 0.11253202	 0.0118002271	 0.0617464956	 0.390535
O	-1.1447872735	-0.7363048855	 0.104431071	-0.321181
C	-0.4273208453	-1.7487469089	 0.8056873249	 0.097357
C	 0.9476556613	-1.9045578137	 0.1337974913	-0.147778
C	 0.6950526799	-0.8750266306	 1.2323619272	-0.203062
C	 0.9841054748	-0.8210859511	-0.9511918233	-0.117171
C	 0.4072493834	-1.1026753946	-2.314892454	 0.140304
O	 0.9935883478	-0.8923774103	-3.3490271414	-0.256239
H	 0.9218573547	 1.990087211	-0.0310592379	 0.132195
H	-0.5857357691	 1.7643322618	-0.9396353622	 0.142843
H	-0.6291970213	 1.8653657297	 0.8316570363	 0.137505
H	-0.9722901793	-2.5420006375	 1.2987855151	 0.116911
H	 1.534495305	-2.8120412165	 0.1880060748	 0.103274
H	 1.1812480637	-0.6642665527	 2.1742288871	 0.107944
H	 1.9829218555	-0.3887605594	-1.050521902	 0.09352
H	-0.6203108597	-1.5222944687	-2.305872041	 0.091668
