19
gdb 113691	3.56421	0.82018	0.74848	2.0629	73.98	-0.2631	-0.0285	0.2346	1538.7204	0.15725	-460.157689	-460.147818	-460.146874	-460.19334	35.185	
O	-0.1530147994	 1.399238326	-0.3706481454	-0.423205
C	 0.0070668214	 0.0770873797	 0.1310650989	-0.116115
C	-1.3508183461	-0.5763364968	 0.0625907193	 0.019918
C	-1.8192154368	-1.2718986799	-1.1659371571	-0.275118
C	-1.5322279162	-2.0984035682	 0.0826868047	-0.147059
C	-0.3766992844	-3.0243544016	 0.0812894082	 0.35997
O	 0.6295396272	-2.8716878308	-0.5901877361	-0.35523
C	-0.4751492241	-4.2542170788	 0.9757425571	-0.134357
O	 0.6697878378	-5.043716991	 0.8842154888	-0.421645
H	 0.7124027245	 1.818631347	-0.377102779	 0.288361
H	 0.7315864594	-0.4980687628	-0.4563575012	 0.123382
H	 0.3573065248	 0.0916744802	 1.1760556863	 0.085992
H	-2.1083092865	-0.0455827804	 0.6327371623	 0.106427
H	-2.8543335735	-1.1772885407	-1.4724391155	 0.124342
H	-1.1020367223	-1.3936222109	-1.9704785815	 0.143132
H	-2.3870478139	-2.4532238242	 0.6496450884	 0.09557
H	-0.6486227862	-3.9115805066	 2.0103080894	 0.116456
H	-1.3798910142	-4.8153309305	 0.6841570618	 0.115862
H	 1.2337371485	-4.5856722498	 0.2390771006	 0.293317
