19
gdb 112882	2.28764	1.3746	0.92495	2.9743	72.32	-0.2675	0.0064	0.2739	1297.3834	0.158039	-460.220938	-460.211765	-460.21082	-460.255355	33.222	
C	-0.0439667676	 1.5991254048	 0.0636633031	-0.392391
C	-0.0482385444	 0.0696150066	 0.0404701657	-0.186336
C	 0.7466054853	-0.5058646838	-1.1235793066	-0.038668
O	 2.1330082533	-0.2102181937	-1.0022601675	-0.267651
C	 2.837132376	-1.2939623049	-1.5603885075	 0.225064
C	 4.1577413701	-1.493578212	-0.8581594625	-0.40339
O	 1.9949314538	-2.4486312023	-1.3927948778	-0.233825
C	 0.7198419401	-2.0322786872	-1.184429034	 0.42285
O	-0.2144021306	-2.7688631663	-1.0696636747	-0.339259
H	 0.9766326908	 1.9847229486	 0.1392445155	 0.134802
H	-0.4927468488	 2.01020822	-0.8473517652	 0.116981
H	-0.6144294687	 1.9763675921	 0.9170888243	 0.11934
H	 0.3707720083	-0.3274429002	 0.9719709595	 0.111022
H	-1.0682974876	-0.3204845279	-0.0425696731	 0.127179
H	 0.3516889184	-0.1184367846	-2.079442417	 0.103221
H	 2.9713679592	-1.1501081179	-2.645228856	 0.087621
H	 3.9874366215	-1.6741478946	 0.2057502854	 0.137998
H	 4.6894107294	-2.3445542509	-1.2902898797	 0.138061
H	 4.7707390815	-0.5962644757	-0.975715392	 0.137381
