17
gdb 28228	4.68426	1.22368	0.98847	0.8718	77.58	-0.1606	0.0438	0.2044	1167.577	0.139276	-418.019259	-418.011641	-418.010697	-418.051152	29.65	
N	 0.1149821475	 1.321382785	 0.2410285499	-0.588485
C	-0.0536826012	-0.0468539661	 0.0736328029	 0.385383
C	-1.1706303976	-0.8334173988	-0.0655390647	-0.450201
C	-0.6608485667	-2.1716045445	-0.014572792	 0.297047
C	 0.6757905306	-2.0954930274	 0.1606560638	 0.230119
C	 1.3648038048	-3.3901980679	-0.0976299973	-0.335853
C	 0.1142639531	-4.3224501565	 0.04033515	-0.161211
N	-1.0780180297	-3.4855912041	-0.3041806473	-0.401027
O	 1.0865849856	-0.7794152291	 0.1776610632	-0.225775
H	 0.9819607595	 1.6560726738	-0.1617115414	 0.254439
H	-0.6690043461	 1.8529322424	-0.1117484639	 0.254004
H	-2.1857875627	-0.4867953709	-0.1721527926	 0.094055
H	 1.7974454823	-3.4506254965	-1.1083122044	 0.105619
H	 2.1498612448	-3.6741440182	 0.6111218551	 0.107101
H	 0.1671203438	-5.1964684271	-0.6134570311	 0.106884
H	 0.0525486017	-4.671309978	 1.0802218112	 0.101839
H	-1.9075494096	-3.7879874263	 0.1939240287	 0.226062
