14
gdb 129469	4.66534	1.01239	0.86528	2.9625	63.95	-0.2575	-0.0381	0.2194	1242.7752	0.102012	-470.042963	-470.035164	-470.03422	-470.07679	27.791	
N	 0.17428514	 0.2264475893	 0.9571703152	-0.51402
C	-0.1239197077	 0.2288512309	-0.3636298312	 0.394644
O	 0.2134180871	 1.093819268	-1.1443847983	-0.35156
C	-1.0249147447	-0.9304804666	-0.8495014843	-0.438966
C	-0.8596077667	-2.2492332892	-0.1791557617	 0.453471
N	-0.7325624522	-2.5147023389	 1.0921051578	-0.331495
C	-0.6339384792	-3.8831191025	 1.0931618172	 0.043409
N	-0.6962418411	-4.4431890708	-0.0816104108	-0.110821
O	-0.8455778248	-3.3463956624	-0.9422504546	-0.188555
H	 0.7651044383	 0.9641839412	 1.3040183597	 0.263842
H	-0.0564600828	-0.5620964138	 1.5452912864	 0.281046
H	-2.0620516095	-0.5977026839	-0.7130082837	 0.171895
H	-0.8606946178	-1.0385120512	-1.9215319025	 0.170115
H	-0.5137174289	-4.47153506	 1.9908859707	 0.156995
