17
gdb 73659	2.43194	1.67951	1.41546	3.1998	67.16	-0.2659	-0.004	0.2619	984.8176	0.136944	-459.005709	-458.997995	-458.997051	-459.0378	29.719	
O	 0.1928071306	 1.4213138313	-0.1661190876	-0.473393
C	 0.0981482555	 0.0324833717	-0.0925855162	 0.23172
C	 0.7479036667	-0.6163190888	-1.3242581497	-0.254901
C	 0.0298659918	-1.9653633558	-1.5154571779	-0.230682
C	-1.421463712	-1.688993389	-1.0641052918	-0.228026
C	-1.2636205003	-0.7197753292	 0.0924199205	 0.070168
O	-0.7119391595	-1.3768845677	 1.2936587046	-0.265665
C	 0.4483772824	-0.6486677261	 1.2451451299	 0.378458
O	 1.3244285717	-0.6119150843	 2.0493840394	-0.332043
H	 0.0546692044	 1.7986118878	 0.7093899027	 0.29578
H	 0.5478203552	 0.056984125	-2.1656787762	 0.12112
H	 1.8316878043	-0.704116907	-1.2190894788	 0.125479
H	 0.0906107404	-2.3286544416	-2.5435534142	 0.108338
H	 0.4788878739	-2.7301324525	-0.8739669466	 0.125353
H	-1.9828145326	-1.1859490801	-1.8608486428	 0.11308
H	-1.9743068861	-2.589721126	-0.7846228531	 0.120158
H	-2.1387027063	-0.1280586379	 0.3635320677	 0.095057
