17
gdb 123876	5.12824	1.10867	0.94114	4.176	75.3	-0.2099	0.0333	0.2431	1216.9437	0.139653	-414.193167	-414.185547	-414.184603	-414.226019	27.831	
C	-0.1101981559	 1.5696016136	 0.0700303266	-0.234393
C	 1.4318614338	 1.5647714232	-0.1171448571	-0.159445
N	 1.4427219284	 0.1556881131	 0.316401649	-0.168935
C	-0.0247034519	 0.0293383481	 0.2412070891	-0.187703
C	 2.3397851397	-0.7586043941	-0.1539306327	 0.475604
N	 3.5190525451	-0.486664389	-0.6925495254	-0.356032
C	 4.0204617606	-1.7311581021	-0.9458171005	 0.035073
N	 3.2489852629	-2.7460808242	-0.6162248105	-0.22573
N	 2.1528376899	-2.0998502544	-0.1038614289	-0.284605
H	-0.4398228665	 2.0874949979	 0.9714923361	 0.121654
H	-0.6941211381	 1.9210518703	-0.7800765832	 0.119973
H	 1.7644416093	 1.6903398448	-1.1535060629	 0.125762
H	 2.014574425	 2.231072185	 0.5240657288	 0.122488
H	-0.4883948042	-0.3951266178	 1.1379874783	 0.114278
H	-0.3646862047	-0.5361234514	-0.6375311247	 0.110109
H	 4.9906917127	-1.8853851128	-1.3949301249	 0.119517
H	 1.390428574	-2.6303394501	 0.2802252029	 0.272387
