22
gdb 113855	3.57792	0.97859	0.88668	2.1251	83.24	-0.2174	0.0763	0.2937	1424.842	0.193924	-404.296432	-404.28698	-404.286036	-404.331614	34.466	
C	 0.4561965426	 1.5186872395	 0.1783710432	-0.373862
C	-0.2118092986	 0.1778677006	-0.1153925082	-0.131088
N	 0.479428606	-0.4927721112	-1.2205445353	-0.098316
C	 1.6082942275	-1.3630114308	-0.8901535455	-0.255455
C	 0.328322587	-1.9337326609	-1.392833723	-0.018802
C	-0.5442217468	-2.8026326758	-0.5134098378	 0.114825
C	-0.2714998568	-4.3247105254	-0.5831851813	-0.293106
C	-0.031125143	-4.2078604953	 0.9343767654	-0.061001
O	-0.2201414599	-2.7766516533	 0.8997621902	-0.282552
H	 1.4877785426	 1.3747077346	 0.5166832921	 0.115674
H	 0.4800605165	 2.1431569359	-0.7193807381	 0.121577
H	-0.0841474712	 2.05523524	 0.9644962378	 0.108234
H	-0.2479977105	-0.4339392677	 0.7968458376	 0.120858
H	-1.247877192	 0.3454272134	-0.43545706	 0.095008
H	 2.4780238589	-1.2857268039	-1.5377468206	 0.106312
H	 1.8216377106	-1.5333994466	 0.1630715438	 0.121545
H	 0.2618433935	-2.2391918682	-2.4390152708	 0.087936
H	-1.6016692845	-2.5404411695	-0.6614672703	 0.082882
H	-1.1110317352	-4.9488201694	-0.8916027639	 0.111867
H	 0.6123296524	-4.5903557524	-1.1662442862	 0.115403
H	-0.7808487527	-4.6982461941	 1.5671940013	 0.104912
H	 0.9686091835	-4.4795545495	 1.2917090795	 0.107149
