21
gdb 94708	3.28777	1.2352	1.06141	1.9616	78.33	-0.2349	0.0761	0.311	1209.9857	0.182796	-424.22193	-424.213283	-424.212338	-424.254662	34.413	
C	 0.079871932	 1.5306679276	 0.0889486846	-0.404915
C	 0.0172314689	 0.0140452294	-0.0060897775	 0.151409
C	 0.6606822236	-0.5351789926	-1.2891603226	-0.233356
C	 0.9716855533	-2.0265441113	-1.1873661204	-0.115163
C	 2.2103962074	-2.4895919559	-0.4339583083	-0.309723
C	 0.859289488	-2.723905552	 0.1520193132	 0.376579
O	 0.4450339618	-4.0610822837	 0.2044706409	-0.463692
C	 0.4077201945	-1.8856697349	 1.3352304998	-0.149811
O	 0.6692522647	-0.5098405571	 1.1508898051	-0.255671
H	 1.1219037915	 1.8641268053	 0.1195207977	 0.125105
H	-0.4049824127	 1.9910021935	-0.7774482448	 0.113627
H	-0.4189548126	 1.8809789654	 0.9963453899	 0.121566
H	-1.0386744311	-0.3094140294	 0.0217701114	 0.057372
H	-0.0196067584	-0.3501780826	-2.12799592	 0.098092
H	 1.5786782691	 0.0276218822	-1.5011933838	 0.101845
H	 0.7069727769	-2.635323523	-2.0461626826	 0.086428
H	 2.7354520865	-3.3580900664	-0.8139697109	 0.117592
H	 2.831012781	-1.7256344727	 0.0233581714	 0.119834
H	-0.5111990274	-4.0815079294	 0.082736303	 0.278877
H	-0.6744735935	-2.0523552298	 1.4950396638	 0.070997
H	 0.9299792662	-2.1898372025	 2.2481933401	 0.113007
