16
gdb 123648	3.98733	1.57607	1.22809	1.9695	74.42	-0.2284	0.0216	0.2501	976.7205	0.129254	-396.923281	-396.916966	-396.916022	-396.953776	25.974	
C	-0.0524067656	 1.567090634	-0.0010388396	-0.370208
C	 1.4521290123	 1.9034661407	-0.0404720528	-0.021903
N	 2.1939292006	 1.4688211911	 1.1574735467	-0.329349
C	 2.2712473137	 0.6485647143	-0.08605603	-0.212865
C	 1.2786071015	-0.4488480398	-0.0604427185	 0.40742
N	 1.3310658967	-1.7708486348	-0.0770324307	-0.349253
N	 0.0241561563	-2.1199166829	 0.007959863	-0.187483
C	-0.831723441	-1.0562389767	 0.0788689342	-0.210367
C	-0.0344972753	 0.0611839108	 0.0272664813	 0.225488
H	-0.5273629276	 2.0160746504	 0.8778778498	 0.122622
H	-0.5585170945	 1.9650771467	-0.8888383726	 0.108918
H	 1.7743910645	 2.8054778994	-0.5502749253	 0.087603
H	 3.0452146274	 2.0228253233	 1.2339241308	 0.229448
H	 3.2112019409	 0.5745514831	-0.6199263759	 0.096827
H	-0.2166058653	-3.0961239262	-0.0015535414	 0.27145
H	-1.8981052947	-1.2042463433	 0.1460078711	 0.131653
