17
gdb 39782	3.04558	1.88254	1.52544	2.8159	71.35	-0.2348	0.0719	0.3067	896.0688	0.13841	-417.896166	-417.889752	-417.888808	-417.926608	27.034	
C	-0.0225655608	 1.4865829963	 0.0096371288	-0.298698
O	 1.2319307488	 0.7643424219	-0.0070544699	-0.26962
C	 0.0504737067	 0.0349089353	 0.0018312149	 0.566973
C	-0.5161918359	-0.9739062196	 1.0150487394	-0.140317
N	-1.6541392892	-1.0681808619	 0.0144014284	-0.321994
C	-0.5374716215	-0.9640893893	-1.0089871627	-0.140316
C	 0.2876367409	-2.2489267885	-0.7539043219	-0.050645
N	 1.5577958544	-2.0322018648	-0.0240475379	-0.308662
C	 0.3032464015	-2.2561225837	 0.7302269397	-0.050645
H	-0.2402987749	 2.0168406956	 0.9350461259	 0.117442
H	-0.2596554318	 2.0257643757	-0.9058051749	 0.117442
H	-0.7668558826	-0.7209717285	 2.0443812922	 0.077073
H	-2.0575681085	-2.0070979097	 0.0140888848	 0.206268
H	-0.8096957156	-0.701206013	-2.0303196992	 0.077073
H	 0.14785664	-3.1341422717	-1.3640123376	 0.094722
H	 2.0948091571	-2.8985991579	-0.0338989754	 0.22918
H	 0.1762386916	-3.1472258063	 1.3345289453	 0.094722
