21
gdb 115747	2.44544	1.07213	0.79857	4.5187	84.31	-0.2367	0.0239	0.2606	1464.7943	0.182312	-383.264802	-383.255175	-383.25423	-383.300085	34.861	
C	-0.5341536872	 1.7646845384	-0.0966661304	-0.393199
C	-0.4680108474	 0.2341512472	-0.1022160061	-0.179004
C	 0.5204244889	-0.35027818	-1.1015009855	 0.076115
C	 0.542789574	-1.8876547151	-1.3043521601	-0.264617
C	 0.6152260085	-1.5938379035	-2.8190897008	-0.165138
N	 0.1730418597	-0.2083497095	-2.5427184326	-0.084478
C	 0.8020089994	 0.8577459568	-3.2958487582	-0.293742
C	 0.3625274788	 0.8529116462	-4.6967797983	 0.275603
N	 0.0318099717	 0.8396482234	-5.8033805365	-0.305083
H	 0.4512267924	 2.2083298395	 0.086836207	 0.112255
H	-0.9083449448	 2.148971891	-1.0509537647	 0.127556
H	-1.2093228651	 2.1252661044	 0.6850658091	 0.119959
H	-0.1837572343	-0.126066983	 0.8956117789	 0.098664
H	-1.4604032456	-0.1787062006	-0.3177777702	 0.104257
H	 1.5362259961	 0.0312544903	-0.8927802037	 0.056093
H	 1.3766829285	-2.4340802645	-0.8640435191	 0.109629
H	-0.3974568667	-2.3565998226	-1.0060900079	 0.114757
H	 1.6463977618	-1.6442209974	-3.2037640278	 0.092574
H	-0.0386517867	-2.1545564886	-3.4924322442	 0.120611
H	 0.53321481	 1.8237251467	-2.8557187638	 0.154348
H	 1.908743498	 0.7985261708	-3.289818115	 0.122842
