20
gdb 78953	2.44045	2.09203	1.54298	1.8509	80.81	-0.2221	0.0797	0.3018	957.7804	0.171484	-365.935115	-365.927522	-365.926578	-365.966608	30.904	
C	-0.000162291	 1.6143199988	-0.0174060164	-0.426377
C	 0.0412641763	 0.0954320608	 0.0210040729	-0.017863
C	 1.0682629814	-0.683791464	-0.8196066224	-0.015342
C	 1.1074690583	-1.8361403922	 0.2253074348	-0.134731
C	 2.6076100825	-1.5267088873	 0.4518648983	-0.06159
C	 2.2023911176	-0.278568262	 1.1379893984	-0.099699
N	 2.4592314436	-0.2679640362	-0.3421480347	-0.155368
C	 0.7030066188	-0.6584952672	 1.2136057579	 0.320353
C	 0.0526431828	-0.8476694784	 2.5585136072	-0.516409
H	 1.0014814463	 2.0346338057	 0.1135100635	 0.133664
H	-0.3897405832	 1.9748027802	-0.9756768605	 0.116029
H	-0.6452323312	 2.0153200227	 0.7723383848	 0.112015
H	-0.9530549938	-0.3367703084	-0.1557089647	 0.069487
H	 1.0074425177	-0.7987188166	-1.9011920277	 0.069087
H	 0.5912115393	-2.7911642695	 0.1685193666	 0.068586
H	 3.517611739	-2.1142681144	 0.4708697575	 0.093367
H	 2.7705113968	 0.4073450177	 1.7552242299	 0.087107
H	-0.0373915386	 0.1068945347	 3.0912774802	 0.120122
H	-0.9530670583	-1.270079069	 2.4602469666	 0.116823
H	 0.6408347155	-1.5224987553	 3.1908503977	 0.120738
