12
gdb 23767	3.37255	2.34875	1.38452	1.5653	61.03	-0.2217	-0.0422	0.1795	793.4418	0.086444	-418.843035	-418.836982	-418.836038	-418.873261	23.017	
F	 0.0308948355	 0.0281247063	 0.003846159	-0.071431
C	-0.0167606495	 1.3611697772	 0.0109456332	 0.177141
C	-1.1860012363	 2.0353580312	 0.0290366962	-0.1127
N	-1.257871989	 3.415691862	 0.0366720936	-0.283188
C	-0.1239048733	 4.0359951033	 0.025332755	 0.112705
N	 1.0897518628	 3.4269344724	 0.0070055223	-0.321548
C	 1.269795724	 2.0363714439	-0.0020574623	 0.291726
N	 2.4525965799	 1.5534379889	-0.0194073449	-0.565879
H	-2.1279988331	 1.496560655	 0.038340038	 0.130593
H	-0.1005304996	 5.122271299	 0.0303324568	 0.139551
H	 1.9419779519	 3.9719373938	-0.001142302	 0.273775
H	 2.4100087467	 0.5362729869	-0.023833405	 0.229256
