18
gdb 62173	5.13186	0.61937	0.57751	1.4717	71.47	-0.2558	-0.0314	0.2244	1827.9659	0.14509	-476.251986	-476.241793	-476.240849	-476.289023	34.738	
O	-0.2244990374	 1.3217301958	 0.0600656293	-0.433111
C	 0.0987829879	-0.060741659	-0.0983890808	 0.103563
C	 1.0601567372	-0.2573927054	-1.2746210609	-0.16679
N	 0.5247435552	 0.3554481592	-2.4726574906	-0.276387
C	 0.4199943898	-0.3011436657	-3.6583604289	 0.153979
O	 0.8162903062	-1.4278145604	-3.8710111696	-0.323351
C	 0.6420599685	-0.6584567531	 1.2041934767	-0.311912
C	-0.3091856102	-0.4129255272	 2.3582768789	 0.167796
O	-0.0021839146	 0.1211036173	 3.3909820126	-0.235275
H	 0.5290244864	 1.7634992235	 0.4698987253	 0.290494
H	-0.8572600135	-0.5356489045	-0.3497573338	 0.108801
H	 2.0386600232	 0.1768327188	-1.0194516756	 0.103873
H	 1.214598231	-1.3170542702	-1.4922262599	 0.149985
H	 0.1060625628	 1.267102167	-2.3684996828	 0.255082
H	-0.0732140525	 0.3226222046	-4.4293973435	 0.078487
H	 0.7642633969	-1.7431271122	 1.0789400034	 0.134692
H	 1.6200595148	-0.2349863188	 1.4605002334	 0.118562
H	-1.3481261918	-0.7735855796	 2.1805940967	 0.081514
