17
gdb 2031	6.95286	1.66776	1.5881	1.3878	64.49	-0.2562	0.0794	0.3356	822.7533	0.148418	-309.68941	-309.682493	-309.681548	-309.720043	26.842	
O	 0.7098622706	 0.6611744115	-0.7835888556	-0.43426
C	-0.0160653278	-0.2147283351	 0.0387049283	 0.180602
C	 0.1105227116	-0.113374293	 1.5874293719	-0.340971
C	-1.3927923205	-0.4118625132	 1.6610254634	 0.387279
C	-2.0070568547	-1.6034443719	 2.3374444672	-0.31348
C	-2.3440277252	-0.2007927089	 2.7967846529	-0.331941
C	-1.5585132845	-0.0529079695	 0.1784039353	-0.340961
H	 0.5094720392	 1.561946012	-0.5075364174	 0.275306
H	 0.238652244	-1.2204432755	-0.3061750399	 0.096242
H	 0.8030259057	-0.7939899835	 2.089864706	 0.101121
H	 0.3420229041	 0.9148415568	 1.89369217	 0.088997
H	-2.7692286336	-2.1620564201	 1.8028320474	 0.110769
H	-1.3769210795	-2.2124981211	 2.9783400125	 0.110769
H	-1.9415891071	 0.1354673369	 3.7473867317	 0.110206
H	-3.3333439581	 0.1859375945	 2.5723652973	 0.110206
H	-1.8553668912	 0.9944480985	 0.0386208075	 0.088996
H	-2.1977651831	-0.6852812583	-0.4434486686	 0.10112
