13
gdb 8605	2.11538	2.0684	1.48971	3.7181	69.44	-0.2868	0.0038	0.2905	912.0254	0.091818	-324.256068	-324.247448	-324.246504	-324.28874	31.068	
C	-0.0166344939	 1.5438472061	 0.0063584273	-0.397791
C	-0.0042513842	-0.0162609018	 0.0133149037	-0.286416
C	 0.7216021234	-0.5078179777	 1.196315043	 0.356399
C	 1.3163926345	-0.8733233677	 2.1716295435	-0.441778
C	-1.3841638379	-0.5298204076	 0.0070474776	 0.35642
C	-2.5205906476	-0.9134034195	 0.0046793411	-0.441796
C	 0.6916927678	-0.4865427137	-1.210304597	 0.31176
N	 1.237759168	-0.8218798669	-2.1706678308	-0.334943
H	 1.0082828435	 1.9189179894	-0.0008172059	 0.150156
H	-0.5454581625	 1.9026603841	-0.878391405	 0.150155
H	-0.5273155668	 1.8955326101	 0.904003369	 0.149216
H	 1.8410942211	-1.2123674863	 3.0311618756	 0.214309
H	-3.5220948053	-1.2684276187	 0.0022867981	 0.214308
