10
gdb 130848	2.38513	1.59771	0.95679	0.7936	63.44	-0.3123	-0.1346	0.1777	1073.9351	0.053062	-467.586733	-467.579509	-467.578565	-467.619136	24.726	
O	-0.0016505042	-0.0721393467	-0.0024030188	-0.218017
C	-0.015283729	 1.1298443823	 0.0084180875	 0.073902
C	 1.215147018	 1.957491743	 0.002326932	 0.240205
C	 1.3833268692	 3.3198222726	 0.0121071708	 0.134789
N	 2.7459969103	 3.5530656244	-0.0000744619	-0.15926
N	 3.3680907279	 2.4652143752	-0.0162438376	 0.035194
O	 2.4154095949	 1.3969168402	-0.0161736004	-0.184898
C	 0.4112805376	 4.3475314153	 0.0315677046	 0.252583
N	-0.4052436633	 5.166929214	 0.0476723983	-0.309362
H	-0.9460560912	 1.7279066099	 0.0239254555	 0.134864
