17
gdb 65583	2.97825	1.4916	1.30136	0.9541	73.45	-0.2495	0.0343	0.2838	1033.4423	0.133496	-421.768222	-421.759981	-421.759037	-421.800711	32.101	
C	 0.1305040636	 1.4934484058	 0.0151546808	-0.431161
C	 0.0355912692	-0.0214991503	 0.0039979557	 0.206971
O	 0.7635682419	-0.5352981762	-1.1146642876	-0.272607
C	 1.2567953029	-1.7945979458	-0.7155671403	 0.055932
C	 2.5492369406	-1.7671857796	 0.0697561225	-0.323377
C	 1.2120690062	-1.802825434	 0.775873095	 0.055926
O	 0.6954169788	-0.5478191585	 1.1585361118	-0.272607
C	-1.3638662069	-0.4938244869	-0.0405627801	 0.382758
C	-2.5038175181	-0.8716746302	-0.076837676	-0.479959
H	 1.1828676087	 1.7819331676	 0.0486746222	 0.130151
H	-0.3327943789	 1.8998162192	-0.8861356854	 0.139974
H	-0.3867623596	 1.8901855114	 0.891016245	 0.139964
H	 0.9742339636	-2.627097874	-1.349150177	 0.110562
H	 3.1485130502	-2.6721126296	 0.0827313059	 0.117226
H	 3.097603946	-0.8328033158	 0.0913622329	 0.129358
H	 0.8923126083	-2.6421496812	 1.3821852605	 0.110562
H	-3.5109592665	-1.2082491218	-0.108687866	 0.200324
