25
gdb 118217	2.15752	0.85359	0.70401	1.7648	86.18	-0.2433	0.0758	0.3191	1753.6902	0.225184	-426.629014	-426.617053	-426.616109	-426.667152	42.725	
C	 0.4294523538	 0.524218414	-0.9861195525	-0.386376
C	 0.1130042642	-0.1903651615	 0.3309687462	 0.150935
C	 0.3858557472	 0.6926571944	 1.5442548142	-0.386837
O	-1.2633864484	-0.5604366878	 0.3951747711	-0.276902
C	-1.6213362583	-1.7850172174	-0.2426213569	 0.128464
C	-1.3335882206	-2.9813183841	 0.6694758812	-0.396418
C	-3.1057428978	-1.6855190897	-0.5980326666	-0.202747
C	-3.4248301525	-0.5751693406	-1.6003208839	-0.067725
O	-4.8029151499	-0.5308787562	-1.9441747007	-0.420835
H	 1.4909043964	 0.7883746817	-1.0375981348	 0.111803
H	 0.20156909	-0.1068901075	-1.8503483101	 0.115298
H	-0.1601543113	 1.4428824997	-1.0694225963	 0.121722
H	 0.7393748888	-1.0928739359	 0.4039924092	 0.066427
H	-0.2518595942	 1.5821119686	 1.5144656298	 0.12177
H	 0.1707949435	 0.1505408546	 2.4688468081	 0.118116
H	 1.430519835	 1.0177527701	 1.5623015951	 0.1107
H	-1.0437183391	-1.8989142527	-1.1746207379	 0.065852
H	-1.5942007275	-3.9207501825	 0.1713233068	 0.113355
H	-0.2751229206	-3.0308366775	 0.9416674641	 0.114988
H	-1.9189829468	-2.9015639568	 1.5908855952	 0.121055
H	-3.4481905854	-2.6429559152	-1.0063980143	 0.101109
H	-3.6685823225	-1.5109766139	 0.3297614598	 0.091611
H	-3.0738756525	 0.388231013	-1.2075608903	 0.102448
H	-2.8943116531	-0.75723701	-2.5422665648	 0.102891
H	-5.2918780885	-0.2894397269	-1.1511767618	 0.279297
