14
gdb 1429	7.79216	1.57252	1.32188	0.6445	59.34	-0.2264	-0.0086	0.2178	871.8481	0.113649	-357.934562	-357.926897	-357.925953	-357.966316	26.863	
C	-0.4392004402	 1.8089032882	-0.5451084505	-0.334878
N	-0.0853107934	 0.4432971572	-0.8753380973	-0.323729
C	-0.5640178407	-0.4789492046	-0.1340012664	 0.468988
N	-1.3987201631	-0.3760578417	 0.9409850376	-0.566298
N	-0.2212711267	-1.8009958575	-0.5035472848	-0.339014
C	-0.4711329906	-2.9674632996	 0.1519439827	 0.174668
O	-1.0805833835	-3.0914063603	 1.1985359052	-0.332328
H	 0.0020254337	 2.4846447189	-1.2819334581	 0.125277
H	-1.5280178458	 1.9781730356	-0.5481777965	 0.112167
H	-0.0624416028	 2.1196727316	 0.4443412421	 0.104144
H	-1.4728434708	 0.5239070425	 1.3821450545	 0.259324
H	-1.5327873368	-1.2078890138	 1.5027940515	 0.283533
H	 0.3281903148	-1.8272491284	-1.3503683961	 0.268031
H	-0.0458262042	-3.8324074382	-0.3883389438	 0.100113
