16
gdb 10491	3.38945	1.46693	1.20201	1.7079	65.77	-0.2589	0.0426	0.3015	1016.1947	0.128165	-383.678718	-383.670313	-383.669369	-383.711748	30.891	
O	 0.7670453395	-1.5942877179	-0.2947307832	-0.417639
C	-0.1467044401	-0.7002710446	-0.8893472757	-0.135648
C	-1.4640506736	-0.6473698841	-0.125808599	 0.373729
C	-2.4798808484	 0.3932876248	-0.5846717527	-0.429721
C	-1.9692332081	 1.7609220071	-0.574044441	 0.310476
C	-1.5474901277	 2.8859417978	-0.5653731896	-0.444807
C	-1.9298157725	-1.8421770265	 0.5856542317	-0.228544
O	-1.2954183763	-0.7602987894	 1.2936920256	-0.278001
H	 0.7653735837	-1.378848203	 0.6472828623	 0.292816
H	 0.2619414738	 0.3194779253	-0.9514640556	 0.112808
H	-0.3259472513	-1.0481758617	-1.9132372477	 0.114077
H	-2.8147013935	 0.1338350952	-1.598364765	 0.137924
H	-3.3607852377	 0.3246531082	 0.0632147776	 0.142463
H	-1.178607095	 3.8817677959	-0.5542316602	 0.201396
H	-2.9905727713	-1.9676583176	 0.7961687295	 0.11554
H	-1.3427907816	-2.7544955594	 0.5234578928	 0.133129
