15
gdb 50276	2.21245	1.49664	1.04877	4.8494	71.63	-0.2548	-0.0497	0.2051	1122.4778	0.112239	-416.773123	-416.765043	-416.764099	-416.806668	29.298	
O	-0.5316559845	 0.9203015021	 0.9180133784	-0.232572
C	 0.2045728879	 0.8662945879	-0.0313321644	 0.170364
C	 1.4588486927	 1.7105101364	-0.1643007772	-0.125126
N	 2.5905362847	 1.0582261751	-0.8908693757	-0.336064
C	 2.7137762757	 2.2176632198	-1.7868660744	-0.045905
C	 1.4988949185	 2.3072164787	-2.6332573635	-0.309772
C	 1.4293912658	 2.856118947	-1.2101153854	 0.146709
C	 1.1050242433	 4.2090417107	-0.9212140607	 0.205505
N	 0.8530325917	 5.3135946438	-0.680887484	-0.344471
H	 0.0098935833	 0.1921279972	-0.8932937671	 0.088396
H	 1.7320954416	 2.1034394013	 0.8185018957	 0.119577
H	 3.3951064482	 0.9460510144	-0.2851296193	 0.243585
H	 3.661839348	 2.6845748874	-2.0218777005	 0.131322
H	 1.5021267875	 3.0869437726	-3.3869094482	 0.150043
H	 0.9597270158	 1.4042609756	-2.8987108736	 0.138408
