13
gdb 20461	4.87132	2.05814	1.48274	3.4326	59.95	-0.2442	-0.0424	0.2019	778.7973	0.097289	-394.738543	-394.732031	-394.731086	-394.769593	23.206	
C	-0.0328647524	 1.5265020829	 0.1792988679	-0.289458
N	 1.3094694046	 1.942722565	-0.3187233703	-0.309816
C	 2.1947678551	 0.7517824434	-0.5272876376	-0.288244
C	 1.2326690285	-0.384122401	-0.3731624195	 0.223265
C	 0.0018029216	 0.0388136105	 0.0162725112	 0.367743
O	-0.8202013755	-0.9488501022	 0.2126902336	-0.260529
N	 0.071669022	-2.1954292107	-0.121479037	-0.039596
N	 1.1863091764	-1.7451345021	-0.4208071981	-0.172486
H	-0.1696264889	 1.799774972	 1.2345610332	 0.142297
H	-0.8365887304	 2.0097020611	-0.3856636346	 0.135544
H	 1.1912854028	 2.4138535644	-1.2054559632	 0.234157
H	 2.6780165706	 0.8023300842	-1.5084255624	 0.125605
H	 2.9920518856	 0.7282856724	 0.2269112367	 0.131518
