21
gdb 14733	4.88816	0.70113	0.62505	2.8557	79.74	-0.2416	0.0281	0.2697	1824.0391	0.186508	-366.259753	-366.249386	-366.248441	-366.296249	35.05	
C	-0.2475414178	 1.4193390942	 0.5089954888	-0.381907
C	 0.2955578903	 0.0391839336	 0.1289359336	-0.170431
C	 0.453470513	-0.8995453228	 1.3307711097	-0.17945
C	 0.9990130961	-2.2735362171	 0.9189496774	-0.128196
N	 1.2118865957	-3.2909579755	 1.9334730815	-0.233038
C	 0.9564529837	-3.0633077268	 3.1416562092	 0.130317
O	 1.1637581885	-4.028673006	 4.0670590758	-0.195652
C	 0.8438557614	-3.6706555982	 5.403620967	-0.250099
H	 0.4169492645	 1.9249671234	 1.2185543713	 0.113259
H	-0.3484200876	 2.0643378159	-0.3694419026	 0.11282
H	-1.234062386	 1.3411240022	 0.9794635403	 0.11326
H	-0.3716333851	-0.4264128327	-0.6082659392	 0.098441
H	 1.2663748342	 0.1528320787	-0.3710541685	 0.09844
H	 1.1246949214	-0.4342741561	 2.0658349946	 0.094653
H	-0.5196178024	-1.0157742553	 1.8276899496	 0.094654
H	 0.3302489382	-2.711136474	 0.1641570862	 0.109577
H	 1.9581760925	-2.1354355954	 0.3999254895	 0.109577
H	 0.5647606348	-2.1270450337	 3.5603905977	 0.073082
H	 1.0635513042	-4.5449151681	 6.0178467721	 0.144228
H	 1.451893918	-2.8269246537	 5.7540910101	 0.123234
H	-0.2182264776	-3.4165017424	 5.512288056	 0.123229
