18
gdb 40569	3.99569	1.10545	0.94349	3.0077	74.1	-0.2437	0.007	0.2506	1258.1582	0.149005	-439.074732	-439.066717	-439.065773	-439.108378	29.556	
C	-0.0868062553	 1.4969542388	-0.0787958763	-0.168895
O	 1.1912832701	 0.8899696993	 0.0783815523	-0.22462
C	 0.0376421125	 0.0432615123	 0.0883646021	-0.001176
C	-0.2921685074	-0.6126833645	 1.3940678696	 0.403249
N	-0.3716465529	 0.0469288827	 2.4712400656	-0.314414
C	-0.7172829532	-0.6500074902	 3.7040357	-0.153588
C	-1.4107967176	-1.9924128178	 3.4530579579	-0.234944
C	-0.6290856039	-2.7457753146	 2.3855973109	-0.072129
O	-0.4688392367	-1.9496068026	 1.2022888818	-0.268253
H	-0.4280724514	 2.0798949013	 0.7730033366	 0.135621
H	-0.2988546697	 1.9009673444	-1.0680603364	 0.112037
H	-0.0551594024	-0.6125401218	-0.7746554211	 0.103183
H	 0.1987418317	-0.7951203382	 4.2934799071	 0.114518
H	-1.3571303106	 0.0111169404	 4.2985780964	 0.112092
H	-1.4699447485	-2.592361817	 4.3667852249	 0.106239
H	-2.4345753331	-1.8237655082	 3.1004254051	 0.11583
H	 0.3693511744	-3.0158489299	 2.7538872005	 0.116134
H	-1.1334532461	-3.6591256445	 2.0614297128	 0.119115
