20
gdb 112675	3.44612	1.02003	0.82723	2.506	76.42	-0.2276	-0.031	0.1966	1404.7943	0.170008	-440.299053	-440.289808	-440.288864	-440.33324	34.322	
C	-0.0611760041	 1.5286480728	-0.055764063	-0.389715
C	-0.0187536217	 0.0013972997	-0.0310466465	-0.111603
N	-1.3324778759	-0.5946505084	 0.1482838221	-0.081051
C	-1.3850958353	-2.0413922421	-0.0915954301	-0.198361
C	-2.8110000465	-2.3863990731	 0.3491013376	 0.053725
O	-3.0539068704	-3.7344302188	 0.6303312783	-0.439955
C	-2.9483502982	-1.5012378054	 1.5853911312	 0.362281
O	-3.6424849383	-1.7743280819	 2.5319556251	-0.32662
C	-1.9644887817	-0.3493275371	 1.4428007364	-0.277764
H	 0.9352539359	 1.9315422819	-0.2596814618	 0.118158
H	-0.7452970001	 1.8813462303	-0.8331079164	 0.12651
H	-0.3924375977	 1.9407637428	 0.9025399917	 0.121257
H	 0.3783442242	-0.3662078731	-0.9845204696	 0.104572
H	 0.6852809959	-0.3383179321	 0.7552032425	 0.078955
H	-1.1869081784	-2.2591165849	-1.1442642167	 0.115813
H	-0.668593052	-2.6185190905	 0.5228873778	 0.093584
H	-3.5103649501	-1.9959214835	-0.4113948598	 0.1038
H	-3.5827165086	-3.7447147299	 1.4417581312	 0.293711
H	-1.2613994725	-0.4054010358	 2.2975425957	 0.114584
H	-2.4629170046	 0.6240999691	 1.4974481444	 0.138119
