24
gdb 83235	2.35199	1.53561	1.31154	1.1658	88.38	-0.2135	0.0749	0.2884	1149.7271	0.217603	-368.400924	-368.391516	-368.390572	-368.434136	37.21	
C	 0.2412476587	 1.6360898192	-0.1705212136	-0.319052
N	 0.1129354801	 0.2007430328	-0.0003489723	-0.101071
C	 1.1397521059	-0.7659028068	-0.3394122887	-0.033391
C	 2.60263334	-0.3391118113	-0.3974702111	-0.237975
C	 2.9143464275	 0.3165506638	 0.9716012547	-0.267241
C	 1.8254337178	-0.1784092983	 1.9702454251	 0.291435
C	 2.3237637321	-1.4369316053	 2.7086235957	-0.416933
C	 1.4365215544	 0.8922065223	 3.0010166488	-0.43485
C	 0.6573698837	-0.6125970926	 1.0735685535	-0.04692
H	 1.2367792884	 2.0648311052	 0.0055706271	 0.102674
H	-0.0486917757	 1.8847237529	-1.1974388549	 0.119576
H	-0.4656456005	 2.1356626561	 0.4998543809	 0.1237
H	 0.82141593	-1.5774175599	-0.991283834	 0.079784
H	 3.2171590337	-1.2327303799	-0.554805092	 0.10221
H	 2.8142294399	 0.3345158119	-1.2357506034	 0.099473
H	 3.9173859195	 0.0570749567	 1.3251166395	 0.093397
H	 2.8933226492	 1.4067592279	 0.8960177868	 0.101456
H	 3.1788191282	-1.19491444	 3.3490854527	 0.109128
H	 1.5390149771	-1.8609262854	 3.3447695826	 0.111226
H	 2.6383492397	-2.2150822634	 2.0051858245	 0.11331
H	 1.062399884	 1.8009075767	 2.5216846698	 0.114149
H	 0.6550335436	 0.5231140679	 3.674667487	 0.11059
H	 2.2987453971	 1.1702426169	 3.6180219763	 0.108876
H	-0.0613195145	-1.2982544874	 1.5216815851	 0.076448
