15
gdb 54884	2.80241	1.55612	1.01314	3.7805	68.47	-0.2569	-0.0383	0.2186	1107.2215	0.11222	-454.014436	-454.006306	-454.005362	-454.047829	29.161	
C	-0.0304354873	 1.542893762	-0.0020606339	-0.50752
C	-0.0228380776	 0.0286167576	 0.1041319013	 0.414231
O	-0.0338042033	-0.5582298875	 1.1528400055	-0.283951
N	-0.0013019381	-0.6660839143	-1.1303523501	-0.20192
C	 0.014490595	-0.1051017664	-2.4202676484	 0.088136
N	 0.0328194969	-0.915144536	-3.4010999922	-0.252015
C	 0.0317970962	-2.2570963489	-2.8248298161	-0.292301
C	 0.0088746499	-2.0922732884	-1.3033639162	 0.401627
O	 0.0010937195	-2.926028063	-0.4476199063	-0.302662
H	 0.8610087088	 1.9113102911	-0.5197229961	 0.151633
H	-0.9090806598	 1.9009839577	-0.547993231	 0.151544
H	-0.0488213598	 1.9430107908	 1.0107921745	 0.16183
H	 0.0103634535	 0.9719548828	-2.5336849976	 0.148008
H	-0.8405405354	-2.8283179502	-3.1601380784	 0.16167
H	 0.9195528715	-2.8188167872	-3.134757075	 0.161689
