16
gdb 80280	2.52764	1.58971	1.3023	5.1321	64.44	-0.2484	0.0431	0.2915	1014.0722	0.123873	-475.046279	-475.038102	-475.037158	-475.078762	30.937	
C	-0.0461682274	 1.5060903201	-0.0390276045	-0.490696
C	 0.0604253182	 0.0075955097	 0.033717252	 0.247571
N	-1.1158798245	-0.7751184973	-0.2588937032	-0.436363
C	-1.3132919545	-1.8037261261	 0.6522768849	 0.468102
O	-2.2434687624	-2.5514952198	 0.7332148062	-0.378482
O	-0.2013173403	-1.8667248634	 1.4533373291	-0.228749
C	 0.6830631782	-0.8108135756	 1.1518630631	-0.010129
C	 1.3283507398	-0.7898920145	-0.2267497114	 0.053203
O	 1.3280374763	-1.8980781964	-1.0538153338	-0.424703
H	 0.8963995428	 1.9688450622	 0.2652193092	 0.136667
H	-0.2607227387	 1.8402097828	-1.0606582476	 0.132645
H	-0.8372322229	 1.8785891997	 0.6208967133	 0.133885
H	-1.9114471054	-0.4014018625	-0.7492808379	 0.267288
H	 1.1674095244	-0.3965622094	 2.0281312597	 0.118941
H	 2.2507556399	-0.2180170664	-0.2881782013	 0.112867
H	 0.4317466066	-2.003516173	-1.4003197778	 0.297952
