19
gdb 47264	2.30352	1.62529	1.08859	3.2247	83.32	-0.2388	-0.0514	0.1873	1137.2355	0.161105	-385.91204	-385.903963	-385.903019	-385.945008	31.23	
O	 0.4260203623	 1.4574383849	 1.7149485892	-0.326767
C	 0.2274756747	 1.65983354	 0.5307825108	 0.366684
C	-1.2044402402	 1.8324845245	 0.0284120939	-0.318167
C	-1.6617452126	 3.3046543116	-0.0102707503	-0.251603
C	-1.027503888	 4.2505420375	-0.9957906737	-0.019988
C	-0.2235021058	 4.0194348585	-2.0328470018	-0.065183
C	 0.3239330352	 2.6898995665	-2.5229128133	-0.328904
C	 1.4433284266	 2.1370535837	-1.662760704	-0.045669
C	 1.3866947408	 1.7168339578	-0.3927661881	-0.121366
H	-1.3463902017	 1.3515620862	-0.9417553297	 0.10763
H	-1.832058918	 1.3070199933	 0.7530188743	 0.120311
H	-2.7480018265	 3.3157819139	-0.1811181368	 0.117576
H	-1.5317487549	 3.7243318884	 0.9963095024	 0.128246
H	-1.2950011574	 5.2906611621	-0.8129076992	 0.090395
H	 0.115211517	 4.8836845205	-2.5989618538	 0.093399
H	-0.4796962901	 1.9523363681	-2.612164874	 0.131308
H	 0.7085639513	 2.8279705128	-3.5365554189	 0.108564
H	 2.4217012306	 2.1140165588	-2.1386326578	 0.109037
H	 2.3045435367	 1.3969275411	 0.0936103406	 0.104497
