17
gdb 37104	3.71485	1.65283	1.55536	1.8904	75.01	-0.2089	0.0091	0.218	899.0244	0.137185	-384.605847	-384.599422	-384.598478	-384.636142	27.353	
C	 0.0254455041	 1.4307464526	-0.0698205358	-0.360373
C	 1.3408011848	 0.714831135	 0.0301313075	 0.19066
C	 2.0102097594	 0.4443435717	 1.370825322	-0.352371
C	 1.0053435949	-0.4528373301	 2.0852569988	-0.055934
C	-0.0541818336	-0.756106136	 1.3225579492	-0.168713
C	 0.0089976268	-0.079577306	 0.0039616555	 0.163333
C	 0.4779808619	-0.7523964528	-1.3289277104	-0.032417
O	 0.7405885216	 0.2731818232	-2.2932063322	-0.235974
C	 1.7342647547	-0.0040075326	-1.2991986124	-0.028892
H	-0.3098138097	 1.9387403261	 0.8279670978	 0.118443
H	-0.2374472298	 1.9118531281	-1.0033795065	 0.138646
H	 2.9791398536	-0.0586419849	 1.2482709264	 0.109698
H	 2.218776808	 1.3609683785	 1.937441023	 0.115552
H	 1.1371291169	-0.7651274831	 3.1174683043	 0.093824
H	-0.8738802685	-1.3959011645	 1.6333148112	 0.095274
H	 0.2167082675	-1.7369403996	-1.698854424	 0.10536
H	 2.7360259776	-0.2395459357	-1.6414824244	 0.103884
