18
gdb 100226	2.04889	1.27319	1.19047	3.2797	77.68	-0.2682	0.0167	0.2849	1203.6724	0.143361	-401.916042	-401.905586	-401.904642	-401.951446	37.147	
C	 0.0689930171	 1.3926197775	 0.0770406061	-0.258687
O	-0.0406821459	-0.0196494877	-0.0050451716	-0.253042
C	-1.3436749991	-0.5679682375	-0.0076432482	 0.199576
C	-2.1397696796	-0.1897117609	-1.2703559585	-0.426057
C	-1.1372053254	-2.1047094986	 0.0444137779	-0.382882
C	-0.4405725378	-2.569924165	 1.2340362144	 0.318371
C	 0.1211127616	-2.9674032857	 2.2179251305	-0.429317
C	-2.1035589501	-0.1248320385	 1.1910875524	 0.273726
N	-2.7085898845	 0.2503179046	 2.101145721	-0.341271
H	 1.1351352345	 1.6048602912	 0.1753267474	 0.141133
H	-0.3082221804	 1.8923705471	-0.8245505737	 0.114761
H	-0.457525704	 1.7896326588	 0.9540566414	 0.139163
H	-1.5678438141	-0.4878047454	-2.1533625321	 0.134419
H	-3.107201738	-0.6980827754	-1.2809799139	 0.139239
H	-2.3263847294	 0.8848140029	-1.3156979871	 0.139822
H	-2.1160086457	-2.5906328098	-0.0340326509	 0.143653
H	-0.5690015606	-2.3686200073	-0.8549342862	 0.145675
H	 0.6172257214	-3.3117094104	 3.0913787012	 0.201717
