18
gdb 60505	3.08784	1.13853	0.98082	2.0896	80.66	-0.2239	-0.0639	0.16	1251.9259	0.144675	-401.887935	-401.878341	-401.877397	-401.922917	34.661	
C	 0.7986868616	 1.5386274614	 0.4662822773	-0.392151
C	-0.0945606951	 0.359640279	 0.0387550091	-0.056421
N	 0.0238750306	 0.1630440891	-1.3959080394	-0.079565
C	 1.1501494698	-0.5258624217	-2.01931276	-0.223583
C	-0.2222167323	-1.1149773705	-2.0470145194	-0.22992
C	 0.1914823538	-0.8300652759	 0.9690627703	 0.201841
O	 0.8930088222	-1.776960165	 0.6805249015	-0.303829
C	-0.4467016613	-0.7383300341	 2.27595319	 0.274193
C	-0.9862983862	-0.6382810871	 3.3478609199	-0.395902
H	 1.8539382307	 1.2889857636	 0.3199450512	 0.13232
H	 0.5587046323	 2.4076642479	-0.1504665297	 0.136846
H	 0.6433809776	 1.7929213091	 1.5178524302	 0.129634
H	-1.139170287	 0.6423847397	 0.228517229	 0.102769
H	 1.5517109145	-0.0342605996	-2.9021509205	 0.108152
H	 1.8747619505	-1.0257470632	-1.3869163336	 0.139225
H	-0.3790527703	-1.9991083689	-1.4364626043	 0.12783
H	-0.8275511796	-1.0617138862	-2.9485084424	 0.111123
H	-1.4545736717	-0.5679420877	 4.2998717109	 0.217438
