16
gdb 67255	3.13874	1.57737	1.31387	2.1576	68.34	-0.2227	0.0684	0.291	974.423	0.124466	-437.772518	-437.765446	-437.764501	-437.803759	28.529	
O	-0.1078067662	 1.4236223084	 0.0062770326	-0.447738
C	 0.0149653645	 0.0676081301	 0.025124821	 0.394771
C	 0.067314168	-1.004697742	-1.0091587147	-0.130553
N	 1.2774023091	-1.6143953696	-0.4461222901	-0.301821
C	 0.9150561229	-0.9724268955	 0.8527970853	-0.234274
C	-0.4121202331	-1.625346559	 1.2817870264	 0.516205
C	-0.6926708293	-2.8022713071	 2.1012167765	-0.293511
O	-0.9266882658	-1.4624360863	 2.5870880323	-0.283926
C	-1.0648053866	-0.9916907312	 0.0803724336	-0.255798
H	 0.6664120153	 1.7954392397	-0.4332726614	 0.297864
H	-0.1598449988	-0.9803376317	-2.0677703467	 0.104699
H	 1.2332899985	-2.6345065567	-0.3909416744	 0.210091
H	 1.7085469091	-0.775329587	 1.5715685255	 0.087881
H	-1.5916831226	-3.3904660307	 1.9218511349	 0.11742
H	 0.1203168148	-3.3363592398	 2.5923761458	 0.114428
H	-2.1124768498	-0.9034093416	-0.1727444166	 0.104262
