11
gdb 130731	3.02789	1.6066	1.22278	1.832	61.29	-0.2707	-0.1142	0.1565	937.6698	0.065547	-484.835376	-484.82833	-484.827386	-484.867461	25.214	
O	 0.0328131634	 0.2065111488	-0.823198612	-0.305919
C	 0.0524667498	 1.2456683801	-0.223644909	 0.44367
N	-1.1840915818	 1.8499265048	 0.1546324973	-0.248448
N	-1.5571085954	 3.0918901544	 0.5366795098	-0.029164
N	-0.838287382	 4.0992220977	 0.3401462238	-0.172788
C	 0.4573754817	 4.072593921	-0.25414942	 0.351561
O	 0.7848860513	 4.8775109171	-1.0835396423	-0.26676
C	 1.4155757395	 3.0689759306	 0.3269476113	-0.041711
N	 1.2220438374	 1.8135879951	 0.3028695707	-0.19693
H	-1.968439701	 1.2092079287	 0.1468098778	 0.295047
H	 2.342874277	 3.4525328218	 0.7551631124	 0.171442
