16
gdb 123801	5.51734	0.96326	0.85472	1.6966	70.98	-0.2312	-0.0095	0.2217	1311.8284	0.125957	-434.048382	-434.040735	-434.039791	-434.081478	28.238	
C	-0.3350787371	 1.1813872032	-0.1519082967	-0.236789
C	 1.118103655	 1.1019609524	 0.2425644509	-0.293851
C	 0.3330147666	-0.1587326057	 0.0054538501	 0.044455
N	 0.0014055902	-0.9511384418	 1.1518307053	-0.382818
C	-1.1036992004	-1.7490357752	 1.1577191605	 0.460195
N	-2.0782309952	-1.6754015822	 0.2747518345	-0.222866
O	-2.9862894575	-2.6595234293	 0.741527698	-0.161824
C	-2.4321823891	-3.1917194787	 1.8227359701	 0.119239
N	-1.2822681554	-2.6986772507	 2.1499674616	-0.3372
H	-1.0487497858	 1.4647044572	 0.611739102	 0.129188
H	-0.5884577984	 1.5007596604	-1.1557501968	 0.122613
H	 1.875078794	 1.3701164683	-0.4852853948	 0.119793
H	 1.3711024515	 1.3416238463	 1.2693707504	 0.120002
H	 0.5346253642	-0.7151368544	-0.9086380069	 0.101629
H	 0.7632440898	-1.3133556876	 1.7054979339	 0.256458
H	-2.9818622524	-3.9754487922	 2.324378508	 0.161776
