19
gdb 43366	2.76246	1.56704	1.19477	3.3475	81.41	-0.2341	-0.0442	0.1898	1081.0845	0.160711	-385.919507	-385.911672	-385.910728	-385.952397	30.274	
O	-0.3407521137	 0.0368651206	 0.0113023131	-0.353175
C	-0.2172311664	 1.24243278	 0.0147729015	 0.322691
C	-1.2926255066	 2.2573174921	 0.0338604924	-0.175037
C	-0.7588240473	 3.484510264	 0.0319347464	-0.057565
C	 0.7495099188	 3.4759842178	 0.0115102962	-0.358225
C	 1.125837396	 1.98160181	-0.0002394344	 0.245396
C	 2.1670196017	 1.5037829056	 1.0630951729	-0.262434
C	 3.2635023725	 1.4918448523	-0.0316800572	-0.211086
C	 2.1374698617	 1.5134404636	-1.0959032657	-0.262421
H	-2.3434702526	 1.9984895694	 0.0469983089	 0.116986
H	-1.3229990027	 4.4115452418	 0.0436287658	 0.115141
H	 1.1274792492	 4.0140944886	-0.8675746655	 0.119149
H	 1.1511217385	 4.0062638894	 0.8848556439	 0.119158
H	 2.3137025615	 2.1488396632	 1.9333665716	 0.095311
H	 1.9159275489	 0.4945632368	 1.4002037256	 0.124111
H	 3.8518792508	 2.4139215802	-0.0355845353	 0.100413
H	 3.9508863286	 0.6431534009	-0.0448966707	 0.102171
H	 1.8771336585	 0.5072498177	-1.4350568781	 0.124104
H	 2.2603255026	 2.166308886	-1.9640305316	 0.095313
