15
gdb 116738	6.15104	0.61738	0.59188	5.434	73.21	-0.2731	-0.0843	0.1888	1805.2489	0.109083	-453.946752	-453.936732	-453.935788	-453.984571	32.244	
C	 0.1048347304	 1.1629561765	 0.2695623002	-0.253552
O	-0.1497267825	-0.217486084	 0.0153612358	-0.183351
C	 0.6197784188	-0.7937737711	-0.9129525263	 0.146924
N	 0.4723775891	-2.0136384088	-1.1988826504	-0.194977
C	 1.3478245272	-2.5670722805	-2.1907735655	-0.282903
C	 2.4583563998	-3.4065207558	-1.5709899819	 0.29919
O	 2.7793623263	-3.3966322365	-0.4137420564	-0.245647
C	 3.183551955	-4.2501377265	-2.5502257276	 0.216776
N	 3.7446373545	-4.8944859741	-3.3294463689	-0.292944
H	 1.1161475043	 1.3136284384	 0.663538194	 0.13801
H	-0.0309165548	 1.7665549812	-0.6351697701	 0.133129
H	-0.6226743323	 1.4722695446	 1.0198764113	 0.155646
H	 1.3526070979	-0.1219380894	-1.3886594366	 0.081879
H	 0.7867989469	-3.2116107809	-2.8802034754	 0.151493
H	 1.8628812294	-1.819743823	-2.8268306623	 0.130328
