20
gdb 71638	2.66997	1.60795	1.54453	1.5526	78.29	-0.2353	0.0734	0.3087	996.3213	0.173847	-403.095044	-403.08763	-403.086686	-403.126465	30.46	
O	-0.0776326355	 1.3870369257	 0.0192868344	-0.471306
C	 0.0345488222	 0.0039705674	 0.0279428336	 0.341125
C	 0.6181247186	-0.9631329107	 1.0824117455	-0.238353
N	 0.0561882092	-1.9134382735	 0.0219614938	-0.169019
C	-1.1684933882	-0.9510877955	-0.0055342196	 0.023512
C	-2.062216677	-1.0184822958	-1.2373759021	-0.252729
C	-1.2838334567	-1.576418736	-2.4348983314	-0.197414
C	 0.1414279579	-1.0107572108	-2.4349373772	-0.247567
C	 0.6861533189	-0.9443948046	-1.0144749271	-0.016985
H	 0.8066587013	 1.7700620281	 0.0148032079	 0.280492
H	 1.7053305659	-1.0266490328	 1.1863016021	 0.092157
H	 0.1118734842	-1.0401038181	 2.0482341135	 0.100309
H	-1.7401464098	-1.0097821017	 0.9256650964	 0.069666
H	-2.9415258057	-1.6371577248	-1.0311201601	 0.100194
H	-2.431302487	-0.0054498445	-1.4437377524	 0.112124
H	-1.2235073083	-2.6645846918	-2.3323535551	 0.117602
H	-1.7971482466	-1.3693383339	-3.3786239941	 0.091777
H	 0.7962901812	-1.6217934657	-3.0647716253	 0.100108
H	 0.1607630081	 0.0047924343	-2.8531600239	 0.102923
H	 1.7802165873	-0.9922104654	-0.985591539	 0.061385
