17
gdb 34652	3.60097	1.16031	0.91838	1.1658	87.8	-0.2196	-0.0454	0.1742	1247.0416	0.135787	-384.656084	-384.647887	-384.646943	-384.688978	31.292	
C	 0.0947869784	-1.2770724909	 0.2993477383	-0.425502
C	-0.0056253343	-0.0849655684	 0.1588957776	 0.237382
C	-0.0817100552	 1.3321225161	-0.0145031508	 0.130243
C	-1.2869927414	 1.9395936908	-0.0032755109	-0.162588
C	-1.4834017575	 3.4193395559	-0.167783737	-0.153565
O	-0.6485575414	 4.1933773612	 0.685381596	-0.233082
C	 0.6233327298	 4.4862741135	 0.1645696075	-0.139741
C	 1.4893337552	 3.3200631651	-0.2112556213	-0.075433
C	 1.2049707392	 2.0116662972	-0.2445718845	-0.126294
H	 0.1688203218	-2.3284085402	 0.4278326174	 0.195306
H	-2.1732197742	 1.3315554845	 0.1474325207	 0.103598
H	-1.3262290978	 3.7123059433	-1.2195824593	 0.109334
H	-2.5124885759	 3.685522593	 0.0919566877	 0.116999
H	 0.5517546814	 5.1692786032	-0.7030608533	 0.099761
H	 1.1298063756	 5.0564492264	 0.9550739588	 0.126512
H	 2.5071833357	 3.6137801466	-0.4650004084	 0.09845
H	 2.0173705806	 1.3356317829	-0.4960844385	 0.098621
