19
gdb 95784	2.22582	1.65762	1.02155	2.2203	71.54	-0.2611	-0.031	0.23	1164.6855	0.159369	-460.190086	-460.18141	-460.180466	-460.22327	32.872	
C	-0.0834950606	 1.5147480219	 0.0625782635	-0.403664
C	 0.0603356157	-0.0053401076	 0.0442716859	-0.103694
C	 0.7974857556	-0.5209921456	-1.2209927367	-0.088053
O	 0.9544475007	-1.9235258804	-1.2127788438	-0.2364
C	 1.7568830577	-2.3676470882	-0.1384563167	-0.116129
C	 1.0912293031	-2.0413923014	 1.2225247816	 0.038905
O	 1.9115062795	-2.4193867411	 2.2886905685	-0.436097
C	 0.8064806408	-0.5461147733	 1.2475621139	 0.343707
O	 1.2389009882	 0.136462246	 2.1538065441	-0.3374
H	 0.8962738536	 2.0011502029	 0.0564016249	 0.131965
H	-0.6471733802	 1.8601832224	-0.8091436829	 0.116247
H	-0.6038053409	 1.8448011406	 0.9644223599	 0.136672
H	-0.9282930875	-0.4842808432	 0.0368514499	 0.109926
H	 0.219292345	-0.2736369434	-2.115195465	 0.120352
H	 1.7773979027	-0.0206114802	-1.2984691544	 0.10077
H	 1.8783438134	-3.4475583914	-0.2465252489	 0.126521
H	 2.7550920508	-1.9017809335	-0.1601957422	 0.102884
H	 0.1276788778	-2.5751096888	 1.2574440404	 0.099029
H	 2.0567552346	-1.6050747059	 2.7981028881	 0.294459
