19
gdb 40879	3.46052	1.50168	1.33104	1.8627	78.49	-0.23	0.0046	0.2345	1008.1932	0.160872	-385.827998	-385.820864	-385.81992	-385.859703	28.793	
O	 0.0643183181	 1.3813545822	-0.4486832488	-0.278504
C	 1.3988369489	 1.5271931688	 0.0889659158	-0.16659
C	 1.3490304172	 0.1155401221	 0.690069767	 0.366015
C	-0.0658922848	 0.0484292699	 0.0815098852	-0.16345
C	 2.4095292261	-1.0100232918	 0.4561147448	-0.143675
C	 3.6265681221	-0.3716400804	 1.1419419207	-0.087263
C	 3.1167065199	 0.1275938827	 2.2725347534	-0.08726
C	 1.6294552577	-0.2460660446	 2.185699956	-0.143687
C	 1.7346421767	-1.7247501728	 1.6768594852	-0.221214
H	 2.1445308493	 1.6853705239	-0.7003338836	 0.100178
H	 1.4633703181	 2.3522794249	 0.8094844176	 0.100174
H	-0.8938797601	-0.0309165253	 0.7991834901	 0.098692
H	-0.2127652956	-0.6981337214	-0.7109432927	 0.098697
H	 2.5382310937	-1.4914855104	-0.5135639325	 0.063851
H	 4.638465347	-0.3478471563	 0.7635672622	 0.10241
H	 3.5969895784	 0.6719370369	 3.0729646803	 0.102411
H	 0.9581135079	 0.0559938974	 2.9898810068	 0.063849
H	 0.7657498667	-2.1763326063	 1.4393479308	 0.099275
H	 2.3535759127	-2.4109086295	 2.2590926116	 0.096093
