22
gdb 113269	4.34159	0.75369	0.7173	2.8155	84.49	-0.2327	-0.0215	0.2112	1656.7383	0.190695	-404.334487	-404.323848	-404.322903	-404.371119	37.928	
C	-0.3027827567	 1.5865156255	-0.4348071684	-0.372935
C	 0.0237714008	 0.19598759	 0.1059981674	-0.117392
N	-1.200161782	-0.5912141548	 0.2254826979	-0.112376
C	-1.5893340371	-1.436101124	-0.8982521874	-0.296267
C	-1.152111306	-2.0453330501	 0.3981769256	 0.302524
C	 0.1679552772	-2.7937778244	 0.4641952533	-0.46296
C	-2.2105580788	-2.5777378459	 1.3613288518	-0.324868
C	-2.7144938689	-3.9479142564	 0.9632589454	 0.16175
O	-2.7161355125	-4.9200168412	 1.6742924638	-0.24116
H	 0.6018151555	 2.1993976798	-0.4954078022	 0.11194
H	-0.7360355479	 1.522139915	-1.4383954862	 0.118561
H	-1.0254816089	 2.0903857346	 0.2126550586	 0.12731
H	 0.7791515187	-0.2780287672	-0.5417916644	 0.083749
H	 0.4663164765	 0.2793862954	 1.1058552845	 0.104734
H	-2.6382379329	-1.4049262495	-1.1850845351	 0.110324
H	-0.8974468005	-1.519404477	-1.7365913536	 0.106359
H	 0.8774292162	-2.4607417941	-0.2952940501	 0.123207
H	 0.6354090078	-2.6722347879	 1.4481867251	 0.127535
H	 0.003961051	-3.8663792117	 0.31596842	 0.133822
H	-1.8275974052	-2.6288988661	 2.3857651085	 0.115355
H	-3.0606636452	-1.8844158767	 1.3453199353	 0.127499
H	-3.1019368511	-4.0047506233	-0.0811955098	 0.073289
