19
gdb 80878	2.26458	1.95701	1.54393	1.755	74.18	-0.2501	0.0673	0.3174	964.0405	0.159397	-422.983953	-422.97613	-422.975186	-423.015651	31.699	
C	-0.0002366352	 1.4581434517	-0.0224728163	-0.507052
C	-0.0504953752	-0.0416017143	 0.0412913878	 0.36785
O	 0.4210387482	-0.7345954766	-1.1625074319	-0.322059
C	-0.2654628446	-1.8948302856	-0.6138628812	-0.010484
C	 0.5266553551	-2.2100690311	 0.6673690238	-0.039904
C	 1.9008934072	-1.594946282	 0.7618534235	-0.305887
C	 0.6919485583	-0.7923636445	 1.1738009305	-0.077259
C	-1.3498541258	-0.885297186	-0.1130208857	 0.088805
O	-2.0988465382	-1.1218945795	 1.0457064635	-0.431448
H	 1.0361918699	 1.8068833104	-0.0684420471	 0.131553
H	-0.5329517815	 1.8318347957	-0.901407994	 0.123039
H	-0.4627721396	 1.8841639122	 0.873651994	 0.129323
H	-0.454347323	-2.6818851193	-1.3444595098	 0.072511
H	 0.2243597618	-3.0301929884	 1.3051781006	 0.089493
H	 2.5269551251	-1.9561010047	 1.5711986302	 0.105211
H	 2.4279318393	-1.3331648049	-0.1469659624	 0.125838
H	 0.5185790616	-0.511320963	 2.2043169626	 0.092799
H	-1.9584204878	-0.5154308368	-0.9464504855	 0.077979
H	-2.9467383258	-1.4980067633	 0.7930792671	 0.289692
