21
gdb 90778	3.73541	1.30045	1.20252	1.8005	81.37	-0.2452	0.0811	0.3263	1120.8983	0.18399	-387.07853	-387.070517	-387.069573	-387.110515	32.688	
C	 0.0439957668	 1.4947923172	 0.0727766634	-0.504226
C	-0.0028285106	-0.0047533065	 0.0074674183	 0.360957
C	-1.2849978382	-0.8375518335	-0.1082999852	-0.301837
C	-0.5427273143	-2.0247552414	 0.5836868578	-0.065356
C	 0.6139317856	-1.0441631091	 0.9359369883	-0.158257
C	 1.1852146472	-0.8381998529	-0.4492382802	-0.087426
C	 0.9381673775	-2.0607884242	-1.3326358337	-0.278914
C	 0.0547962176	-2.9873611761	-0.4498430037	 0.1525
O	 0.8069111893	-4.0216159899	 0.170427454	-0.443033
H	 1.0424395992	 1.8509092241	 0.3483184135	 0.116115
H	-0.2108609474	 1.943432776	-0.8953299837	 0.118856
H	-0.6648885934	 1.8831531651	 0.8135175189	 0.115345
H	-2.0732762326	-0.4335034488	 0.5331620027	 0.098463
H	-1.7031113895	-1.0138608353	-1.1074392173	 0.086042
H	-1.0719635187	-2.5291188201	 1.3913020062	 0.070913
H	 1.1427384111	-0.9209820436	 1.8727367733	 0.080008
H	 2.1166965765	-0.2901704871	-0.5439466805	 0.078604
H	 0.4451278013	-1.8007036547	-2.2755341693	 0.099158
H	 1.8670040601	-2.5807755364	-1.5849376506	 0.102374
H	-0.7164901842	-3.5029063609	-1.030289368	 0.080954
H	 1.473467307	-3.596891032	 0.7230951657	 0.27876
