22
gdb 58819	2.9183	1.27622	1.23806	1.4617	84.86	-0.2159	0.0737	0.2896	1178.3606	0.193404	-367.132708	-367.123803	-367.122859	-367.166053	35.167	
C	-0.1121633345	 1.5481357724	 0.0649527571	-0.395854
C	-0.0414278772	 0.0140921318	 0.0358779466	-0.063826
C	 0.8728622221	-0.5372574472	 1.1415263943	-0.391472
C	-1.4100647769	-0.6213665697	 0.1199390121	 0.353206
C	-1.8094610762	-1.8056357884	-0.6709525773	-0.306362
N	-2.4165575763	-0.4913861756	-0.9940790055	-0.194533
C	-3.4493787954	-0.123639601	 0.055091243	 0.009602
C	-3.6793316014	-1.0750168927	 1.194587098	-0.312251
C	-2.4534591931	-0.2011209896	 1.1869278668	-0.127127
H	 0.8775269358	 1.9819553042	-0.1099824657	 0.109454
H	-0.7912954682	 1.9168264584	-0.7088630631	 0.131098
H	-0.4647734521	 1.9184199523	 1.0338620929	 0.110559
H	 0.3763308006	-0.2797839308	-0.935910692	 0.078416
H	 0.9592522022	-1.6267655083	 1.0807999612	 0.114458
H	 1.8783005255	-0.1112497516	 1.0648035286	 0.111879
H	 0.4830698301	-0.2884464668	 2.1353469449	 0.115429
H	-1.119976616	-2.125460736	-1.4476429593	 0.117422
H	-2.4106499656	-2.6115281638	-0.2675053782	 0.115842
H	-4.1554743108	 0.6508344969	-0.2158236956	 0.10111
H	-4.4502385332	-0.7266875294	 1.8763532922	 0.11625
H	-3.6460998628	-2.155226355	 1.1108188738	 0.114166
H	-2.2433684467	 0.51740897	 1.9674500751	 0.092535
