19
gdb 16808	3.49665	1.83693	1.39517	1.4833	77.41	-0.2234	0.0226	0.246	959.5193	0.166407	-327.918411	-327.910683	-327.909739	-327.949991	30.033	
C	-0.1152059763	 1.5823533983	 0.079317536	-0.390794
C	 0.0111906895	 0.0532535007	 0.0134137386	-0.019518
C	 0.7971841572	-0.4510181639	-1.1851115064	-0.185084
C	 1.8103534934	-1.2607724867	-0.8596173006	 0.361494
C	 2.7913331227	-1.9260602954	-1.7711298099	-0.500819
C	 1.8833055292	-1.3907571275	 0.6323225701	-0.151957
N	 2.1859936121	-0.0858220099	 1.293512816	-0.333132
C	 0.786598679	-0.5575403347	 1.1844735447	-0.050318
H	 0.8746466095	 2.0351336838	 0.1758799422	 0.138381
H	-0.5934444052	 1.9770435072	-0.8231244973	 0.10698
H	-0.7210872698	 1.88911184	 0.9386590461	 0.105959
H	-1.0018804009	-0.3765625199	-0.0010680514	 0.074017
H	 0.562465993	-0.1324781988	-2.1963327548	 0.082955
H	 2.5672513768	-1.7220162875	-2.8216476296	 0.122572
H	 3.8135980021	-1.5833906761	-1.5665211334	 0.132284
H	 2.7921211074	-3.0147266914	-1.6307326316	 0.120773
H	 2.2328780223	-2.3050784508	 1.1022503021	 0.080957
H	 2.5045965015	-0.2713400998	 2.2436803709	 0.224256
H	 0.2610929963	-0.8259368776	 2.0950648285	 0.080993
