17
gdb 43968	2.92543	1.72109	1.47925	3.2103	77.2	-0.2337	-0.0106	0.2231	937.7284	0.137422	-384.679975	-384.673078	-384.672133	-384.71111	28.148	
O	-0.0303027761	 0.0685251673	-0.2852282655	-0.320643
C	-0.0142419764	 1.2275855267	 0.0264152364	 0.357785
C	-1.1645984629	 2.2575161294	 0.2468644256	-0.412797
C	-0.1031416141	 3.3428448815	-0.027939147	 0.228685
C	 0.9410921514	 3.3042511991	 1.0327851388	-0.351113
C	 1.0556711217	 2.2733038873	-0.0727558244	 0.118855
C	 1.9322292401	 2.556982812	-1.2822719419	-0.358348
C	 1.2400472967	 3.7726158823	-1.8992455764	-0.056732
C	 0.1380509358	 4.1641781219	-1.2438407422	-0.173069
H	-1.9173416426	 2.1385116438	-0.5363947479	 0.135259
H	-1.6587219361	 2.2958840418	 1.221251007	 0.118733
H	 1.7002802108	 4.0785113468	 1.0019821139	 0.130719
H	 0.672258651	 2.9795389814	 2.033858886	 0.12439
H	 2.9770939074	 2.7699732369	-1.0265809611	 0.118265
H	 1.9464057366	 1.7053502056	-1.9726031195	 0.134625
H	 1.6429272814	 4.2739029149	-2.7741441018	 0.101315
H	-0.4912654849	 4.9968379013	-1.5376304202	 0.104071
