16
gdb 45877	2.61086	1.80056	1.24695	2.0656	73.58	-0.2443	-0.0218	0.2225	992.4787	0.126892	-434.053884	-434.046472	-434.045528	-434.086091	28.192	
N	-0.0849955635	 1.2445876646	 0.5999265387	-0.512453
C	-0.0086975037	 0.0730706728	 0.0965660951	 0.375815
N	 1.1825799401	-0.6308171988	-0.0743378029	-0.37466
C	 1.4933747783	-1.7920304304	-0.7833541876	 0.107236
N	 0.8896618065	-2.4357580751	-1.6867876255	-0.231102
C	-0.3794991666	-2.0489347836	-2.2650692926	-0.218308
C	-1.4786381976	-1.570534045	-1.3347086831	 0.037649
O	-1.4383696097	-1.9893160328	 0.0240068759	-0.245424
C	-1.296379639	-0.5890454921	-0.2538110434	 0.022952
H	 0.8383092692	 1.6373398541	 0.7964567586	 0.207804
H	 1.9641177749	-0.2375796859	 0.4303337395	 0.247564
H	 2.4789248921	-2.1570685838	-0.4845514249	 0.114767
H	-0.2156347147	-1.2712673528	-3.0278748051	 0.12209
H	-0.7627661942	-2.921134736	-2.8073001121	 0.123064
H	-2.4739783295	-1.6036658117	-1.7842832361	 0.101746
H	-2.1401179926	 0.0308876365	 0.0383002153	 0.12126
