13
gdb 20456	6.43645	1.45805	1.29083	2.0088	59.19	-0.2626	-0.0286	0.2341	902.3448	0.09759	-394.746137	-394.739769	-394.738825	-394.77796	22.649	
C	 0.3917215327	 1.5514639813	 0.1419590409	-0.230829
N	 1.1564403097	 0.3858251286	-0.31242671	-0.299885
C	-0.2527925029	 0.2136615601	 0.1142221451	-0.139433
C	-0.481831515	-0.5766562611	 1.3406148747	 0.424265
N	-0.0412427846	-0.2248795943	 2.5208679501	-0.179381
O	-0.469280557	-1.2644520638	 3.3537890955	-0.151023
C	-1.1316548893	-2.1159944925	 2.5712731785	 0.106926
N	-1.1872665373	-1.7665605106	 1.3270532032	-0.317089
H	 0.7120273129	 1.957648828	 1.0958327639	 0.149386
H	 0.0544623927	 2.2846441335	-0.5858037118	 0.118494
H	 1.1993724568	 0.3659625634	-1.3285446178	 0.239703
H	-0.9917678023	 0.014395246	-0.6556612523	 0.111163
H	-1.5494195462	-2.9940170886	 3.04169532	 0.167703
