21
gdb 35227	3.12364	1.15606	0.98332	0.9525	89.49	-0.2368	0.048	0.2848	1282.1491	0.183028	-349.929621	-349.920893	-349.919949	-349.963624	34.167	
C	-0.1013369526	-1.1972055546	-0.0052600772	-0.459786
C	-0.0486007293	 0.0052809462	 0.0255274325	 0.329696
C	 0.0191975803	 1.4351177755	 0.0466103312	-0.247041
C	 0.5602684839	 2.1701353202	 1.2653755558	-0.348645
C	 1.360958375	 2.1721124851	-0.0011943952	 0.367221
C	 2.6842721881	 1.4049956758	-0.1005193008	-0.284793
C	 3.3735134218	 1.9970671043	-1.3426500725	-0.201351
C	 2.9613984998	 3.478136429	-1.3022034079	-0.200825
C	 1.4781471363	 3.4312161887	-0.8799728659	-0.283038
H	-0.1564249698	-2.2570690537	-0.0260984641	 0.192029
H	-0.7941013784	 1.932466992	-0.4765248937	 0.105155
H	 0.0467593174	 3.0795824813	 1.5615817261	 0.111969
H	 0.9106967666	 1.557407734	 2.0894869298	 0.120648
H	 3.2943726198	 1.6017389026	 0.7899692435	 0.096826
H	 2.5350252247	 0.3239803304	-0.1609654008	 0.114103
H	 4.456984545	 1.8488509523	-1.3411937123	 0.092999
H	 2.9788262554	 1.5255815781	-2.2511038176	 0.101682
H	 3.5518544253	 4.0032281021	-0.5414535902	 0.098671
H	 3.1150050818	 4.0002250028	-2.2507850734	 0.094294
H	 0.8408885779	 3.3338442514	-1.7668801208	 0.102936
H	 1.160292111	 4.3376579666	-0.3553610964	 0.097248
