14
gdb 43660	3.39179	1.16094	0.91775	5.5254	69.55	-0.2415	-0.0686	0.1728	1196.6072	0.10015	-436.698271	-436.690123	-436.689179	-436.731762	29.777	
O	-0.0094017108	 0.0085966204	 0.5218797636	-0.273049
C	-0.0159872004	 1.169705871	 0.2266244002	 0.308214
C	-1.2259825196	 2.0494577609	-0.0573206374	-0.348473
C	-0.6744639946	 3.5023320807	-0.067642343	-0.162571
N	 0.7756079812	 3.3112442695	-0.1533540457	-0.307012
C	 1.246461348	 2.0462694277	 0.0563828233	 0.314485
O	 2.3965649088	 1.6830907551	 0.0987452191	-0.345284
C	-1.1887565501	 4.3278060916	-1.1565774156	 0.321124
C	-1.6138322028	 5.01775956	-2.0430994997	-0.434671
H	-1.6212995447	 1.7850242696	-1.0429110697	 0.163982
H	-2.0209015715	 1.8987432985	 0.6743175639	 0.15279
H	-0.9280681466	 3.9913786007	 0.8832795581	 0.128663
H	 1.4035025886	 4.090764262	-0.2780817905	 0.268579
H	-1.9901112854	 5.6240889822	-2.8303853765	 0.213221
