19
gdb 85813	2.73051	1.26875	1.13298	2.2479	78.06	-0.2511	0.0265	0.2776	1164.0489	0.156472	-422.978703	-422.969113	-422.968168	-423.012444	36.807	
C	-0.6873571875	 1.1281010939	-0.0639632475	-0.409514
C	 0.0847131514	-0.1658948663	-0.2431579865	-0.022
C	 1.4160142849	-0.1914300925	-1.0648091087	 0.119895
O	 2.1476755657	 1.0119732642	-1.0425202701	-0.439238
C	 1.9379657052	-1.2747245438	-0.0769407188	-0.296395
C	 0.8882335186	-0.763706501	 0.9601902596	 0.169428
O	 1.4164096869	 0.3433937174	 1.7043651685	-0.468488
C	 0.2435568877	-1.7279701545	 1.8363417041	 0.257176
C	-0.2701230797	-2.5353209691	 2.5652665797	-0.429332
H	-0.0411616014	 1.9352590775	 0.2846757536	 0.128199
H	-1.1304360819	 1.438019061	-1.0159011632	 0.117717
H	-1.4967042896	 1.0019919559	 0.6621459232	 0.120992
H	-0.5696515567	-0.9574095987	-0.621803552	 0.087774
H	 1.3324520485	-0.4795204746	-2.1148014313	 0.079404
H	 2.2460900675	 1.2590643813	-0.1134738212	 0.286375
H	 1.7188893241	-2.2916502924	-0.4105028798	 0.113277
H	 2.9853059115	-1.200184012	 0.2265564487	 0.101046
H	 1.982268048	-0.0149978217	 2.3977096246	 0.287339
H	-0.7327097534	-3.2445827445	 3.2065373372	 0.196346
