13
gdb 27869	2.05531	2.00484	1.01488	2.1159	64.5	-0.231	-0.0239	0.2071	1059.8776	0.092776	-486.143708	-486.136732	-486.135788	-486.175265	26.842	
O	-0.0745128982	 1.280081931	 0.0099684251	-0.392112
C	 0.0379389828	-0.0451266631	 0.0024947778	 0.529693
N	 1.2122050218	-0.6094521459	-0.006768211	-0.415422
C	 1.1474822947	-1.9728436379	-0.0134899793	 0.43256
O	 2.3504521439	-2.5497085984	-0.0229767893	-0.378793
N	 0.0935043855	-2.7393377003	-0.0117764076	-0.413768
C	-1.1466228421	-2.1351862276	-0.001948744	 0.411632
N	-2.2953516036	-2.6832384722	 0.0014164088	-0.567585
N	-1.1202552835	-0.7139920641	 0.0052694712	-0.349651
H	 0.8295439521	 1.6282514632	 0.0068932467	 0.322897
H	 2.1886449727	-3.5043264383	-0.0270539893	 0.31031
H	-2.1779803225	-3.6948076698	-0.0044579708	 0.224792
H	-2.0067447436	-0.2303213664	 0.0125663201	 0.285447
