20
gdb 99319	5.89006	0.60383	0.57169	2.7566	76.95	-0.241	-0.0258	0.2152	1922.5483	0.168711	-440.264981	-440.255052	-440.254108	-440.301722	34.964	
O	 0.2448355626	 1.2841620269	 0.0587080257	-0.420386
C	 0.0524958871	-0.0952397391	 0.1469348684	-0.123757
C	-1.4122173272	-0.46608408	-0.0626610556	 0.347453
O	-2.2142150654	 0.4202160725	-0.2777865315	-0.319779
C	-1.795091558	-1.9267484923	 0.0050189657	-0.304612
C	-3.2842765867	-2.1801051975	-0.2217693512	-0.142356
N	-3.551722198	-3.6131732822	-0.2102829	-0.065225
C	-3.8887859133	-4.1966657271	 1.0864524417	-0.223676
C	-4.9329608166	-4.0048142293	 0.0428511507	-0.219819
H	-0.6368874258	 1.646772926	-0.1263843923	 0.293827
H	 0.6545029069	-0.6347228877	-0.6035628048	 0.114835
H	 0.3696748374	-0.4829170822	 1.1295616245	 0.113095
H	-1.2042902815	-2.4815841629	-0.7353571764	 0.141651
H	-1.4786105254	-2.3225022221	 0.9798612263	 0.12954
H	-3.8735116242	-1.6328104601	 0.5338122565	 0.096222
H	-3.578698348	-1.7815579578	-1.1978201312	 0.12145
H	-3.4789204543	-5.1825370973	 1.2854471868	 0.118723
H	-3.926336686	-3.5341223004	 1.9504816447	 0.109329
H	-5.6637182866	-3.215546254	 0.2125725304	 0.113764
H	-5.2986233871	-4.8481461935	-0.5356515382	 0.119721
