17
gdb 62398	2.59973	1.80363	1.35385	0.7512	73.74	-0.2325	0.0311	0.2636	971.5037	0.135475	-421.756999	-421.749223	-421.748278	-421.788769	31.222	
O	-0.0526646938	 1.3714597252	 0.1163171538	-0.485291
C	 0.0265683003	-0.0411280668	 0.0521183017	 0.255911
C	 0.8399734541	-0.5738565804	 1.1327650359	 0.278818
C	 1.5425949832	-0.9667968584	 2.0264518289	-0.448787
C	-1.4024576341	-0.637078322	-0.2274114822	-0.112057
C	-1.1996932399	-0.1754606178	-1.7066532284	-0.263758
C	 0.245141144	-0.6276935536	-1.3966839827	 0.039078
O	 0.1314319238	-2.035427121	-1.1909055944	-0.27149
C	-1.0578523808	-2.1212764067	-0.3592032728	-0.092974
H	 0.8421593699	 1.7052071937	 0.2412148057	 0.286414
H	 2.1583859628	-1.3237377988	 2.8149604667	 0.195991
H	-2.2564275889	-0.3488401341	 0.3830785068	 0.086813
H	-1.7231341348	-0.7347688463	-2.4842408084	 0.100271
H	-1.3076912074	 0.8981243695	-1.8350464766	 0.127819
H	 1.1195456559	-0.4013705381	-2.0052803727	 0.083117
H	-0.8084405455	-2.6041408675	 0.590356559	 0.116763
H	-1.8353584789	-2.6986884769	-0.8716893304	 0.103364
