17
gdb 48623	3.44594	1.46091	1.22005	3.0327	73.08	-0.2446	-0.0411	0.2035	1027.281	0.136292	-421.818523	-421.811208	-421.810264	-421.850235	28.791	
O	-0.0743806334	-0.0484614774	-0.0092619976	-0.251577
C	 0.0246745073	 1.1429755294	-0.1536280071	 0.073892
C	 1.3212128093	 1.9000433632	-0.0463707202	 0.282339
C	 1.5289898175	 2.7800586804	 1.2273111276	-0.277928
C	 2.1801795847	 3.7145895282	 0.1846338303	 0.081954
C	 3.6350100012	 3.3298167333	-0.120615949	-0.263957
C	 3.7103174517	 1.8349631802	-0.3607062954	-0.081647
C	 2.5877878726	 1.1192478506	-0.3173326917	-0.092987
O	 1.3266435495	 3.1248214535	-0.8430345559	-0.329078
H	-0.8533439061	 1.7962215218	-0.3508893554	 0.092066
H	 0.5904494142	 3.1946083769	 1.6011895188	 0.114325
H	 2.1286865923	 2.3606974448	 2.0354980143	 0.116959
H	 2.0297897265	 4.7928735058	 0.2783796416	 0.082682
H	 3.9837765185	 3.8793326227	-1.0045730694	 0.122523
H	 4.2909135499	 3.6282379189	 0.708434957	 0.111304
H	 4.6768325286	 1.3851097878	-0.5665581995	 0.101284
H	 2.5312179857	 0.0461633199	-0.4534366184	 0.117848
