20
gdb 40271	2.98854	1.41112	1.08909	2.137	82.28	-0.2283	0.0273	0.2557	1153.1961	0.172932	-403.145066	-403.137102	-403.136158	-403.177631	31.45	
C	-0.306830907	 1.5122447534	-0.0308386619	-0.302133
C	 1.1650897672	 1.2184520568	 0.0705933754	-0.292965
C	 0.1618661603	 0.0731363864	 0.0233099894	 0.382553
C	-0.1048273354	-0.6853346919	 1.311328414	-0.275207
C	 0.7616519167	-1.9334844848	 1.4861160175	-0.220572
C	 0.3358323479	-3.0631800799	 0.5596511174	-0.055446
O	 0.6655045417	-2.9014150534	-0.8213434667	-0.228624
C	 0.3605668028	-1.7845692341	-1.5352680973	 0.104655
N	 0.1302491182	-0.5799703965	-1.2441453723	-0.307575
H	-0.8144047048	 1.9148426641	 0.8392527882	 0.106428
H	-0.6843764861	 1.8557011352	-0.9859135557	 0.121186
H	 1.7733358328	 1.3709753226	-0.8121329933	 0.121686
H	 1.6699257674	 1.4042666321	 1.0127557683	 0.109026
H	 0.0477292881	-0.0020636664	 2.1538144457	 0.094194
H	-1.1627294855	-0.9841916442	 1.3450268164	 0.096921
H	 1.8218956561	-1.701111356	 1.3293254216	 0.111349
H	 0.6633309587	-2.3074339382	 2.5127554436	 0.100708
H	 0.8261410589	-3.9999135019	 0.8377879202	 0.114923
H	-0.7506735304	-3.2140590982	 0.6430687389	 0.104435
H	 0.3773166924	-2.063293915	-2.5896866993	 0.114457
