20
gdb 71668	2.76025	2.02326	1.76075	1.6779	80.19	-0.2344	0.0927	0.3271	897.6793	0.174491	-365.992028	-365.985452	-365.984508	-366.022446	28.422	
C	 0.0081565541	 1.5443876306	-0.0025663649	-0.510891
C	-0.015762528	 0.0334821833	-0.0403125573	 0.331356
C	 0.4187931367	-0.7968525648	-1.2902189228	-0.272837
C	-0.3939542968	-1.9236778381	-0.5910336992	-0.065307
C	 0.3833099594	-2.1495856409	 0.7226459559	-0.043383
C	 0.6582333543	-0.7428314686	 1.1182062371	-0.083895
N	-0.3151489254	-1.5545207914	 1.8876159518	-0.135377
C	-1.6514385957	-1.1575408246	 1.4078943875	-0.181747
C	-1.3399521858	-0.8113630331	-0.0355786118	-0.0812
H	 1.0366557155	 1.9237591053	-0.0223148376	 0.117859
H	-0.5195990493	 1.972758402	-0.8610376042	 0.113722
H	-0.4646347702	 1.9284571287	 0.9084128606	 0.120508
H	-0.0475852029	-0.4420118631	-2.2151548436	 0.091084
H	 1.4888086726	-0.9594811197	-1.4538005363	 0.090336
H	-0.7652981167	-2.7982689291	-1.1241070263	 0.062552
H	 1.0333436637	-2.9974304506	 0.8971480301	 0.088638
H	 1.5428299071	-0.3843129157	 1.6308390687	 0.084465
H	-2.3511720013	-1.9930360732	 1.5179659995	 0.102581
H	-2.0211389944	-0.3083866064	 1.9930760253	 0.10262
H	-2.1348266469	-0.4679854706	-0.6959743924	 0.068916
