18
gdb 41296	3.69945	1.74158	1.64	1.169	74.37	-0.2209	0.0767	0.2976	881.736	0.150361	-401.849847	-401.843816	-401.842872	-401.879814	26.383	
C	 0.007940497	 1.3786647375	 0.3439126867	-0.182851
C	 1.4684414257	 1.5525241649	-0.1790314685	-0.344462
C	 1.2029215039	 0.2471834812	-0.9251806775	 0.288347
C	 1.805430364	-1.12185311	-1.2019571567	-0.289934
C	 0.4701687639	-1.5954659765	-1.8569103733	 0.058174
O	 0.4488919754	-0.7705798668	-3.0573193387	-0.29086
C	 0.1429745732	 0.2954500236	-2.1645209753	 0.049277
C	-0.6003075162	-0.6056881004	-1.1695677357	-0.059022
N	 0.0762376376	-0.0991542676	 0.0309529256	-0.144948
H	-0.1724977601	 1.5718263004	 1.4029862293	 0.111598
H	-0.7272474278	 1.9365821661	-0.2486350636	 0.104076
H	 1.6989904876	 2.4349670293	-0.7789851255	 0.106349
H	 2.2068981336	 1.4490671777	 0.620022297	 0.118934
H	 2.6071801436	-1.1764395411	-1.9403435956	 0.108874
H	 2.0760372469	-1.6324109756	-0.2769825599	 0.111586
H	 0.2917373371	-2.6536328809	-2.0382898058	 0.089595
H	-0.1570049813	 1.2315229107	-2.633580667	 0.087859
H	-1.6563671539	-0.8798196425	-1.1839618354	 0.07741
