21
gdb 116324	3.05864	1.28852	1.0098	1.7668	78.28	-0.248	0.0834	0.3314	1237.3361	0.183595	-424.216713	-424.208241	-424.207296	-424.249849	32.752	
C	-0.0190552562	 1.579782287	 0.0190349628	-0.38591
C	 0.0051281415	 0.0491071159	 0.013378397	-0.185523
C	 0.7165935791	-0.5464525607	 1.2251100285	 0.10709
O	 0.0160194261	-0.1245798248	 2.3986019185	-0.249371
C	 0.5400224149	-0.7249484507	 3.5498653539	 0.014408
O	 0.2294186084	-2.0941445878	 3.6272218875	-0.246658
C	 0.6206384935	-2.8117724142	 2.4857063342	 0.091619
C	-0.3878146499	-2.94639705	 1.3760123812	-0.308954
C	 0.8273289084	-2.0620871767	 1.1918841316	-0.078406
H	 0.9962118729	 1.9922097366	 0.0083400167	 0.109614
H	-0.5445043913	 1.9663007706	-0.8592937155	 0.110221
H	-0.5232249665	 1.955001555	 0.9129487717	 0.135865
H	-1.0165559063	-0.34594191	-0.0154429506	 0.106747
H	 0.5104966667	-0.3195416126	-0.8878307853	 0.09528
H	 1.7418206221	-0.1362472438	 1.2754854331	 0.064271
H	 1.6349466403	-0.5762516628	 3.583154899	 0.076362
H	 0.0670150193	-0.2525088067	 4.4130951177	 0.115739
H	 1.2646725067	-3.6536896278	 2.7251201671	 0.09563
H	-0.4392365058	-3.8750143102	 0.818574086	 0.110137
H	-1.3397422623	-2.4592439674	 1.5554868536	 0.130566
H	 1.6078733286	-2.433856849	 0.5346304214	 0.091273
