18
gdb 37519	3.77292	1.96606	1.75179	2.3807	80.7	-0.2076	-0.046	0.1616	831.7452	0.150663	-364.686203	-364.680431	-364.679487	-364.715797	25.773	
C	 0.0772569567	 1.5248612396	 0.036193907	-0.170568
C	 1.5995434494	 1.2644582643	 0.0616024946	-0.069565
C	 1.1481181733	-0.1181744716	 0.8109725479	-0.062687
N	-0.120441425	 0.0408427871	-0.004664329	-0.148565
C	 0.7837326969	-0.418867086	-1.1475315842	-0.039677
C	 1.8116485901	 0.7168486226	-1.3989512013	-0.011545
C	 3.1002155619	-0.12559457	-1.7118756386	-0.278278
C	 3.0183505482	-1.1197727828	-0.5539583375	-0.116892
C	 1.7336787404	-1.1222462539	-0.156592562	 0.078882
H	-0.3202969895	 1.9194421056	 0.9757812554	 0.106332
H	-0.3445389146	 2.0837472183	-0.8056660639	 0.100699
H	 2.3255154798	 1.9702346692	 0.4709082501	 0.06313
H	 1.0970319988	-0.135338497	 1.8998169579	 0.083287
H	 0.302331326	-0.9222606687	-1.984462276	 0.076642
H	 1.5823260105	 1.4796682423	-2.151300804	 0.0627
H	 3.0364106244	-0.5351801708	-2.729989679	 0.114605
H	 4.0395569815	 0.4357105052	-1.6562727398	 0.109898
H	 3.8614801013	-1.2805796633	 0.1108775325	 0.101601
