12
gdb 23995	5.63458	0.96073	0.82078	3.5919	82.82	-0.2466	-0.0597	0.1869	1270.1504	0.078961	-394.551374	-394.543954	-394.54301	-394.583515	27.198	
C	 0.114333477	-1.1513657329	-0.0041860295	-0.370057
C	 0.0079962798	 0.0468458038	 0.0033265484	 0.251305
C	-0.0870160777	 1.4558086988	 0.0117323578	 0.210273
N	-1.202421989	 2.1796789358	 0.0309772852	-0.291286
C	-0.8030405318	 3.4755225661	 0.0319090251	-0.157186
C	 0.5792745057	 3.5638853474	 0.0130224781	 0.208003
N	 1.0187323201	 2.2572054501	 0.0003419358	-0.36064
C	 1.4522197946	 4.6703444183	 0.0063817542	 0.195703
N	 2.1741321778	 5.5771108456	 0.0008505	-0.333604
H	 0.1943384271	-2.2109015758	-0.0106401112	 0.210521
H	-1.5070511201	 4.2930973629	 0.0458622008	 0.144684
H	 1.9786969467	 1.95099204	-0.0146067046	 0.292283
