20
gdb 8877	4.24548	1.02652	0.95033	1.2831	71.54	-0.2396	-0.009	0.2306	1306.9398	0.173894	-386.163575	-386.153239	-386.152295	-386.199639	35.594	
C	-0.20450302	 1.5155266434	 0.0132076163	-0.377073
C	 0.0691868476	 0.0150533706	-0.0406734036	-0.283585
C	 0.7621311495	-0.4376228905	-1.3182035658	 0.376003
O	 1.1913980662	 0.3542181775	-2.1292493381	-0.318968
C	 0.8815681988	-1.9447585616	-1.5357518138	-0.067706
C	-0.3799020949	-2.4651495712	-2.255382646	-0.396987
C	 2.1482400237	-2.2720918194	-2.3276422205	-0.077391
O	 2.2532545308	-3.6870047928	-2.407837484	-0.427591
H	 0.7218467137	 2.0823061758	-0.1061101503	 0.134343
H	-0.8760978411	 1.8198229421	-0.7942899098	 0.127617
H	-0.6638262786	 1.7926073539	 0.9661364421	 0.109292
H	 0.7122337829	-0.2986215453	 0.7950496517	 0.125248
H	-0.8521798032	-0.5695794674	 0.0818200928	 0.120509
H	 0.9481088183	-2.4409725507	-0.5592115414	 0.086471
H	-0.5096737932	-1.9540106142	-3.2150871731	 0.127775
H	-0.2740818844	-3.5350901634	-2.4443806433	 0.143711
H	-1.282912556	-2.3050408744	-1.6587701049	 0.113401
H	 2.0825330098	-1.8090735452	-3.3211489377	 0.107421
H	 3.0234447167	-1.8364352411	-1.8218139819	 0.088909
H	 2.9925707034	-3.8996754361	-2.9841682487	 0.288598
