19
gdb 119205	1.8367	1.40694	0.93155	2.2712	79.38	-0.2402	0.0283	0.2685	1326.284	0.155286	-422.963374	-422.953298	-422.952354	-422.998498	37.071	
C	 0.0738341587	 1.5145166248	-0.2792551841	-0.389903
C	-0.1639684457	 0.0157676929	-0.3005498789	-0.054818
O	 0.8924601959	-0.5904076198	-1.0470399603	-0.299512
C	 0.8031710117	-1.9818799939	-1.1782144833	 0.151926
C	-0.1472790367	-2.5082749644	-2.2585000749	-0.375379
C	 1.3337657028	-2.44311492	-2.5251546993	 0.095974
O	 1.8626689352	-1.485805184	-3.3773197841	-0.4306
C	 1.0357094652	-2.7490542162	 0.0141138505	 0.323226
C	 1.2232059463	-3.3917557603	 1.0139384198	-0.470793
H	 1.0377649862	 1.7450592455	 0.1826879479	 0.133265
H	 0.0711218232	 1.9242609428	-1.2936986808	 0.124493
H	-0.7136909018	 2.0115083549	 0.2948295314	 0.122003
H	-0.1706194609	-0.3970586837	 0.7169274927	 0.112357
H	-1.1305264958	-0.2266075108	-0.7654329927	 0.09692
H	-0.6151568594	-3.4729050988	-2.0986160909	 0.126375
H	-0.7619491385	-1.7595741107	-2.7469552611	 0.123854
H	 1.891196827	-3.3737706937	-2.548072269	 0.117201
H	 1.74515744	-0.6342323823	-2.9331244311	 0.29562
H	 1.3997212866	-3.9595880423	 1.8937735382	 0.19779
