22
gdb 62628	2.17733	1.88148	1.58196	1.7078	84.62	-0.2289	0.0793	0.3082	1023.1195	0.193339	-367.161416	-367.152669	-367.151725	-367.193776	35.321	
C	-0.0739054058	 1.578682101	 0.0836725906	-0.517118
C	 0.0234516226	 0.0752016625	 0.0668537061	 0.277083
C	-1.2528356214	-0.8024658355	 0.2056544371	-0.301504
C	-0.3211103751	-1.8854998323	 0.7434484713	-0.046486
C	 0.7004889407	-0.8875999672	 1.1318979372	-0.107362
N	 1.0076881149	-1.8381062901	 0.0335525935	-0.166888
C	 0.8884966349	-0.7145103426	-0.9702200862	 0.317198
C	 0.3018461065	-1.1195586261	-2.3187198854	-0.459822
C	 2.274201312	-0.100118322	-1.1582033024	-0.433607
H	 0.9132096412	 2.0518479393	 0.0766958398	 0.12128
H	-0.6235489758	 1.9415735796	-0.7931925892	 0.120576
H	-0.6068921313	 1.931025639	 0.9734446559	 0.118145
H	-1.8934132732	-0.4273321361	 1.0095647197	 0.100041
H	-1.862971616	-0.9881891126	-0.6832896455	 0.09232
H	-0.5724054684	-2.8267190833	 1.2145442312	 0.094723
H	 1.3070216378	-0.7489813277	 2.0175454902	 0.091215
H	-0.612038852	-1.7072117603	-2.2177936738	 0.120236
H	 0.0778262645	-0.2360377568	-2.9273024222	 0.112308
H	 1.0248569883	-1.7296304191	-2.8702948683	 0.121638
H	 2.9531479872	-0.8331469704	-1.6042590381	 0.121788
H	 2.2268491071	 0.769417604	-1.8221973742	 0.109821
H	 2.7059789712	 0.2202654265	-0.2055817672	 0.114415
