17
gdb 93344	2.23833	1.64475	1.08534	3.4854	67.9	-0.2626	-0.0382	0.2244	1103.3793	0.135281	-459.018824	-459.010371	-459.009427	-459.052234	30.691	
C	 0.0335631769	 1.5809621772	 0.0124070657	-0.409852
C	 0.0049813768	 0.0490405934	 0.0926535154	-0.034461
C	 0.7300926844	-0.594083214	-1.106128895	-0.092474
O	 2.1170471175	-0.7045908379	-0.7210381712	-0.220885
C	 2.2351636138	-0.7126908319	 0.6277316666	 0.444248
O	 3.2808187134	-0.8385962437	 1.1967343331	-0.339737
C	 0.8438415195	-0.5379356487	 1.2440765996	-0.264771
C	 0.8850591191	 0.1609853021	 2.5908022513	 0.148806
O	 0.0135488317	 0.8769613246	 3.0107954808	-0.247332
H	 1.0609460021	 1.9558152843	-0.0594443732	 0.128905
H	-0.5054909592	 1.9175216481	-0.8785137735	 0.118247
H	-0.4318366969	 2.027502808	 0.8911355455	 0.157518
H	-1.0307223987	-0.2954651823	 0.1400691009	 0.098365
H	 0.3532929246	-1.5983526183	-1.3325058191	 0.117719
H	 0.6914178222	 0.0132405934	-2.0124374789	 0.13033
H	 0.5005196231	-1.5612366903	 1.4712159088	 0.144653
H	 1.7936697498	-0.0731489239	 3.1823056331	 0.120722
