12
gdb 48148	3.38089	1.01967	0.86865	3.5438	64.91	-0.2767	-0.0992	0.1776	1264.7678	0.07343	-472.603242	-472.594306	-472.593361	-472.638487	29.947	
N	 0.2838231144	 1.3693743186	-1.3323283542	-0.442922
C	-0.0389976018	 0.3687479687	-0.6363407175	 0.259457
O	-1.3719801609	-0.0370954728	-0.7097350298	-0.219195
C	-2.095788669	-0.1323824699	 0.441908595	 0.356061
O	-1.7224308978	 0.1715339314	 1.5336797768	-0.301121
C	-3.4874867626	-0.6821408036	 0.088385715	 0.085219
O	-4.3165330332	-0.8665400232	 0.9313796389	-0.19395
C	 0.8118246771	-0.4645180903	 0.1523361699	 0.330414
C	 1.5653691748	-1.1595107125	 0.7805537858	-0.477533
H	 1.2862695723	 1.5431844676	-1.262803006	 0.25289
H	-3.6443286685	-0.8857994453	-0.9885370311	 0.122411
H	 2.2252347051	-1.7698024788	 1.3483811873	 0.228269
