19
gdb 30013	3.09477	1.56904	1.06844	1.9895	83.92	-0.1623	0.0478	0.2102	1127.7115	0.162635	-382.093506	-382.085443	-382.084499	-382.126347	30.631	
C	-0.1431282652	 1.4400315981	 0.0390592882	-0.342022
N	-0.0183765412	 0.0005615839	 0.0308452589	-0.103209
C	-0.0669576012	-0.8036232713	-1.0866793142	-0.086211
C	-0.0077094301	-2.1354609047	-0.7079397455	-0.342229
C	 0.0588607652	-2.1226316929	 0.7076416912	 0.283416
C	 0.026148155	-0.8214842359	 1.1320581694	 0.261304
C	 0.277952901	-0.7174344313	 2.6032531919	-0.347193
C	 0.0191163808	-2.207913693	 2.998955949	-0.155243
N	 0.2996212157	-3.0172811749	 1.7786764556	-0.40155
H	 0.6010621367	 1.8861368349	 0.7064407244	 0.136499
H	 0.0296558605	 1.8211002319	-0.9694737688	 0.137972
H	-1.1387582778	 1.7627027665	 0.3677903694	 0.132316
H	-0.1717931691	-0.3620885687	-2.0658244571	 0.108536
H	-0.0066981114	-2.9814704428	-1.3774112638	 0.088679
H	 1.31306381	-0.4228126079	 2.8335223514	 0.106492
H	-0.3808440994	-0.0420214549	 3.1598647653	 0.101386
H	 0.6486765546	-2.5350436068	 3.8308628305	 0.102974
H	-1.03261266	-2.3104703613	 3.3041474621	 0.094989
H	-0.2632368739	-3.8595362191	 1.7507978821	 0.223092
