17
gdb 75054	2.26406	1.74658	1.28221	1.689	69.71	-0.2398	-0.0342	0.2056	1025.1461	0.135048	-455.18205	-455.17306	-455.172115	-455.215387	33.817	
C	 0.1550424612	 1.6058690921	-0.0482286385	-0.4258
C	-0.0628197194	 0.0856943424	 0.0488495722	 0.191395
O	-1.4414791284	-0.2233875173	 0.095964429	-0.485167
C	 0.6465379203	-0.6325924081	-1.1099204254	 0.339023
O	 0.1414517751	-0.8264367635	-2.1854020833	-0.324666
C	 1.9805425161	-1.1209110573	-0.5499265879	-0.270383
N	 1.8016283115	-1.1354275307	 0.9029835492	-0.302314
C	 0.7069732269	-0.5325653373	 1.2023832209	 0.359068
N	 0.2416488976	-0.3604527748	 2.4751054829	-0.568077
H	 1.2185515918	 1.8640915802	-0.0519197284	 0.129797
H	-0.3027191287	 1.9798187628	-0.9690510143	 0.130577
H	-0.3167512768	 2.0958857809	 0.8071577038	 0.136616
H	-1.7033700788	-0.4274855337	-0.8135768423	 0.294433
H	 2.2295460444	-2.1150952372	-0.9373421402	 0.13629
H	 2.796053881	-0.4497350893	-0.8577537136	 0.130487
H	 0.6740320967	-0.9476686075	 3.174218328	 0.258558
H	-0.7604160504	-0.2697268417	 2.5568132178	 0.270161
