15
gdb 79561	2.58049	1.73375	1.23155	0.7031	71.5	-0.252	0.0048	0.2568	992.392	0.110398	-420.519389	-420.51143	-420.510486	-420.55194	30.353	
O	 0.0720432456	 1.3692597827	-0.0134462665	-0.430244
C	-0.0447108714	-0.0163673217	 0.071326198	 0.125346
C	-0.4486718521	-0.7891048976	 1.3050350415	-0.150867
C	-1.5620889002	-0.0783755107	 2.0282370732	-0.059245
O	-2.7739262512	-0.8322901412	 1.9443982853	-0.279798
C	-2.4024918725	-0.0510004473	 0.7949037358	 0.273609
C	-3.2875313206	 0.9547365438	 0.3111664593	 0.231268
C	-3.994542429	 1.8140835	-0.1463040028	-0.422219
C	-1.331033995	-0.7853004071	 0.0111332175	-0.245842
H	-0.801050159	 1.7676954157	 0.0661878741	 0.297118
H	 0.773905456	-0.4820049344	-0.4725989253	 0.115878
H	 0.1342549453	-1.6119799994	 1.7003985555	 0.108754
H	-1.5021906204	 0.6642911594	 2.8144943664	 0.123989
H	-4.6333152507	 2.5653612556	-0.5413743499	 0.202528
H	-1.5196831047	-1.5974042977	-0.6801906221	 0.109725
