15
gdb 13586	3.70439	1.37954	1.23236	2.2101	64.17	-0.247	-0.0966	0.1505	1011.7103	0.117028	-399.788979	-399.780802	-399.779858	-399.82215	28.615	
C	 0.4226536166	 1.7514825454	-0.2600145281	-0.406751
C	 0.0239233234	 0.3271494649	 0.0306128313	 0.013086
N	 1.0667876572	-0.6840574346	-0.0045902015	-0.312976
C	 0.417087635	-0.4079431037	 1.2946019669	-0.164778
C	 1.2477493434	 0.2307593176	 2.3469139206	 0.317768
O	 2.2233370735	 0.9262547277	 2.1676205303	-0.289714
C	 0.7997694513	-0.0026655668	 3.7977749457	 0.089896
O	-0.146902982	-0.6748743612	 4.1136614474	-0.221925
H	 1.4020325554	 1.9728996409	 0.165524412	 0.164083
H	 0.4714080609	 1.9062979832	-1.3430665911	 0.125529
H	-0.3141446885	 2.4510334452	 0.148202013	 0.118371
H	-0.9602636136	 0.0406981253	-0.3406586184	 0.098715
H	 0.7136074998	-1.5653047735	-0.3690125757	 0.242632
H	-0.3062891912	-1.1189862596	 1.6808554714	 0.11571
H	 1.4543718788	 0.5175472792	 4.5284736563	 0.110353
