20
gdb 22130	3.41731	0.89454	0.84782	1.7654	79.59	-0.2412	0.0079	0.2492	1447.8294	0.167853	-440.236984	-440.227072	-440.226128	-440.271905	37.161	
C	 0.2646615306	 1.2164726141	 0.4516366684	-0.41098
C	 0.1760213132	-0.2126994664	-0.0933671868	-0.216443
C	 0.6071144118	-0.3517837374	-1.5558329134	 0.411019
O	-0.1793204309	 0.4370240895	-2.4252885212	-0.484018
C	 2.1677618598	-0.2543875727	-1.7783277722	-0.379051
C	 2.1554125254	-1.7509437535	-1.9891147864	 0.428119
C	 0.6463608178	-1.8283883909	-2.0512525328	-0.363113
N	 3.1116393426	-2.5804921543	-1.9857443837	-0.23801
O	 2.6339781893	-3.8957045343	-2.157228286	-0.394754
H	 1.2789092368	 1.6219408816	 0.3658236694	 0.121835
H	-0.4173955788	 1.8925461883	-0.076637069	 0.113198
H	-0.0141483957	 1.2487398853	 1.5086221483	 0.124715
H	 0.7979232301	-0.8789668835	 0.5168446341	 0.104532
H	-0.8551615666	-0.576472871	-0.0081809754	 0.106558
H	-0.1006206245	 1.3580420082	-2.1549802036	 0.279129
H	 2.3992357736	 0.2999790089	-2.6934452032	 0.121355
H	 2.7822086429	 0.1270836408	-0.9585995329	 0.113775
H	 0.1675713637	-2.5845481142	-1.4239740327	 0.122423
H	 0.2641583264	-1.916150587	-3.0727375019	 0.134496
H	 3.4466157425	-4.4112355215	-2.1200088091	 0.305216
