20
gdb 104745	2.68671	1.16223	0.94605	4.0032	79.92	-0.29	-0.0013	0.2887	1314.3649	0.168708	-403.150781	-403.140696	-403.139752	-403.186103	36.224	
C	 0.0520684839	-0.6206138105	 1.2565994616	-0.385772
C	-0.3918849514	-0.3096862594	-0.1769048533	-0.280607
C	 0.702663999	-0.4232490013	-1.2398459775	 0.39878
C	 0.6923833944	 0.628488629	-2.3375623689	-0.259072
C	 1.1462688044	 2.0068384361	-1.8394518016	-0.384486
O	 2.0201277898	-0.7746259133	-0.7823892714	-0.258236
C	 1.3143451153	-1.7384899684	-1.5630353457	-0.162379
C	 0.9039647246	-2.9625599042	-0.908527347	 0.307213
N	 0.5596264259	-3.9561441589	-0.4278324084	-0.33659
H	 0.3947589278	-1.6513191429	 1.3657527988	 0.148759
H	 0.8674067515	 0.0379429901	 1.5665892537	 0.128077
H	-0.7884940607	-0.4728266742	 1.9408087641	 0.114915
H	-1.2208256585	-0.9673370728	-0.4658923176	 0.123798
H	-0.7919621494	 0.7089050199	-0.2139719221	 0.108305
H	 1.3515211933	 0.3058098301	-3.1504124901	 0.107009
H	-0.3210011235	 0.6871997038	-2.7535876827	 0.111317
H	 0.4854670915	 2.4011800658	-1.0614488209	 0.124979
H	 2.1576692754	 1.949317276	-1.4274562441	 0.13918
H	 1.1532325307	 2.7268678224	-2.6623761127	 0.121967
H	 1.7098750861	-1.9001020074	-2.5649421042	 0.132844
