22
gdb 61607	3.1854	0.86378	0.7278	1.3918	89.36	-0.2272	0.0597	0.2869	1611.3082	0.191537	-367.151917	-367.141475	-367.140531	-367.187658	38.574	
C	 0.0797718503	 1.6103030282	-0.0287733538	-0.387737
C	 0.0536884056	 0.0720431173	 0.0533049326	-0.157275
C	 0.7344910659	-0.5960206131	-1.1642433905	-0.138113
N	 0.0237414539	-0.2567360868	-2.39123278	-0.084994
C	 0.6496311632	 0.6722051746	-3.3299882554	-0.253673
C	 0.5158674299	-0.7705250623	-3.6733231081	 0.02623
C	 1.7271782942	-1.6705470045	-3.7860238488	-0.412887
C	 0.6729874211	-0.4023406381	 1.2894679746	 0.320192
C	 1.2079065867	-0.7900878707	 2.2942982731	-0.47116
H	 1.1100785044	 1.9799028637	-0.0537535105	 0.11742
H	-0.4366867294	 1.9462833174	-0.9308407827	 0.130694
H	-0.4146733715	 2.0508806562	 0.8407119688	 0.123364
H	-0.995415789	-0.2507813597	 0.0409075908	 0.113543
H	 1.7974201324	-0.3059051716	-1.1770699668	 0.093259
H	 0.6961657301	-1.6818792264	-1.0274475111	 0.111526
H	-0.0022167954	 1.4208432553	-3.7734788487	 0.112331
H	 1.6517065604	 1.0296027024	-3.0924073649	 0.106412
H	-0.2972277882	-1.0499306055	-4.3429510297	 0.089572
H	 2.5593472304	-1.3286956406	-3.1658587558	 0.122338
H	 1.4853298663	-2.6984079449	-3.4930630049	 0.12463
H	 2.0744303045	-1.6982072941	-4.8242398826	 0.122839
H	 1.6655801042	-1.1343489268	 3.1882983645	 0.191489
