18
gdb 31685	5.41693	0.84342	0.77226	2.6954	83.75	-0.2254	-0.0337	0.1916	1484.6107	0.148188	-402.01422	-402.005605	-402.004661	-402.048104	31.562	
C	 0.0922351225	 1.5399004806	-0.2107200682	-0.36605
C	-0.0043944763	 0.0449417908	 0.138476574	-0.294533
C	-1.4083584089	-0.4836548849	 0.098167044	 0.26403
C	-2.156349688	-0.9101398386	 1.1570041461	-0.188769
N	-3.4073989847	-1.306045501	 0.6877039894	-0.039342
C	-4.4406732185	-1.8033962444	 1.469433268	 0.181362
O	-5.5141563414	-2.1406446817	 1.0425079446	-0.295173
C	-3.4457250969	-1.1255440246	-0.6889956084	-0.057668
C	-2.2394239923	-0.6246378104	-1.0746195749	-0.260385
H	 1.1318558083	 1.8808736941	-0.1826474956	 0.113028
H	-0.2998746659	 1.7380169515	-1.2132346749	 0.120567
H	-0.485604165	 2.1435198934	 0.4958878915	 0.120779
H	 0.6215597854	-0.5258259729	-0.5596032178	 0.10905
H	 0.4170841838	-0.1249545442	 1.1356247453	 0.101718
H	-1.9225286721	-0.9764344298	 2.2080220625	 0.13387
H	-4.1560255496	-1.8521051805	 2.5361461509	 0.095343
H	-4.3383933474	-1.3830845091	-1.2328858771	 0.153537
H	-1.954931863	-0.3802144382	-2.0876501895	 0.108635
