21
gdb 101692	3.3579	0.85416	0.76208	3.6301	75.07	-0.2578	0.0543	0.3121	1541.207	0.180097	-461.338083	-461.327932	-461.326988	-461.373573	37.532	
C	 0.2251843382	 1.586623727	-0.4720041817	-0.471447
C	-0.0102272916	 0.1199789813	-0.1798943461	 0.434917
C	-1.4222710701	-0.4180872442	-0.3624633396	-0.303684
C	-2.422598319	 0.0793058584	 0.6864245639	 0.097284
O	-2.7465584013	 1.4710722784	 0.5431982375	-0.435784
C	-3.7257468136	-0.7252539028	 0.6834184975	-0.061938
O	-4.646976947	-0.1998479521	 1.6114074393	-0.42415
C	 1.1188985474	-0.8204579629	-0.2621271124	-0.231431
O	 0.6344551147	-0.3728893414	 1.0066699594	-0.274031
H	 1.2647817553	 1.8519558262	-0.2649288317	 0.123664
H	 0.0156816371	 1.8068871386	-1.5252807018	 0.110924
H	-0.4298981607	 2.2108274344	 0.1397026145	 0.151237
H	-1.7897946847	-0.1698558342	-1.3688089036	 0.091327
H	-1.3885022739	-1.5117648976	-0.3025487135	 0.109332
H	-1.9683796446	 0.0063908618	 1.6800656101	 0.121063
H	-3.0497583775	 1.609325487	-0.3626009872	 0.280963
H	-4.142446534	-0.7303221627	-0.3424895706	 0.067412
H	-3.5308491903	-1.7672543986	 0.9601899914	 0.110125
H	-4.5472583653	 0.7597147524	 1.5539164475	 0.284609
H	 0.9389392182	-1.8711916058	-0.488327993	 0.108415
H	 2.1065643628	-0.4534297132	-0.5397370299	 0.111193
