16
gdb 62291	3.36239	1.53493	1.33974	3.2602	72.15	-0.2725	0.0179	0.2903	965.2731	0.124855	-400.706102	-400.698799	-400.697855	-400.737571	28.976	
O	-0.0392965551	 1.4020232359	-0.0521806153	-0.472438
C	-0.0146977511	-0.0033615477	-0.0781489031	 0.30651
C	 0.8284884192	-0.5288762852	 1.0089840234	 0.222098
N	 1.5290970493	-0.8965137533	 1.851959666	-0.340373
C	-1.3721497709	-0.6871423354	-0.1196404639	-0.101805
C	-1.7992383006	-0.7630453996	-1.589164666	-0.08687
C	-0.7036857826	-0.1006702541	-2.423018578	-0.244435
C	 0.2895686118	-0.7532016527	-1.4284367492	-0.129959
C	-0.8393022241	-1.7795972781	-1.0256831966	-0.069704
H	 0.8607774343	 1.7324643629	 0.0499553345	 0.292534
H	-2.0773923799	-0.7734752147	 0.6951372291	 0.107963
H	-2.8439152449	-0.9018044957	-1.8349194087	 0.099486
H	-0.6247291473	-0.5622812398	-3.4103139909	 0.105218
H	-0.6858676084	 0.9893113065	-2.5048642423	 0.112106
H	 1.3169193678	-0.9840297794	-1.6987431072	 0.090888
H	-0.8647746175	-2.8530972697	-0.9254074718	 0.108781
