17
gdb 61336	4.59041	0.60392	0.55262	1.6304	80.99	-0.2642	-0.063	0.2012	1900.1926	0.131774	-421.818824	-421.808471	-421.807527	-421.856619	34.261	
C	-0.0907683474	 1.63234123	 0.5940638412	-0.408389
C	 0.0271882943	 0.2412939908	-0.0525476368	-0.076739
C	 0.7872514544	-0.7777157774	 0.8205109163	-0.372875
C	 2.1776588157	-0.4177462503	 1.0431651335	 0.061234
C	 3.3293764957	-0.0888526579	 1.2048845038	 0.067234
C	 4.707643086	 0.2646212937	 1.422820299	 0.021079
O	 5.223446047	 1.2868486302	 1.0309739659	-0.231137
C	-1.3499590245	-0.2826605903	-0.4118551589	 0.149191
O	-1.7943530816	-1.3474008783	-0.0666134948	-0.240271
H	 0.902131494	 2.0503371447	 0.7753278998	 0.153404
H	-0.6372387389	 2.3232334348	-0.0552063631	 0.127719
H	-0.6197297613	 1.5759615415	 1.551428574	 0.130823
H	 0.5620816129	 0.3619520528	-1.0067575573	 0.118314
H	 0.2771853843	-0.8823783693	 1.7865981195	 0.152401
H	 0.7305176511	-1.7692110082	 0.3569964031	 0.158569
H	 5.2846864926	-0.4903572907	 1.994734594	 0.099854
H	-1.9509874045	 0.4145662036	-1.0394187592	 0.089588
