15
gdb 19627	4.88123	2.02978	1.88138	2.5307	63.89	-0.2439	0.0828	0.3267	737.4203	0.120055	-362.562665	-362.556862	-362.555918	-362.59232	23.527	
C	 0.0999107992	 1.4283460985	-0.0072315356	-0.296306
O	 1.2231249723	 0.5247003511	-0.0638825947	-0.285644
C	-0.0802294483	-0.0175748597	-0.0154177775	 0.541696
C	-0.6676413266	-0.9122492585	 1.0432944702	-0.169712
C	-1.6911039874	-1.3945221571	 0.0734611658	-0.042159
C	-0.7162278867	-0.9215968252	-1.0769080368	-0.212385
C	 0.0207851698	-2.2461424201	-0.8145425342	-0.148963
N	-0.6398830865	-2.3317271327	 0.5380777854	-0.150064
H	 0.0016866423	 1.9867692164	 0.9230030316	 0.120573
H	-0.078978853	 2.005579919	-0.9135172121	 0.118833
H	-0.7309606834	-0.7746553526	 2.113931399	 0.106933
H	-2.757361741	-1.549876853	 0.1579763412	 0.10603
H	-0.9598424725	-0.5484558377	-2.0689585715	 0.082319
H	-0.3428266094	-3.0790159158	-1.4203987216	 0.110932
H	 1.1157004911	-2.2282324625	-0.8038395792	 0.117917
