16
gdb 97632	3.0854	0.69544	0.59494	2.1816	75.68	-0.2813	-0.0132	0.2681	1824.1481	0.121189	-437.832568	-437.822167	-437.821222	-437.870159	34.475	
C	 0.0682344915	 1.4270170163	-0.1675961179	-0.246115
O	-0.2300830063	 0.0437672163	-0.2883178388	-0.225148
C	 0.6395790823	-0.6449631839	-1.1581395646	-0.180823
C	 2.0206309177	-0.7114501469	-0.6045768923	 0.280202
N	 3.0919506308	-0.7249134886	-0.1730859282	-0.323524
C	 0.1241219542	-1.9874472792	-1.4100995877	-0.01987
C	-0.2980586474	-3.091427136	-1.6328938114	 0.200915
C	-0.7940094347	-4.4351269482	-1.9348995619	-0.207016
O	-1.3024312987	-4.5706470972	-3.2512418995	-0.395307
H	 1.0609235097	 1.5922697634	 0.2711467582	 0.138599
H	 0.0202504102	 1.9319579339	-1.1436290628	 0.116166
H	-0.6915329222	 1.8479504108	 0.4923222327	 0.145218
H	 0.7173213841	-0.1073043119	-2.1203322707	 0.140848
H	 0.0032995789	-5.1657698631	-1.7271998309	 0.130695
H	-1.6257162756	-4.67578967	-1.2639913995	 0.153835
H	-0.5975185643	-4.3365107358	-3.8640940047	 0.291325
