18
gdb 87318	2.20011	1.3087	0.94009	2.269	79.51	-0.2561	-0.0359	0.2202	1280.3549	0.144656	-401.904341	-401.894612	-401.893668	-401.939277	35.088	
C	-0.0072418928	 1.4120593668	-0.1620907527	-0.405407
C	 0.1282160528	-0.0749617766	 0.0567111794	-0.026654
N	 1.4648603576	-0.6547753232	 0.0509137575	-0.351876
C	 0.7072503395	-0.6914562935	 1.3093003271	 0.210152
C	 1.2241669372	 0.1374318977	 2.4793275998	-0.443058
C	 2.2227593073	-0.5814161797	 3.2660508731	 0.293742
C	 3.0304996529	-1.2020060868	 3.9035418358	-0.430202
C	 0.104918882	-2.0135162825	 1.6661945377	 0.111996
O	-0.0459579161	-2.9081597707	 0.867351947	-0.276261
H	 0.8425693825	 1.9611271576	 0.2479177951	 0.132082
H	-0.0472531272	 1.6223831912	-1.2361462704	 0.132105
H	-0.9290126169	 1.7947696962	 0.2881850081	 0.123258
H	-0.6589414756	-0.6759545497	-0.3968347112	 0.107028
H	 1.4315080432	-1.5909719693	-0.3543876064	 0.247895
H	 1.6544764639	 1.0679378479	 2.100249723	 0.147403
H	 0.3820507435	 0.4198836259	 3.1257175058	 0.133817
H	 3.752655151	-1.7404179555	 4.4658646806	 0.201499
H	-0.2070184447	-2.1269360359	 2.7253320708	 0.092481
