19
gdb 74122	2.19951	1.57047	0.9528	4.4086	87.02	-0.2373	-0.0581	0.1792	1238.033	0.1602	-385.93096	-385.922486	-385.921542	-385.964338	32.094	
C	 0.3472473862	 1.5325002444	 0.0610688347	-0.471055
C	-0.0038666029	 0.0708858459	-0.0287604527	 0.292036
C	-0.0571537331	-0.5345945547	-1.2257412497	-0.229476
C	-0.4831916894	-1.9028060616	-1.5942136421	 0.342796
O	-0.6851333966	-2.1456167478	-2.7778141772	-0.346061
C	-0.6598393773	-3.0079566327	-0.6198153513	-0.133427
C	-0.3004507426	-3.0691232579	 0.6663214494	-0.066466
C	 0.2889808702	-1.9769367967	 1.5146938418	-0.258401
C	-0.3188438534	-0.585238202	 1.2976627749	-0.298709
H	 1.2477138273	 1.678535298	 0.6716144772	 0.13138
H	 0.5175582991	 1.9764205758	-0.9218806924	 0.131363
H	-0.4553482825	 2.091534154	 0.5598951276	 0.133465
H	 0.1554672446	 0.0549616771	-2.1141547461	 0.096632
H	-1.0647799048	-3.8953158098	-1.0986570329	 0.10609
H	-0.431527329	-4.0258489259	 1.1686955174	 0.103855
H	 0.1616674694	-2.2481318047	 2.5683378892	 0.109606
H	 1.3753568053	-1.9313671976	 1.3490212178	 0.12518
H	 0.030290397	 0.0715155809	 2.1019233354	 0.104763
H	-1.4098977375	-0.6479439546	 1.4153729489	 0.126429
