14
gdb 84472	4.31491	1.21393	1.05987	3.0493	67.35	-0.277	-0.0477	0.2293	1078.5379	0.100984	-436.670054	-436.662625	-436.661681	-436.702005	28.205	
O	 0.0041477014	 1.4437012967	-0.0603390914	-0.425718
C	 0.069340395	 0.0318207594	-0.0369876751	 0.074095
C	 0.7266868211	-0.5157783898	 1.2251657292	-0.120492
C	-0.0708733406	-1.3353477984	 1.9092334058	-0.147029
C	-1.395903468	-1.4511388476	 1.2114069655	 0.275512
O	-2.098912579	-0.182493532	 1.1091211855	-0.284563
C	-1.3190984332	-0.623080521	-0.0060776798	-0.064763
C	-2.22232828	-2.6234175958	 1.339143314	 0.220825
N	-2.8574213154	-3.5812204995	 1.4602649362	-0.325608
H	-0.5846500063	 1.7006364403	 0.661504617	 0.295164
H	 0.6170300851	-0.2594656568	-0.9397641466	 0.110717
H	 1.7100982305	-0.1818301948	 1.533639458	 0.128338
H	 0.1409339984	-1.8320885607	 2.8466928325	 0.133057
H	-1.8727213491	-0.8408067099	-0.9137574709	 0.130464
