23
gdb 103214	3.33371	1.27808	1.10988	0.1001	89.72	-0.2783	0.0853	0.3636	1220.5105	0.20566	-351.086202	-351.077548	-351.076603	-351.119173	34.636	
C	-0.2528913519	 1.544048341	 0.0169201337	-0.384095
C	 0.1769435645	 0.0731896216	-0.0681519116	-0.241915
C	 0.8495959071	-0.4709698193	 1.1995181376	 0.334904
C	 2.1876502968	 0.2167051689	 1.4732301792	-0.468076
C	-0.0686280554	-0.7292554712	 2.4291163583	-0.06846
C	-0.6889574621	-2.0304989598	 1.8063601495	-0.048591
C	-0.400798746	-2.8629458178	 3.0678289989	-0.281094
C	 0.8116033515	-1.9240310398	 2.9438893083	-0.052089
C	 0.8218708823	-2.0153648749	 1.3766181413	-0.085015
H	 0.6018950667	 2.2151019261	 0.1441111059	 0.116553
H	-0.7759040151	 1.8502363441	-0.8945832889	 0.110169
H	-0.9330326068	 1.7094462685	 0.8597523072	 0.114719
H	-0.7026411508	-0.5359151772	-0.3038794748	 0.092449
H	 0.8668200109	-0.0538811488	-0.9138278536	 0.087909
H	 2.0591640828	 1.286662223	 1.6676376177	 0.114881
H	 2.699777849	-0.2121234806	 2.3386584244	 0.11205
H	 2.8572348927	 0.1203300914	 0.6100459815	 0.109305
H	-0.5951959715	-0.0098972893	 3.0613898452	 0.060122
H	-1.5525511196	-2.084665019	 1.143436214	 0.070207
H	-1.0624165593	-2.7030373094	 3.9257998429	 0.088587
H	-0.2140524387	-3.9321683233	 2.9218999278	 0.088515
H	 1.6826836269	-1.8530807139	 3.5953372792	 0.069522
H	 1.3263034158	-2.7827573404	 0.7835155161	 0.059443
