17
gdb 37055	2.98842	1.8475	1.64257	1.4566	71.2	-0.2345	0.0053	0.2398	884.4081	0.137679	-421.802031	-421.795408	-421.794463	-421.832679	27.337	
C	 0.000499671	 1.4705335785	-0.0135009914	-0.370616
C	 1.3170335188	 0.7273442571	 0.0086408698	 0.340657
C	 2.0359486801	 0.4224465946	 1.3167576552	-0.356376
C	 1.0544500268	-0.5109031078	 2.016256306	-0.065094
C	-0.0212349378	-0.794144322	 1.2706211654	-0.179031
C	 0.0365500655	-0.0490079039	-0.0176398653	 0.326442
O	-0.0438893207	-0.6587809485	-1.2848046262	-0.29704
C	 1.2969254937	-0.650336263	-1.7632052623	-0.005885
O	 1.9227775432	 0.522201356	-1.2461484456	-0.301886
H	-0.3350612271	 1.9766857585	 0.8861956537	 0.115964
H	-0.2570710177	 1.9419675159	-0.9546346063	 0.125836
H	 3.0006376719	-0.063945603	 1.1275087228	 0.12394
H	 2.2455853762	 1.3201288321	 1.9101816015	 0.117703
H	 1.2171296584	-0.8615586506	 3.0302033111	 0.101902
H	-0.8451652037	-1.4348437873	 1.5607905715	 0.10633
H	 1.8317054038	-1.5509888037	-1.4187437926	 0.094645
H	 1.2886630773	-0.6006018929	-2.8549975573	 0.122506
