11
gdb 158	8.03792	7.90647	4.19499	1.5715	43.73	-0.2303	0.0188	0.2491	336.0014	0.092218	-231.142581	-231.138099	-231.137155	-231.169932	15.461	
C	-0.03011411	 1.5109276859	 0.0942060003	-0.100148
O	 1.2825186758	 1.9340931369	-0.266725408	-0.261505
C	 2.0913590796	 0.8060024409	-0.5915842945	-0.100148
C	 1.1956578032	-0.3875384802	-0.4119575005	-0.081308
C	-0.0085807235	 0.0126091084	-0.0226718092	-0.081308
H	-0.2649744611	 1.850434826	 1.1158682909	 0.10391
H	-0.7706451678	 1.9751937612	-0.5768328905	 0.103907
H	 2.4667640035	 0.8994666897	-1.6233590137	 0.103907
H	 2.9725288281	 0.7746734875	 0.0693070421	 0.10391
H	 1.5229761723	-1.405033834	-0.5847611489	 0.104392
H	-0.86863453	-0.6103437025	 0.188355982	 0.104392
