18
gdb 101547	2.43794	1.01522	0.82172	3.3467	71.12	-0.2458	-0.0706	0.1752	1422.4243	0.145257	-476.257597	-476.247367	-476.246423	-476.294124	35.317	
C	 0.1019632746	 1.6477858483	-0.0788082161	-0.389082
C	 0.0090376731	 0.1170381044	-0.0120026348	 0.044066
C	 0.489902559	-0.4385364557	 1.3278790632	-0.092973
O	-0.4176664133	 0.0171668951	 2.3239562009	-0.422676
N	-1.3530600553	-0.346782649	-0.237162952	-0.307923
C	-1.8218409941	-0.735347836	-1.4379803454	 0.308817
O	-1.2006259268	-0.7738263236	-2.4880588333	-0.373527
C	-3.2916798512	-1.1656823609	-1.4018264986	 0.101305
O	-3.9723505237	-1.1478397303	-0.4089098711	-0.247704
H	 1.1423822888	 1.9709106403	 0.0300200863	 0.115842
H	-0.2686802609	 2.0054407096	-1.0424332862	 0.133713
H	-0.4861230551	 2.105548985	 0.7205466732	 0.135623
H	 0.6194425315	-0.3157075043	-0.8103879831	 0.115552
H	 0.5082083845	-1.5368398949	 1.2822819332	 0.100394
H	 1.5130849327	-0.0846859402	 1.5232398351	 0.097721
H	-0.2059178902	-0.4135183234	 3.1565690664	 0.29704
H	-1.994676606	-0.3514306007	 0.5445775273	 0.27006
H	-3.6618167376	-1.4946219536	-2.3933603349	 0.113752
