20
gdb 117566	1.84602	1.33068	0.86472	2.3625	81.7	-0.2408	0.0289	0.2697	1400.3025	0.168831	-403.075203	-403.065127	-403.064183	-403.110943	36.127	
C	 0.3119521018	 1.2802324866	 0.2985835501	-0.38804
C	-0.1461784044	-0.1243084191	-0.0515132682	-0.040212
O	 0.9101351194	-0.7751116391	-0.7450495307	-0.251632
C	 0.6441547197	-2.1193250656	-1.1034711682	-0.088755
C	-0.4047904411	-2.2339295425	-2.1262273067	 0.349842
C	-1.2584498201	-2.3365879988	-2.9662216511	-0.478274
C	 1.9477257334	-2.7449372015	-1.5933301313	 0.000481
C	 2.9237578449	-1.9390680198	-2.357911573	-0.226288
N	 3.2140499992	-2.3584775099	-0.9691314896	-0.336217
H	 1.2042418631	 1.2510321272	 0.9306160746	 0.126137
H	 0.5506691381	 1.8435278013	-0.6078529707	 0.130836
H	-0.4776854303	 1.8109946699	 0.8385238116	 0.120251
H	-0.3968289868	-0.6930775032	 0.8586391815	 0.091505
H	-1.0460094012	-0.0974341428	-0.6817661908	 0.108609
H	 0.3119440741	-2.6718755496	-0.2064753368	 0.098938
H	-2.0117280014	-2.4276062595	-3.7096292451	 0.202538
H	 1.8479654729	-3.8062344781	-1.8064904204	 0.102017
H	 3.5372091089	-2.4116617303	-3.1191275208	 0.11479
H	 2.6801966519	-0.8965407099	-2.5337907991	 0.125962
H	 3.031619138	-1.5633143153	-0.3594702552	 0.237514
