19
gdb 12124	3.82196	1.68564	1.65784	1.7647	75.64	-0.1985	0.0853	0.2838	913.9231	0.164824	-327.852114	-327.844398	-327.843454	-327.883382	30.793	
C	-0.0392928193	 1.5350268431	 0.0163427379	-0.493182
C	 0.0149571365	 0.0360147829	 0.0045923541	 0.361738
C	-0.8806601373	-0.8652574325	 0.8110274898	-0.339003
C	 0.6132554216	-0.9295631511	 1.0226232788	-0.156012
C	 1.3575310686	-1.6681638519	-0.1354340087	 0.356586
C	 2.7260379127	-2.2584178719	-0.0171791488	-0.508811
N	 0.3348656498	-2.1872503692	-1.081046706	-0.379574
C	 0.7502437127	-0.7556590043	-1.1237669728	-0.180111
H	 0.93790997	 1.9751543411	-0.2177875973	 0.112494
H	-0.7575814166	 1.9164059773	-0.720530303	 0.118412
H	-0.3442874798	 1.9082871181	 0.9993500213	 0.117527
H	-1.4195788193	-0.3589134158	 1.6071151891	 0.099357
H	-1.4057858155	-1.6925099613	 0.3510932256	 0.13777
H	 1.0850020325	-0.6984914211	 1.9702444253	 0.08093
H	 2.7080181329	-3.1926432492	 0.5573506541	 0.127714
H	 3.1480786472	-2.4771637531	-1.0043458874	 0.114487
H	 3.407380434	-1.5687275752	 0.4935240179	 0.124995
H	 0.8401798783	-2.659247917	-1.8315039019	 0.220645
H	 1.1614848209	-0.3200603891	-2.0269624582	 0.084038
