22
gdb 88774	3.53075	1.08105	0.90717	1.1511	87.84	-0.2213	0.0308	0.2521	1353.4859	0.194726	-367.194996	-367.18611	-367.185165	-367.22902	33.983	
C	 1.1733526576	 1.1303623958	-0.6808149927	-0.415334
C	 0.7854437596	-0.2559534475	-0.2121708204	 0.030811
C	 1.8157462253	-1.2925835731	 0.0825421354	-0.25557
N	 0.9895967059	-0.7448691584	 1.1555772521	-0.086258
C	 1.6389835874	 0.0930924999	 2.1549210798	 0.062819
C	 0.6409481702	 1.0554919859	 2.8521976254	-0.267963
C	 1.1039959955	 1.052322811	 4.2890463484	-0.061873
C	 1.9716353879	 0.0711960316	 4.5315609906	-0.062358
C	 2.2443846678	-0.7606260846	 3.3021558338	-0.264108
H	 2.1605998275	 1.4341197756	-0.3251086201	 0.122665
H	 1.1965039085	 1.1558545072	-1.7755947013	 0.121174
H	 0.4458664997	 1.8797071022	-0.3496235873	 0.12396
H	-0.1601985643	-0.6014751603	-0.6289436246	 0.08724
H	 1.6540515963	-2.3388361079	-0.164792313	 0.10951
H	 2.8570956324	-0.9729731731	 0.031362029	 0.102183
H	 2.4547520106	 0.6974780501	 1.7271111588	 0.056718
H	 0.6380478318	 2.0538136465	 2.3997955023	 0.096111
H	-0.3817030559	 0.663910727	 2.7635020292	 0.113601
H	 0.7296046121	 1.7549824596	 5.0255811105	 0.088253
H	 2.413715948	-0.1500651951	 5.4969652891	 0.08842
H	 1.7313469775	-1.7303675457	 3.3574582249	 0.114615
H	 3.3084740385	-0.9731752968	 3.1482850798	 0.095384
