18
gdb 88484	2.33079	1.45163	1.14722	3.7941	76.42	-0.2839	0.0031	0.287	1137.7209	0.146477	-401.925733	-401.916861	-401.915917	-401.959509	32.829	
C	 0.4856073941	 1.4973968142	-0.421394057	-0.428948
C	 0.0971608634	 0.0806772467	-0.0561696092	 0.011856
C	 1.1364269201	-1.0093228954	 0.0494105395	-0.313182
C	 0.4252175471	-0.5288661806	 1.2904573999	-0.107062
C	 1.1782595355	 0.232330747	 2.3438172381	 0.234569
C	 2.3947450147	-0.3203864687	 2.9805291748	-0.206445
O	 2.4804731871	 0.7276404469	 2.0176986135	-0.244902
C	 0.3700057753	 1.1548182279	 3.1298347741	 0.267371
N	-0.3029499627	 1.8642658613	 3.7458300119	-0.330874
H	 1.4674726197	 1.7625028563	-0.0220828018	 0.144854
H	 0.5244761081	 1.612842215	-1.509753191	 0.120033
H	-0.2416488852	 2.2194204373	-0.0351910224	 0.131422
H	-0.8643491159	-0.2318608207	-0.4553378884	 0.093137
H	 0.9059594906	-2.002785307	-0.3181381495	 0.115525
H	 2.1723288048	-0.7078655605	-0.0626375932	 0.132483
H	-0.3290453711	-1.1829675764	 1.7192437594	 0.105763
H	 2.6472945645	-0.0386672939	 4.000090729	 0.140763
H	 2.7439095297	-1.2944264496	 2.6442167923	 0.133638
