19
gdb 64533	3.98345	1.20581	1.07226	3.195	80.01	-0.2237	-0.0205	0.2032	1153.0087	0.158662	-385.820717	-385.812723	-385.811779	-385.852949	31.843	
C	-0.2092670832	 1.6516611317	 0.0195140722	-0.51563
C	 0.0347309612	 0.1493744007	 0.0736222976	 0.213073
C	-1.168268499	-0.6542631352	-0.3434212258	 0.14572
O	-2.2283404902	-0.1983092346	-0.689404053	-0.280542
C	 1.2760301015	-0.6558441794	-0.3211518443	-0.109683
C	 2.6570863449	-0.1169698986	 0.1437375074	-0.071001
C	 2.6406809599	 1.142987327	 0.9639329675	-0.306621
C	 2.1741694728	-0.1434069089	 1.586875102	-0.07101
C	 0.7974051471	-0.6820441663	 1.1091690677	-0.109646
H	 0.4587887414	 2.1533457124	-0.6840401419	 0.130499
H	-1.2358259269	 1.8104628137	-0.3210005705	 0.146492
H	-0.1044837392	 2.1225285506	 0.9994521725	 0.130507
H	-1.007474356	-1.7562242495	-0.3099791012	 0.075
H	 1.2069460264	-1.4416002279	-1.0645298078	 0.095645
H	 3.5735370449	-0.5267114065	-0.2601696598	 0.097644
H	 3.6321787395	 1.434407252	 1.3010653097	 0.115686
H	 1.9943341502	 1.9823443434	 0.7630076972	 0.120564
H	 2.6675848157	-0.5762966817	 2.4471423222	 0.097646
H	 0.3035774789	-1.4910243129	 1.6349752183	 0.095658
