25
gdb 89714	3.09102	1.0028	0.93659	0.1306	94.19	-0.2442	0.0858	0.33	1454.2102	0.227264	-352.348565	-352.338326	-352.337382	-352.383279	39.558	
C	 0.0577889133	 1.5751845953	 0.0281386646	-0.406051
C	 0.0391758605	 0.0547406139	 0.0144035666	 0.05877
C	 1.040413355	-0.6922093606	-0.9194158344	-0.315944
C	 1.3322538673	-1.6571334955	 0.2393905853	 0.352872
C	 1.1477553523	-3.1516655418	 0.1954770602	-0.393329
C	 2.5201186889	-2.5577524913	 0.4506366919	 0.277141
C	 3.552341028	-2.6527037368	-0.6570317364	-0.452539
C	 3.0934583385	-2.6697380476	 1.8506968903	-0.452539
C	 0.646667585	-0.7068274065	 1.232351617	-0.315944
H	 1.0695264297	 1.9534590978	 0.2158429005	 0.109632
H	-0.2785652831	 1.9872865592	-0.9301270748	 0.111968
H	-0.5970843699	 1.9754612249	 0.8105420234	 0.111968
H	-0.9783074675	-0.3033763399	-0.1742155828	 0.07116
H	 0.63578767	-1.1180550365	-1.8420979753	 0.093244
H	 1.9040023136	-0.0669411753	-1.1761241581	 0.092434
H	 0.6328187399	-3.628496253	 1.0251077482	 0.100947
H	 0.9611052244	-3.6163091209	-0.768930736	 0.100947
H	 3.0941075873	-2.5601831494	-1.6460533042	 0.113794
H	 4.3066486399	-1.8615216435	-0.5648786697	 0.109804
H	 4.0786808191	-3.6142000333	-0.6222491106	 0.111195
H	 3.6003250078	-3.6319561667	 1.991909659	 0.111195
H	 3.8296162333	-1.8792278851	 2.0420251452	 0.109804
H	 2.3144796986	-2.5891264132	 2.6145003048	 0.113794
H	 1.3618946914	-0.087067437	 1.7864212713	 0.092434
H	-0.0574385133	-1.1437915175	 1.9462884239	 0.093244
