12
gdb 4648	6.88342	1.33564	1.12644	5.2357	63.47	-0.2642	-0.0402	0.2241	978.3172	0.084681	-377.57614	-377.569256	-377.568312	-377.607561	24.163	
C	 0.039037217	 1.4672048037	-0.0295699634	-0.493245
C	-0.0598703984	-0.0131958124	-0.0034457174	 0.391323
N	-1.0924294687	-0.7597565476	-0.2226729345	-0.331864
C	-0.6204175192	-2.0635437866	-0.0677525186	 0.143731
C	 0.7025167208	-2.0215328584	 0.2436252965	-0.096407
O	 1.0744384903	-0.7197412978	 0.2882096689	-0.159113
C	-1.44009625	-3.211411736	-0.223285728	 0.217181
N	-2.0912017093	-4.1600575762	-0.3456123813	-0.329848
H	 0.7683262037	 1.7966676875	-0.7762036676	 0.156447
H	-0.9385534547	 1.8812627314	-0.2755389242	 0.169052
H	 0.3604613167	 1.8541431315	 0.9424411839	 0.156453
H	 1.454812332	-2.7636813991	 0.4462661356	 0.17629
