18
gdb 22426	2.82212	1.23299	1.01609	1.2354	77.89	-0.227	0.0155	0.2425	1216.1296	0.145081	-439.013527	-439.004267	-439.003322	-439.047141	34.865	
C	-0.0080970532	 1.5073472103	 0.1012717359	-0.492951
C	-0.0281327714	 0.0084797302	 0.0687611061	 0.284825
C	 1.1534930946	-0.8397614817	-0.3185982461	-0.391824
C	 0.5660278067	-1.0001683888	 1.0765553706	 0.266091
O	 1.2879230287	-0.7284238497	 2.216807697	-0.449296
C	-0.6945007418	-1.7906672252	 0.9941193986	 0.384482
C	-1.3038312084	-0.8573782409	-0.0487831264	-0.379036
N	-1.1018831566	-2.7523248754	 1.7099253584	-0.279018
O	-2.4091309343	-3.1349251853	 1.340043501	-0.395812
H	 0.9608727367	 1.8771540231	 0.4500543948	 0.130071
H	-0.1883835722	 1.9277551534	-0.8951529531	 0.12312
H	-0.7792297156	 1.899069614	 0.7734603968	 0.124704
H	 1.0697041114	-1.6248172755	-1.0663703411	 0.111689
H	 2.1066364346	-0.3187389048	-0.3087057968	 0.118181
H	 1.9121855824	-1.4478270812	 2.3636292183	 0.295259
H	-2.2042874747	-0.3712239292	 0.3395327282	 0.129396
H	-1.5236197419	-1.2812863953	-1.0333346232	 0.115105
H	-2.6003298852	-3.8329013779	 1.9753037511	 0.305015
