17
gdb 42315	3.39517	1.09264	0.90132	1.9813	75.29	-0.2589	-0.0633	0.1956	1270.8726	0.135394	-421.805212	-421.796464	-421.79552	-421.840551	31.122	
O	-0.0183082216	-0.1268888619	-0.0418722424	-0.286685
C	-0.0489080038	 1.0846083928	-0.0171759841	 0.212694
C	 1.1645916889	 1.8655515849	 0.1685122243	 0.26139
C	 2.1538686031	 2.5345274668	 0.3213454957	-0.404322
C	-1.3214865532	 1.9068034099	-0.1321674038	-0.104374
C	-2.5756001564	 1.0992389529	-0.5380354308	-0.26886
C	-3.5729372477	 1.3758859392	 0.6072717764	-0.07814
O	-3.1351419755	 2.5832331055	 1.2197193145	-0.234179
C	-1.7274047504	 2.5164795166	 1.248638604	-0.097731
H	 3.0390281131	 3.1076370223	 0.4572249475	 0.217473
H	-1.1300184092	 2.727658599	-0.8293276645	 0.10379
H	-2.9630001272	 1.454136981	-1.4952090842	 0.110441
H	-2.339378218	 0.0380032061	-0.6320386529	 0.135327
H	-4.6019669054	 1.5254987723	 0.2730548484	 0.112264
H	-3.5600626105	 0.5523540339	 1.3383314671	 0.098617
H	-1.3810416553	 1.8637211378	 2.0673999881	 0.100989
H	-1.3343671809	 3.5214166508	 1.4134117365	 0.121308
