19
gdb 41585	3.42647	1.49892	1.31992	1.6882	80.8	-0.2289	0.0053	0.2342	1022.8867	0.161618	-385.840624	-385.833634	-385.83269	-385.872056	28.254	
C	 0.0373585328	 1.4621877241	 0.2095282392	-0.089061
O	 1.3596789099	 1.606950432	-0.3671476114	-0.280719
C	 1.4198262493	 0.1975433778	-0.6544360553	 0.017063
C	 0.0656295162	-0.0780171907	 0.0860119663	-0.120154
C	-0.5087533603	-0.7363342448	-1.2190594654	-0.04279
C	-1.6999193031	-0.3010430153	-2.0942572178	-0.251947
C	-1.0434525688	-0.0946546807	-3.5023865385	-0.237213
C	 0.4061557174	 0.257447294	-3.1711623636	-0.207908
C	 0.685802264	-0.1692526478	-1.9440087556	 0.252815
H	 0.0157674997	 1.8430290104	 1.2361644935	 0.107721
H	-0.7301771686	 1.9790238366	-0.3796875183	 0.103534
H	 2.3880335415	-0.2476979236	-0.4146796033	 0.083644
H	-0.0076347559	-0.6406719369	 1.0162499226	 0.077875
H	-0.4681564776	-1.8267981198	-1.0949657451	 0.077025
H	-2.5257616658	-1.0177930751	-2.1120178218	 0.0944
H	-2.1025693539	 0.6562812262	-1.7442785408	 0.104171
H	-1.1137614004	-1.0067540443	-4.1123838966	 0.106655
H	-1.5361002492	 0.6969522363	-4.0773787483	 0.104226
H	 1.0406117029	 0.8366261016	-3.8317937097	 0.10066
