19
gdb 81464	2.95424	1.5756	1.43265	1.9225	73.25	-0.2531	0.0763	0.3294	982.8694	0.161506	-422.999221	-422.992086	-422.991142	-423.030266	29.676	
O	-0.0997230879	 1.3945740536	-0.0279097815	-0.45644
C	 0.0343220973	-0.0155766967	-0.0174346983	 0.151141
C	 0.2179929421	-0.6106539611	 1.4126310131	-0.063626
C	-1.3305164076	-0.499498639	 1.5634459426	-0.232894
C	-1.3810852497	-0.6437806407	 0.0095140194	-0.066621
C	-1.2970136686	-2.1289887093	-0.3139748446	 0.03872
O	-0.1348890105	-2.5946248831	-1.0124089348	-0.25623
C	-0.2452953399	-2.8765514505	 0.3919139235	 0.050856
C	 0.65217946	-2.0864336062	 1.335069704	-0.253846
H	 0.7719925088	 1.7722338793	 0.1265361672	 0.280206
H	 0.7157888269	-0.36240808	-0.79982857	 0.081296
H	 0.8462206249	-0.0464240085	 2.1081964083	 0.055823
H	-1.8439166779	-1.2580754999	 2.1615895076	 0.086736
H	-1.6308637171	 0.4977384086	 1.8835417455	 0.115772
H	-2.1585078928	-0.1238055988	-0.552896378	 0.071984
H	-2.2230538765	-2.6264995835	-0.5984929406	 0.091979
H	-0.3843363088	-3.933654174	 0.6133957135	 0.092176
H	 1.6976734729	-2.1731770371	 1.0133375425	 0.109293
H	 0.5879825545	-2.5377382132	 2.3328235104	 0.103676
