21
gdb 89079	5.32886	0.60352	0.57135	1.3463	86.93	-0.2529	0.0348	0.2877	1965.8708	0.179472	-387.027596	-387.017169	-387.016225	-387.064254	37.204	
C	 0.1883416121	 1.5392263753	-0.2993268192	-0.407286
C	 0.0871394351	 0.0550384945	-0.0157414384	-0.000307
C	 1.3159583419	-0.8158199487	 0.0672088479	-0.282591
C	 0.4828520368	-0.5757297446	 1.3032155297	-0.011471
C	 1.029320152	 0.2233430307	 2.4537692945	-0.065072
O	 1.8043507059	-0.6423928632	 3.2679108281	-0.244361
C	 2.3220626506	 0.0145156745	 4.4056351816	-0.203204
C	 3.0938680991	-0.9194356626	 5.2155011906	 0.281652
C	 3.7349889769	-1.6672336225	 5.9022240697	-0.415646
H	 1.1012736955	 1.9769972501	 0.1143099851	 0.116454
H	 0.2037842998	 1.721326568	-1.3795854843	 0.119116
H	-0.6638928692	 2.0889375801	 0.1161372059	 0.116285
H	-0.7781611971	-0.411056743	-0.4806221414	 0.085017
H	 1.3025733344	-1.8001415986	-0.3871910051	 0.111602
H	 2.2810999618	-0.3198950091	 0.0206296556	 0.11017
H	-0.1357344146	-1.4068161654	 1.6303496753	 0.091165
H	 1.6501322421	 1.0619301134	 2.0993690375	 0.083327
H	 0.2085781581	 0.6598905202	 3.0497085038	 0.085873
H	 2.964165322	 0.8619374619	 4.1067764623	 0.114828
H	 1.5051297735	 0.4423920806	 5.0132720473	 0.115491
H	 4.3003707033	-2.3347678817	 6.5041677837	 0.19896
