20
gdb 74846	2.25095	1.73049	1.3267	0.3929	80.37	-0.2279	0.0158	0.2437	1066.6692	0.169925	-403.135331	-403.12626	-403.125316	-403.168371	35.189	
C	 0.0477768149	 1.4960798241	-0.0132106715	-0.507726
C	-0.0032762836	 0.0013520729	-0.0459367372	 0.29278
C	-0.0966961567	-0.7791578037	-1.1278616631	-0.168398
C	-0.0678686156	-2.2226794543	-0.7637613036	-0.082847
N	 1.2120230627	-2.6213384417	-0.0982221638	-0.345035
C	 0.0314024013	-2.2692888661	 0.713189305	-0.074619
C	 0.0434305534	-0.8331610712	 1.2437862536	 0.296229
C	 1.2575480051	-0.5342444761	 2.1256626369	-0.451534
O	-1.1715903218	-0.684200876	 1.9925285501	-0.476143
H	 1.0108941089	 1.8637684592	 0.3625460694	 0.130332
H	-0.1055118011	 1.9208992906	-1.0087386102	 0.126631
H	-0.7281446036	 1.9027355862	 0.6479940877	 0.118281
H	-0.1501359523	-0.423092549	-2.1507837214	 0.092049
H	-0.6037279588	-2.9665977978	-1.3430128569	 0.08864
H	 1.2895885463	-3.6377303815	-0.119334739	 0.226555
H	-0.4608259357	-3.0220433734	 1.3188369992	 0.090729
H	 2.1812873191	-0.7468862933	 1.5834780544	 0.146476
H	 1.2717787763	 0.5171643646	 2.4369829325	 0.101955
H	 1.2239747825	-1.1548530592	 3.0265288798	 0.117934
H	-1.0998504814	 0.1191595659	 2.5174981279	 0.277713
