15
gdb 75415	2.42224	1.7463	1.02752	6.1775	70.78	-0.2563	-0.0863	0.17	1097.6592	0.111833	-457.818642	-457.8104	-457.809456	-457.852172	29.393	
C	 0.0461626659	 1.4994503006	-0.2480218002	-0.477612
C	-0.0184285952	 0.0097659896	-0.077853548	 0.207136
C	-1.1453830241	-0.7136555939	-0.104866984	-0.169073
C	-1.2089445426	-2.1881873668	 0.063639956	-0.11542
O	 0.0252736774	-2.8657537144	 0.2673097345	-0.23909
C	 1.2256558653	-2.2354298996	 0.3128411762	 0.352409
O	 2.2229377337	-2.8694000231	 0.4877790524	-0.287117
C	 1.2561130445	-0.6989605915	 0.1338856276	 0.169057
O	 2.3249133058	-0.134516297	 0.1741587021	-0.279562
H	 0.6796581393	 1.7606120973	-1.1015470062	 0.152191
H	-0.9478870773	 1.9265767625	-0.3981260366	 0.122116
H	 0.5065430965	 1.9658233936	 0.6286651534	 0.152199
H	-2.1095077994	-0.2326066386	-0.2584021869	 0.120577
H	-1.8562798652	-2.4366241377	 0.9169521574	 0.146096
H	-1.6826848943	-2.642277191	-0.8185518378	 0.146093
