21
gdb 89657	2.88149	1.24917	1.05254	1.0176	91.38	-0.2241	0.042	0.2661	1244.9354	0.180449	-349.909792	-349.900218	-349.899274	-349.943519	36.944	
C	-0.144559602	 1.5686698686	 0.0385640689	-0.412761
C	 0.0730410075	 0.0604421145	-0.0006936094	-0.016242
C	 1.1814995618	-0.5288880707	-0.9367727743	-0.31527
C	 1.798203535	-1.262944701	 0.2676718025	 0.175949
C	 2.1731237856	-0.2379255236	 1.3195300893	-0.375409
C	 0.7314057391	-0.6340316495	 1.2080123097	 0.285728
C	-0.0228836605	-1.2748018732	 2.3362712765	-0.492799
C	 2.3200209481	-2.5852037049	 0.2563705397	 0.159916
C	 2.7436404165	-3.7128672149	 0.2340995841	-0.41486
H	 0.7833548127	 2.1069617336	 0.2573498952	 0.114931
H	-0.5189140812	 1.9333906179	-0.9242722349	 0.116058
H	-0.8779945228	 1.8429828753	 0.8048169687	 0.115596
H	-0.8790696094	-0.4352603359	-0.2188424725	 0.074845
H	 0.7846937368	-1.2048171012	-1.6958169746	 0.112371
H	 1.843868597	 0.19659071	-1.4213517747	 0.095401
H	 2.6960492174	-0.6398894816	 2.1809989701	 0.121637
H	 2.5253244057	 0.7411599419	 1.0026103886	 0.106983
H	-0.4192336997	-0.5212923126	 3.0279622129	 0.120769
H	-0.868787144	-1.8635415737	 1.9641391328	 0.119344
H	 0.6240951972	-1.9454653235	 2.910548092	 0.127694
H	 3.1257418192	-4.7029432454	 0.2156633294	 0.180118
