13
gdb 18540	4.13272	2.12728	1.65606	1.7655	57.75	-0.2498	-0.0481	0.2017	748.167	0.096481	-398.609931	-398.603829	-398.602885	-398.640652	22.746	
O	-0.0188592507	 0.0221625598	-0.5203270206	-0.269216
C	-0.0205134727	 1.1524493487	-0.1405570558	 0.382244
C	-1.1206377205	 2.1472223472	 0.2848685541	-0.353482
C	-0.0085564431	 3.182097873	 0.622992933	-0.025654
N	 0.2686620182	 3.3015380191	 2.0597805226	-0.255929
C	 1.2968648047	 2.5934744894	 2.282310961	 0.117488
O	 1.9162910521	 1.9411509499	 1.2590085377	-0.218514
C	 1.1033327978	 2.2069622977	 0.1044971131	-0.032867
H	-1.7819834713	 2.4245463753	-0.5424707482	 0.140088
H	-1.7314175187	 1.8291140145	 1.1341449436	 0.148856
H	-0.1159560362	 4.1639445178	 0.161118841	 0.097774
H	 1.7710832047	 2.4512388943	 3.2466083171	 0.152665
H	 1.7448859656	 2.4514711133	-0.7436681787	 0.116549
