19
gdb 52088	5.03678	0.80214	0.77672	3.8018	79.04	-0.2347	0.0167	0.2515	1502.8487	0.15981	-419.115977	-419.107385	-419.106441	-419.151872	30.897	
N	-0.0966313612	 1.2841252937	 0.0503132836	-0.435927
C	-0.0542094543	 0.0236873987	 0.0175873983	 0.140678
O	-1.1972709441	-0.6892051709	 0.0257969657	-0.19078
C	-1.0583622555	-2.1114935732	-0.015425887	-0.243667
C	-2.4416643528	-2.7032326198	 0.0141379958	 0.316842
C	-3.6086200254	-2.5123443209	-0.981763575	-0.196617
N	-4.2224653012	-3.4763565558	 0.0518121949	-0.143256
C	-2.8585712491	-4.1899790148	-0.012216639	-0.220417
C	-3.5403521964	-2.5684813056	 1.0933582332	-0.196693
H	 0.8474496048	 1.6642194368	 0.0388283494	 0.229866
H	 0.8515472838	-0.5984018785	-0.0184385217	 0.084577
H	-0.5314717162	-2.4155208158	-0.9311879307	 0.109895
H	-0.4737792092	-2.4616552561	 0.84729423	 0.109789
H	-4.0973898184	-1.5363697852	-1.0153335709	 0.116441
H	-3.5114030056	-2.949048045	-1.9798081018	 0.099517
H	-2.7042988428	-4.753582054	-0.9368539976	 0.101951
H	-2.6450071943	-4.8022198032	 0.8686806172	 0.101937
H	-3.3785628468	-3.0582783859	 2.0578252294	 0.099472
H	-4.0241631252	-1.5966309944	 1.2116097962	 0.116394
