15
gdb 50616	2.09199	1.80226	0.99328	5.6663	70.81	-0.2588	-0.0704	0.1884	1122.2143	0.112594	-453.979231	-453.970892	-453.969948	-454.013484	28.525	
O	 0.0117911889	-0.0576917381	-0.2870498164	-0.313086
C	 0.0415408842	 1.1500186756	-0.1974101761	 0.146105
N	 1.17027534	 1.890832681	 0.03254107	-0.12864
C	 1.2346669389	 3.3624474834	 0.0313996306	-0.20716
C	 2.7698494828	 3.5987391322	-0.0325259375	-0.17777
N	 3.4080120874	 2.2823587684	 0.1030631528	-0.257477
C	 2.4915343759	 1.3988770557	 0.1175070458	 0.296726
C	 2.7829870325	-0.0735816346	 0.3019384721	 0.101715
O	 3.7680929083	-0.5845559601	-0.1574090223	-0.223289
H	-0.8576834983	 1.7864498571	-0.2912666678	 0.097126
H	 0.700860341	 3.775253085	-0.8278731155	 0.136156
H	 0.7891700715	 3.7682381589	 0.9451096546	 0.133237
H	 3.0856636475	 4.0450516272	-0.9819814593	 0.136942
H	 3.1198355173	 4.2599701886	 0.7645936801	 0.135236
H	 2.045176782	-0.6234741202	 0.9092025489	 0.124177
