16
gdb 23246	2.65052	1.38805	1.22233	2.803	68.89	-0.2361	0.0043	0.2404	1061.6174	0.123304	-474.934893	-474.926563	-474.925619	-474.96767	31.896	
O	-0.1075589035	 1.313343134	 0.0517331863	-0.38518
N	 0.0277557379	-0.0845307015	-0.0136484065	-0.271709
C	-1.0993354889	-0.659559565	 0.0553065346	 0.387088
C	-1.4194247432	-2.1076080332	-0.0427786703	-0.220977
C	-2.3152290846	-2.4874652949	 1.112879923	 0.095925
O	-2.2089980609	-1.8752378273	 2.3759940993	-0.428288
C	-2.9438958541	-1.7421232564	-0.0068312718	-0.138627
C	-2.5838977081	-0.240500527	 0.0768012336	 0.054639
O	-3.1130702352	 0.5210164483	 1.1172147428	-0.428886
H	 0.8048712721	 1.6081682192	-0.0383043311	 0.306169
H	-0.8906535719	-2.844246817	-0.6336258469	 0.109702
H	-2.5602546788	-3.5480836014	 1.1583045474	 0.107245
H	-1.3181611794	-2.0239803021	 2.7116556564	 0.298815
H	-3.7495252042	-2.1595115418	-0.597267494	 0.104182
H	-2.8203437793	 0.2803043539	-0.8567078844	 0.116177
H	-2.9081116477	 0.0409699721	 1.9309172817	 0.293726
