20
gdb 63413	3.79598	0.99253	0.95328	3.9372	85.17	-0.2119	-0.003	0.2089	1328.001	0.170484	-403.193166	-403.184	-403.183056	-403.227334	34.34	
C	 0.0675974712	 1.4911859186	 0.0027506271	-0.420158
C	-0.051703079	-0.0464504198	 0.0083571105	 0.254237
C	-1.5326270652	-0.4566799024	-0.026179558	-0.426501
C	 0.7400452243	-0.6779627706	-1.1856807085	-0.229851
N	 1.9467068219	-1.2536727259	-0.5716788026	-0.059843
C	 3.0167623254	-1.7660339505	-1.2427604099	 0.142986
O	 3.9861885664	-2.2751374835	-0.7190962319	-0.33159
C	 1.799587917	-1.2569337296	 0.8229668952	-0.001628
C	 0.6877258745	-0.6294922752	 1.2039399273	-0.198361
H	 1.116254063	 1.8028442662	-0.0170939074	 0.123435
H	-0.4366703391	 1.9203911588	-0.8709669977	 0.111953
H	-0.3922798262	 1.9198300308	 0.899263516	 0.116923
H	-2.0221020875	-0.0873593761	-0.9347679763	 0.114854
H	-1.6420980609	-1.5449198846	 0.0033051702	 0.119445
H	-2.0707454709	-0.0405700327	 0.8319300763	 0.117607
H	 0.1519139596	-1.468020213	-1.6675504156	 0.11584
H	 1.0056772696	 0.0615662067	-1.9462725648	 0.120035
H	 2.9021617732	-1.6602493729	-2.3393205646	 0.071002
H	 2.5704383962	-1.7388461047	 1.4053400835	 0.155582
H	 0.3637783566	-0.4917182398	 2.2262994812	 0.104033
