20
gdb 66424	2.65374	1.62669	1.29539	1.5932	83.53	-0.2036	0.0795	0.2831	1091.8921	0.168506	-365.917672	-365.908812	-365.907867	-365.950411	34.355	
C	-0.0625776991	 1.4419084689	 0.0379839795	-0.517158
C	 0.0598082995	-0.0411765472	 0.0312491613	 0.395419
C	 1.0917518853	-0.9966641771	-0.5119973895	-0.228553
C	 0.6884884638	-1.0366906765	 0.972891864	-0.228552
C	-0.4557548325	-2.0207007022	 0.611721126	 0.308233
C	-1.2533726345	-2.9807491426	 1.42626568	-0.524734
N	-1.0901205665	-0.9967458279	-0.3068053183	-0.295698
C	-0.064567335	-1.9818751076	-0.8286910196	 0.30823
C	-0.3278661308	-2.8888872565	-1.9816771899	-0.524731
H	 0.8927527481	 1.9034768953	 0.3100375073	 0.121371
H	-0.3535650328	 1.8157504809	-0.9500303115	 0.127731
H	-0.8183737451	 1.7696082665	 0.7604721701	 0.127734
H	 2.0670009573	-0.8228615875	-0.9464336136	 0.088407
H	 1.307872244	-0.898215087	 1.8488149136	 0.088407
H	-1.7170066151	-2.4775599487	 2.2825540618	 0.126139
H	-2.0539533891	-3.4173855523	 0.8211670665	 0.13086
H	-0.6268368001	-3.7949288391	 1.8080635009	 0.119948
H	-0.3020418169	-2.3370677638	-2.9283627375	 0.12614
H	 0.4168528267	-3.6912446985	-2.0347928182	 0.119947
H	-1.3183952873	-3.3445258271	-1.886962453	 0.130858
