20
gdb 103230	3.63118	1.19894	1.09953	2.0888	78.3	-0.2074	0.0634	0.2707	1168.1703	0.170226	-403.041739	-403.033082	-403.032138	-403.074803	33.857	
C	-0.1475498712	 1.6487360393	 0.0897596617	-0.459289
C	 0.0240510437	 0.126472082	 0.0818331933	 0.306541
C	-1.2061596958	-0.5794276585	-0.4944505968	-0.1276
O	-1.4027645801	-0.3227011404	-1.8761528652	-0.425907
C	 1.2722208882	-0.6626786085	-0.2543989232	-0.087316
C	 2.5995825692	-0.15190747	 0.3698895108	-0.079022
N	 2.3542819225	 1.1064700276	 1.1210349559	-0.343476
C	 2.0177879786	-0.2116847971	 1.7231503366	-0.075549
C	 0.6683390035	-0.7319095714	 1.1511007856	-0.118815
H	 0.5507960997	 2.1443284894	-0.5863321463	 0.129115
H	-1.1680717463	 1.9109510617	-0.2238765428	 0.079105
H	 0.0111792916	 2.0743704746	 1.0793061785	 0.136494
H	-1.0989450509	-1.6657548412	-0.4132571781	 0.100195
H	-2.0921868085	-0.2888115414	 0.0929531461	 0.087118
H	-1.5136246043	 0.6273415443	-1.9853654763	 0.284145
H	 1.257812409	-1.4210075575	-1.0278160162	 0.094721
H	 3.5900594747	-0.4117301151	 0.0198469147	 0.094261
H	 3.2509326285	 1.3855935191	 1.5203677015	 0.227438
H	 2.4542705738	-0.5261192439	 2.6621339983	 0.094416
H	 0.1452722843	-1.5625861131	 1.6114018022	 0.083426
