15
gdb 69625	3.95043	1.17465	1.14415	3.29	73.36	-0.2434	0.0021	0.2455	1110.4324	0.108717	-420.498772	-420.49075	-420.489806	-420.531044	30.945	
C	-0.2184306742	 1.5355088103	 0.0449361121	-0.511185
C	 0.0934551437	 0.0782636289	 0.0174660701	 0.408114
O	-0.7534460006	-0.8568744717	 0.6909676594	-0.248165
C	 0.6368351879	-0.8676508762	 0.9923719386	-0.190747
C	 1.3876129968	-1.6572644032	-0.1665085289	 0.319536
O	 0.3983473595	-2.0712684187	-1.1204390382	-0.256464
C	 0.8197554658	-0.7165592869	-1.1502273536	-0.171069
C	 2.6397552075	-2.3132961902	-0.0699169614	 0.164244
C	 3.7045835587	-2.853822755	 0.075578225	-0.364537
H	 0.6547515679	 2.1234973935	-0.2564679977	 0.131868
H	-1.0373764045	 1.7699196728	-0.6441499543	 0.139923
H	-0.5164135633	 1.842298108	 1.0507551203	 0.142419
H	 0.9608682797	-0.7627481141	 2.0204832655	 0.116333
H	 1.2416378313	-0.320076961	-2.066375247	 0.125617
H	 4.6439863638	-3.3365195065	 0.1874864102	 0.194111
