18
gdb 50365	3.24528	1.27633	1.17171	4.8415	72.76	-0.2442	0.0257	0.27	1101.4682	0.14982	-439.099407	-439.091786	-439.090842	-439.132297	28.483	
O	 0.0176831496	 0.1601940014	 0.6322170814	-0.336368
C	 0.0865705615	 1.3342357438	 0.3348991485	 0.14471
N	 1.2086066039	 1.9654132687	-0.0991089574	-0.043217
C	 1.313809445	 3.3842162753	-0.4191633728	-0.19907
C	 2.6986532693	 3.7812817522	 0.1092311629	-0.087106
C	 2.8381921351	 3.8947667028	 1.6411005749	-0.076783
O	 3.5061719653	 2.6200655727	 1.7275602679	-0.284713
C	 3.4714906547	 2.4426193972	 0.2972712034	 0.12373
C	 2.5206854313	 1.3276423134	-0.1375816456	-0.194191
H	-0.7789703734	 2.0252393645	 0.3891406868	 0.068222
H	 1.2623601827	 3.5487928261	-1.505217177	 0.111809
H	 0.4951262581	 3.9439968227	 0.0430332248	 0.12328
H	 3.1694755427	 4.5714435524	-0.4742045237	 0.089108
H	 3.478003676	 4.7146000031	 1.9894361774	 0.106184
H	 1.8989525973	 3.9070951003	 2.208494455	 0.106321
H	 4.4758264057	 2.3447695237	-0.1260318176	 0.083212
H	 2.5330278236	 0.4677588241	 0.533805463	 0.157127
H	 2.7661501016	 0.9863878256	-1.1535396819	 0.107744
