18
gdb 16575	2.99331	2.55126	2.13589	2.1163	66.18	-0.2392	0.0793	0.3186	747.2584	0.1577	-384.947629	-384.941489	-384.940545	-384.977567	25.116	
C	-0.0162493444	 1.5562918168	-0.0369426227	-0.064258
O	 1.354933844	 1.9842744168	-0.0382568149	-0.270523
C	 2.18013344	 0.8228762694	 0.0563995158	 0.096449
C	 1.3684051735	-0.2599854552	-0.6613498746	-0.234701
C	 0.0239182476	 0.0171321304	 0.0344042454	-0.060035
C	 0.1473782182	-0.4492900696	 1.4948236262	-0.077499
O	 1.1234402265	 0.3016491963	 2.2010198143	-0.248356
C	 2.3683969933	 0.4307592705	 1.5308464192	-0.079183
H	-0.536031659	 2.0000915327	 0.8194121857	 0.106875
H	-0.4973334803	 1.9059730427	-0.959602297	 0.09357
H	 3.1461696335	 1.0525901879	-0.402904584	 0.076471
H	 1.3259320021	-0.0694988258	-1.7376781215	 0.103001
H	 1.7416914476	-1.2740938728	-0.4949148225	 0.097662
H	-0.8372699226	-0.4539967307	-0.4462214709	 0.071899
H	-0.7890445861	-0.2972672603	 2.0412606851	 0.108282
H	 0.383873717	-1.5268647562	 1.5215734721	 0.085524
H	 2.9539355731	-0.5034494474	 1.5904862188	 0.080223
H	 2.912462526	 1.2128653945	 2.0676403754	 0.1146
