12
gdb 130258	3.23943	1.50507	1.0289	6.5678	60.93	-0.2508	-0.0807	0.1701	1036.1943	0.077867	-505.95775	-505.950373	-505.949429	-505.989772	27.705	
N	 0.0704170598	 1.3949452389	 0.1613409344	-0.559162
C	 0.0046677088	 0.0295671675	 0.0348881209	 0.338381
N	-1.1391563432	-0.5690310611	-0.0143971252	-0.151063
O	-1.1193181603	-1.9566909876	-0.0311054396	-0.251949
C	 0.0527067759	-2.7120336162	-0.0196369326	 0.474377
O	-0.0576524556	-3.9015229933	-0.0129191686	-0.330154
N	 1.2642032249	-2.0280350197	-0.0264948429	-0.417128
C	 1.2382105569	-0.7491836993	 0.0040354999	 0.420387
O	 2.3662310825	-0.0368353554	-0.0117985243	-0.395081
H	 0.8948999536	 1.8342419696	-0.217513559	 0.276523
H	-0.7967535175	 1.8809509235	-0.0172955926	 0.273871
H	 3.1028721443	-0.667866147	-0.0476343502	 0.320997
