16
gdb 44350	3.78082	1.57479	1.29828	3.5015	76.67	-0.2243	-0.0634	0.1608	954.9223	0.124977	-400.666083	-400.65939	-400.658446	-400.697063	27.128	
O	 0.0673529224	-0.0650234498	 0.2842488379	-0.301916
C	 0.0447860706	 1.1076328833	 0.0130374869	 0.352124
C	-1.278980336	 1.9458626558	 0.0654987172	-0.25216
N	-1.3944306351	 2.9708137073	-0.9805018138	-0.084648
C	-0.7615067312	 4.3196085961	-1.1007584801	-0.030259
C	 0.6675662569	 4.5653073486	-0.4921453712	-0.307601
C	 0.9197170517	 3.1297816791	-0.9273094436	 0.182977
C	 1.1764875746	 2.071544073	-0.1464983404	-0.269099
C	-0.2683828056	 3.1367525688	-1.8705318824	-0.130852
H	-2.1243603622	 1.2591065515	-0.0408221683	 0.138214
H	-1.3345573103	 2.3879566357	 1.0678733518	 0.130705
H	-1.4300030579	 5.1118998666	-1.4203808914	 0.111675
H	 1.1525754932	 5.3420810464	-1.0930866946	 0.124465
H	 0.7766256982	 4.7924808485	 0.5715839484	 0.111476
H	 1.8355775988	 2.146084953	 0.7176698348	 0.119662
H	-0.3165751281	 2.8721145261	-2.9203218309	 0.105236
