12
gdb 11688	5.48257	1.43633	1.31344	1.1247	61.43	-0.2667	-0.0512	0.2155	882.4458	0.083829	-377.497729	-377.491119	-377.490175	-377.528695	24.383	
O	 0.0442553712	 0.0264012724	-0.0531843289	-0.284488
C	 0.0151752165	 1.2135114198	 0.0410667298	 0.46532
C	-1.1368107899	 2.2573113055	 0.1447271167	-0.39471
C	-0.0559690209	 3.3347427734	-0.0620340187	 0.216785
N	 0.8688535011	 3.1917281734	 1.0781572599	-0.344863
C	 1.0613440638	 2.3089787045	-0.1075627901	-0.230504
C	-0.1605405035	 4.5349326519	-0.8212410198	 0.188302
N	-0.2559145104	 5.5150946013	-1.4292057614	-0.329726
H	-1.8253787549	 2.148970169	-0.6967812197	 0.157834
H	-1.6837373756	 2.3176626325	 1.0864197881	 0.151987
H	 1.5786581852	 3.9231539128	 1.0152464119	 0.261508
H	 1.9882151673	 2.3130390835	-0.6670470477	 0.142554
