19
gdb 63764	3.06972	1.36513	1.14168	1.7797	81.96	-0.2306	0.0459	0.2765	1133.8737	0.156337	-385.820052	-385.81106	-385.810116	-385.853083	34.996	
C	-0.2462094712	 1.5633008695	 0.0054884429	-0.447086
C	-0.0269359949	 0.0624544967	 0.0753565017	 0.388918
C	-1.2989774604	-0.7144364743	-0.2494615609	-0.413303
O	 1.0479312118	-0.398031925	-0.8272890214	-0.321454
C	 1.6483725034	-1.1213606429	 0.2332123588	 0.079211
C	 2.2000561418	-0.2162834702	 1.3100620841	-0.249796
C	 2.8108850656	 1.0610224739	 1.076739137	 0.312501
C	 3.3883266566	 2.1040632126	 0.9147871265	-0.417716
C	 0.7100541356	-0.5666899979	 1.2705966159	-0.192709
H	 0.6702872023	 2.1118519718	 0.2180358395	 0.147522
H	-0.5963902266	 1.8400874337	-0.9945836444	 0.120755
H	-1.014055941	 1.862791563	 0.7266719391	 0.114392
H	-1.6497488009	-0.4538261703	-1.2524186225	 0.125894
H	-1.1189410117	-1.792290007	-0.2145261769	 0.119541
H	-2.091666591	-0.4713867893	 0.466740992	 0.113982
H	 2.0289456869	-2.1160725139	 0.0285697691	 0.107487
H	 2.6907779251	-0.791872706	 2.0944411076	 0.118524
H	 3.8836504557	 3.0299648687	 0.757803659	 0.193464
H	 0.2258158829	-1.039873823	 2.1153233532	 0.099874
