20
gdb 108828	3.03292	1.18935	0.94723	2.2147	81.3	-0.2133	0.0208	0.2341	1285.8958	0.170828	-403.123081	-403.114204	-403.11326	-403.156636	33.627	
C	-0.2407508013	 1.5924529758	 0.0756997198	-0.390337
C	 0.0206519482	 0.0869821514	-0.0095086971	 0.004365
C	 0.6733763581	-0.3971192685	-1.2890933795	-0.197945
C	 1.7333345341	-1.1626305701	-1.0261863529	 0.318562
C	 2.6289172945	-1.8651505442	-1.9916689895	-0.18788
O	 2.1582659442	-1.6655324312	-3.3114210813	-0.412808
C	 1.9552484452	-1.2209311995	 0.4519956114	-0.136292
C	 2.275152276	 0.0902441665	 1.0871311037	-0.243206
N	 0.8952520647	-0.4124806993	 1.0891196561	-0.10765
H	 0.6748060401	 2.1730279875	-0.0697784575	 0.114901
H	-0.9559598071	 1.895743325	-0.6951734798	 0.116618
H	-0.6616127359	 1.8488373226	 1.0522010093	 0.125958
H	-0.9486865834	-0.4176972294	 0.1205610299	 0.088754
H	 0.3168236638	-0.1447831201	-2.2794814366	 0.10992
H	 3.6607731775	-1.4896490599	-1.8699806102	 0.099498
H	 2.6635411665	-2.9389322513	-1.7331557362	 0.096916
H	 2.7567497968	-2.1161300594	-3.9137285735	 0.290312
H	 2.2356823428	-2.1577108427	 0.9292047025	 0.08698
H	 2.7302060977	 0.1298455276	 2.0735690082	 0.111751
H	 2.5518474875	 0.9011025189	 0.4180850931	 0.111582
