18
gdb 85018	2.27136	1.60782	1.03814	2.5025	72.75	-0.2442	-0.0351	0.2091	1159.4311	0.146732	-439.160743	-439.15155	-439.150606	-439.195191	33.291	
C	-0.3180547535	 1.5775155845	-0.0698832746	-0.392505
C	-0.0144347695	 0.0802619171	-0.012145525	-0.076818
N	 0.7536411439	-0.4260869231	-1.1370630052	-0.328396
C	 1.9006082392	-1.1146081411	-0.8408350111	 0.413866
O	 2.6915975113	-1.5545587058	-1.6448569443	-0.377072
C	 1.9857938185	-1.2293176912	 0.6852361923	-0.243816
C	 3.3766371314	-0.9817737432	 1.2673008391	-0.392868
C	 0.8958715925	-0.2876147566	 1.1783071378	 0.396297
O	 0.7607464831	 0.1452937539	 2.2919829398	-0.31086
H	 0.6012654936	 2.1539868796	-0.2078644123	 0.129758
H	-1.000167419	 1.8082106095	-0.8935484976	 0.120188
H	-0.7860350212	 1.8870924696	 0.8676603019	 0.149475
H	-0.9590534067	-0.4740011616	 0.1060350892	 0.113343
H	 0.4997366143	-0.2610716187	-2.0991417124	 0.25384
H	 1.6616712976	-2.25026742	 0.9386000637	 0.138496
H	 3.7151362018	 0.0359333223	 1.0523305204	 0.12705
H	 3.3634038516	-1.1138734816	 2.3512663928	 0.135955
H	 4.0906041511	-1.6781481435	 0.8227465156	 0.144067
