16
gdb 5613	3.17427	1.78119	1.15735	2.3398	66.56	-0.2123	0.0309	0.2432	999.2266	0.130214	-383.763905	-383.755812	-383.754867	-383.796797	28.934	
C	-0.0251450562	 1.5195674694	 0.0156716852	-0.506916
C	-0.009979523	 0.0224835864	 0.0160038048	 0.141703
C	-0.0257101171	-0.8050856159	-1.062515993	-0.092962
O	-0.0039879677	-2.1096071243	-0.681774192	-0.152014
C	 0.0265131433	-2.1178358705	 0.6783284354	-0.088546
C	 0.0245991313	-0.8501371209	 1.1651997789	 0.166666
C	 0.0525742646	-0.4435017932	 2.6025252207	-0.193203
O	 0.0863148783	-1.6132452774	 3.4040975456	-0.416883
H	 0.8630830072	 1.9346262119	 0.5072047439	 0.127147
H	-0.0520832063	 1.9126089551	-1.0043228987	 0.126365
H	-0.8985575591	 1.9168207791	 0.5468620532	 0.127106
H	-0.0513251911	-0.6237785591	-2.124979292	 0.13019
H	 0.0470809031	-3.0834213166	 1.1521235704	 0.147097
H	 0.9321437569	 0.1956124528	 2.7934218863	 0.096942
H	-0.8335428859	 0.172619404	 2.8343269319	 0.096992
H	 0.1006604816	-1.3436138106	 4.3264606696	 0.290315
