20
gdb 109731	1.9365	1.53953	1.02991	4.1046	75.65	-0.2316	0.0342	0.2658	1218.7322	0.170604	-440.303153	-440.293365	-440.292421	-440.337906	36.381	
C	-0.3201693904	 1.5780866343	 0.2195347776	-0.40262
C	-0.1149758361	 0.0887478934	 0.0336690826	-0.034174
C	 0.4393164654	-0.5336828534	-1.2371559858	-0.032001
C	 0.8215449094	 0.2833242562	-2.4417041791	-0.127829
O	 1.8749861135	-0.4125556774	-3.1261868545	-0.410804
C	 1.2575548473	-0.5319184046	 0.0403196051	-0.130757
C	 2.4955874294	 0.3151645781	 0.2703592205	 0.355756
N	 3.4386603348	 0.2310754022	-0.7093597226	-0.520468
O	 2.6509184113	 0.9618489354	 1.2906784501	-0.377836
H	 0.4714401005	 2.1737159302	-0.2400013743	 0.125037
H	-1.2786772089	 1.8978593686	-0.2039342156	 0.107028
H	-0.3166109905	 1.8244578086	 1.2851551537	 0.138922
H	-0.8851045074	-0.5073675755	 0.5166317376	 0.088443
H	 0.0199272626	-1.4979568077	-1.5125657653	 0.091644
H	-0.046328646	 0.3951531925	-3.1073088823	 0.103469
H	 1.153604974	 1.2882566468	-2.1538361138	 0.101335
H	 2.0693909129	 0.0631252097	-3.9402935368	 0.291195
H	 1.3486337873	-1.4914142787	 0.5429459311	 0.113782
H	 3.2166511457	-0.170695696	-1.6115623215	 0.270296
H	 4.2664912853	 0.7955324676	-0.6024725768	 0.249582
