17
gdb 35688	2.51911	1.44697	1.08197	0.1308	73.67	-0.2551	0.0094	0.2646	1125.4213	0.13446	-421.737415	-421.729002	-421.728058	-421.771321	30.653	
C	-0.1602915439	-1.162022233	-0.3215556353	-0.44385
C	-0.0982885343	 0.0091925187	-0.0570079463	 0.339033
C	-0.0057314376	 1.4273191456	 0.2426828897	-0.116326
O	 0.0367264185	 1.7200373281	 1.6609024105	-0.281405
C	 1.3093952053	 2.3888049343	 1.5371298263	-0.133429
C	 1.3700666262	 2.1234525785	 0.0269236784	 0.206113
C	 2.5602346219	 1.4497358384	-0.6716089616	-0.134456
O	 2.6617671973	 2.5211399055	-1.6338603691	-0.272651
C	 1.5670037866	 3.2287982831	-1.0230392307	-0.128981
H	-0.2287241798	-2.1978006882	-0.5478185707	 0.207025
H	-0.8350700608	 1.9646329359	-0.2389083397	 0.105911
H	 1.2488363672	 3.4458802126	 1.8263437721	 0.107051
H	 2.0896139711	 1.8974416694	 2.1320908875	 0.112162
H	 3.4658979599	 1.3592520059	-0.0574772918	 0.10262
H	 2.3426356308	 0.4839340591	-1.1420040671	 0.120157
H	 0.7287386423	 3.3775475236	-1.7166621071	 0.106656
H	 1.8745529493	 4.2032772026	-0.620006235	 0.104371
