16
gdb 128073	4.44449	1.05287	0.85582	4.2413	73.91	-0.2387	-0.0124	0.2263	1302.3549	0.126626	-434.125002	-434.116588	-434.115644	-434.158856	29.908	
C	-0.0170311834	 1.4018352799	 0.1023480723	-0.334033
N	 0.1032991214	-0.0330229357	-0.0321466276	-0.324035
C	 0.5603163731	-0.6281378011	-1.1667066238	 0.338317
O	 0.9101731987	-0.0261112109	-2.1707185324	-0.392844
C	 0.6077445868	-2.1149292583	-1.1017895323	 0.266935
N	 0.2304136253	-2.7932853852	-0.0152493917	-0.314714
N	 0.4168846739	-4.0788345097	-0.3444875431	-0.180372
C	 0.9003005224	-4.2422183226	-1.6041895414	-0.019287
C	 1.0384575249	-2.9794071434	-2.1320287394	-0.266337
H	 0.6078936302	 1.7819153011	 0.918910544	 0.12282
H	 0.3161377828	 1.8466891939	-0.8363037466	 0.167959
H	-1.0546038507	 1.7014866683	 0.2906214459	 0.122818
H	-0.1555223584	-0.6391594223	 0.7307284883	 0.259445
H	 0.1970843045	-4.7933337012	 0.3293615037	 0.279474
H	 1.1003157684	-5.2216721167	-2.0085349939	 0.141542
H	 1.39279749	-2.693940376	-3.1073156222	 0.132311
