16
gdb 19573	4.00838	1.99685	1.85915	2.932	63.46	-0.2535	0.0811	0.3345	775.4962	0.131773	-383.68498	-383.678793	-383.677849	-383.715054	24.872	
C	 0.0249353447	 1.5626071242	 0.0106058495	-0.304645
O	 1.1790712689	 0.6902121438	-0.0058902132	-0.288776
C	-0.0962420054	 0.1113099417	 0.0034494611	 0.536514
C	-0.549723508	-0.97105181	 0.9884345515	-0.02829
C	-2.0815433739	-0.9761117209	 0.8014624336	-0.222354
C	-2.0971346524	-0.9670765188	-0.7674278488	-0.222353
C	-0.5693329724	-0.9596831933	-0.9847343582	-0.02829
O	-0.1180337272	-1.9547768111	-0.0082379468	-0.302037
H	-0.1190751627	 2.1198602373	 0.9351468301	 0.120363
H	-0.1373573868	 2.1304561331	-0.9044104857	 0.120363
H	-0.1145973865	-1.1068055059	 1.9773948879	 0.092969
H	-2.5279506155	-1.879329204	 1.2212298731	 0.114431
H	-2.5685543809	-0.1038132245	 1.2455592636	 0.102353
H	-2.5518937184	-1.8654544605	-1.1886139078	 0.114431
H	-2.592781045	-0.0897810933	-1.1916843419	 0.102353
H	-0.1539611184	-1.0839829078	-1.9836448382	 0.092969
