25
gdb 120544	5.31986	0.57054	0.55411	1.4215	90.3	-0.261	0.081	0.342	2102.18	0.228044	-389.485361	-389.474596	-389.473652	-389.522057	39.273	
C	 0.054934859	 1.4603137144	 0.2287021896	-0.377424
C	-0.1235317493	-0.0379435435	-0.0384857213	-0.194628
C	 0.6755558979	-0.5344196457	-1.2362434653	 0.065622
C	 2.2289531359	-0.5815638763	-1.1496207148	-0.257229
C	 2.2005480835	-1.9247849331	-1.9302857917	 0.041426
C	 3.1732623521	-3.0246854745	-1.5291401963	-0.196403
C	 2.9683092702	-4.318528936	-2.3073992227	-0.070307
O	 3.9227666978	-5.2651789369	-1.8482388611	-0.421246
C	 0.6959090264	-2.0557593031	-1.5518922357	-0.259099
H	 1.1052500953	 1.7064171218	 0.4193636272	 0.11833
H	-0.2726141142	 2.0568058592	-0.6302750133	 0.111916
H	-0.5250381629	 1.7836066364	 1.0987734715	 0.110052
H	 0.1754549857	-0.6082783764	 0.8516518349	 0.08864
H	-1.1877215116	-0.2589022944	-0.1978751897	 0.091735
H	 0.3758787655	 0.0239004478	-2.1322267581	 0.063915
H	 2.7993708033	 0.24679756	-1.5776459193	 0.092368
H	 2.5610770174	-0.7341910575	-0.1156583253	 0.093311
H	 2.2911674211	-1.7245002049	-3.0053215937	 0.065101
H	 4.2067577215	-2.688315639	-1.6819898149	 0.101741
H	 3.0701149826	-3.2421379378	-0.4583489683	 0.097668
H	 1.9401665087	-4.6860616811	-2.1564480448	 0.086991
H	 3.0877248602	-4.1244878311	-3.3865436228	 0.080932
H	 3.7827082817	-6.0882243266	-2.3251533006	 0.283627
H	 0.5704234595	-2.6493492087	-0.6381759315	 0.09287
H	 0.0010188025	-2.4322577629	-2.307391712	 0.09009
