18
gdb 82432	2.35957	1.81008	1.22942	3.9731	71.13	-0.2519	-0.0203	0.2316	1032.826	0.149418	-439.089484	-439.081628	-439.080683	-439.122077	30.414	
O	 0.0678271425	 1.2946019971	 0.3834648744	-0.44413
C	-0.0294630597	-0.0638606209	 0.0583846151	 0.067801
C	-1.4720332876	-0.534080522	 0.0364975719	-0.065602
N	-2.2072941182	-0.1748886675	-1.180949353	-0.321486
C	-1.9161908939	-1.593481311	-0.9144074443	-0.037874
C	-0.9688570338	-2.2559343932	-1.9048777737	-0.211691
C	 0.5008681662	-1.7774784899	-1.7828839559	-0.305182
C	 0.6137423767	-0.348506022	-1.3003860828	 0.364952
O	 1.1873342388	 0.5373563224	-1.8928983038	-0.332507
H	 0.5208471759	 1.7001233921	-0.373981435	 0.292905
H	 0.519522776	-0.6688040333	 0.8029467384	 0.084458
H	-1.9876317041	-0.4529463609	 0.9908314989	 0.094239
H	-3.1750710642	 0.0512613144	-0.9720285828	 0.236758
H	-2.7461300506	-2.2159931477	-0.5865431141	 0.090153
H	-0.9989898619	-3.3421217654	-1.7742532114	 0.107001
H	-1.3368527979	-2.046206396	-2.9142582465	 0.128321
H	 1.0125432898	-2.3983123074	-1.0354326479	 0.124316
H	 1.0382661261	-1.8803935588	-2.7275122274	 0.12757
