18
gdb 43731	4.69868	1.04901	1.00064	4.1336	79.	-0.2388	0.0066	0.2455	1214.9897	0.148836	-401.988053	-401.980209	-401.979265	-402.020912	30.385	
O	-0.373580274	-0.0732398443	 0.0177390706	-0.364239
C	-0.2296412864	 1.1196322271	 0.011158668	 0.441387
C	-1.1546021582	 2.3582962412	 0.0340113913	-0.464594
C	 0.163233797	 3.2146745371	 0.0095547325	 0.366961
C	 0.4213181821	 4.1505107986	-1.1988614829	-0.285899
C	 0.3460408091	 5.5934784353	-0.6424042367	-0.262557
C	 0.4974609099	 5.3932876831	 0.8471585323	-0.068192
C	 0.4031702222	 4.1119022826	 1.1956441181	-0.131228
N	 0.8814298834	 1.9262142698	-0.0102062018	-0.373388
H	-1.7982346277	 2.4675534662	-0.8405864326	 0.128624
H	-1.7507808663	 2.4484602443	 0.9441356553	 0.12963
H	 1.4303666399	 3.9527718749	-1.5748722169	 0.109067
H	-0.2696638524	 3.966910612	-2.0250807045	 0.106112
H	 1.1163845031	 6.2490689134	-1.0634523028	 0.109078
H	-0.617183727	 6.0695250984	-0.8703468291	 0.114834
H	 0.6285785194	 6.2201989458	 1.5365184334	 0.101074
H	 0.4436927907	 3.7167984342	 2.2049081209	 0.10021
H	 1.8680008051	 1.7083211702	 0.0073532349	 0.24312
