14
gdb 57745	8.16462	0.45719	0.44087	5.2084	100.75	-0.2707	-0.081	0.1897	2315.1427	0.099218	-399.513719	-399.504234	-399.50329	-399.548979	32.72	
C	 0.0194030883	 1.5557362415	 0.0067552501	-0.394493
C	 0.0080223777	 0.0203934006	 0.0500036487	-0.066705
O	 0.7309461251	-0.4948235878	 1.158913782	-0.399901
C	-1.361650382	-0.5040983262	 0.014755215	 0.35455
C	-2.4983420746	-0.9277773925	 0.0222186087	-0.332555
C	-3.7639518406	-1.3998170981	 0.0285499955	-0.195973
C	-4.9040479287	-1.822546108	 0.0353007006	 0.447959
C	-6.1788373964	-2.2934554797	 0.0436550204	 0.079299
N	-7.2705412445	-2.6961756536	 0.0509784635	-0.325497
H	 1.0549040227	 1.9038189032	 0.0288651864	 0.139068
H	-0.4646569441	 1.9253114776	-0.9013884346	 0.137698
H	-0.5124332062	 1.9688568904	 0.8697001779	 0.127019
H	 0.5411423539	-0.362354268	-0.8290829738	 0.138903
H	 0.2792973395	-0.2166800494	 1.9642754997	 0.290627
