22
gdb 121739	6.11072	0.54516	0.52435	4.2066	82.39	-0.2425	0.0307	0.2732	2197.1151	0.19163	-441.505356	-441.493896	-441.492952	-441.544828	38.582	
C	 0.0567202462	 1.403114399	 0.2431006205	-0.377205
C	-0.1407047708	-0.1114360698	 0.1427550503	-0.168528
C	-1.5033160925	-0.4802146302	-0.4557433065	-0.147557
N	-1.7069048546	-1.9144446012	-0.5752243604	-0.327485
C	-2.5887386185	-2.6051381202	 0.2068861451	 0.391688
O	-3.3253690882	-2.0831540148	 1.0177617158	-0.354589
C	-2.5291547719	-4.1247074751	 0.0056426996	-0.166773
O	-3.8082445073	-4.6574650634	 0.190092471	-0.207013
C	-3.820736097	-6.0646496461	 0.1686098947	-0.222403
H	 1.0332345483	 1.6478797329	 0.6708419583	 0.116691
H	-0.0036635845	 1.8787402297	-0.7422450832	 0.11515
H	-0.709948147	 1.8597241817	 0.8781617206	 0.124894
H	 0.6576298853	-0.5496849492	-0.4713110208	 0.087479
H	-0.0573841764	-0.5707191889	 1.1345869633	 0.111857
H	-2.312621322	-0.1127115856	 0.179842042	 0.150693
H	-1.6173930164	-0.013311243	-1.4429216393	 0.102165
H	-1.1439583503	-2.4243179057	-1.2366091359	 0.240668
H	-2.1308328721	-4.3762840816	-0.9938682261	 0.080925
H	-1.8164410701	-4.5315754222	 0.7461153742	 0.109336
H	-4.8530815009	-6.3809457921	 0.3336429397	 0.13368
H	-3.475998895	-6.4658243186	-0.7983144062	 0.10091
H	-3.1852820743	-6.4899691255	 0.9618079232	 0.105418
