18
gdb 13690	5.04994	0.84363	0.79893	3.4714	69.51	-0.2445	-0.017	0.2275	1416.7939	0.151684	-384.928799	-384.919869	-384.918924	-384.963471	31.486	
O	-0.0866631308	 1.4769573172	 0.4448943231	-0.416561
C	-0.0057357093	 0.101395628	 0.2050002003	 0.088228
C	-0.6906012174	-0.8610090092	 1.1438473586	-0.32629
C	-1.2673329739	-0.5848317015	-0.2336713485	-0.011188
C	-2.5588965091	 0.1914470222	-0.3791627061	-0.216415
C	-3.8034645123	-0.6877182227	-0.1518578783	-0.266119
C	-5.0831985975	 0.0738062789	-0.4046927407	 0.160401
O	-5.9866027836	 0.1950831316	 0.3820620437	-0.239071
H	 0.4581847127	 1.6775056792	 1.2127543971	 0.290124
H	 0.9257792682	-0.2228326162	-0.259166172	 0.087563
H	-0.229271374	-1.8215302733	 1.3459002439	 0.112479
H	-1.2129514913	-0.4204602305	 1.9875980251	 0.116658
H	-1.1350329404	-1.3757798138	-0.9682463262	 0.086472
H	-2.559080324	 1.0285610143	 0.3248348225	 0.125105
H	-2.6048239415	 0.6355837803	-1.3823929516	 0.104836
H	-3.7800461372	-1.5329480361	-0.8560934953	 0.113943
H	-3.8288561661	-1.0946463748	 0.86280312	 0.121981
H	-5.1401990425	 0.5457963165	-1.4150826356	 0.067854
