18
gdb 79716	2.84686	1.58858	1.26332	1.1757	74.98	-0.2316	-0.0322	0.1993	1036.2387	0.147555	-401.891132	-401.883374	-401.88243	-401.923366	30.127	
C	 0.0428967076	 1.6007177441	 0.0185035277	-0.417165
C	-0.057927694	 0.072048634	-0.0202983971	-0.12876
C	 0.664722727	-0.5896608014	-1.2307513651	 0.011491
C	 1.7327794344	-1.2245905519	-0.3009121233	-0.173719
C	 1.2173226185	-2.5895078319	-0.8073137366	-0.02396
C	-0.2311005046	-2.7890853131	-0.6313576915	-0.25818
N	 0.2220245166	-1.9485098411	-1.7595430514	-0.149422
C	 0.9867949122	-0.6137800828	 0.9042121267	 0.392787
O	 1.1695068137	-0.5991729094	 2.086229742	-0.303209
H	 1.064878793	 1.939473756	-0.1829304094	 0.123519
H	-0.6153577325	 2.050748891	-0.7306511993	 0.128207
H	-0.2439035998	 1.9740105438	 1.0055289178	 0.139166
H	-1.0936276586	-0.2361459821	 0.153286242	 0.106918
H	 0.9225690953	 0.0671333979	-2.059907743	 0.090435
H	 2.805400452	-1.0568523868	-0.38774017	 0.098695
H	 1.8802115063	-3.3844744579	-1.1328883056	 0.106222
H	-0.6403666939	-3.7337052887	-0.9770716883	 0.128168
H	-0.7667654332	-2.3647456396	 0.2116690444	 0.128808
