17
gdb 19699	4.69222	1.69865	1.5653	2.7512	66.64	-0.2343	0.0652	0.2996	852.5988	0.143777	-363.771065	-363.764342	-363.763397	-363.802106	26.414	
O	 0.0653472954	 1.3877257873	 0.1769372464	-0.425175
C	 0.1393047342	-0.0018777503	-0.0966227038	-0.090318
C	-1.2435571727	-0.6238527411	-0.0307473959	 0.0432
C	-1.5310466527	-2.1152383167	-0.0041826776	-0.122681
C	-1.4756159178	-2.5479937627	 1.4769515399	-0.082752
C	-1.1403380854	-1.2986386319	 2.2657598012	-0.185335
N	-1.9925944213	-0.4918002239	 1.2991076293	-0.204667
C	-2.673612765	-1.834593624	 0.9266940914	-0.021214
H	-0.5644195685	 1.4946649789	 0.9002736508	 0.295483
H	 0.5391285643	-0.1099066291	-1.1119003027	 0.105973
H	 0.8446721915	-0.5097836024	 0.5780685189	 0.088511
H	-1.8776720676	-0.1284792015	-0.7740971952	 0.091691
H	-1.4868796559	-2.8449458259	-0.8031568883	 0.092961
H	-1.3857380792	-3.5921095417	 1.7491750402	 0.094188
H	-1.6301214993	-1.2818040606	 3.242757256	 0.11252
H	-0.1021962937	-0.9712184364	 2.3761754804	 0.104302
H	-3.7376877264	-2.019229788	 0.9058534988	 0.103312
