16
gdb 80142	2.46068	1.94242	1.51034	2.6663	72.31	-0.2153	-0.0158	0.1995	912.8482	0.12695	-434.049858	-434.042434	-434.04149	-434.081574	28.784	
O	-0.2587313182	 1.4580402116	 0.2023827179	-0.410945
C	-0.0583474162	 0.0875453305	 0.0971230512	 0.074931
C	-0.4090791207	-0.7553702746	 1.3219368473	-0.053182
N	-0.6481672903	-0.1249901685	 2.5620275555	-0.22256
C	-1.7271866872	 0.4592098286	 2.8649943739	 0.094867
N	-2.914378344	 0.6272197227	 2.1471057644	-0.310431
C	-3.1950513863	 0.4400839753	 0.8014849858	 0.083439
N	-2.549232844	-0.1591080814	-0.1132508847	-0.254437
C	-1.3020829088	-0.7989734183	 0.0909305881	-0.082024
H	-0.9821963447	 1.6917120319	-0.3921809461	 0.295867
H	 0.805590391	-0.1958061711	-0.5028118612	 0.096186
H	 0.2186413345	-1.6367026672	 1.432165911	 0.103088
H	-1.8031602046	 0.920009518	 3.8507552959	 0.11417
H	-3.6153673118	 1.1610099684	 2.640201235	 0.251981
H	-4.1487448289	 0.8969110414	 0.5315234264	 0.115243
H	-1.2132218599	-1.7074180371	-0.4996277106	 0.103808
