18
gdb 110331	2.38849	1.39028	1.21748	2.4901	72.68	-0.2414	-0.0262	0.2151	1108.9337	0.146367	-439.043469	-439.034561	-439.033617	-439.07707	32.828	
C	-0.1297797086	 2.072280351	-2.4620414219	-0.44378
C	-0.35700029	 0.7497192608	-1.7496656427	-0.047572
N	 0.4090502587	-0.4823834595	-2.177784218	-0.149428
C	 1.783834143	-0.421743234	-1.6603770314	-0.031591
C	 2.6648280565	 0.7964981437	-1.4540469233	-0.110188
O	 3.1095081261	 1.3868417533	-2.6641105588	-0.401056
C	 0.6978053943	-0.8166646378	-0.7158127498	-0.180836
C	-0.034170533	 0.4292475353	-0.2713701322	 0.365888
O	-0.3859116248	 0.8667440299	 0.7848049139	-0.307767
H	 0.9254905347	 2.2964084002	-2.6168497889	 0.163012
H	-0.6097156478	 2.0517276652	-3.4452545284	 0.129228
H	-0.589067217	 2.8796251088	-1.8823135739	 0.135095
H	-1.4170481522	 0.474379519	-1.8448587646	 0.124306
H	 2.3446036956	-1.274478145	-2.0471215855	 0.104063
H	 2.1514744138	 1.5882050713	-0.9048843299	 0.132721
H	 3.5145949411	 0.478585885	-0.8289619421	 0.107571
H	 3.4961588807	 0.6996294966	-3.2170324324	 0.288985
H	 0.6077950388	-1.8111766237	-0.2935023703	 0.12135
