18
gdb 72524	2.25112	1.82515	1.66027	1.5264	70.2	-0.2218	-0.0233	0.1986	937.5007	0.150011	-439.097924	-439.09029	-439.089346	-439.129736	30.259	
O	-0.0075038094	 1.3827017919	-0.0449908993	-0.503173
C	-0.0280030514	-0.0093357355	-0.0582197706	 0.315389
C	-1.4131550112	-0.6865661188	 0.0687023993	-0.264092
C	-1.0588648593	-2.1471905271	 0.5294798334	-0.20956
C	 0.4790311837	-2.1228596888	 0.6719010292	-0.129113
N	 1.0476669302	-2.0685308805	-0.699881564	-0.307606
C	 0.7369559971	-0.6876185712	-1.2196344413	-0.212334
C	 0.6965911365	-0.6806336471	 1.1162957618	 0.370204
O	 1.2689602653	-0.1318668739	 2.0201082303	-0.347729
H	 0.4862224562	 1.6371629115	 0.7495549904	 0.287124
H	-2.0092528605	-0.1591306025	 0.8181183307	 0.11234
H	-1.961381919	-0.661979708	-0.8761846012	 0.112699
H	-1.5366307222	-2.3885475898	 1.482586287	 0.112311
H	-1.3483182627	-2.9019953412	-0.2041344242	 0.120279
H	 0.919732584	-2.9176900393	 1.269944437	 0.089765
H	 2.0536865203	-2.1905926381	-0.6493751957	 0.230233
H	 0.1394229588	-0.7489739956	-2.1355450214	 0.110735
H	 1.6460748537	-0.1198887159	-1.4397497414	 0.112528
