18
gdb 96844	3.33139	1.18056	0.91598	0.2453	79.59	-0.2339	0.0096	0.2435	1286.3594	0.147784	-435.306397	-435.297158	-435.296214	-435.341187	33.047	
C	-0.088693091	 1.445392908	 0.0268853148	-0.331698
N	-0.1011326562	-0.0065685308	 0.069951965	-0.371147
C	 0.5300101284	-0.6033085507	 0.9779092777	 0.509279
N	 0.5817733724	-1.9886788198	 1.1114550443	-0.409111
C	 1.3460195229	-2.3996067592	 2.1800413524	 0.385189
N	 1.6509435391	-3.552123907	 2.6154633507	-0.554044
C	 1.8198465794	-1.1028671685	 2.8244035896	 0.042013
C	 3.3323681776	-0.9844144999	 2.9150946785	-0.393483
O	 1.2719205422	-0.0622401759	 1.9864618196	-0.265522
H	 0.4620684882	 1.9155088641	 0.8496196602	 0.123106
H	 0.3529724517	 1.7777216201	-0.9199739359	 0.123315
H	-1.1199586571	 1.8162159522	 0.0421727772	 0.123444
H	 0.1141347576	-2.5872762828	 0.4514681048	 0.27007
H	 1.2403940611	-4.2981426846	 2.0529351381	 0.213419
H	 1.3680407872	-1.0027074195	 3.8179224757	 0.124104
H	 3.7836944776	-1.0516643422	 1.9212696729	 0.128967
H	 3.6147955065	-0.0305663125	 3.3674494744	 0.129837
H	 3.7153467624	-1.803273361	 3.5287736001	 0.152264
