17
gdb 73188	2.46823	1.43227	1.31065	1.8489	73.84	-0.2475	0.0336	0.2811	1056.0022	0.134008	-421.7504	-421.741917	-421.740973	-421.78356	32.248	
O	 0.3708836181	 1.288746142	-0.0556651019	-0.473659
C	 0.0282386298	-0.0581753768	-0.0211893261	 0.333986
C	 0.0757679976	-0.8741288042	-1.3311375264	-0.139952
O	-1.3111553607	-1.2674190807	-1.1804547046	-0.286638
C	-1.445749902	-0.5299094235	 0.0480685926	 0.071796
C	-1.1328622038	-1.3947311265	 1.2929964111	-0.255667
C	 0.3494358306	-0.8619218956	 1.2909019647	-0.244492
C	 1.4431713562	-1.8085416749	 1.2825295939	 0.312351
C	 2.3510745608	-2.597676398	 1.2440336822	-0.461896
H	 1.3302252672	 1.3606768813	-0.1255832512	 0.28785
H	 0.2206273428	-0.2434923074	-2.216521405	 0.104693
H	 0.7562914311	-1.7319788691	-1.360421371	 0.114546
H	-2.3142353839	 0.1314091828	 0.0603661538	 0.088328
H	-1.6834392019	-1.1313321838	 2.1979804781	 0.112808
H	-1.2341705173	-2.4623797513	 1.0967951159	 0.125683
H	 0.4836895837	-0.1332877862	 2.0965632606	 0.111578
H	 3.1505175118	-3.2963434683	 1.2252352933	 0.198685
