15
gdb 125679	3.24908	1.13191	0.87146	3.6893	69.17	-0.2498	-0.0043	0.2455	1258.0558	0.112504	-453.98464	-453.976139	-453.975195	-454.019078	29.565	
C	-0.1326469193	 1.4513412752	 0.218508248	-0.492692
C	-0.0232797405	-0.0348041472	 0.1199194584	 0.269008
N	-0.1825947481	-0.6791204663	-1.034315216	-0.27449
N	-0.0088455602	-1.9827057577	-0.7404773176	-0.182971
C	 0.2640831817	-2.2094077262	 0.5662419818	-0.118098
C	 0.2576097107	-0.9610013318	 1.1520328716	 0.178621
O	 0.5273715851	-0.6362889802	 2.4634523527	-0.216675
C	-0.3209289866	-1.1110150754	 3.4178268043	 0.152458
O	-0.1329756183	-0.9317775108	 4.5793881238	-0.257192
H	 0.8012942379	 1.8950279284	 0.5785776988	 0.142238
H	-0.3628770014	 1.8692047462	-0.7632316396	 0.145066
H	-0.9208284445	 1.7490501651	 0.9181565243	 0.134297
H	-0.0910736734	-2.6620540736	-1.4770812039	 0.282391
H	 0.4512545388	-3.1928877225	 0.9653898984	 0.148282
H	-1.1696833417	-1.664402413	 2.9760540248	 0.089759
