16
gdb 35004	2.84719	1.31601	1.09261	3.8703	81.85	-0.2568	0.0034	0.2602	1125.4387	0.123949	-363.56794	-363.559817	-363.558873	-363.600585	30.911	
C	 0.0317506344	-1.2102564148	 0.0405219159	-0.380144
C	 0.0306371697	-0.0071116925	 0.0155797537	 0.153813
C	 0.0163685021	 1.4140622294	-0.0398071724	 0.18927
C	-0.7270872762	 2.2741622456	-1.0819562233	-0.297395
C	 0.4625221869	 3.2884568678	-1.0750021102	-0.241984
C	 1.1760905077	 2.4269560889	-0.0305121538	-0.11077
C	 0.3218882554	 2.253675442	 1.2036092527	-0.23046
C	-0.5810040827	 3.2711988416	 1.6715119349	 0.306433
N	-1.3144858603	 4.0933058894	 2.0250648691	-0.348312
H	 0.0319908415	-2.2718777812	 0.0668733471	 0.194457
H	-0.8268257352	 1.7534873755	-2.0346371241	 0.125653
H	-1.7045448354	 2.648783819	-0.7698562885	 0.130252
H	 0.9925659186	 3.3090589532	-2.0281878549	 0.118519
H	 0.2354647212	 4.312904337	-0.7700184264	 0.131123
H	 2.2387782624	 2.2249455688	 0.0238092058	 0.11461
H	 0.7946530599	 1.6828014704	 1.9959534545	 0.144935
