16
gdb 36003	2.07331	1.35986	0.85939	5.133	75.07	-0.2773	0.0171	0.2944	1285.4875	0.122023	-400.699154	-400.689959	-400.689014	-400.73408	32.496	
C	 0.242850183	-1.2896715948	 0.0031033792	-0.426282
C	 0.0966436721	-0.097154365	-0.0073069098	 0.309593
C	-0.0609385459	 1.3541673241	-0.057267052	-0.226787
C	 1.3390261617	 2.0320503156	 0.0054889196	-0.352986
C	 1.2862912953	 3.483257744	 0.1696299525	 0.274549
N	 1.274257511	 4.6281191481	 0.3222743974	-0.302065
C	-0.8309286435	 1.7543443807	-1.3102905521	 0.094456
C	-2.2915177786	 1.8681301375	-1.3027089267	-0.17594
O	-1.4557586365	 3.0300431398	-1.2880361605	-0.219676
H	 0.3594227267	-2.3453885017	 0.0263358457	 0.206905
H	-0.6414002935	 1.6911321752	 0.8098835754	 0.134418
H	 1.9020846505	 1.6100508207	 0.843656976	 0.165868
H	 1.900937907	 1.7927906234	-0.9039658874	 0.1614
H	-0.3314281712	 1.5029382196	-2.2473848703	 0.107606
H	-2.8498079576	 1.7046449624	-2.2223272616	 0.12549
H	-2.8400680306	 1.6755928504	-0.3819187652	 0.123452
