18
gdb 106020	2.67324	1.58418	1.22564	2.8081	75.85	-0.2437	-0.0109	0.2328	1073.3423	0.14782	-401.91657	-401.908541	-401.907596	-401.949557	30.299	
C	 0.3217769785	 1.2813179679	 0.485875378	-0.386016
C	-0.272987426	 0.1087756961	-0.307374432	-0.310118
C	 0.662155389	-0.3739168616	-1.3730507512	 0.198323
C	 0.7192586522	 0.1577517433	-2.7789109289	-0.065681
C	 2.006440736	-0.2745172428	-3.4680557449	-0.254866
C	 1.7721453426	-1.5962199039	-2.7090991405	-0.13905
N	 0.2451012236	-1.238827853	-2.5783931674	-0.196197
C	 1.8791879271	-1.230799011	-1.2282995333	 0.423011
O	 2.4986402241	-1.6513087135	-0.2917006445	-0.340978
H	 1.2612716044	 0.9879138772	 0.9631266622	 0.143091
H	 0.5255682086	 2.1382325657	-0.164469002	 0.117006
H	-0.3687251646	 1.6076250221	 1.2685486546	 0.119725
H	-0.4931383003	-0.7243267476	 0.3696412231	 0.123498
H	-1.2231173593	 0.3995066455	-0.7700356544	 0.11337
H	 0.0305570415	 0.9408352653	-3.0803822909	 0.107117
H	 1.8445814386	-0.3937123172	-4.5424279252	 0.123276
H	 2.9373389966	 0.2708263288	-3.2869638859	 0.115824
H	 2.0804650574	-2.5681214113	-3.0850536869	 0.108665
