16
gdb 44063	3.23861	1.70208	1.51806	3.6918	71.04	-0.25	0.0183	0.2683	904.9442	0.12551	-437.777755	-437.771321	-437.770377	-437.808313	26.748	
N	 0.0398496943	 1.2041144181	 0.0105956808	-0.576574
C	-0.0453765028	-0.0515443432	 0.024391643	 0.470442
O	 0.9745259149	-0.9645476303	 0.1168696081	-0.279343
C	 0.2766112591	-2.2643080814	 0.0825983316	 0.317855
C	 1.0527269419	-3.0538947184	-0.997993818	-0.171762
O	 0.2735668443	-2.3127203438	-2.0174161674	-0.307073
C	-0.7408936186	-2.0962592307	-0.9893817582	 0.133658
C	-1.2552300138	-0.9273359962	-0.049788789	-0.215521
C	-0.858840136	-2.0009737621	 1.1148928424	-0.33146
H	 1.0164607764	 1.4991573927	 0.0678071097	 0.225627
H	 2.1216380755	-2.8512147787	-1.0755563756	 0.139819
H	 0.8343042176	-4.1255043343	-1.0409961144	 0.119059
H	-1.4969109116	-2.8841020692	-1.0532294492	 0.100662
H	-2.2322227249	-0.4575601206	-0.1200130534	 0.109682
H	-1.5875588256	-2.8052324754	 1.2111952619	 0.128923
H	-0.5859294008	-1.5827851565	 2.0847693677	 0.136007
