22
gdb 12281	2.85668	1.46216	1.24859	1.3875	77.46	-0.2486	0.0635	0.3121	1120.3605	0.199564	-350.200931	-350.191569	-350.190625	-350.234692	34.996	
C	 0.3097200517	 1.2792537148	 0.3917575546	-0.384435
C	 0.2671534183	-0.2202534812	 0.0817258337	-0.19859
C	 0.6066516858	-0.5349578361	-1.3761561643	-0.004177
C	 2.1174128671	-0.4561850741	-1.7588859248	-0.252706
C	 2.1915036146	-2.0112354217	-1.8525986529	-0.008976
C	 2.937229182	-2.7045619707	-0.7154346761	-0.415665
C	 0.6303298372	-2.0506373687	-1.7629476254	 0.115482
O	 0.0010877163	-2.9956344179	-0.9295444392	-0.425936
H	 1.2999865971	 1.7010661057	 0.1890751487	 0.118334
H	-0.4136361996	 1.8264478029	-0.2227381239	 0.116409
H	 0.0730267515	 1.4761161924	 1.4420656617	 0.111394
H	 0.9611479406	-0.7413156165	 0.7561808837	 0.085499
H	-0.7316534014	-0.6150861665	 0.3053250474	 0.106715
H	-0.0503748043	 0.0623518446	-2.0181603272	 0.063029
H	 2.3021612943	 0.0478327486	-2.7104087211	 0.097636
H	 2.7701808352	-0.0044564681	-1.0048517481	 0.092606
H	 2.5776330208	-2.3870643211	-2.8052388526	 0.067538
H	 2.6382483115	-2.3281907233	 0.2702761803	 0.107299
H	 2.7609281543	-3.7849667962	-0.7289266248	 0.125113
H	 4.015668596	-2.5366059745	-0.8041906272	 0.117607
H	 0.1858566294	-2.2087495033	-2.7495281523	 0.083931
H	 0.3584148918	-2.9036166593	-0.0408342001	 0.281893
