20
gdb 94369	2.88249	1.43997	1.24078	0.8763	78.41	-0.2296	0.0705	0.3001	1099.0794	0.171165	-403.084734	-403.076503	-403.075559	-403.117783	31.927	
C	-0.4023042564	 1.381476123	 0.0257656174	-0.412033
C	 0.03663337	-0.0719743488	-0.0660219356	-0.095761
C	 1.3702000076	-0.3674467413	-0.7859404304	-0.094987
O	 1.9370811667	-0.9490482931	 0.4093900698	-0.331459
C	 0.7330707701	-0.7058848824	 1.158642059	 0.487891
C	 0.9590421453	-0.0201702328	 2.5507022607	-0.302553
C	 0.3473765031	-1.25897712	 3.2121363002	-0.041487
N	-1.0159036117	-1.3889545777	 2.6403564548	-0.342013
C	 0.1580595674	-1.9207590509	 1.8951722536	-0.143606
H	 0.4114700778	 2.0212884755	 0.3843130189	 0.116952
H	-0.7146845143	 1.7573019776	-0.9548664977	 0.112543
H	-1.2466039006	 1.4892469105	 0.7132808506	 0.133407
H	-0.7909456156	-0.6923193288	-0.4208922312	 0.081355
H	 1.3323203873	-1.0878339014	-1.6118863254	 0.098427
H	 1.9319341456	 0.5180139773	-1.1110437057	 0.096824
H	 2.0335576336	 0.071682734	 2.7252263345	 0.117229
H	 0.4576010133	 0.9305405551	 2.7467309128	 0.10245
H	 0.5868954823	-1.6876070304	 4.1771325724	 0.093865
H	-1.4606563995	-2.187179374	 3.093835912	 0.229287
H	 0.224209028	-2.9613397614	 1.6012571494	 0.093669
