17
gdb 81949	2.43221	1.80107	1.2055	3.3704	67.2	-0.2607	-0.0335	0.2272	1029.9627	0.134927	-458.969855	-458.96162	-458.960676	-459.002612	31.023	
C	 0.2629320309	 1.6225181649	 0.0250907103	-0.397491
C	 0.1151423299	 0.1009669248	 0.0245460161	-0.133633
C	 0.6986544118	-0.613612196	-1.1857571861	 0.030671
O	 2.132536409	-0.5922148019	-1.1798875678	-0.251792
C	 1.4730467175	-1.8010912405	-0.7807061659	 0.00974
C	 1.3663128906	-1.9688406184	 0.718945714	 0.04695
O	 2.5361387542	-2.3575164466	 1.3787671438	-0.436001
C	 0.8867267554	-0.5762533367	 1.1619110615	 0.343821
O	 1.1808987915	-0.1010216147	 2.228733891	-0.323109
H	 1.3019999692	 1.8983799095	-0.1731664075	 0.14397
H	-0.3706680355	 2.0787703982	-0.7406402735	 0.117102
H	-0.0172460483	 2.028633229	 0.9999606005	 0.13941
H	-0.9453599384	-0.175299166	 0.1285534753	 0.108481
H	 0.2287558727	-0.5303379293	-2.1620935099	 0.104735
H	 1.6248166356	-2.6578219386	-1.4303311225	 0.11091
H	 0.5432223913	-2.6835425887	 0.9179601531	 0.090165
H	 2.6111218325	-1.773172299	 2.1480019774	 0.296071
