23
gdb 111971	3.19901	1.06731	0.88323	1.2945	87.07	-0.2308	0.0283	0.259	1396.0214	0.205691	-388.299397	-388.289715	-388.288771	-388.333474	37.318	
C	-0.2998628436	 1.5458702879	-0.0331018878	-0.411056
C	 0.0567795288	 0.0560887412	-0.0055941194	-0.011961
C	 0.9018888089	-0.4185042834	-1.1710391566	-0.079496
C	 1.7442346378	-1.3834331815	-0.8102229864	-0.071416
C	 1.6053821234	-1.7141806968	 0.6600770632	-0.005812
C	 2.9080648209	-2.1215559179	 1.3428530725	-0.109944
O	 3.3131701038	-3.356329699	 0.762815559	-0.424904
C	 0.8746365264	-0.4562993255	 1.2280990158	-0.039933
C	 1.839874131	 0.6004499569	 1.7847554475	-0.393843
H	 0.5907277739	 2.1802670114	-0.0669561859	 0.118358
H	-0.9010308468	 1.7741285616	-0.9197502142	 0.110401
H	-0.887845834	 1.8337916121	 0.8450552846	 0.110862
H	-0.8939591461	-0.5015790364	-0.0276180537	 0.077771
H	 0.7746670925	-0.031586056	-2.1770756911	 0.08418
H	 2.4206298294	-1.9259531902	-1.4598132597	 0.099283
H	 0.9386671852	-2.5856469783	 0.7592276105	 0.086868
H	 3.6781056293	-1.3500106582	 1.1969118918	 0.087711
H	 2.7463846799	-2.2301504547	 2.4279290143	 0.083148
H	 4.1792769761	-3.5828010389	 1.1134828008	 0.285287
H	 0.1931071702	-0.7481551436	 2.0350132498	 0.062408
H	 2.547334151	 0.9453410285	 1.0236407331	 0.120194
H	 1.293606268	 1.4733823797	 2.1527171071	 0.111974
H	 2.4167338138	 0.2047617512	 2.6261377348	 0.10992
