20
gdb 67586	2.29875	2.17597	1.49272	1.8438	81.36	-0.2139	0.0851	0.2989	977.5003	0.171628	-365.97271	-365.964905	-365.96396	-366.004398	31.494	
C	 0.0371641529	 1.5409674726	 0.0298526883	-0.518653
C	-0.0199476443	 0.0456148451	-0.0413907774	 0.273173
C	 1.0353001714	-0.8656878569	-0.6603639279	-0.130962
C	 0.3968460473	-1.9659879104	-1.4821028253	-0.248192
C	-0.8643418908	-2.1297337139	-0.6656733166	-0.097041
N	-0.6161374657	-1.8901073815	 0.7974721335	-0.201231
C	 0.6290940648	-1.0341048046	 0.7833232331	-0.073072
C	-1.2892244465	-0.8461596983	-0.0476528272	 0.293917
C	-2.6918141896	-0.3873015776	 0.2033619471	-0.510591
H	 1.0617081635	 1.8819474369	 0.211060719	 0.12152
H	-0.3033693534	 2.003751691	-0.904426676	 0.119451
H	-0.5874877992	 1.931181236	 0.8412285158	 0.122655
H	 2.008884472	-0.451863325	-0.89406819	 0.08587
H	 0.1795786051	-1.664173178	-2.512826559	 0.103506
H	 1.001739831	-2.879091831	-1.505290954	 0.10709
H	-1.5852664693	-2.912700395	-0.8757345058	 0.089931
H	 1.2835986708	-1.0105678653	 1.6449642605	 0.091124
H	-2.7457865643	 0.2639193023	 1.082744126	 0.123501
H	-3.0872854825	 0.1691338283	-0.6544381518	 0.118075
H	-3.3444366033	-1.2465055349	 0.3837133776	 0.129928
