23
gdb 96186	2.16142	1.7226	1.10562	1.4094	84.7	-0.256	0.0755	0.3315	1174.3626	0.208944	-388.298012	-388.289781	-388.288837	-388.330363	33.638	
O	 0.0122573314	 1.4302832151	-0.1369359349	-0.442505
C	 0.0358846918	 0.0119024833	-0.0074869767	 0.100129
C	 0.8615901682	-0.4534245037	 1.1978566167	-0.225908
C	 0.7135611725	-1.9662617134	 1.4119113536	-0.205598
C	-0.7463307191	-2.3081469606	 1.7379717149	-0.196625
C	-1.7208952826	-1.8739876202	 0.6283889815	-0.0196
C	-3.0507661949	-1.2822790914	 1.1821814987	-0.23213
C	-2.4236027525	 0.1358184175	 1.0681874993	-0.223828
C	-1.412597238	-0.4563322939	 0.0485160059	 0.05023
H	 0.9235854707	 1.7398007493	-0.1639213394	 0.27688
H	 0.4930908528	-0.4383674782	-0.9073975956	 0.055995
H	 1.9142208771	-0.1838794433	 1.0393478458	 0.077125
H	 0.5287903642	 0.0851548103	 2.0944491131	 0.100869
H	 1.0349400441	-2.5010575336	 0.5069929217	 0.091991
H	 1.3709887851	-2.3022077438	 2.221244528	 0.091757
H	-0.8625908979	-3.3811971196	 1.9274565872	 0.091058
H	-1.0084376586	-1.8047016163	 2.6778730093	 0.093686
H	-1.8148788223	-2.6708430241	-0.1158348869	 0.057683
H	-3.8795106512	-1.4124102509	 0.4803102914	 0.096041
H	-3.3733963714	-1.6250027533	 2.1694202543	 0.089881
H	-3.059515075	 0.9521243798	 0.7211416277	 0.09889
H	-1.9427547776	 0.4499911818	 1.9982874091	 0.102403
H	-1.8447944566	-0.3698873009	-0.9538397848	 0.071577
