21
gdb 70723	2.68984	1.54792	1.15326	1.0894	85.31	-0.2272	0.0201	0.2473	1137.1339	0.183738	-387.081063	-387.072743	-387.071799	-387.113703	33.013	
C	-0.1159468932	 1.5152414538	-0.1625780845	-0.462947
C	-0.0402986397	 0.0079071413	 0.0389018999	 0.303632
C	-0.5228812327	-0.518644452	 1.3905935216	-0.316755
C	 0.9470948318	-0.4827940514	 1.0772973588	-0.066365
C	 1.7386051564	-1.7689173467	 0.9479989422	-0.120183
O	 0.9771193998	-2.8669071797	 0.4933181847	-0.233518
C	 0.8804332692	-2.9854167145	-0.9108885002	-0.142743
C	 0.0188218525	-1.9690340364	-1.6081612484	-0.089171
C	-0.3528593312	-0.7533661217	-1.2021525718	-0.101431
H	 0.6171350595	 1.8552278902	-0.9030417724	 0.117919
H	-1.1094688595	 1.8151309356	-0.516184352	 0.116558
H	 0.0792184737	 2.050421555	 0.7714826137	 0.111781
H	-0.9309610844	 0.1939815481	 2.1003196393	 0.104037
H	-0.9928543952	-1.4948491715	 1.3896223498	 0.12847
H	 1.5235926434	 0.3046252992	 1.5597861888	 0.078286
H	 2.6169233509	-1.6168510357	 0.2988930321	 0.088945
H	 2.1113145693	-2.0517163439	 1.9405646258	 0.107195
H	 1.8925441615	-2.9831898439	-1.357794773	 0.097264
H	 0.4667077197	-3.9848622127	-1.0924094098	 0.113653
H	-0.3397973636	-2.3024167399	-2.5811669627	 0.08544
H	-0.9954485779	-0.1983245232	-1.8852318318	 0.079935
