18
gdb 55767	3.77907	1.08364	0.96041	3.7893	72.61	-0.2341	0.0377	0.2718	1240.1978	0.14742	-439.078897	-439.070306	-439.069362	-439.113044	32.254	
N	 0.4954363655	 0.1295321168	 0.6596578718	-0.512374
C	-0.3873310564	 0.2055240158	-0.373715156	 0.385816
O	-0.3431291954	 1.0669729553	-1.2295932949	-0.364055
C	-1.4944868403	-0.8627455274	-0.3513074563	-0.411767
C	-1.0213867942	-2.2383443831	 0.004018207	 0.464114
C	-0.4167336781	-3.2634131255	-0.9038722543	-0.324258
C	-1.6178824327	-3.6292718155	-0.0493998999	-0.193325
C	-1.1676363803	-3.7501245474	 1.3997175355	-0.089429
O	-0.5340682394	-2.43980413	 1.3488960644	-0.330357
H	 1.2528357137	 0.7923697324	 0.6802590397	 0.255835
H	 0.4786324087	-0.6365124233	 1.3157951945	 0.279528
H	-2.2594954995	-0.5408701536	 0.3664943297	 0.129627
H	-1.9474219197	-0.8634897712	-1.3443538417	 0.13488
H	-0.6353728669	-3.1380382934	-1.9596113665	 0.125628
H	 0.5650527033	-3.6725060159	-0.680444945	 0.116391
H	-2.5558034364	-3.9796957408	-0.4577808724	 0.107369
H	-1.9888933339	-3.7467258005	 2.1243020767	 0.115958
H	-0.4540038581	-4.5440081125	 1.6486095577	 0.110418
