20
gdb 61166	2.95418	0.9554	0.87914	5.9062	75.79	-0.2841	0.0326	0.3167	1397.823	0.167131	-440.303478	-440.292612	-440.291668	-440.339215	39.531	
C	-0.0759687599	 1.5481253677	-0.0694814292	-0.43245
C	 0.0103305616	 0.0197170721	 0.0068516404	 0.331366
C	 0.6527851257	-0.4218589509	 1.3303688951	-0.439824
O	-1.2914294502	-0.5607906218	-0.1278929557	-0.466953
C	 0.7876027584	-0.5025495715	-1.2325649257	 0.130102
O	 2.1178691282	-0.0235436934	-1.2622958803	-0.427345
C	 0.7199325801	-2.0397664829	-1.3639039824	-0.394441
C	 1.3130375926	-2.5152739166	-2.6102938993	 0.271641
N	 1.7777193285	-2.8972278694	-3.5967181287	-0.307259
H	 0.9218355098	 1.9904317977	-0.1131853823	 0.140235
H	-0.6298276975	 1.8492689606	-0.9633608728	 0.126414
H	-0.593483659	 1.9502158805	 0.8091171816	 0.103584
H	 0.0832978851	-0.019401636	 2.1748096538	 0.117075
H	 0.6622135848	-1.5107404519	 1.4299186289	 0.124371
H	 1.6763167727	-0.0452018617	 1.4252273069	 0.11957
H	-1.869911672	-0.1594995851	 0.5286239552	 0.283458
H	 0.3059380654	-0.0706520038	-2.1155565431	 0.116587
H	 2.6387774827	-0.5126770537	-0.6164408083	 0.287337
H	 1.2424428631	-2.5185684782	-0.526568227	 0.136927
H	-0.3248627899	-2.3561450218	-1.3095646672	 0.179603
