15
gdb 43547	2.48982	1.51294	1.09631	4.2381	72.18	-0.2732	0.0007	0.2739	1092.3063	0.111128	-420.599438	-420.591351	-420.590407	-420.632314	30.058	
O	 0.0155152707	 0.0687200568	-0.6780908179	-0.335755
C	 0.0322617709	 1.1515682435	-0.1886610724	 0.44226
O	-1.0078917644	 1.8188480779	 0.4299445865	-0.268642
C	-0.1698834083	 3.0105475055	 0.6810001317	-0.134117
C	-0.0573047513	 3.3466265716	 2.0834630015	 0.341803
C	 0.0675275794	 3.6492914704	 3.2394589493	-0.434071
C	 1.0016260757	 2.2723786638	 0.0188036718	 0.11555
C	 2.4445368527	 2.1700888306	 0.4222188697	-0.313605
C	 2.0796288754	 2.7561193607	-0.9104619818	-0.316823
H	-0.5637672517	 3.8492594038	 0.0995546968	 0.128786
H	 0.1630128905	 3.9112447226	 4.2647435564	 0.212345
H	 2.7733548668	 2.8394829917	 1.2097965181	 0.138968
H	 2.8732782939	 1.174667343	 0.4519416259	 0.145373
H	 2.253209107	 2.1651048576	-1.8031396808	 0.145312
H	 2.1721506728	 3.8285687307	-1.0443938747	 0.132614
