19
gdb 60206	2.66873	0.98397	0.83174	2.1747	72.84	-0.2591	-0.0436	0.2156	1427.4884	0.155903	-460.146146	-460.13628	-460.135335	-460.181792	35.208	
C	 0.0432433871	 1.5120384697	-0.310413948	-0.404253
C	 0.3208437367	 0.0105110519	-0.3003357415	 0.135778
O	-0.3002227124	-0.6283093013	 0.816300165	-0.432341
C	-0.0794758571	-0.6615525927	-1.622375632	-0.26497
C	 0.200018194	-2.1433820784	-1.6219679615	 0.077268
O	 0.1699366657	-2.8180892152	-2.8679388202	-0.232757
C	 1.4300003889	-2.7580277144	-2.2075646082	-0.048482
C	 2.5091601847	-1.9240224777	-2.8187731221	 0.142139
O	 2.3385326395	-1.0435502973	-3.6243838174	-0.250667
H	 0.6038165195	 2.0132079525	-1.1054627594	 0.127876
H	-1.0230459515	 1.7084077632	-0.4806533504	 0.109171
H	 0.3245175891	 1.9544224808	 0.6489513099	 0.126161
H	 1.393737683	-0.1513546979	-0.1357337623	 0.091349
H	-1.2384839977	-0.4080759836	 0.7933237306	 0.278087
H	-1.1578888111	-0.5194010039	-1.7842971474	 0.099885
H	 0.434813547	-0.1929835007	-2.465187492	 0.144449
H	-0.2437321539	-2.6976064595	-0.7951186581	 0.113984
H	 1.7758390437	-3.7002092524	-1.7795586514	 0.105169
H	 3.526551935	-2.1768105429	-2.4429675935	 0.082155
