22
gdb 59430	3.07639	1.06116	0.91575	2.2045	83.03	-0.2377	0.0713	0.309	1382.1098	0.193362	-404.313202	-404.303497	-404.302553	-404.348187	36.48	
C	 0.0057265328	 1.4802867389	-0.2784282471	-0.407907
C	 0.0233669333	 0.0279415755	 0.1957226727	 0.145113
O	 0.6771096865	-0.1121746386	 1.457556609	-0.434751
C	-1.366937651	-0.5725817193	 0.2371868702	-0.124512
N	-1.8666738695	-1.1371830376	-1.0360832902	-0.393048
C	-1.605119442	-2.0248126131	 0.0954605533	 0.37144
C	-0.577554736	-3.1626068658	 0.1252925571	-0.287363
C	-1.4445822169	-3.837088555	 1.2308675938	-0.205285
C	-2.6122168433	-2.8613568314	 0.893080159	-0.310653
H	 1.0202758852	 1.8868667472	-0.3067379915	 0.121593
H	-0.4326559431	 1.5508638127	-1.2783947049	 0.131616
H	-0.5942733852	 2.1035176017	 0.397778664	 0.099035
H	 0.6230380305	-0.5682837736	-0.499384592	 0.096182
H	 0.2129212597	 0.4457710842	 2.0912861425	 0.274465
H	-2.0794486791	-0.020813299	 0.8553470207	 0.067253
H	-2.8666454496	-0.9738868542	-1.1319069171	 0.226089
H	-0.5663660704	-3.7277607678	-0.8112081934	 0.104024
H	 0.446032615	-2.8966638484	 0.3961728593	 0.118444
H	-1.6502774077	-4.9025690701	 1.1141118323	 0.099283
H	-1.0412218038	-3.6647574956	 2.2310628825	 0.110033
H	-3.1244791019	-2.3742682347	 1.7277905152	 0.097044
H	-3.3632074935	-3.3262754959	 0.2448412348	 0.101904
