16
gdb 44536	3.48602	1.54201	1.4518	4.2703	68.37	-0.2502	0.0324	0.2827	933.4975	0.125977	-437.860727	-437.854049	-437.853105	-437.892104	26.505	
N	-0.0399097092	 1.2431241034	 0.5882031138	-0.536436
C	-0.0154915806	 0.0916101667	 0.0793276432	 0.420077
C	-1.2391784792	-0.779656837	-0.1746195243	-0.317794
C	-0.702606668	-1.9992258747	-0.9236273853	-0.098227
C	-0.6833634218	-1.9459645728	-2.4647902774	 0.016167
O	-0.1619236859	-0.6650286365	-2.8245228212	-0.229715
C	 0.7716468435	-1.6975305607	-2.5022885026	 0.000976
C	 0.8463237967	-1.7726511584	-0.9622480131	 0.057829
O	 1.1379338218	-0.5671725849	-0.2850571659	-0.234509
H	 0.9032156286	 1.6273035742	 0.6597721207	 0.223102
H	-1.688797523	-1.0496402079	 0.7845139482	 0.134248
H	-1.9782416131	-0.2092179293	-0.7395002593	 0.148187
H	-1.0093164045	-2.9627993931	-0.5171754774	 0.090985
H	-1.3320137254	-2.44158863	-3.177011276	 0.114465
H	 1.5257522219	-1.9382126581	-3.2419587679	 0.113692
H	 1.4762442883	-2.577483251	-0.5787720653	 0.096951
