15
gdb 16325	3.19412	2.05201	1.432	2.5323	62.42	-0.2613	0.0115	0.2728	858.8784	0.118981	-399.760927	-399.75369	-399.752746	-399.792679	27.034	
O	 0.0740790992	 1.3965939991	 0.1275612435	-0.414556
C	 0.0870638089	-0.0141538434	 0.0132317874	-0.173929
C	-1.3158525312	-0.5567283932	 0.0193274793	 0.170509
C	-2.1127733542	-1.0839645289	 1.2163823157	-0.331223
C	-1.9826649858	-1.9162296062	-0.0086681637	 0.024002
O	-2.9501484235	-1.4613029254	-1.0028286294	-0.274715
C	-2.2952405781	-0.2366463373	-1.0591447315	 0.430615
N	-2.4299654107	 0.7489996393	-1.8241713657	-0.578261
H	-0.4789003903	 1.7290496619	-0.5925011312	 0.303265
H	 0.6002446288	-0.3362248528	-0.9065600361	 0.099275
H	 0.6593462886	-0.3984809133	 0.8635389572	 0.10992
H	-1.4879546403	-1.3754842352	 2.0562091563	 0.131179
H	-3.0774147171	-0.660993598	 1.4791726195	 0.136114
H	-1.6013100251	-2.9219913841	-0.1161495277	 0.13222
H	-3.1772075592	 0.6141611576	-2.5061786837	 0.235587
