22
gdb 110445	2.59603	1.37871	1.08953	1.834	85.03	-0.2385	0.0711	0.3096	1228.1548	0.194968	-367.158361	-367.14958	-367.148636	-367.19207	33.653	
C	-1.1621125213	 1.0876377321	 0.530647862	-0.380543
C	 0.2211985019	 0.665672568	 0.0190686734	-0.226378
C	 1.0300353962	-0.0620429595	 1.0908100241	 0.066002
C	 0.8191897719	-1.5189059633	 1.4739056248	-0.073131
C	 1.7951897826	-2.3931451934	 0.7429747605	-0.069475
C	 2.6895605555	-1.5514900771	-0.1517437625	 0.051613
C	 2.4311497847	-1.3229870978	-1.6368449625	-0.438746
C	 2.5137817242	-0.4864678583	 0.9599859348	-0.094409
N	 2.2304533638	-1.650215017	 1.9751097171	-0.162459
H	-1.0778236262	 1.7580605715	 1.3930950574	 0.116338
H	-1.7309572667	 1.6102265882	-0.2443468943	 0.112615
H	-1.7504664235	 0.218490885	 0.8447305864	 0.118221
H	 0.0977334423	 0.0402636674	-0.868720727	 0.101871
H	 0.7776849381	 1.555372106	-0.3040623565	 0.096023
H	 0.9673850864	 0.5166657853	 2.0224858499	 0.084067
H	-0.0052772483	-1.9479121543	 2.0340185488	 0.089351
H	 1.697620112	-3.4740448658	 0.7542817492	 0.088441
H	 3.7079107707	-1.9411165298	-0.0292660329	 0.088989
H	 3.0375230407	-0.4925192959	-2.0152768149	 0.117198
H	 2.7095520481	-2.2156468493	-2.2077184864	 0.116463
H	 1.385918371	-1.1053973439	-1.8610481199	 0.123757
H	 3.310677556	 0.2256910519	 1.1714346887	 0.07419
