18
gdb 32596	2.81163	1.25562	0.93064	1.888	75.44	-0.17	0.0604	0.2304	1271.1128	0.148571	-435.310571	-435.301281	-435.300337	-435.345204	34.213	
C	 0.1454232163	 1.5753785389	 0.1272319751	-0.372292
C	-0.0671463357	 0.070804465	-0.0602918426	-0.160738
N	 0.6470142362	-0.4677932506	-1.2044555294	-0.04379
C	 2.0192535807	-0.7719366542	-1.2832356657	-0.228383
C	 2.2217947084	-1.1893576842	-2.5708249417	 0.282132
N	 3.4058533453	-1.5606043819	-3.2147372555	-0.596122
N	 1.0424637752	-1.15131648	-3.2912742642	-0.425424
C	 0.1525964777	-0.7120475898	-2.4348429425	 0.44128
O	-1.1543867725	-0.5068744436	-2.6912622364	-0.434404
H	 1.2059838495	 1.807407577	 0.2601360845	 0.129116
H	-0.2180840134	 2.1277206562	-0.7438482405	 0.134518
H	-0.3969834685	 1.9270586573	 1.0104695218	 0.117907
H	 0.2600003125	-0.4750851117	 0.8314978929	 0.11637
H	-1.1275254635	-0.1490765009	-0.2056203116	 0.136806
H	 2.6692486813	-0.6653027031	-0.4322975577	 0.107069
H	 4.0661089758	-2.0220190319	-2.6035599743	 0.238892
H	 3.2083684799	-2.1427313294	-4.0185762403	 0.245462
H	-1.2858115152	-0.7609544131	-3.612892812	 0.3116
