14
gdb 131894	2.84886	1.62587	1.03635	6.7047	71.49	-0.2084	-0.052	0.1564	1052.7082	0.102454	-469.96835	-469.96082	-469.959876	-470.000304	28.76	
N	 0.0357918864	 1.3993250554	 0.1484364909	-0.601523
C	-0.0193421781	 0.0375248388	 0.0434583938	 0.33415
C	-1.1255566692	-0.8173812358	 0.0322023897	 0.303802
C	-0.6587725883	-2.1690628437	-0.0099660386	-0.239228
C	 0.6987600326	-2.1094397363	-0.0272952751	-0.068733
N	 1.0782592002	-0.7639454318	 0.003069217	-0.322292
N	-2.4659436043	-0.3876373784	 0.0205255475	 0.336308
O	-3.3523604153	-1.2372752921	-0.0285147327	-0.380252
O	-2.6891306535	 0.8385691539	 0.0562045281	-0.44077
H	 0.7779552479	 1.8654554331	-0.3526811912	 0.254034
H	-0.8853205084	 1.8082916782	 0.0295204164	 0.287418
H	-1.2830694162	-3.0455204475	-0.0332873866	 0.134456
H	 1.4463406929	-2.8836502847	-0.0622480802	 0.135048
H	 2.0256019733	-0.4324077993	 0.065319731	 0.267581
