18
gdb 77316	2.93782	1.25544	0.93411	3.1663	78.31	-0.2424	0.0277	0.2701	1232.8723	0.147594	-401.968906	-401.95997	-401.959026	-402.002553	33.411	
C	-0.0967899238	 1.5624183819	-0.0184942956	-0.406213
C	 0.1006028525	 0.052433411	 0.030957724	-0.104903
C	 0.8254898436	-0.5790080242	-1.1859511024	-0.186027
C	 1.486232348	-1.8519661397	-0.5872668119	-0.185023
N	 1.7362749001	-1.4426899097	 0.7816227702	-0.318878
C	 0.953598796	-0.4088164096	 1.2231286312	 0.40482
O	 0.9331847233	 0.0444570942	 2.3461029262	-0.383593
C	-0.0187069822	-0.8388497317	-2.3397660335	 0.315739
C	-0.7295256976	-1.057116437	-3.2843208172	-0.444163
H	 0.8553648505	 2.0779259958	-0.1836215512	 0.119331
H	-0.7824676403	 1.8416435072	-0.8233084647	 0.123293
H	-0.5042251056	 1.9121572726	 0.933175224	 0.143586
H	-0.8750340509	-0.4388206704	 0.1482133308	 0.112018
H	 1.6331754879	 0.1046319812	-1.479400663	 0.114434
H	 0.8018592816	-2.7087736133	-0.650141001	 0.118884
H	 2.4108174411	-2.1146705437	-1.1088015125	 0.12366
H	 2.2715555601	-1.9908107489	 1.4363318059	 0.253661
H	-1.3533791143	-1.2450132457	-4.1229039992	 0.199376
