14
gdb 1196	8.34619	1.1606	1.04324	3.2208	62.34	-0.2392	0.0298	0.269	1094.28	0.111076	-324.588239	-324.579399	-324.578455	-324.624091	28.741	
C	 0.0454279017	 1.4924037866	-0.0626630634	-0.497559
C	 0.0253356346	 0.0374042603	-0.0411077448	 0.089073
C	-0.0058276903	-1.164484304	-0.0178002372	 0.089153
C	-0.0312240786	-2.6168971836	 0.0048311316	-0.489787
C	-1.4277832517	-3.2114347013	 0.2828380198	 0.422514
N	-1.5321129741	-4.5309210191	-0.064705663	-0.526277
O	-2.3291266662	-2.5969763379	 0.8055108602	-0.335325
H	 0.8020369753	 1.8919778137	 0.621696965	 0.14553
H	 0.2694098034	 1.8751110929	-1.064604392	 0.14438
H	-0.9245007065	 1.9020365391	 0.2398585112	 0.154412
H	 0.3580890443	-3.0239382915	-0.9379772172	 0.12868
H	 0.635679988	-2.9989591969	 0.7908863161	 0.155704
H	-0.8427622992	-4.9913628695	-0.6326459872	 0.257209
H	-2.4300852106	-4.9727382788	 0.0469465209	 0.262293
