11
gdb 132135	3.07023	1.45568	0.98748	2.4825	59.7	-0.2421	-0.0798	0.1623	1036.3489	0.06407	-537.937882	-537.930876	-537.929932	-537.969905	25.624	
F	 0.107105369	 0.0618162616	 0.002333665	-0.007777
C	-0.0330167044	 1.3595135751	 0.0107480794	 0.296013
C	-1.2228604092	 1.9986827641	 0.0306635767	-0.021465
F	-2.3859758519	 1.3489510312	 0.0438057709	-0.050677
C	-1.1686725569	 3.4228223407	 0.0369715375	-0.048849
N	-0.0732886577	 4.1122671333	 0.0249806962	-0.263084
C	 1.1376462383	 3.4666591216	 0.0046813106	 0.450088
N	 2.2582708395	 4.0377240295	-0.0081300605	-0.504499
O	 1.1132719042	 2.0044946319	-0.0022035715	-0.244184
H	-2.1131790973	 3.9657688386	 0.0529642552	 0.153409
H	 3.0231286064	 3.3666275724	-0.0221942295	 0.241025
