21
gdb 63187	2.83566	1.33389	1.24085	0.7226	78.02	-0.2375	0.0772	0.3147	1125.9855	0.183365	-424.216947	-424.208372	-424.207428	-424.249471	34.106	
C	-0.2109160984	 1.5732546814	 0.1044909208	-0.472093
C	-0.0320704883	 0.076507307	 0.0022775283	 0.399938
O	-1.1512866627	-0.6574412168	 0.4485131801	-0.470985
C	 0.6369017824	-0.5915657174	-1.1706451572	-0.083901
C	 1.2929289158	 0.2033223769	-2.296451602	-0.24244
C	 2.7424808887	 0.5581334901	-1.9502972999	-0.067685
O	 2.8407979094	 1.123867766	-0.6519267308	-0.240852
C	 2.6096397503	 0.161159453	 0.3670992585	-0.112915
C	 1.3057625189	-0.599003498	 0.2033892985	-0.130903
H	 0.6660461562	 2.1114532107	-0.257435382	 0.14441
H	-1.0911209467	 1.8893433247	-0.4653842009	 0.120431
H	-0.3703136689	 1.8651218258	 1.1505195202	 0.102015
H	-1.2497502343	-0.4937238967	 1.3933165021	 0.275177
H	 0.1583424357	-1.520452411	-1.4608054736	 0.096625
H	 1.2800435089	-0.3841323829	-3.2204393321	 0.100441
H	 0.7340302218	 1.122808447	-2.5036977512	 0.108628
H	 3.3784570488	-0.3407247863	-2.0123691076	 0.087422
H	 3.1442542254	 1.3047130465	-2.6414329807	 0.104756
H	 3.4418949427	-0.563806766	 0.3779893287	 0.091123
H	 2.6417770603	 0.7153839013	 1.3117085119	 0.105248
H	 1.2645526139	-1.538160775	 0.7475903489	 0.085562
