22
gdb 60478	5.51955	0.50325	0.47805	4.8377	84.94	-0.2621	0.0368	0.2989	2283.6099	0.191541	-404.36952	-404.358396	-404.357452	-404.407432	38.493	
C	-0.1901931395	 1.4663380842	-0.0088093949	-0.393652
C	 0.0268815529	-0.0495666821	-0.0231023476	 0.156745
C	 0.9173519668	-0.4907137495	-1.1790969066	-0.387703
O	 0.6635019513	-0.5091106134	 1.1677490163	-0.258602
C	-0.1446037109	-0.5328678712	 2.3188111423	-0.062905
C	 0.6415762713	-1.2308281344	 3.4236113383	-0.19223
C	-0.1608481518	-1.2905453085	 4.7367221402	-0.342973
C	 0.5733790457	-1.9502699554	 5.8137662778	 0.258839
N	 1.1639073489	-2.4738582587	 6.6577231235	-0.302535
H	 0.7680617787	 1.983828166	 0.1030518635	 0.124192
H	-0.6520620506	 1.7927336053	-0.9458737973	 0.117613
H	-0.8471312959	 1.7785718279	 0.8081023377	 0.114909
H	-0.9530628455	-0.5494777222	-0.111805533	 0.064335
H	 1.9003816483	-0.015266471	-1.1028391403	 0.124899
H	 1.0592574081	-1.574275015	-1.1597254119	 0.12194
H	 0.4718242824	-0.2119315894	-2.1384125756	 0.113846
H	-0.4210504436	 0.4840161853	 2.6437939112	 0.089178
H	-1.0871844732	-1.0734671026	 2.1199764207	 0.085246
H	 0.9012007753	-2.2425549632	 3.0983636942	 0.130505
H	 1.5819313279	-0.6959758615	 3.5872822398	 0.132286
H	-0.4258777305	-0.2797894881	 5.0696111021	 0.15315
H	-1.105017116	-1.8272873524	 4.5847548795	 0.152919
