16
gdb 15871	2.55918	2.07977	1.27485	4.4873	66.18	-0.2469	0.0093	0.2562	950.6158	0.129961	-379.901045	-379.892904	-379.89196	-379.93369	29.333	
C	 0.0051523593	 1.4846186913	-0.0123807999	-0.333358
N	-0.0326382692	 0.044649236	 0.1251598783	-0.072397
C	-1.2916252443	-0.6247755578	 0.508056248	-0.212861
C	-0.4602973785	-1.6641755012	 1.3035821686	 0.138373
O	-0.1850670826	-2.8683835567	 0.6559064972	-0.416555
C	 0.6785255893	-0.5788753123	 1.2564611596	-0.183185
C	 2.0431215161	-1.0170405155	 0.9790405016	 0.304559
N	 3.1172273121	-1.3758622096	 0.7485424619	-0.323399
H	 1.0297367041	 1.8089503736	-0.2186168106	 0.140454
H	-0.6209101843	 1.7870657379	-0.8573681389	 0.132821
H	-0.3535152153	 2.0124236025	 0.8906609458	 0.099388
H	-1.9334617223	-0.0151861928	 1.1650648644	 0.095257
H	-1.8869912539	-1.0057619661	-0.3276759511	 0.116321
H	-0.8147359955	-1.9183384296	 2.3020640012	 0.111388
H	 0.1643950633	-2.6736291901	-0.2221857394	 0.298669
H	 0.6746866816	 0.0339059805	 2.1735795535	 0.104525
