23
gdb 52613	2.4858	0.96734	0.84343	0.2251	94.66	-0.2385	0.0667	0.3052	1546.4734	0.202893	-351.125127	-351.114013	-351.113069	-351.162812	40.181	
C	-0.2212481827	 1.5335649764	 0.0282372387	-0.497194
C	-0.0975902816	 0.0824296885	 0.001119166	-0.003324
C	 0.007115493	-1.1174958483	-0.0211926936	 0.138718
C	 0.1305136193	-2.5831537443	-0.0439235985	 0.036128
C	-1.2774209529	-3.2145046858	 0.0814733484	-0.395891
C	 0.7533160007	-3.0101565792	-1.3917467978	-0.420843
C	 0.9613560949	-3.0131396736	 1.1774886002	 0.047298
C	 1.6865041029	-4.3321054702	 1.2701895833	-0.290924
C	 2.4645148592	-3.0377494463	 1.2091498326	-0.276026
H	 0.4078710713	 1.973270418	 0.8103851289	 0.14509
H	 0.0816205403	 1.9780886187	-0.9265256281	 0.14464
H	-1.2541559162	 1.8436072927	 0.2228612446	 0.144401
H	-1.9199321996	-2.9000356755	-0.7459801692	 0.114796
H	-1.2015382488	-4.306623047	 0.0705441336	 0.11168
H	-1.7572505259	-2.9120401006	 1.0165987802	 0.116617
H	 1.7440097568	-2.5725464112	-1.535856924	 0.123192
H	 0.8343528038	-4.099157322	-1.4614924772	 0.112559
H	 0.1188505811	-2.6677213794	-2.2135454196	 0.122159
H	 0.4954746667	-2.6844832993	 2.1028734444	 0.086094
H	 1.6443245484	-4.8718963496	 2.2100341287	 0.108338
H	 1.7188059023	-4.9745915478	 0.3974769389	 0.110987
H	 3.0075730942	-2.824944591	 0.2954218036	 0.112839
H	 2.9612937328	-2.6854636232	 2.1064365259	 0.108661
