12
gdb 128460	4.88778	1.15457	0.93952	4.9361	58.19	-0.3217	-0.0899	0.2318	1144.0567	0.076646	-502.083693	-502.07593	-502.074985	-502.117282	25.626	
C	-0.0542144093	 1.364892259	 0.0771092058	-0.245121
O	 0.0299114865	-0.0712273083	-0.0457264493	-0.219352
C	 0.6463142047	-0.4970823316	-1.1313896658	 0.599333
O	 1.1384320413	 0.1312832535	-2.0158067418	-0.328949
N	 0.6571223238	-1.9420931802	-1.1237879818	-0.001672
N	 0.1321995067	-2.7302129578	-0.1781419872	-0.08337
N	 0.3672484291	-3.928859123	-0.5728905196	-0.068312
N	 1.0385380203	-3.884637602	-1.7643303321	-0.065677
N	 1.2164506606	-2.6594010557	-2.1025230588	-0.071875
H	 0.947760801	 1.7970268286	 0.1083515916	 0.161884
H	-0.6064451164	 1.7809079679	-0.7676651183	 0.161882
H	-0.5830012783	 1.5393480695	 1.0120566273	 0.161231
