17
gdb 55891	2.99916	1.00902	0.80176	2.9956	76.92	-0.2364	0.0356	0.272	1394.3316	0.134958	-417.998693	-417.989322	-417.988378	-418.033889	34.687	
N	-0.0396072164	 1.3176674878	-0.0872457695	-0.570303
C	 0.0525680766	-0.0499549355	 0.1457230893	 0.454144
O	 1.1010579109	-0.6058016968	 0.4141267346	-0.389475
N	-1.148099485	-0.7149973089	 0.0118924386	-0.360626
C	-1.1679753276	-2.1437593663	 0.0267323509	 0.080879
C	-2.0746877845	-2.8845156414	 0.9647398341	-0.305269
C	-2.3988204757	-2.8467557837	-0.5288404632	-0.233793
C	-3.4939871826	-2.0570402846	-1.0056194941	 0.30672
C	-4.3811146928	-1.3527266217	-1.4149839145	-0.454023
H	 0.7792877825	 1.814438159	 0.2293648287	 0.260503
H	-0.9094192532	 1.7726344365	 0.1474206316	 0.24804
H	-1.89543239	-0.2653385424	-0.4987632539	 0.247107
H	-0.2003556691	-2.5776237234	-0.1957658109	 0.135975
H	-1.7406776004	-3.8300142644	 1.3768477588	 0.126121
H	-2.7092605121	-2.2912919339	 1.612329467	 0.129418
H	-2.211152491	-3.7569168509	-1.0898106427	 0.123205
H	-5.1901006396	-0.7653107193	-1.7728721647	 0.201377
