17
gdb 75967	2.2487	1.93023	1.08365	2.7847	72.02	-0.2502	-0.0088	0.2414	1076.7024	0.137733	-455.203762	-455.195554	-455.19461	-455.236837	30.301	
C	-0.1783365749	 1.4318653395	-0.019281464	-0.332027
N	-0.0749158216	-0.0302811946	 0.0020544303	-0.17542
C	 0.0553539841	-0.6692547164	-1.2393017825	 0.464064
N	 0.196332095	 0.0190589484	-2.2942206103	-0.558019
O	 0.041006031	-2.0263968396	-1.2493942048	-0.251762
C	-0.4885846527	-2.7012549062	-0.1035707659	-0.104091
C	 0.1870321838	-2.1794082478	 1.1488764469	-0.326574
C	 0.0390231812	-0.6724546623	 1.2320918622	 0.414509
O	 0.0172216109	-0.0703523118	 2.283394911	-0.358309
H	 0.7391088347	 1.8710619548	-0.4170924596	 0.148824
H	-1.0053202991	 1.7291978106	-0.6652270127	 0.146027
H	-0.3433907449	 1.7592441991	 1.0046025191	 0.16067
H	 0.2333287419	-0.5989837587	-3.102637757	 0.228973
H	-1.575318153	-2.5512745367	-0.0588708105	 0.123455
H	-0.2926046	-3.7613504929	-0.2732746316	 0.131394
H	-0.2372877751	-2.609227175	 2.0583980989	 0.142748
H	 1.2555996188	-2.4243083207	 1.1282111106	 0.145539
