17
gdb 98309	2.99791	1.11579	0.95089	2.8121	65.42	-0.2626	0.0001	0.2627	1270.6982	0.133593	-496.100159	-496.090662	-496.089718	-496.135465	32.883	
C	-0.0966641301	 1.3195851197	-0.1514760582	-0.245614
O	-0.0880624125	-0.1099401819	 0.0041654502	-0.231192
C	-1.2866553784	-0.698238709	 0.0049549868	 0.439455
O	-2.3425000295	-0.1202954896	-0.0880325429	-0.371895
C	-1.1874540207	-2.2192004329	 0.1185404162	-0.020867
O	-2.4723096028	-2.7527527127	 0.2703142541	-0.428157
C	-0.4603149067	-2.7749240082	-1.1041191113	 0.058855
C	-0.9434234014	-3.9789333859	-1.7840466234	-0.168224
O	-1.1640104106	-2.6758336053	-2.3383582302	-0.238603
H	 0.9495540236	 1.6230453852	-0.142532428	 0.141164
H	-0.5705667776	 1.5956808906	-1.0960088567	 0.152322
H	-0.6406156013	 1.7886437272	 0.6715755918	 0.147911
H	-0.5795150669	-2.4558704581	 1.0041278015	 0.109295
H	-3.0835408799	-2.0402575171	 0.0291243046	 0.301471
H	 0.597573879	-2.5167098601	-1.1548480873	 0.103875
H	-0.2384298049	-4.6036484409	-2.3302381631	 0.113404
H	-1.8338511692	-4.4696979709	-1.401987834	 0.1368
