20
gdb 119959	2.14217	1.27622	1.10041	4.7413	77.82	-0.2383	0.0244	0.2627	1249.605	0.168633	-440.265982	-440.255837	-440.254893	-440.301545	35.301	
C	-0.8263143464	 1.0922554958	-0.7503087232	-0.233042
O	-1.2212971684	-0.2597580521	-0.6673773002	-0.217272
C	-0.9315239884	-0.8450867255	 0.577207122	-0.098105
C	-1.2973859587	-2.3178121173	 0.6000483577	-0.058028
C	-2.5905314898	-2.9073450774	 0.0759413042	-0.000638
C	-3.6984085958	-2.1002739825	-0.5610526016	-0.419616
N	-1.3244376048	-3.1334330302	-0.5915445221	-0.072013
C	-0.9735191512	-2.8294898931	-1.8895836304	 0.164903
O	-1.6642865414	-3.0493182834	-2.8561037933	-0.315193
H	-1.0767201577	 1.4407320098	-1.7540997603	 0.141167
H	-1.3533984707	 1.7142745706	-0.0111911452	 0.111522
H	 0.2566196248	 1.2057654212	-0.5896437251	 0.111865
H	 0.1451476076	-0.7460298669	 0.7998411684	 0.10106
H	-1.4711750213	-0.3306514719	 1.3917364386	 0.103937
H	-0.8588684578	-2.8119716373	 1.4685481892	 0.099485
H	-2.9427675028	-3.7891554807	 0.6127288082	 0.097652
H	-3.3217319505	-1.183344491	-1.0112632876	 0.151968
H	-4.1888418538	-2.691861969	-1.3387880185	 0.144577
H	-4.4453239456	-1.8434058366	 0.1978561643	 0.110968
H	 0.0612563928	-2.4451542924	-1.956419795	 0.074805
