17
gdb 67408	2.81818	1.52748	1.28994	3.3174	78.28	-0.2464	0.0142	0.2606	1028.3929	0.136959	-380.818323	-380.810636	-380.809692	-380.85037	29.586	
C	-0.1238558427	 1.5056239147	-0.0083931763	-0.525784
C	-0.0344367878	 0.022573954	-0.0359076004	 0.329053
C	-0.0036851269	-1.0434548519	-1.081583988	-0.169887
C	 1.2557665665	-1.6011253114	-0.448937717	-0.185812
N	 0.9029533315	-0.8633088646	 0.8302758895	-0.200819
C	-0.3226720297	-1.6198430461	 1.2819416881	-0.234971
C	-1.066615652	-1.0911445536	 0.06121335	 0.156831
C	-2.462273119	-1.0279377284	-0.2035535057	 0.164527
N	-3.6028987619	-0.9739580895	-0.3983121591	-0.352081
H	 0.822494808	 1.9593856303	-0.3204092228	 0.139437
H	-0.9106431475	 1.848244943	-0.6876148935	 0.145569
H	-0.3588526675	 1.8671653218	 0.9977218947	 0.141978
H	-0.3207608058	-0.9846150302	-2.1155124217	 0.115483
H	 1.3780097151	-2.6826125292	-0.3331495847	 0.111062
H	 2.1624023188	-1.1686074553	-0.8789065853	 0.122635
H	-0.1808061444	-2.699007165	 1.3964682585	 0.114451
H	-0.7023079248	-1.1917620785	 2.2118550437	 0.128328
