21
gdb 83791	2.59389	1.65783	1.42045	1.2752	81.36	-0.2323	0.0793	0.3116	1036.4821	0.184893	-387.062552	-387.054764	-387.05382	-387.094434	31.718	
C	-0.0915656337	 1.5348657713	-0.0876024732	-0.419195
C	 0.0180637794	 0.0261052031	-0.0025672198	-0.047267
C	 1.3086237746	-0.7071702434	-0.2749882716	 0.057427
O	 2.4645639786	 0.0750987982	-0.3724292286	-0.256212
C	 3.4744503504	-0.3045288781	 0.5636501681	-0.093765
C	 3.0258678472	-0.1049471933	 1.999388631	-0.032802
C	 2.1944814699	 1.1041226143	 2.3284427555	-0.306359
C	 1.5370644517	-0.2580573103	 2.2469070775	-0.031444
C	 0.6986304962	-0.7707348963	 1.1040309329	-0.077638
H	 0.8895346247	 2.0006056516	-0.192295894	 0.140354
H	-0.6786824901	 1.8133331498	-0.9688535575	 0.112228
H	-0.5884025062	 1.9609938731	 0.7897926786	 0.117433
H	-0.85614584	-0.4920411168	-0.3894185088	 0.083097
H	 1.3147199534	-1.5817507802	-0.9254802037	 0.079174
H	 3.7639240217	-1.355315032	 0.4014726468	 0.089199
H	 4.3399473872	 0.3228648704	 0.3267697429	 0.108789
H	 3.7179272624	-0.4812279543	 2.7466824826	 0.081118
H	 2.2933904306	 1.5362579978	 3.3184860488	 0.106392
H	 2.0212413173	 1.8256048773	 1.5425830401	 0.123772
H	 1.2512472804	-0.6758940063	 3.2066684769	 0.083233
H	 0.1900598543	-1.697525076	 1.3535132854	 0.082465
