14
gdb 1842	5.95949	2.07939	1.57208	5.9497	63.01	-0.2157	-0.008	0.2078	748.7227	0.114878	-324.628594	-324.622	-324.621055	-324.65901	24.681	
N	 0.0530402102	 1.3467289222	 0.1087170679	-0.575271
C	-0.0370467877	-0.006957213	 0.0345778887	 0.403206
C	-1.1549880173	-0.775108588	 0.0215322237	-0.326185
C	-0.8092631188	-2.1895863997	-0.0141187685	 0.401838
O	-1.5566885156	-3.1456123567	-0.0367579398	-0.366382
C	 0.7334383674	-2.2867887174	-0.0234118706	-0.327299
C	 1.2325968635	-0.832303294	 0.0092089559	-0.311754
H	 0.9269313794	 1.7915772857	-0.1167852953	 0.259782
H	-0.7715255197	 1.9052316433	-0.0381913695	 0.264453
H	-2.1770123949	-0.4192678298	 0.0342420036	 0.087928
H	 1.0650282516	-2.8691460569	 0.8406282183	 0.126973
H	 1.0573926963	-2.8290387606	-0.9159637252	 0.125813
H	 1.8393068879	-0.5708018397	-0.866960852	 0.114426
H	 1.8463504776	-0.6101288553	 0.8901814429	 0.122473
