21
gdb 79135	2.40606	1.89028	1.4578	1.43	81.28	-0.1969	0.08	0.2769	1008.8579	0.18426	-383.214994	-383.20703	-383.206086	-383.246884	31.952	
C	-0.2216837047	 1.6415550158	 0.4318317949	-0.422479
C	 0.1279390088	 0.1824181928	 0.1865213029	 0.080656
C	 0.5898037388	-0.4112235495	-1.1906843505	-0.071881
C	 1.5867679637	-1.2326789025	-0.3458898852	-0.045597
C	 2.5468594494	-0.1635335546	-0.0287980451	-0.034607
C	 2.5498171231	 0.8726717868	-1.1427664171	-0.200881
N	 1.4426959843	 0.4410789394	-2.0039699312	-0.035047
C	 0.8277873557	 1.4481315562	-2.8421570349	-0.32971
N	 1.3592221284	-0.3667568596	 0.8651357292	-0.174336
H	 0.5493019319	 2.3357998295	 0.0946459448	 0.122678
H	-1.1582981635	 1.902737766	-0.0728851813	 0.115181
H	-0.3648185482	 1.8023828587	 1.5061758738	 0.126233
H	-0.6952094349	-0.4379669221	 0.5628189298	 0.078851
H	-0.1665842418	-0.9138865012	-1.7961206733	 0.069891
H	 1.7374390769	-2.304019402	-0.3030858394	 0.092955
H	 3.4750976673	-0.3814418436	 0.4868797449	 0.098457
H	 2.4304501236	 1.8978198739	-0.7576875849	 0.093284
H	 3.5050698165	 0.8495875388	-1.6869886629	 0.101599
H	 1.5789617825	 1.8598867942	-3.5259326669	 0.119129
H	 0.0454567052	 0.9852014825	-3.4528848721	 0.117522
H	 0.3758697069	 2.2944672204	-2.2966509857	 0.098101
