20
gdb 93287	2.07856	1.85398	1.26782	2.9923	79.95	-0.2494	0.0293	0.2787	1082.0854	0.172189	-403.166249	-403.15784	-403.156896	-403.199132	32.636	
C	 0.6187219667	 1.5790154045	-0.2380643754	-0.39414
C	 0.0213906298	 0.2037867222	 0.0865988474	-0.111243
C	 0.3370977202	-0.8346669963	-1.0065874132	-0.097804
O	 1.5847177433	-1.443681287	-0.6239667135	-0.249758
C	 1.7716549294	-1.3167942756	 0.7239446633	 0.36862
N	 2.7170253885	-1.8430052649	 1.3774103081	-0.564599
C	 0.6821513263	-0.466797907	 1.2873857424	 0.274697
C	 0.8371744681	 0.1439237743	 2.6524425073	-0.315875
C	-0.0952897763	-1.0175586157	 2.4714802097	-0.309912
H	 1.695009899	 1.5048524267	-0.4261199502	 0.132509
H	 0.1479021039	 2.0077059055	-1.1288695701	 0.11365
H	 0.4728739612	 2.2788789888	 0.5897548234	 0.120353
H	-1.0603613032	 0.2964883635	 0.2215595709	 0.080116
H	-0.4330392922	-1.6137054613	-1.0634589429	 0.110102
H	 0.4736387234	-0.3987143443	-1.999265662	 0.115818
H	 3.3105417736	-2.4069408375	 0.7684142317	 0.220565
H	 1.7826804608	-0.0392885931	 3.1500402225	 0.146095
H	 0.4064401361	 1.1262370527	 2.814906425	 0.112249
H	-1.1641643403	-0.8311388233	 2.4957433013	 0.112491
H	 0.2171270116	-1.9828043621	 2.8529479641	 0.136065
