18
gdb 42980	2.7805	1.6972	1.28052	2.3913	76.31	-0.2404	-0.0216	0.2188	1013.4412	0.149013	-401.937711	-401.930257	-401.929312	-401.969625	29.483	
O	 0.0666255594	 0.1223098504	 0.3948774407	-0.350036
C	 0.0249929463	 1.3010591823	 0.1320951415	 0.378119
C	-1.1960463984	 2.1150759579	-0.1718124873	-0.144649
C	-1.3500291025	 3.3275631543	 0.6934649523	-0.24244
N	-0.7933416566	 3.4591028915	-0.6431320218	-0.100254
C	 0.6947345274	 3.5055454695	-0.6507998454	-0.263299
C	 1.2019366626	 2.2313565731	 0.0152936506	 0.204905
C	 2.2595467394	 2.1698063648	 1.1087727718	-0.297265
C	 2.5584733945	 1.6210281101	-0.2473930426	-0.305091
H	-2.0575661637	 1.6350032819	-0.6218822934	 0.116409
H	-2.3439053793	 3.7446984343	 0.8251666961	 0.13045
H	-0.6906773112	 3.4296011754	 1.5530904129	 0.125841
H	 1.0104609129	 3.5521666283	-1.6984419201	 0.118947
H	 1.0292346231	 4.4240690089	-0.1580888202	 0.113659
H	 2.7147807053	 3.110116925	 1.4023853966	 0.119374
H	 2.0870934696	 1.4653814201	 1.9155855264	 0.135124
H	 2.5737119172	 0.5421959743	-0.3620881289	 0.140726
H	 3.230099084	 2.1734059277	-0.8962736195	 0.119482
