20
gdb 87787	4.328	0.95054	0.90058	1.4407	80.42	-0.2407	0.0636	0.3043	1366.2896	0.169714	-403.091776	-403.083035	-403.082091	-403.125694	33.487	
C	 0.2298524486	 1.47925875	-0.4043653163	-0.392389
C	 0.1366619249	 0.0076122104	-0.0856394783	-0.071585
N	 1.4109294198	-0.693953404	 0.1958971604	-0.378887
C	 0.4164383716	-0.5406015568	 1.2583386806	 0.341249
C	 0.7329167203	 0.182187072	 2.5804703187	-0.374455
C	 0.1780589209	-1.0508023904	 3.3081785981	 0.449456
C	 0.6436129066	-1.6941811185	 4.5360153614	-0.260904
O	-0.607604595	-0.991255786	 4.4828056962	-0.268614
C	-0.2973608274	-1.6905953478	 1.9946559772	-0.40103
H	 0.989099026	 1.9609535785	 0.2174823181	 0.127839
H	 0.506262602	 1.6345437424	-1.4527203315	 0.120944
H	-0.7297295711	 1.978784712	-0.2306241085	 0.115623
H	-0.6013533318	-0.5414038093	-0.6711919181	 0.080263
H	 1.3821606996	-1.6403140627	-0.1775377805	 0.225623
H	 1.7871064808	 0.4157829373	 2.7468691153	 0.115932
H	 0.1296717039	 1.0784977819	 2.7551991083	 0.116002
H	 0.566274586	-2.7755133692	 4.646351348	 0.113797
H	 1.4199117036	-1.2200560056	 5.1356950383	 0.11645
H	-1.3870018007	-1.6816276911	 1.8915563771	 0.119166
H	 0.0713148512	-2.700440793	 1.7876272256	 0.105518
