22
gdb 115309	2.47912	1.33666	0.99298	3.4592	83.57	-0.2335	0.0346	0.2681	1295.3496	0.195137	-404.408746	-404.39901	-404.398066	-404.443585	35.363	
C	-0.3028738487	 1.4060646599	 0.1145368729	-0.385478
C	-0.0966892174	-0.0943779298	-0.1104994743	-0.181224
C	 0.8616443693	-0.4266409204	-1.2757134341	-0.105566
C	 1.1512385023	-1.9337201014	-1.428715183	-0.249408
C	 0.1758586914	-2.4126387157	-2.5252188837	-0.165269
N	-0.106535488	-1.2024988287	-3.2729398869	-0.060377
C	-0.8570671072	-1.2095748034	-4.5051844726	-0.34478
C	 0.2332315513	-0.0451464926	-2.6224816986	 0.409468
O	 0.0314463771	 1.0789212994	-3.0434965852	-0.403987
H	 0.6427522194	 1.8927314074	 0.3782837834	 0.111456
H	-0.6812091049	 1.8902151912	-0.7881085223	 0.152965
H	-1.0086446899	 1.5822142845	 0.9323391471	 0.104266
H	 0.3103185335	-0.5524319164	 0.7997598343	 0.09427
H	-1.0648336313	-0.5820400699	-0.2887624878	 0.096214
H	 1.780493863	 0.1529616996	-1.144761523	 0.094552
H	 2.1803768502	-2.0876902905	-1.7650537128	 0.111315
H	 1.0219686369	-2.4884227786	-0.4962149669	 0.10517
H	 0.6188899473	-3.177636041	-3.1739449748	 0.107557
H	-0.747130661	-2.8405636196	-2.1044362135	 0.103052
H	-1.8592241903	-1.6356204795	-4.3618947705	 0.119662
H	-0.952212642	-0.1750063977	-4.8393940404	 0.164704
H	-0.3431038909	-1.7964241467	-5.2760592673	 0.121438
