12
gdb 48232	2.78198	1.3781	0.92158	1.4482	64.99	-0.2769	-0.0851	0.1919	1140.5352	0.074198	-472.639595	-472.630779	-472.629835	-472.675766	29.638	
O	-0.3441876004	 0.0293441824	 0.0070186763	-0.269588
C	-0.1765203124	 1.2158358075	 0.0107746289	 0.175372
N	 1.0888310417	 1.8574446508	 0.0016668907	-0.229776
C	 1.102659106	 3.2798750259	 0.0084290337	 0.188968
O	 0.1029670668	 3.9457321758	 0.0213783619	-0.291307
C	 2.3513147	 1.1926994634	-0.0136564325	 0.333873
O	 3.3784691472	 1.8330409056	-0.019015302	-0.315056
C	 2.3612694746	-0.2455857972	-0.0225856102	 0.222004
C	 2.5661309793	-1.4301851708	-0.0318921007	-0.355547
H	-0.978239769	 1.9663943369	 0.0218229096	 0.153928
H	 2.1255413501	 3.6738769663	 0.0003659283	 0.161502
H	 2.6995103861	-2.4850767565	-0.0391422539	 0.225629
