17
gdb 78739	4.62958	1.11362	1.02564	2.6884	74.01	-0.2486	-0.0236	0.225	1151.7795	0.13569	-421.7802	-421.772559	-421.771615	-421.812293	29.683	
O	 0.1611789295	 1.2941018081	 0.1719811403	-0.442187
C	 0.0757851676	-0.0965209732	-0.0212840894	 0.16377
C	-1.3600221901	-0.62148179	-0.1291399616	-0.164562
C	-1.3280504409	-0.52385671	-1.6243572345	-0.15149
C	 0.2546074095	-0.5788540659	-1.4939701368	-0.11226
C	 0.1767645558	-2.1222961048	-1.3895446863	-0.29868
C	-1.278229458	-1.9150441521	-0.9784055733	 0.263424
C	-2.3714428584	-2.8904835589	-0.9779264168	 0.049744
O	-2.2304564281	-4.0703230344	-1.1990963405	-0.267427
H	-0.4668411919	 1.7171878573	-0.4261309599	 0.281679
H	 0.7399730082	-0.54286425	 0.7250068938	 0.092474
H	-2.1895917622	-0.4521055088	 0.546718718	 0.103495
H	-2.0243707104	-0.1430903035	-2.3576736017	 0.109125
H	 0.9712639871	-0.0760727452	-2.1397939414	 0.084933
H	 0.2351751931	-2.6186154572	-2.3606867169	 0.118939
H	 0.8563926491	-2.6122748399	-0.6846997956	 0.105294
H	-3.3773160599	-2.4574688915	-0.7646509074	 0.063728
