18
gdb 109478	2.17782	1.58807	0.96002	2.2422	72.93	-0.2462	-0.0364	0.2097	1208.6976	0.147492	-439.155501	-439.146586	-439.145642	-439.189898	32.366	
C	 0.1407295385	 1.6144147643	 0.1635953377	-0.395825
C	-0.0328603468	 0.0975558143	 0.0535961423	-0.178566
C	 0.5552107255	-0.4886267123	-1.2416448014	-0.249533
C	 0.6797169244	-2.0090911274	-1.2322657367	 0.389237
O	 1.0765499433	-2.6954346053	-0.3295370696	-0.300834
C	 0.1815371444	-2.5469164672	-2.5835727948	-0.273706
N	-0.3591040703	-1.3647057855	-3.2163303956	-0.322919
C	-0.2392740855	-0.1904457154	-2.5179005906	 0.419119
O	-0.6899830047	 0.8778112131	-2.8706651827	-0.372662
H	 1.2024632963	 1.885700828	 0.1814156993	 0.11097
H	-0.323705913	 2.1192580924	-0.6858630698	 0.155711
H	-0.3137428302	 1.9873373106	 1.0864686999	 0.111896
H	 0.4567693706	-0.411185293	 0.8908292661	 0.122438
H	-1.0968503479	-0.1621480084	 0.1086539008	 0.106345
H	 1.5689133407	-0.0846746251	-1.3843042903	 0.1359
H	 1.018400025	-2.992147362	-3.1388409979	 0.140792
H	-0.5656443105	-3.3325002046	-2.417881749	 0.143977
H	-0.8575588499	-1.3765598366	-4.0923575479	 0.257659
