22
gdb 113223	3.22314	0.99907	0.86127	2.4142	82.54	-0.2406	0.0872	0.3278	1446.4801	0.192802	-404.312715	-404.302709	-404.301765	-404.347962	36.76	
C	-0.1337012837	 1.4588773496	-0.3978543016	-0.373569
C	-0.0398957113	 0.1181320478	 0.3421519013	-0.221311
C	-1.3625962672	-0.6094913863	 0.3486236234	 0.034974
O	-1.7909365232	-1.2132674634	-0.8878015459	-0.302816
C	-1.558645178	-2.0691957876	 0.2446034156	 0.336754
C	-0.4080233272	-3.0447043288	 0.1155484661	-0.466236
C	-2.8137725728	-2.6832538842	 0.8103978284	-0.046334
C	-4.1450821066	-2.0998897235	 0.5344221494	-0.245969
N	-3.7473006231	-3.3710622323	-0.1032021091	-0.329873
H	 0.8274365737	 1.9809300739	-0.3889469551	 0.114899
H	-0.4280640606	 1.3020442489	-1.4397577337	 0.134675
H	-0.8769222615	 2.1168470777	 0.0654080239	 0.116297
H	 0.7326158174	-0.5033743808	-0.1185173136	 0.105099
H	 0.2634630794	 0.2858540919	 1.3838951228	 0.103408
H	-2.1645461998	-0.0597655748	 0.8479960242	 0.083146
H	 0.4504156444	-2.5978870471	-0.3869976163	 0.129157
H	-0.0924897265	-3.3970919296	 1.1035056688	 0.124227
H	-0.7243473388	-3.9193906974	-0.4622521503	 0.134937
H	-2.6618761646	-3.2148845798	 1.7482326276	 0.088793
H	-4.9359556662	-2.1845347206	 1.2740929113	 0.11386
H	-4.1823148543	-1.2136001933	-0.0913038281	 0.126458
H	-3.4644458494	-3.1614285605	-1.059849979	 0.239423
