20
gdb 86711	2.89923	1.28288	1.06152	2.2583	78.14	-0.241	-0.0254	0.2156	1194.4766	0.171184	-403.143619	-403.135099	-403.134155	-403.17709	32.304	
C	 0.0497887513	 1.5238978561	-0.1819459585	-0.40262
C	 0.065283672	 0.0056395389	 0.0059643467	 0.017276
C	 0.7178093563	-0.7805212077	-1.1537879856	-0.263688
C	 1.2584984352	-2.0542701459	-0.4770634671	-0.060938
C	 2.504665628	-2.6491669106	-1.1046312765	 0.154531
O	 2.9614644265	-2.3143496005	-2.167721154	-0.243816
N	 1.5090823847	-1.7616135736	 0.9575492457	-0.121965
C	 2.3162628051	-0.538676088	 1.1548804235	-0.260542
C	 0.8356379497	-0.4762222498	 1.2317216374	-0.015388
H	 1.0663421485	 1.9153318172	-0.2950895696	 0.118602
H	-0.5198888947	 1.8041754691	-1.0737529213	 0.118998
H	-0.4093799919	 2.0255727676	 0.6762980931	 0.116212
H	-0.9706670238	-0.3393987573	 0.1241958455	 0.079202
H	 0.0122789051	-1.0074667553	-1.9556890554	 0.110867
H	 1.5375327124	-0.2179274758	-1.6104695697	 0.121704
H	 0.4976972634	-2.8497465595	-0.4892804714	 0.102999
H	 2.9847373073	-3.439772951	-0.4872237246	 0.093644
H	 2.9045437458	-0.5387058467	 2.0671685661	 0.120416
H	 2.8176132048	-0.0953200253	 0.2984185922	 0.123171
H	 0.3569496042	-0.3878281018	 2.2035884834	 0.091336
