17
gdb 99067	3.6572	0.83916	0.75842	4.0221	71.63	-0.2694	0.0146	0.284	1520.6217	0.13413	-455.201623	-455.191362	-455.190418	-455.23859	34.477	
C	 0.1036437771	 1.286297779	 0.1626620177	-0.332656
N	-0.080466911	-0.1482831026	 0.0795150015	-0.359607
C	-1.3033198553	-0.7198359428	-0.0001986104	 0.539394
O	-2.3700866942	-0.1468881225	-0.0276072316	-0.409977
O	-1.1615844408	-2.0836185535	-0.0549322996	-0.283787
C	-2.3923086292	-2.8156314442	-0.1329922564	-0.015132
C	-2.7504223767	-3.1246836937	-1.5874345029	-0.402562
C	-2.2100976106	-4.039129024	 0.660616051	 0.281715
N	-2.0981677949	-5.0141245313	 1.2692119329	-0.315896
H	 0.7153572124	 1.6556965709	-0.6673434032	 0.132331
H	-0.8818642974	 1.7496781306	 0.110521233	 0.173346
H	 0.5805202517	 1.5730078018	 1.1062515236	 0.13402
H	 0.7142018635	-0.7646985287	 0.1182942405	 0.261452
H	-3.1822049504	-2.2100445969	 0.3216002305	 0.162393
H	-1.9412214575	-3.6748911571	-2.072953661	 0.142957
H	-3.6630430615	-3.7247987767	-1.6324404815	 0.14287
H	-2.9207218455	-2.1833994483	-2.114276914	 0.149138
