17
gdb 74988	2.91247	1.56196	1.15962	4.2451	75.57	-0.2323	-0.0524	0.1799	1069.1854	0.136407	-421.841801	-421.833888	-421.832944	-421.874583	29.267	
C	 0.000013982	 1.525260531	 0.1757506068	-0.492702
C	-0.0536344787	 0.0373995243	 0.0646576425	 0.204414
C	-1.1148129215	-0.7841815811	 0.1342717285	-0.174373
C	-0.7710339922	-2.2348378546	-0.0527517657	-0.133802
C	-0.843451758	-2.7636219745	-1.5117702963	-0.07451
O	 0.5773427384	-2.5965079573	-1.6832664278	-0.285611
C	 0.7511219695	-2.2289892611	-0.2883684584	 0.012178
C	 1.1848032991	-0.7613742657	-0.1525241636	 0.333079
O	 2.3132454355	-0.3351982436	-0.2302139849	-0.322407
H	 0.6749738048	 1.8241521749	 0.9848725115	 0.146182
H	 0.410115411	 1.9626936505	-0.741227994	 0.148011
H	-0.9864069062	 1.9571523421	 0.360740005	 0.121975
H	-2.1385580166	-0.4530624097	 0.2824769268	 0.110687
H	-1.1888821644	-2.8921891765	 0.7114566885	 0.094788
H	-1.136266284	-3.8176688018	-1.5924159653	 0.107437
H	-1.4238231068	-2.1658248939	-2.223350549	 0.109449
H	 1.3994359382	-2.9262016031	 0.2496485554	 0.095207
