18
gdb 89652	2.92647	1.27738	1.07155	4.3077	78.15	-0.264	0.0185	0.2824	1157.8787	0.146869	-401.943159	-401.934234	-401.93329	-401.976553	33.416	
C	-0.0146101169	 1.523194921	 0.0283122318	-0.501152
C	 0.0470441613	 0.0246985317	-0.0072376907	 0.298229
C	-0.8308857261	-0.856175012	 0.8261517071	-0.357519
C	 0.6675950785	-0.9683630046	 1.0172181949	 0.160826
C	 1.255441474	-1.8189809681	-0.1177747423	-0.331309
C	 0.6548806409	-0.797355743	-1.1457234365	 0.059849
O	-0.306991748	-1.2541308212	-2.0673505879	-0.430694
C	 1.3121912687	-0.6703236293	 2.2513653145	 0.187032
N	 1.8505003275	-0.4210238086	 3.2463393918	-0.355614
H	 0.936810227	 1.9694728719	-0.2794604502	 0.126471
H	-0.7944081062	 1.890919885	-0.648175055	 0.137659
H	-0.2456921934	 1.8849049946	 1.0347413719	 0.13564
H	-1.3621064071	-0.3506471372	 1.6253919946	 0.13466
H	-1.3614291596	-1.6924899053	 0.3811881736	 0.133637
H	 2.3461762678	-1.8457365461	-0.1273384754	 0.122273
H	 0.8612026373	-2.837217058	-0.1811216698	 0.110403
H	 1.4544144801	-0.2366505962	-1.6476944675	 0.079975
H	 0.1441838144	-1.7342609446	-2.769034595	 0.289635
