20
gdb 94625	3.44524	1.00609	0.85872	2.5887	75.86	-0.2263	0.0582	0.2845	1381.2528	0.170039	-440.219313	-440.210085	-440.209141	-440.25438	33.394	
O	 0.2781633361	 1.134647551	-0.4583002827	-0.421885
C	 0.0450752082	-0.1529812453	 0.0606602803	 0.041734
C	-0.2200726502	-0.2862545295	 1.577495364	-0.099102
O	-1.5251728957	-0.8488391479	 1.3373524777	-0.290413
C	-1.4176935692	-0.6279192459	-0.0948999656	 0.117948
C	-2.4160758568	 0.3917954098	-0.6191186748	-0.15265
N	-3.7459205562	-0.2005631773	-0.6889573095	-0.075332
C	-4.5363034298	-0.1494259909	 0.5396545155	-0.205844
C	-4.8693538359	 0.7283992334	-0.6145512083	-0.227832
H	 1.2153040456	 1.3347846125	-0.3771668216	 0.290722
H	 0.7760232924	-0.8756324268	-0.3216705392	 0.080634
H	 0.4259777009	-0.970364266	 2.1408409614	 0.098393
H	-0.2677198001	 0.6827785191	 2.0918223307	 0.099879
H	-1.5477411115	-1.5708173795	-0.6384981726	 0.088782
H	-2.3815019036	 1.2952780669	 0.0125903085	 0.089445
H	-2.1145575625	 0.6898996402	-1.6301502238	 0.112288
H	-5.132294462	-1.0326005378	 0.7503140907	 0.113333
H	-4.0816505821	 0.3111243602	 1.4127309359	 0.120135
H	-4.6480107956	 1.7901942005	-0.5151749108	 0.106784
H	-5.7128138821	 0.5000312132	-1.2600899357	 0.112981
