16
gdb 11101	7.43084	0.9232	0.90314	1.1827	67.06	-0.253	-0.0448	0.2081	1233.5183	0.128581	-383.743899	-383.735769	-383.734825	-383.777724	28.117	
O	 0.055857	-0.1399262407	-0.1425120656	-0.250304
C	 0.005778208	 1.0492587527	 0.0364907394	 0.171225
C	 1.1972151185	 1.9696298126	 0.0442974335	-0.083973
C	 0.9902330396	 3.2339463966	-0.85071665	-0.266185
C	 0.6296505078	 4.0754222209	 0.412157989	-0.053448
C	 1.2169762513	 2.9223215358	 1.2829973425	-0.266185
C	 1.300686653	 5.4157918264	 0.5366087093	 0.156984
O	 0.7406743097	 6.4593377344	 0.748528507	-0.244041
H	-0.971713467	 1.5596536119	 0.2149139452	 0.073273
H	 2.0959432256	 1.3787339688	-0.1375072765	 0.098341
H	 1.9327962396	 3.5525078058	-1.304758462	 0.122033
H	 0.2295931392	 3.1804005468	-1.632732887	 0.125835
H	-0.4462523833	 4.2029438458	 0.5451150535	 0.100359
H	 0.6323181933	 2.6269169905	 2.1570114763	 0.125835
H	 2.2419506429	 3.1276211306	 1.6044631112	 0.122033
H	 2.4108952618	 5.3726055411	 0.4123232741	 0.068218
