20
gdb 51422	4.41544	0.97439	0.95199	3.3497	81.46	-0.2541	0.0237	0.2779	1316.684	0.173108	-403.134904	-403.126953	-403.126009	-403.168064	30.626	
N	-0.0986084346	 1.2498824012	 0.1224442137	-0.444061
C	-0.068628629	-0.0118322342	 0.1527065225	 0.119191
O	-1.1142226202	-0.7239206093	-0.3084849598	-0.208279
C	-1.0354527151	-2.1352539605	-0.1489556749	 0.16655
C	-1.57144395	-2.6764955102	 1.2113038607	-0.055773
C	-2.99443797	-2.418427315	 0.6290240464	-0.232721
C	-2.3033111407	-2.8280411518	-0.7078749988	-0.04788
C	-1.9634362432	-4.308758693	-0.4575573445	-0.220961
C	-1.4011973719	-4.1925836387	 1.0037942859	-0.219629
H	 0.7752351017	 1.624541024	 0.4860307723	 0.22768
H	 0.7590380491	-0.6356005733	 0.5192177904	 0.082944
H	-0.0576332147	-2.4953131046	-0.4945641919	 0.071322
H	-1.2434612512	-2.2508691073	 2.1602347943	 0.066228
H	-3.8128205764	-3.0460984378	 0.992269836	 0.088921
H	-3.2752296019	-1.3667063632	 0.6504123911	 0.127401
H	-2.7047570978	-2.5490392705	-1.6814543523	 0.073743
H	-2.8488304584	-4.9464494843	-0.5197309686	 0.103871
H	-1.2218672867	-4.6947977959	-1.1630233059	 0.099637
H	-0.3571611064	-4.5120509887	 1.0770520201	 0.097408
H	-1.9793848625	-4.7730178071	 1.7274097631	 0.104409
