20
gdb 107722	3.94801	1.1547	1.08581	2.554	78.74	-0.2382	0.0783	0.3165	1197.1989	0.170997	-403.084181	-403.07575	-403.074806	-403.117129	32.889	
C	-0.027368077	 1.5534699255	 0.1522740217	-0.510704
C	 0.0465131724	 0.0545824438	 0.043094812	 0.294289
C	-1.1935758962	-0.8585864894	 0.0975733748	-0.185171
N	-0.3457792502	-1.9777381077	 0.6224044893	-0.197333
C	 0.6689976263	-0.9813163481	 1.0738480273	-0.164745
C	 0.9806192835	-1.8307788838	-0.0986552214	 0.333709
C	 1.7706969156	-3.0985151374	-0.2028418916	-0.174295
O	 1.1591208662	-4.0220317561	-1.0892998121	-0.419389
C	 0.8873450646	-0.6499756138	-1.0625921542	-0.328943
H	 0.9704049965	 2.0000910831	 0.21976093	 0.12092
H	-0.5229045451	 1.9812545685	-0.7273454019	 0.123893
H	-0.5946065624	 1.862078008	 1.0372324613	 0.120227
H	-1.9082537783	-0.5738255502	 0.8754585221	 0.105093
H	-1.7267989218	-1.0688887259	-0.8378925248	 0.094706
H	 1.0626563312	-0.9236953956	 2.0812023837	 0.095658
H	 2.7684136967	-2.8962430456	-0.6068371515	 0.107773
H	 1.8968655619	-3.5283668447	 0.802838272	 0.093496
H	 0.2603846976	-4.1422268298	-0.7600703902	 0.290388
H	 0.4178831828	-0.7957968807	-2.0414957189	 0.09913
H	 1.8678191754	-0.1808797503	-1.1876007875	 0.101297
