25
gdb 115583	2.37215	1.09432	1.00743	0.9213	89.48	-0.2422	0.0845	0.3267	1416.4995	0.227073	-389.481473	-389.47073	-389.469786	-389.516924	39.992	
C	 0.0182490483	 1.5316693722	 0.1801470248	-0.399674
C	-0.1226096416	 0.0360203126	-0.1253428669	-0.202122
C	 0.6801965277	-0.4511583529	-1.3466035426	 0.289043
C	 0.2867304158	 0.2814931636	-2.6272765719	-0.466321
C	 2.2143882951	-0.553279423	-1.0486843028	-0.263633
C	 2.0422875643	-2.059886731	-0.7154597985	-0.268279
C	 0.674897101	-2.0082521078	-1.4483179155	 0.131426
O	-0.4380728232	-2.6439941358	-0.8775828693	-0.242397
C	-0.3949383541	-4.0479551054	-0.9845584705	-0.236363
H	 1.0668128065	 1.824544988	 0.303257708	 0.112798
H	-0.4082182466	 2.1541896107	-0.6119661048	 0.116494
H	-0.5035045762	 1.7831642405	 1.1088855903	 0.110784
H	 0.181876475	-0.5396108107	 0.7560856289	 0.094107
H	-1.1785124886	-0.2098137377	-0.2843708828	 0.104977
H	 0.5277448705	 1.3480624744	-2.5757525661	 0.11563
H	 0.8172745027	-0.1314316246	-3.4920329399	 0.104865
H	-0.7890097867	 0.1910513204	-2.8196129077	 0.115826
H	 2.8182512915	-0.3923475895	-1.9463006544	 0.095629
H	 2.6057336965	 0.0859466624	-0.2536811139	 0.098367
H	 2.7981661392	-2.7533753876	-1.0907078263	 0.09223
H	 1.9052084488	-2.231689335	 0.3554965672	 0.108271
H	 0.7879693391	-2.3256834448	-2.4984379387	 0.054253
H	-0.3482710338	-4.3737372314	-2.0361989673	 0.102017
H	 0.469570987	-4.476258079	-0.4552259476	 0.107288
H	-1.3108008681	-4.4388674284	-0.5343312617	 0.124783
