19
gdb 19610	2.72804	2.52028	1.69037	1.7849	73.92	-0.2394	0.0713	0.3106	854.107	0.166546	-327.870348	-327.862907	-327.861963	-327.901832	28.788	
C	-0.1788507936	 1.5779284141	-0.3325503472	-0.438704
C	 0.1310522072	 0.0856699142	-0.2909737009	 0.051339
C	 0.9145972323	-0.6452606372	-1.3677061081	-0.068693
C	 2.3578328993	-0.7578330738	-0.9747962506	-0.068688
C	 2.5877783067	-0.1057364113	 0.3777611084	 0.051329
C	 3.0878843382	 1.3234408841	 0.5565739991	-0.438701
C	 1.1443287423	-0.5899502034	 0.6675609348	-0.07072
N	 1.3490232635	-1.7167137512	-0.4071933388	-0.161821
H	 0.675463687	 2.1847452648	-0.6355510642	 0.1229
H	-0.9879007101	 1.7729887793	-1.0450772199	 0.117212
H	-0.5157336916	 1.9340563324	 0.6473793021	 0.11732
H	-0.8098222321	-0.4639317834	-0.1624677201	 0.089108
H	 0.5847418512	-0.9014153257	-2.3695008635	 0.088473
H	 3.1067048839	-1.0981636272	-1.6828786467	 0.088477
H	 3.2449324782	-0.7797958842	 0.9413254545	 0.089101
H	 2.6008677058	 2.0346565779	-0.1119165743	 0.122909
H	 2.9319121956	 1.6656628501	 1.5857178016	 0.117326
H	 4.1641681592	 1.3715644064	 0.3575732243	 0.117213
H	 0.8475633671	-0.8633147658	 1.6795409595	 0.074619
