16
gdb 79225	2.67281	1.63497	1.31262	3.2392	73.27	-0.2689	0.0147	0.2836	985.614	0.125399	-400.712824	-400.705528	-400.704583	-400.744399	28.818	
O	-0.0916774217	 1.4771413662	-0.0890158063	-0.427066
C	-0.0366710685	 0.0799390362	-0.0750702058	 0.105223
C	-1.3614275605	-0.6507156832	-0.1039511213	-0.097406
C	-1.7892598773	-0.7916119744	-1.5690130157	-0.073034
C	-0.7300404503	-0.1063766872	-2.4294187175	-0.265222
C	 0.3014475007	-0.6838661369	-1.4148932252	 0.151422
C	 1.665998651	-0.9385078164	-1.7798177241	 0.13605
N	 2.7733507772	-1.1319221163	-2.0554926315	-0.34443
C	-0.7888719482	-1.7491154056	-0.9748468152	-0.130477
H	 0.7954930085	 1.8256144809	 0.0491272557	 0.294319
H	 0.6010475426	-0.3034619474	 0.731001883	 0.091544
H	-2.0698062189	-0.7534078983	 0.7064906469	 0.102318
H	-2.8205197278	-0.9937031806	-1.8237957015	 0.102569
H	-0.6315947727	-0.585641482	-3.4054550383	 0.118895
H	-0.7473933624	 0.9817530736	-2.5262612148	 0.121109
H	-0.7510678817	-2.8208426786	-0.8580912183	 0.114187
