18
gdb 25870	4.15532	1.0046	0.81724	5.2458	83.08	-0.2144	-0.0183	0.1961	1397.6206	0.147357	-402.022895	-402.013738	-402.012794	-402.057198	33.167	
C	-0.0290932069	 1.5061301942	-0.0038133799	-0.493527
C	 0.0320240329	-0.0161460954	 0.0225009574	 0.300447
O	 1.1009580644	-0.5983775752	 0.0505536721	-0.328174
C	-1.2397538662	-0.7503925343	 0.0128027843	 0.191673
C	-2.5232597445	-0.2320364639	-0.0177735151	-0.17479
N	-3.3943774117	-1.2806425915	-0.0153510199	-0.305074
C	-2.7064111006	-2.4828083742	 0.016268318	 0.341624
C	-3.421957939	-3.792784198	 0.0255942957	-0.501222
C	-1.3713361018	-2.1758088288	 0.0341383516	-0.338394
H	 0.9861722091	 1.9038198192	 0.0069059358	 0.136552
H	-0.5489456729	 1.8581647669	-0.9015056006	 0.130676
H	-0.579023585	 1.8874465143	 0.8634851424	 0.130682
H	-2.8768586167	 0.7862584799	-0.0406670361	 0.127964
H	-4.3967536712	-1.1955587841	-0.0339585259	 0.260376
H	-4.0446638599	-3.9305211631	-0.8671337699	 0.128824
H	-2.6966385755	-4.6085608857	 0.0515158182	 0.146026
H	-4.0750241242	-3.9013485856	 0.9004740478	 0.128823
H	-0.5493909103	-2.8733793448	 0.0597844541	 0.117513
