17
gdb 28478	3.05072	1.42633	0.97983	1.97	82.98	-0.1881	-0.0243	0.1638	1174.4834	0.137855	-414.25683	-414.248396	-414.247452	-414.289326	32.732	
C	-0.0063822813	 1.5028144278	-0.0502194083	-0.498565
C	 0.0247794719	 0.000344942	-0.0138882579	 0.285236
N	-0.0004375137	-0.6568239517	-1.1714292551	-0.358463
C	 0.0484482126	-1.9932932075	-1.1477615205	 0.323989
N	 0.0962508799	-2.6505155529	-2.3745582783	-0.574784
C	 0.1071727138	-2.6765573192	 0.0714250283	-0.079049
N	 0.1096795548	-2.033768797	 1.2356651574	-0.299535
C	 0.0774908165	-0.7015369917	 1.2086975574	 0.28691
N	 0.1585866272	-0.0343357893	 2.4316471568	-0.572211
H	 0.8362557293	 1.9276450968	 0.5078935842	 0.138523
H	 0.0379863637	 1.8461775996	-1.0845404108	 0.140317
H	-0.9245310016	 1.9011407483	 0.4035499476	 0.121148
H	-0.2335309661	-2.0719646359	-3.1345610656	 0.249482
H	-0.3128900567	-3.5732803672	-2.3852520642	 0.246695
H	 0.1472203685	-3.7630990041	 0.1052506167	 0.096555
H	-0.0256854575	-0.6552866634	 3.208251667	 0.248525
H	-0.3743623515	 0.8212777653	 2.4936291453	 0.245229
