15
gdb 9730	2.90699	2.07802	1.72681	3.4347	60.76	-0.2894	0.0227	0.312	823.8258	0.118345	-399.812838	-399.805021	-399.804076	-399.845644	27.513	
C	 0.0173947482	 1.5421844624	-0.0462484242	-0.430682
C	 0.0726915751	 0.0269774891	-0.0122239081	 0.296395
O	 0.7436103699	-0.4661660538	-1.1441248232	-0.255175
C	 1.2813029232	-1.7392935019	-0.7803201607	-0.117154
C	 1.323388608	-1.7034188022	 0.7693059234	-0.117296
O	 0.8062240704	-0.4135117048	 1.1023541452	-0.255071
C	-1.3097026603	-0.5648802189	 0.0402033574	 0.261783
N	-2.3638082518	-1.0363311071	 0.0805198327	-0.339053
H	 1.0403363046	 1.9211691545	-0.0826371935	 0.142118
H	-0.5302363085	 1.8754820972	-0.9298283324	 0.149894
H	-0.4825037909	 1.9173872225	 0.8487499505	 0.149872
H	 0.6395901595	-2.5479106137	-1.1479918694	 0.127631
H	 2.2676510884	-1.8260473977	-1.2408084793	 0.12953
H	 0.7025312179	-2.492567735	 1.2082172087	 0.12765
H	 2.3332296164	-1.7712672306	 1.1792386427	 0.129559
