15
gdb 61130	5.74647	0.59614	0.55229	1.3913	84.97	-0.3001	-0.0549	0.2452	1848.8718	0.111661	-379.678901	-379.669499	-379.668555	-379.714057	32.363	
C	 0.019068658	 1.5860857461	 0.0251591937	-0.397674
C	 0.0086330877	 0.0448943768	-0.0242587682	-0.201658
C	-1.4371784135	-0.5352843406	 0.0198486816	-0.334141
C	-2.1321557983	-0.1745072282	 1.252695357	 0.26477
N	-2.6629164033	 0.1197991574	 2.23585006	-0.298895
C	 0.6916711199	-0.4540718171	-1.2106425649	 0.088375
C	 1.2457072391	-0.862811886	-2.2034292662	 0.071566
C	 1.8759092533	-1.3230849916	-3.3241710727	 0.207291
N	 2.4101208774	-1.7152725821	-4.2780579139	-0.329022
H	 1.0444145073	 1.9616945959	 0.0207356549	 0.144898
H	-0.5038090596	 2.0045737644	-0.8395204575	 0.139029
H	-0.4763471675	 1.9310017048	 0.936125851	 0.157037
H	 0.5427676743	-0.3356363963	 0.8559297302	 0.14772
H	-2.0092855099	-0.1631398557	-0.8367129382	 0.169238
H	-1.4050025748	-1.6259349978	-0.0629436367	 0.171467
