14
gdb 49745	3.70238	1.45255	1.34595	3.4171	67.16	-0.2306	-0.0772	0.1534	938.6701	0.098529	-436.54388	-436.536908	-436.535964	-436.575767	26.573	
O	-0.8018869727	 1.0180796921	-0.2767215635	-0.236979
C	 0.291329259	 0.6668978658	 0.0767627515	 0.17548
C	 1.5130790457	 1.5799548984	 0.0090490258	-0.081473
N	 2.6267600386	 0.7496124317	-0.5585552503	-0.24212
C	 3.1219886702	 1.565274122	-1.3946531949	 0.266335
O	 2.882287942	 1.4423042636	-2.7690102226	-0.258619
C	 2.0307435015	 2.6427088572	-2.4748010741	 0.078082
C	 1.3943930618	 2.7534730427	-0.9938390762	-0.087574
C	 2.8093034303	 3.0961397945	-1.3293543088	-0.214953
H	 0.4929058579	-0.3368501548	 0.5021508238	 0.107938
H	 1.6864206426	 1.9530297543	 1.0359016934	 0.109244
H	 1.6239431123	 3.1362969777	-3.3485014561	 0.141135
H	 0.6175702436	 3.5039759046	-0.8830062908	 0.117253
H	 3.4504753872	 3.9445333503	-1.1350482772	 0.126251
