21
gdb 73542	2.4867	1.94252	1.58787	1.3786	82.02	-0.2431	0.0851	0.3282	967.7737	0.184156	-387.025729	-387.018164	-387.01722	-387.057216	31.435	
C	-0.1434235524	 1.5864818207	-0.1210568559	-0.476202
C	-0.0019138977	 0.0777335673	 0.0155638565	 0.467436
O	-1.3046654491	-0.482238653	 0.1794769889	-0.3361
C	-1.4683493047	-0.8055495901	 1.5834391982	-0.079073
C	-0.0902874165	-0.6313064184	 2.3255738312	-0.397275
C	 0.8032060681	-0.6310448113	 1.1126193215	 0.299454
C	 2.1068572355	-0.1191467567	 0.4322444606	-0.33315
C	 1.1775420166	-0.6474446708	-0.7363156563	-0.130772
C	 0.9063791687	-1.8744733058	 0.1572909067	-0.255457
H	 0.7909236891	 2.0911806591	-0.3758151624	 0.114186
H	-0.8625729764	 1.7899181428	-0.9206508981	 0.12955
H	-0.5428221317	 2.0370369866	 0.7948046031	 0.111818
H	-2.2414668798	-0.1587742525	 2.0140875441	 0.103366
H	-1.817653306	-1.8417983147	 1.6475052873	 0.107081
H	-0.05103842	 0.3194556581	 2.8666342098	 0.109025
H	 0.0847411675	-1.44024277	 3.039130436	 0.107055
H	 2.3220734541	 0.9485404161	 0.4806787514	 0.099111
H	 3.01000112	-0.7089537109	 0.6040137966	 0.097218
H	 1.4149716755	-0.6362457693	-1.8018150101	 0.069181
H	 1.7564459164	-2.5367822763	 0.3394882869	 0.082515
H	-0.008725517	-2.4298330409	-0.039962816	 0.111033
