16
gdb 20078	4.47498	1.6197	1.48481	1.7429	59.7	-0.2559	0.0843	0.3402	875.096	0.131491	-420.843638	-420.836554	-420.83561	-420.87573	25.475	
C	 0.3264124433	 1.4407498263	 0.2816629573	-0.170447
O	 1.2622829977	 0.3723424494	 0.0817166681	-0.237732
C	-0.1299561307	 0.0604434832	 0.0966948408	 0.058613
C	-0.6008764209	-0.7956730925	 1.2537676702	 0.060045
C	 0.0129079231	-2.2259636415	 1.2240348466	-0.126136
O	 0.4723777663	-2.4312669714	 2.5508562176	-0.233597
C	 0.8107327612	-1.1499640621	 3.0115992322	 0.019978
O	-0.1819584497	-0.27260592	 2.5105279763	-0.257752
H	 0.3198154925	 1.8613805752	 1.2830947568	 0.133541
H	 0.2485912337	 2.1485315588	-0.5419618433	 0.115054
H	-0.5422075043	-0.2275061894	-0.8733982525	 0.094141
H	-1.6976680479	-0.8271345687	 1.2494539556	 0.090884
H	-0.7143037255	-3.004891441	 0.9863858753	 0.118791
H	 0.8452437461	-2.2724823091	 0.5081482219	 0.115258
H	 0.7788254915	-1.1416257165	 4.1044661409	 0.11845
H	 1.8039086536	-0.8447333908	 2.6438107561	 0.100911
