21
gdb 39453	2.45164	1.67481	1.1129	0.9543	84.21	-0.2277	0.0193	0.2471	1135.2957	0.184789	-387.074351	-387.066486	-387.065542	-387.106311	32.022	
C	 0.0540640268	 1.6356958595	-0.0271710565	-0.340738
C	 1.1855772384	 0.7244004731	-0.4603583726	-0.018914
C	 2.5071376721	 0.7113803539	 0.2930604563	-0.278035
C	 3.176683559	-0.6360409216	 0.1859664269	-0.047257
C	 2.9043009103	-1.6870939024	 0.9607712551	-0.05249
C	 1.9385465061	-1.715232066	 2.1239795133	-0.254014
C	 0.4392456171	-1.5821559174	 1.7808491599	-0.061136
O	 0.0249472104	-0.2401847007	 1.5507189969	-0.250635
C	-0.0394150372	 0.1582552552	 0.2149836416	 0.127703
H	 0.2213953718	 2.2481898921	 0.8525354925	 0.12172
H	-0.5842552933	 2.0863005899	-0.7790115481	 0.110458
H	 1.2673385685	 0.5273059047	-1.5268084736	 0.080008
H	 3.1645175719	 1.4961937818	-0.0980658098	 0.096144
H	 2.3078142983	 0.9514363813	 1.3426494935	 0.111842
H	 3.8905000528	-0.7612857303	-0.6258288468	 0.082866
H	 3.4170646373	-2.6233869499	 0.7507314534	 0.082658
H	 2.0641262827	-2.6605412953	 2.6643968343	 0.096222
H	 2.1694376273	-0.9186502329	 2.8429797126	 0.119236
H	 0.1817011545	-2.2181081878	 0.9229344086	 0.092871
H	-0.1448121038	-1.9266746176	 2.6423276263	 0.101233
H	-0.737127831	-0.4247285999	-0.3874125939	 0.080258
