14
gdb 43456	3.04459	1.49057	1.07921	2.4394	63.82	-0.2857	-0.0268	0.2589	1048.7127	0.100632	-473.850722	-473.843331	-473.842387	-473.883496	27.396	
N	-0.0861031571	 1.2662455183	 0.0630484175	-0.516084
C	-0.0451054292	 0.0127748199	 0.0464635485	 0.363813
O	 1.112336353	-0.7442859536	-0.0310637315	-0.218096
C	 0.8454315647	-2.1062053936	-0.0165510705	 0.425272
O	 1.7203214967	-2.9094574612	-0.0711245583	-0.299343
C	-0.6562228907	-2.3197750261	 0.0813433972	-0.477911
C	-1.2249501682	-0.9171352242	 0.1107005722	 0.346822
C	-2.4967093183	-0.4969812941	 0.7131664442	-0.23057
O	-2.3469824163	-0.5956475566	-0.7022807796	-0.250034
H	 0.8455199471	 1.6770551624	-0.005302264	 0.24409
H	-1.0048366997	-2.881648472	-0.7893264982	 0.174547
H	-0.8775088631	-2.912952493	 0.9723027823	 0.161662
H	-3.1348629792	-1.2507103757	 1.172659102	 0.125296
H	-2.5786061098	 0.5156914194	 1.1011606882	 0.150536
