14
gdb 16747	5.71078	1.45923	1.34583	3.5387	57.68	-0.2546	-0.0415	0.2131	896.2433	0.105921	-419.648292	-419.641384	-419.640439	-419.680252	24.952	
O	-0.6917533148	 0.6614389721	 0.5124344878	-0.224692
C	 0.1528097254	 0.9410450025	-0.2911127591	 0.159419
C	 1.3566492438	 1.8365170256	 0.0118424781	 0.132905
O	 2.5318304584	 1.0932685137	-0.2616804945	-0.276065
C	 3.4451543196	 1.9781728798	-0.8776363391	 0.068506
C	 3.2144169849	 2.2486398001	-2.3475195202	-0.328948
C	 2.6586800225	 3.1736202942	-1.2879957223	 0.068601
O	 1.325034214	 2.9284450515	-0.8910614306	-0.276042
H	 0.1438809342	 0.5751360078	-1.3404170747	 0.090597
H	 1.3301666268	 2.1780183878	 1.0581404883	 0.096717
H	 4.4280820866	 1.9996590619	-0.4222173469	 0.117027
H	 4.0575241091	 2.6028709168	-2.9319754494	 0.123535
H	 2.512867751	 1.6077653521	-2.8690789709	 0.131415
H	 2.9790278085	 4.2029425642	-1.1789096165	 0.117026
