17
gdb 47828	2.55558	1.73231	1.17717	3.3837	68.96	-0.2482	-0.0005	0.2477	1030.5884	0.137314	-458.966362	-458.958837	-458.957892	-458.998844	28.859	
O	 0.0339999039	 0.0929640026	 0.7659671075	-0.319501
C	-0.0125288234	 1.0727463763	 0.0730908435	 0.39236
O	-1.2305835672	 1.627403629	-0.2074198777	-0.236009
C	-1.5291377222	 2.1320262054	-1.5115965798	-0.092583
C	-0.8886677172	 3.4666426061	-1.8622102516	-0.100525
O	 0.449909186	 3.3468442117	-2.2954215317	-0.241971
C	 1.3949902104	 2.9020173859	-1.3797773721	 0.112874
C	 1.4234488157	 3.2347890458	 0.0717546308	-0.337307
C	 1.2285872972	 1.7703968802	-0.3759107282	-0.182343
H	-1.2634647431	 1.3904318401	-2.274525343	 0.125935
H	-2.6163463008	 2.2493248863	-1.5109474822	 0.128578
H	-1.4245531076	 3.895519146	-2.714978878	 0.122682
H	-0.9866259058	 4.1658425909	-1.0195495724	 0.111764
H	 2.3552060619	 2.8819508106	-1.8846804026	 0.12067
H	 2.3636965129	 3.5055608466	 0.537718376	 0.131473
H	 0.5523339607	 3.6988416982	 0.5182522437	 0.140474
H	 2.0872327887	 1.1199407884	-0.2572988122	 0.123431
