15
gdb 113640	2.46029	1.1662	0.9692	1.5403	69.02	-0.2723	-0.0758	0.1965	1228.6655	0.109227	-457.70198	-457.692738	-457.691793	-457.737017	32.379	
O	-0.9460253673	 0.0473330377	-2.0848602884	-0.41384
C	-0.1655816872	-0.3743210749	-0.9798553249	-0.10203
C	-0.9229927752	-0.1707857103	 0.3094938774	 0.031628
O	-1.9555224354	-1.1156112258	 0.6051408457	-0.247648
C	-0.8471263698	-1.0555541618	 1.4962834626	-0.04923
C	 0.0729839021	-2.2425546265	 1.6065422305	 0.206303
O	 0.9164892065	-2.2785263265	 2.4765007171	-0.279561
C	-0.118291934	-3.338144341	 0.6744257589	 0.287749
C	-0.252793817	-4.2870616029	-0.0539401647	-0.429981
H	-1.7313704258	-0.5108809857	-2.1068791097	 0.295061
H	 0.1513226206	-1.4194501391	-1.0801660653	 0.110711
H	 0.7305690501	 0.2552796233	-0.9771716223	 0.124129
H	-1.2124337871	 0.8641580128	 0.4996302977	 0.116321
H	-1.0385141056	-0.6021986603	 2.4684612542	 0.128165
H	-0.3723399848	-5.123611509	-0.6993398689	 0.222223
