15
gdb 25917	4.29914	1.0841	0.87106	4.311	70.75	-0.2024	-0.0096	0.1928	1240.9865	0.113626	-454.009747	-454.001576	-454.000631	-454.04255	30.947	
N	-0.0637025019	 1.3822798513	 0.0434916146	-0.566037
C	 0.0562354813	 0.019361977	-0.1050822129	 0.479723
O	 1.1088419705	-0.5527408814	-0.2699123699	-0.364586
N	-1.1715286504	-0.6742714463	-0.0874057388	-0.086611
C	-2.4529163999	-0.1570291603	-0.1532809577	-0.068596
C	-3.3385245572	-1.1987429372	-0.1031960333	-0.308567
C	-2.5674650057	-2.401471766	-0.0002414767	 0.292502
O	-3.032074581	-3.6781075707	 0.0849346391	-0.440547
C	-1.2428127613	-2.0619214957	 0.0009974034	-0.155561
H	 0.8229606656	 1.8463409863	 0.1651905462	 0.270473
H	-0.8223434431	 1.7471746953	 0.5965183717	 0.262196
H	-2.6256339131	 0.8958088792	-0.2975810844	 0.132203
H	-4.4151626683	-1.1212073506	-0.1479227072	 0.101783
H	-3.9926161193	-3.6594993939	 0.0540783046	 0.298639
H	-0.3454157959	-2.6496769371	 0.0618952012	 0.152987
