18
gdb 85990	2.59682	1.20502	1.14251	4.141	74.41	-0.2428	-0.0511	0.1917	1190.7488	0.144303	-439.094247	-439.084534	-439.08359	-439.129136	34.542	
C	-0.8856114812	 1.1632943752	-0.2461639995	-0.390364
C	-0.0057714331	-0.0665882791	-0.0736007378	-0.065524
N	 1.3069675974	-0.0362093977	-0.7817213698	-0.370914
C	 2.0957187518	-0.4060145139	 0.4237210594	 0.078224
C	 2.6260338819	-1.8372550877	 0.5182571296	-0.449152
C	 3.1734636209	 0.6201708359	 0.7414790649	 0.146257
O	 4.1055824904	 0.4188932947	 1.4749556683	-0.246666
C	 0.7757356108	-0.2047773302	 1.2415439849	 0.351424
O	 0.5062707102	-0.1707183422	 2.4005470455	-0.276099
H	-0.3153497445	 2.0754704253	-0.0512039169	 0.128713
H	-1.2746972426	 1.2157325236	-1.2674253324	 0.126757
H	-1.7328493826	 1.12158704	 0.4450830411	 0.135076
H	-0.5916946883	-0.9795829546	-0.2601711858	 0.103264
H	 1.389236237	-0.6991740229	-1.5441992315	 0.225642
H	 3.347576302	-2.0252764828	-0.2838992782	 0.130618
H	 3.1405716617	-1.9723139548	 1.471721097	 0.164228
H	 1.818188857	-2.5705970233	 0.4402060157	 0.118984
H	 3.0071072712	 1.5960185545	 0.2363330756	 0.089532
