20
gdb 86040	3.34933	1.02182	1.00514	4.7618	75.95	-0.2421	0.0316	0.2736	1275.589	0.169485	-440.299587	-440.290005	-440.289061	-440.333966	35.837	
C	 0.3874831698	 1.3064562105	 0.1744912991	-0.444193
C	-0.0713606615	-0.1460786966	 0.0371151547	 0.358735
C	 0.8054819691	-0.9771166042	-0.9509215657	-0.237814
C	 1.5595840737	-1.5871741251	 0.2509151551	 0.118366
O	 2.7996595647	-0.92322535	 0.4190541797	-0.427622
C	 0.4264643178	-1.0700203686	 1.1873574047	-0.322148
N	-1.513341316	-0.232039861	-0.1836615933	-0.334471
C	-2.1186183197	 0.1436394333	-1.338615434	 0.148452
O	-1.5417686343	 0.5286927848	-2.3356294476	-0.332206
H	 1.4660709735	 1.342772898	 0.346186796	 0.134095
H	 0.1543428549	 1.8560504024	-0.7408298677	 0.14708
H	-0.1183221481	 1.7921642639	 1.0166436077	 0.099543
H	 0.2175727751	-1.7174754287	-1.4947848374	 0.109343
H	 1.4189682779	-0.412097393	-1.6530061755	 0.123788
H	 1.6991612911	-2.6754254652	 0.2353920326	 0.068626
H	 3.1740393875	-1.1990284106	 1.2622797008	 0.282577
H	 0.7435427361	-0.5777999109	 2.1111849418	 0.098813
H	-0.2950898774	-1.8582417059	 1.4242238142	 0.094734
H	-2.1004651154	-0.4633010782	 0.6028327759	 0.241839
H	-3.2221133887	 0.0426458651	-1.279746231	 0.072464
