20
gdb 99189	5.26037	0.68886	0.67705	4.3514	78.04	-0.2517	0.0212	0.2729	1716.9345	0.170942	-440.306056	-440.296587	-440.295643	-440.341818	34.228	
O	-0.0581809012	 1.5653432297	 0.3689417188	-0.41958
C	 0.0108546126	 0.2047477775	 0.0669658685	-0.147364
C	-1.3989715786	-0.3992794706	 0.0616400872	 0.387643
O	-2.3605093966	 0.316775759	 0.3030025914	-0.390049
N	-1.484641986	-1.7230860888	-0.2181259927	-0.331594
C	-2.7236600719	-2.4618162696	-0.2687060338	 0.078782
C	-3.0588632214	-3.2946133918	-1.5356784657	-0.238376
C	-3.68322007	-4.3651839462	-0.5989771316	-0.210424
C	-2.8693693512	-3.7565221119	 0.5759873594	-0.238433
H	-1.0087801182	 1.7344472832	 0.4904708745	 0.29427
H	 0.4728223327	 0.0381925769	-0.9200620523	 0.107212
H	 0.6269018122	-0.3365657843	 0.8037289889	 0.107233
H	-0.6286525034	-2.2241127938	-0.4039630175	 0.244818
H	-3.5153472035	-1.7470961586	-0.0413867435	 0.127341
H	-3.6881033035	-2.8299249938	-2.2978072422	 0.110015
H	-2.1462886887	-3.6671733324	-2.01373587	 0.095565
H	-4.7576951519	-4.2123572461	-0.4691360344	 0.113106
H	-3.5074016178	-5.4137754369	-0.8441301796	 0.104262
H	-1.9033137768	-4.2594865071	 0.6938872788	 0.095567
H	-3.3421303869	-3.6731678845	 1.5569409756	 0.110004
