20
gdb 116081	2.57231	1.28239	0.89981	3.0789	77.42	-0.2536	0.0188	0.2724	1316.9998	0.171469	-440.298798	-440.289859	-440.288915	-440.332879	33.173	
C	-0.0191536075	 1.5485346043	-0.0299930777	-0.385453
C	-0.0220244108	 0.020754217	 0.0715416641	-0.191138
C	-1.4113314122	-0.5919339051	-0.0579347531	 0.122115
C	-1.414326508	-2.1119929985	-0.0232727034	-0.10864
O	-2.7435352188	-2.5915321958	-0.0511026393	-0.242764
C	-3.4401805006	-2.193274118	 1.1127703216	-0.159176
C	-3.3556640226	-0.706062354	 1.3991895834	 0.36627
N	-4.2728558463	-0.13373781	 2.054793271	-0.505076
O	-2.2166258005	-0.0619308374	 1.0216899331	-0.265652
H	 0.9946130012	 1.9437799432	 0.0801544667	 0.116227
H	-0.4046138608	 1.8804036024	-1.0001513725	 0.116849
H	-0.6452545615	 1.9896062126	 0.7491939126	 0.137076
H	 0.6095958535	-0.4089209756	-0.7160917213	 0.103158
H	 0.4080139312	-0.2937927068	 1.0302640599	 0.108446
H	-1.879214238	-0.2695981159	-0.9994801523	 0.092868
H	-0.910396958	-2.5098928865	-0.9084830354	 0.118672
H	-0.8857526238	-2.4743374221	 0.8750316327	 0.094335
H	-4.4871986665	-2.4693462471	 0.9889648095	 0.147272
H	-3.0450667435	-2.7271078038	 1.9945981014	 0.115822
H	-4.0328730266	 0.8472931872	 2.214676049	 0.218789
