13
gdb 128713	5.08545	1.10459	0.91271	5.7466	64.15	-0.2723	-0.105	0.1673	1183.8577	0.08831	-489.867917	-489.860213	-489.859269	-489.900893	27.282	
C	 0.0681924085	 1.3924321074	 0.0069255046	-0.245653
O	-0.0093590892	-0.0403367258	 0.0025204049	-0.251887
C	-1.2326256475	-0.5735940368	 0.0106896189	 0.424669
N	-2.2888507293	 0.1627659175	 0.0220031291	-0.160353
O	-3.496541179	-0.5263179503	 0.0295154292	-0.253681
C	-3.588355062	-1.9158144728	 0.0251617844	 0.48481
O	-4.6801420366	-2.3971936111	 0.0322640666	-0.313849
N	-2.3987635141	-2.6651916058	 0.0129481763	-0.283342
C	-1.2910894445	-2.02402418	 0.0061669631	-0.013374
H	 1.1320561852	 1.6258543637	-0.0010196315	 0.146994
H	-0.4260791616	 1.804613061	-0.877135049	 0.15372
H	-0.4114167234	 1.7983507368	 0.9018926286	 0.15372
H	-0.3516303566	-2.5771804237	-0.0033944553	 0.158226
