17
gdb 74675	2.58496	1.68071	1.47879	2.6374	78.53	-0.2377	0.0012	0.2389	979.0476	0.1368	-384.712696	-384.70537	-384.704426	-384.744205	29.263	
C	-0.0983167061	 1.5019897396	 0.0369073724	-0.508652
C	 0.0000558348	 0.0143440349	-0.0207169152	 0.340191
C	-0.0304559933	-0.8027573281	-1.0865260034	-0.190645
C	 0.0760474202	-2.2450055661	-0.6140513638	-0.206514
C	 1.3929868772	-2.4608352932	 0.1143858961	-0.080191
C	 1.4226808296	-1.6533764658	 1.1847556402	-0.088523
C	 0.1277653008	-0.8593161997	 1.2271415976	-0.260013
C	-0.7927139812	-2.0253153017	 0.6877912278	 0.428461
O	-1.7781037177	-2.5365715258	 1.1033844487	-0.31258
H	 0.8057985988	 1.9443935329	 0.4737853332	 0.131148
H	-0.2397329551	 1.9314708122	-0.9587408318	 0.128572
H	-0.9385305914	 1.8188646343	 0.6672885977	 0.133788
H	-0.1398512944	-0.5174436827	-2.1244660326	 0.104901
H	-0.2430254876	-3.0191114158	-1.3084470392	 0.081433
H	 2.1406805265	-3.1787305776	-0.1935709403	 0.110247
H	 2.1984132431	-1.5759662142	 1.9340576217	 0.109998
H	-0.1435749343	-0.3983104431	 2.175332291	 0.078379
