15
gdb 35154	2.47878	1.31381	1.01985	0.6847	86.28	-0.2386	0.0067	0.2452	1182.9341	0.108155	-346.232969	-346.223732	-346.222788	-346.266607	34.88	
C	-0.1021385035	-1.1853498579	-0.060850429	-0.437658
C	-0.0425301217	 0.0139652853	-0.00197541	 0.346578
C	 0.0055048368	 1.4414279405	 0.0563092211	-0.25201
C	 0.5043867899	 2.1586288258	 1.2800009389	-0.307759
C	 1.3786683983	 2.1901820712	 0.0283697002	-0.020268
C	 2.5869052415	 1.409237863	 0.0224536383	 0.27085
C	 3.6002503002	 0.764080881	 0.0170139459	-0.443438
C	 1.4101049335	 3.4124636177	-0.7335989245	 0.257531
C	 1.4184668039	 4.4345349486	-1.3660464111	-0.434081
H	-0.1464210056	-2.2448884951	-0.1129058286	 0.20052
H	-0.7598832401	 1.9568620235	-0.5148625411	 0.137037
H	 0.0187265134	 3.0861556535	 1.5575409319	 0.139495
H	 0.8693718335	 1.5504156331	 2.0979898547	 0.146825
H	 4.4954250247	 0.1931985849	 0.0081081383	 0.197424
H	 1.4377830451	 5.3350741449	-1.9283463851	 0.198954
