21
gdb 107202	3.76092	1.22253	1.10083	2.9313	81.2	-0.2267	0.0704	0.2971	1189.6957	0.185049	-383.236599	-383.228554	-383.22761	-383.269084	32.228	
C	-0.3602149528	 1.4681002846	 0.1341821188	-0.379197
C	 0.2024212857	 0.0610410859	-0.1035197552	-0.246627
C	 0.9100973887	-0.5018201083	 1.1099109462	 0.337398
C	 2.2338638831	 0.1410990241	 1.5605675028	-0.297772
C	 3.0428492578	-0.9647108082	 2.2314651571	-0.033002
N	 2.4181061697	-1.5346047716	 3.4431493154	-0.347079
C	 2.2803326254	-2.2380248994	 2.1468950138	-0.049031
C	 0.9581013852	-1.9582514585	 1.4554832024	-0.094176
N	 0.0258300798	-1.058576183	 2.1473968198	-0.375213
H	 0.4352794996	 2.1891914228	 0.35175268	 0.110588
H	-0.9032843215	 1.8302144905	-0.7441706176	 0.107972
H	-1.0508547183	 1.4618328191	 0.983065975	 0.131198
H	-0.6173150705	-0.6170429665	-0.3637119048	 0.103637
H	 0.8934458473	 0.072078759	-0.9571153009	 0.085845
H	 2.779022371	 0.5036576706	 0.6810533255	 0.102152
H	 2.0806027076	 0.9990376882	 2.2244873025	 0.113507
H	 4.1268632482	-0.9337432339	 2.1812030335	 0.088276
H	 3.1246557432	-1.993382545	 4.0124000716	 0.233347
H	 2.7585392449	-3.2021281178	 2.0167376821	 0.085259
H	 0.5150850441	-2.7383019687	 0.8435210467	 0.081476
H	 0.4016395017	-0.8801479337	 3.0790791352	 0.24144
