20
gdb 58643	2.25975	1.50105	1.11357	1.6434	74.58	-0.2487	0.0708	0.3195	1164.9563	0.170278	-440.228568	-440.219431	-440.218487	-440.262813	34.6	
C	 0.0900441681	 1.596721139	-0.0147004175	-0.420991
C	-0.0111293816	 0.0778193581	 0.0815380325	 0.045105
O	 0.6438907423	-0.3018567761	 1.2823335333	-0.443082
C	-1.4317642207	-0.4984335375	 0.0491927539	 0.266684
C	-2.5344128981	 0.1843657316	 0.7769945625	-0.27036
N	-2.5321440064	 0.1468231936	-0.6944955131	-0.360282
C	-1.5298098505	-1.9984290008	-0.0425095004	 0.061701
C	-0.5305020065	-2.8749658728	-0.6670121798	-0.20191
O	-0.6204296295	-2.7731951829	 0.7635232704	-0.251562
H	 1.1444071103	 1.8723088823	 0.0665605864	 0.136645
H	-0.2796984223	 1.9756609243	-0.9721376289	 0.112843
H	-0.4410982506	 2.0911440817	 0.803186713	 0.128968
H	 0.5290180271	-0.3328656403	-0.7895305696	 0.062176
H	 0.4795858799	-1.2484757373	 1.4036955181	 0.294902
H	-3.3153821868	-0.4065652145	 1.2483850671	 0.119857
H	-2.3143441213	 1.1201214773	 1.2797927999	 0.122851
H	-2.2260234028	 1.0430595329	-1.0629176088	 0.234953
H	-2.5568688236	-2.3617257133	-0.0178870006	 0.105511
H	-0.848132099	-3.8320537422	-1.0763870001	 0.126312
H	 0.3750668118	-2.464174293	-1.1052428684	 0.129677
