19
gdb 7354	4.13194	1.20927	0.95792	2.3149	70.64	-0.2343	0.0652	0.2995	1251.8269	0.163416	-402.245041	-402.2349	-402.233956	-402.281248	33.718	
C	 0.0479466512	 1.5063175518	-0.0752187744	-0.393118
C	 0.0388211368	-0.0087637121	-0.0003422126	-0.03149
O	 0.6626341805	-0.5035183035	-1.1966229284	-0.273454
C	 0.7331602717	-1.8567809711	-1.2862077154	 0.528538
O	 0.3058658147	-2.6036006747	-0.4290296068	-0.429521
N	 1.3363236612	-2.2585862747	-2.4447406396	-0.143195
C	 1.4900319615	-3.6783579521	-2.6954314184	-0.338001
C	 1.8428791778	-1.3588742886	-3.4629358303	-0.338492
H	 1.0705917349	 1.8892588976	-0.1398035236	 0.126205
H	-0.5070332055	 1.8587286692	-0.9495285731	 0.12621
H	-0.4200510478	 1.9246995994	 0.8208455885	 0.121965
H	 0.5897221521	-0.377388027	 0.870580741	 0.119744
H	-0.9781597181	-0.4078114203	 0.065581001	 0.11983
H	 0.9694421331	-3.968650764	-3.6175177675	 0.118163
H	 2.5503465313	-3.9402602176	-2.8077470851	 0.11817
H	 1.0694325018	-4.2276409222	-1.8551450996	 0.168319
H	 1.6737284478	-0.3269860782	-3.1680660357	 0.159583
H	 2.9197059565	-1.5144003096	-3.6133052155	 0.120283
H	 1.3414688984	-1.5417510222	-4.4229015045	 0.120262
