19
gdb 38464	2.93952	2.24751	1.80527	1.4381	79.18	-0.2267	0.0635	0.2902	840.7945	0.161788	-385.77364	-385.767701	-385.766757	-385.803337	27.073	
C	-0.0643339972	 1.6037831363	-0.1553631476	-0.20943
C	 1.5226005409	 1.6996248721	-0.0277731697	-0.06082
C	 2.2911605868	 1.7368424857	 1.3648077395	-0.338907
C	 1.5579960231	 0.3976147861	 1.6588900862	 0.347957
C	 1.1202720317	-1.0218673003	 2.1371926681	-0.321765
C	-0.2330659016	-0.3673673251	 1.6043667139	 0.042229
O	 0.2599832872	 0.8596944864	 2.1673311917	-0.281776
C	-0.0597662733	 0.0255392901	 0.0805319428	-0.07892
C	 1.4531035936	 0.1742744988	 0.1054983126	-0.004424
H	-0.6890343735	 2.2147572895	 0.4941679267	 0.110375
H	-0.3149738459	 1.8013353273	-1.2018642666	 0.092546
H	 2.007344147	 2.2227737157	-0.852796135	 0.067073
H	 3.3620102987	 1.6442054585	 1.161745881	 0.107313
H	 2.114039035	 2.5282599772	 2.096776827	 0.114059
H	 1.5592457956	-1.8904147381	 1.6380335512	 0.095103
H	 1.0527425637	-1.1586861052	 3.2166881972	 0.11402
H	-1.205912382	-0.6874604313	 1.9831955995	 0.078877
H	-0.5766812486	-0.5867027776	-0.6577981501	 0.06228
H	 2.1798983789	-0.531407936	-0.2964149684	 0.06421
