21
gdb 117234	3.85495	0.80309	0.77139	1.6232	81.73	-0.2628	0.0162	0.279	1619.2852	0.180997	-424.263131	-424.253048	-424.252103	-424.299042	36.158	
C	-0.1330131619	 1.4254185311	 0.5437048834	-0.39107
C	-0.0153986543	 0.0319492003	-0.0436021961	-0.041894
O	-1.3146541208	-0.5846403291	 0.0355858979	-0.251419
C	-1.4044335667	-1.8334571838	-0.4699144977	 0.45757
O	-0.4667011451	-2.4181496764	-0.9643533689	-0.381631
C	-2.7863429918	-2.3562049944	-0.3302733273	-0.150171
C	-3.241956385	-3.4402059009	-1.2910469946	-0.286487
C	-3.0295859263	-3.7931232739	 0.1447079781	 0.014833
C	-1.910538584	-4.708725772	 0.5867179735	-0.419781
H	 0.8375606941	 1.9288496982	 0.5039738878	 0.121976
H	-0.8557648216	 2.0254773729	-0.0163853959	 0.128919
H	-0.457060073	 1.3834892198	 1.5874492883	 0.128889
H	 0.3051262088	 0.0528455257	-1.0899851463	 0.121508
H	 0.7044625543	-0.5844358887	 0.5044510872	 0.119875
H	-3.5094044488	-1.6154302213	-0.0129196138	 0.09938
H	-4.2502654808	-3.3691549074	-1.6829128932	 0.114838
H	-2.4902895202	-3.7730548525	-1.9989261515	 0.137152
H	-3.9359084222	-3.8790467337	 0.7390286031	 0.092859
H	-1.0102285825	-4.5479725818	-0.008343792	 0.155745
H	-1.6582475029	-4.5427804375	 1.6398395204	 0.114059
H	-2.2163592393	-5.7552247445	 0.4793743676	 0.114848
