12
gdb 131446	3.47392	1.61213	1.11211	1.9858	56.68	-0.2144	0.0038	0.2182	973.0032	0.078364	-509.704254	-509.69753	-509.696586	-509.735542	25.077	
O	 0.1146671062	 1.3765498078	 0.0774776804	-0.413321
C	 0.0706551704	 0.0404137963	 0.0835602613	 0.341591
N	 0.078383	-0.6505830211	-1.0543671978	-0.276272
O	 0.0376044335	-2.0415862966	-0.6797732359	-0.229473
C	-0.000874321	-2.0395882993	 0.6347012987	 0.463832
C	 0.0047153504	-0.8208452952	 1.1940945772	 0.076142
O	 0.0636872689	-0.9334350453	 2.5734634257	-0.287163
C	-0.2315907378	-2.3250714933	 2.7700064386	 0.006031
O	 0.0158520954	-3.0517938596	 1.5179923765	-0.280915
H	 0.1612983058	 1.663445334	-0.8453878045	 0.317003
H	 0.4211357695	-2.733812672	 3.5416433034	 0.151187
H	-1.2943188111	-2.4513699755	 3.0170701364	 0.131359
