17
gdb 10715	2.55029	2.15649	1.34736	4.6717	64.62	-0.2496	0.0165	0.2661	928.167	0.141766	-401.019714	-401.011076	-401.010131	-401.053123	31.584	
N	 1.0605364724	-1.0926364372	 0.6522266458	-0.53915
C	-0.0865871027	-0.3650892155	 0.7561852207	 0.37703
O	-0.1000276271	 0.7022466706	 1.3588804716	-0.390105
C	-1.3245358598	-0.8890195955	 0.0805089589	 0.219187
C	-2.575697586	-0.103511012	 0.4552447858	-0.128398
O	-2.5078451813	 1.2518703405	 0.0780153422	-0.425708
C	-1.2038261162	-1.401083954	-1.3456379142	-0.282997
C	-1.4866300929	-2.3639495129	-0.2328971262	-0.326171
H	 1.8782203682	-0.7346669561	 1.1174125917	 0.265404
H	 1.0968128724	-2.0155256988	 0.2598654428	 0.260735
H	-3.437375633	-0.5381344093	-0.0640167712	 0.092034
H	-2.7524881803	-0.2139674536	 1.5368725573	 0.092352
H	-1.7382329862	 1.5954192048	 0.5553365308	 0.295594
H	-2.0074132388	-1.1383374837	-2.0245955822	 0.135608
H	-0.2188092586	-1.4052031121	-1.798759284	 0.119559
H	-0.7170341792	-3.0617404085	 0.0802154537	 0.107445
H	-2.4898028206	-2.7677883269	-0.1435545037	 0.127582
