20
gdb 17888	3.70902	1.85214	1.66307	1.3956	74.07	-0.2449	0.0895	0.3344	884.742	0.179527	-348.996132	-348.989029	-348.988085	-349.026984	28.494	
C	-0.1185808046	 1.5080030873	-0.0057009681	-0.433152
C	 0.0327679349	-0.0088210558	 0.014295819	 0.055425
C	 1.2041648854	-0.5926105191	-0.8303370613	-0.037748
C	 2.1143164956	-0.4376239703	 0.4218367172	-0.23267
C	 0.797448871	-0.6059972767	 1.2329123564	-0.037749
C	 0.4766670862	-2.1036540226	 1.3157877913	-0.073236
O	 0.9624278342	-2.8093250161	 0.1793807038	-0.261903
C	 0.9425188678	-2.0883184722	-1.0474493694	-0.073237
H	 0.8284281703	 2.0231916248	 0.1843352279	 0.116295
H	-0.4902995007	 1.8497291793	-0.9782273548	 0.113712
H	-0.8324177706	 1.8384723971	 0.7571789221	 0.113712
H	-0.9439498847	-0.4711958769	-0.1812379218	 0.056724
H	 1.4756744733	-0.0954679052	-1.7660124186	 0.058847
H	 2.8991222476	-1.1824216736	 0.5717084445	 0.103604
H	 2.5375808247	 0.5637019598	 0.5117684577	 0.097957
H	 0.6923480153	-0.121257715	 2.2077652391	 0.058847
H	 0.9680604653	-2.5667327199	 2.1793152503	 0.102328
H	-0.6112038614	-2.2466616776	 1.4304387439	 0.084957
H	-0.0201116066	-2.2272053806	-1.5681336118	 0.084957
H	 1.725990907	-2.5417827168	-1.6656167375	 0.102328
