15
gdb 56106	4.47558	0.85682	0.84239	2.7941	69.64	-0.2722	-0.0657	0.2065	1391.1891	0.108219	-457.773671	-457.763914	-457.76297	-457.809821	33.006	
C	-0.0442169797	 1.3064769837	-0.1800593875	-0.4835
C	 0.1805859482	-0.1811748664	-0.2299127227	 0.442043
O	 1.1634009643	-0.7674866505	 0.1378586061	-0.35015
O	-0.90746766	-0.807403814	-0.7600471207	-0.2255
C	-0.7576679496	-2.1960944434	-0.9821741698	-0.192151
C	 0.0292321792	-2.4739456018	-2.2629134492	 0.245885
O	 0.4886738902	-1.5973930679	-2.9546560949	-0.275212
C	 0.1731926166	-3.884434542	-2.5716285751	 0.246195
C	 0.268446231	-5.0623077183	-2.7997227323	-0.39676
H	 0.7382799171	 1.772894422	 0.4171117646	 0.150132
H	-0.0116891026	 1.7036290239	-1.1993335045	 0.165238
H	-1.0302549602	 1.5347030914	 0.2312087307	 0.148149
H	-0.2457788532	-2.6828270995	-0.145195298	 0.158714
H	-1.7637964705	-2.615653636	-1.0761270602	 0.145936
H	 0.3688288792	-6.0983431112	-3.0171025565	 0.220982
