18
gdb 60938	3.65028	1.1203	0.99317	2.0913	73.32	-0.2436	0.0209	0.2645	1208.3061	0.147074	-439.027833	-439.019461	-439.018517	-439.061524	30.689	
C	 1.3429073817	 0.1545714577	 0.8411018388	-0.353136
N	 0.102502728	-0.0141197017	 0.0988852799	-0.062031
C	-0.9986776342	 0.7196592205	 0.4436952573	 0.150997
O	-1.0706421117	 1.4801539003	 1.3851583073	-0.337581
C	 0.1484835481	-0.8197512003	-1.0916842591	 0.034971
C	 0.2893230464	-2.3757711794	-1.0167674353	 0.034679
C	-1.1586302309	-2.4976503263	-0.4960605443	-0.230546
C	-1.1259813521	-1.4913344609	-1.6743281861	 0.006828
O	-0.2282278167	-2.4133584895	-2.401878762	-0.301061
H	 1.6764752874	-0.7980588195	 1.2673889959	 0.128062
H	 2.1360640541	 0.5392083801	 0.1885020208	 0.128481
H	 1.1558768705	 0.8668486133	 1.6443906183	 0.172259
H	-1.8460843723	 0.5373118767	-0.2433028409	 0.080533
H	 0.7953104613	-0.390492898	-1.8642498928	 0.099734
H	 1.1689342592	-2.9784424608	-0.7921291819	 0.103002
H	-1.6465536555	-3.4453176963	-0.7233553058	 0.118778
H	-1.3844282385	-2.1262670576	 0.5042449498	 0.117244
H	-1.9444888447	-1.0451667384	-2.2385707898	 0.108788
