15
gdb 25888	4.18223	1.09738	0.87069	5.2033	70.39	-0.2077	0.0044	0.2121	1245.9978	0.114914	-450.208057	-450.199513	-450.198569	-450.241379	31.38	
N	-0.1248901937	 1.3167354041	-0.0105753968	-0.54222
C	 0.0374872524	-0.0347060884	 0.0204303641	 0.310764
O	 1.1243313937	-0.5904998498	 0.0549274891	-0.382575
C	-1.2388598538	-0.7829045778	 0.0078968935	 0.205365
C	-1.3767733867	-2.1413065245	 0.0238395719	-0.163721
N	-2.7397926955	-2.3666688802	 0.0055175428	-0.292377
C	-3.3542834576	-1.1433091684	-0.0175254455	 0.394188
N	-4.7354967301	-1.017032028	-0.1189268738	-0.599718
N	-2.4834147007	-0.1649475837	-0.0107417303	-0.391401
H	 0.6890163374	 1.9060551076	-0.0084063499	 0.254784
H	-1.0505735148	 1.7101061668	-0.0375588558	 0.267529
H	-0.6512932256	-2.9349190916	 0.0547400584	 0.155865
H	-3.1951544414	-3.2605859294	-0.0697954766	 0.268275
H	-5.2493236325	-1.5493394706	 0.5731791117	 0.251402
H	-4.9962209409	-0.0405087462	-0.0665888229	 0.263842
