18
gdb 17328	3.44795	2.13296	1.79801	1.8659	70.21	-0.2486	0.0863	0.3349	818.6142	0.154908	-347.78691	-347.780098	-347.779154	-347.817367	27.647	
C	 0.0165126544	 1.5488368889	 0.0278110334	-0.494158
C	 0.0632126538	 0.0398900443	 0.019711748	 0.33607
C	-0.8686226461	-0.7902273513	 0.8715975547	-0.322657
C	 0.6117663592	-0.7970731235	 1.1678364995	-0.087292
C	 1.4992659458	-1.9117993842	 0.6045991123	-0.262285
C	 1.3956442694	-1.7952975359	-0.9104433285	 0.043509
O	 0.074998241	-1.9879933943	-1.4376343707	-0.255591
C	 0.5427407668	-0.6442773389	-1.2494416476	-0.026318
H	 0.976059082	 1.9843479925	-0.2759408513	 0.11576
H	-0.7521262793	 1.9297563615	-0.655179109	 0.120602
H	-0.214616582	 1.9267141019	 1.0283080289	 0.117982
H	-1.5036700498	-0.2540818565	 1.5699833552	 0.101707
H	-1.3156465428	-1.6683275324	 0.4226016836	 0.131505
H	 0.9370661957	-0.312842756	 2.0830437284	 0.081541
H	 2.5416715468	-1.7482716517	 0.9024536356	 0.103539
H	 1.2147420564	-2.9106592126	 0.9538355684	 0.114781
H	 2.1993225054	-2.1621288968	-1.5457801827	 0.092519
H	 0.6543086833	-0.0611873951	-2.1605710583	 0.088788
