23
gdb 91401	2.78868	1.50007	1.32983	0.1208	88.7	-0.2309	0.0222	0.2531	1105.6383	0.209855	-351.185106	-351.177478	-351.176533	-351.216569	32.39	
C	 0.0991176649	 1.6233903629	 0.0087255444	-0.404446
C	 0.016275274	 0.0942886131	 0.0021582076	 0.061016
C	 0.6040382136	-0.5006702371	-1.301718687	-0.20422
C	 0.8347937219	-2.0327183711	-1.2061058153	-0.055766
C	 1.8150397805	-2.2901628152	-0.0420763472	-0.204066
C	 0.8764764122	-2.0451375262	 1.1584185882	-0.055766
C	 0.6495115708	-0.5142216305	 1.278191546	-0.204222
C	-0.3871823541	-2.7389683488	 0.6616375722	-0.071488
C	-0.4107011127	-2.7319597641	-0.6724072101	-0.071483
H	 1.1407670626	 1.9655154174	-0.0078800577	 0.109097
H	-0.4039737305	 2.0521178765	-0.8651988687	 0.106831
H	-0.3727112326	 2.0428271311	 0.9043265931	 0.106831
H	-1.0453679916	-0.177641836	 0.0194420471	 0.07742
H	-0.0650374881	-0.2582209787	-2.1365014562	 0.087621
H	 1.5670351841	-0.0233041235	-1.5288688424	 0.088819
H	 1.182859494	-2.4227479622	-2.1673062943	 0.056595
H	 2.1646836201	-3.327165624	-0.0536852088	 0.088789
H	 2.6858260079	-1.6259290827	-0.0539381182	 0.081524
H	 1.2581350448	-2.4451732206	 2.1026045174	 0.056596
H	 1.6200001616	-0.0390852248	 1.4762719208	 0.088819
H	 0.0103081921	-0.2806841915	 2.1385320048	 0.087621
H	-1.1743557834	-3.096291212	 1.316009037	 0.08694
H	-1.2205176121	-3.0825338223	-1.3023426528	 0.086939
