20
gdb 83307	3.04148	1.1481	1.05619	2.528	79.11	-0.2322	-0.0229	0.2092	1226.4464	0.171132	-403.13869	-403.129908	-403.128963	-403.172844	32.399	
C	 0.0132652228	 1.6309205191	 0.188355079	-0.428372
C	 0.0160068514	 0.1329152354	-0.0192812727	 0.005406
C	 0.459265991	-0.5588081594	-1.2620082361	-0.071217
C	 1.2571618673	 0.221483544	-2.3084987701	-0.077049
C	 2.5495809525	 0.6754422678	-1.5623349731	-0.269876
C	 2.5080333269	-0.0171839709	-0.1716348433	-0.155628
N	 1.2235903599	-0.7170565706	-0.0108739156	-0.108504
C	 1.6041106965	-0.6806609506	-3.475438762	 0.14712
O	 1.304927618	-0.4734436023	-4.6219829844	-0.251062
H	 0.7135054801	 2.1696177468	-0.4517967659	 0.123745
H	-0.9880772192	 2.0240494314	-0.0161470349	 0.129677
H	 0.2521112519	 1.8742340434	 1.2296916732	 0.128931
H	-0.7960275279	-0.3555535883	 0.51853407	 0.095225
H	-0.0890385771	-1.433101026	-1.6077280584	 0.095093
H	 0.697127586	 1.0700928348	-2.7109750052	 0.099717
H	 3.4485536785	 0.3845582659	-2.1164792836	 0.112778
H	 2.577261629	 1.7640217518	-1.4820611738	 0.121264
H	 3.2968151676	-0.77145176	-0.0917346929	 0.113205
H	 2.6614693334	 0.6940152497	 0.6465762175	 0.110339
H	 2.1897873614	-1.586730932	-3.1879083278	 0.079206
