17
gdb 110240	1.99043	1.69221	1.09592	3.5177	69.79	-0.2404	-0.0105	0.23	1128.0214	0.133097	-458.931756	-458.922743	-458.921799	-458.965742	32.79	
C	 0.2871120866	 0.9857788872	 0.3673623573	-0.243662
O	-0.4103297659	-0.0303736036	-0.3357399698	-0.239008
C	 0.3500727514	-0.6300112227	-1.3267885855	 0.051287
C	 1.4576451606	-1.6542481742	-1.0299683444	-0.311095
C	 1.0371564314	-2.5114075826	 0.1269662957	 0.452145
O	 1.5944143953	-2.8784624299	 1.1220618638	-0.320729
C	-0.3180286487	-2.883606755	-0.5211099756	-0.420442
C	 0.1058225029	-2.0271108578	-1.729305233	 0.333477
O	-0.027441739	-2.4274751825	-3.0413397683	-0.454542
H	 1.1792293143	 0.5850499051	 0.8663861403	 0.130496
H	 0.5932752498	 1.8004565293	-0.3049886289	 0.110461
H	-0.3999393294	 1.3816976966	 1.1175155079	 0.135244
H	 0.6368555027	 0.0320958403	-2.1479283309	 0.101188
H	 2.4583376702	-1.5208235874	-1.4227818303	 0.11504
H	-0.33336177	-3.9486520116	-0.7696820612	 0.135795
H	-1.2291349664	-2.602203878	 0.0103023119	 0.12948
H	-0.8736051559	-2.1077520634	-3.374655619	 0.294866
