18
gdb 41110	3.5206	1.92861	1.56262	1.6184	79.03	-0.2079	0.0003	0.2082	884.6437	0.150453	-364.752185	-364.74594	-364.744996	-364.782305	27.02	
C	-0.0418422806	 1.4224505328	 0.217255509	-0.231129
C	 1.4543707953	 1.5835983195	-0.2057693904	-0.325642
C	 1.4305999062	 0.1486751643	-0.7166709025	 0.340697
C	 2.3867869312	-0.9927941856	-0.661135455	-0.199142
C	 1.8450689464	-1.9740090703	-1.3943555587	-0.091775
C	 0.6322788636	-1.4408699425	-2.0783429291	-0.082404
C	-0.4271850914	-0.6348892775	-1.326052525	-0.058799
C	 0.0383117479	-0.1282894351	 0.0030693488	-0.083459
N	 0.7098810798	 0.027241364	-2.0708768173	-0.159423
H	-0.2660668225	 1.7196030045	 1.2433271934	 0.102306
H	-0.7467431982	 1.9199647188	-0.4523589416	 0.113268
H	 1.6924686936	 2.3481040576	-0.9491932202	 0.11044
H	 2.1150814214	 1.7039837605	 0.6580118522	 0.102658
H	 3.2357292539	-1.0618928049	 0.0068521704	 0.106399
H	 2.1881302809	-2.9963147074	-1.4839162023	 0.10605
H	 0.294180154	-1.8827590941	-3.0112506282	 0.09237
H	-1.4448686023	-0.6165925654	-1.7099270727	 0.090671
H	-0.0691798693	-0.7416694693	 0.9002025289	 0.066914
