14
gdb 25161	3.17839	1.24846	0.97547	4.5482	67.62	-0.2124	0.0127	0.2251	1144.9662	0.102437	-432.929823	-432.921914	-432.92097	-432.963249	28.467	
O	-0.0651790213	-0.0480255424	-0.3246589317	-0.437907
C	-0.0592222016	 1.1520605518	-0.1268518857	 0.484734
N	-1.1193231372	 2.037547645	-0.0561233084	-0.36886
C	-0.6770960971	 3.3369563979	 0.1821582094	-0.082045
C	 0.6668274512	 3.2983358927	 0.2620570605	-0.109662
N	 1.0564715226	 1.9697962524	 0.0753844224	-0.100394
C	 2.3897064468	 1.4227944814	 0.0591689828	-0.299083
C	 3.1168624734	 1.6456512238	 1.3166550116	 0.266781
N	 3.6988565397	 1.8452848223	 2.2939111734	-0.298365
H	-2.0710917754	 1.7348866113	-0.1630339592	 0.276189
H	-1.356631064	 4.1655051154	 0.2769406182	 0.150707
H	 1.3808265306	 4.0809890592	 0.451093368	 0.155547
H	 2.2715155665	 0.3477778263	-0.1172193916	 0.198895
H	 2.9840837258	 1.837399913	-0.7644986597	 0.163463
