18
gdb 72768	2.7421	1.8129	1.50264	3.5992	75.27	-0.2356	0.0088	0.2445	947.4334	0.148989	-401.907821	-401.900578	-401.899634	-401.939051	29.343	
C	-0.1427654035	 1.5499118172	-0.1624234677	-0.456302
C	-0.0655582942	 0.0223485267	-0.1175103188	 0.198038
C	-1.2096247209	-0.5934929155	 0.7657202639	-0.160871
O	-0.2602147523	-0.7581876275	 1.8960787096	-0.270628
C	 0.7510213221	-0.5736432749	 0.9876818529	 0.363662
N	 1.8630659275	-1.1439822222	 0.7787876607	-0.295876
C	 1.9984286196	-1.0853779302	-0.6752211543	 0.005734
C	 1.0447222425	-2.0205368779	-1.3715667756	-0.305607
C	 0.6682495916	-0.5604413291	-1.3061105204	-0.145099
H	 0.8187338946	 1.9749965824	-0.4637392034	 0.133483
H	-0.8994824751	 1.8737658734	-0.8853826753	 0.122098
H	-0.406058431	 1.9624254136	 0.8158689861	 0.130874
H	-2.030749857	 0.0700199251	 1.0412926824	 0.124759
H	-1.5714900304	-1.57424385	 0.4485166386	 0.129397
H	 2.9789883578	-0.8816594303	-1.0878285552	 0.096685
H	 1.3232394066	-2.3852108985	-2.3550701431	 0.117926
H	 0.5292052313	-2.7489196618	-0.753083882	 0.12213
H	 0.6870966208	 0.0052201495	-2.2300587183	 0.089599
