13
gdb 47270	2.48915	1.84264	1.13174	5.0547	62.98	-0.2793	-0.1059	0.1734	996.0163	0.089778	-489.891265	-489.883875	-489.882931	-489.923759	26.899	
N	-0.0115079401	 1.0106698689	 0.832670634	-0.462883
C	 0.0363293545	-0.0386505775	 0.1380624107	 0.329252
O	 1.2013440623	-0.6976138972	-0.162173591	-0.230693
C	 1.0893789553	-1.6580352668	-1.1905916069	-0.025883
O	 0.1476808953	-2.6602624685	-0.8722603676	-0.230693
C	-1.1248792724	-2.2016233845	-0.6445012518	 0.329252
N	-2.1373536221	-2.949123347	-0.5999829305	-0.462883
C	-1.2458775589	-0.7095821143	-0.3469012437	 0.220491
O	-2.2826275756	-0.1164197211	-0.4479933141	-0.236962
H	 0.9287746335	 1.3071395446	 1.105254652	 0.242288
H	 0.8179998008	-1.1699210487	-2.1370317223	 0.131202
H	 2.0580145531	-2.147730648	-1.2744065462	 0.155222
H	-1.8779348758	-3.92089232	-0.7862478325	 0.242288
