16
gdb 45889	2.45726	2.02017	1.21999	1.427	71.1	-0.2557	-0.0123	0.2435	978.7058	0.127598	-434.084086	-434.076978	-434.076034	-434.115607	27.555	
O	-0.0864609819	-0.1100761122	 0.1540189625	-0.367656
C	-0.0192599545	 1.0961335215	 0.0948981396	 0.402504
N	-1.1696740185	 1.8717433134	-0.1285645853	-0.343573
C	-1.4414969557	 3.2104702754	 0.1464729251	 0.102344
N	-0.8331003048	 4.036487795	 0.8948561408	-0.231959
C	 0.3086469603	 3.5624081055	 1.6717197345	-0.199893
C	 1.4253197873	 3.0394059384	 0.7975447038	-0.016832
C	 2.1533390582	 1.7711992422	 1.1392019952	-0.253973
N	 1.170239712	 1.8095434634	 0.075747424	-0.091575
H	-1.9505828069	 1.3069644052	-0.4334584778	 0.263529
H	-2.3458689896	 3.5475281524	-0.3625326713	 0.122587
H	 0.6709581313	 4.3895340859	 2.2893592541	 0.116609
H	-0.0106101779	 2.7595645483	 2.3556413931	 0.113181
H	 1.9479675147	 3.7941351593	 0.2134803675	 0.114053
H	 3.1828804357	 1.629435727	 0.8244115999	 0.133094
H	 1.8746279904	 1.2562474593	 2.0551638242	 0.137561
