21
gdb 87807	2.83169	1.33627	1.14065	2.4432	82.87	-0.217	0.0713	0.2883	1179.4996	0.182426	-383.199661	-383.190831	-383.189887	-383.232845	34.221	
C	 0.4155277962	 1.8906508679	 0.3737929876	-0.393714
C	 0.4201831122	 0.3812438841	 0.3562800598	-0.082755
N	 1.7485103847	-0.2714570315	 0.3233691367	-0.394528
C	 0.8985550146	-0.4337008683	 1.498629623	 0.357571
C	 1.3805797117	-0.0960313952	 2.9100640733	-0.242578
N	 0.9278628185	-1.4431156423	 3.4277781345	-0.151291
C	-0.5284272035	-1.5604414735	 3.1862417455	 0.022489
C	-1.5283722545	-0.4382224141	 3.345654928	-0.428311
C	 0.3831410025	-1.7504132592	 2.0338527414	-0.157456
H	 1.2168713273	 2.2704631863	 1.0132344004	 0.127889
H	 0.5708385459	 2.2927447819	-0.633069623	 0.122406
H	-0.5398726544	 2.2763964529	 0.7467327231	 0.115265
H	-0.3631060664	-0.0738468524	-0.2502654537	 0.081098
H	 1.7236585408	-1.1108790903	-0.2518473749	 0.228827
H	 2.4684464734	-0.0307650504	 2.9726273947	 0.124023
H	 0.9339023182	 0.7610079719	 3.4233336032	 0.102173
H	-0.8755327751	-2.4982807681	 3.6186832304	 0.095665
H	-1.249866447	 0.4644532236	 2.7991572232	 0.132481
H	-2.5050083189	-0.7624859664	 2.9711575787	 0.122642
H	-1.6488931228	-0.1767935638	 4.402690766	 0.126744
H	 0.5417375068	-2.714843893	 1.5565841222	 0.091362
