19
gdb 95864	3.01596	1.17707	0.89113	4.8436	77.51	-0.235	0.0158	0.2508	1294.8148	0.160478	-419.208374	-419.199887	-419.198943	-419.24141	31.967	
C	-0.0174427605	 1.4645860047	-0.0154290822	-0.319789
N	-0.0134145369	 0.0113508506	 0.0255726719	-0.081788
C	-1.3558058036	-0.5542988871	-0.0642342422	-0.149451
C	-1.2670118253	-2.0757544193	-0.106215661	-0.084812
O	-0.5751503158	-2.5830914367	 1.0298991991	-0.254443
C	 0.7272560651	-2.0354968622	 1.1124259821	-0.030651
C	 0.6822863598	-0.5001663913	 1.1969476711	-0.158667
C	 1.3888861331	-2.6101841647	 2.2904567533	 0.279995
N	 1.9435383	-3.0312996883	 3.2113298832	-0.314327
H	 1.0113497063	 1.8376724833	-0.0018005721	 0.123909
H	-0.4913541402	 1.803828682	-0.9416802732	 0.123363
H	-0.5588852582	 1.9218680233	 0.8336625765	 0.100856
H	-1.990069632	-0.2486881184	 0.7904594839	 0.090442
H	-1.8345801221	-0.1912470081	-0.9804963131	 0.107333
H	-2.2605091171	-2.5292438377	-0.0807831647	 0.120126
H	-0.7547280817	-2.3909855922	-1.0285044793	 0.102746
H	 1.3107686745	-2.3131944113	 0.2187457012	 0.120415
H	 1.7037022283	-0.10645263	 1.2157592109	 0.121884
H	 0.1899152763	-0.2150797867	 2.1459957944	 0.102857
