23
gdb 107965	2.57052	1.35197	1.30367	0.2908	90.34	-0.2681	0.0928	0.3609	1180.0421	0.20529	-351.098324	-351.08938	-351.088436	-351.13159	35.241	
C	-0.0811781593	 1.5383743925	 0.0211904501	-0.37673
C	 0.0379956542	 0.0108505883	-0.0557819573	-0.319724
C	 0.7042533747	-0.4732033854	-1.3190016658	 0.34622
C	 0.2637468368	-0.2593361924	-2.7867351061	-0.322882
C	 1.5497824958	-1.0967957407	-2.8956263563	-0.079939
C	 2.2288144049	-0.3560294251	-1.6981932288	-0.078855
C	 2.5878707336	-1.6742297851	-0.9898915083	-0.316194
C	 1.2033646384	-1.9481190407	-1.6191168499	 0.311562
C	 0.3820670192	-3.2080359467	-1.5627600074	-0.522733
H	 0.9051095378	 2.0131782818	-0.0110717942	 0.116984
H	-0.6659564862	 1.9321824433	-0.8165948891	 0.118701
H	-0.5733219321	 1.8502427542	 0.94752776	 0.110085
H	 0.5992969807	-0.3584714829	 0.8128892549	 0.096806
H	-0.9623101907	-0.4378780135	 0.0156011026	 0.096312
H	-0.6720887071	-0.7363969329	-3.0989261735	 0.085107
H	 0.3118082122	 0.7648093442	-3.1724163688	 0.086685
H	 2.0596427781	-1.4655326862	-3.7879426332	 0.062111
H	 2.8031422322	 0.5696759497	-1.7666176447	 0.062914
H	 3.4312797307	-2.2393046901	-1.4024881547	 0.084206
H	 2.6443365763	-1.6567814033	 0.1042098597	 0.085754
H	 0.1304178461	-3.4706704552	-0.5287689634	 0.117566
H	-0.5568237327	-3.0996235044	-2.1175190074	 0.117782
H	 0.9283450368	-4.0540859994	-1.9951134785	 0.118261
