16
gdb 87304	2.22777	1.33199	0.96331	4.2528	75.69	-0.277	0.0016	0.2786	1240.8408	0.120814	-400.705384	-400.695873	-400.694929	-400.740195	33.833	
C	 0.1082527488	 1.5055136152	-0.1664807695	-0.432721
C	 0.0792201725	 0.0170022482	 0.0585176276	 0.037391
O	 1.3249486713	-0.6840143962	 0.1163431626	-0.260607
C	 0.5264531734	-0.6668111608	 1.2989603607	 0.214236
C	 1.0914278191	 0.0693869463	 2.5118638042	-0.441682
C	 2.1283108671	-0.6936514189	 3.1961287928	 0.309703
C	 2.9786569678	-1.3322601019	 3.7530796371	-0.420057
C	-0.1133553445	-1.9370799176	 1.6159489337	 0.275078
N	-0.6505348222	-2.9259369685	 1.878014493	-0.328657
H	 0.9018880342	 1.9975313961	 0.3977554217	 0.137028
H	 0.2773199134	 1.7075901988	-1.2288918849	 0.145914
H	-0.8537205467	 1.9492102263	 0.1095258573	 0.138723
H	-0.6845294081	-0.5123051982	-0.5132622519	 0.118224
H	 1.4936036166	 1.0305208074	 2.1814102949	 0.14718
H	 0.2664975137	 0.2851209333	 3.2027434767	 0.152289
H	 3.7296104336	-1.8992454796	 4.2455975241	 0.207959
