21
gdb 73508	2.95315	1.64596	1.31543	0.9376	89.1	-0.2024	0.0239	0.2262	1052.4056	0.183994	-349.918708	-349.910975	-349.910031	-349.950221	32.186	
C	-0.0116865567	 1.6057713247	-0.2384889213	-0.456123
C	-0.0476129839	 0.0882593857	-0.0294770189	 0.292311
C	 1.0689984817	-0.5898181302	-0.8634924796	-0.283438
C	 2.251484638	-0.6838085304	 0.152875428	-0.242434
C	 1.5122941711	-0.9469367529	 1.4658191987	-0.23713
C	 0.2619946507	-0.5033059213	 1.3467478147	 0.269716
C	-1.125479253	-0.9392714104	 1.6320154647	-0.145008
C	-2.1747416135	 0.0891131277	 1.2988588419	-0.298686
C	-1.4585754578	-0.5485992644	 0.1478197462	-0.119398
H	 1.0161793965	 1.977182753	-0.1708116093	 0.118863
H	-0.3900037953	 1.8604956234	-1.2354233243	 0.112291
H	-0.6030511792	 2.1594371483	 0.4939275977	 0.111796
H	 0.7708458576	-1.6057914246	-1.145700793	 0.096253
H	 1.3186726982	-0.0442717902	-1.7804435504	 0.083833
H	 2.9347456928	-1.5028954723	-0.0951273156	 0.098391
H	 2.8599968182	 0.2317635585	 0.1627297128	 0.09989
H	 1.9044138506	-1.5819654484	 2.2517048276	 0.084277
H	-1.3828670245	-1.8474123849	 2.1639163273	 0.094288
H	-3.1924345028	-0.2575133127	 1.4546636713	 0.11417
H	-2.0345811401	 1.1358450025	 1.5473385808	 0.114
H	-1.9725526485	-1.1658143611	-0.5805822794	 0.092138
