18
gdb 51342	6.27009	0.90497	0.88919	3.3421	79.77	-0.2541	0.0266	0.2807	1337.9212	0.148141	-401.865373	-401.857767	-401.856822	-401.89875	28.729	
N	-0.0680835048	 1.332553217	 0.1390305413	-0.444923
C	-0.0197200139	 0.0709428894	 0.1210594571	 0.123468
O	-1.1169422554	-0.6452265625	-0.1832097782	-0.207195
C	-1.0272178266	-2.0584053684	-0.0628041596	 0.147104
C	-1.6912513164	-2.7069270932	 1.1615621242	-0.090519
C	-3.1326329213	-2.5020653451	 0.5679125161	-0.029332
C	-3.4956888032	-3.9872389944	 0.7601309359	-0.2652
C	-2.0124394921	-4.0053227908	 0.340676481	-0.047905
C	-2.2092013583	-2.815405426	-0.6649745844	-0.089917
H	 0.8504849056	 1.7092151828	 0.3637697758	 0.226805
H	 0.8652600087	-0.5492756298	 0.3243419866	 0.080838
H	-0.0195559003	-2.4024079966	-0.3297125726	 0.078157
H	-1.4075337927	-2.6578983242	 2.2133258811	 0.077391
H	-3.7521423899	-1.6154997919	 0.6897336975	 0.092988
H	-3.7220040296	-4.3122029916	 1.780507622	 0.096419
H	-4.2122252089	-4.4158782154	 0.0524197569	 0.096873
H	-1.341204392	-4.8535022774	 0.1997112589	 0.074484
H	-2.5173250388	-2.888405032	-1.7078406596	 0.080465
