19
gdb 84022	2.17409	1.61914	1.40036	2.0084	70.73	-0.2415	0.0608	0.3023	1036.8144	0.15994	-460.138008	-460.129704	-460.12876	-460.170302	32.828	
O	 0.1003829836	 1.3410092808	-0.1903006368	-0.415078
C	 0.0226387997	-0.0483726469	-0.0570427334	 0.006199
C	-0.4715766676	-0.6822975465	 1.242713887	-0.153217
C	-0.9027314704	 0.1940162787	 2.414407398	-0.098344
O	-2.2791236454	 0.5279015339	 2.4052897696	-0.239922
C	-2.6694222742	 1.1399496153	 1.188748979	-0.089152
C	-2.6128573458	 0.1386455881	 0.0246110513	-0.285154
C	-1.3350430743	-0.6835431575	 0.0056167146	 0.371408
O	-1.4539175443	-1.9429987236	-0.6060667274	-0.465908
H	 0.8694090858	 1.6505309166	 0.3009836586	 0.291755
H	 0.7774819279	-0.6102560691	-0.60640376	 0.08899
H	-0.0197724193	-1.6354176085	 1.4953109541	 0.102126
H	-0.7336523849	-0.3391235982	 3.3531035653	 0.111796
H	-0.2997539066	 1.1178201966	 2.443098479	 0.074013
H	-3.6964186002	 1.4860567663	 1.3353959236	 0.103912
H	-2.036118369	 2.0113955985	 0.9767860626	 0.105758
H	-3.433390864	-0.5781764014	 0.1349343627	 0.115192
H	-2.7559235555	 0.6667348127	-0.9267959017	 0.096306
H	-1.6007126756	-1.7988064958	-1.5482092461	 0.279319
