15
gdb 17218	5.56485	1.70715	1.54128	1.8483	72.27	-0.2399	0.0229	0.2628	833.9192	0.119569	-325.433382	-325.426981	-325.426037	-325.463609	25.604	
C	 0.0310069853	-1.137694071	-0.0705613418	-0.377169
C	 0.0242311056	 0.0632628249	 0.0007464687	 0.16035
C	-0.00418082	 1.48092697	 0.1228108418	 0.201936
C	-1.1343020839	 2.3423231208	 0.6752675799	-0.296059
C	-0.4476279131	 3.4784707518	-0.0996659089	-0.017182
C	 0.9114107637	 3.714079281	 0.5883018178	-0.239341
C	 1.236300447	 2.3341104869	 0.0508575193	-0.07377
N	 0.2253175301	 2.4287808823	-1.0498187823	-0.188826
H	 0.0400096055	-2.1969147558	-0.1437266585	 0.187916
H	-2.0846243076	 2.0572301086	 0.218835097	 0.123156
H	-1.2501100373	 2.4389253551	 1.7593903466	 0.102555
H	-1.0195578385	 4.2945953343	-0.5345252819	 0.091944
H	 1.4966741484	 4.4755943654	 0.0667495362	 0.118241
H	 0.9303336867	 3.8994787531	 1.6669600927	 0.102424
H	 2.2062171183	 1.8803000826	-0.1172843067	 0.103824
