16
gdb 47066	3.17397	1.5514	1.27958	3.5978	64.24	-0.2602	0.0411	0.3013	980.2158	0.126964	-475.047082	-475.039969	-475.039025	-475.079014	27.032	
O	 0.1288135354	 0.0043483642	 0.0801046061	-0.374486
C	 0.0437861216	 1.1970473962	-0.0482950468	 0.440081
N	-1.0071008055	 1.9593278017	 0.3971790156	-0.358143
C	-1.3339615363	 3.2550443398	-0.1837216674	-0.192986
C	-0.0882335433	 4.1202810822	-0.211870212	 0.112421
O	 0.346307755	 4.5303635513	 1.0994688647	-0.289174
C	 1.5387920925	 3.7176363678	 1.0251331161	-0.100086
C	 1.1956211973	 3.2864426551	-0.4166673106	 0.058972
O	 1.0389871459	 1.9001360408	-0.6742259168	-0.247414
H	-1.7628239268	 1.3989561457	 0.7599637031	 0.26179
H	-1.7311545209	 3.160743439	-1.2062852122	 0.115553
H	-2.0978102356	 3.7362525783	 0.4333015595	 0.133451
H	-0.2254652185	 4.9777217649	-0.880464499	 0.087083
H	 2.4513000952	 4.312488606	 1.1414077121	 0.113063
H	 1.5342403037	 2.9008946892	 1.7555694019	 0.126972
H	 1.8804216203	 3.6454938877	-1.1838302042	 0.112904
