15
gdb 87474	3.82421	1.22072	1.10757	3.3811	66.78	-0.2652	-0.0246	0.2406	1102.0904	0.109908	-457.671279	-457.663471	-457.662527	-457.703742	29.154	
C	-0.0039455705	 1.5380634265	-0.0979913262	-0.414463
C	-0.0249487909	 0.0417015503	 0.0500398707	-0.06208
O	 1.2537111228	-0.6500881089	-0.1100354129	-0.294639
C	 0.6353366532	-0.6583003472	 1.1377241331	 0.520007
C	 1.1713971363	-0.2499958253	 2.5238959321	-0.205568
O	-0.0923537106	-0.8099452387	 3.0746146567	-0.294891
C	 0.2620626998	-1.8368992593	 2.0569400587	-0.205683
C	 1.696408225	-1.7161256189	 2.664797055	 0.490087
O	 2.583173867	-2.3561335153	 3.1152940611	-0.297325
H	 0.8527880203	 1.9709935692	 0.4239747285	 0.130457
H	 0.0574085076	 1.817207306	-1.1545049933	 0.13857
H	-0.921883697	 1.9703063603	 0.3136928353	 0.136575
H	-0.8461379176	-0.4738604131	-0.4484021363	 0.110876
H	 1.5237580913	 0.7011470537	 2.914261684	 0.123742
H	-0.4141219768	-2.6761277194	 1.9164191034	 0.124336
