23
gdb 101023	2.13584	1.28626	0.92006	1.6809	81.47	-0.2597	0.0761	0.3358	1381.5044	0.203718	-425.413742	-425.403286	-425.402342	-425.44911	38.975	
C	-0.4434893186	 1.2036722444	-0.1180074036	-0.384068
C	-0.1207777889	-0.286875958	 0.0142909689	-0.191277
C	 0.8361542859	-0.5729583035	 1.1836649339	 0.054339
O	 0.3050448721	-0.0710814104	 2.4000679112	-0.43477
C	 1.1990664337	-2.0579003022	 1.3466169521	 0.386839
C	 1.6743297734	-2.8336975027	 0.1210516774	-0.28224
C	 0.5584066272	-3.5671985344	-0.636553958	-0.373686
C	 1.6042642583	-2.5084996799	 2.6869594483	-0.225111
O	 0.2741835431	-2.76327867	 2.2016098013	-0.293965
H	 0.4605712898	 1.7844397511	-0.334264801	 0.110503
H	-1.156194571	 1.3818576589	-0.9287089799	 0.10762
H	-0.8701513011	 1.5872435679	 0.8115371748	 0.133914
H	-1.0452498198	-0.8582131759	 0.170007165	 0.100658
H	 0.3227411549	-0.6521878437	-0.9187321808	 0.098571
H	 1.7708005179	-0.0198321584	 1.0132212294	 0.087483
H	-0.3272447367	-0.7411052135	 2.6974127344	 0.28809
H	 2.2005382768	-2.1423707114	-0.548375719	 0.104823
H	 2.4192476165	-3.5706864029	 0.4391390651	 0.102755
H	 0.9821832996	-4.1657938256	-1.4483273147	 0.111748
H	 0.0210902536	-4.2356122834	 0.0407891805	 0.136328
H	-0.1690382785	-2.8787675536	-1.073403803	 0.121999
H	 2.2317883123	-3.3932560518	 2.7808239636	 0.111918
H	 1.6636086796	-1.7925424708	 3.5019275342	 0.127526
