15
gdb 131131	3.82677	1.07098	0.97136	3.4807	67.77	-0.2483	-0.0352	0.2131	1195.7049	0.113404	-453.968827	-453.960881	-453.959937	-454.002421	28.852	
O	-0.2680398002	 1.3811448748	 0.0953664157	-0.429845
C	-0.005419964	 0.0071401826	 0.0558509076	-0.035682
C	 0.8506329985	-0.3267553165	-1.1625388761	 0.130917
O	 1.1852891634	 0.5262568657	-1.9473696735	-0.259533
C	 0.7070004149	-0.4633277487	 1.2992094095	 0.296495
N	 0.740779916	-1.7580766037	 1.6103249752	-0.299523
N	 1.483831938	-1.8072595684	 2.7319952598	-0.179368
C	 1.9124364534	-0.5885618559	 3.1402875704	-0.021154
C	 1.4302405348	 0.3210973972	 2.2241616074	-0.268903
H	 0.1450193371	 1.7426659232	-0.7058972403	 0.29546
H	-0.9358749232	-0.5771024605	-0.0512979842	 0.113903
H	 1.1457628078	-1.3876179878	-1.2691275933	 0.118075
H	 1.6372958672	-2.6970072523	 3.1753204189	 0.278033
H	 2.5076325981	-0.4669879472	 4.0314500305	 0.138171
H	 1.553717898	 1.3900788674	 2.2202454421	 0.122954
