17
gdb 30392	2.91302	1.35056	0.93337	2.9978	83.14	-0.222	-0.0209	0.2011	1238.9453	0.135762	-418.044952	-418.036306	-418.035362	-418.078664	31.208	
C	 0.0580609075	 1.421934277	-0.0194544554	-0.328405
N	 0.0198141247	-0.0263074414	-0.0453159945	-0.313309
C	-1.0961671763	-0.6382224347	 0.0548424246	 0.349378
C	-1.140189233	-2.0975674883	 0.0293579527	-0.185011
C	-2.3120766358	-2.7241569943	 0.1348727593	 0.039951
O	-3.4958275358	-2.0470083065	 0.2682965829	-0.227713
C	-3.4166197231	-0.6789634275	 0.2883401424	 0.403711
C	-4.7745479513	-0.07060475	 0.4380134001	-0.468497
N	-2.3508966147	 0.0079019518	 0.1947949179	-0.35209
H	 0.7073098041	 1.7440573032	 0.8044085781	 0.11908
H	 0.5322888384	 1.7798461833	-0.9419640944	 0.11907
H	-0.9201470213	 1.902062989	 0.088468445	 0.123359
H	-0.2169220711	-2.6514221904	-0.0752411511	 0.125276
H	-2.4691473623	-3.7945604873	 0.1287995739	 0.140265
H	-5.2442176616	-0.4167532156	 1.3643585597	 0.149641
H	-4.6865910239	 1.0144501228	 0.4511257729	 0.155659
H	-5.4215388746	-0.381251921	-0.388673074	 0.149634
