17
gdb 64950	4.25295	0.6173	0.58783	2.3523	80.57	-0.2395	-0.0304	0.2092	1867.3832	0.132353	-421.785992	-421.776188	-421.775244	-421.822992	34.316	
O	-0.4020831968	 1.1850495512	-0.5285829634	-0.442455
C	-0.073351858	-0.0864774867	-0.0306410625	 0.228056
C	-0.3036765767	-0.3363044789	 1.4526158019	-0.312261
C	-1.2656492851	-0.8849398043	 0.4302900564	-0.288396
C	 1.0253270537	-0.7461337053	-0.6879847378	 0.114522
C	 1.9755877608	-1.2486872758	-1.2344358013	-0.029199
C	 3.0673998541	-1.9133106794	-1.9291565421	-0.416757
C	 2.5776337261	-3.0589290881	-2.8198237719	 0.172573
O	 3.1566023886	-4.1037383505	-2.9380291161	-0.230252
H	 0.3654039385	 1.7544094171	-0.4017016616	 0.28518
H	 0.3601670143	-1.0220423726	 1.9656305963	 0.125635
H	-0.6220033186	 0.5267629433	 2.0261222575	 0.123886
H	-2.2218142046	-0.3866865063	 0.3208572171	 0.133579
H	-1.2690746346	-1.9501619827	 0.2349954811	 0.128913
H	 3.5793601898	-1.1973859994	-2.5908408726	 0.156516
H	 3.8243552087	-2.3104047178	-1.2446883589	 0.153843
H	 1.6343887799	-2.8389280737	-3.3650295518	 0.096617
