18
gdb 44207	3.7165	1.20028	1.14099	2.7113	77.27	-0.2409	-0.0235	0.2174	1132.3417	0.147783	-401.908565	-401.900929	-401.899985	-401.940895	29.777	
O	 0.2382541807	 0.0164217251	-0.2796819731	-0.308942
C	 0.1459088885	 1.2079338663	-0.2084643056	 0.424261
C	-1.0039021226	 2.1850729185	 0.1088287717	-0.302841
N	 0.0029042185	 3.2852887441	 0.3427885187	-0.178844
C	 1.1311565144	 2.3316751651	-0.1144564377	-0.258666
C	 0.6575074617	 3.4904423684	-0.931004793	 0.382808
C	 0.0882425791	 3.4972972696	-2.3614129293	-0.308863
C	 1.2476391406	 4.4619530414	-2.7505784511	-0.216825
C	 1.5348036878	 4.7088093038	-1.2405808448	-0.312638
H	-1.7412598937	 2.3988948474	-0.6693480034	 0.128738
H	-1.5134855568	 1.9181195435	 1.0381614082	 0.142131
H	 2.1163963308	 2.3058826772	 0.3390679644	 0.118565
H	 0.0239697884	 2.5455943907	-2.8923643338	 0.120141
H	-0.8876552247	 3.9918189368	-2.400959412	 0.115383
H	 2.0675829023	 3.9374430326	-3.2458239863	 0.114724
H	 0.9773180652	 5.3337337118	-3.3480331469	 0.108668
H	 1.075041334	 5.6267661624	-0.8642100169	 0.120959
H	 2.5751160259	 4.6741211951	-0.9105766994	 0.111242
