16
gdb 79555	4.02706	1.14854	1.0095	1.503	76.35	-0.2232	0.0124	0.2356	1165.0582	0.12233	-400.608185	-400.600212	-400.599268	-400.640281	31.533	
O	-0.0415070408	 1.3265464783	-0.030758048	-0.427977
C	 0.0468981188	-0.0702130331	-0.0112279858	 0.055594
C	-0.5336666969	-0.7001317543	 1.2396279037	-0.057549
C	-1.3087534024	-0.7054630503	-0.0549706347	-0.128508
C	-1.2602318425	-2.2499733688	 0.0092155266	 0.085122
C	 0.104554942	-2.8187335806	 0.1949605594	-0.275757
N	-0.5431214716	-2.207760482	 1.3648371586	-0.175789
C	-2.4131677812	-3.0511190209	-0.2299069984	 0.249841
C	-3.3988728347	-3.6987027318	-0.468643245	-0.390267
H	 0.6577758238	 1.6762269733	 0.5321644455	 0.292703
H	 0.9017567952	-0.4693200143	-0.5522285586	 0.092686
H	-0.6856508131	-0.1234690451	 2.1428934312	 0.110259
H	-2.1950508897	-0.1539363489	-0.3341257478	 0.113055
H	 0.1478538011	-3.9004018096	 0.2818891005	 0.136728
H	 0.9808666697	-2.3779427973	-0.2644591433	 0.125765
H	-4.2664778376	-4.2780610645	-0.6666531938	 0.194094
