15
gdb 1852	5.72871	2.06274	1.64909	3.6273	63.62	-0.2358	-0.0431	0.1927	757.8619	0.125647	-308.561152	-308.554569	-308.553625	-308.591899	24.414	
C	-0.1051994978	 1.5685127318	 0.0261053602	-0.397327
C	 0.0281707057	 0.0381879504	-0.0115711865	-0.026226
C	 0.8135291635	-0.5066345979	-1.225330736	-0.344376
C	 1.9418875005	-1.3754770062	-0.6430808712	 0.37944
O	 2.7489430931	-2.0128086583	-1.2781455155	-0.329591
C	 1.8400481627	-1.2724725613	 0.8323727855	-0.18606
C	 0.7976396871	-0.5069701043	 1.1720991961	-0.042486
H	 0.8799577957	 2.0465571033	 0.0053912207	 0.124107
H	-0.6757706001	 1.9292806027	-0.8350895226	 0.1236
H	-0.6208637892	 1.8990005822	 0.9339358415	 0.117081
H	-0.9855576587	-0.3854884332	 0.0072251256	 0.094001
H	 0.2037095121	-1.1042950949	-1.9084145065	 0.130475
H	 1.2597252405	 0.2966225322	-1.8211129162	 0.13059
H	 2.5321554623	-1.7716506055	 1.4984989185	 0.114663
H	 0.4999231027	-0.2708737211	 2.1895841065	 0.112108
