19
gdb 91145	2.90886	1.47498	1.21629	1.4886	75.62	-0.2177	0.0572	0.2749	1088.1566	0.161361	-419.228387	-419.220285	-419.219341	-419.261226	31.624	
C	 0.3533904144	 1.5902616709	 0.0438454753	-0.402061
C	 0.0988914563	 0.0893049874	 0.0540741734	 0.006374
C	 0.8855827721	-0.7960407051	-0.9698222355	-0.249318
C	 1.4256698164	-1.6742313801	 0.1996133931	-0.004808
N	 2.8477973933	-1.5215122493	 0.4894562546	-0.345957
C	 2.9208698373	-0.6459343946	 1.4151336517	 0.461048
N	 4.0603718396	-0.1051776317	 1.9453873285	-0.575681
O	 1.7742242713	-0.1186131638	 1.9422300413	-0.260262
C	 0.6957923768	-0.7460665878	 1.2217798306	 0.061701
H	 1.4182145623	 1.8125487031	 0.15710089	 0.128103
H	 0.0149202534	 2.027697992	-0.9014114429	 0.113703
H	-0.1794268033	 2.0927807751	 0.8581339108	 0.114648
H	-0.977921384	-0.1007053031	-0.0097810937	 0.072663
H	 0.2642048217	-1.3159692858	-1.7032603116	 0.096111
H	 1.6875230033	-0.2718117	-1.4953639613	 0.105194
H	 1.1371796884	-2.7277538474	 0.1657010451	 0.07112
H	 4.8913309782	-0.6463500225	 1.76412592	 0.267681
H	 3.9738846403	 0.2371529624	 2.88994809	 0.261887
H	-0.0050891278	-1.1519080097	 1.9542463208	 0.077854
