14
gdb 24391	3.80356	1.69286	1.17991	3.5871	67.35	-0.2074	0.0029	0.2102	951.8765	0.1051	-432.904781	-432.898365	-432.897421	-432.935699	24.913	
C	-0.0111738207	 1.4983519112	-0.0526830259	-0.275155
N	 1.3628849378	 1.9979744004	 0.1216214832	-0.246884
C	 2.3491721598	 1.235338047	 0.2702501273	 0.110632
O	 2.388496978	-0.1559486839	 0.3047094772	-0.252146
C	 1.1417212111	-0.6710465946	 0.1478213982	 0.396483
C	-0.0236681833	 0.0039771345	-0.0230583109	 0.161874
N	-1.0622604361	-0.8939873473	-0.1439487524	-0.323129
C	-0.5110405512	-2.0810700716	-0.0448769314	-0.006663
N	 0.8522319797	-2.0070533382	 0.1368598472	-0.371234
H	-0.6326955571	 1.9407176394	 0.7372795271	 0.130131
H	-0.3995929987	 1.9044033065	-0.9962236151	 0.130132
H	 3.3588935022	 1.6137968224	 0.3981065873	 0.135629
H	-1.0250200475	-3.0284275122	-0.0941243523	 0.134821
H	 1.5037153761	-2.7667886335	 0.2403350005	 0.27551
