21
gdb 108704	2.43904	1.48329	0.98479	1.2784	87.12	-0.2101	0.0311	0.2412	1238.7909	0.183383	-387.071973	-387.063258	-387.062314	-387.105514	33.241	
O	-0.0886793583	 1.4590847102	-0.0099065861	-0.415117
C	-0.0490350169	 0.0414739387	-0.0099687991	-0.186673
C	-1.4339334548	-0.4968062261	 0.1192669963	 0.132482
C	-2.5852410154	 0.1608758732	 0.2266464148	 0.2502
C	-3.3263629618	 1.4179513548	-0.1623758997	-0.309127
C	-4.3996058112	 0.4463818037	-0.785621171	-0.243075
C	-3.7980975237	-0.7166542991	 0.0857131467	-0.02786
C	-3.2207754208	-2.0502586736	-0.427349334	-0.239374
C	-1.7308126262	-1.9972791226	 0.0460401282	-0.298833
H	 0.8146816762	 1.7824007386	-0.0689369064	 0.287035
H	 0.4099415003	-0.3461832312	-0.9384147149	 0.089283
H	 0.5753897414	-0.3422009429	 0.8179235843	 0.092407
H	-3.7373346346	 1.9646631978	 0.6934747044	 0.105234
H	-2.8100460195	 2.1220135838	-0.8161811057	 0.117011
H	-5.4508481341	 0.7008230889	-0.6278885269	 0.093543
H	-4.2203884275	 0.2859792758	-1.8522500963	 0.101924
H	-4.3744824178	-0.8355565651	 1.0123710852	 0.067866
H	-3.7480105284	-2.93825489	-0.0658946501	 0.089946
H	-3.2476674042	-2.0739053611	-1.5228825024	 0.098123
H	-1.0586824242	-2.5146068722	-0.649839321	 0.094616
H	-1.6009707183	-2.4912898116	 1.0200938137	 0.100389
