18
gdb 36830	4.7612	0.61853	0.58068	2.5665	83.36	-0.2319	0.0342	0.2661	1903.4067	0.147043	-401.863636	-401.854444	-401.853499	-401.900407	32.209	
C	 0.189893242	 1.4008210169	-0.7553075239	-0.382818
C	-0.0367369432	-0.0234803333	-0.5339311329	 0.044813
C	-0.1938699394	-1.2022244195	-0.3356638201	 0.113423
C	-0.4182303917	-2.601078768	-0.1040968528	-0.159263
C	 0.0194612764	-3.2218291983	 1.1831925463	-0.226364
N	-1.4089199105	-3.0369306792	 0.9130295829	-0.307591
C	 1.3498886683	 1.9495032573	 0.0588684574	 0.110491
C	 1.3746676466	 3.3448812118	 0.5102273932	-0.181071
O	 1.0752327433	 2.2805613732	 1.4169385038	-0.225753
H	 0.3909389763	 1.5799719082	-1.8205152541	 0.13526
H	-0.7121598366	 1.9726217095	-0.5046800353	 0.136524
H	-0.4226393271	-3.2272727464	-0.992758114	 0.114602
H	 0.3570895541	-4.2544037162	 1.1827255259	 0.123864
H	 0.5082570349	-2.5752890947	 1.9057017879	 0.127075
H	-1.7449201824	-2.2148401458	 1.4095678535	 0.241282
H	 2.299604664	 1.4358462146	-0.093157368	 0.102825
H	 2.3271629169	 3.8471484259	 0.6716262839	 0.11807
H	 0.5390056179	 4.0013856041	 0.2697276963	 0.114633
