18
gdb 37816	3.09921	1.94808	1.74662	2.2264	80.71	-0.2175	-0.0016	0.2159	866.0089	0.149866	-364.695217	-364.688936	-364.687992	-364.725328	27.12	
C	-0.108541647	 1.5897710188	 0.1494641193	-0.298044
C	 1.3790608068	 1.2709250843	 0.0048967544	-0.073787
N	 1.2494040485	 0.010298574	 0.915419682	-0.207803
C	 1.9611967195	-0.8166644464	-0.1495816	-0.218503
C	 1.1473477976	 0.1132350489	-1.0428719777	 0.251827
C	 0.5440964641	-0.2117294577	-2.406835255	-0.414327
C	-0.6823995192	-1.0215222926	-1.9435335666	-0.036646
C	-0.9716238037	-0.9068769162	-0.6336163239	-0.249771
C	-0.0146230326	 0.0660534252	-0.0404112429	 0.332315
H	-0.4290888724	 1.939350761	 1.1341115212	 0.107164
H	-0.5795528077	 2.1562463812	-0.6578862506	 0.099436
H	 2.2516815382	 1.9176371403	 0.115933671	 0.080493
H	 3.0495938738	-0.6954356376	-0.1321186031	 0.092737
H	 1.6915805381	-1.8775687377	-0.1283137761	 0.101047
H	 0.2275647848	 0.6701218475	-2.979235466	 0.117256
H	 1.2081651718	-0.7909891779	-3.0578741152	 0.111915
H	-1.2722240974	-1.6032054084	-2.6462395508	 0.101041
H	-1.8200295633	-1.3684137766	-0.1421610499	 0.103653
