21
gdb 91812	2.55509	1.49149	1.21495	1.3683	77.96	-0.2377	0.069	0.3067	1134.4997	0.181274	-424.218744	-424.209424	-424.20848	-424.252475	35.7	
C	 0.2023066223	 1.5924896389	-0.1349306308	-0.390292
C	 0.0981515882	 0.0843145667	-0.0245859014	 0.112735
O	 0.783154758	-0.5242981147	-1.1351095565	-0.280693
C	 1.1955420186	-1.807172036	-0.7470468097	 0.067408
C	 2.5312419597	-1.8496104449	-0.0575529146	-0.372529
C	 1.2407801602	-1.8963984489	 0.7526759812	 0.299666
C	 0.9017580116	-3.1482351166	 1.526211547	-0.493048
C	 0.7083819358	-0.5482794946	 1.2606128892	 0.017283
O	 1.6529899922	 0.2590871906	 1.9420717071	-0.428036
H	 1.2427766137	 1.9153822614	-0.0578410661	 0.114958
H	-0.2016666367	 1.9291702149	-1.093353559	 0.121822
H	-0.3619032165	 2.0712136105	 0.6705658341	 0.120637
H	-0.9605686006	-0.220556854	-0.0686884744	 0.066546
H	 0.8529273284	-2.6167711887	-1.385971508	 0.093095
H	 3.1143739294	-2.7647078677	-0.0877941426	 0.113227
H	 3.1244441026	-0.9410384815	-0.1113346082	 0.107093
H	 1.2528554339	-4.0449989188	 1.0057570633	 0.116198
H	 1.368384508	-3.1357808154	 2.5176108288	 0.129022
H	-0.1806777302	-3.2469814142	 1.6668994756	 0.119678
H	-0.0873939629	-0.716465595	 1.9933552494	 0.084773
H	 2.4934308043	 0.1958450781	 1.4772566456	 0.280457
