16
gdb 54361	2.12688	1.68678	1.18156	4.327	65.16	-0.2451	-0.0373	0.2078	1062.7749	0.122576	-475.041157	-475.032068	-475.031124	-475.076061	31.902	
N	 0.2324847445	 1.2194620683	 0.7287232662	-0.528196
C	 0.1209485528	 0.2417160899	-0.2007689687	 0.315669
O	 0.9053106503	 0.0295108976	-1.1065452822	-0.364178
C	-1.1135318818	-0.6413243658	-0.0346384584	 0.254489
C	-0.9180334591	-1.9919695979	 0.6817611506	-0.324858
C	-1.9488023417	-1.4502502211	 1.6903480342	-0.078885
O	-2.0392220059	-0.1764949488	 0.9878088288	-0.340381
C	-1.865256365	-0.7215362786	-1.3669220553	 0.143161
O	-2.161993568	-1.7498655651	-1.9105413501	-0.23952
H	 0.9841903996	 1.8847228645	 0.6543175836	 0.26754
H	-0.5258074568	 1.3689703585	 1.3746564102	 0.27541
H	-1.236559254	-2.8422155202	 0.0797405176	 0.14908
H	 0.0840144391	-2.1607063924	 1.0744265299	 0.130556
H	-2.9156399449	-1.9626126404	 1.704521331	 0.125177
H	-1.5958905557	-1.308977696	 2.7166393335	 0.116188
H	-2.1730379536	 0.2675879275	-1.7671493308	 0.098747
