23
gdb 41527	2.7056	1.46504	1.04503	0.2401	92.25	-0.2247	0.0288	0.2535	1225.1892	0.208932	-351.164115	-351.155991	-351.155047	-351.19647	33.005	
C	 0.0174608719	 1.5509743276	-0.1940438854	-0.247787
C	 1.5212881854	 1.5481724141	 0.2262422855	-0.323538
C	 1.3215910222	 0.1166552385	 0.6888490539	 0.364017
C	 1.8726565423	-0.6450997692	 1.6255431652	-0.226013
C	 1.3859458956	-2.0209462772	 2.0186379306	-0.236223
C	 0.500339206	-2.718853843	 0.9707570119	-0.192242
C	-0.9493579757	-2.2121618991	 0.8339047716	-0.195437
C	-1.1265337057	-0.6840974925	 0.7017393234	-0.204306
C	 0.0025362573	-0.0071318339	-0.0675749586	-0.047272
H	-0.6167951455	 2.0206439839	 0.5632893402	 0.101743
H	-0.2265103203	 1.9737241286	-1.1712073968	 0.094278
H	 2.186240128	 1.6244881252	-0.642174397	 0.106016
H	 1.8460019363	 2.2818678684	 0.9696092008	 0.104173
H	 2.7396357035	-0.2690865166	 2.1680436814	 0.073977
H	 2.2636826177	-2.6531291077	 2.2084355591	 0.09907
H	 0.8602973113	-1.9714545483	 2.985378742	 0.101376
H	 1.006013867	-2.6449632396	 0.0004649763	 0.101222
H	 0.4574551853	-3.7892385801	 1.2051965201	 0.087248
H	-1.3868271019	-2.704406664	-0.0438752821	 0.093031
H	-1.5373605505	-2.557892527	 1.6934533089	 0.092072
H	-2.0937320779	-0.4696893445	 0.2289796691	 0.088928
H	-1.1655376283	-0.2291890233	 1.6994229177	 0.093148
H	 0.129966626	-0.46831667	-1.0563144477	 0.072518
