22
gdb 59183	2.52299	1.35514	1.04776	1.1622	82.81	-0.2276	0.069	0.2966	1244.6287	0.193343	-404.272043	-404.262574	-404.261629	-404.306294	36.203	
C	 0.0972921172	 1.4587183554	-0.1141905379	-0.400746
C	 0.1474328061	-0.0578322095	 0.0610526098	 0.061863
O	 0.7932323947	-0.4406071822	 1.2776704158	-0.428987
C	-1.2491503656	-0.6681212663	 0.0319327579	 0.050923
N	-2.0766197488	-0.6156849507	-1.272961433	-0.170444
C	-1.2421262543	-1.8334393353	-1.7141671956	-0.216661
C	-1.5266892745	-2.1747165934	-0.2292512325	 0.292095
C	-1.0955809277	-3.367624198	 0.5853096881	-0.518335
C	-2.9521692714	-1.671715353	-0.5739125486	-0.205097
H	 1.1044502274	 1.8822096314	-0.0724181132	 0.119938
H	-0.3640694159	 1.7188063269	-1.0713355623	 0.140421
H	-0.5036136414	 1.9206196666	 0.6796995243	 0.103627
H	 0.783773523	-0.4837248526	-0.7193654156	 0.088316
H	 0.3259756567	-0.0109199497	 2.0032023799	 0.276779
H	-1.8202499864	-0.237384559	 0.8685814002	 0.049178
H	-1.7421507548	-2.4396789043	-2.4753146592	 0.096429
H	-0.2241753547	-1.5978438429	-2.0273553983	 0.10205
H	-0.0064731265	-3.3935756604	 0.6879836968	 0.135809
H	-1.5227958344	-3.325264608	 1.5932717791	 0.117119
H	-1.4217874796	-4.3045588142	 0.1207106687	 0.115363
H	-3.5667724024	-1.2645536895	 0.2350378329	 0.094435
H	-3.5522866867	-2.2631560412	-1.2713957574	 0.095924
