17
gdb 48118	3.01937	1.35688	0.94713	3.5503	76.97	-0.2273	-0.0558	0.1715	1185.3734	0.136645	-418.022218	-418.013979	-418.013034	-418.05558	30.06	
N	 0.0609306293	 1.4635355536	 0.391090118	-0.529436
C	 0.0857643086	 0.1943536255	 0.161835092	 0.291677
C	-1.2964942497	-0.4017680717	 0.061041086	 0.13946
O	-1.564609792	-1.5585965131	-0.1472530683	-0.270092
N	 1.1742568613	-0.609657214	 0.0107051168	-0.124314
C	 1.1872724058	-2.0596855808	-0.2529055029	-0.195904
C	 2.6589875723	-2.355984704	-0.314619087	-0.077894
C	 3.3920740031	-1.2655801241	-0.1210500324	-0.08375
C	 2.5255171516	-0.0591253087	 0.1022332782	-0.221475
H	 0.9947802651	 1.8674120821	 0.4588598672	 0.216991
H	-2.0655465014	 0.3806158666	 0.2063522506	 0.118878
H	 0.6783885851	-2.6225277607	 0.5385256524	 0.134068
H	 0.6694819656	-2.3090494358	-1.1867381621	 0.134008
H	 3.0310373963	-3.3558963968	-0.4978292961	 0.11374
H	 4.4723994495	-1.2053431124	-0.1158603392	 0.112145
H	 2.6914792334	 0.7249294641	-0.6548705534	 0.120919
H	 2.7014674162	 0.4111177305	 1.0836349703	 0.12098
