16
gdb 16143	3.9666	1.73075	1.4537	2.42	65.7	-0.2414	-0.0191	0.2223	874.9803	0.131056	-383.740716	-383.733757	-383.732813	-383.771903	26.342	
O	-0.2838504606	 0.108682573	 0.2913067139	-0.26888
C	-0.0629668616	 1.282801189	 0.1095871237	 0.075872
C	 1.2778991112	 1.8716503104	-0.0392229635	 0.214897
C	 1.4795390225	 3.3713739557	 0.2006379255	-0.379927
C	 1.5706148605	 2.8489243341	-1.1901283604	 0.095393
O	 2.8052998128	 2.5473926093	-1.7556943873	-0.247444
C	 3.5462886066	 1.7432491041	-0.8302930866	-0.098863
C	 2.5111528147	 0.9893005691	 0.0327659584	-0.307562
H	-0.8972427776	 2.0189281256	 0.0288670216	 0.063468
H	 0.5906895413	 3.9411396553	 0.4547500673	 0.127112
H	 2.3770452386	 3.6813923233	 0.7241339575	 0.130702
H	 0.8285072758	 3.1146161808	-1.9340351238	 0.117854
H	 4.1944939548	 1.0849157125	-1.4134077294	 0.12202
H	 4.1861570979	 2.3837334654	-0.2086998072	 0.104791
H	 2.8740425853	 0.8321970735	 1.0522067162	 0.115344
H	 2.2599679378	 0.0115218289	-0.386680576	 0.135223
