12
gdb 131981	2.81919	1.66991	1.05028	5.2102	62.16	-0.2421	-0.0992	0.1429	1014.3636	0.077647	-505.836463	-505.82925	-505.828305	-505.868574	26.565	
N	 0.0266965647	 1.4228530278	 0.1840090664	-0.616671
C	 0.0096254623	 0.0547953695	 0.050799104	 0.102211
C	-1.0354093094	-0.8281174593	 0.0129341053	 0.018891
O	-0.5693376375	-2.099776422	-0.0530752034	-0.146665
N	 0.787092088	-2.1061742876	-0.0584296474	-0.161559
C	 1.1263013648	-0.836446379	 0.0001521328	 0.431253
N	 2.5250533628	-0.4670083555	-0.0138152153	 0.384259
O	 3.3636922422	-1.3462515864	-0.0049078821	-0.326955
O	 2.7567757142	 0.745436586	-0.0400005154	-0.385879
H	 0.9123088195	 1.8399023433	-0.0643763752	 0.280808
H	-0.781526103	 1.9120637524	-0.1676105594	 0.2597
H	-2.1066590186	-0.7162246092	 0.0265440896	 0.160608
