16
gdb 49789	3.12936	1.5097	1.13888	2.1303	68.79	-0.2413	-0.026	0.2154	1035.0788	0.124782	-437.88372	-437.876208	-437.875263	-437.916315	28.071	
O	-0.6433329889	 0.7666427715	-0.9029772939	-0.243348
C	 0.2502206695	 0.8000417087	-0.0995017578	 0.158123
C	 1.3049972445	 1.9066181851	-0.0282159447	-0.096777
N	 2.5459963292	 1.3143679243	 0.452747748	-0.287977
C	 3.6465074081	 1.6608688861	-0.0647603797	 0.128057
O	 3.8977479752	 2.5175050039	-1.0794919762	-0.218926
C	 2.7881016787	 3.0453228102	-1.7782154622	 0.091641
C	 1.9241497068	 2.1079410723	-2.5704073233	-0.308958
C	 1.4029332563	 2.7346727613	-1.2948890194	-0.058768
H	 0.3801692751	 0.0225250728	 0.6842370627	 0.096208
H	 0.9444592125	 2.5661503553	 0.7805970622	 0.121871
H	 4.5832650078	 1.2511096417	 0.3071543417	 0.132872
H	 3.0374598915	 4.0251754124	-2.1657463901	 0.116589
H	 1.5204502015	 2.4512577149	-3.5156187144	 0.127813
H	 2.1863816362	 1.055433306	-2.5465625333	 0.134386
H	 0.6538940558	 3.5114707833	-1.3995640896	 0.107194
