11
gdb 921	5.85008	2.92013	1.94784	5.7625	54.88	-0.2398	-0.0592	0.1806	598.3612	0.081719	-339.498757	-339.49358	-339.492636	-339.527754	19.314	
O	-0.0428773118	-0.0556224326	 0.0033801997	-0.377787
C	 0.0221422872	 1.1525580532	 0.0090246124	 0.443592
N	-1.1824560728	 1.9092016026	 0.0289875496	-0.324339
C	-1.234882529	 3.2583004725	 0.0365440133	 0.054659
C	-0.0720924694	 3.9666202244	 0.0244923868	-0.176511
C	 1.1252486992	 3.1983054957	 0.0044085258	 0.035984
N	 1.1946976116	 1.895187016	-0.003165758	-0.311358
H	-2.0258443656	 1.3525953155	 0.0374739112	 0.272613
H	-2.2213002874	 3.7086089557	 0.0520962742	 0.144358
H	-0.0606342496	 5.0466767846	 0.0298217581	 0.115242
H	 2.0805977677	 3.7252638123	-0.0058389731	 0.123547
