16
gdb 68647	2.46996	2.0617	1.55339	3.0969	67.48	-0.2379	-0.0243	0.2135	890.2167	0.126411	-437.912815	-437.905684	-437.90474	-437.944187	28.396	
N	-0.0206653391	 1.4626178734	 0.0836440139	-0.605917
C	-0.0157000017	 0.0240161419	 0.0398168511	 0.129713
C	-1.3686974	-0.737905631	-0.0376536357	-0.257315
C	-0.6483558199	-2.0951931456	-0.0416207547	 0.048602
O	 0.2351101914	-1.943706114	-1.2193027783	-0.243691
C	 0.6631052739	-0.6536535005	-1.1877752528	 0.415298
O	 1.4140907795	-0.1655427581	-1.9825723384	-0.362468
C	 0.2275382781	-1.9698685462	 1.1994724679	-0.089886
C	 0.6178612739	-0.6942260123	 1.2359283579	-0.086546
H	 0.9256858895	 1.7959940127	-0.0907648713	 0.243182
H	-0.5700590235	 1.8211547652	-0.6934702024	 0.235851
H	-1.9919825169	-0.5680143513	 0.840586034	 0.125525
H	-1.9311105803	-0.5553044942	-0.9590731181	 0.112508
H	-1.2238162866	-3.0050470632	-0.1882122006	 0.097523
H	 0.5276211792	-2.7882930383	 1.838518638	 0.117166
H	 1.3082424425	-0.2107666186	 1.9142313794	 0.120455
