16
gdb 69174	2.16839	1.97326	1.28978	4.5404	69.86	-0.2484	-0.0295	0.2189	999.9391	0.122553	-437.839601	-437.831477	-437.830533	-437.872206	30.235	
C	 0.0222065057	 1.5481788989	 0.0109275607	-0.486529
C	-0.0460139161	 0.0543045324	-0.0335765205	 0.229237
C	-0.862486768	-0.8119648247	 0.8287218186	-0.29315
N	 0.6215080566	-0.8362730441	 1.038639115	-0.225557
C	 1.1595126657	-1.6677414761	-0.0329063196	 0.350339
O	 1.8998714826	-2.5959340641	 0.0260815624	-0.294637
C	 0.5539393128	-0.8028129659	-1.138136559	 0.279149
C	 0.1632647409	-1.075579059	-2.5239252447	-0.263206
O	 1.3163266829	-0.2861609747	-2.2048661534	-0.258103
H	 0.995823425	 1.9006298651	-0.34004703	 0.148032
H	-0.7482615635	 1.9879745572	-0.6319884925	 0.132124
H	-0.1367040561	 1.9096921753	 1.0301405773	 0.140028
H	-1.3835904011	-0.3638781429	 1.6692414963	 0.142475
H	-1.343391303	-1.6988521217	 0.4222492038	 0.131856
H	 0.3746045645	-2.0518013595	-2.9557018969	 0.140494
H	-0.6723163089	-0.5284314063	-2.9572108574	 0.127446
