19
gdb 72145	2.53126	2.0415	1.80925	1.7722	72.86	-0.2508	0.0857	0.3365	888.874	0.161911	-423.038167	-423.031442	-423.030498	-423.068774	28.459	
C	 0.04102057	 1.4820386393	-0.0964013549	-0.50761
C	 0.0124523829	-0.0171324816	-0.005938887	 0.431926
O	 0.4471874411	-0.6549082291	-1.194599305	-0.276235
C	 0.2234010313	-1.9828577634	-0.7626255183	 0.163356
C	 1.1118580643	-2.0874493098	 0.4932853939	-0.23769
C	 0.6770381157	-0.7886602774	 1.2112907948	-0.120164
C	-0.7364132857	-0.9613147693	 1.8245258928	-0.251342
C	-1.2972071205	-0.7970812163	 0.396771186	 0.038688
O	-1.1443419859	-2.0050930297	-0.3592547839	-0.278808
H	 1.0625937306	 1.8389796122	-0.2594388738	 0.130637
H	-0.5819386814	 1.829088787	-0.9263160515	 0.133441
H	-0.3340961288	 1.9311996316	 0.8278677915	 0.123652
H	 0.3799880504	-2.6957507519	-1.5709852239	 0.09005
H	 0.9178718821	-2.9913827248	 1.0751927064	 0.106175
H	 2.1666451704	-2.0642025206	 0.2057911888	 0.106498
H	 1.4587476746	-0.3032167209	 1.7959418787	 0.068295
H	-0.9612720748	-1.9032527225	 2.3301141299	 0.103259
H	-1.0179896959	-0.1229913855	 2.4691888259	 0.099606
H	-2.2958825405	-0.3916790871	 0.2253046696	 0.076268
