17
gdb 40598	5.84945	0.98616	0.96942	1.8345	72.06	-0.237	0.0755	0.3125	1218.8379	0.135618	-421.695918	-421.6889	-421.687956	-421.727925	27.38	
C	 0.1606573688	 1.5710180515	-0.0299041709	-0.185372
O	 1.2406588804	 0.6421095036	-0.1241322585	-0.237216
C	-0.0915753491	 0.1238357395	-0.0362490381	 0.076641
C	-0.4313458265	-0.6316859322	 1.2149548921	-0.055264
C	-1.8753280541	-1.1693893365	 1.3801178073	-0.112034
C	-1.5954331594	-2.4253360327	 0.4904926311	 0.08467
O	-2.0854153233	-3.3825028681	 1.4735831031	-0.326948
C	-1.3901909354	-2.3671691367	 2.2544108625	 0.081467
C	-0.2372351065	-2.1684573405	 1.223175237	-0.101549
H	 0.0977697662	 2.1204177888	 0.9090151709	 0.112561
H	-0.0325075982	 2.1603620733	-0.9252872865	 0.115503
H	-0.4520403322	-0.3181645239	-0.9676274666	 0.08893
H	-0.022908549	-0.1136770167	 2.0892254121	 0.076253
H	-2.8183336229	-0.6308614258	 1.4738469117	 0.087254
H	-1.8090355205	-2.6089419138	-0.5615337756	 0.101664
H	-1.3493662483	-2.4681059558	 3.3384003963	 0.100455
H	 0.6752948403	-2.7572721142	 1.1379483022	 0.092986
