25
gdb 76402	2.61592	1.08888	0.98228	0.1825	93.58	-0.2342	0.0814	0.3156	1409.0689	0.227332	-352.336788	-352.326031	-352.325087	-352.3728	40.235	
C	-0.2138625709	 0.964525395	-1.8599638445	-0.417907
C	-0.0364131348	-0.1791198947	-0.882722764	-0.053856
C	 1.3085857342	-0.5976600791	-0.3180740062	-0.053948
C	 2.6134692369	 0.084848002	-0.672919952	-0.417882
C	 0.2540931116	 0.0056743912	 0.6015955668	 0.320678
C	 0.4543654561	 1.4026279373	 1.1605765238	-0.486264
C	-0.4358756054	-0.9812817381	 1.513299042	-0.019595
C	-0.2288406069	-1.0333896762	 3.0080678771	-0.281903
C	-1.5675023549	-0.6179676224	 2.4446057214	-0.281917
H	 0.4836034318	 1.7877434906	-1.6903711529	 0.113241
H	-0.0618858166	 0.6193386481	-2.8890790736	 0.114872
H	-1.2272205877	 1.3773240094	-1.7987056524	 0.116157
H	-0.7097023264	-1.0072863582	-1.0964104459	 0.0739
H	 1.4291934437	-1.6728374088	-0.1985682561	 0.0739
H	 2.5058156246	 1.1587146503	-0.8406145062	 0.113232
H	 3.3536796138	-0.0484814189	 0.1241788406	 0.116155
H	 3.0364706911	-0.3442005603	-1.5885174681	 0.114871
H	 0.9555403229	 2.0636835888	 0.4526253871	 0.114634
H	-0.5025990097	 1.8723275028	 1.4130134567	 0.117303
H	 1.0665658855	 1.3848450668	 2.068871576	 0.11733
H	-0.5428018911	-1.9581509527	 1.0469456728	 0.074015
H	-0.1422354852	-2.0066870735	 3.4789217061	 0.106618
H	 0.3765560152	-0.2653205724	 3.4760749355	 0.109869
H	-1.8479596635	 0.4249962961	 2.5397249638	 0.109874
H	-2.4025368543	-1.3052461331	 2.5275304121	 0.106623
