12
gdb 23694	3.89155	1.96171	1.30425	1.6329	60.66	-0.2273	-0.0386	0.1888	833.6358	0.08609	-418.850888	-418.844832	-418.843888	-418.881167	23.127	
F	 0.1025609009	 0.0736314764	 0.0027327289	-0.056842
C	-0.0501619748	 1.3859728819	 0.0112157833	 0.421406
N	-1.216852974	 1.8988622103	 0.0296511958	-0.360515
C	-1.2273651934	 3.2866775125	 0.0366295628	-0.007907
C	-0.1211362951	 4.062474221	 0.0253746757	-0.125588
C	 1.2033191378	 3.4697829772	 0.0044481389	 0.375754
N	 2.2889337496	 4.143483279	-0.0070481474	-0.545242
N	 1.129151215	 2.0504779023	-0.0015460927	-0.424477
H	-2.217811926	 3.728828426	 0.0522909955	 0.127628
H	-0.1763662978	 5.1424253543	 0.0314285922	 0.125368
H	 3.116591066	 3.5463992596	-0.0212675248	 0.202377
H	 1.9839987219	 1.5117857794	-0.0158260583	 0.268037
