17
gdb 19918	4.69136	1.46426	1.3305	1.8418	67.52	-0.2209	0.0633	0.2842	949.7797	0.142529	-363.74805	-363.74087	-363.739926	-363.779542	27.81	
O	-0.1417381751	 1.2608429463	-0.9654569757	-0.435671
C	 0.12402691	 0.1544591814	-0.1100868581	-0.134282
C	-1.1968006533	-0.5940061206	 0.0285619643	 0.014365
C	-1.5419295336	-2.0251892242	-0.2697882976	-0.113949
C	-0.640621492	-3.0561027765	 0.4365449588	-0.032686
C	 0.4048754816	-2.5207280314	 1.3377729758	-0.25018
N	-0.9940501193	-2.5369324892	 1.8035557531	-0.139327
C	-1.8011636607	-1.4543986855	 1.1148467664	-0.049268
H	 0.6787399056	 1.7481828672	-1.0863680954	 0.285093
H	 0.899159845	-0.4920315404	-0.5449355449	 0.100186
H	 0.4814673815	 0.5009338554	 0.8728636153	 0.099154
H	-1.9876798345	 0.0566119118	-0.3446447233	 0.115776
H	-2.249760085	-2.3176729344	-1.0345644095	 0.094804
H	-0.7189515137	-4.1172253333	 0.2218885308	 0.100362
H	 1.0072514701	-3.2597467578	 1.8608011282	 0.121448
H	 0.9188306913	-1.5872217884	 1.1609846524	 0.121623
H	-2.7298569579	-1.1839027204	 1.6020507094	 0.102553
