17
gdb 97544	2.76835	0.76431	0.71905	1.7982	75.28	-0.2526	-0.0396	0.2129	1634.047	0.130793	-458.927278	-458.916305	-458.915361	-458.964999	37.138	
C	 0.0731972311	 1.5584588347	 0.1723951529	-0.409787
C	 0.0635200162	 0.0290409311	 0.0772974209	 0.102092
O	 0.6619452898	-0.5850706627	 1.2184485882	-0.449441
C	-1.3835097826	-0.517945373	 0.0764368482	 0.158985
O	-2.3499633392	 0.117785209	-0.2381826456	-0.238591
C	 0.6871993232	-0.4444478041	-1.1628799172	 0.080632
C	 1.2154808935	-0.8457043077	-2.1703192959	-0.003573
C	 1.8207483206	-1.368067105	-3.3965681854	-0.198288
O	 2.0129930505	-2.7731426123	-3.3796466035	-0.396645
H	 1.0964193858	 1.9357103274	 0.1009558217	 0.117245
H	-0.5261583582	 1.9916256989	-0.6307659069	 0.145494
H	-0.3536988055	 1.8588658172	 1.1322663755	 0.133716
H	 1.6151095725	-0.5992660571	 1.0819217189	 0.292018
H	-1.4309970116	-1.5793673796	 0.3984437497	 0.100656
H	 1.2119353115	-1.0501880355	-4.2579227584	 0.128144
H	 2.8160024082	-0.9321395191	-3.5372363316	 0.146231
H	 1.1606058443	-3.1824861221	-3.1969245716	 0.29111
