14
gdb 127677	3.58424	1.17547	0.89018	1.9023	65.86	-0.2607	-0.0282	0.2324	1209.4843	0.101394	-470.047217	-470.038896	-470.037952	-470.082291	27.643	
C	-0.0024181349	 1.407049737	 0.0397430173	-0.338623
N	 0.025689664	-0.0406380875	 0.0263510856	-0.055133
N	 0.0543224809	-0.7475555911	-1.1415390108	-0.252798
C	 0.0726848418	-1.9963213341	-0.7183340532	 0.040155
N	 0.0591329857	-2.1584118686	 0.6374965216	-0.374873
C	 0.0295523901	-0.911330232	 1.0510615855	 0.523939
O	 0.0061109236	-0.4456144376	 2.3206081151	-0.242636
C	-0.0224961699	-1.3647254315	 3.3553826257	 0.161441
O	-0.0391653689	-0.9918485904	 4.4822095549	-0.244644
H	 0.8866602379	 1.8009504783	-0.4580588454	 0.159443
H	-0.8935459742	 1.7666054378	-0.4799240637	 0.159326
H	-0.0215676843	 1.7416052078	 1.0769949691	 0.167825
H	 0.0975054927	-2.8292614368	-1.4044585652	 0.137592
H	-0.0266636446	-2.3985052814	 2.9882022533	 0.158985
