17
gdb 126704	2.00761	1.8727	1.05271	5.7788	69.86	-0.246	0.0038	0.2498	1135.4609	0.135481	-455.184271	-455.175427	-455.174483	-455.218671	31.522	
C	-0.0185461873	 1.5728504679	 0.0480489831	-0.384699
C	-0.0360316437	 0.0452561901	-0.0227358508	-0.162123
N	-1.3842107984	-0.5061960078	-0.0517356569	-0.179901
C	-2.1142692951	-0.7593686801	 1.1030277277	 0.506199
O	-1.7798778827	-0.6094571037	 2.2468378469	-0.410687
O	-3.3197742033	-1.2287577467	 0.6709489871	-0.238912
N	-3.3447014934	-1.263389339	-0.7484055497	-0.184065
C	-2.1846833088	-0.8262408496	-1.1198582465	 0.39998
C	-1.784627618	-0.7086318491	-2.5475812773	-0.503777
H	 1.0137238936	 1.9325931619	 0.0899009418	 0.129634
H	-0.5013872142	 2.0206330624	-0.8259739498	 0.124034
H	-0.5386448291	 1.9154773956	 0.946180051	 0.155717
H	 0.4994349754	-0.317158273	-0.9045948696	 0.121939
H	 0.4486568783	-0.3777245822	 0.8612958537	 0.152969
H	-2.6187730289	-1.0290370258	-3.1729969998	 0.171109
H	-1.5241592355	 0.3232909601	-2.8033498568	 0.150688
H	-0.9167612488	-1.3393580711	-2.7667091839	 0.151893
