18
gdb 69265	2.78594	1.54993	1.14904	3.9313	73.87	-0.2643	0.0003	0.2647	1090.3306	0.148266	-439.088043	-439.07999	-439.079046	-439.120582	30.93	
C	 0.0536802852	 1.5178192777	-0.0665565007	-0.474807
C	-0.0373682311	 0.0155072363	 0.0487767062	 0.392266
C	-1.2179609754	-0.678144753	-0.6258903516	-0.280617
C	-1.8508587307	-1.7134222133	 0.2983106487	-0.094776
O	-0.887954292	-2.5988333208	 0.8888197268	-0.251549
C	 0.0924271421	-2.0181874732	 1.639798147	 0.400011
N	 0.6121517933	-2.58454352	 2.6450573849	-0.514856
C	 0.5970190946	-0.6888446278	 1.1841697971	-0.098924
O	 1.1978327825	-0.685504324	-0.1224754086	-0.277563
H	 0.9622104282	 1.8864153316	 0.4155898593	 0.135233
H	 0.0780109555	 1.8171070778	-1.1202662506	 0.131677
H	-0.8129141793	 1.998367245	 0.3997720073	 0.124071
H	-1.9835919159	 0.0510991906	-0.9111002825	 0.108473
H	-0.8561265922	-1.155365336	-1.5420593222	 0.131473
H	-2.4102439637	-1.2144026335	 1.1017417058	 0.10944
H	-2.5429672246	-2.3630087123	-0.2416219277	 0.123964
H	 0.1574313006	-3.4856988131	 2.8111856022	 0.223418
H	 1.1457526529	-0.1403761321	 1.9450574988	 0.113066
