16
gdb 51354	6.14477	0.92593	0.89268	2.427	70.55	-0.2387	0.0235	0.2622	1266.734	0.124335	-437.805229	-437.79786	-437.796916	-437.83819	27.739	
O	-0.1934797675	-0.0616101355	 0.375136379	-0.319463
C	-0.1159020649	 1.1187413674	 0.1117486226	 0.155556
N	 1.037533179	 1.7916575037	-0.1622401111	-0.303628
C	 2.3369159215	 1.1645340962	-0.17173412	 0.035988
C	 3.2969065213	 1.4747042673	-1.3421734406	-0.127696
C	 3.7748444728	 2.8194470759	-0.6925879383	 0.074277
O	 5.1903824895	 2.5019590685	-0.7822016554	-0.323473
C	 4.5444651071	 1.240141806	-0.4355893145	 0.092604
C	 3.5074178113	 1.8829617075	 0.5363368472	-0.127817
H	-0.9983840919	 1.7874838155	 0.0656858145	 0.07549
H	 0.9675308377	 2.7763997741	-0.3670823678	 0.248071
H	 2.1881313498	 0.1131351572	 0.073368286	 0.126448
H	 3.2058743315	 1.2529859378	-2.4048419003	 0.093516
H	 3.4633072628	 3.8467767395	-0.8809666891	 0.098671
H	 5.1554331763	 0.3480067497	-0.310148331	 0.107956
H	 3.6534928637	 2.1210492393	 1.5892820287	 0.093501
