17
gdb 19361	4.29983	1.63933	1.47067	3.4271	67.41	-0.2169	0.0578	0.2747	910.9626	0.141165	-363.759606	-363.752296	-363.751352	-363.791164	28.2	
C	 0.0431706209	 1.5009668583	 0.2531581151	-0.372699
C	 0.0127119684	 0.0118891226	-0.1219891582	-0.317673
C	-1.3739654377	-0.5547666516	-0.1415667169	 0.329639
N	-2.1541661732	-0.8869076506	 1.0738483854	-0.350258
C	-1.9017230128	-1.9262467238	 0.0407519776	-0.188348
C	-2.9230544309	-1.6928542676	-1.1292761654	 0.026665
O	-3.7424973515	-0.5663028437	-0.8208470266	-0.211351
C	-2.4228250891	-0.33156366	-1.3072976422	-0.021927
H	 1.0667595337	 1.8869091156	 0.2416660559	 0.114067
H	-0.5485039439	 2.0964178034	-0.4497028551	 0.124145
H	-0.3725043647	 1.6627913548	 1.2522471995	 0.128822
H	 0.4714504963	-0.1283913777	-1.1099937203	 0.105033
H	 0.6254451988	-0.5653268738	 0.5827930736	 0.098438
H	-1.4710534224	-1.0545645979	 1.8147911311	 0.225431
H	-1.385831166	-2.8504764065	 0.2669327715	 0.096482
H	-3.2977474261	-2.4246953861	-1.8341748725	 0.108396
H	-2.2999522799	 0.2862052646	-2.1894514726	 0.105136
