19
gdb 53749	4.79957	0.58306	0.54863	3.4455	87.71	-0.2516	-0.0433	0.2083	2040.3038	0.156749	-385.870558	-385.860447	-385.859503	-385.908078	35.054	
C	-0.1964620832	 1.4512010671	-0.0700736492	-0.476433
C	-0.0247465415	-0.0515369192	 0.0365614285	 0.249449
O	-0.006031489	-0.6365118587	 1.099210114	-0.278353
C	 0.1173802515	-0.75257998	-1.2248294779	 0.047703
C	 0.2339286203	-1.3313923252	-2.2784390899	 0.060381
C	 0.3859600018	-2.066940836	-3.5286606706	-0.387773
C	 0.2023957629	-3.5695920118	-3.3721381149	 0.043712
C	-1.1750522119	-4.1725056142	-3.4325141028	-0.246555
C	-0.199951729	-4.3997098252	-4.5629467326	-0.279154
H	 0.6647548277	 1.892432569	-0.5834234266	 0.144269
H	-1.0811890641	 1.6869911323	-0.6712927384	 0.144019
H	-0.2968962813	 1.8800115021	 0.9280932593	 0.141046
H	-0.3326647202	-1.6824199731	-4.2649571338	 0.132248
H	 1.3807364204	-1.8507308119	-3.9427484532	 0.140676
H	 0.8971757374	-4.0239332729	-2.6726861101	 0.101096
H	-1.4035362912	-5.0000943676	-2.7709057308	 0.119721
H	-2.012358324	-3.5059865675	-3.6123831142	 0.114982
H	-0.3843937012	-3.8870263436	-5.5017322522	 0.111683
H	 0.2425664947	-5.3828789038	-4.6766100945	 0.117284
