17
gdb 123905	3.45063	1.54913	1.11284	4.0882	74.04	-0.2081	-0.0015	0.2066	1053.651	0.140007	-418.009908	-418.003053	-418.002109	-418.041134	27.383	
C	-0.0072226648	 1.527135773	-0.0219022814	-0.210945
C	 1.4404784319	 2.0609946362	 0.0085293828	-0.168502
N	 2.2050326044	 1.6763956206	 1.2051594037	-0.40372
C	 1.9217026308	 0.3630724329	 1.615317745	 0.118378
C	 0.9564515952	-0.4273984208	 1.0692027074	 0.385994
C	-0.037506934	-0.0175587573	 0.0415913831	-0.336274
O	 1.0008412201	-1.6572471662	 1.6143274329	-0.230794
N	 2.0120022636	-1.687109109	 2.5755804336	-0.145605
C	 2.555578489	-0.4930566029	 2.5585549843	-0.059826
H	-0.5606969078	 1.9362902221	 0.8316465308	 0.107136
H	-0.5081303	 1.8769369804	-0.9297406117	 0.106038
H	 1.9779681351	 1.6785211677	-0.8695615468	 0.116805
H	 1.447969066	 3.1518137075	-0.0626222494	 0.107767
H	 2.1024251721	 2.3489753521	 1.9557573496	 0.233355
H	-1.0387599602	-0.3790491345	 0.2991188389	 0.127839
H	 0.2083727347	-0.4503861461	-0.937159981	 0.125573
H	 3.3794289539	-0.2803562756	 3.2253850784	 0.126781
