21
gdb 102684	2.27549	0.78522	0.61527	2.1851	81.44	-0.2542	0.0565	0.3107	1793.2262	0.179329	-424.181068	-424.16989	-424.168946	-424.218255	39.578	
O	-0.8966300369	 1.6568256214	 0.4270322958	-0.423383
C	-0.4120591222	 0.32902304	 0.2746813402	-0.09162
C	-1.6066867729	-0.5894364128	 0.0134252778	 0.010086
C	-2.2669783721	-0.2310643163	-1.3287797043	-0.086327
O	-3.4628677562	-0.9585891775	-1.5718948401	-0.41931
C	-1.2215467688	-2.07701369	 0.0513606533	-0.195832
C	-0.9944710157	-2.6336054529	 1.4731494362	-0.36831
C	-0.6247657004	-4.0438847308	 1.474033441	 0.297873
C	-0.3183681297	-5.2059612814	 1.4471956734	-0.438298
H	-0.1432108224	 2.2442986091	 0.5344247203	 0.288802
H	 0.2943952404	 0.256400374	-0.56943468	 0.089123
H	 0.1274917416	 0.0049718456	 1.1773970045	 0.088232
H	-2.342475745	-0.389166973	 0.8076584063	 0.070623
H	-2.4374529246	 0.8515232313	-1.3728756349	 0.109689
H	-1.590416833	-0.4948120346	-2.1511589869	 0.104316
H	-4.1274079984	-0.6443498691	-0.9505966666	 0.281962
H	-2.022084844	-2.6486663822	-0.4260217396	 0.129683
H	-0.3178294993	-2.243098919	-0.5487264569	 0.102891
H	-0.2145449745	-2.0601909725	 1.9897879981	 0.127932
H	-1.9096367773	-2.4966476161	 2.0644332412	 0.129387
H	-0.0495403789	-6.232852433	 1.4346341713	 0.192481
