17
gdb 80465	2.32958	1.68768	1.41416	2.6233	68.27	-0.2489	-0.0264	0.2225	993.3505	0.135033	-458.962253	-458.954123	-458.953179	-458.994957	31.023	
C	 0.5830963367	 1.4863785363	-0.0541194743	-0.410569
C	 0.1474624879	 0.0322548607	 0.0190680387	 0.018187
O	 0.6901646161	-0.7415679376	-1.0644871848	-0.292993
C	 1.1499138651	-1.9957872221	-0.5974729265	 0.003526
C	 2.4967880396	-1.8941385195	 0.0268549609	 0.106159
O	 3.2326098657	-0.7311222817	-0.1304257167	-0.42108
C	 1.2336184953	-1.9610188081	 0.9160723091	-0.254268
C	 0.5798998071	-0.6788279879	 1.3121377203	 0.400143
O	 0.3473264574	-0.2817084686	 2.4247947487	-0.326547
H	 1.6696168716	 1.573186104	 0.0343155709	 0.13202
H	 0.2617814612	 1.942010911	-0.9939020745	 0.129303
H	 0.1300133778	 2.0311484817	 0.7783923412	 0.147043
H	-0.9504852009	-0.0321850501	-0.028140417	 0.117808
H	 0.8048530954	-2.8432528832	-1.1801286876	 0.113204
H	 3.1136372914	-2.7866309582	 0.0836955224	 0.118356
H	 2.7922394006	-0.2289250688	-0.831292289	 0.298104
H	 1.109130032	-2.8228046277	 1.5587763183	 0.121604
