15
gdb 128067	4.43568	1.06799	0.86546	0.9524	71.32	-0.2628	-0.0515	0.2113	1275.2652	0.113267	-453.971905	-453.9636	-453.962656	-454.005816	28.971	
C	 0.0967559954	 1.3897618848	 0.0648618709	-0.336731
N	-0.0652790274	-0.0505782603	 0.0745373537	-0.328421
C	-1.2823193455	-0.646409377	-0.023216567	 0.314479
O	-2.3461537546	-0.0587590308	-0.1227474574	-0.376063
C	-1.2450716644	-2.134080196	 0.0003508331	 0.365663
C	-2.2518542031	-3.045482472	-0.07218971	-0.305096
C	-1.5725622006	-4.2881412197	 0.0020341681	 0.029515
N	-0.2725546438	-4.1417337353	 0.109829802	-0.131344
O	-0.0599606907	-2.7679065779	 0.1094333195	-0.23232
H	 0.7017251956	 1.7146954803	-0.7886580848	 0.133152
H	-0.8971047206	 1.8313807839	-0.0134846173	 0.174236
H	 0.5737065221	 1.7394613827	 0.986762595	 0.133108
H	 0.7472370647	-0.6419507313	 0.1484862648	 0.268044
H	-3.3046146076	-2.8433693575	-0.1641915324	 0.148992
H	-1.9826988793	-5.2878484639	-0.0190546083	 0.142787
