17
gdb 52275	3.40109	1.00179	0.80652	4.0043	71.88	-0.2601	0.0109	0.271	1367.9343	0.135848	-455.130255	-455.121387	-455.120443	-455.165511	30.905	
N	-0.3635211667	 1.1467041602	 0.1053689841	-0.442169
C	-0.5653973656	-0.0616281317	 0.4031609413	 0.124208
O	-0.5275134888	-0.9954777961	-0.5804596465	-0.186075
C	-0.747147788	-2.3471237382	-0.2078917781	-0.111474
C	-2.2329728006	-2.6942999527	-0.0985036905	-0.14114
C	-2.6103323552	-4.1837516824	 0.0656903575	-0.107623
O	-3.270264879	-3.8840892264	 1.3347809646	-0.247512
C	-2.9064269548	-2.5573927496	 1.2580749097	 0.434907
N	-3.0663495109	-1.6193477687	 2.0744472061	-0.540106
H	-0.4241697233	 1.7196448224	 0.9447673999	 0.230965
H	-0.7878516376	-0.4704290274	 1.3940531626	 0.117101
H	-0.2972569757	-2.9418363467	-1.0085494128	 0.127744
H	-0.222943459	-2.5883855495	 0.7262124887	 0.117426
H	-2.7779285443	-2.1883117603	-0.8988097159	 0.133003
H	-3.3148630735	-4.594455872	-0.6600321055	 0.131777
H	-1.7748346664	-4.8733306143	 0.2179431722	 0.124809
H	-3.5590215305	-1.9289401866	 2.9137787227	 0.234159
