21
gdb 113555	2.32859	1.19434	1.17743	1.3998	79.38	-0.2391	0.0626	0.3017	1231.5865	0.180947	-424.183121	-424.173618	-424.172674	-424.217519	35.534	
C	-0.096865233	 1.0461225397	 0.586748304	-0.238369
O	-0.2062238954	 0.0047471279	-0.3610004984	-0.230325
C	-1.394057442	-0.7129433635	-0.241179734	 0.062626
C	-1.4603949219	-2.038536844	-0.9322249832	-0.405952
C	-1.428101755	-1.9854094175	 0.5716477647	 0.272334
C	-0.3314731948	-2.4557653672	 1.5314570095	-0.299228
C	-1.3862764605	-2.4194549575	 2.6778623462	-0.25727
C	-2.5109619826	-2.3381589557	 1.6031617781	 0.084824
O	-3.5990644798	-1.4677314292	 1.7940660931	-0.4286
H	 0.8612626806	 1.5418496412	 0.4143459076	 0.1307
H	-0.9042262728	 1.7854265116	 0.4682961485	 0.106439
H	-0.1226727523	 0.6686257738	 1.6197101798	 0.103384
H	-2.2962091519	-0.097043333	-0.244777631	 0.083355
H	-2.3855858238	-2.3098377106	-1.4312811998	 0.11706
H	-0.5544256893	-2.3685408107	-1.4310936925	 0.1226
H	 0.0129269112	-3.4706293461	 1.3111420088	 0.10562
H	 0.5431607091	-1.8096359425	 1.6319407223	 0.109769
H	-1.415972675	-3.2600141003	 3.3742810874	 0.102315
H	-1.3319037096	-1.4901469586	 3.2548851336	 0.09318
H	-2.9556423244	-3.3194991917	 1.4062115546	 0.091318
H	-3.2424421768	-0.5959639061	 1.9970815407	 0.274221
