17
gdb 114381	2.55741	1.22733	0.98291	3.0658	69.68	-0.2428	-0.03	0.2128	1211.6888	0.134646	-458.912091	-458.903645	-458.9027	-458.945922	30.955	
O	-0.3464611284	 1.6127509813	-0.6643572713	-0.415293
C	-0.1648274475	 0.2922573315	-0.190226301	-0.092446
C	-1.4604876969	-0.4885700478	-0.2940940932	 0.123107
O	-1.96506784	-0.590716084	-1.6676239498	-0.313826
C	-2.2423247429	-1.9797733881	-1.4641358707	 0.068189
C	-0.9729370554	-2.7771213563	-1.3240084337	-0.125858
C	 0.2625910335	-2.474494562	-2.09445504	 0.140876
O	 1.1396138329	-3.2842330235	-2.2796881725	-0.268846
C	-1.560554717	-1.9999453272	-0.1276253559	-0.192063
H	-0.6612878049	 1.5431855374	-1.573178024	 0.29742
H	 0.6493016229	-0.2220122694	-0.7187969471	 0.098703
H	 0.1231813875	 0.3688722977	 0.8643305935	 0.119152
H	-2.2279350932	 0.0129695631	 0.3090586897	 0.105401
H	-3.1864872772	-2.3697481904	-1.825091217	 0.123234
H	-1.128084671	-3.8446120858	-1.1893391757	 0.120301
H	 0.3121217404	-1.4595339951	-2.5349282439	 0.092281
H	-1.8116825227	-2.5245781614	 0.7833220726	 0.119669
