14
gdb 49475	2.29007	1.5802	1.0972	5.4857	66.73	-0.2534	-0.0374	0.2159	1064.931	0.09982	-436.64588	-436.63813	-436.637186	-436.678806	27.896	
O	 0.062774461	-0.0059365837	-0.4816206198	-0.258821
C	 0.0144588089	 1.1374435608	-0.099814442	 0.146431
C	 1.2390575855	 1.9773640176	 0.0513777163	-0.131854
C	 1.2519788775	 3.4717941413	-0.1260401469	 0.07077
O	 0.0264479023	 4.0622657208	 0.3336807198	-0.28048
C	 0.3547578108	 3.691747404	 1.6983938757	-0.021026
C	-0.7238032547	 3.0174191366	 2.4216973261	 0.288544
N	-1.5619747051	 2.4917904045	 3.0184398938	-0.307305
C	 1.5783394773	 2.9047808363	 1.2256857349	-0.167333
H	-0.9476333811	 1.6317678079	 0.1304213626	 0.113959
H	 2.1332251043	 1.485479953	-0.3224324411	 0.12818
H	 1.8254819681	 4.0138155345	-0.8671449624	 0.135639
H	 0.6508208668	 4.5852849617	 2.2600589341	 0.148105
H	 2.5095847284	 2.8168526347	 1.7659657889	 0.135192
