18
gdb 84826	3.06174	1.17636	0.92624	3.6126	74.34	-0.2457	-0.0047	0.241	1245.6562	0.148585	-439.119415	-439.110835	-439.109891	-439.153644	31.749	
O	 0.0077321515	 1.4601174422	 0.6245587759	-0.437645
C	-0.0432174698	 0.1458519817	 0.0476419455	 0.055732
C	 0.8582494086	-0.8225295501	 0.7686687341	-0.120166
C	 0.1634228423	-1.6691176634	 1.5316680635	-0.056265
C	-1.3267721383	-1.4709374805	 1.4130324607	-0.27603
C	-1.4442610613	-0.5229245565	 0.1880781557	 0.026796
N	-2.4838021623	 0.4789764711	 0.2535692209	-0.283269
C	-3.7833411723	 0.2046610793	-0.0112815743	 0.149449
O	-4.2195601803	-0.8997584713	-0.2692006855	-0.335044
H	 0.1446477317	 1.3500891411	 1.57268286	 0.282482
H	 0.2168116121	 0.3008759303	-1.0033349948	 0.098574
H	 1.9382890298	-0.7615500974	 0.7029272736	 0.105063
H	 0.6015607975	-2.4237244385	 2.1766489653	 0.106578
H	-1.8765458032	-2.4031138089	 1.25453217	 0.133628
H	-1.745805714	-1.0146430116	 2.3192818777	 0.110782
H	-1.6222624726	-1.1451233277	-0.6943082508	 0.11384
H	-2.1779503368	 1.4251716889	 0.4313294407	 0.252755
H	-4.4186859826	 1.1117130812	 0.0355934118	 0.072739
