18
gdb 107605	2.68558	1.57874	1.14598	3.2668	71.85	-0.2473	-0.0346	0.2127	1079.7058	0.148501	-439.083091	-439.075027	-439.074082	-439.115718	30.968	
O	 0.0777907072	 1.3564281633	 0.3826214993	-0.41954
C	 0.0465246815	-0.015702798	 0.0479289704	-0.165167
C	-1.3773033301	-0.5275420934	-0.0160253093	 0.193198
C	-2.096659539	-1.1006279216	 1.1661042558	-0.275915
N	-1.6859426331	-1.9709132109	 0.0738391489	-0.141619
C	-2.7893736337	-2.259597869	-0.8853007019	-0.164384
C	-3.3754614398	-0.9216611184	-1.3788621212	-0.357593
C	-2.2881413576	 0.098395663	-1.0260704522	 0.385787
O	-2.1337874646	 1.1935535183	-1.5184698421	-0.344714
H	-0.4562303265	 1.8064676704	-0.2864062907	 0.297966
H	 0.5441016231	-0.2135114254	-0.9150042475	 0.094338
H	 0.600804344	-0.5574266385	 0.8199371224	 0.11618
H	-1.5327014002	-1.2149262718	 2.0874760958	 0.13594
H	-3.1532518596	-0.8805558763	 1.3037472959	 0.118818
H	-2.3506242172	-2.8166493606	-1.7179101711	 0.124035
H	-3.5248015195	-2.9075949526	-0.4014788757	 0.119435
H	-3.571770385	-0.9011024965	-2.4523170678	 0.143102
H	-4.3086032598	-0.6370514419	-0.8800292988	 0.140134
