25
gdb 122337	3.10382	0.67662	0.63176	1.3158	89.8	-0.257	0.0787	0.3357	1904.4721	0.227177	-389.479392	-389.467973	-389.467028	-389.516818	40.898	
C	-0.3224050013	 1.0212732463	-1.656152263	-0.407496
C	-0.03817348	-0.1967450892	-0.8017928088	-0.013869
C	 1.3656828765	-0.6248659493	-0.4178023526	-0.043469
C	 2.6074646784	 0.1297881037	-0.8467832277	-0.403504
C	 0.4133514642	-0.1132611244	 0.6454695398	-0.020966
C	 0.6129726266	 1.1985531887	 1.3804575145	-0.214773
C	-0.6830112205	 1.7146530246	 2.0194647195	-0.158303
C	-0.4877645285	 3.0095841195	 2.7957686395	-0.07582
O	-1.7417911716	 3.388354027	 3.344818909	-0.42224
H	 0.3476187681	 1.8575022653	-1.4430220178	 0.11387
H	-0.2147801223	 0.7832357324	-2.7205864787	 0.114435
H	-1.3473735239	 1.37703655	-1.5019551355	 0.118098
H	-0.7175507921	-1.0191963985	-1.0143501494	 0.077179
H	 1.5205783999	-1.7015412545	-0.4015668654	 0.076781
H	 2.4598739787	 1.2117584286	-0.8771501682	 0.113975
H	 3.439479793	-0.0659072565	-0.1607351858	 0.114579
H	 2.9265321313	-0.1832147865	-1.8474226039	 0.114024
H	-0.0002708993	-0.8850147195	 1.2923239833	 0.075365
H	 1.3723401405	 1.0582053735	 2.1629351413	 0.092737
H	 1.0157703647	 1.9659887554	 0.7106434664	 0.09144
H	-1.4432376714	 1.8798308472	 1.2472165195	 0.109024
H	-1.0925070346	 0.9593628301	 2.7016231581	 0.102741
H	 0.2643098073	 2.8585537684	 3.5882193187	 0.081502
H	-0.095586442	 3.7910070368	 2.1233807224	 0.080867
H	-1.6197904217	 4.2055502909	 3.8364972948	 0.283822
