22
gdb 77393	2.1639	1.97049	1.25517	1.6177	86.81	-0.222	0.0848	0.3068	1106.143	0.192847	-367.137449	-367.128404	-367.12746	-367.17028	35.511	
C	-0.1705082034	 1.6173432588	-0.0207630443	-0.434495
C	-0.0137342068	 0.1057512648	 0.0020852279	-0.088568
C	 1.2145431118	-0.5459984559	-0.6535386052	 0.36973
C	 1.5488313834	-0.6649342441	-2.1113391385	-0.524349
C	 2.1659358383	-0.2259246235	 0.5498639173	-0.157318
C	 2.5350918677	-1.7002153257	 0.6267126334	-0.208919
N	 1.0607954627	-1.8089033849	 0.2526651094	-0.222191
C	 0.7584576621	-0.5660421756	 1.1491247557	 0.369717
C	 0.3599359515	-0.717153363	 2.5876726947	-0.524352
H	 0.7689167835	 2.1256289599	 0.2224316349	 0.114415
H	-0.4916260895	 1.9659951704	-1.0083207107	 0.1181
H	-0.9242363149	 1.9469811321	 0.7025486577	 0.118099
H	-0.9521915879	-0.4094740335	-0.2410854319	 0.069911
H	 1.677121156	 0.3261791268	-2.5600606629	 0.122101
H	 2.4746780905	-1.227580634	-2.2695134991	 0.123752
H	 0.7440291104	-1.1799982993	-2.6461098313	 0.130223
H	 2.7785649462	 0.6676728124	 0.7148027662	 0.057333
H	 3.2118003387	-2.1084917276	-0.1307907017	 0.095377
H	 2.7725484672	-2.127914487	 1.6060544761	 0.095361
H	 1.1022053028	-1.2877371693	 3.1553449804	 0.123752
H	 0.254034989	 0.2636889313	 3.0639585863	 0.1221
H	-0.5995451595	-1.2391367831	 2.6645239457	 0.130223
