15
gdb 34189	4.3333	1.4116	1.27554	1.7008	78.87	-0.2224	-0.0165	0.2059	980.1446	0.112258	-383.406992	-383.400144	-383.399199	-383.437949	28.03	
C	-0.0168848027	-1.1299207324	 0.0051871517	-0.370895
C	-0.0479378183	 0.0727014998	-0.0223961704	 0.161368
C	-0.0578423426	 1.4894664025	-0.0591043394	 0.354924
O	-1.1152390785	 2.2098744266	 0.5317648757	-0.331878
C	-0.7216537627	 3.4071766742	-0.2770936085	 0.022438
C	 0.1535336265	 4.2176852965	 0.6401255991	-0.102062
C	 1.2981011559	 3.5375260858	 0.8141194526	-0.05521
C	 1.3080728987	 2.3465515101	-0.0594640078	-0.172562
C	 0.2410582774	 2.5117251869	-1.1067506299	-0.221732
H	 0.0003676255	-2.1914412611	 0.03020665	 0.190564
H	-1.599555884	 3.8602955078	-0.7323556954	 0.090997
H	-0.1895106583	 5.0743496417	 1.2041979946	 0.108945
H	 2.0696797514	 3.7511894254	 1.5430627175	 0.109273
H	 2.2001284509	 1.7732647212	-0.2754270592	 0.103966
H	 0.3587487808	 2.4372577251	-2.1802160105	 0.111865
