21
gdb 95407	3.14953	1.20738	0.91485	1.0653	89.32	-0.2132	-0.0215	0.1916	1333.9869	0.182262	-387.101323	-387.092271	-387.091327	-387.135068	34.695	
C	-0.3356209759	 1.4343158516	 0.0245177249	-0.402573
C	 0.0387856107	-0.0444190745	 0.0278603368	 0.060502
O	 0.6493079235	-0.3236112327	-1.235807303	-0.249921
C	 0.491617074	-1.6401059132	-1.6997552603	-0.138399
C	 1.0276881961	-2.7520693494	-0.8431778942	-0.163638
C	 1.5442359128	-2.727809595	 0.3969724224	 0.286998
C	 2.0896175683	-4.0005197583	 1.0099490248	-0.479059
C	 1.6246526482	-1.5544922766	 1.2763810865	-0.118587
C	 0.9674497085	-0.3947267922	 1.1644087696	-0.069311
H	 0.5611128973	 2.0487442824	-0.1025208421	 0.129193
H	-1.0219208582	 1.6526365621	-0.7969406652	 0.119276
H	-0.815271679	 1.7118909814	 0.9682206399	 0.113924
H	-0.8799742125	-0.6487905906	 0.1152766612	 0.080698
H	-0.5698167327	-1.8537139581	-1.9316841791	 0.092402
H	 1.0173570251	-1.6630304339	-2.6644461252	 0.11844
H	 1.0004993321	-3.7137814521	-1.3558037036	 0.081527
H	 3.1520544169	-3.888764207	 1.2604703165	 0.125817
H	 1.5713086548	-4.2443282749	 1.9454976864	 0.125099
H	 1.9900180775	-4.8526323687	 0.333499935	 0.118314
H	 2.2716848019	-1.6820477463	 2.1426298242	 0.082661
H	 1.1246260607	 0.370635626	 1.9206618844	 0.086636
