13
gdb 5459	3.53493	1.97462	1.2686	4.3809	69.66	-0.2035	-0.0094	0.1941	880.7399	0.098233	-357.696467	-357.689385	-357.688441	-357.727581	26.569	
N	 0.0161606249	 1.4121049141	 0.1663194137	-0.613035
C	 0.0269417372	 0.0298714751	 0.0500259987	 0.208076
C	-1.0932737118	-0.8031149883	 0.021509563	 0.15614
N	-0.6327161732	-2.116286988	-0.0186918693	-0.320814
C	 0.7224842496	-2.1168517715	-0.0247414591	-0.064549
C	 1.1694024627	-0.8112911472	 0.0178408946	-0.207271
C	-2.4534990484	-0.4623988144	 0.0200683515	 0.18372
N	-3.5742546566	-0.154129692	 0.0124932161	-0.368931
H	 0.7985935379	 1.8737815339	-0.2741129086	 0.25233
H	-0.8593233445	 1.8463592987	-0.0922155856	 0.260743
H	-1.2276295476	-2.925264757	-0.0462200189	 0.277086
H	 1.2778752274	-3.0406084748	-0.0567432441	 0.134032
H	 2.1997729123	-0.4918938188	 0.0347335478	 0.102472
