12
gdb 129143	3.24222	1.54661	1.04711	2.5602	76.71	-0.2445	-0.0889	0.1556	1029.3011	0.077704	-427.753914	-427.74643	-427.745486	-427.787299	27.256	
N	-0.0567541616	 1.3097046972	 0.0093989099	-0.503284
C	-0.0172913016	 0.0373006817	 0.0028545578	 0.299538
N	 1.2166406812	-0.6767761945	-0.0074523511	-0.244216
N	 1.2282352557	-1.9401569495	-0.0146714388	-0.038325
N	 0.0573626465	-2.5956493559	-0.0121721398	-0.127814
N	-1.1804949981	-2.0838980679	-0.001472447	-0.246367
C	-1.2431872565	-0.7813310823	 0.0062850738	 0.142941
C	-2.5202760661	-0.1660771127	 0.0180043112	 0.332617
C	-3.5951617173	 0.3735985821	 0.0280481574	-0.360361
H	 0.9009120757	 1.6708110406	 0.0056617633	 0.231591
H	 0.1292302277	-3.600879687	-0.0178540735	 0.301038
H	-4.5413826456	 0.8567868082	 0.0370359267	 0.212642
