20
gdb 22361	2.21249	1.33201	0.87899	1.681	89.15	-0.2113	-0.0194	0.1919	1353.389	0.169897	-403.143308	-403.133773	-403.132829	-403.178	35.405	
C	-0.053792222	 1.5583611924	 0.0632478744	-0.38988
C	 0.0562020056	 0.0300931502	 0.0207936007	-0.065404
C	 0.8636188135	-0.50877435	-1.1932287721	-0.325872
C	 1.9761719291	-1.3414403146	-0.5957698217	 0.312723
C	 2.9751266235	-2.0388435976	-1.4591985756	-0.487258
C	 1.923680733	-1.3426328784	 0.7470842258	-0.256322
C	 0.8036973761	-0.5422282941	 1.222995872	 0.385068
N	 0.4165486088	-0.2903489084	 2.4158705051	-0.253088
O	 1.2484178247	-0.9126910024	 3.370396575	-0.398953
H	 0.9400823983	 2.0192271574	 0.0581571593	 0.114861
H	-0.6078791542	 1.9354416404	-0.8027902618	 0.107453
H	-0.5673647622	 1.8782530853	 0.9732899245	 0.134656
H	-0.9558145237	-0.3891840935	 0.0074031062	 0.09558
H	 0.244732988	-1.1063562828	-1.8748814696	 0.109241
H	 1.274382585	 0.3088941927	-1.8017797735	 0.108133
H	 3.5120256436	-1.3222853439	-2.0942392221	 0.131862
H	 3.7095368154	-2.5914778166	-0.8680973431	 0.130462
H	 2.4802179692	-2.7427421407	-2.1406549762	 0.131575
H	 2.6068469388	-1.8540052274	 1.4109030338	 0.112682
H	 0.8391126195	-0.641233758	 4.198032199	 0.302481
