20
gdb 88088	3.21845	1.31168	1.21895	0.7291	78.73	-0.2284	0.0819	0.3103	1121.446	0.171389	-403.096285	-403.088193	-403.087249	-403.128713	31.881	
C	-0.1666587853	 1.4547510893	 0.0099803365	-0.318977
N	-0.0029607692	 0.0097042192	 0.0906434902	-0.122873
C	 1.3207107159	-0.531123016	-0.2185227861	-0.313051
C	 0.7942209626	-0.5527074462	 1.1746100555	 0.344851
C	 1.4090169539	 0.3079331208	 2.293957339	-0.173631
O	 1.7454707968	-0.5817688515	 3.353827147	-0.261337
C	 0.989914987	-1.7607231879	 3.2132665434	 0.120632
C	-0.5059854816	-1.6528034745	 3.1009331479	-0.337482
C	 0.3560186054	-1.8191074122	 1.8561396502	-0.152116
H	 0.7307802977	 2.0314349819	 0.2881999523	 0.10137
H	-0.4312175367	 1.7211552083	-1.0181107014	 0.12585
H	-0.9902186614	 1.767228617	 0.6599594394	 0.125048
H	 1.3367813746	-1.434552454	-0.8242177247	 0.113086
H	 2.1233362224	 0.1741800128	-0.4360054571	 0.103823
H	 2.3189867514	 0.8360386267	 1.996784407	 0.115107
H	 0.6832842199	 1.0579578383	 2.6430355444	 0.101645
H	 1.459168193	-2.6025280857	 3.7079421277	 0.102891
H	-1.0903352446	-2.5129016603	 3.4096966182	 0.114788
H	-0.9848253965	-0.6968866522	 3.2852656572	 0.118105
H	 0.2901717149	-2.7288947038	 1.2726431935	 0.092272
