17
gdb 76001	2.76005	1.1724	1.07268	1.2036	83.69	-0.2366	0.0154	0.252	1196.4371	0.131458	-384.607298	-384.597365	-384.596421	-384.641592	36.846	
C	-0.0752755517	 1.5693517244	-0.0764307352	-0.449713
C	-0.0154864506	 0.0528710718	-0.044730448	 0.04767
C	-1.1702492576	-0.6318397227	-0.556324677	 0.26702
C	-2.133351951	-1.2081376517	-0.9903825241	-0.427593
C	 1.3302658733	-0.6390925083	-0.2360646086	 0.096562
O	 2.4701124269	 0.1173000231	-0.450047039	-0.423982
C	 0.6933105988	-0.6636695524	 1.1420500697	-0.322447
C	 1.322390093	 0.0981059389	 2.1748564794	 0.286715
C	 1.919720261	 0.7348387526	 3.0052361321	-0.408181
H	 0.8798220243	 2.001411601	 0.2227423789	 0.129009
H	-0.3008965904	 1.907739178	-1.0914316261	 0.133001
H	-0.8562463275	 1.9416937335	 0.5921904828	 0.130027
H	-2.9852096459	-1.7105867887	-1.3766581455	 0.194606
H	 1.3219143004	-1.5699010578	-0.7962472392	 0.117741
H	 2.8475731597	 0.3500242879	 0.4090518193	 0.294417
H	 0.240567571	-1.5988444037	 1.4535523387	 0.130438
H	 2.4059454662	 1.297560634	 3.7636605014	 0.20471
