15
gdb 2306	5.88897	1.39039	1.21994	2.0672	66.81	-0.244	0.0303	0.2743	996.7495	0.122629	-308.477915	-308.469717	-308.468773	-308.511896	27.66	
C	 0.1102863368	 1.5201667702	 0.0671555301	-0.500813
C	 0.0435089531	 0.0671344646	 0.0347847075	 0.094315
C	-0.0150668845	-1.1361197254	 0.016767626	 0.09445
C	-0.0422428457	-2.5726829046	-0.0291602786	-0.160481
O	-0.5139010368	-3.2746423492	 1.1379818813	-0.245587
C	-1.3021665357	-3.3525753667	-0.0471788293	 0.097409
C	-2.6641056995	-2.713379834	-0.0163491473	-0.424152
H	 1.1471696063	 1.8713104791	 0.027852519	 0.152388
H	-0.4244033679	 1.9632565395	-0.7802747159	 0.150723
H	-0.3391102201	 1.9133897441	 0.9855610096	 0.154857
H	 0.8347577725	-3.0331340264	-0.4849303275	 0.108013
H	-1.2538262759	-4.3260623102	-0.5405880902	 0.090239
H	-2.61238665	-1.7106964384	 0.4127406952	 0.138571
H	-3.0727753551	-2.6420013648	-1.0300355737	 0.121463
H	-3.3527882173	-3.3175631178	 0.5831904039	 0.128606
