19
gdb 85610	2.23337	1.63933	0.99592	3.3462	78.24	-0.2324	0.0106	0.243	1192.3891	0.161967	-419.251691	-419.243208	-419.242264	-419.285134	32.197	
C	-0.951710392	 1.1605983646	 0.1310861019	-0.413213
C	 0.1924626592	 0.148355186	-0.0138410814	-0.004223
N	 0.8963196375	 0.4452839535	-1.2697153279	-0.332841
C	 1.8082384708	-0.4119733035	-1.8659668492	 0.378308
O	 1.8348066808	-0.5975911396	-3.0703198083	-0.39535
N	 2.6871564066	-1.0449885817	-1.0015844325	-0.325976
C	 3.3121466495	-0.3772239765	 0.138987365	-0.222141
C	 2.3896799047	-0.0108483213	 1.2668935379	-0.062257
C	 1.0789805489	 0.1935108826	 1.206654631	-0.013473
H	-0.5575004827	 2.1794565215	 0.1953005221	 0.133804
H	-1.6340544803	 1.1037944205	-0.7233963327	 0.119568
H	-1.530950817	 0.9544197405	 1.0349828042	 0.125167
H	-0.2590366782	-0.8572936531	-0.068413491	 0.099388
H	 0.28069642	 0.8031169165	-1.9878594917	 0.241415
H	 3.334268793	-1.5988494673	-1.5453731058	 0.246278
H	 4.0608162542	-1.0750532917	 0.5297570388	 0.118656
H	 3.8727276329	 0.5199564308	-0.1759509151	 0.122911
H	 2.8860063392	 0.0967318646	 2.228630703	 0.094403
H	 0.5511538327	 0.4150884536	 2.1314746415	 0.089577
