21
gdb 86146	2.2629	1.62579	1.06147	3.7167	80.81	-0.2202	0.0662	0.2864	1202.9728	0.182995	-420.466178	-420.456359	-420.455415	-420.500778	35.288	
C	 0.1823678885	 1.579989952	 0.0151816338	-0.398969
C	-0.0002988344	 0.056495272	-0.0006131778	 0.01734
C	 0.7292804757	-0.6209329712	-1.187157265	-0.183267
N	 1.9734533103	-1.0627386426	-0.5874934401	-0.123032
C	 2.9063966921	-1.8936149253	-1.3093622992	-0.337991
C	 1.8290726216	-1.1983004008	 0.7874779922	 0.475184
O	 2.6178387895	-1.7305304524	 1.5445529831	-0.443394
N	 0.6263741453	-0.6128858125	 1.1310464147	-0.112086
C	 0.2538581465	-0.3980611871	 2.506780186	-0.345392
H	 1.2451336204	 1.8407952395	-0.0115935863	 0.132699
H	-0.3076660237	 2.0289662994	-0.8548677053	 0.117929
H	-0.2588808825	 2.0255168742	 0.9114978687	 0.12214
H	-1.0720224663	-0.1757136629	-0.0258485586	 0.083804
H	 0.1509629936	-1.4725061256	-1.5811412919	 0.098144
H	 0.9025552026	 0.0787860738	-2.0119545449	 0.109155
H	 3.3854614585	-1.3294824815	-2.1171748339	 0.118258
H	 3.6673952376	-2.2287425508	-0.6025952598	 0.162477
H	 2.4176906183	-2.7770360039	-1.7491645696	 0.109343
H	 0.911538392	-1.0160756341	 3.1207569505	 0.164331
H	 0.3681705582	 0.6487618015	 2.8196308483	 0.116798
H	-0.7870979839	-0.6967459317	 2.679871975	 0.11653
