18
gdb 82349	3.26551	1.34524	1.11353	3.6384	75.22	-0.2779	0.023	0.301	1101.7108	0.149483	-401.959187	-401.951286	-401.950341	-401.991648	30.78	
O	 0.0045705648	 1.4201337627	 0.0819371457	-0.422838
C	-0.004132724	 0.0073200297	 0.0223974735	 0.082325
C	-1.4369657901	-0.5046661144	-0.109363592	-0.051208
C	-2.3955794228	 0.3309213648	-0.9178955381	-0.271516
C	-1.7010043153	-0.8333327654	-1.5694495217	-0.042915
C	-0.4259014923	-0.5397980494	-2.3615908406	-0.248424
C	 0.6862801124	-0.5390349585	-1.2750683476	-0.151053
C	 1.8905003601	 0.2086334342	-1.6167713363	 0.250044
N	 2.8318594799	 0.8419179266	-1.842297018	-0.329843
H	 0.9213830119	 1.7204571664	 0.0739569137	 0.297974
H	 0.483814066	-0.418003429	 0.9095567204	 0.082281
H	-1.8255661377	-1.1255928982	 0.6884902947	 0.09135
H	-3.4504340605	 0.2258748966	-0.6889567708	 0.112531
H	-2.0853242479	 1.3348666266	-1.1821763847	 0.137845
H	-2.2842936294	-1.7058704617	-1.839708658	 0.090276
H	-0.2272212871	-1.2934978738	-3.1264474964	 0.118101
H	-0.4700326667	 0.4311414002	-2.8629501943	 0.130124
H	 0.9734684388	-1.5781465574	-1.0766888194	 0.124946
