19
gdb 38824	2.98022	1.71518	1.21382	1.8109	79.66	-0.2408	0.0241	0.2648	1033.8495	0.161156	-385.868553	-385.86135	-385.860406	-385.900214	29.234	
C	 0.0183967245	 1.6160911265	-0.0277126715	-0.270066
C	 1.5535929987	 1.5484255282	-0.0167212339	-0.066848
O	 1.9381805695	 0.7910715054	-1.1763097035	-0.310657
C	 1.5420427027	 0.0740758566	-0.0045701348	 0.488784
C	 2.4146694416	-1.0124252839	 0.5414588246	-0.403115
C	 1.6581445146	-1.8605341847	 1.5334798479	-0.042683
C	 0.3845592716	-1.6703740546	 1.8786597254	-0.062276
C	-0.4971276511	-0.5555750406	 1.3670130047	-0.27875
C	 0.0033272708	 0.0455566464	 0.0424912344	-0.078301
H	-0.414027742	 2.0830113869	 0.8608568589	 0.102113
H	-0.4045163333	 2.0747225477	-0.9246172052	 0.109618
H	 2.276228476	 2.2617271572	 0.3648482094	 0.098302
H	 2.7647217096	-1.6433680625	-0.2885230414	 0.125646
H	 3.3233300131	-0.5971372471	 0.996973469	 0.118457
H	 2.2147822945	-2.6817198862	 1.9781489127	 0.088139
H	-0.0653534293	-2.3391368997	 2.6089575975	 0.086298
H	-1.526208287	-0.916283634	 1.2541977894	 0.108662
H	-0.5498242181	 0.2232309762	 2.1420454648	 0.109246
H	-0.4529627363	-0.4611620378	-0.8124886785	 0.07743
