19
gdb 97196	3.5154	1.11822	0.8733	4.5446	87.88	-0.1981	-0.0011	0.197	1336.4484	0.16032	-419.233766	-419.224756	-419.223812	-419.267733	33.623	
C	 0.1400645897	 1.4398915979	 0.0814310034	-0.317558
N	 0.121221846	-0.0108463297	 0.0550665413	-0.326761
C	 0.461643095	-0.6165421067	-1.010286063	 0.407007
O	 0.8980735594	 0.0765636528	-2.1193367857	-0.270011
C	 0.8328137932	-0.6059523136	-3.3678381775	-0.085211
C	 1.5154808597	-1.9687638387	-3.3100641798	-0.313156
C	 0.9774999088	-2.7419413778	-2.1341778141	 0.33705
N	 1.0039410512	-4.1203436441	-2.241723506	-0.57119
C	 0.4631909304	-2.0698981898	-1.0849220203	-0.257363
H	 1.1267785881	 1.8077403524	 0.3966835445	 0.114932
H	-0.0863082805	 1.9043451688	-0.8863961611	 0.11018
H	-0.5843025363	 1.7905563045	 0.8234043996	 0.110051
H	-0.2174979244	-0.7342817056	-3.6634361868	 0.11106
H	 1.3164946985	 0.0539484404	-4.0923971379	 0.113776
H	 1.3245661331	-2.5106782907	-4.2439730463	 0.114327
H	 2.6035596869	-1.8501097242	-3.2179997273	 0.125749
H	 1.7159186361	-4.505006011	-2.8442539428	 0.250885
H	 0.9019014521	-4.63509641	-1.3789958106	 0.254704
H	 0.0751953528	-2.5778185348	-0.2099180994	 0.09153
