25
gdb 103590	2.66224	1.09355	0.94008	1.4271	88.75	-0.256	0.066	0.322	1409.489	0.226571	-389.49121	-389.480445	-389.479501	-389.526629	41.261	
C	 0.6596493966	 1.3420231508	-0.5196477779	-0.44483
C	 0.2349973568	-0.0825485263	-0.8780208327	 0.380636
C	-1.1607746468	-0.0843097411	-1.5004173926	-0.442663
C	 1.3028517313	-0.8700062174	-1.7087248265	-0.337021
C	 1.5314865584	-1.8502415911	-0.5155896797	 0.359878
C	 1.2346099242	-3.3169725994	-0.8234316492	-0.47382
C	 2.9249628516	-1.689815768	 0.1006512199	-0.120765
O	 3.062680772	-2.3103798192	 1.3699533026	-0.424602
C	 0.4184328034	-1.1091913104	 0.2879126577	-0.323
H	 1.6578057723	 1.36540648	-0.0701292874	 0.112375
H	 0.6802092922	 1.982543638	-1.4094925139	 0.108738
H	-0.0367426296	 1.7901155992	 0.1989952662	 0.111053
H	-1.1863166362	 0.5226292969	-2.4134086176	 0.109132
H	-1.4800254372	-1.0979016399	-1.7659210081	 0.106476
H	-1.902829056	 0.3265262272	-0.8054667917	 0.110525
H	 0.9027758235	-1.3494992489	-2.6069806894	 0.088259
H	 2.1833674131	-0.287537544	-2.0008058468	 0.08851
H	 1.975589839	-3.7377885344	-1.5147827125	 0.109777
H	 1.2330418773	-3.9258088681	 0.0892362086	 0.106045
H	 0.2485861276	-3.4333921234	-1.2841045107	 0.116755
H	 3.6842518613	-2.0580559112	-0.6102686504	 0.081265
H	 3.1351453998	-0.6289084431	 0.2736023944	 0.104961
H	 3.0170592903	-3.2624802846	 1.2421494399	 0.283771
H	 0.754822388	-0.6868507659	 1.2385359137	 0.102839
H	-0.4686446629	-1.7187670655	 0.4844792541	 0.085707
