20
gdb 110556	3.08144	1.27233	1.06569	3.0246	79.88	-0.2272	0.0692	0.2963	1193.081	0.170294	-403.042189	-403.033588	-403.032644	-403.075572	32.848	
C	-0.078699899	 1.5573239665	-0.3082139765	-0.530454
C	-0.037502395	 0.058270041	-0.1349589289	 0.308079
C	 0.3715913374	-0.978572828	-1.1777462487	-0.218429
N	 0.0506347431	-1.8969889681	-0.0099361648	-0.162252
C	 0.6315417252	-0.8413092409	 0.9681067811	-0.089468
C	-0.6203099315	-0.9585926098	 1.8503557129	 0.031992
C	-1.0166974834	 0.122031601	 2.8327251103	-0.133707
O	-2.3693416235	-0.1213351202	 3.1990656793	-0.419285
C	-1.1160297025	-0.9557436069	 0.3971394595	-0.055696
H	 0.913499241	 1.9374116163	-0.5776017296	 0.121852
H	-0.7658395812	 1.8274380732	-1.118209674	 0.124101
H	-0.4042822171	 2.0838823925	 0.5924533159	 0.125239
H	-0.2847238283	-1.1270785362	-2.0430026483	 0.095003
H	 1.4229437724	-1.0146790207	-1.4863733791	 0.093199
H	 1.6883678314	-0.8779618689	 1.2449176846	 0.075058
H	-0.7174203684	-1.9447360361	 2.317643806	 0.091518
H	-0.3509249266	 0.0723898902	 3.7100589149	 0.087667
H	-0.9010971691	 1.1234040962	 2.3954383439	 0.086204
H	-2.6211364578	 0.5238365269	 3.8662051662	 0.287266
H	-2.1201997269	-1.1262244881	 0.0044511151	 0.082115
