16
gdb 17099	4.89014	1.51341	1.45346	3.2777	64.7	-0.2435	-0.0221	0.2214	888.829	0.13157	-383.725496	-383.718903	-383.717958	-383.756607	25.181	
O	 0.0003174684	-0.031918089	-0.0449259807	-0.256961
C	 0.0390460326	 1.1674745249	 0.069149372	 0.144674
C	 1.3019458343	 1.9900108702	 0.0542563688	-0.068631
C	 1.2882943258	 3.117718556	-1.0390102963	-0.253901
C	 1.4096512035	 4.3261373897	-0.0880156208	 0.084927
C	 2.5292991062	 3.9193552309	 0.8932800967	-0.229516
C	 1.4010635156	 2.9430983167	 1.2851283179	 0.053015
O	 0.4353621178	 3.9841817235	 0.9504447741	-0.293708
H	-0.8879157769	 1.7688028384	 0.1999899926	 0.090624
H	 2.1579556395	 1.3165872286	-0.0258466999	 0.092661
H	 2.1145733155	 3.0262867938	-1.7474213717	 0.113801
H	 0.3499328009	 3.149691002	-1.5986754075	 0.118973
H	 1.2956073288	 5.3303725124	-0.4942091383	 0.088613
H	 3.4714433597	 3.5262424414	 0.5033405561	 0.101672
H	 2.6911962535	 4.6740938975	 1.6630191567	 0.1193
H	 1.2811634649	 2.5211834528	 2.2825332104	 0.094455
