16
gdb 35409	3.07887	1.62837	1.34596	5.7464	72.11	-0.2336	0.0229	0.2565	956.8935	0.126301	-396.844655	-396.837672	-396.836728	-396.876075	27.715	
N	-0.2505506455	-1.181821825	-0.3005841102	-0.343873
C	-0.114737262	-0.0519798693	-0.0985194021	 0.33838
C	 0.0158143149	 1.397657551	 0.0584336705	-0.169579
N	-0.1673295023	 1.9264850286	 1.4395541804	-0.290328
C	 1.1077573966	 2.6816151588	 1.3600393864	-0.026314
C	 2.351908963	 1.9647311694	 1.9561968711	-0.04194
N	 2.1510031973	 0.5210082451	 1.7364422693	-0.301723
C	 2.6513430586	 1.345925244	 0.6235246263	-0.068488
C	 1.4406781415	 2.052848663	-0.017760016	-0.04679
H	-0.6509499308	 1.8645779056	-0.6769732259	 0.114616
H	-0.9908625711	 2.5080492881	 1.5342366887	 0.227304
H	 1.0644465683	 3.7610761635	 1.5114962383	 0.078827
H	 3.017230053	 2.3232801999	 2.7321863508	 0.098005
H	 2.9466092783	 0.0286626138	 2.1389645278	 0.239039
H	 3.5957052952	 1.1251731995	 0.1428438062	 0.101697
H	 1.653216055	 2.655754584	-0.8982251916	 0.091167
