18
gdb 8190	2.70483	2.24465	1.62636	1.2204	67.84	-0.2228	0.0609	0.2836	869.586	0.151828	-384.893086	-384.884856	-384.883912	-384.924871	31.618	
C	-0.0007836361	 1.5333187368	 0.0256598363	-0.468103
C	 0.0382055353	 0.0188697621	 0.0694202028	 0.257877
C	-1.1901529423	-0.6707119925	-0.5019575087	-0.448
C	 1.3270352811	-0.7442478494	-0.1789274116	-0.03958
O	 2.4658629065	-0.0194936192	 0.2998282169	-0.284262
C	 1.9711034893	-0.0789424723	 1.663772671	-0.157318
C	 0.6832875546	-0.7556364796	 1.2009242153	 0.265251
O	-0.0330744952	-1.6786315483	 1.9343889284	-0.447019
H	 0.9725894601	 1.9649602341	 0.2682061252	 0.134196
H	-0.269841547	 1.8760302307	-0.9796755673	 0.114733
H	-0.746122616	 1.9318309652	 0.7229566566	 0.11498
H	-1.3660732507	-0.3398310097	-1.5311239695	 0.113374
H	-1.0853560282	-1.7587286871	-0.501768286	 0.119319
H	-2.0811870622	-0.4318278	 0.0881477211	 0.125411
H	 1.4815647859	-1.4790644487	-0.9615466243	 0.102973
H	 2.6035346165	-0.7389661913	 2.2729595312	 0.097955
H	 1.905485775	 0.9066377272	 2.1379483551	 0.110153
H	 0.5527754433	-2.4080806781	 2.1673584975	 0.288058
