21
gdb 108557	3.20744	1.44857	1.24477	0.9139	81.36	-0.2368	0.0922	0.329	1097.5881	0.184006	-387.06006	-387.052137	-387.051193	-387.092257	31.695	
C	 0.248178466	 1.2643367386	 0.1794440246	-0.25492
O	-0.1365700994	-0.0458860545	-0.1926004521	-0.301439
C	 0.5596056631	-0.5489588538	-1.2863844689	 0.471148
C	 0.2926378497	 0.0327539697	-2.6787677531	-0.300802
C	 0.5063094049	-1.1799249208	-3.6251912555	-0.207982
C	 1.3067918889	-2.1785549173	-2.7739803509	-0.048977
C	 2.6508252704	-1.5464445863	-2.2723924918	-0.242525
C	 1.9332686201	-1.1465080534	-0.9848305654	-0.121304
C	 0.7405950394	-2.0332994791	-1.3343452913	-0.15101
H	 1.3196533367	 1.3210443813	 0.4182207032	 0.106725
H	 0.0297533872	 1.9959285266	-0.6113672012	 0.109898
H	-0.3306035699	 1.5256720524	 1.0684867558	 0.124663
H	-0.7309584851	 0.416740781	-2.7258092822	 0.103848
H	 0.9649334745	 0.8626527656	-2.9210178556	 0.097132
H	-0.458899116	-1.6183038218	-3.901817404	 0.098624
H	 1.0246455733	-0.9109341716	-4.5512404586	 0.093336
H	 1.3828664857	-3.1787576358	-3.2001458919	 0.067678
H	 3.4092044253	-2.3113395543	-2.0843436789	 0.100735
H	 3.0931548856	-0.7565933583	-2.8918450566	 0.084667
H	 2.3822835602	-0.9902334631	-0.0103957525	 0.081725
H	 0.1892626994	-2.7435298547	-0.7332563432	 0.088779
