21
gdb 116444	2.0008	1.616	1.07449	1.4917	73.83	-0.2573	0.0728	0.3301	1191.3083	0.183429	-461.361077	-461.352016	-461.351072	-461.39515	34.266	
C	-0.1009807646	 1.5199030231	-0.1502766472	-0.413041
C	 0.0370971597	 0.0125598216	 0.0030329081	 0.114524
O	 0.7376099998	-0.4720840958	-1.1491540794	-0.252858
C	 0.8531196342	-1.8697717008	-1.1441766442	 0.019747
O	 1.5563053387	-2.35822351	-0.0312933759	-0.245257
C	 0.8925851896	-1.9923283212	 1.1752570901	-0.117192
C	 0.767645148	-0.4667140355	 1.2769283084	-0.026819
C	 2.1471154063	 0.2060005102	 1.4379821766	-0.074739
O	 2.9529079301	-0.4094161576	 2.4346492728	-0.428805
H	 0.8767126302	 2.0015418922	-0.2306997105	 0.133072
H	-0.6666681848	 1.7525865635	-1.0563825599	 0.125636
H	-0.6296879954	 1.9441863669	 0.708843969	 0.117603
H	-0.9713764565	-0.4379090494	 0.0074791487	 0.064996
H	-0.1552817474	-2.327255678	-1.1725078962	 0.075409
H	 1.4208352275	-2.148910058	-2.0341547837	 0.117084
H	-0.1073219958	-2.4558230562	 1.2084564355	 0.088748
H	 1.4825911925	-2.396429188	 2.0000084289	 0.113022
H	 0.1507966845	-0.2342324547	 2.1543442518	 0.075585
H	 2.6586414208	 0.219982359	 0.4685634017	 0.113008
H	 2.0137916598	 1.2436412854	 1.7579858691	 0.108143
H	 3.400434633	-1.1552909266	 2.0246300163	 0.292135
