19
gdb 82982	2.56385	1.8989	1.57249	2.442	73.18	-0.2341	0.0622	0.2963	928.9313	0.161856	-423.000836	-422.993698	-422.992754	-423.032394	28.939	
O	-0.0287486217	 1.4537168654	 0.1485662868	-0.420463
C	-0.0142604249	 0.0540689332	-0.0091269466	 0.12518
C	-1.4021390671	-0.6078936968	 0.0432203345	-0.067296
C	-2.4889912338	 0.138349621	-0.7721410835	-0.256962
C	-2.0600952771	-0.6244732985	-2.0677827198	 0.108979
O	-1.3777583638	 0.121367928	-3.0509853484	-0.261985
C	-0.0291845713	 0.3469969174	-2.6344483887	-0.086128
C	 0.253494844	-0.5643718367	-1.4286767145	-0.120628
C	-1.0246108675	-1.4314329526	-1.2450348866	-0.060583
H	 0.8790790818	 1.7728428587	 0.1682176604	 0.285384
H	 0.6540248557	-0.417265009	 0.7246305349	 0.067512
H	-1.7057580295	-1.048198465	 0.9926078773	 0.064669
H	-3.4995950227	-0.129160486	-0.4535793405	 0.097234
H	-2.4043254654	 1.2258089465	-0.8120426383	 0.120158
H	-2.8620019678	-1.1717216539	-2.5680883585	 0.078237
H	 0.6262398229	 0.1181411544	-3.4823487129	 0.096207
H	 0.1103074099	 1.401682698	-2.3635473818	 0.098486
H	 1.2078571166	-1.0850677116	-1.5188398539	 0.069073
H	-0.9659283182	-2.5156271924	-1.31433642	 0.062927
