21
gdb 106680	2.51719	1.29267	1.08428	1.8751	79.47	-0.2242	0.0704	0.2946	1247.2756	0.179942	-424.194189	-424.184389	-424.183445	-424.228631	36.798	
C	-0.1474106282	 1.4922824176	 0.1062035057	-0.378105
C	 0.1184062457	-0.0109722727	-0.0541975825	-0.285837
C	 0.7729048104	-0.6071529532	 1.1512022571	 0.43369
C	 0.0846825788	-1.0686220303	 2.4198112932	-0.411843
C	 1.0178990159	-1.9980806018	 1.6703683926	 0.233992
O	 0.6393090059	-3.2165989817	 1.1402803802	-0.457228
C	 2.4667847577	-1.5489581292	 1.8880240827	 0.078317
C	 3.4924695971	-2.1709633192	 0.9635996072	-0.394205
O	 2.1123904489	-0.1932957096	 1.4661384833	-0.344062
H	 0.785085198	 2.0285501575	 0.3044381633	 0.136056
H	-0.5940564366	 1.9091574089	-0.8013137232	 0.109851
H	-0.8291381765	 1.6844631069	 0.9409131781	 0.117055
H	-0.8188924598	-0.5477395423	-0.2400723209	 0.107203
H	 0.7622417963	-0.1828860361	-0.9252067778	 0.108175
H	 0.3607172525	-0.6435805997	 3.3817243932	 0.108312
H	-0.9662118822	-1.3161871737	 2.2977909666	 0.112672
H	 0.370879243	-3.7941189948	 1.8635092431	 0.289147
H	 2.8205986332	-1.5473814229	 2.927834601	 0.071104
H	 3.1252152689	-2.1939627631	-0.0658678481	 0.128033
H	 4.4214008137	-1.5939948048	 0.9935304169	 0.122698
H	 3.7120305272	-3.1980682556	 1.2731272183	 0.114976
