17
gdb 82677	2.84098	1.57967	1.22927	1.2895	79.42	-0.2275	0.0322	0.2597	1039.2896	0.134507	-384.5923	-384.584445	-384.583501	-384.624359	31.016	
C	 0.0507954571	 1.5996793926	-0.0815217817	-0.422705
C	 0.0709441132	 0.0832548998	 0.0019041196	-0.052497
C	 1.1297065929	-0.7134922263	-0.8124931455	 0.028367
O	 2.4026492356	-0.1318053437	-0.3991353004	-0.287064
C	 2.1954022193	-0.7772236309	 0.847786428	 0.046744
C	 1.2128383196	-1.7684236107	 0.3489888375	-0.204293
C	 0.6886715575	-0.6172754815	 1.2286671614	 0.188523
C	 0.2141864168	-0.6567287099	 2.5640065246	 0.129958
C	-0.191441068	-0.6799294016	 3.6979994973	-0.397057
H	 1.0628253171	 2.0013122247	 0.0069447151	 0.135559
H	-0.3721494602	 1.9348457169	-1.034992992	 0.112936
H	-0.5620226184	 2.0205533893	 0.7221633054	 0.124717
H	-0.9178279413	-0.3495350842	-0.1819119995	 0.085944
H	 1.0571790836	-0.8849167774	-1.8838177442	 0.092078
H	 2.9951867999	-0.8219212903	 1.5742919678	 0.124038
H	 1.1033103081	-2.8403933226	 0.429621153	 0.11427
H	-0.5503904427	-0.7009323742	 4.6968126736	 0.180485
