14
gdb 132643	3.19402	1.36673	0.95773	3.7437	69.43	-0.2002	-0.0105	0.1897	1109.5683	0.101674	-478.04122	-478.033653	-478.032708	-478.072944	29.612	
N	-0.0642109872	 1.37692253	-0.1437927456	-0.565511
C	-0.0202265557	 0.0051387616	-0.0734004208	 0.329322
N	-1.1724748276	-0.6616781683	-0.0074671206	-0.387746
C	-1.1290331348	-1.9787293475	 0.0053688061	 0.318231
F	-2.3121576543	-2.5925410216	 0.0702367169	-0.082251
C	 0.0214527717	-2.7446310882	-0.0360391483	-0.28802
C	 1.2311112793	-2.0442266948	-0.09330507	-0.195319
C	 1.224013335	-0.6634735946	-0.1132183784	 0.302632
O	 2.3406965431	 0.1316375008	-0.1621604259	-0.46244
H	 0.7758797801	 1.8654880136	 0.1212221571	 0.265199
H	-0.9328261661	 1.7900278427	 0.157482307	 0.259743
H	-0.023431989	-3.8248261147	-0.0186681843	 0.109173
H	 2.1744731725	-2.5831214997	-0.1217110783	 0.097551
H	 3.1279002129	-0.4217095393	-0.153570545	 0.299435
