16
gdb 52502	8.23254	0.43257	0.42896	4.1332	95.87	-0.2367	-0.0176	0.2191	2487.1571	0.122162	-400.73123	-400.720839	-400.719894	-400.770593	34.021	
C	-0.0458618697	 1.4311015208	-0.1462057187	-0.518578
C	-0.008588787	-0.0167221969	-0.0506400389	 0.260284
C	 0.0243839544	-1.2240409773	 0.0271286347	-0.205083
C	 0.0612643876	-2.5804271763	 0.1143047314	-0.202044
C	 0.0946184506	-3.7883394597	 0.1872665608	 0.266589
C	 0.1274765449	-5.2394020659	 0.3046204372	-0.317548
N	-1.2090302726	-5.8247327803	 0.3476133701	-0.268986
C	-1.5650087694	-6.8656149366	-0.4526810492	 0.162618
O	-0.8199363153	-7.4449909903	-1.2135095176	-0.318875
H	 0.9658833766	 1.8477134979	-0.2066002805	 0.159722
H	-0.5934496219	 1.7553557045	-1.0382543166	 0.159017
H	-0.5370078894	 1.8741606516	 0.7274582732	 0.15765
H	 0.6287278989	-5.6979504353	-0.5548240457	 0.180464
H	 0.701570797	-5.5259522478	 1.1970632635	 0.145126
H	-1.912443266	-5.3736455104	 0.9103251603	 0.256752
H	-2.6311682786	-7.1352748881	-0.3231984939	 0.082893
