16
gdb 71380	2.69369	1.79825	1.29066	4.1697	69.07	-0.2176	0.0037	0.2213	976.2107	0.12305	-437.824353	-437.816345	-437.815401	-437.856459	30.821	
C	-0.0292571624	 1.4310570655	 0.0407967196	-0.522406
C	-0.0091766507	-0.0629785412	 0.0208970874	 0.270929
N	-1.1960074425	-0.8981762798	-0.3115932332	-0.361104
C	-0.3858223748	-2.0520818211	 0.2294977125	-0.192649
C	 0.6203757204	-1.0694036559	 0.9339874679	-0.192075
C	 1.2118597125	-0.8472019697	-0.5008567388	 0.210333
O	 2.4117511256	-0.2509708964	-0.7820167199	-0.449442
C	 0.6964274284	-2.2070684488	-0.8682453903	 0.43012
O	 1.0975977779	-3.1172403818	-1.5337878867	-0.342954
H	 0.9738826544	 1.8219822598	 0.2321032868	 0.14141
H	-0.3791145456	 1.8206594662	-0.9213704085	 0.137873
H	-0.6973409502	 1.8077274938	 0.8222908968	 0.129924
H	-1.9110002059	-0.6792115333	 0.3847634343	 0.216286
H	-0.8986287229	-2.907886709	 0.6571399377	 0.09966
H	 1.167122927	-1.0625554697	 1.867065235	 0.122382
H	 2.3242011787	 0.2601144215	-1.5949377805	 0.301714
