15
gdb 46196	3.18345	1.62868	1.22906	0.9343	66.14	-0.2434	-0.0487	0.1947	977.4252	0.111324	-457.675553	-457.668485	-457.66754	-457.707233	27.134	
O	-0.1365738852	 0.0038293707	-0.2831690278	-0.27889
C	-0.1084140512	 1.178801839	-0.0743581549	 0.245461
C	-1.1070158862	 2.2674760315	 0.3354109335	-0.193995
O	-0.0382315933	 3.2385744982	 0.2874998463	-0.33064
C	 0.9491214052	 2.2842971175	-0.0951613494	 0.411753
C	 2.3648260274	 2.2723220468	 0.5387354905	-0.027723
C	 2.846192293	 1.4143957305	-0.6541570773	-0.241012
C	 1.9992677435	 2.5894052472	-1.1952851847	-0.02773
O	 2.6822041762	 3.4925345361	-0.2395790779	-0.312705
H	-1.902847171	 2.4725645244	-0.3902655257	 0.139837
H	-1.5383809196	 2.1566801897	 1.3372419604	 0.139841
H	 2.6441146984	 2.2484964012	 1.5913911293	 0.110566
H	 3.9111339519	 1.5116873166	-0.8608742817	 0.12086
H	 2.4594850073	 0.3988038404	-0.7583451709	 0.133813
H	 1.8420640136	 2.9441948202	-2.2131581396	 0.110564
