18
gdb 83836	2.28473	1.93599	1.30264	5.115	71.83	-0.2555	0.0324	0.2879	1010.2791	0.149183	-439.108118	-439.100279	-439.099335	-439.140431	29.994	
C	-0.278946395	 1.4403485927	 0.2552843622	-0.416038
C	-0.0374134183	-0.014431852	-0.0597977174	-0.0118
C	 0.7026843356	-0.5141149605	-1.2679566476	-0.036957
C	 1.4857468139	 0.3459277576	-2.2351376835	-0.270907
C	 2.963931207	 0.0606742078	-1.9546935299	-0.052987
O	 3.300141236	 0.4038624021	-0.6024357044	-0.237527
C	 2.393064543	 0.2032984997	 0.3928158943	 0.437533
O	 2.5837466086	 0.6631147288	 1.4858652275	-0.367095
N	 1.2991260914	-0.6067549279	 0.0692349753	-0.155331
H	 0.4577397383	 2.1015655343	-0.2067192217	 0.132881
H	-1.274265188	 1.7356012219	-0.0908954881	 0.123323
H	-0.2247232677	 1.6012540861	 1.3356759406	 0.157504
H	-0.8154802238	-0.6782868963	 0.3134100087	 0.105974
H	 0.3982066003	-1.4824672872	-1.6620586445	 0.103717
H	 1.2416161538	 0.0927646048	-3.2704592884	 0.117869
H	 1.2926019305	 1.4141082459	-2.1002322064	 0.124483
H	 3.1898074219	-0.9988784509	-2.1300275976	 0.119828
H	 3.6286767225	 0.6624253733	-2.5790546292	 0.125532
