15
gdb 31682	4.98985	0.86577	0.74665	2.5357	71.22	-0.2399	-0.0518	0.1881	1425.3607	0.112154	-457.794942	-457.786624	-457.78568	-457.828683	29.433	
O	 0.2818191694	 1.0313180645	-0.6982292936	-0.400866
C	-0.0268953875	 0.0453978124	 0.2663709071	-0.165768
C	-1.400356655	-0.5137893197	 0.0648919069	 0.336478
C	-2.2474952218	-0.531164404	-0.994648651	-0.40165
C	-3.4320451875	-1.2237418525	-0.556152514	 0.164939
C	-4.649382168	-1.5108515507	-1.3174926129	 0.07038
O	-5.6112130432	-2.102028161	-0.8789747943	-0.273403
C	-3.1978802221	-1.5707328751	 0.7461989939	-0.076072
O	-1.979691092	-1.1453705747	 1.1361590364	-0.171853
H	-0.357478528	 1.7455253679	-0.6010318051	 0.288808
H	 0.7327604229	-0.7363550816	 0.1450627564	 0.139183
H	 0.0639081356	 0.4166707037	 1.299110329	 0.115496
H	-2.0535787718	-0.1167198183	-1.9713012204	 0.133518
H	-4.6349653183	-1.137150444	-2.3652660022	 0.071385
H	-3.7881919925	-2.0942761868	 1.4793798237	 0.169424
