14
gdb 4663	5.24318	1.40405	1.1152	6.9586	68.25	-0.2377	-0.0326	0.2051	1011.7127	0.107961	-378.781205	-378.773873	-378.772929	-378.813141	26.094	
C	-0.0315968344	 1.495446367	 0.0455504515	-0.50033
C	 0.0014401292	 0.0060201053	-0.0282299338	 0.349384
N	-0.0303400349	-0.7161669531	-1.1182986321	-0.318073
C	 0.0207960925	-2.0352436248	-0.7036201035	 0.170907
C	 0.0083083279	-3.1913619663	-1.5983417932	 0.078536
O	-0.0480293992	-3.1579084595	-2.8047248724	-0.270893
C	 0.0846774866	-2.095927422	 0.6721661161	-0.146681
N	 0.0719034379	-0.7960236721	 1.0923494607	-0.27747
H	 0.8661395646	 1.8980937699	 0.5281390163	 0.13675
H	-0.0865795702	 1.8901811287	-0.9691889335	 0.16924
H	-0.9013132073	 1.8549336446	 0.607084922	 0.136783
H	 0.0572179312	-4.162003487	-1.0499296617	 0.054442
H	 0.1358597586	-2.925233625	 1.3589460146	 0.147426
H	 0.1076635674	-0.4827801757	 2.0488010891	 0.269979
