14
gdb 19902	4.16025	2.1092	1.81764	5.1562	61.98	-0.2346	0.0288	0.2635	737.1242	0.107382	-378.629322	-378.623123	-378.622179	-378.659549	24.174	
O	 0.2851757424	 0.1908281671	-0.5886957343	-0.305062
C	 0.3062463457	 1.380344519	-0.4098009939	 0.180748
N	 1.2671567508	 2.030319111	 0.3706152236	-0.056815
C	 2.6904003717	 1.9852029446	 0.2635365585	-0.057904
C	 3.1682713474	 2.2226669144	-1.2167090476	-0.06141
N	 1.9667254552	 2.3854142844	-2.0653482434	-0.319307
C	 2.4538680577	 3.5152968793	-1.2616375826	-0.067109
C	 1.9326072246	 3.2915897512	 0.2053338942	-0.071917
H	-0.4981937387	 2.073058452	-0.7185127769	 0.074659
H	 3.302671492	 1.5619673288	 1.049878947	 0.114391
H	 4.1212192693	 1.9270810621	-1.6322633418	 0.108863
H	 2.2665221382	 2.5057238865	-3.0309636916	 0.243924
H	 2.7301540534	 4.4656610986	-1.6973902965	 0.106038
H	 1.8236434603	 4.0687644211	 0.9517315953	 0.1109
