20
gdb 100149	3.58147	0.85236	0.83065	1.6514	73.47	-0.2591	0.0198	0.2789	1460.0592	0.168362	-477.414207	-477.403762	-477.402817	-477.450043	37.795	
C	-0.0925988976	 1.6128103478	-0.0346975047	-0.439169
C	-0.0418076514	 0.1042084681	-0.2824316918	 0.300551
O	 0.8732744576	-0.5271865588	 0.6275214924	-0.479321
C	-1.3933577888	-0.5652254121	 0.021045905	-0.060851
O	-1.7568869115	-0.4001027595	 1.3734964483	-0.422975
C	 0.3965899289	-0.220778839	-1.7190766111	-0.11281
O	 1.7035396279	 0.2866989072	-1.9714711984	-0.188421
C	 2.7407173221	-0.5452885754	-1.7371264709	 0.116446
N	 3.9088879162	-0.0780166311	-1.6374346526	-0.444539
H	 0.892082774	 2.062234796	-0.1952139148	 0.134663
H	-0.7939597639	 2.0965926631	-0.7217297613	 0.12088
H	-0.425055212	 1.8075422639	 0.9868874216	 0.13522
H	 1.6318553384	 0.0542291566	 0.7464599502	 0.299894
H	-2.1842022848	-0.1120117884	-0.5852678032	 0.109237
H	-1.3284178096	-1.6324676316	-0.2467850209	 0.088348
H	-0.9791800848	-0.6670514536	 1.8802115512	 0.289399
H	 0.3750189804	-1.3070328086	-1.8763466187	 0.10817
H	-0.2672720332	 0.2533828079	-2.4478776598	 0.119654
H	 2.4468992765	-1.601095653	-1.6747765355	 0.095213
H	 4.5756652656	-0.8373427495	-1.5143473551	 0.23041
