21
gdb 41676	3.53389	1.55965	1.41557	0.3982	85.53	-0.2174	0.0205	0.2379	1007.4202	0.186962	-349.940804	-349.93414	-349.933196	-349.971328	29.07	
C	 0.014158724	 1.494304152	 0.1277576332	-0.192406
C	 1.4508261567	 2.0202376737	-0.0205727453	-0.238673
C	 2.211455612	 1.246119602	-1.1014964918	 0.032999
C	 1.3271534703	 0.5766353681	-2.2285512341	-0.09671
C	 2.3973258725	-0.1853707888	-3.0104011101	-0.099854
C	 3.1483820874	-0.7391708022	-2.052240343	-0.105806
C	 2.4742213519	-0.2688368722	-0.7652778453	-0.068577
C	 0.9578801108	-0.4920399881	-1.1230782195	 0.032997
C	-0.0294477779	-0.032297609	-0.0460259162	-0.238671
H	-0.4253231342	 1.7994118431	 1.0828059256	 0.088432
H	-0.6042119628	 1.9499682887	-0.6544156651	 0.100929
H	 1.434874219	 3.0895473124	-0.2618427438	 0.092919
H	 1.9997733472	 1.9297019625	 0.9268049472	 0.094948
H	 3.0873824856	 1.7949392921	-1.459119721	 0.058738
H	 0.5694130964	 1.1300449713	-2.7852230848	 0.053783
H	 2.4890630116	-0.2380686872	-4.0861395977	 0.094725
H	 4.0232447388	-1.3692867823	-2.1283773268	 0.095471
H	 2.8861734081	-0.5779097127	 0.1977864129	 0.048151
H	 0.7179397353	-1.4904212285	-1.4999178722	 0.058738
H	 0.2186662689	-0.5400080742	 0.896171177	 0.094949
H	-1.0461765416	-0.3506562906	-0.3044771194	 0.092917
