18
gdb 82416	2.41318	1.87735	1.25383	3.331	71.49	-0.2365	0.0055	0.242	1019.728	0.148544	-439.096374	-439.088469	-439.087525	-439.128792	30.354	
C	-0.3466958465	 1.454589247	 0.0077199878	-0.383387
C	 0.1330240731	 0.0059506514	 0.0113361276	-0.106516
N	 0.7889413882	-0.3183157351	-1.2667765323	-0.09598
C	 2.2473110385	-0.1461481973	-1.3450792867	-0.265613
C	 1.6430453431	-1.4994362215	-1.2328812583	-0.021498
C	 1.7016698935	-2.2542577016	 0.0735836342	-0.111416
O	 1.7825445925	-1.3846420729	 1.2066424577	-0.224882
C	 0.9787758988	-0.2886955465	 1.2609312984	 0.401835
O	 0.982127457	 0.3895299853	 2.2504648057	-0.321813
H	 0.5028610631	 2.1403026845	-0.0588218	 0.127854
H	-0.9970116599	 1.6203364723	-0.8539297972	 0.123315
H	-0.8884320874	 1.6804566253	 0.927063449	 0.139416
H	-0.7428135193	-0.6568832681	 0.0725696982	 0.115429
H	 2.6138744944	 0.2049122948	-2.3046767078	 0.125185
H	 2.7798066174	 0.2479349892	-0.4829817194	 0.139807
H	 1.587448802	-2.1409949915	-2.1111727688	 0.102146
H	 0.8165103211	-2.8982755677	 0.1722417233	 0.121402
H	 2.5861211406	-2.8948161776	 0.1295309085	 0.134717
