13
gdb 133183	3.27916	1.42629	1.00013	2.0834	65.94	-0.271	-0.0683	0.2027	1084.9531	0.088056	-494.012443	-494.004793	-494.003848	-494.045162	27.626	
C	 0.0114503262	 1.4867711344	-0.0952607487	-0.465982
C	-0.0773795897	-0.000080006	 0.0306615361	 0.431995
N	-1.1271152194	-0.6645480732	-0.259652992	-0.317798
C	-1.0986367171	-2.0508941523	-0.1042418692	 0.242142
N	-2.1129815239	-2.7709397308	-0.3770698114	-0.483981
C	 0.1914473079	-2.561985656	 0.3926761051	 0.29815
F	 0.2918247266	-3.8674218359	 0.5648060111	-0.040205
N	 1.2314521985	-1.8838644489	 0.6782247508	-0.137174
O	 1.1033822028	-0.5059676044	 0.4888959908	-0.253598
H	 0.8160483815	 1.759288368	-0.7848420647	 0.161057
H	-0.9389164402	 1.8712284894	-0.4616422177	 0.167842
H	 0.2467607853	 1.9339131461	 0.8752239725	 0.161049
H	-1.9001913083	-3.7537341304	-0.2006645929	 0.236502
