16
gdb 124079	5.00346	0.99013	0.93994	1.5575	69.73	-0.2515	-0.009	0.2425	1231.362	0.127454	-434.043635	-434.03621	-434.035266	-434.077076	26.546	
C	-0.0285111498	 1.3871049392	-0.3422058783	-0.08282
O	 1.3221568766	 1.6452944441	 0.0837973832	-0.270482
C	 1.4521963012	 0.3203399343	 0.6315421722	-0.082845
C	 0.0689857631	-0.1067303491	 0.0700497732	-0.152555
C	-0.9443794303	-0.6568659137	 1.0082328232	 0.305406
N	-1.5969319246	-1.7960408267	 0.7504342198	-0.275036
N	-2.3921840407	-1.9409912275	 1.8013758415	-0.071491
N	-2.3259891361	-1.0012580434	 2.7332647591	-0.189853
C	-1.4065212691	-0.1674453483	 2.2486155763	-0.13277
H	-0.7622410229	 1.9685129024	 0.2317340723	 0.102514
H	-0.1719511831	 1.5847439985	-1.4104511276	 0.110044
H	 2.3216513895	-0.2117464411	 0.2293975458	 0.110039
H	 1.5129706134	 0.3294103445	 1.7279162479	 0.102512
H	 0.1519299998	-0.7746228524	-0.7877878086	 0.102599
H	-3.0159109824	-2.7272032495	 1.887303063	 0.294639
H	-1.1245813947	 0.7195732785	 2.7934223171	 0.130099
