13
gdb 124064	3.91056	1.68519	1.18643	2.1652	65.33	-0.2339	-0.0245	0.2094	930.785	0.093803	-448.934553	-448.928241	-448.927296	-448.965918	23.467	
C	-0.0145063541	 1.486861846	 0.1197922147	-0.176362
O	 1.2546510353	 2.0205938638	-0.3417560782	-0.237445
C	 2.2581767876	 1.2228410179	-0.7645418752	 0.131878
N	 2.3164266794	-0.049440182	-0.8473164607	-0.343806
C	 1.1494204128	-0.672906761	-0.4293615202	 0.326916
N	 0.9169486854	-1.9854425695	-0.402641967	-0.286374
N	-0.325441918	-2.0422816771	 0.0710390227	-0.09067
N	-0.9248226372	-0.8832469801	 0.3561960357	-0.288808
C	 0.0118315984	-0.0003225726	 0.038938652	 0.236932
H	-0.1601450889	 1.852869632	 1.1426569449	 0.144498
H	-0.7940442042	 1.9314730694	-0.5095415684	 0.144503
H	 3.1049020478	 1.8363563068	-1.0601524359	 0.141323
H	-0.7945717944	-2.9219984637	 0.2091292655	 0.297414
