18
gdb 74680	3.57876	1.35688	1.15508	2.064	77.23	-0.2404	0.0135	0.2539	1098.7173	0.149939	-401.987183	-401.979714	-401.97877	-402.019325	28.827	
C	 0.0759849701	 1.5044571677	 0.053983093	-0.488147
C	-0.022066753	 0.0119476642	 0.0265748592	 0.31851
C	 0.0934481756	-0.7855665214	-1.0372877383	-0.16749
C	-0.04428188	-2.2482554813	-0.6980274944	-0.049423
N	 1.2014180715	-3.0145863208	-0.9390578346	-0.271546
C	 1.659220972	-3.2784772046	 0.2115686315	 0.114913
O	 0.9864002458	-2.8950333307	 1.3248366089	-0.233782
C	-0.2251479996	-2.2475716024	 0.8527624605	 0.077863
C	-0.2963893924	-0.775123653	 1.2929642394	-0.325357
H	 0.8837657029	 1.8328468235	 0.720298496	 0.129037
H	 0.2658285694	 1.9159606857	-0.9406313396	 0.127624
H	-0.8469799696	 1.9556425427	 0.4403172205	 0.125801
H	 0.2914220887	-0.4524897695	-2.0496242133	 0.097918
H	-0.863672709	-2.7300548185	-1.2426673882	 0.086828
H	 2.5842527929	-3.8074727474	 0.4151775345	 0.137883
H	-1.0650407964	-2.8435058163	 1.2164520797	 0.090528
H	 0.4330881746	-0.5698643194	 2.0854096901	 0.120914
H	-1.2828613134	-0.5300593684	 1.708615725	 0.107926
