19
gdb 77311	3.02644	1.247	0.99537	2.6489	77.74	-0.2452	-0.018	0.2273	1220.3419	0.158129	-423.052697	-423.043502	-423.042558	-423.087104	33.677	
C	-0.4736150686	 1.511925438	 0.0134912704	-0.494916
C	-0.1257576714	 0.0564011571	-0.0022906857	 0.293271
C	-0.0493677765	-0.766929945	-1.0505896016	-0.165055
C	 0.3630784191	-2.1703571764	-0.6906569309	-0.282103
C	 0.3665997998	-2.1562344109	 0.8538306417	-0.140182
C	 1.5547581941	-2.8303704728	 1.5067797283	 0.157393
O	 2.5080362672	-3.2689472742	 0.9135592038	-0.250201
C	 0.2967666461	-0.6456678724	 1.2724864443	 0.023451
O	 1.5345364192	-0.1307975141	 1.7735148711	-0.425258
H	 0.3186548859	 2.0926579173	 0.4991277589	 0.137097
H	-0.6241115463	 1.903653497	-0.9958558991	 0.123742
H	-1.3903932065	 1.6928099102	 0.5892801586	 0.127549
H	-0.2506505905	-0.4713100298	-2.0758079251	 0.093989
H	-0.3284931816	-2.922223739	-1.0870404158	 0.11065
H	 1.3542797576	-2.4278200164	-1.0830085239	 0.133328
H	-0.53315046	-2.6496084239	 1.2421001305	 0.096877
H	 1.4965399616	-2.8902985228	 2.6150327677	 0.085358
H	-0.4039701472	-0.4906335175	 2.0992253299	 0.090598
H	 2.1595549281	-0.1140243044	 1.038534107	 0.28441
