17
gdb 58402	2.11754	1.18501	0.79437	3.0875	72.51	-0.2782	-0.007	0.2711	1389.4849	0.131495	-458.94409	-458.933877	-458.932933	-458.980267	35.692	
C	 0.3895446187	 1.5335275864	 0.1979355196	-0.399703
C	 0.1789477392	 0.0365567896	 0.0347842575	 0.110961
O	 0.7735262042	-0.6051876045	 1.1453516895	-0.429572
C	-1.3264199152	-0.3297471754	-0.0229245252	-0.102307
O	-1.8781608863	 0.2842581572	-1.2025082358	-0.18047
C	-3.1755666793	 0.661118943	-1.1601328326	 0.177101
O	-3.7277185301	 1.1549235777	-2.0941608624	-0.265522
C	-1.5179552532	-1.778664373	-0.0593319821	 0.311818
C	-1.6335079468	-2.974902336	-0.088581334	-0.426574
H	 1.4597730582	 1.7518588525	 0.2202568511	 0.132562
H	-0.0660862606	 2.0809119432	-0.6295462955	 0.139995
H	-0.0475902018	 1.8776318887	 1.1410324063	 0.123482
H	 0.6276880731	-0.3018450072	-0.9111756949	 0.093986
H	 0.6707223674	-1.5572001118	 1.0287375467	 0.289208
H	-1.8114648987	 0.0833004614	 0.8719739469	 0.121605
H	-3.6479892198	 0.4709704736	-0.177494417	 0.088709
H	-1.7611351989	-4.0296672854	-0.1175542882	 0.214721
