16
gdb 37494	3.43521	2.28262	1.88105	3.9458	70.15	-0.2005	-0.0499	0.1506	762.2968	0.125023	-400.599515	-400.593736	-400.592792	-400.62907	25.525	
C	-0.0479888184	 1.5868473612	-0.0249945118	-0.268939
C	 1.4891109358	 1.4487265807	 0.0429131916	-0.041188
C	 1.3214450549	 0.0748831776	 0.7837324648	-0.101685
C	-0.043077044	 0.0449925967	 0.0163809272	 0.001383
C	 0.7044260658	-0.4353159033	-1.2479357246	-0.041202
N	 1.4414485984	-1.7971300448	-0.8635110763	-0.357087
C	 2.0667580017	-0.8808840234	-0.2276648323	 0.291017
O	 3.0445538876	-0.0659122061	-0.8885688612	-0.258359
C	 1.920916223	 0.7525904367	-1.2558243602	 0.04412
H	-0.4685318535	 2.0286712895	 0.8809360143	 0.113616
H	-0.4791008747	 2.0742005277	-0.9073494997	 0.098936
H	 2.1423238509	 2.2386246387	 0.4074494014	 0.086672
H	 1.4213660846	-0.0414681942	 1.8565839395	 0.1001
H	-0.8955927791	-0.5517480746	 0.3292234974	 0.092861
H	 0.2433184259	-0.6569475616	-2.2047047099	 0.131983
H	 2.1054463109	 1.298735879	-2.1774847304	 0.107771
