19
gdb 116833	11.99537	0.36734	0.3596	1.4459	102.74	-0.2272	-0.0129	0.2143	2991.3901	0.156655	-385.842071	-385.831032	-385.830088	-385.880489	37.179	
C	-0.0296556438	 1.5684959373	-0.0080550139	-0.381621
C	-0.0014487842	 0.0390416905	-0.0042151398	-0.15692
C	 0.7338947778	-0.5280754922	 1.2296431128	-0.37219
C	 0.773604342	-1.9818717011	 1.2554761606	 0.199201
C	 0.7959233678	-3.1927531356	 1.2587415356	-0.103915
C	 0.8218820896	-4.5521143141	 1.2642936755	-0.224901
C	 0.8469924954	-5.761959068	 1.2723699745	 0.314865
C	 0.855788207	-7.2163556811	 1.2457926267	-0.245424
O	 1.5426341491	-7.7155157039	 2.3869843305	-0.40805
H	 0.9835463789	 1.9853679948	-0.0174709317	 0.117686
H	-0.5541996159	 1.9493129137	-0.8892914522	 0.116991
H	-0.5407702506	 1.9595154799	 0.8786877194	 0.117687
H	-1.0220993624	-0.3584650688	-0.0204817857	 0.113343
H	 0.4900198397	-0.3328032545	-0.9098626853	 0.11335
H	 1.7593761778	-0.1341078998	 1.2540925745	 0.133151
H	 0.2474826332	-0.1595981518	 2.1434561222	 0.133135
H	-0.1854090262	-7.5787513753	 1.2157083729	 0.121324
H	 1.3355317962	-7.5530833641	 0.311539582	 0.121326
H	 1.5239877985	-8.6766968157	 2.3337273613	 0.290962
