16
gdb 55829	3.67226	1.14893	1.09025	2.5616	64.66	-0.2384	0.0526	0.291	1141.4832	0.12414	-475.008221	-475.000077	-474.999133	-475.042104	29.96	
N	-0.2380724419	 1.1792464367	 0.1474404109	-0.565878
C	-0.1436461215	-0.151585138	-0.1450669921	 0.505115
O	 0.5954353212	-0.6454200802	-0.9596555786	-0.392013
O	-0.9815036847	-0.8568511501	 0.6725738173	-0.268234
C	-1.0191441631	-2.2404953303	 0.4231910062	 0.13245
C	-2.2680308642	-2.9972408685	 0.7606382138	-0.213566
C	-3.4779556306	-2.1765746549	 0.3230313639	-0.081285
O	-2.9350997866	-1.987073575	-1.0110080723	-0.282102
C	-1.8205949503	-2.8129929383	-0.6950270161	 0.065201
H	 0.1794775561	 1.804357102	-0.5205484326	 0.269799
H	-1.045834909	 1.5043665108	 0.6512463258	 0.265
H	-0.0868490624	-2.7568875565	 0.6315241979	 0.119483
H	-2.2866669467	-3.8568606952	 1.4168231453	 0.106385
H	-4.4013683691	-2.7626466865	 0.2758700841	 0.113532
H	-3.6561496608	-1.2282781164	 0.8398770585	 0.112351
H	-1.4429238164	-3.4792419796	-1.4617405218	 0.113762
