18
gdb 110490	3.29012	1.53646	1.35554	1.57	75.17	-0.2144	0.0004	0.2149	1004.1946	0.14891	-401.891268	-401.883884	-401.88294	-401.923257	28.787	
C	-0.2257617966	 1.2824950464	-0.0206717423	-0.241582
O	 0.2268721469	-0.042204786	 0.1571470957	-0.241796
C	 0.712980657	-0.6256097767	-1.0129221006	 0.181315
C	 1.2923000505	-2.0099140205	-0.8963333389	-0.128082
C	 0.2749969457	-3.1164217453	-1.0102400967	-0.062031
C	-1.1648237129	-2.8274887669	-0.7674771811	-0.070542
C	-1.4998730293	-1.7495574137	-1.4769452666	-0.063614
C	-0.2532062012	-1.2179764165	-2.1247183326	-0.146082
N	 0.7059946633	-2.4105107279	-2.2368672122	-0.134311
H	 0.5660239476	 1.9311318454	-0.4267647	 0.106914
H	-1.0931154684	 1.3338746485	-0.6959914255	 0.106779
H	-0.5231210095	 1.659238994	 0.9604864686	 0.130458
H	 1.4419778063	 0.0333420512	-1.5064905239	 0.084039
H	 2.3227387853	-2.2261223748	-0.632025252	 0.095749
H	 0.6646618343	-4.1240288719	-0.8994807226	 0.094131
H	-1.7920429703	-3.406864178	-0.1035639636	 0.106508
H	-2.4533679329	-1.237922905	-1.4807240777	 0.105261
H	-0.3627259258	-0.6486548425	-3.0464234879	 0.076886
