22
gdb 23367	1.82593	1.45651	0.94785	0.6709	85.89	-0.2323	0.0133	0.2455	1344.1404	0.192451	-404.299746	-404.289556	-404.288612	-404.334801	38.288	
C	 0.3598923484	 1.2919859235	-0.3522338346	-0.39029
C	-0.0053264003	-0.1330092052	 0.1163653346	-0.043614
C	 0.0473798495	-1.1071904703	-1.0680095676	-0.381745
C	 0.8619288272	-0.574879011	 1.2869520431	 0.327151
N	 1.781066156	-1.4250323235	 1.0135098883	-0.182436
O	 2.552423217	-1.7681619808	 2.1380070414	-0.403984
C	 0.6206122396	-0.0905944483	 2.6761191191	-0.048408
C	 0.9675351852	 1.3187221631	 3.1314277261	-0.25818
C	-0.4683194381	 0.8840271688	 3.0544066598	-0.290454
H	 1.399141234	 1.3248573061	-0.6953611184	 0.125041
H	-0.2825926766	 1.5899685723	-1.1872527964	 0.114223
H	 0.2415746017	 2.0395422419	 0.4365269352	 0.116465
H	-1.0388513519	-0.107256735	 0.4858607444	 0.084433
H	 1.052794231	-1.1577317407	-1.4928288749	 0.128845
H	-0.231460952	-2.1190229963	-0.763623795	 0.116266
H	-0.6431208068	-0.7763045139	-1.8506831288	 0.098926
H	 3.1378908997	-2.4413647725	 1.7765459281	 0.302761
H	 0.8497883219	-0.853815395	 3.4108004875	 0.112317
H	 1.432793519	 1.4219984907	 4.1052207417	 0.118494
H	 1.3323711069	 2.0185123236	 2.3891905717	 0.121638
H	-1.0843922912	 1.3076362874	 2.2696799662	 0.118081
H	-1.0036086301	 0.6975468949	 3.9788974987	 0.114471
