12
gdb 2256	4.13809	3.10508	2.1007	3.3424	50.13	-0.2483	0.	0.2484	610.2028	0.090612	-360.499088	-360.493101	-360.492157	-360.528675	22.522	
N	-0.1183965817	 1.4855546886	-0.2014542838	-0.595492
C	-0.0481599566	 0.0860561139	-0.0283920676	 0.114832
C	-0.3745381915	-0.8741077125	-1.1864044426	-0.317376
C	-1.1293897058	-0.9734072937	 0.0843709258	 0.072151
O	-0.3376117868	-1.7327075771	 1.0390003627	-0.265398
C	 0.633934474	-0.7322403134	 1.0540702589	 0.409545
O	 1.5710605937	-0.6436885075	 1.7775673329	-0.326856
H	-0.1604127381	 1.9696223153	 0.6891939502	 0.248083
H	 0.6871750689	 1.8375083952	-0.7082590599	 0.247854
H	-0.8786306455	-0.3686298242	-2.0046071383	 0.139083
H	 0.3133565309	-1.6654410086	-1.4656981658	 0.137529
H	-2.1919279516	-0.898318676	 0.2613895075	 0.136044
