14
gdb 129914	3.34779	1.68851	1.12421	5.1546	70.12	-0.1856	0.0064	0.1921	990.0233	0.104232	-429.037167	-429.029794	-429.02885	-429.068604	28.321	
N	 0.038134739	 1.4077883519	 0.1716787888	-0.610946
C	 0.0138163649	 0.0146827359	 0.0553879844	 0.13565
C	-1.0754361136	-0.8221838097	 0.0037916248	-0.157306
N	-0.6562917895	-2.1781990197	-0.0862940272	-0.427436
C	 0.6986018289	-2.1553719093	-0.0168447155	 0.433932
C	 1.1625798433	-0.8504769833	 0.039289398	 0.270634
N	 2.5264941658	-0.8676111343	 0.0368196884	-0.305243
N	 2.9251093815	-2.1010276088	-0.0090478706	-0.13199
N	 1.8069078995	-2.9208961326	-0.051399112	-0.35628
H	 0.8771096122	 1.8129579404	-0.2215194862	 0.257845
H	-0.778691077	 1.8615746984	-0.2142483397	 0.242966
H	-2.1280321966	-0.5902541834	-0.0116930026	 0.110867
H	-1.2537181249	-2.9599647251	 0.115515273	 0.26339
H	 1.9373968866	-3.9172728804	-0.0682939536	 0.273918
