16
gdb 8123	3.92426	1.85692	1.50511	4.2237	64.43	-0.2665	0.0118	0.2783	862.8277	0.130696	-383.781375	-383.774362	-383.773418	-383.812412	27.1	
C	-0.0373327512	 1.562318224	 0.0868912432	-0.466056
C	 0.0945685805	 0.0686874787	 0.0544136477	 0.429341
C	-0.8320522271	-0.8800895269	 0.7595734139	-0.342439
C	 0.6361287562	-0.8116107728	 1.152397798	-0.108391
C	 1.5738117645	-1.7853090575	 0.4788375154	-0.373231
C	 1.426738548	-1.4838378745	-1.0175674904	 0.406468
O	 1.9242461839	-2.0589461908	-1.9390573561	-0.32732
O	 0.5959587634	-0.4122447643	-1.1892671466	-0.248365
H	 0.9263135702	 2.0432289899	-0.108122171	 0.131677
H	-0.7504385922	 1.9072173783	-0.6684643227	 0.138107
H	-0.3953046641	 1.8872814849	 1.0676717547	 0.123598
H	-1.5487639838	-0.4571480735	 1.4550811066	 0.122233
H	-1.1871896803	-1.7483449518	 0.2128880564	 0.126674
H	 0.8980937469	-0.3951932975	 2.1174916003	 0.10167
H	 2.6188359308	-1.6247093346	 0.7629281073	 0.142676
H	 1.3500140042	-2.8414353217	 0.6544154433	 0.143358
