21
gdb 72435	2.29768	2.11005	1.48993	1.8697	79.85	-0.2521	0.0862	0.3383	978.4569	0.185316	-387.095722	-387.088468	-387.087524	-387.126749	30.811	
C	-0.0527973805	 1.5033724298	 0.0244226654	-0.492746
C	 0.0063513165	-0.0146894117	 0.0235399151	 0.290439
C	 0.7684925209	-0.6619125078	-1.1736859703	-0.234346
C	 1.0672750288	-2.1180127136	-0.6841970085	-0.214415
C	 0.439867	-2.1461292897	 0.7384260238	-0.07229
C	 0.7150190781	-0.7059401306	 1.2144359127	-0.253375
C	-1.0693339459	-2.1068185251	 0.4915345345	 0.048804
O	-1.8194414536	-1.1909615915	 1.3026559067	-0.271324
C	-1.3450225424	-0.7450498673	 0.0241437154	 0.025021
H	 0.952779981	 1.9380351899	 0.0398148433	 0.111743
H	-0.5633033261	 1.8831241917	-0.8682592036	 0.110901
H	-0.5943623529	 1.875234656	 0.9004332064	 0.12388
H	 0.1746363017	-0.6415097341	-2.0934671958	 0.093458
H	 1.6919243108	-0.1098635257	-1.3755374456	 0.095716
H	 0.6340152855	-2.878615862	-1.3413052087	 0.095568
H	 2.1429497795	-2.3095969505	-0.6349781463	 0.098724
H	 0.7974361795	-2.9541510405	 1.3785886652	 0.062135
H	 1.7835468486	-0.4740652375	 1.2466752548	 0.085478
H	 0.2592644529	-0.4729387399	 2.1761421452	 0.11418
H	-1.6088827038	-2.9841153478	 0.1454940071	 0.093218
H	-2.1114003887	-0.4978355923	-0.7066286768	 0.089231
