24
gdb 122114	2.84553	0.68805	0.60219	3.9232	88.27	-0.2364	0.034	0.2705	1966.7794	0.215932	-405.58743	-405.576106	-405.575162	-405.625594	39.528	
C	-0.1826221429	 1.5390367677	 0.0262461609	-0.380865
C	 0.0103368406	 0.0203140931	 0.0066113162	-0.162062
C	 0.7257112575	-0.5086988387	 1.2542381747	-0.164276
C	 0.9155024837	-2.0317807638	 1.2223594184	-0.192723
N	 1.5660020774	-2.5748043912	 2.4053409181	-0.024095
C	 0.7956196908	-2.7659864962	 3.6331024849	-0.160272
C	 0.0754995523	-4.1166536468	 3.6805179799	-0.376973
C	 2.8727812048	-2.9558951472	 2.3815722414	 0.14658
O	 3.4840111667	-3.4297949461	 3.3182778831	-0.35104
H	 0.7794672256	 2.0595929064	 0.0845906953	 0.118116
H	-0.6956032126	 1.8869913023	-0.8754980039	 0.115118
H	-0.7792550026	 1.8503847284	 0.8906675171	 0.116422
H	-0.9668972311	-0.4718664757	-0.0876514109	 0.097753
H	 0.5799636705	-0.2656502678	-0.8876794803	 0.098549
H	 1.7099660843	-0.0334046334	 1.3529621211	 0.104283
H	 0.1567282957	-0.2256530789	 2.1489361881	 0.102383
H	-0.0560882357	-2.5260089539	 1.090512859	 0.109692
H	 1.5206748991	-2.3045320978	 0.3501374708	 0.116024
H	 1.4994284631	-2.691716064	 4.4649625165	 0.142228
H	 0.0780475441	-1.9439432233	 3.7223228579	 0.103232
H	-0.5012528558	-4.2063057686	 4.6065377304	 0.117838
H	-0.6168659466	-4.2345387162	 2.8405708896	 0.11428
H	 0.8021015184	-4.9325370925	 3.6475316654	 0.143472
H	 3.3352593929	-2.7820915359	 1.3888326061	 0.066336
