21
gdb 108056	2.6045	1.5299	1.12652	1.4022	83.14	-0.2343	0.0763	0.3106	1149.778	0.18237	-387.039366	-387.030636	-387.029692	-387.072494	33.989	
C	-0.1074434666	 1.4735119484	 0.0588357432	-0.50929
C	 0.0342780292	-0.0200437119	 0.0014927115	 0.280883
C	-0.0569544736	-0.8774843792	-1.264731015	-0.277121
C	-0.2134023552	-2.094035402	-0.3164180178	-0.068016
C	 1.1688383124	-2.1958337759	 0.3779062821	-0.281234
C	 0.820152577	-0.8602088256	 1.037635946	 0.332827
C	 1.5085962968	-0.2757247992	 2.2273423214	-0.216811
O	 1.5109994859	-1.2512738413	 3.267212352	-0.419619
C	-0.6643543973	-1.0871695682	 0.8181819159	-0.16168
H	 0.7626590132	 1.9770770025	-0.3800737055	 0.117149
H	-0.9923787007	 1.7977115965	-0.500919751	 0.117727
H	-0.2194827067	 1.8394010983	 1.0840813606	 0.119118
H	-0.9820054414	-0.6582491482	-1.807664417	 0.091879
H	 0.7868169734	-0.886697266	-1.9665902805	 0.080353
H	-0.7494889046	-2.9859636747	-0.6335712921	 0.066667
H	 1.1993593148	-2.9880680626	 1.1294620039	 0.111254
H	 2.0548024296	-2.2585640334	-0.2670036018	 0.076592
H	 2.5407088212	 0.0051018031	 1.9578375526	 0.086096
H	 0.9985447548	 0.6432507835	 2.5548152302	 0.083083
H	 2.0638757284	-0.9201991781	 3.981269073	 0.284474
H	-1.4992625806	-1.0486174161	 1.5034189883	 0.085671
