23
gdb 88867	3.45012	0.94109	0.83852	1.7921	85.86	-0.2551	0.0801	0.3352	1483.9533	0.206602	-388.294358	-388.284994	-388.28405	-388.329632	34.823	
C	 0.3393644519	 1.4738545118	-0.5090585712	-0.4225
C	 0.0162031675	 0.0727414709	-0.0560518214	 0.077286
O	 1.1082313033	-0.8417865459	 0.0968979706	-0.273277
C	 0.3512431874	-0.4921570342	 1.2634186988	 0.040612
C	 1.0649147642	 0.2334075296	 2.3751661228	 0.02419
C	 0.0983408406	 0.8613053371	 3.4141678866	-0.224734
C	 0.8344031283	 0.7976758066	 4.7849960077	-0.200223
C	 2.2100244631	 0.1520316199	 4.4938394717	-0.204515
C	 1.9747503203	-0.6765918266	 3.2238452865	-0.207717
H	 1.1953220567	 1.8889920607	 0.026275539	 0.128779
H	 0.5768099009	 1.4777933808	-1.578186571	 0.128616
H	-0.5230433221	 2.1321590502	-0.3566170664	 0.120281
H	-0.8452523266	-0.368518394	-0.5636721486	 0.082806
H	-0.2906648931	-1.303941751	 1.6205406657	 0.079642
H	 1.6908608228	 1.0203649636	 1.9414890775	 0.070765
H	-0.1805569177	 1.8809638609	 3.1345587591	 0.099359
H	-0.8333580674	 0.2851705471	 3.4538679787	 0.095996
H	 0.9352836509	 1.7840286094	 5.2458869637	 0.09688
H	 0.267310981	 0.1810417498	 5.4893902335	 0.099761
H	 2.9563350587	 0.929249198	 4.2895893814	 0.097066
H	 2.5859573576	-0.4403381011	 5.3327775608	 0.092806
H	 1.4404498659	-1.6042628595	 3.4714510385	 0.092029
H	 2.8932044458	-0.9577279941	 2.7020084661	 0.106091
