18
gdb 60884	2.21207	1.36042	1.15161	5.1943	74.35	-0.2442	-0.0343	0.21	1159.1544	0.145532	-439.103314	-439.093902	-439.092957	-439.13794	33.513	
C	 0.793872577	 1.2589974402	 0.0757623339	-0.359564
N	 0.187637534	-0.0666380955	 0.022007946	-0.093775
C	-0.5474335864	-0.5122002558	 1.0922162764	 0.155212
O	-0.6249127568	 0.0404271778	 2.1662142695	-0.334543
C	 0.0677482013	-0.7082740206	-1.2480248883	 0.206823
C	 1.338577381	-1.1812544754	-1.9517077385	-0.301513
C	 0.4133838561	-2.1912019953	-1.3703611138	-0.300777
C	-1.0242084566	-0.2191235594	-2.1415503584	 0.14717
O	-1.8091262884	 0.6440048778	-1.8457813669	-0.264247
H	 1.8241614723	 1.223188385	-0.2914572567	 0.118342
H	 0.2220129296	 1.9724894393	-0.5261710728	 0.146771
H	 0.7859330853	 1.5807314528	 1.1167458176	 0.168805
H	-1.0544349471	-1.4694462421	 0.8683925649	 0.076393
H	 1.3853102099	-1.0690076005	-3.0293184859	 0.133799
H	 2.2650332751	-0.976821712	-1.429147926	 0.144665
H	 0.7063237678	-2.683896462	-0.4519450207	 0.147645
H	-0.1963728239	-2.7914191703	-2.0368517407	 0.135838
H	-1.0578647103	-0.7272377041	-3.1338656095	 0.072956
