15
gdb 50139	3.94663	1.15787	0.95837	4.4101	70.34	-0.2633	-0.0408	0.2225	1174.3968	0.112074	-453.931029	-453.922985	-453.922041	-453.964115	28.865	
N	-0.0964931554	 1.1726174998	-0.5431693328	-0.539324
C	-0.0607496334	-0.0523184888	-0.2729558062	 0.336521
N	 0.9631566386	-1.0230781132	-0.0863071608	-0.128109
C	 0.0364191807	-2.1470160589	 0.1631008967	-0.265787
C	-1.1022675663	-1.1130599198	 0.0124709939	 0.349223
C	-2.4029066371	-1.0010754286	 0.6712383503	-0.250109
O	-2.2788009353	-1.3198705072	-0.7229496951	-0.247381
C	 2.3248115281	-0.9115991849	-0.1130854668	 0.139976
O	 2.9092987755	 0.125328695	-0.3350554818	-0.301327
H	 0.845318335	 1.5493274917	-0.661629926	 0.256283
H	 0.0466118075	-2.9112157171	-0.6186447184	 0.143934
H	 0.1446436956	-2.6049360798	 1.1497677061	 0.134927
H	-2.753741116	-1.8126653635	 1.306405011	 0.127577
H	-2.7989240815	-0.011237006	 0.887125526	 0.148449
H	 2.834302494	-1.8732248188	 0.0895878838	 0.095147
