15
gdb 48139	3.11316	1.24934	0.99753	0.6492	61.76	-0.2534	-0.1067	0.1467	1143.7129	0.111199	-494.901206	-494.892781	-494.891837	-494.935907	28.579	
O	-0.815071109	 1.4219870016	 0.3722842185	-0.216587
C	 0.2011291416	 1.0606234908	-0.1633708023	 0.080419
C	 1.4020910885	 1.9916651378	-0.3712706384	 0.265459
O	 2.4361708978	 1.5349918466	-0.790267574	-0.26507
C	 1.1857209164	 3.4479986508	 0.0199635176	-0.009316
C	 1.1654549618	 3.6252567439	 1.5767961515	-0.129826
O	 2.0850748452	 4.6782441006	 1.7965390641	-0.226649
C	 3.0021320471	 4.5964915485	 0.7352678803	 0.013853
O	 2.2452611805	 4.2717186747	-0.4146588287	-0.233771
H	 0.37137255	 0.0266759861	-0.5289207699	 0.119091
H	 0.2506592634	 3.799278097	-0.4286415686	 0.123121
H	 0.1858168298	 3.9179528025	 1.955023462	 0.142585
H	 1.4860918909	 2.7065015442	 2.0893709496	 0.106997
H	 3.4743260629	 5.5709472635	 0.5912266506	 0.129046
H	 3.7612718133	 3.8185856114	 0.9249536776	 0.10065
