20
gdb 80526	2.13373	1.47668	1.21662	3.0464	80.89	-0.2387	-0.0308	0.2079	1154.8177	0.169606	-403.118277	-403.109031	-403.108087	-403.152047	34.396	
C	-0.1619019765	 1.5260622274	-0.2438455859	-0.430149
C	 0.0194503737	 0.0509697394	 0.03845597	-0.0187
N	 1.2145915152	-0.738736018	-0.2502734375	-0.186348
C	 2.4230468823	 0.0728295811	 0.1640213034	-0.189873
C	 2.0017975416	 0.0950361614	 1.6577971981	-0.039835
C	 1.9909047912	 1.371482038	 2.4903620672	-0.431434
C	 0.7008295589	-0.5731686407	 1.213297391	 0.2049
C	 0.0952702641	-1.7170837186	 1.9217790016	 0.076672
O	 0.3514991337	-2.0083773014	 3.0662659313	-0.265237
H	 0.7003157942	 2.1364249524	 0.0200506057	 0.131413
H	-0.3626465646	 1.6695219894	-1.3111092123	 0.132412
H	-1.0247692396	 1.9060083845	 0.3120380683	 0.13289
H	-0.8558945896	-0.5242616341	-0.2669731456	 0.101807
H	 3.3278880102	-0.5008221724	-0.040441802	 0.118065
H	 2.4978217208	 1.0383497779	-0.3444527012	 0.107766
H	 2.5797088595	-0.6598963837	 2.198272968	 0.106517
H	 1.4194870776	 2.1804058424	 2.029051027	 0.11668
H	 1.5530131496	 1.171957667	 3.4735347973	 0.136999
H	 3.012761215	 1.7325975524	 2.6493815099	 0.119029
H	-0.6254458373	-2.3099271542	 1.3142262757	 0.076427
