20
gdb 81048	2.47009	1.43742	1.18597	3.3197	79.86	-0.2371	0.0262	0.2633	1141.4615	0.171059	-403.137527	-403.128332	-403.127388	-403.172612	34.218	
C	-0.5384902028	 1.3714117802	-0.2773268285	-0.452079
C	-0.050422157	-0.0533242308	-0.0722545803	 0.041243
C	 1.2989237209	-0.577915233	-0.6686698754	-0.07375
C	 2.0594908124	 0.221748508	 0.4290150431	-0.292691
C	 0.8412469602	-0.440279948	 1.1504331451	 0.261902
C	 1.2022999334	-1.7416215591	 0.3582189367	-0.252796
C	 0.4081047164	-0.3621070129	 2.5897863463	 0.258374
N	 1.4216685609	-0.2150432393	 3.4923239091	-0.533422
O	-0.7624490535	-0.4316214571	 2.9169652954	-0.366944
H	 0.2481330803	 2.1236450295	-0.1750350643	 0.112388
H	-0.9735617571	 1.4836651917	-1.2764385029	 0.115766
H	-1.3200539124	 1.6033026193	 0.4532581775	 0.13913
H	-0.8817624276	-0.7507775754	-0.2168376269	 0.076174
H	 1.5691093149	-0.6564988441	-1.72253113	 0.07262
H	 3.0510473103	-0.1600206455	 0.6935675602	 0.083212
H	 2.0710749517	 1.3098484166	 0.3571374063	 0.10119
H	 0.3914049121	-2.4608957474	 0.2216751356	 0.10444
H	 2.1396517289	-2.2322591864	 0.634289409	 0.087456
H	 2.3854123826	-0.1855159489	 3.2113826672	 0.258521
H	 1.1963103454	-0.2071957474	 4.4735410565	 0.259266
