21
gdb 95982	2.40655	1.37693	1.10018	3.0714	77.98	-0.2412	-0.0186	0.2226	1204.787	0.181884	-424.253849	-424.244235	-424.24329	-424.289684	34.81	
C	-0.6187091147	 1.4683765369	 0.0838072996	-0.432257
C	-0.1247028284	 0.0236133739	 0.0130095478	 0.025556
C	 0.7467635692	-0.2908230807	-1.2106069352	-0.088283
O	 1.3543574615	-1.5320022224	-0.9094014744	-0.247705
C	 1.7604272228	-1.4649294714	 0.4518876293	-0.089555
C	 0.7859984665	-0.4962445003	 1.1849627281	-0.149266
C	 1.5289286607	 0.6428387836	 1.8804371196	 0.384739
C	 1.0206722425	 1.0570917258	 3.2475419214	-0.483518
O	 2.4710962524	 1.1954129786	 1.3557926516	-0.311994
H	 0.212526645	 2.178094689	 0.1295804658	 0.140778
H	-1.212152963	 1.7067189734	-0.8050442181	 0.119712
H	-1.260894391	 1.6368690099	 0.9544560765	 0.115378
H	-0.992406976	-0.6442404244	-0.0235977232	 0.087194
H	 0.1720042929	-0.4080082848	-2.1337834939	 0.105784
H	 1.5000544829	 0.5000706269	-1.3574977803	 0.104587
H	 1.7286535003	-2.4794872213	 0.8583519375	 0.103675
H	 2.7845502319	-1.0782118676	 0.5260353288	 0.115801
H	 0.1717412275	-1.0237777482	 1.9189659116	 0.075436
H	 1.1304914976	 0.2230371839	 3.9512039891	 0.141559
H	 1.5783853987	 1.9205817377	 3.61177772	 0.141707
H	-0.0488071294	 1.2918807616	 3.2057431383	 0.140674
