13
gdb 153	12.75002	3.20516	2.88061	1.3201	46.01	-0.2601	0.079	0.339	468.6229	0.1143	-232.324966	-232.319256	-232.318312	-232.35363	20.059	
O	-0.0446437221	 1.308418401	-0.4475474115	-0.420118
C	-0.0060264355	-0.0001995661	 0.1071265457	-0.087374
C	-1.3968291355	-0.5723095897	 0.0812156033	 0.045628
C	-1.9221911992	-1.2110868831	-1.1773227549	-0.245074
C	-1.5881700991	-2.0667539759	 0.0190313119	-0.272822
H	 0.8236153009	 1.7059844898	-0.3329587431	 0.2838
H	 0.6684980171	-0.6575817589	-0.4675628037	 0.077164
H	 0.3690138622	 0.0228913473	 1.1433538301	 0.084352
H	-2.1132738008	-0.0125293695	 0.6754762949	 0.088325
H	-2.9657195127	-1.0633910488	-1.4312867619	 0.11182
H	-1.2581213521	-1.2529536937	-2.0342213031	 0.113657
H	-0.7023617508	-2.6915672844	-0.0343169873	 0.108955
H	-2.4012373123	-2.5028530879	 0.5883979096	 0.111687
