23
gdb 110199	2.12779	1.48708	1.04455	1.3784	87.16	-0.2609	0.074	0.3349	1262.8488	0.204608	-388.248387	-388.238596	-388.237652	-388.282605	37.559	
C	 0.1877135506	 1.354610402	 0.1556905382	-0.506279
C	 0.0944698667	-0.1450097091	 0.068171547	 0.339758
C	 0.5653931304	-1.0626389566	-1.1019542771	-0.295241
C	-0.0375341056	-2.0357273399	-0.0425057898	 0.310702
C	-0.1369387761	-3.5361744882	-0.1372635956	-0.513479
C	 0.7401007943	-1.1986118362	 1.0210720349	-0.309687
C	-1.2129257513	-1.0083337622	 0.080630725	-0.000406
C	-2.1535384944	-0.9996089053	 1.2691350268	-0.14674
O	-2.8235384912	 0.2594402881	 1.262138007	-0.419472
H	 1.2318180272	 1.6875070769	 0.1519694847	 0.107736
H	-0.3204949912	 1.8267205562	-0.6921715625	 0.117268
H	-0.2898889642	 1.7205064234	 1.0695939639	 0.126555
H	 0.0228738836	-0.9694964288	-2.0484153861	 0.081339
H	 1.6456578837	-1.1313524516	-1.2644683737	 0.07968
H	 0.8553417032	-3.9888928122	-0.2420842335	 0.117721
H	-0.6041576158	-3.9637878054	 0.7571134603	 0.114728
H	-0.7354253576	-3.8380864827	-1.0041439557	 0.116889
H	 1.8317198008	-1.2727558328	 0.9824144652	 0.081414
H	 0.3936172316	-1.2346500696	 2.0560349189	 0.08451
H	-1.8098540168	-0.903802351	-0.8341382267	 0.060058
H	-2.8741421979	-1.8278198891	 1.1660814852	 0.08309
H	-1.6222502157	-1.1519527112	 2.2187949189	 0.084781
H	-3.4590036045	 0.2644753355	 1.9839924147	 0.285075
