20
gdb 53470	4.54736	0.69146	0.6093	3.1862	87.09	-0.2343	0.0331	0.2674	1867.2698	0.167462	-403.152049	-403.140493	-403.139549	-403.191456	38.122	
C	 0.0830475176	 1.5320878072	 0.0519830516	-0.499006
C	 0.0350241244	 0.0789221014	-0.010699412	 0.142037
C	-0.0257464282	-1.1209053328	-0.0600063618	 0.0661
C	-0.0600244208	-2.5732364343	-0.1242524927	-0.555666
C	-1.4867220227	-3.1495669775	 0.0142711773	 0.443187
O	-2.4509829781	-2.4242188768	 0.1602471415	-0.361272
N	-1.5980902137	-4.5189037121	-0.0370982223	-0.095185
C	-2.9169920429	-5.1178465149	 0.0878890144	-0.342605
C	-0.5101144115	-5.4605497387	-0.2075724811	-0.338357
H	 0.7022268696	 1.87674539	 0.8877327607	 0.143643
H	 0.5000276544	 1.9591263852	-0.8669376291	 0.143639
H	-0.9197803986	 1.9518743725	 0.1872584667	 0.153743
H	 0.3735064306	-2.9162426195	-1.0730553958	 0.14623
H	 0.575170531	-2.9978595656	 0.6644508512	 0.146229
H	-3.1606918148	-5.7051295141	-0.8067870616	 0.118846
H	-2.9560919661	-5.787740476	 0.956480786	 0.118847
H	-3.6461543391	-4.3193288795	 0.2099123577	 0.171775
H	 0.4500921065	-4.9577418187	-0.2955637646	 0.143546
H	-0.4559009813	-6.1488709214	 0.646883484	 0.127134
H	-0.6601639262	-6.0664996345	-1.1115216601	 0.127135
