21
gdb 92176	2.62405	1.84986	1.64146	1.596	79.92	-0.2291	0.0818	0.3109	957.1961	0.185723	-387.069541	-387.062513	-387.061568	-387.100414	29.955	
C	-0.2042934317	 1.5392083337	 0.0336666097	-0.40869
C	 0.0475504094	 0.0263903695	 0.0047831623	 0.047463
C	 0.862405879	-0.4312825458	-1.245960972	-0.240949
C	 2.3170822234	-0.604788327	-0.8242807215	 0.096229
O	 2.6997636977	 0.5803916514	-0.0538554589	-0.301296
C	 2.3498984734	-0.1491655204	 1.1302189052	 0.127703
C	 2.4781635616	-1.519349772	 0.4441450575	-0.072363
C	 1.1533211612	-1.9803041374	 1.0742761966	-0.264084
C	 0.8003407039	-0.4722192015	 1.2543320677	-0.070129
H	 0.7382542871	 2.0904151958	 0.0318185349	 0.140321
H	-0.7849290877	 1.8531878099	-0.8408748047	 0.104953
H	-0.7724818631	 1.821905494	 0.9272226612	 0.102303
H	-0.927117172	-0.4774746267	-0.0107342303	 0.067142
H	 0.4797066665	-1.3743411107	-1.6528624942	 0.097132
H	 0.7939014097	 0.312936048	-2.046128485	 0.102911
H	 3.0051712205	-0.7799833357	-1.6553272368	 0.073622
H	 2.8790496174	 0.1835276643	 2.0249649312	 0.074465
H	 3.375720033	-2.1374040447	 0.4699066264	 0.06957
H	 0.4629866165	-2.5904333288	 0.4834704348	 0.093639
H	 1.3380630745	-2.483480651	 2.0277652974	 0.099954
H	 0.3010798498	-0.1759481047	 2.1795362783	 0.060103
