23
gdb 38690	2.37654	2.02316	1.95786	0.0071	86.27	-0.2862	0.0785	0.3647	925.288	0.213223	-351.203753	-351.197574	-351.19663	-351.23369	28.575	
C	-0.0137721538	 1.5654222018	-0.0157828282	-0.206667
C	 1.4950888795	 1.8707159052	-0.0086360114	 0.006782
C	 1.9375834	 0.9806875825	-1.184207933	-0.206667
C	 1.3284577515	-0.377914095	-0.7622027213	-0.01142
C	 2.255822548	-0.9724688448	 0.3247302281	-0.206667
C	 1.8241487813	-0.1488754974	 1.551625082	 0.006782
C	 0.3044621091	-0.387739896	 1.493147253	-0.206667
C	 0.0049990838	 0.0186653385	 0.030248527	-0.01142
C	 2.1299171589	 1.3537900422	 1.3102775442	-0.217259
H	-0.5597123947	 1.9990165788	 0.8281354818	 0.08287
H	-0.4721675454	 1.9438605814	-0.9363791417	 0.083839
H	 1.7259120297	 2.9306622633	-0.1535924528	 0.050638
H	 1.5075826222	 1.3506173042	-2.1218070483	 0.083839
H	 3.0227488713	 0.9255145241	-1.3169615364	 0.082871
H	 1.1525689015	-1.0543264855	-1.6006480814	 0.054844
H	 2.0595509161	-2.0369935092	 0.4953325487	 0.083839
H	 3.3150088186	-0.8681869191	 0.0687958134	 0.08287
H	 2.2826637926	-0.486400353	 2.4863007812	 0.050638
H	 0.0797972746	-1.4437568081	 1.6807490404	 0.083839
H	-0.2674644084	 0.2053043327	 2.2138766674	 0.08287
H	-0.9011694537	-0.4389099557	-0.3709307977	 0.054844
H	 3.2160743492	 1.5069828713	 1.2794980528	 0.087701
H	 1.754129668	 1.9450649378	 2.1548666823	 0.087701
