17
gdb 33221	5.63754	0.79681	0.71439	2.501	72.37	-0.1962	0.0353	0.2315	1532.2483	0.137106	-455.166485	-455.15787	-455.156926	-455.200842	30.989	
O	 0.0214052279	 1.3590639385	-0.3230527564	-0.424045
C	-0.0292179506	-0.0237185118	 0.0132041737	-0.095687
C	-1.4957710341	-0.403212624	 0.1193130446	-0.11935
N	-2.1512692075	-0.1315279967	-1.1502279801	-0.405148
C	-3.4336630572	-0.5485891058	-1.336755893	 0.518679
N	-4.102762678	-1.4249658462	-0.6459261438	-0.363532
C	-5.3207253424	-1.5086696905	-1.3202545213	-0.1069
C	-5.3208763653	-0.6713990229	-2.3759357407	-0.057511
O	-4.0918130823	-0.0331656996	-2.4023407103	-0.204033
H	 0.9284847529	 1.5890293126	-0.5425004713	 0.29454
H	 0.4541502962	-0.6364284295	-0.7612862104	 0.102138
H	 0.4681815493	-0.2225387709	 0.9737587462	 0.097524
H	-1.5955281622	-1.4676817301	 0.3455644665	 0.138492
H	-1.9615985207	 0.1536323247	 0.9458383822	 0.114434
H	-1.9219600379	 0.7684044766	-1.5475111441	 0.258381
H	-6.1053672324	-2.1680022662	-0.9838313713	 0.116025
H	-6.0150039359	-0.3995878482	-3.1506576805	 0.135991
