22
gdb 119241	2.04171	1.14823	0.87815	3.4436	83.15	-0.246	0.0297	0.2757	1447.1726	0.19299	-404.369482	-404.35925	-404.358306	-404.405395	37.255	
C	-1.7685989516	 1.5304740761	-1.4644575578	-0.379085
C	-1.757157314	 0.0007409342	-1.4051392179	-0.168222
C	-1.6557148464	-0.5380618801	 0.027259508	-0.236596
C	-1.6211927881	-2.056163857	 0.1164288771	 0.361721
C	-2.1386560029	-2.7330991962	 1.3583961532	-0.282335
C	-2.9110983187	-2.8389544296	 0.0657508825	-0.322877
N	-0.4915948447	-2.6864855179	-0.5253787013	-0.330646
C	 0.7718718126	-2.6534478938	-0.0165690321	 0.145432
O	 1.087821207	-2.1619145684	 1.0449513899	-0.320776
H	-1.8356287215	 1.8898005104	-2.4961100684	 0.110381
H	-2.6206888872	 1.9428178126	-0.9124747296	 0.113609
H	-0.857344611	 1.949146334	-1.0235940196	 0.119689
H	-2.6656187508	-0.394029059	-1.8791792953	 0.091358
H	-0.9131898696	-0.3792566633	-1.9946372216	 0.090866
H	-0.7535222612	-0.1466827778	 0.5122161253	 0.126749
H	-2.5085612923	-0.1752826144	 0.6145496077	 0.090906
H	-1.6060020804	-3.6099045444	 1.7045716041	 0.126523
H	-2.5306340492	-2.1014752165	 2.1473285475	 0.119194
H	-3.8334801171	-2.2775627476	-0.0360386279	 0.11731
H	-2.9086472821	-3.7951042025	-0.4467430573	 0.110526
H	-0.6080459659	-3.0428790606	-1.4615375135	 0.245952
H	 1.4963921152	-3.1502015381	-0.694905563	 0.070322
