12
gdb 20472	6.45738	1.42455	1.25847	2.7188	56.18	-0.2705	-0.0462	0.2243	896.8345	0.083745	-414.604787	-414.598453	-414.597509	-414.636006	22.513	
C	 0.9056146265	 1.1049507487	-0.0125764781	-0.165462
O	 0.2116593645	 0.1475310472	-0.8129978776	-0.226451
C	-0.4194139336	 0.5945687993	 0.3861547836	-0.03491
C	-0.5754080238	-0.4315366812	 1.433385599	 0.249635
C	-0.1110973752	-1.7077758169	 1.4993689822	-0.040371
O	-0.5181286986	-2.2548956077	 2.6407880067	-0.15852
N	-1.2857924721	-1.25381737	 3.3142027481	 0.001054
N	-1.2972612301	-0.2267535021	 2.5897168646	-0.185695
H	 1.7909911449	 0.7339736933	 0.5001184906	 0.124548
H	 0.9871842696	 2.1021024365	-0.4415870229	 0.130212
H	-1.2819006954	 1.2452202222	 0.2488299314	 0.121958
H	 0.4751098133	-2.3132342793	 0.8291111523	 0.184003
