19
gdb 53491	3.59516	0.78772	0.75406	3.2304	80.98	-0.2505	-0.0287	0.2218	1587.0011	0.153943	-423.017223	-423.005944	-423.005	-423.056191	38.379	
C	 0.1396454921	 1.4304094803	-0.2054164999	-0.500502
C	 0.0602392	-0.0173070382	-0.063496265	 0.116865
C	 0.0308632719	-1.2151686995	 0.0708417572	-0.003401
C	-0.0692559687	-2.6650384524	 0.190936299	-0.375483
C	-1.5384371112	-3.1487786369	 0.0444894859	 0.262007
C	-2.4125878043	-2.6750301612	 1.2182120287	-0.422476
O	-2.083811488	-2.7445198961	-1.2004777198	-0.471666
C	-1.5598705639	-4.6754151121	 0.0126285793	 0.146929
O	-0.9456437371	-5.3708788825	 0.7787422004	-0.264955
H	 0.9258627859	 1.8450761028	 0.4348056345	 0.154792
H	 0.3655036103	 1.7193036151	-1.2376158845	 0.151411
H	-0.8031092562	 1.9119912714	 0.0760484413	 0.149883
H	 0.5323505929	-3.1423160319	-0.5918012144	 0.136068
H	 0.3247725569	-3.0180049275	 1.1493701648	 0.146232
H	-2.3823097412	-1.5832468272	 1.2835154335	 0.127809
H	-3.4495269511	-2.9853745745	 1.0629860906	 0.127149
H	-2.0538803095	-3.0943196112	 2.1624199334	 0.134084
H	-1.9318791308	-1.7946139694	-1.2806227215	 0.285825
H	-2.2123910079	-5.0937608689	-0.7843337634	 0.09943
