23
gdb 94564	2.77426	1.25379	1.10975	1.5767	85.26	-0.2427	0.077	0.3197	1244.4231	0.206484	-388.265553	-388.256494	-388.25555	-388.299595	34.405	
C	-0.6062208535	 1.3571211236	-0.0818789784	-0.423532
C	 0.1044761134	 0.0102665056	-0.0795791751	 0.045616
C	 1.5696008207	-0.0673152798	-0.5933256815	-0.218009
C	 1.9017801913	-1.0519847933	 0.5578887523	-0.228278
C	 0.5849195457	-0.6265978544	 1.2727973473	-0.039708
C	 0.7519657644	 0.3348366959	 2.4327165647	 0.147439
C	 1.5610362851	-0.1213863518	 3.6695511322	-0.298817
C	 2.3885514945	 1.1536195573	 3.4213040229	-0.059097
O	 1.6982508143	 1.4116092546	 2.1810223945	-0.289423
H	-0.0218375767	 2.1138873163	 0.4499008116	 0.140511
H	-0.758159597	 1.7080211502	-1.1090087384	 0.10731
H	-1.5935534745	 1.2937405029	 0.3906692111	 0.105315
H	-0.5098465427	-0.7257158262	-0.6110723225	 0.06553
H	 1.7227820632	-0.4168930206	-1.6177251547	 0.08495
H	 2.0863456757	 0.885935304	-0.4588528395	 0.114784
H	 1.8755021362	-2.0982107135	 0.2417619741	 0.092952
H	 2.8361913503	-0.875815171	 1.096291757	 0.094956
H	-0.0418180413	-1.4505397165	 1.6356580944	 0.063371
H	-0.2269563134	 0.7565826193	 2.7045206196	 0.071616
H	 1.0165918333	-0.1795167305	 4.6130555616	 0.106975
H	 2.114288069	-1.0496645116	 3.5130934132	 0.11251
H	 2.22573928	 1.9575089885	 4.1514246404	 0.09881
H	 3.4664648118	 1.0251470312	 3.2705956635	 0.104221
