23
gdb 99769	1.82878	1.32544	0.95334	2.1155	78.36	-0.2466	0.0733	0.32	1377.8901	0.201887	-462.552479	-462.540864	-462.539919	-462.589241	41.741	
C	 0.1553849161	 1.1779586296	-0.4653062335	-0.241181
O	 0.0268209427	-0.0520249972	 0.217560978	-0.270051
C	-1.2782248661	-0.6362589924	 0.1986467017	 0.094964
C	-1.1529411386	-2.0223845616	-0.462621496	 0.141919
C	-0.9251253795	-1.935844759	-1.9726181349	-0.415128
O	-0.1109675768	-2.7536422866	 0.1729315103	-0.44506
C	-1.808350579	-0.7436659227	 1.6368957433	 0.112314
C	-1.7666246725	 0.5796045384	 2.3971421292	-0.413005
O	-3.1477905965	-1.220983283	 1.5016787544	-0.439065
H	 1.2036450721	 1.4793572183	-0.3889979953	 0.126823
H	-0.1095971954	 1.0882668232	-1.5280485339	 0.113408
H	-0.4692977426	 1.962009711	-0.0153515155	 0.112785
H	-1.9744530021	-0.0103635902	-0.3761322954	 0.074318
H	-2.0756727021	-2.5728993241	-0.25879607	 0.102806
H	-0.0229627322	-1.3564330101	-2.1978971225	 0.112663
H	-0.7927427166	-2.9394810248	-2.3850802627	 0.122268
H	-1.7742449611	-1.4621527727	-2.4774267215	 0.108303
H	 0.6497598968	-2.1580638883	 0.1847450494	 0.283237
H	-1.1869331101	-1.4882527569	 2.1547450805	 0.085362
H	-0.7421089161	 0.952764447	 2.4715830221	 0.127985
H	-2.388091841	 1.3308991084	 1.898411065	 0.11558
H	-2.1520274523	 0.4471263379	 3.4144209296	 0.1032
H	-3.4627072774	-1.4741633144	 2.3742024776	 0.285556
