18
gdb 45432	2.55651	1.6821	1.65175	2.8415	70.27	-0.2245	-0.0152	0.2093	933.746	0.15061	-439.100085	-439.092859	-439.091915	-439.131787	28.636	
O	 0.0192914906	-0.0401126546	-0.1968535966	-0.32644
C	-0.004660768	 1.1538954131	-0.0481448793	 0.462022
C	-1.2735271491	 1.9959418372	 0.0955692183	-0.33136
C	-0.8479049341	 3.4729193887	 0.0639376128	 0.089246
C	 0.0535398227	 3.7862910094	 1.2618556439	-0.173356
N	 1.134152702	 2.778911852	 1.2788336457	-0.306626
C	 1.2246444565	 2.065435695	-0.0064116285	-0.144183
C	 1.1184070622	 3.0305975003	-1.2013058521	-0.084087
O	-0.1329731947	 3.7263388759	-1.1494888941	-0.279836
H	-1.951067369	 1.7618432526	-0.7312220357	 0.136386
H	-1.7865238057	 1.736042885	 1.0286068503	 0.133667
H	-1.7109383158	 4.1415770842	 0.0441379339	 0.087978
H	 0.4296129861	 4.8121282752	 1.1518374369	 0.102217
H	-0.5216562231	 3.7409518459	 2.1963130091	 0.10479
H	 2.0256460478	 3.1977629774	 1.512268329	 0.228171
H	 2.1379206687	 1.4702633694	-0.0443301044	 0.091079
H	 1.9454669431	 3.7551269191	-1.163315472	 0.094908
H	 1.1796609398	 2.4970521643	-2.1588737373	 0.115425
