13
gdb 125186	3.60308	1.6564	1.14282	2.3316	66.64	-0.2465	-0.044	0.2026	979.1778	0.090777	-452.739918	-452.733206	-452.732262	-452.771449	24.845	
C	 0.0625277551	 1.5102812244	-0.0141446209	-0.499145
C	-0.0862344045	 0.0361584099	 0.0651260167	 0.322845
C	-1.1191351795	-0.8464265998	-0.0449757049	 0.06912
N	-2.4865062725	-1.0405192887	-0.2595340809	-0.338208
C	-2.6069815364	-2.3192216133	-0.1893543711	 0.054229
O	-1.4571228502	-3.0659052328	 0.0553212655	-0.210244
C	-0.5089321793	-2.0991327725	 0.1453435652	 0.456622
N	 0.7747399991	-2.0850596598	 0.3586346672	-0.269411
O	 1.0382784375	-0.6903542733	 0.3041481302	-0.223224
H	 0.7515067741	 1.7918506519	-0.8170652522	 0.157925
H	-0.9092883768	 1.9673765739	-0.20859188	 0.156203
H	 0.46132871	 1.9146429408	 0.9218576413	 0.157925
H	-3.5078607966	-2.9041848806	-0.2984380562	 0.165364
