13
gdb 128995	4.19434	1.70092	1.21017	2.6422	71.78	-0.2547	-0.0635	0.1912	917.0892	0.094735	-411.844557	-411.838753	-411.837808	-411.874648	22.936	
N	 0.0262248734	 1.3473775938	 0.0094474452	-0.347215
N	 1.2907471014	 1.8337307796	-0.0003464978	-0.180111
C	 2.0997107368	 0.7906517955	-0.0138730556	-0.101003
C	 1.3544573594	-0.4260731824	-0.0130648938	 0.254248
C	 0.0016909678	-0.013454002	 0.0024139402	 0.318502
C	-0.9848143901	-1.0020381465	 0.0067986349	-0.066365
N	-0.6254674922	-2.2764284843	-0.0035455145	-0.254925
C	 0.697301134	-2.5653181639	-0.0180660908	 0.047594
N	 1.7158395479	-1.7194796035	-0.0235321173	-0.332035
H	-0.7412269895	 1.9970224031	 0.0204912756	 0.281374
H	 3.1699223452	 0.9280143699	-0.0236420274	 0.136923
H	-2.0491187531	-0.7756940538	 0.0184494868	 0.122253
H	 0.9419049092	-3.6238226055	-0.0261324555	 0.120761
