15
gdb 45157	3.07961	1.55714	1.20995	5.2671	65.16	-0.2741	0.0005	0.2746	999.7084	0.112446	-457.743906	-457.736869	-457.735925	-457.775727	26.919	
O	-0.3179826837	 0.1800750061	 0.3517638478	-0.31357
C	-0.0876039946	 1.2981458516	 0.0323698394	 0.470019
O	-0.9523203552	 2.204336947	-0.5501801988	-0.255868
C	 0.0931765866	 3.2187931658	-0.6621454486	 0.110822
C	 0.0877238411	 4.1782291632	 0.5477562808	-0.340824
C	 1.0740013715	 3.2237586977	 1.2459949258	 0.445884
C	 2.1620542779	 3.5282790187	 2.1757223395	-0.263955
O	 0.9917933121	 2.8055294844	 2.5863788094	-0.248266
C	 1.099028412	 2.2638484202	 0.0379627925	-0.342287
H	 0.1841867162	 3.5930941078	-1.6788432136	 0.10841
H	 0.5077234651	 5.1651148513	 0.3379408527	 0.122036
H	-0.8874969545	 4.2869720785	 1.025625992	 0.141736
H	 3.0817566263	 2.945960939	 2.1439108976	 0.126336
H	 2.2560436194	 4.5342798172	 2.5824572599	 0.124797
H	 2.0508818896	 1.9098487716	-0.3519894064	 0.11473
