17
gdb 27182	2.99443	1.33132	0.99415	1.4764	77.4	-0.1879	0.0226	0.2105	1185.6894	0.136058	-421.83585	-421.827507	-421.826562	-421.869535	30.946	
O	 0.346988037	 1.4028519621	-0.0067530428	-0.44611
C	 0.1460738661	 0.0526915369	 0.0098182837	 0.182151
C	-0.0856041809	-0.7026557814	-1.1031788448	 0.295066
O	-0.2415981856	-2.0117015721	-0.7219195453	-0.193739
C	-0.1069122948	-2.0692913949	 0.6260088852	-0.00746
C	 0.1326942544	-0.8335270055	 1.1368055447	-0.30461
C	-0.1858804913	-0.3655645402	-2.5249380979	-0.104422
C	 0.3253028227	-1.3088831328	-3.5967918587	-0.265648
C	-1.1544829981	-1.0892346753	-3.440327533	-0.265687
H	 0.4881654066	 1.7053691076	 0.8942905613	 0.298837
H	-0.2064081622	-3.0460552142	 1.0690828796	 0.132377
H	 0.2811010348	-0.5796851135	 2.1756396406	 0.10543
H	-0.0473041127	 0.6949199076	-2.7036504678	 0.103193
H	 0.8288030618	-0.8754885968	-4.4538331439	 0.112216
H	 0.730416967	-2.2575252314	-3.2636469257	 0.123078
H	-1.7379271085	-1.8911469595	-3.0026688613	 0.123119
H	-1.6764935864	-0.5036445567	-4.188960004	 0.112209
