13
gdb 49947	2.29172	1.26568	0.98399	3.8447	69.76	-0.2882	-0.0703	0.2179	1174.6932	0.087668	-415.617785	-415.609328	-415.608384	-415.651462	29.44	
O	-0.0114760037	-0.0453451977	-0.3190132256	-0.235339
C	 0.0311820345	 1.075427088	 0.1117616321	 0.16182
C	 1.2753563144	 1.9065130098	 0.0737113791	-0.137739
C	 1.1748319185	 3.3800777077	-0.1894290728	-0.306894
C	 1.5438161503	 2.9247866772	 1.2155497076	 0.015631
C	 0.558198847	 3.0807540293	 2.2603049415	 0.255624
N	-0.2439613607	 3.2120840441	 3.0815772117	-0.31784
C	 2.9172351042	 3.0635136765	 1.6356105674	 0.260717
N	 4.0249806811	 3.1714664151	 1.9459418802	-0.31039
H	-0.8584310258	 1.5757692803	 0.5495281918	 0.113367
H	 2.1544536081	 1.38312884	-0.2838316469	 0.157398
H	 1.9574041501	 3.8503363209	-0.7714452274	 0.174908
H	 0.186244502	 3.8125923888	-0.2969302287	 0.168735
