19
gdb 106261	3.02831	1.26091	1.0821	2.9611	76.39	-0.2395	0.0087	0.2482	1185.8848	0.15818	-422.998914	-422.989861	-422.988917	-423.03279	33.661	
C	-0.0832304861	 1.4789187634	-0.0063135894	-0.512899
C	-0.0107912587	-0.0202991205	-0.0068976905	 0.182289
C	 0.618080311	-0.9733749808	-1.0956048103	-0.322206
C	 0.1034590121	-1.9805572008	-0.0104233586	 0.182905
C	 0.1050087705	-3.4840210442	 0.010146194	-0.203651
O	-0.6786547402	-3.9778627047	 1.0858657123	-0.418851
C	 0.681627971	-0.9700363318	 1.0430041763	-0.295951
C	-1.1293210101	-1.0701858853	 0.0366294617	 0.402054
O	-2.3207695359	-1.1626376556	 0.1033347676	-0.356185
H	 0.9154897472	 1.9263639682	-0.036548442	 0.125079
H	-0.6435258243	 1.8421694016	-0.873824726	 0.132685
H	-0.589440785	 1.8421901158	 0.8937875517	 0.134359
H	 0.1445061823	-1.0000022058	-2.0797418189	 0.110542
H	 1.7069126332	-0.9055515145	-1.1701819164	 0.106199
H	-0.2533814526	-3.8621356615	-0.9610819174	 0.096975
H	 1.1156024701	-3.8796631485	 0.157915628	 0.114798
H	-1.5734409389	-3.638935498	 0.9652610342	 0.29927
H	 1.7732808261	-0.9061983891	 1.047957122	 0.104469
H	 0.2690128583	-1.000538308	 2.0528671818	 0.118119
