19
gdb 38627	3.37279	1.98021	1.66497	1.4643	77.63	-0.222	0.086	0.308	869.9351	0.163216	-385.8351	-385.829213	-385.828269	-385.864854	26.385	
C	-0.0659525158	 1.545772099	 0.0768342642	-0.338485
C	 1.5074333294	 1.3695913123	-0.0126823125	-0.077703
C	 1.8839596979	 0.7128678036	 1.3245667644	-0.2332
C	 1.0096209515	-0.5257450298	 1.1100391502	-0.070248
C	 1.5161915974	-1.2857502582	-0.1430220006	-0.12156
C	 0.2139367951	-2.0509572998	-0.5435442471	-0.099727
O	-0.8329315687	-1.0448712689	-0.3465194292	-0.344404
C	-0.0044904208	 0.0255830778	 0.0210605015	 0.466193
C	 1.2651429876	 0.0598596972	-0.8639759219	-0.058331
H	-0.4873307824	 2.0444665385	 0.954948397	 0.09732
H	-0.4724803254	 1.9799004359	-0.8401479336	 0.110896
H	 2.122879845	 2.1822853694	-0.3936269169	 0.069185
H	 2.9520635413	 0.4880759055	 1.4116101281	 0.095159
H	 1.5802293608	 1.3056064951	 2.1930036753	 0.095725
H	 0.6345389659	-1.0774900203	 1.9724275228	 0.064229
H	 2.4390256328	-1.8706970856	-0.1715426104	 0.063265
H	 0.2057363415	-2.3764317861	-1.5898394837	 0.104702
H	 0.0158002118	-2.9108351865	 0.1047839384	 0.107028
H	 1.1749497252	 0.1500379907	-1.9460085659	 0.069957
