17
gdb 12594	3.24313	2.12854	1.31678	1.4875	71.92	-0.2156	0.0044	0.22	925.1969	0.142896	-360.082566	-360.074374	-360.073429	-360.115244	29.412	
C	-0.0080713777	 1.4566748138	-0.0124328709	-0.351148
N	 0.0099526436	 0.0095943786	 0.0060201853	-0.097755
C	-0.0106099686	-0.7776450766	-1.1414700253	 0.337641
N	-0.0473435459	-0.2906404693	-2.3166473703	-0.556495
C	 0.0210187461	-2.2029585809	-0.5931845057	-0.275637
N	 0.0579446328	-2.0861200977	 0.8665823764	-0.300368
C	 0.0494226441	-0.829694687	 1.1221550656	 0.369859
C	 0.0785195407	-0.251084694	 2.4982138475	-0.491364
H	 0.8897447277	 1.8759609506	 0.4545067972	 0.129884
H	-0.0392760346	 1.7611805146	-1.059820017	 0.178046
H	-0.8900229958	 1.8543837931	 0.5012713728	 0.129885
H	-0.056659503	-1.032293956	-3.0142286973	 0.219095
H	-0.8618291669	-2.7688535194	-0.9140610977	 0.135486
H	 0.8991961825	-2.7475968265	-0.960314117	 0.135484
H	 0.1073780659	-1.0653750045	 3.2218211484	 0.157373
H	 0.957054652	 0.3877093631	 2.6401132217	 0.140007
H	-0.8065768128	 0.3663359481	 2.6864003265	 0.140007
