21
gdb 116481	3.244	1.12993	0.88646	1.9278	82.03	-0.2469	0.0143	0.2612	1358.2788	0.182841	-424.224236	-424.215217	-424.214273	-424.258527	33.675	
C	 0.1789716212	 1.4923360036	 0.4790104857	-0.387362
C	 0.1319564924	 0.0066645516	 0.1185817685	-0.183589
C	 0.5011353258	-0.2727529333	-1.3444882999	 0.070162
O	 1.8157948043	 0.2336888601	-1.5287708946	-0.238536
C	 2.3716219607	 0.1041389426	-2.8036287302	 0.012333
O	 3.0244785297	-1.1179912483	-2.9929605294	-0.223181
C	 2.2047076956	-2.2034275917	-3.3725546015	-0.136465
C	 1.0041355292	-2.5114270278	-2.5196290226	-0.089337
C	 0.3072245778	-1.7276350816	-1.6982297079	-0.054617
H	 1.1772742383	 1.9001194379	 0.3054620542	 0.13618
H	-0.530074735	 2.0683021176	-0.1268081365	 0.108422
H	-0.0790354692	 1.647107182	 1.5309283816	 0.109625
H	 0.8202239628	-0.5611634625	 0.7556584339	 0.112343
H	-0.8726103339	-0.3929602729	 0.30014962	 0.094652
H	-0.1894433614	 0.3111722064	-1.9859544292	 0.076074
H	 1.6055129182	 0.2669524912	-3.5839740569	 0.073341
H	 3.1470455	 0.8710589497	-2.8776496435	 0.112579
H	 1.8536948964	-2.0638824153	-4.4132377845	 0.102675
H	 2.8691675513	-3.0744316634	-3.389394329	 0.121114
H	 0.6367041963	-3.526061254	-2.6706101694	 0.093116
H	-0.5790135806	-2.160521662	-1.2363939487	 0.090471
