17
gdb 33017	4.98244	0.9428	0.80076	1.5784	78.35	-0.2431	-0.0459	0.1973	1402.6902	0.137184	-418.040948	-418.03269	-418.031746	-418.075001	29.231	
C	 0.0014621765	 1.4125386538	-0.0203145818	-0.226804
O	-0.0068969781	 0.004457483	 0.0136490222	-0.23284
C	 0.6302737872	-0.5736547157	-1.0974701151	-0.129133
C	 0.5859421627	-2.0776180819	-0.992741654	 0.257785
C	-0.0170702272	-2.7415196879	 0.0790440248	-0.041821
N	-0.0491996165	-4.0734680343	 0.1590737265	-0.238604
C	 0.5270577468	-4.7398029489	-0.8421230312	-0.011501
C	 1.1287063965	-4.080804914	-1.9114135398	-0.022156
N	 1.1616540043	-2.751374865	-1.9928691813	-0.294565
H	 1.0272450283	 1.8127856442	-0.0250043166	 0.10987
H	-0.5232467832	 1.8007939671	-0.9071058692	 0.109861
H	-0.5121576277	 1.7628519795	 0.8776244376	 0.132646
H	 0.1467895101	-0.264933797	-2.0401232292	 0.112717
H	 1.6827008202	-0.2494443079	-1.1674522424	 0.112697
H	-0.4789583229	-2.1777406879	 0.8810952448	 0.133067
H	 0.5096872985	-5.8254938478	-0.7923926952	 0.114524
H	 1.5947401644	-4.6375398393	-2.72072224	 0.114258
