19
gdb 113160	3.27944	1.08207	0.93558	3.2198	72.8	-0.2504	0.0146	0.265	1281.2035	0.159013	-456.357758	-456.348076	-456.347132	-456.392106	35.874	
C	 0.5982823852	 1.2081561522	-0.4069029402	-0.513002
C	 0.183572152	-0.1817162821	 0.0300525403	 0.21758
N	 1.2467852023	-1.1131604488	 0.458630867	-0.381317
C	 0.2900437699	-0.641367605	 1.4570106237	-0.062677
C	 0.8918415069	 0.1979501292	 2.5785206209	-0.086093
O	 2.1618617417	 0.7154172815	 2.2471172243	-0.414446
C	-0.9248830097	-0.8879486912	-0.7296233068	 0.379305
N	-1.7076569645	-0.1129962438	-1.5243026658	-0.542221
O	-1.0957173623	-2.0928388607	-0.6209382796	-0.386265
H	 1.426154634	 1.5600368451	 0.2082294844	 0.163143
H	 0.9093465057	 1.2166531967	-1.4571937074	 0.123153
H	-0.2242760672	 1.9230989924	-0.2827151537	 0.113429
H	 0.9794915935	-2.0475598678	 0.1488611214	 0.251253
H	-0.4779617487	-1.3449342832	 1.7698071795	 0.10906
H	 0.2352993238	 1.0412801458	 2.8255204041	 0.107587
H	 0.9498645852	-0.4392454923	 3.4768932683	 0.097087
H	 2.548564577	 0.0601348036	 1.6452426529	 0.293356
H	-1.5559090893	 0.871671097	-1.6434798621	 0.265001
H	-2.4436063355	-0.5619175786	-2.0438033512	 0.266067
