26
gdb 102565	1.95373	1.15886	0.8544	1.2454	93.18	-0.2194	0.0881	0.3075	1529.5175	0.239018	-369.588489	-369.577361	-369.576417	-369.624812	41.123	
C	-0.1792786532	 0.7656343228	 2.1941375904	-0.392553
C	 0.050478913	-0.6378770937	 1.6226195574	-0.16857
C	 0.270944313	-0.6957901811	 0.0939732415	 0.004637
C	 1.5498294736	 0.0609009508	-0.3212461634	-0.177601
C	 1.81933584	 0.1096662613	-1.8283148432	-0.393386
C	 0.3367734899	-2.1529919871	-0.3517569546	 0.024125
C	-0.8467171038	-3.0592441517	-0.3025684764	-0.267088
N	-0.2455028427	-2.7074335098	-1.5833481892	-0.092222
C	-1.0479509237	-1.8787015271	-2.4694127258	-0.313547
H	 0.7007642837	 1.4068428964	 2.0899174443	 0.119844
H	-1.015679632	 1.2650673162	 1.6914736556	 0.11194
H	-0.4190581709	 0.7135746625	 3.2609330773	 0.111952
H	 0.9106055818	-1.1023312204	 2.1244819366	 0.093028
H	-0.8141516025	-1.2646871832	 1.8685760029	 0.095409
H	-0.5911053529	-0.2106547685	-0.3831834988	 0.066737
H	 1.4986531633	 1.0863975308	 0.0597466199	 0.094571
H	 2.4054288838	-0.4077469709	 0.1855252234	 0.092632
H	 1.0069817309	 0.6167898186	-2.3604218181	 0.112302
H	 2.742780454	 0.6584676712	-2.0390105868	 0.109116
H	 1.9233166796	-0.8928732888	-2.2539902049	 0.134345
H	 1.3025486733	-2.6103710077	-0.1292114594	 0.083675
H	-0.7507351671	-4.0954075329	 0.0133292112	 0.10915
H	-1.8070474218	-2.6028048038	-0.0591564193	 0.099946
H	-1.7002618123	-1.1523611482	-1.9582151488	 0.098079
H	-0.3960388521	-1.3310909034	-3.1559279985	 0.122405
H	-1.689878795	-2.5367852924	-3.0644471831	 0.121075
