20
gdb 127102	2.55061	1.43623	1.00296	2.2879	82.68	-0.1906	0.0326	0.2233	1228.4821	0.171413	-399.340137	-399.330694	-399.32975	-399.374288	34.871	
C	 0.3596248068	 1.040914346	-0.524911194	-0.335334
N	 0.0392334649	-0.1601430014	 0.2395012874	-0.155402
C	 0.4845070714	-0.0678715952	 1.6183588896	-0.325592
C	-1.2772338329	-0.6361604906	 0.079266382	 0.161708
C	-2.2715620237	-0.7652531492	 1.034389029	-0.122678
N	-3.3328700703	-1.3277152974	 0.4001844466	-0.199297
N	-3.1023763402	-1.5723428986	-0.9010597548	-0.283907
C	-1.8543636597	-1.1602935762	-1.1147881542	 0.29256
C	-1.2212897579	-1.3054785349	-2.4616109682	-0.50072
H	 1.439528882	 1.2175615855	-0.4865840266	 0.11594
H	 0.0745568102	 0.9123136005	-1.5702899042	 0.129699
H	-0.1513050986	 1.9408115176	-0.138310545	 0.098839
H	-0.0319716866	 0.7238839948	 2.1933744944	 0.094089
H	 0.3186019382	-1.0230385927	 2.1242347352	 0.12538
H	 1.5560864256	 0.1539714226	 1.6396282154	 0.117949
H	-2.2988310421	-0.521284959	 2.083448596	 0.125895
H	-4.2121007195	-1.6047901926	 0.7997846018	 0.269729
H	-1.2194556166	-0.3646144983	-3.0259435514	 0.125285
H	-0.1800826321	-1.6301082048	-2.3654291322	 0.130467
H	-1.7703475789	-2.0430414061	-3.0511624169	 0.135391
