18
gdb 74727	2.39104	1.73287	1.21037	3.2479	77.95	-0.2333	-0.0331	0.2002	1059.4633	0.147348	-401.905035	-401.896959	-401.896015	-401.937695	30.903	
C	-0.088183372	 1.4843835061	-0.0818674172	-0.522276
C	-0.0467756622	-0.0034956622	-0.0655531133	 0.342985
C	-0.1143285461	-0.9200102011	-1.0347041244	-0.181135
C	 0.0366166696	-2.2390554464	-0.2699762266	-0.057343
C	-0.9459746369	-2.005122749	 0.918227957	-0.258192
C	 0.1564688201	-0.9034712489	 1.1820468428	 0.136279
N	 1.1999903088	-1.8624193607	 0.6446669657	-0.336264
C	 0.3287692386	-0.32645573	 2.5459994104	 0.04034
O	 1.154677479	-0.7080348742	 3.3376233448	-0.251809
H	 0.8374898074	 1.913739269	 0.3217152689	 0.141613
H	-0.217867177	 1.8587226434	-1.1009620996	 0.133151
H	-0.9108149457	 1.8789085824	 0.5281831526	 0.129003
H	-0.2200230724	-0.7947008215	-2.1025438417	 0.108117
H	 0.0959249831	-3.1772649089	-0.8197543918	 0.075492
H	-1.9686764545	-1.6812946433	 0.7061134143	 0.101724
H	-0.9259214801	-2.8020454179	 1.6691343597	 0.106151
H	 1.3103804734	-2.5998195324	 1.3474059915	 0.216321
H	-0.3999319032	 0.4735244958	 2.8117844666	 0.075844
