13
gdb 5053	3.92	2.03315	1.33878	2.6457	71.39	-0.251	-0.0985	0.1525	842.6713	0.097803	-361.492843	-361.486517	-361.485572	-361.523889	23.296	
O	-0.0005221068	-0.0959848774	 0.002496728	-0.359304
C	-0.0145837726	 1.1287539928	 0.0092478878	 0.330774
C	-1.3064536196	 1.8378453652	 0.0304969951	-0.150921
C	-1.5600279863	 3.1654650065	 0.0404772386	-0.073867
C	-0.6401454615	 4.2763284009	 0.0334015342	 0.027491
N	 0.6522880522	 4.3206817867	 0.01664619	-0.253813
C	 1.478992219	 3.2246630884	 0.0008032633	 0.003584
C	 1.2395294737	 1.8879860116	-0.0028208445	-0.139805
H	-2.1498310781	 1.1515451409	 0.0385114061	 0.131859
H	-2.6058853595	 3.4647813275	 0.0560659514	 0.117135
H	-1.12458434	 5.2553286387	 0.0442618661	 0.12202
H	 2.5282575961	 3.5159318217	-0.0111118436	 0.12201
H	 2.1114667535	 1.2386806565	-0.0172252324	 0.122838
