18
gdb 106202	3.76693	1.45939	1.34273	2.9168	73.79	-0.2307	0.0721	0.3028	994.6019	0.149731	-401.887094	-401.880175	-401.879231	-401.918351	28.327	
O	 0.0116050049	 1.3855893952	-0.1292470257	-0.41782
C	 0.0419348805	-0.0154565454	 0.0308623745	-0.188863
C	-1.3427374494	-0.593870561	-0.0242490984	 0.328741
C	-1.7916737949	-2.0815266335	 0.067492667	-0.158641
C	-3.161775491	-1.9922018982	 0.7015480438	-0.090106
C	-3.2825869269	-0.6534352697	 1.4025768508	-0.176643
N	-2.4490568972	 0.2043341857	 0.548331312	-0.184791
C	-2.5334147747	-0.2688408422	-0.8532357587	-0.118989
C	-3.0042789647	-1.7471081448	-0.7819221432	-0.083714
H	-0.7773497651	 1.6796476806	 0.3478283806	 0.290088
H	 0.6621757789	-0.4288367074	-0.7735067098	 0.109519
H	 0.5139597376	-0.3072634706	 0.9867502681	 0.085684
H	-1.1589007261	-2.9572373429	 0.0595608912	 0.094192
H	-3.6569483947	-2.8886481078	 1.0541331907	 0.094918
H	-4.3076630442	-0.2699913082	 1.4273521213	 0.110271
H	-2.881056851	-0.6633001926	 2.4209797504	 0.109788
H	-2.6904770811	 0.4444296996	-1.651733309	 0.101912
H	-3.478271861	-2.3206032068	-1.5647798457	 0.094454
