15
gdb 96752	4.00014	0.80293	0.67428	2.72	71.27	-0.2637	-0.0908	0.1729	1557.5373	0.109399	-453.949573	-453.939869	-453.938924	-453.985609	32.164	
C	 0.1525624884	 1.4783118856	 0.0085894833	-0.316429
N	 0.074521046	 0.0254087395	 0.0013926955	-0.30538
C	-1.0252098776	-0.5925364109	 0.0085991543	 0.341506
O	-1.0790555497	-1.9524707207	 0.0017195907	-0.247718
C	 0.1864882096	-2.6053959351	-0.0139549384	-0.200101
C	-0.0488930647	-4.0483820571	-0.0193045275	 0.271812
N	-0.1942810834	-5.1934746914	-0.0239510373	-0.287626
C	-2.4371022699	-0.0580489081	 0.0251046865	 0.101348
O	-2.6971298722	 1.1168852191	 0.0342320751	-0.232503
H	 1.2065036043	 1.764853896	-0.0002114065	 0.126824
H	-0.3420265432	 1.9184715197	-0.8635762148	 0.144176
H	-0.3246864801	 1.9087938995	 0.8951309835	 0.144179
H	 0.760837107	-2.3085419575	-0.8985625567	 0.170104
H	 0.7778525714	-2.3178352681	 0.8624713572	 0.170111
H	-3.2162994359	-0.8461000304	 0.0283308351	 0.119698
