17
gdb 64677	3.41929	1.01775	0.93225	2.8289	74.34	-0.2435	-0.024	0.2195	1272.1735	0.132229	-421.800088	-421.791031	-421.790087	-421.834189	34.263	
O	 0.0570692293	 1.5525768877	-0.3054126561	-0.478876
C	-0.016932226	 0.1834437282	 0.0030196589	 0.402915
C	 0.8779091776	-0.6485975445	-0.9394038549	-0.399344
C	 2.2700898848	-0.222775037	-0.8562159832	 0.262338
C	 3.3941595406	 0.1929992345	-0.7525847198	-0.421792
C	 0.1512440874	-0.1927777333	 1.5182058045	-0.403995
C	-1.2071147799	-0.9020270815	 1.4310120636	 0.410783
O	-1.7884842403	-1.6745314237	 2.1356398441	-0.289459
C	-1.4911967924	-0.3089485925	 0.0432052537	-0.397165
H	 0.9919358264	 1.7952155591	-0.3311386804	 0.28516
H	 0.7917589695	-1.7141582254	-0.6941533885	 0.136647
H	 0.5114053456	-0.5239189263	-1.9654916037	 0.143054
H	 4.399610002	 0.5275385092	-0.6779876613	 0.205676
H	 1.0115441499	-0.7967903987	 1.8169491056	 0.131321
H	 0.0969838578	 0.6981785333	 2.1518215815	 0.138351
H	-2.18234444	 0.5379944469	 0.0977465237	 0.147248
H	-1.8301734324	-0.998963806	-0.7338084276	 0.127136
