21
gdb 10611	2.12464	1.86088	1.31997	1.9857	75.04	-0.2292	0.0824	0.3116	1070.9826	0.187387	-366.231104	-366.221568	-366.220624	-366.265274	34.928	
C	 1.7479875278	-1.3066766485	 0.9887433171	-0.381201
C	 0.6556620779	-0.464964757	 0.315091155	-0.25705
C	 0.8276097369	-0.3504980469	-1.1918337969	 0.314739
C	 1.9361141589	 0.5902801526	-1.6416501768	-0.108316
O	 1.5672710499	 1.9417408306	-1.4225592612	-0.423614
C	 0.4389733469	-1.4764975682	-2.0907676362	-0.301425
N	-0.3255185514	-0.2308752877	-2.1049848234	-0.130925
C	-1.6915511074	-0.2766149554	-1.6033282265	-0.317574
H	 1.7501388029	-2.3320203813	 0.6042108649	 0.115705
H	 2.7456031476	-0.8883333127	 0.8233670691	 0.122543
H	 1.5882446664	-1.3532547337	 2.0703778788	 0.114179
H	-0.3193362751	-0.8991194456	 0.5540399751	 0.094785
H	 0.6597138683	 0.5497160439	 0.7310152708	 0.116024
H	 2.855091937	 0.4253912397	-1.069990854	 0.104536
H	 2.161523609	 0.4066642294	-2.7021903745	 0.085743
H	 0.7484897049	 2.063796959	-1.9188534531	 0.286178
H	 1.011297867	-1.7053120836	-2.9870317648	 0.110274
H	-0.029144767	-2.3432908805	-1.6235757307	 0.103569
H	-1.8810575233	-1.0590470004	-0.8531309019	 0.104903
H	-1.9561526087	 0.6907712134	-1.1640297776	 0.12212
H	-2.3635676585	-0.459064457	-2.4483596733	 0.124807
