16
gdb 47708	2.25453	1.70241	1.06236	3.1099	66.75	-0.2535	-0.0345	0.2189	1088.4726	0.125943	-475.08189	-475.074117	-475.073173	-475.114626	28.909	
O	 0.1868928784	 0.0500173115	-0.775586589	-0.328631
C	 0.0597801342	 1.1506956719	-0.2915745928	 0.412694
C	-1.2880045439	 1.7857718445	 0.0037734461	-0.352609
C	-1.5706910096	 3.07031894	-0.7906597553	-0.073944
O	-0.4624370522	 3.9465959563	-0.8688918092	-0.232873
C	 0.2192803191	 4.1685858454	 0.3414280691	-0.207291
C	 1.347222025	 3.1625360031	 0.5976190925	 0.396809
O	 2.3753235587	 3.4941904474	 1.1415534626	-0.331844
N	 1.1887396957	 1.8657498977	 0.1150396733	-0.343348
H	-2.0503040783	 1.0392334285	-0.225810764	 0.144528
H	-1.3383079229	 1.98957349	 1.0793778213	 0.131026
H	-1.8177206188	 2.8260221947	-1.8272289278	 0.134363
H	-2.4383943104	 3.5810341823	-0.3449392542	 0.105822
H	 0.7114699483	 5.1412191895	 0.274203936	 0.154194
H	-0.4566938217	 4.2028171982	 1.2096508159	 0.123144
H	 2.0445980682	 1.3225653789	 0.1058752254	 0.26796
