22
gdb 15620	2.69747	1.68399	1.14913	0.1469	85.8	-0.2147	0.0376	0.2523	1141.4538	0.200505	-313.104092	-313.094974	-313.09403	-313.137947	33.627	
C	-0.2660168089	 1.634332499	-0.2043340207	-0.368685
C	 0.0676071704	 0.1478152397	 0.0213666863	-0.294046
C	 0.7622016265	-0.4937957643	-1.146163554	 0.244214
C	 2.0318298075	-0.9185122124	-1.2244398055	 0.221826
C	 3.0971193297	-0.8754267591	-0.1727940084	-0.498527
C	 2.3238976448	-1.5593514388	-2.5673263097	-0.284174
C	 1.1126130721	-1.1554658716	-3.4382593192	-0.206736
C	 0.0025980118	-0.7903541567	-2.4268233272	-0.293469
H	 0.6459533314	 2.2176512718	-0.3657154316	 0.117348
H	-0.9084392271	 1.7733756057	-1.0794614653	 0.117996
H	-0.7888987301	 2.052784533	 0.6615775364	 0.109617
H	 0.675247053	 0.0525470846	 0.9272720997	 0.097791
H	-0.8672944324	-0.3945660712	 0.2227305891	 0.097992
H	 3.4614170344	-1.8853512207	 0.0586783236	 0.121103
H	 3.9699254623	-0.3069857829	-0.5200558008	 0.121332
H	 2.7541891537	-0.4217585121	 0.7602601714	 0.120236
H	 3.2790446458	-1.2280491117	-2.993855486	 0.093196
H	 2.4064347603	-2.6515420793	-2.4571895448	 0.096834
H	 1.3698228107	-0.2710559274	-4.0301378007	 0.100847
H	 0.8107426766	-1.9363856092	-4.1411991534	 0.09195
H	-0.695656681	-1.6259739232	-2.2650162232	 0.096934
H	-0.6116378215	 0.0511216768	-2.7682849458	 0.096418
