20
gdb 63825	3.16178	1.48019	1.32427	2.2525	77.75	-0.2125	0.0667	0.2792	1043.3631	0.170719	-403.069912	-403.061861	-403.060917	-403.101791	32.822	
C	-0.3443929873	 1.6051428349	-0.1140548403	-0.464467
C	-0.0228984045	 0.1194708454	-0.0720163143	 0.378507
O	-1.2241583357	-0.6423575704	-0.1112714114	-0.474894
C	 1.0738289282	-0.4653862013	-1.0292714403	-0.24365
N	 1.7332523596	-1.1750662218	 0.117718836	-0.123946
C	 2.9085676522	-0.5364384167	 0.7544925873	-0.005958
C	 2.9001680538	 0.9616217029	 0.7678048624	-0.300571
C	 2.0205308692	 0.2235306558	 1.7482581644	-0.100559
C	 0.826235845	-0.4783639931	 1.0883724126	 0.00784
H	-0.8056286881	 1.8680347576	-1.0747968928	 0.106657
H	-1.0576594693	 1.8485207826	 0.6793053428	 0.128585
H	 0.5382648723	 2.2338616966	 0.0142686403	 0.125622
H	-1.6856276028	-0.4255154014	-0.9290369616	 0.274632
H	 0.675968773	-1.1662233699	-1.7690874633	 0.098773
H	 1.7045543979	 0.2719606685	-1.5370129112	 0.097031
H	 3.812668607	-1.1136759084	 0.9140663408	 0.094368
H	 3.7822891925	 1.3990099433	 1.2264447677	 0.115102
H	 2.509110079	 1.5504870147	-0.0537540786	 0.109014
H	 2.1390903805	 0.3488464766	 2.8173326985	 0.090837
H	 0.2560534875	-1.123587796	 1.7619453609	 0.087077
