17
gdb 29722	2.36999	1.6414	0.9817	1.8859	71.9	-0.1746	0.058	0.2326	1162.9122	0.135503	-455.195263	-455.185786	-455.184842	-455.229484	33.924	
C	-0.0260226181	 1.4658519208	 0.0124011167	-0.34713
N	 0.0315576191	 0.0206768762	 0.0357459947	-0.109601
C	 0.0790863973	-0.8054556975	-1.0304932339	 0.431176
O	 0.0757382138	-0.3008970062	-2.2796418453	-0.431013
N	 0.1256799727	-2.0770400861	-0.7125719118	-0.464785
C	 0.1067892987	-2.0717888138	 0.6635544775	 0.268521
O	 0.1440573285	-3.2317004724	 1.3644182279	-0.444392
C	 0.0491563277	-0.8097674176	 1.1801820789	 0.170027
C	 0.0099751786	-0.2991391106	 2.5761974206	-0.512005
H	 0.8398470681	 1.9014443805	 0.5219736034	 0.138586
H	-0.0262754864	 1.797439053	-1.0259374931	 0.162096
H	-0.9364789777	 1.8302064187	 0.4996622975	 0.138596
H	 0.1142705923	-1.0592950279	-2.8747656017	 0.313127
H	 0.1781217737	-3.9397348826	 0.7112509595	 0.297022
H	 0.866024281	 0.3439558452	 2.8212679346	 0.119898
H	-0.9005061791	 0.2741179143	 2.7972053337	 0.119878
H	 0.0343487898	-1.1511572441	 3.2597282408	 0.15
