25
gdb 122130	3.07342	0.66166	0.56949	1.28	86.54	-0.2432	0.0807	0.3238	2019.633	0.225724	-426.617918	-426.605738	-426.604793	-426.656931	41.963	
C	-0.547466034	 1.1537131971	 0.3568711336	-0.391231
C	-0.2060053875	-0.3001903931	 0.025284134	-0.168477
C	 0.6083659825	-0.4617044158	-1.2636296643	 0.120178
C	 0.9742100103	-1.9278807655	-1.5251369395	-0.187708
C	 1.8350974884	-2.1385700543	-2.7726305375	-0.174848
C	 2.1758435488	-3.6030211797	-3.0137016624	-0.076175
O	 2.9758066231	-3.6807034648	-4.1847065916	-0.422266
O	-0.1602670626	 0.0370358526	-2.361647338	-0.252772
C	 0.4332657135	 1.0893981988	-3.0883676172	-0.236537
H	 0.3581051999	 1.7519831864	 0.5103036534	 0.107512
H	-1.1207587953	 1.6087920197	-0.4555042791	 0.129097
H	-1.1463219603	 1.2201452582	 1.2703320968	 0.109857
H	 0.3559028925	-0.75286003	 0.8517752483	 0.089689
H	-1.1303650853	-0.8815034254	-0.0822010751	 0.10188
H	 1.5356466375	 0.1266756683	-1.1747597806	 0.062718
H	 1.4947529814	-2.3186553673	-0.6406673317	 0.0888
H	 0.0407737656	-2.4985939457	-1.618516934	 0.100661
H	 1.3101307506	-1.7546495311	-3.653216742	 0.118828
H	 2.7739914388	-1.576615686	-2.6880012529	 0.097437
H	 2.7103630888	-4.0112034816	-2.1394678439	 0.080106
H	 1.2468235336	-4.1861477895	-3.1260264231	 0.084126
H	 3.1823323114	-4.6056614767	-4.3465577064	 0.284063
H	 0.6157004971	 1.9753867717	-2.4619597274	 0.103752
H	 1.3858288402	 0.7915655533	-3.5505230735	 0.108043
H	-0.2662721491	 1.3646184303	-3.8828558861	 0.123265
