18
gdb 108359	2.64343	1.67384	1.31237	2.4504	70.87	-0.2249	0.0546	0.2795	1010.4801	0.147768	-438.991965	-438.984117	-438.983172	-439.024311	30.548	
O	 0.0333395185	 1.3878957599	-0.1129330006	-0.422948
C	-0.0020033128	-0.0268367754	 0.0024374697	-0.185038
C	-1.4412887053	-0.4713337407	-0.056045412	 0.479372
O	-1.5684969934	-1.9027241614	 0.0155883697	-0.337691
C	-2.4393682025	-1.9278436841	-1.1500871794	-0.09501
C	-2.3673276542	-0.3913542379	-1.293342208	-0.149779
C	-3.3581859093	 0.4493547806	-0.45374722	-0.051933
N	-3.7644982578	-0.3711882475	 0.7079354057	-0.334889
C	-2.4795190351	 0.3641001088	 0.7494483676	-0.105303
H	 0.9495618039	 1.6710946773	-0.0475663684	 0.293138
H	 0.5584757521	-0.519613525	-0.8059637935	 0.096381
H	 0.4239684644	-0.3724051793	 0.9592179334	 0.099309
H	-1.9734069753	-2.4836699659	-1.9721247616	 0.093283
H	-3.4204392483	-2.3457883336	-0.9122682779	 0.119505
H	-2.037354535	 0.0451083126	-2.234074099	 0.086268
H	-3.9760619453	 1.2647904143	-0.8078685967	 0.092574
H	-4.4333425005	 0.1789169928	 1.2457301616	 0.230881
H	-2.2734184042	 1.0923441045	 1.5236877694	 0.091881
