20
gdb 79625	2.56016	1.59213	1.22874	1.1354	77.82	-0.2235	0.0589	0.2824	1092.8059	0.171786	-403.102297	-403.094131	-403.093187	-403.134567	32.475	
C	-0.0276072925	 1.5075087837	 0.0186584761	-0.429359
C	 0.0088072601	-0.005420555	 0.0241341201	-0.009199
C	 1.3111059808	-0.7092759156	-0.2787573132	-0.052375
C	 0.7623518171	-0.7079176397	 1.128405936	-0.026403
N	 0.4703205929	-2.0774508759	 1.5662610198	-0.104618
C	-0.6402675233	-2.7822705487	 0.9141777472	-0.254144
C	 0.7511225798	-2.9678969002	 0.4256073164	-0.057504
C	 1.2263987986	-2.1486996711	-0.7882039867	 0.056264
O	 0.3586061262	-2.2116896589	-1.917170883	-0.426892
H	 0.898021954	 1.927622331	 0.4266315139	 0.114793
H	-0.1474655027	 1.8953578667	-0.9986947153	 0.122492
H	-0.8584493976	 1.8858458489	 0.6240851857	 0.119454
H	-0.8859622472	-0.4722714314	-0.3707239891	 0.098875
H	 2.1728315315	-0.1153027777	-0.5632499565	 0.082989
H	 1.2009094313	-0.0979986245	 1.911317717	 0.090487
H	-1.1011642604	-3.5530540975	 1.5266123772	 0.112269
H	-1.3365211691	-2.2348832411	 0.2889015706	 0.12817
H	 1.2880460288	-3.8864776583	 0.6533683416	 0.083771
H	 2.2316205557	-2.4916492467	-1.0729929359	 0.068407
H	 0.2641918361	-3.1373164379	-2.1643565018	 0.282521
