23
gdb 103993	2.43992	1.31315	1.20714	1.7521	85.02	-0.2418	0.081	0.3228	1221.672	0.203559	-388.271427	-388.261582	-388.260638	-388.305356	37.964	
C	 0.0136289913	 1.501576852	 0.2141485176	-0.392778
C	-0.1152231327	 0.0104894338	-0.1175600764	-0.232375
C	 0.6998592808	-0.4529678544	-1.3298589053	 0.280277
C	 0.2560683103	 0.2038635165	-2.6374037646	-0.462358
C	 2.2741253961	-0.4287946366	-1.1691883356	-0.306667
C	 2.2735428174	-1.9485038534	-1.3412258938	-0.044009
O	 1.4572824131	-2.4861898858	-0.2880534077	-0.298578
C	 0.8079505455	-2.0032443869	-1.4749959559	 0.394144
C	-0.1121172573	-2.9395124585	-2.1907328433	-0.513789
H	 1.058922938	 1.7845752407	 0.3800021211	 0.116334
H	-0.3787139146	 2.1372787229	-0.5859894147	 0.11367
H	-0.5413896247	 1.7433969975	 1.1259252832	 0.113031
H	 0.2032875506	-0.5840177092	 0.7446818636	 0.113822
H	-1.1736482246	-0.2305705731	-0.2897508389	 0.0859
H	 0.4356136762	 1.2832190498	-2.6202948203	 0.120388
H	 0.8037887694	-0.205353384	-3.4938094104	 0.110796
H	-0.8136762488	 0.0465825546	-2.8184098301	 0.112926
H	 2.7716481514	 0.1087721279	-1.9805740116	 0.099573
H	 2.6643869738	-0.0817347482	-0.2089524737	 0.10532
H	 3.0463806667	-2.5967178268	-1.7406626468	 0.096458
H	-1.0633527551	-3.0380748642	-1.6550983604	 0.129706
H	-0.3316571697	-2.5829137432	-3.201627742	 0.125168
H	 0.3394241666	-3.9328365212	-2.2604136239	 0.133041
