13
gdb 53721	3.50864	0.69235	0.64884	3.4922	80.4	-0.2779	-0.0971	0.1808	1694.6241	0.084635	-419.382896	-419.373215	-419.372271	-419.419455	32.103	
C	 0.7425365511	 1.1027410133	 0.348152981	-0.483903
C	-0.2992119357	 0.0727717377	-0.023312852	 0.254851
O	-1.274811205	-0.1768721157	 0.6480894182	-0.26044
C	-0.0628483222	-0.6327013964	-1.2761415502	-0.012247
C	 0.1253633292	-1.2261982946	-2.3134552514	 0.080582
C	 0.3635832809	-1.9567164977	-3.5405877917	 0.162252
O	 1.078080988	-2.9371237456	-3.5836417852	-0.255845
C	-0.3159779669	-1.4185547857	-4.6990820818	 0.286536
C	-0.88080525	-0.9722153062	-5.6633958392	-0.46486
H	 1.7253113721	 0.6271061522	 0.4368043888	 0.157989
H	 0.8220927152	 1.8594543677	-0.4398716774	 0.154184
H	 0.4664280661	 1.5724555605	 1.2931203576	 0.152672
H	-1.3777726428	-0.5850033495	-6.5201094466	 0.228228
