20
gdb 69047	2.93704	1.18154	1.05058	3.6542	81.59	-0.2334	0.0282	0.2615	1236.5989	0.170563	-403.152889	-403.143808	-403.142864	-403.187126	33.983	
C	-0.0294344322	 1.4857905812	 0.200047457	-0.496602
C	 0.0876341601	 0.000562801	 0.0191099628	 0.281383
C	-0.7020923116	-0.9911315225	 0.8315867437	-0.330065
C	 0.7940321471	-1.0612993955	 0.8902733257	 0.362696
C	 1.345230351	-1.7602731212	-0.3577977652	-0.276691
C	 0.6073783104	-0.7032752674	-1.244974881	-0.276853
N	 1.4938428833	-0.9041183103	 2.1152257343	-0.39183
C	 1.1855364884	-1.5308484375	 3.2923698392	 0.133941
O	 0.2448549914	-2.2663035286	 3.4837384615	-0.310114
H	 0.8667921377	 2.0072061727	-0.1569339541	 0.110979
H	-0.8860686967	 1.8882658547	-0.3538945014	 0.125504
H	-0.171156606	 1.7423254473	 1.2552028246	 0.121425
H	-1.1682874719	-0.5945499214	 1.7262663949	 0.128292
H	-1.262715141	-1.7942623471	 0.3581317058	 0.107814
H	 2.4323489118	-1.6779522185	-0.4427582862	 0.096385
H	 1.0640767545	-2.8109292798	-0.4842942168	 0.10469
H	-0.1613416848	-1.0893921151	-1.921830319	 0.09936
H	 1.3016657905	-0.0873635589	-1.8226847861	 0.098887
H	 2.3514953876	-0.3715166277	 2.1025672284	 0.242042
H	 1.9165353805	-1.2646563454	 4.0841321918	 0.068757
