18
gdb 8175	2.9371	2.39714	1.67755	1.3114	72.77	-0.2167	0.0211	0.2378	838.0583	0.153844	-347.778183	-347.770741	-347.769797	-347.809322	29.53	
C	 0.0103379988	 1.4635732327	 0.044699791	-0.523883
C	-0.0062826441	-0.0223822335	-0.0244478506	 0.27699
C	-0.0151275123	-0.8910011029	-1.0395335683	-0.198905
C	-0.0099608891	-2.258810032	-0.3408087841	-0.073178
C	 1.0635111026	-2.0071264164	 0.7763669426	-0.235918
C	 0.0011747733	-0.9577638642	 1.2131049916	 0.323808
O	 0.0861070774	-0.4027583522	 2.487851319	-0.482551
C	-1.0777654566	-2.0164976617	 0.780560586	-0.271535
H	 0.8751730846	 1.8240074423	 0.6152198478	 0.13696
H	 0.0456100472	 1.9091715225	-0.9532536719	 0.127895
H	-0.8804842518	 1.8589118558	 0.5527517635	 0.114684
H	-0.0184835061	-0.7101816482	-2.1058664895	 0.094191
H	-0.0082315872	-3.1616909259	-0.9473378958	 0.064941
H	 1.1607174142	-2.8342543964	 1.4863605459	 0.095771
H	 2.0409388958	-1.6336345125	 0.4637928319	 0.093014
H	-0.6731466457	 0.1744483129	 2.6223529386	 0.278752
H	-2.0587878299	-1.648671739	 0.4689996741	 0.084803
H	-1.1676593112	-2.8450699311	 1.4900586482	 0.094161
