21
gdb 57051	2.21229	1.3397	1.0685	4.4056	83.27	-0.2246	0.0417	0.2663	1250.4884	0.182118	-383.267203	-383.257492	-383.256548	-383.301984	35.417	
C	 0.0752298124	 1.5902253562	-0.0703344488	-0.401973
C	 0.0105787834	 0.0513204457	-0.0253009715	-0.148574
C	 0.5420376907	-0.519286261	-1.2686270021	 0.283654
N	 0.9393962677	-0.9697909154	-2.2560308827	-0.338815
C	 0.7148979749	-0.546055041	 1.2094031088	 0.058718
C	 0.8928574828	-2.0830150115	 1.3009387128	-0.279901
C	 2.3397194385	-1.7798040409	 1.7540926551	-0.154872
N	 2.1799599211	-0.3922199828	 1.2719684418	-0.061883
C	 2.7568668352	 0.664021596	 2.0764343334	-0.328658
H	 1.1067113754	 1.9286237371	-0.1897957147	 0.150171
H	-0.5085619479	 1.9803586539	-0.9075561583	 0.136924
H	-0.3279774861	 2.0075192699	 0.8571146928	 0.121456
H	-1.0439374432	-0.2518843951	 0.0351791537	 0.123922
H	 0.2060444889	-0.141781791	 2.1020103732	 0.060146
H	 0.2507695226	-2.6077929851	 2.0082295581	 0.107186
H	 0.8440662736	-2.572730719	 0.326982853	 0.135237
H	 2.4575021109	-1.8425088337	 2.8477320867	 0.086161
H	 3.1534613948	-2.3359618506	 1.2785244485	 0.112252
H	 3.8462992958	 0.5551964817	 2.0910723804	 0.127714
H	 2.5278869223	 1.6445600742	 1.6495993777	 0.120979
H	 2.3995825361	 0.6531103323	 3.1242168323	 0.090156
