18
gdb 18404	3.28784	2.21061	1.49394	0.4307	67.69	-0.2352	0.0865	0.3217	861.8279	0.156023	-384.915195	-384.908453	-384.907509	-384.94581	27.005	
C	-0.0419823029	 1.4948273169	 0.068752005	-0.330766
C	 1.3153181885	 0.8115800213	 0.0348614547	-0.052395
C	 2.166426346	 0.7605672722	 1.2894105075	-0.101872
O	 2.6831549682	-0.5373954197	 1.5543935507	-0.243247
C	 1.7778604662	-1.3841978083	 2.2345535783	-0.071667
C	 0.5489472218	-1.801600096	 1.4263886128	-0.080976
O	-0.3222685187	-0.7078916342	 1.1528211866	-0.253828
C	 0.0440813414	 0.0033290371	 0.0081337187	 0.120347
H	-0.3540865328	 1.9215545413	 1.0159950712	 0.124671
H	-0.3838873959	 2.0337250407	-0.8074949711	 0.115236
H	 1.872162741	 0.8596474292	-0.8963058657	 0.090026
H	 3.0369220622	 1.4150521934	 1.1777491489	 0.106805
H	 1.5901713703	 1.1156754085	 2.1559847759	 0.094284
H	 2.3450037764	-2.2826268828	 2.5056161206	 0.103232
H	 1.4344075841	-0.9033793211	 3.165707738	 0.093004
H	 0.8580612889	-2.2920531204	 0.4925930458	 0.098406
H	-0.030333324	-2.5214867907	 2.0169707252	 0.10408
H	-0.2214159107	-0.4935578877	-0.9257377929	 0.084661
