21
gdb 72896	2.75551	1.7491	1.40881	1.6759	80.33	-0.2421	0.0794	0.3214	1014.589	0.184373	-387.079753	-387.072126	-387.071181	-387.111292	31.556	
C	-0.1006435454	 1.5000237783	 0.1070740517	-0.450045
C	 0.0206947897	-0.0124149616	 0.0291467141	 0.424725
C	-1.3118062253	-0.7453602937	-0.2174455031	-0.280718
C	-1.2437872081	-2.0490336819	 0.5682955269	-0.035464
C	-0.133932512	-3.0059629516	 0.2292776153	-0.293948
C	 0.0323074684	-2.0560356791	 1.3959270414	-0.050664
C	 0.7867134087	-0.754075774	 1.1667454864	-0.100648
C	 1.9470958171	-0.79063091	 0.1554409541	-0.105072
O	 1.0691320638	-0.3912199281	-0.9204171361	-0.3287
H	 0.8731749531	 1.9612952028	 0.2967642312	 0.117316
H	-0.4842591531	 1.8993671279	-0.8378155096	 0.125166
H	-0.7866148502	 1.796371251	 0.9077738209	 0.113365
H	-2.14450215	-0.1328035887	 0.146111409	 0.094589
H	-1.4603664698	-0.8941364221	-1.2926637397	 0.112722
H	-2.1671513073	-2.4510512744	 0.9708926558	 0.078915
H	-0.2824768232	-4.0539357876	 0.4672454871	 0.104683
H	 0.4308535452	-2.8258090501	-0.6788953625	 0.131889
H	 0.0433657317	-2.4822709567	 2.3927471306	 0.079585
H	 0.9620128369	-0.208870866	 2.0964147307	 0.066131
H	 2.7302672541	-0.041941952	 0.3349688929	 0.093749
H	 2.4140054256	-1.7635976523	-0.029564927	 0.102421
