14
gdb 72062	2.53791	1.66567	1.29508	4.5524	67.49	-0.252	0.0037	0.2557	971.2615	0.100628	-436.620079	-436.612769	-436.611825	-436.651872	27.885	
O	-0.1504777932	 1.3140769354	-0.1537744378	-0.439093
C	 0.0510082603	-0.0357212193	-0.0856825717	 0.284437
C	 0.985813432	-0.9109904694	-0.9284754159	-0.296846
C	 0.1464970329	-2.0908599221	-0.3808387172	 0.008159
O	 0.4500921421	-2.1078208948	 1.0455270739	-0.278713
C	-0.2788326374	-0.8950693328	 1.140753955	-0.035975
C	-1.0630266923	-1.1012802937	-0.1372438959	 0.191069
C	-2.4306861857	-1.0701803363	-0.4783349154	 0.127233
N	-3.5522738367	-1.0507396505	-0.7677887749	-0.363159
H	 0.3990650603	 1.7517769194	 0.5065337037	 0.302232
H	 0.8161787084	-0.7485004632	-1.9948216063	 0.130502
H	 2.0536045803	-0.9280513894	-0.6924544133	 0.112888
H	 0.1089771731	-3.074104317	-0.8400682963	 0.118981
H	-0.5952945742	-0.5198584964	 2.1052544322	 0.138285
