17
gdb 129822	4.54247	0.99952	0.87671	3.5829	76.83	-0.213	0.0192	0.2323	1318.6992	0.137049	-417.995355	-417.987282	-417.986338	-418.028261	30.86	
N	 0.1413016783	 1.3668764648	-0.2498230192	-0.595214
C	-0.0277620452	 0.009466826	-0.1147037163	 0.49274
C	-1.0298607344	-0.849773198	-0.4662838034	-0.464733
C	-0.5078534988	-2.1258251791	-0.1045742735	 0.440031
N	 0.6951265222	-2.0420418002	 0.4185374621	-0.243842
O	 1.0035587682	-0.6593018567	 0.4112085947	-0.218555
C	-1.1327664351	-3.4535894666	-0.2438120311	-0.089607
C	-2.6289300221	-3.6208155186	-0.0691883744	-0.268441
C	-2.0195482024	-3.7638259891	-1.4330410921	-0.267984
H	 0.8293903094	 1.759131373	 0.3774034495	 0.266645
H	-0.714996853	 1.8994537374	-0.2717696535	 0.264046
H	-1.9783940459	-0.6103711737	-0.9161221803	 0.104025
H	-0.5044971678	-4.25798907	 0.120898667	 0.103833
H	-2.976500077	-4.5116309494	 0.441752045	 0.119593
H	-3.2091259761	-2.7297064858	 0.1435181502	 0.117839
H	-2.1818090777	-2.97063395	-2.1544205778	 0.119731
H	-1.9443181326	-4.7539104041	-1.8683106969	 0.119892
