14
gdb 129102	5.04787	1.28956	1.03559	2.9756	69.96	-0.2166	-0.0239	0.1926	1060.64	0.10349	-432.85568	-432.848971	-432.848027	-432.886822	26.088	
N	-0.1024507593	 1.2565342433	-0.0789288761	-0.524973
C	-0.000964663	-0.0024723968	 0.0143019173	 0.372813
C	-1.2337814716	-0.9443705989	 0.0238888667	-0.426454
C	-0.5527675445	-2.2679378215	-0.0422453522	 0.372018
C	 0.7936604977	-2.1449035018	-0.0003132551	 0.197345
N	 1.1653168777	-0.7950888561	 0.1261258856	-0.459321
C	 1.2626657331	-3.4764032647	-0.0114937324	-0.098745
N	 0.2492475244	-4.3243899831	-0.0676067696	-0.142652
O	-0.9196645381	-3.5490665572	-0.0733357424	-0.219348
H	 0.8084156875	 1.7179802299	-0.0669543291	 0.212849
H	-1.813211929	-0.7963615131	 0.9416946686	 0.162685
H	-1.8914924513	-0.7148648246	-0.8188156284	 0.163014
H	 2.0411704772	-0.4372822312	-0.2214514992	 0.254385
H	 2.2668011892	-3.8735664342	 0.0059450862	 0.136384
