19
gdb 95087	2.38088	1.89424	1.30868	1.9024	70.29	-0.2423	0.0514	0.2937	997.2708	0.160158	-460.144894	-460.136988	-460.136043	-460.17676	32.099	
O	-0.1033165293	 1.4118288944	 0.1066853758	-0.446352
C	-0.0141469767	-0.0085799384	-0.0298783453	 0.009305
C	 0.7766742238	-0.6202275378	 1.1519659214	-0.095777
O	 0.3417428968	-1.9232314851	 1.5128068517	-0.273429
C	-1.0536569152	-2.1307729278	 1.3075851988	 0.116282
C	-1.8805251244	-0.8261804944	 1.4617129865	-0.323125
C	-1.4532195753	-0.5509073574	-0.0181777549	 0.426519
O	-2.2807029233	 0.1642333054	-0.8817799086	-0.497325
C	-1.3770243876	-2.0815817041	-0.2090092925	-0.280534
H	 0.6941352222	 1.8097286343	-0.2529611289	 0.294806
H	 0.4400302609	-0.2607096294	-0.9980679203	 0.079587
H	 1.8451461466	-0.6987128584	 0.9270484276	 0.101424
H	 0.6629393832	 0.0762046184	 1.9949080591	 0.105616
H	-1.3254513877	-3.0151268221	 1.883541704	 0.081843
H	-2.9491186471	-1.0455601646	 1.5098046045	 0.108358
H	-1.6119827329	-0.1151383838	 2.2453220901	 0.105517
H	-1.9912173506	 1.0853834746	-0.8255952138	 0.28288
H	-0.6298574348	-2.4896338162	-0.8949149324	 0.094921
H	-2.3650837786	-2.4905334877	-0.4342310128	 0.109484
