17
gdb 87942	4.11035	1.08285	0.97677	4.5835	69.51	-0.2307	0.0622	0.2929	1201.4113	0.137056	-455.168522	-455.160301	-455.159356	-455.201263	31.565	
O	-0.0125209808	 1.4254002055	 0.0730446639	-0.417814
C	 0.029216852	 0.0294817892	 0.0383533855	 0.032637
C	-0.5132759294	-0.7734149509	 1.2110493137	-0.387097
C	-1.2856553942	-0.6590314993	-0.0874134522	 0.364195
C	-2.589823656	 0.1373644227	-0.1887013336	-0.215672
N	-3.5195384603	-0.8993077806	-0.6128710668	-0.352075
C	-2.8660025501	-1.9827171947	-1.1800775236	 0.426771
O	-3.3702217347	-2.9235304303	-1.7489978974	-0.407903
N	-1.5027946689	-1.7746411435	-0.968193463	-0.411329
H	 0.6534366125	 1.7321794229	 0.697695174	 0.292259
H	 0.8704712056	-0.3983772233	-0.5089409039	 0.092764
H	-0.0285877088	-1.7154898119	 1.4490576739	 0.114652
H	-0.8894419225	-0.2199398011	 2.0659085303	 0.121334
H	-2.8781208165	 0.5813150123	 0.7674666466	 0.118404
H	-2.4888818122	 0.9456128136	-0.9255730805	 0.1249
H	-4.430009064	-0.6699523113	-0.9767007834	 0.254107
H	-0.9214521215	-2.5966385292	-0.9240789036	 0.249866
