15
gdb 45718	2.61792	1.4606	1.15692	3.6588	72.39	-0.2756	-0.0291	0.2464	1067.4013	0.113464	-416.828171	-416.820299	-416.819355	-416.861779	28.69	
N	-0.1569610975	 1.0701919545	-0.8815424437	-0.501196
C	-0.0302878845	 0.0926733235	-0.0937891967	 0.403039
C	-1.2366746375	-0.5934088579	 0.5061150825	-0.349261
C	-0.9893235546	-2.0403307115	 0.8250902039	-0.064362
C	 0.2293046095	-2.4590407707	 1.1402673697	-0.077021
C	 1.3729757948	-1.4738712545	 1.1486156039	-0.067936
O	 1.2144413535	-0.3935918232	 0.2263478709	-0.251759
C	 1.5929232707	-0.9407371946	 2.5117662136	 0.272218
N	 1.7583990349	-0.5382037728	 3.5820748681	-0.30942
H	 0.7577203765	 1.4168798245	-1.1765886541	 0.228058
H	-1.5145882829	-0.0600883723	 1.4275205469	 0.162426
H	-2.0691831892	-0.4542051077	-0.1853636131	 0.154971
H	-1.8316445051	-2.7242305474	 0.8099856237	 0.121571
H	 0.4589298866	-3.4823038755	 1.412574917	 0.126213
H	 2.3007979946	-1.9676677644	 0.8403907373	 0.152458
