25
gdb 104977	2.3197	1.25384	1.08524	1.4887	88.04	-0.2509	0.0731	0.3239	1302.3306	0.226766	-389.476574	-389.465761	-389.464817	-389.511392	41.978	
C	 0.0715744594	 1.5285530592	 0.1745430177	-0.42333
C	 0.0065643403	-0.0004382345	-0.0119501802	 0.185616
C	 0.6763008669	-0.6582815069	 1.2144769722	-0.399248
C	-1.4866271559	-0.3946073963	-0.0479821006	-0.414621
C	 0.7247576884	-0.4681766311	-1.3054881104	 0.359577
C	 0.4235516979	-1.9117673847	-1.7021614139	-0.160573
O	 1.2570082095	-2.2961110422	-2.7890038227	-0.421496
C	 0.9679421132	 0.479789857	-2.4578295837	-0.319933
C	 2.1227972578	 0.022562527	-1.5978012001	-0.308489
H	 1.0955099305	 1.9123027125	 0.149300483	 0.114516
H	-0.5100632671	 2.0564829317	-0.5865524103	 0.114563
H	-0.3501814952	 1.7944351975	 1.1495014852	 0.108052
H	 0.1680813572	-0.3573063185	 2.1371978633	 0.104123
H	 0.6443892642	-1.7508472038	 1.1660842319	 0.108345
H	 1.7258869205	-0.3589055194	 1.2950253322	 0.113818
H	-1.9744370957	-0.013718494	-0.9517579841	 0.113606
H	-1.631830878	-1.478471106	-0.0153488723	 0.109821
H	-2.0099827879	 0.0271679283	 0.816841094	 0.105794
H	 0.5871491772	-2.58066541	-0.8428717693	 0.08605
H	-0.6345030316	-1.9995404892	-1.9892776306	 0.089024
H	 0.9789594718	-3.168519612	-3.0796359099	 0.288352
H	 0.9057015625	 0.0637154959	-3.4564040656	 0.117517
H	 0.6426997776	 1.5090083012	-2.373929057	 0.101551
H	 2.5689290203	 0.7398051411	-0.9180810223	 0.100084
H	 2.8197371661	-0.6832157629	-2.0313967963	 0.127281
