25
gdb 117722	2.02456	0.93788	0.76879	2.0559	85.87	-0.2458	0.0773	0.3231	1657.7638	0.225078	-426.624916	-426.612907	-426.611962	-426.66295	43.098	
C	 0.1548489503	 1.5601904128	-0.1809600282	-0.378403
C	 0.0282126945	 0.0525303659	-0.0216315857	-0.045155
O	 0.700441895	-0.5500281753	-1.1110621653	-0.288869
C	 0.7333604724	-1.9840173036	-1.1921375584	 0.352939
C	 1.3984251843	-2.6032117583	 0.0501900852	-0.424875
C	-0.6829357812	-2.5542003784	-1.378055191	-0.419748
C	 1.5567598782	-2.2587572434	-2.4654819809	-0.207483
C	 2.9893432108	-1.717332207	-2.4533648672	-0.075371
O	 3.6571446941	-1.9591272477	-3.6855701079	-0.421475
H	 1.2070668263	 1.8589204767	-0.178499715	 0.123919
H	-0.2896004145	 1.8842430078	-1.1263321387	 0.123187
H	-0.3552185295	 2.0753544526	 0.6387448995	 0.111932
H	 0.466390688	-0.2608213378	 0.9374733634	 0.087485
H	-1.0339816492	-0.2340101547	-0.0028220745	 0.086809
H	 0.756280277	-2.5275908528	 0.9324289075	 0.113987
H	 1.5977637022	-3.6660237664	-0.1184170422	 0.117595
H	 2.3464179219	-2.1082646075	 0.2769772788	 0.125233
H	-1.1803327541	-2.0678568351	-2.2225387132	 0.117925
H	-0.6373134474	-3.6291684988	-1.5780515223	 0.115462
H	-1.3001854947	-2.4138570362	-0.4859723063	 0.113061
H	 1.5852734486	-3.3373765603	-2.6554710352	 0.097943
H	 1.0219423934	-1.7987678663	-3.3073031364	 0.086054
H	 2.978478351	-0.6493719416	-2.2001578751	 0.103984
H	 3.5914492138	-2.2298524512	-1.6967073409	 0.10544
H	 3.1968389491	-1.4590459134	-4.3670336801	 0.278426
