19
gdb 49251	3.12602	1.1803	0.89024	3.346	85.95	-0.2465	-0.049	0.1975	1291.7519	0.160418	-385.919307	-385.911013	-385.910069	-385.952727	31.279	
O	-0.0187143074	-0.0465249618	 0.6119578484	-0.280753
C	 0.0285367042	 1.1598281471	 0.5288493691	 0.100963
C	 1.1874228668	 1.9331010267	 0.0273024532	 0.198088
C	 1.0459083694	 3.2672394496	 0.0240873854	-0.104423
C	 1.986484347	 4.3393198255	-0.4322004074	-0.318833
C	 3.4570657569	 4.0766946038	-0.6116578252	-0.038925
C	 4.1855949174	 2.9886900571	-0.3645673334	-0.060267
C	 3.7342755481	 1.6365122236	 0.1244690449	-0.251478
C	 2.3876326301	 1.147917715	-0.4322745298	-0.314171
H	-0.8360807161	 1.7882720779	 0.8415120485	 0.067514
H	 0.0876507015	 3.6532781687	 0.3752880627	 0.09519
H	 1.5814033628	 4.7453461211	-1.3759712861	 0.135707
H	 1.8841902837	 5.1886354179	 0.2621009272	 0.12967
H	 3.9898815296	 4.9563742936	-0.9698634511	 0.087406
H	 5.2567471063	 3.0767093616	-0.5368108516	 0.086956
H	 4.5015425737	 0.900636067	-0.141828718	 0.104478
H	 3.6926391606	 1.6313046265	 1.2226161955	 0.116939
H	 2.2248540238	 0.1060545099	-0.1416791508	 0.130063
H	 2.4334415214	 1.1617978291	-1.5285230215	 0.115874
