17
gdb 78790	2.16171	1.8867	1.64738	1.6575	72.77	-0.2554	0.0165	0.272	941.0784	0.135717	-417.94754	-417.939673	-417.938729	-417.979494	30.81	
C	 0.0604026559	 1.6118552639	-0.0256615743	-0.430332
C	 0.0782141849	 0.0908723203	-0.0030667558	-0.030586
C	 0.778336981	-0.7199004458	-1.10403275	-0.050015
C	 1.2400423561	-1.7605532595	-0.1841002502	-0.142557
N	 2.2642982242	-0.8177061673	-0.8056037101	-0.203682
C	 2.4012989488	-0.2251893947	 0.5129709696	 0.345576
N	 3.3892007231	 0.2104511391	 1.1563915492	-0.577354
C	 1.0360822642	-0.6441519874	 0.9742539403	 0.31053
O	 0.7165292766	-0.7546322495	 2.2976638099	-0.470271
H	 1.0621922741	 2.0235233105	-0.1808180508	 0.131463
H	-0.5871265525	 1.9823369794	-0.8268743485	 0.119596
H	-0.321655002	 2.0038150161	 0.9221680914	 0.133689
H	-0.9301490338	-0.31624374	 0.1288254428	 0.094195
H	 0.5213289472	-0.7977406825	-2.1522549251	 0.110096
H	 1.3552024592	-2.8341659087	-0.2131525158	 0.123773
H	 4.2253076259	 0.2499982565	 0.5693676614	 0.231471
H	 1.5429094569	-0.7266805107	 2.798758476	 0.304408
