17
gdb 9209	7.28328	0.8078	0.76895	3.5366	67.64	-0.2516	-0.0323	0.2193	1461.8554	0.139646	-401.044582	-401.035094	-401.03415	-401.080664	31.752	
C	-0.0031052507	 1.5430680144	 0.0792502789	-0.368359
C	-0.0666697268	 0.0162179428	 0.0371074114	-0.302572
C	-1.4996387206	-0.5036175937	 0.1094930624	 0.426769
O	-2.4593613028	 0.1418971674	-0.2689405348	-0.364604
N	-1.6261293468	-1.77514405	 0.6110434799	-0.332805
C	-2.9087520714	-2.4322909744	 0.7298149803	-0.242534
C	-3.0462378966	-3.613461237	-0.2185806808	 0.152652
O	-3.6359328831	-4.6272045303	 0.0449839886	-0.230457
H	 1.0204322021	 1.891624602	-0.0825084176	 0.111669
H	-0.6491815225	 1.9675691127	-0.6915083163	 0.146773
H	-0.346111022	 1.9250255212	 1.0451491767	 0.125435
H	 0.3597456246	-0.3518289277	-0.9057245604	 0.133366
H	 0.5363237319	-0.4275505048	 0.838322297	 0.103295
H	-0.8041039607	-2.2498698765	 0.9466146092	 0.250581
H	-3.1140582382	-2.7659792932	 1.7520565242	 0.131654
H	-3.6598539647	-1.6826156741	 0.4491757868	 0.175965
H	-2.5469583816	-3.4576413989	-1.2027251056	 0.08317
