18
gdb 54576	3.65976	1.36228	1.1498	3.3074	76.38	-0.2394	0.0288	0.2682	1082.8745	0.148932	-401.936422	-401.928585	-401.927641	-401.968916	30.633	
N	 0.0756817122	 1.1683580141	 0.4895851304	-0.543149
C	-0.0336860692	-0.0514486217	-0.1223048915	 0.280223
O	 0.9090648848	-0.5940934891	-0.6740884117	-0.378147
C	-1.375337388	-0.67818908	-0.0352596222	 0.265658
C	-2.6275172711	-0.2898993067	 0.7524770318	-0.325573
C	-3.1182384573	-1.7374249737	 0.476832331	-0.077162
C	-3.3309800032	-1.7733199151	-1.0643180809	-0.238977
C	-1.8148329047	-1.6396926141	-1.1690853046	-0.083629
C	-1.6144309128	-2.1611474443	 0.2184289524	-0.096961
H	 0.9372742742	 1.6742448737	 0.3629424695	 0.258468
H	-0.7356466353	 1.6762282228	 0.7963834203	 0.25914
H	-2.3965512998	-0.1370679974	 1.8111277862	 0.10371
H	-3.2586814714	 0.5307590954	 0.3881481302	 0.087947
H	-3.8170653134	-2.2249726673	 1.1526574655	 0.075642
H	-3.6605032442	-2.759319641	-1.4026807944	 0.105811
H	-3.9693371605	-0.9985376438	-1.5045874734	 0.089588
H	-1.1604882097	-1.7670483276	-2.0201043572	 0.111154
H	-0.9449713708	-2.8992826042	 0.6339544286	 0.106256
