27
gdb 116188	2.06749	1.31443	1.01745	0.0177	94.84	-0.2879	0.0737	0.3616	1386.3854	0.252358	-353.588593	-353.578059	-353.577114	-353.623591	40.695	
C	-0.1518424038	 1.7152066142	-0.3687335817	-0.385465
C	-0.2246524594	 0.1847019794	-0.3107756278	-0.205042
C	 0.7989776673	-0.5090449262	-1.2161934032	 0.057253
C	 2.27424423	-0.2977659746	-0.7913690811	-0.223346
C	 3.0580865381	-1.529347136	-1.3255698501	-0.223159
C	 2.0055044189	-2.4112751195	-2.0326870714	-0.22153
C	 0.6515529774	-2.053017354	-1.3768032401	 0.278783
C	 0.5127914077	-2.7676761759	-0.0187990912	-0.421121
C	-0.5308240891	-2.4349207822	-2.2749416065	-0.440864
H	 0.8238478229	 2.0847821756	-0.0367448547	 0.117433
H	-0.3130421777	 2.0796452208	-1.3897586597	 0.11161
H	-0.9133976171	 2.1723007941	 0.2710804146	 0.108557
H	-0.0780742778	-0.1428359001	 0.7263026962	 0.094243
H	-1.2370991263	-0.1324826947	-0.5923192574	 0.091121
H	 0.6800825057	-0.0897614042	-2.2270160337	 0.057227
H	 2.6730545265	 0.6435615569	-1.1790446755	 0.095558
H	 2.3472778237	-0.2356040676	 0.3006298344	 0.092865
H	 3.865376958	-1.2434981994	-2.0054540023	 0.093604
H	 3.5284917876	-2.072883544	-0.5006147608	 0.098053
H	 1.9608606395	-2.1574692901	-3.0989516112	 0.08707
H	 2.2321935676	-3.4807684793	-1.9695173541	 0.085361
H	 1.324570233	-2.5118029482	 0.6695313672	 0.110812
H	-0.4308438505	-2.5146478656	 0.4744959711	 0.111712
H	 0.5293170708	-3.8542682243	-0.1580036233	 0.106799
H	-0.5633480927	-3.5173587574	-2.4437712351	 0.107153
H	-1.4888711023	-2.1471987168	-1.8279784087	 0.109497
H	-0.457792848	-1.9474720208	-3.2535756837	 0.105816
