23
gdb 102554	1.97071	1.41301	1.06873	2.0461	81.89	-0.2451	0.0718	0.3168	1284.1677	0.203638	-425.399607	-425.389015	-425.388071	-425.435541	39.007	
C	 0.0093533426	 1.4043654396	-0.1329322243	-0.240524
O	-0.010186935	-0.006709773	-0.0971120629	-0.258648
C	 0.7287503192	-0.6457664191	-1.1423339207	-0.003905
C	 2.1858157961	-0.7886501574	-0.6809371566	-0.066313
O	 2.2921557996	-1.5511393261	 0.5036475648	-0.420219
C	 0.0450300468	-1.9695653962	-1.4775400056	 0.381271
C	 0.7855244661	-2.814955414	-2.4975668882	-0.480809
C	-0.7343426198	-2.6912548732	-0.4075117947	-0.281816
C	-1.4657533687	-1.9852537715	-1.5242399109	-0.314455
H	 1.0237039596	 1.8156479688	-0.0318645596	 0.112452
H	-0.4272137685	 1.7877253552	-1.0669034231	 0.112533
H	-0.5929470117	 1.754904231	 0.7090024169	 0.129946
H	 0.7125303083	-0.0091072481	-2.0434992326	 0.064863
H	 2.7845334472	-1.291183546	-1.4462112516	 0.110147
H	 2.6165561628	 0.2181190337	-0.5489207257	 0.080144
H	 1.6057184831	-1.2153622658	 1.0926112826	 0.286867
H	 1.7232684682	-3.208881295	-2.0927081882	 0.132145
H	 0.1746466732	-3.6700643027	-2.8011951825	 0.114418
H	 1.0200709289	-2.2412851795	-3.4031450037	 0.108726
H	-0.701842625	-3.7756343781	-0.4088770774	 0.104005
H	-0.7905428874	-2.2427427903	 0.5759523558	 0.115471
H	-1.9898603236	-1.072681206	-1.2664799	 0.11206
H	-1.9400023321	-2.5818687262	-2.2963754417	 0.10164
