15
gdb 129844	3.90556	1.07121	0.84194	3.2956	71.73	-0.206	0.0103	0.2163	1280.5987	0.115024	-450.170856	-450.162578	-450.161634	-450.203966	30.326	
N	 0.2548805434	 1.4354243535	 0.140442709	-0.608301
C	 0.0285608302	 0.0627946638	 0.0458221328	 0.417704
C	-1.1397061864	-0.678062246	 0.0365501733	-0.391984
C	-0.6836864159	-2.0163751216	 0.014848542	 0.464924
N	-1.432774764	-3.1937556299	-0.0100659943	-0.388668
C	-2.7933309682	-3.2943324943	-0.0276944666	 0.145712
O	-3.575316763	-2.368461672	-0.0235192564	-0.313094
N	 0.6384854054	-2.1213987105	 0.0046321662	-0.335369
N	 1.0547012689	-0.8221205148	 0.0226550478	-0.247961
H	 0.9203947306	 1.7844315612	-0.5390939834	 0.251492
H	-0.6052599188	 1.9617058157	 0.067091898	 0.261074
H	-2.1570398175	-0.3332783646	 0.0264663273	 0.133912
H	-0.8897811598	-4.0447265136	-0.0210495818	 0.260704
H	-3.1120313368	-4.3545904453	-0.0464191903	 0.080086
H	 2.0353801618	-0.6258571917	 0.1191213364	 0.269771
