22
gdb 14793	6.41955	0.62497	0.5919	2.3016	76.6	-0.2594	0.084	0.3434	1936.0346	0.198601	-387.335911	-387.325572	-387.324628	-387.372418	35.718	
C	 0.071262703	 1.5351861616	-0.0380991232	-0.379478
C	 0.095107491	 0.0043457942	-0.0348251093	-0.16573
C	 0.73425446	-0.5842690271	-1.2966893155	-0.180079
C	 0.7552644769	-2.1062937828	-1.292581209	-0.049112
O	 1.3607380416	-2.5595423526	-2.4870800391	-0.261274
C	 1.4484858403	-3.9677296244	-2.5907267668	-0.069616
C	 2.2567633456	-4.2631096464	-3.8447453997	-0.057491
O	 3.5440113605	-3.6836958748	-3.7734004736	-0.422098
H	 1.0846751381	 1.946574049	-0.1007038362	 0.116192
H	-0.4942243315	 1.9198308987	-0.8939182871	 0.116119
H	-0.3924288876	 1.9284245871	 0.871792886	 0.112859
H	 0.6395289609	-0.3510937885	 0.8500192147	 0.097669
H	-0.9297809194	-0.3766330764	 0.0667501898	 0.097326
H	 0.1919043339	-0.2434213394	-2.1872376889	 0.104868
H	 1.764053258	-0.2199240929	-1.4008396347	 0.101312
H	 1.3128043788	-2.4829511149	-0.4178460275	 0.087697
H	-0.2708763554	-2.5046281707	-1.2145983975	 0.086333
H	 1.9595817726	-4.3842902868	-1.7076157987	 0.093311
H	 0.4460287866	-4.4231436816	-2.6534009773	 0.085484
H	 2.3898985377	-5.3444385116	-3.9549883955	 0.106177
H	 1.6992166569	-3.8995787622	-4.7230273624	 0.09169
H	 3.3995205216	-2.7712602775	-3.4952571984	 0.287838
