23
gdb 64286	2.5543	1.5617	1.28477	1.4377	83.96	-0.2391	0.0757	0.3147	1120.705	0.20648	-388.295246	-388.286454	-388.28551	-388.328283	34.973	
C	-0.0603710157	 1.5837616477	-0.0753421084	-0.444476
C	 0.0246058191	 0.0571660397	 0.003598818	 0.276239
C	-1.3852647875	-0.5552372416	-0.0914182566	-0.425987
C	 0.922476843	-0.5472947843	-1.0992779573	-0.116771
O	 1.2804084894	-1.8470620763	-0.6446612393	-0.266784
C	 1.4382650776	-1.7937846635	 0.7657718125	 0.111927
C	 2.8020439742	-1.2460039329	 1.2715967821	-0.238947
C	 2.1134801554	 0.0868087596	 1.6813320283	-0.262644
C	 0.7262798863	-0.4956882092	 1.2652819999	-0.0419
H	 0.9235356551	 2.0577569611	-0.0159371149	 0.113892
H	-0.5206575766	 1.8964041838	-1.0195684909	 0.113481
H	-0.6754463456	 1.9860563896	 0.7367592926	 0.114365
H	-1.8886604278	-0.2362041009	-1.0108836395	 0.107767
H	-1.3390509452	-1.6481028581	-0.0962295843	 0.127537
H	-2.0067572067	-0.2428144477	 0.7546822842	 0.10825
H	 0.4143472337	-0.658854276	-2.0619401684	 0.103192
H	 1.8169610965	 0.0776210032	-1.2575215248	 0.081623
H	 1.1318641525	-2.7629193631	 1.1667126727	 0.073779
H	 3.2146021529	-1.8126312094	 2.1102698895	 0.098975
H	 3.5655061193	-1.1760116146	 0.4929460078	 0.105831
H	 2.1925841736	 0.3410809779	 2.740639236	 0.100287
H	 2.4378505421	 0.9570815759	 1.1058948294	 0.098683
H	 0.0297173043	-0.6152834809	 2.0977923513	 0.06168
