20
gdb 88573	3.46351	1.0009	0.97318	3.0913	83.17	-0.2192	0.015	0.2341	1327.119	0.171325	-403.124531	-403.115627	-403.114683	-403.159034	32.556	
C	-0.2003163684	 1.4988856184	-0.2181011138	-0.404076
C	-0.0258556251	 0.0194261745	 0.0168834581	 0.018098
N	 1.3154903969	-0.5541391053	-0.1234124284	-0.336929
C	 0.6707096596	-0.5787445326	 1.2054757007	-0.174245
C	 1.320631412	 0.1922615828	 2.2876971716	 0.349728
C	 0.98381449	 0.2248478189	 3.576402887	-0.230704
C	 1.9448184643	 1.0849509364	 4.3439456628	-0.098755
O	 2.8728061552	 1.5617944591	 3.3749218163	-0.26805
C	 2.5669345653	 1.0238661976	 2.0924227706	-0.15218
H	 0.6534696615	 2.0677997479	 0.1534497284	 0.133566
H	-0.3025627486	 1.7066302316	-1.2887058021	 0.121759
H	-1.1026309377	 1.864059187	 0.2838554413	 0.120178
H	-0.8525923571	-0.5860222685	-0.355895282	 0.084501
H	 1.2823541547	-1.4713535752	-0.5583951775	 0.233872
H	 0.2472196747	-1.5259189478	 1.5365858928	 0.08584
H	 0.1551943686	-0.2965194526	 4.0402050035	 0.09433
H	 1.4532854899	 1.9375385664	 4.8403966841	 0.101257
H	 2.4745124995	 0.5209736883	 5.1300617544	 0.099897
H	 3.4011912217	 0.4103541125	 1.719508718	 0.111048
H	 2.435159543	 1.8439975905	 1.3725379242	 0.110865
