21
gdb 79451	3.08201	1.50326	1.26024	1.5826	81.27	-0.2432	0.0745	0.3178	1075.9278	0.18462	-387.05233	-387.044668	-387.043724	-387.083909	31.746	
C	-0.1057475796	 1.5054698801	-0.0020683209	-0.433567
C	 0.0987052129	-0.0076980491	 0.0442604397	 0.062045
C	 1.0826201798	-0.6301106128	-0.9833354977	-0.064228
C	 2.4343734916	 0.0420407293	-0.6300427558	-0.243575
C	 2.2975125367	-0.7664930004	 0.6668728239	-0.058392
C	 1.5555031819	-1.8930766133	-0.139734085	-0.075571
C	 0.6041018983	-2.1094049447	 1.0502708552	 0.166633
O	 1.0987547052	-2.9891331514	 2.0375245568	-0.460949
C	 0.8324304046	-0.586690021	 1.2785416563	-0.098309
H	 0.8023692264	 2.0658704456	 0.2344963945	 0.119753
H	-0.4478413399	 1.8249487871	-0.9932617702	 0.112301
H	-0.869096301	 1.8061654484	 0.7233386624	 0.114503
H	-0.8867650081	-0.4790723634	-0.0541548442	 0.068487
H	 0.7434856347	-0.7219239595	-2.0157865672	 0.05948
H	 3.2525881257	-0.3569444748	-1.2376243636	 0.096359
H	 2.5029676792	 1.1321732963	-0.6072805326	 0.092063
H	 3.1276978963	-0.9375030105	 1.3526232647	 0.061214
H	 2.065347201	-2.7047511148	-0.6599083388	 0.067234
H	-0.4260439199	-2.4297633374	 0.867232132	 0.075358
H	 2.0409700547	-2.8234245993	 2.1496395492	 0.278972
H	 0.6579138495	-0.1288482544	 2.2527078914	 0.060189
