18
gdb 36257	5.24953	0.95598	0.92903	4.1376	80.51	-0.3	0.0378	0.3378	1280.5198	0.14891	-364.751647	-364.744258	-364.743314	-364.784086	28.692	
N	-0.0179393744	-1.159368034	-0.3354005122	-0.310725
C	-0.037715186	-0.0343296888	-0.0714428797	 0.261316
C	-0.0319275824	 1.3908630059	 0.2562808787	-0.376483
C	 1.3685439747	 2.0070527486	 0.1413778568	-0.007078
C	 1.9512751904	 2.3033145681	-1.2556597582	-0.038584
C	 1.1116224896	 3.6213742152	-1.427775382	-0.046975
C	 2.3603132052	 4.4560691795	-1.7716841696	-0.265146
C	 2.8443429153	 3.4654287923	-0.6965449962	-0.04111
C	 1.4929397536	 3.5445041507	 0.0953952154	-0.064694
H	-0.7347881477	 1.9028883596	-0.4103771353	 0.1484
H	-0.4170793554	 1.5129431212	 1.2757640455	 0.149813
H	 2.0589647763	 1.5059510548	 0.8291337561	 0.084747
H	 2.2250936847	 1.6037501398	-2.0462303965	 0.086227
H	 0.1062038901	 3.7020360428	-1.842871422	 0.075449
H	 2.7730624609	 4.3312389521	-2.7776033999	 0.09824
H	 2.3372587914	 5.5145099722	-1.4935208236	 0.095749
H	 3.8338434501	 3.348156693	-0.2524965838	 0.076745
H	 1.2386942236	 4.2780616169	 0.8627346062	 0.074109
