17
gdb 42687	3.09333	1.76325	1.74738	3.3808	70.85	-0.2095	-0.0295	0.1801	865.0147	0.140064	-417.978558	-417.972381	-417.971437	-418.008864	25.986	
O	 0.064693814	 0.0262367437	-0.0263817905	-0.320058
C	 0.0114194084	 1.2207190299	 0.0076444351	 0.481189
C	-1.1588172255	 2.1863377236	 0.0548940815	-0.126041
C	-0.7422897959	 3.2464533493	 1.1198146158	 0.003674
C	-1.0563591408	 4.2940076854	 0.0394396966	-0.182414
N	-0.8565071305	 3.2398151656	-1.0179949762	-0.13569
C	 0.6220270186	 3.0785963531	-1.2499676375	-0.191911
C	 1.1080827111	 2.3019594446	-0.0078790922	-0.132571
N	 0.716472146	 2.9902664131	 1.2403977018	-0.317043
H	-2.1735675637	 1.7988617027	 0.0354804703	 0.097328
H	-1.226045338	 3.2907163279	 2.099271518	 0.081472
H	-2.0999418952	 4.6268649363	 0.034771565	 0.110569
H	-0.3983110631	 5.1671896639	-0.0376147775	 0.094145
H	 0.7872264729	 2.504539958	-2.170227123	 0.118327
H	 1.0874938562	 4.0608122672	-1.3725586135	 0.105292
H	 2.1359509226	 1.9436952146	 0.0018576695	 0.092685
H	 1.229986033	 3.8562382009	 1.3760616968	 0.221048
