14
gdb 129702	2.41835	1.93168	1.07653	4.5806	72.9	-0.2013	-0.0477	0.1536	1024.0788	0.102786	-466.165138	-466.157381	-466.156436	-466.197154	29.555	
N	 0.0747169432	 1.4294339547	 0.1405244778	-0.59525
C	-0.0361356534	 0.0425690744	 0.0419545942	 0.306468
C	-1.1801308479	-0.6818636719	 0.0250077423	 0.275763
O	-2.4063249801	-0.1286438972	 0.0308617129	-0.448824
C	-1.0974842812	-2.1230772491	-0.0046833527	 0.320664
N	-2.2095906216	-2.7709502978	-0.0195059349	-0.589311
N	 0.1767672505	-2.7231867198	-0.0389671231	-0.284893
N	 1.2362717944	-2.0205651794	-0.017574776	-0.051254
N	 1.1401691496	-0.6834082215	 0.0261394798	-0.283481
H	 0.6067292497	 1.8495346154	-0.6146828295	 0.257563
H	-0.8420532902	 1.857757636	 0.1867280354	 0.276173
H	-3.0025698453	-0.9076828559	 0.0140362291	 0.309924
H	-2.0507204336	-3.776046746	-0.0623820061	 0.226546
H	 2.0278648258	-0.2161615918	 0.1308887909	 0.279912
