16
gdb 124620	2.72383	1.3617	1.13372	3.8978	66.58	-0.2779	-0.0489	0.2289	1118.7078	0.123028	-471.196892	-471.188357	-471.187412	-471.230879	30.48	
C	-0.0410691759	 1.5494625678	 0.0082271257	-0.390511
C	-0.0242806394	 0.0196566986	 0.0579717966	 0.025334
C	 0.7345242171	-0.5311765155	 1.2678876398	-0.390496
N	-1.3917692889	-0.5105797021	 0.0241477866	-0.102558
N	-2.3006653053	-0.2661608164	 0.9858890752	-0.051062
N	-3.3793991345	-0.8363081056	 0.7085230577	 0.021531
O	-3.2215819394	-1.5223879102	-0.5194912493	-0.234547
C	-1.9412131139	-1.31274831	-0.9604319573	 0.554495
O	-1.4484649601	-1.7388359744	-1.9659716002	-0.392843
H	 0.9837057975	 1.9285522367	-0.0289982403	 0.132148
H	-0.5730371423	 1.9082793492	-0.8768538772	 0.135502
H	-0.5274285999	 1.9607584116	 0.8975041378	 0.143686
H	 0.4142071115	-0.3750296975	-0.8639025998	 0.138003
H	 0.2750074251	-0.1918753227	 2.2007639987	 0.14366
H	 0.7437705929	-1.624330027	 1.2618478579	 0.135513
H	 1.7690298654	-0.1781909324	 1.2464557082	 0.132146
