21
gdb 39966	3.46527	1.33154	1.11445	0.3452	89.88	-0.2212	0.0235	0.2447	1165.4867	0.184193	-349.92489	-349.91715	-349.916206	-349.956911	31.583	
C	 0.0506803557	 1.5086592489	 0.070549644	-0.311778
C	 1.3544892467	 0.7350684557	 0.0871816586	-0.334855
C	 0.0456309571	 0.0119552987	 0.0149824078	 0.347927
C	-0.6014187629	-0.922361284	 1.0802580289	-0.404729
C	-1.4497255959	-1.4264935404	-0.068356957	 0.312713
C	-2.6906892136	-1.6303097331	-0.4941524261	-0.230736
C	-2.757346933	-1.3465999914	-1.9940956521	-0.23604
C	-1.5101252037	-0.4322994509	-2.2410638225	-0.242238
C	-0.5351378226	-0.866385141	-1.1298314646	-0.113502
H	-0.2683954196	 1.9911958415	 0.9892492638	 0.11023
H	-0.202847768	 2.058843888	-0.8302356204	 0.113747
H	 1.9747105469	 0.7615624272	-0.8034986365	 0.110957
H	 1.9137333407	 0.696634976	 1.0169716862	 0.109871
H	 0.113625814	-1.6586700602	 1.4657873643	 0.108163
H	-1.1220281139	-0.459043407	 1.9233058649	 0.109817
H	-3.5624053818	-1.8731745963	 0.1026791767	 0.088011
H	-2.7032235865	-2.2671956715	-2.5931003895	 0.102094
H	-3.692980877	-0.8516984946	-2.2769303477	 0.099039
H	-1.1061414835	-0.5283666612	-3.2531579477	 0.089477
H	-1.8020438283	 0.6140258076	-2.0954592137	 0.100875
H	 0.2221234292	-1.5758061119	-1.4903199974	 0.070957
