15
gdb 7334	4.53664	1.20067	0.96079	1.8293	59.38	-0.2486	-0.0426	0.2059	1175.011	0.117284	-437.003342	-436.994438	-436.993494	-437.037837	30.463	
C	 0.0369335783	 1.4824767014	-0.0975563891	-0.391644
C	 0.0159141154	-0.0307488857	-0.024250831	-0.047967
O	 0.6807822944	-0.533863865	-1.2058689051	-0.2132
C	 0.7564405037	-1.8526531124	-1.3108883722	 0.377674
O	 0.3210362158	-2.6493885404	-0.5111550904	-0.376261
C	 1.4856900764	-2.2764489078	-2.6080188272	 0.292311
N	 1.5437396226	-3.6260913303	-2.6942127235	-0.512675
O	 1.9286861659	-1.4871316788	-3.4114577389	-0.335557
H	 1.0635331075	 1.8570008358	-0.1286701263	 0.13797
H	-0.4860394909	 1.8369992977	-0.9897134629	 0.137915
H	-0.4582554928	 1.900499308	 0.7838940356	 0.124933
H	 0.5399147963	-0.4114099447	 0.8581024471	 0.12747
H	-1.0022981906	-0.4316661394	-0.0010935677	 0.127484
H	 1.1450137294	-4.1839333899	-1.9572406299	 0.281166
H	 1.9973065587	-4.0535871885	-3.4832274085	 0.270381
