22
gdb 121434	2.32025	0.86118	0.6499	2.7206	83.2	-0.2437	0.0223	0.266	1771.3374	0.191443	-441.495622	-441.484446	-441.483501	-441.53356	38.789	
C	 0.0062671885	 1.4519962892	-0.0260020316	-0.390927
C	 0.0290031617	-0.052164443	-0.2249485555	-0.033994
O	-1.2898438596	-0.5434872117	 0.0525809187	-0.249225
C	-1.4987389331	-1.8677905728	-0.0951488019	 0.416321
C	-2.9269541646	-2.229330266	 0.2268834794	-0.491353
N	-0.5651484746	-2.6449391834	-0.4599863968	-0.321616
C	-0.8166471132	-4.0702306146	-0.612947451	-0.156552
C	 0.3496168926	-4.6718635256	-1.4000853152	-0.044637
O	 1.5829418201	-4.366360622	-0.7854983542	-0.423217
H	 0.9979158404	 1.8686140961	-0.2258517479	 0.121472
H	-0.7094603703	 1.924832338	-0.7045256223	 0.127713
H	-0.2739590537	 1.7061635378	 1.0001974839	 0.127947
H	 0.3067060515	-0.3278900102	-1.2479006261	 0.115359
H	 0.7424890818	-0.5423651822	 0.4466715379	 0.112479
H	-3.4765658234	-1.350283683	 0.5628186415	 0.142802
H	-3.4247277006	-2.6442394799	-0.6555709648	 0.14735
H	-2.9587300998	-2.9959720662	 1.0070810799	 0.145987
H	-0.8597537724	-4.5516364515	 0.3753799535	 0.106228
H	-1.76527807	-4.2874164927	-1.1270312334	 0.087721
H	 0.2608198817	-5.7630614894	-1.4374330666	 0.097121
H	 0.3129857743	-4.2957460087	-2.4363877773	 0.079678
H	 1.518999213	-3.4248168083	-0.5738988604	 0.283342
