13
gdb 128972	4.07498	1.73537	1.21707	3.0119	76.98	-0.2322	-0.0626	0.1696	915.1867	0.093619	-411.792777	-411.78699	-411.786046	-411.822832	23.251	
N	 0.0504084902	 1.2811588593	 0.0090351698	-0.207041
C	 1.1665573209	 2.0434590753	 0.0021758509	-0.049273
C	 2.3544024186	 1.3662739136	-0.0131354636	 0.248833
N	 3.6371031119	 1.7833695752	-0.0235141039	-0.353923
C	 4.3435858767	 0.6329049403	-0.0365728116	-0.028223
C	 3.5655446706	-0.5474085797	-0.0353466852	-0.270178
C	 2.2531812513	-0.0928105067	-0.0199870163	 0.343252
N	 1.0690176049	-0.7506783427	-0.0118983553	-0.274173
N	-0.0284232941	-0.082917845	 0.0024717079	-0.091231
H	-0.8659964134	 1.7034197288	 0.0202985126	 0.291446
H	 1.0426546223	 3.1202979629	 0.0091785489	 0.162781
H	 5.4271746861	 0.6733297812	-0.0470030434	 0.112052
H	 3.913920934	-1.5681643724	-0.0442839209	 0.115678
