19
gdb 104896	2.56168	1.31368	1.1741	2.1807	66.65	-0.2532	0.071	0.3242	1132.9469	0.159523	-497.285695	-497.276828	-497.275883	-497.319563	32.895	
O	 0.1898968303	 1.4459158703	-0.0414695122	-0.435976
C	 0.1133922645	 0.0447441335	 0.0603685275	-0.071433
C	-1.3083511416	-0.5235866166	-0.0035551869	 0.296091
C	-2.0609796554	-0.095402673	-1.2728485299	-0.112573
O	-2.3315570116	 1.3010416166	-1.2630625675	-0.423148
C	-1.3400752509	-2.0568689758	 0.1801967461	-0.170819
O	-2.4788833109	-2.2736058695	 1.000166632	-0.234059
C	-2.5000096031	-1.1696155021	 1.8654260784	 0.015625
O	-2.099121066	-0.0437421521	 1.1065620564	-0.305892
H	-0.5068711012	 1.7343750694	-0.6483580739	 0.291071
H	 0.704383469	-0.4557909102	-0.7300621835	 0.078953
H	 0.5605661619	-0.2363483607	 1.0216829708	 0.100879
H	-1.4584332844	-0.2932097537	-2.165495465	 0.117144
H	-2.9920732592	-0.6751697528	-1.3476774645	 0.108265
H	-2.7658441596	 1.4719114834	-0.4159233576	 0.300867
H	-1.4812266765	-2.605093339	-0.7542879364	 0.125208
H	-0.4226969107	-2.4159655986	 0.6712637297	 0.103543
H	-3.5187955942	-1.0246601873	 2.2361954006	 0.123447
H	-1.8048327303	-1.3172011417	 2.710831276	 0.092807
