16
gdb 50896	5.08499	0.64223	0.60504	3.3941	74.25	-0.2527	-0.0301	0.2226	1766.3135	0.120888	-437.886063	-437.876097	-437.875153	-437.923348	33.868	
O	 0.3810459343	-0.2237195613	-0.2184932266	-0.236325
C	 0.1990420036	 0.9596742327	-0.3266496987	 0.165994
C	 1.2776187166	 2.0047294802	-0.0735817032	-0.392171
C	 1.1978550471	 3.1240582225	-1.1071754444	 0.411662
O	 0.1485044078	 3.6993681197	-1.3368720374	-0.37386
N	 2.3638794035	 3.404482351	-1.7527234682	-0.319092
C	 2.4600867281	 4.4874051645	-2.7248591006	-0.291087
C	 3.5970842149	 5.363186513	-2.4624865509	 0.281287
C	 4.5512811411	 6.0619540151	-2.2523267721	-0.436892
H	-0.7813054563	 1.3889424837	-0.615767308	 0.114776
H	 1.0533795038	 2.4645384135	 0.8982856544	 0.162325
H	 2.2507375073	 1.512583611	-0.0088915102	 0.121014
H	 3.2092623073	 2.923418364	-1.4933727994	 0.258715
H	 2.5313356179	 4.0835811091	-3.7437941179	 0.145137
H	 1.5138868616	 5.0342660397	-2.6638783916	 0.180767
H	 5.3838635413	 6.6950849519	-2.0675596351	 0.20775
