16
gdb 18885	3.46473	2.79752	2.59707	2.0839	62.18	-0.2482	0.0914	0.3396	650.9048	0.134415	-383.737307	-383.732191	-383.731247	-383.766168	22.23	
C	-0.013961706	 1.5437668503	 0.1006298027	-0.239201
C	 1.5240685846	 1.4435639587	-0.0228023696	 0.096331
O	 2.077573005	 1.0321308566	 1.2416381887	-0.276498
C	 1.7913119116	-0.3586155279	 1.3069030297	 0.186313
C	 2.2704549727	-0.8854787283	-0.0518525555	-0.246125
C	 1.3537111802	 0.0789810467	-0.7867018975	-0.099299
C	-0.0085964105	 0.0010906382	-0.0039471895	 0.096331
O	 0.3850628103	-0.5607812939	 1.2624583571	-0.276498
H	-0.4143088132	 1.9811199386	 1.0166884525	 0.11118
H	-0.462935073	 2.0092702597	-0.7824727987	 0.097016
H	 2.1152398932	 2.2689929073	-0.4211223234	 0.078121
H	 2.1902379016	-0.7703961271	 2.2318385793	 0.092386
H	 3.3340979681	-0.7062079788	-0.2205193903	 0.110209
H	 2.0249890507	-1.9382815394	-0.2044162297	 0.110209
H	 1.3193491549	 0.1013005437	-1.8724412297	 0.081403
H	-0.8734003361	-0.5437752803	-0.3843561061	 0.078121
