23
gdb 101711	3.95999	0.71363	0.65836	2.9352	82.49	-0.2533	0.074	0.3273	1771.0974	0.204441	-425.411385	-425.400821	-425.399877	-425.447292	39.069	
C	 0.1966388179	 1.5167635161	-0.2937134918	-0.404519
C	 0.1095652961	 0.0307070337	-0.0192656005	-0.014073
C	 1.3537324247	-0.8202147194	 0.063006805	-0.306351
C	 0.5039064456	-0.58946379	 1.3016996332	-0.014855
C	 1.0241718595	 0.2121433685	 2.4794445685	-0.22631
C	 1.8691064434	-0.6350937923	 3.4370738056	 0.099128
O	 3.0566460971	-1.1229423186	 2.8092240411	-0.451221
C	 2.3627235458	 0.147953194	 4.6503535665	-0.048418
O	 3.1580056762	-0.657979198	 5.4944852143	-0.43003
H	 1.0907856163	 1.9639776861	 0.1490016585	 0.119487
H	 0.2379754029	 1.706397853	-1.3718290348	 0.118878
H	-0.6746362029	 2.049460433	 0.1036465681	 0.117975
H	-0.7416212298	-0.4473364485	-0.4977552316	 0.085174
H	 1.3543854857	-1.7986295484	-0.4065382343	 0.109764
H	 2.3072741667	-0.3026052902	 0.013245502	 0.119494
H	-0.1113316479	-1.4357045151	 1.6026271816	 0.083069
H	 1.6344632725	 1.054050815	 2.13518443	 0.102605
H	 0.1792234037	 0.6355895764	 3.0394249856	 0.098545
H	 1.268390559	-1.484600573	 3.8028245639	 0.069271
H	 2.7938794205	-1.6700358698	 2.0628711742	 0.295218
H	 2.9178876266	 1.0335392227	 4.2973572417	 0.084879
H	 1.5105524246	 0.4982717808	 5.2419997511	 0.102283
H	 3.7755632659	-1.1102590961	 4.906694662	 0.29001
