18
gdb 19916	4.47895	1.46044	1.31801	1.1681	70.76	-0.2076	0.0765	0.2841	974.444	0.154174	-347.709334	-347.702014	-347.70107	-347.740962	28.791	
O	-0.1614661256	 1.3848457173	 0.7263704214	-0.43809
C	 0.0988504981	 0.2033925721	-0.0265455692	-0.127249
C	-1.2340153419	-0.5324947839	-0.1316585066	 0.010487
C	-1.8896543033	-1.2388763099	-1.2895364416	-0.098051
C	-1.019490313	-2.2507236976	-2.0855524923	-0.050372
C	 0.4026896876	-2.3917748612	-1.6151144852	-0.302093
C	-0.7069373232	-3.0002430849	-0.8012951662	-0.050372
C	-1.5749165147	-1.9936481483	 0.0037161987	-0.098048
H	 0.6639279151	 1.8717722644	 0.8092144327	 0.282525
H	 0.4850408914	 0.4595471023	-1.0241834507	 0.098369
H	 0.851232927	-0.4186356865	 0.4804512561	 0.09837
H	-1.9804610376	 0.0605197991	 0.3960922563	 0.109433
H	-2.8603634881	-0.9297633559	-1.6577585594	 0.085819
H	-1.3471252683	-2.6571310276	-3.0336132443	 0.087227
H	 0.971777094	-3.1248773518	-2.1814662806	 0.109226
H	 1.0065599137	-1.5609154543	-1.2771744259	 0.109772
H	-0.7596598236	-4.0658919376	-0.6197916853	 0.087227
H	-2.2727196576	-2.3390004957	 0.7568543621	 0.085819
