21
gdb 59240	2.58032	1.40344	1.26371	2.5567	77.82	-0.2431	0.0577	0.3008	1124.8796	0.182654	-424.194205	-424.185326	-424.184382	-424.227207	35.188	
C	 0.0133291315	 1.5953744831	 0.0339871843	-0.414871
C	 0.0057959523	 0.0659651785	 0.0812643664	 0.096643
O	-1.3425322657	-0.4208910642	 0.2230362263	-0.434171
C	 0.611105595	-0.5399420417	-1.1850774728	-0.037428
C	 0.7582215608	-2.0575727242	-1.3612084189	-0.084825
C	-0.5647320675	-2.7587229209	-1.4933587049	-0.292322
C	-0.0298564484	-2.0107516343	-2.680562753	-0.071314
C	-0.2073084748	-0.492415448	-2.5370675721	 0.115657
O	-1.4944267118	 0.073109078	-2.540826226	-0.442495
H	 1.0362482144	 1.9792512511	-0.0317603199	 0.118264
H	-0.5519350966	 1.94495776	-0.8341630329	 0.147808
H	-0.4378381417	 2.0165992482	 0.9405921026	 0.100756
H	 0.5952962864	-0.2774181303	 0.9466297816	 0.075811
H	-1.7535997485	 0.0489902892	 0.9555327956	 0.286864
H	 1.5805580581	-0.0522886344	-1.3310288226	 0.07374
H	 1.6715907929	-2.6029411014	-1.155491076	 0.080775
H	-0.4921532205	-3.8385385603	-1.5815493498	 0.105704
H	-1.4349101553	-2.4159659156	-0.9484671709	 0.126103
H	 0.1894628798	-2.5154407368	-3.6139454102	 0.080265
H	 0.355098372	 0.0361986643	-3.3118324681	 0.083609
H	-1.9073162025	-0.1684033403	-1.7006389487	 0.285425
