19
gdb 78713	4.37771	1.15626	1.04222	0.9962	88.02	-0.2301	0.0424	0.2725	1198.6841	0.158838	-348.677283	-348.669267	-348.668323	-348.709344	32.327	
C	-0.1248517021	 1.4625090389	 0.0218831456	-0.409896
C	 0.0476153469	-0.0516895686	 0.0283225123	 0.015234
C	 0.8650816647	-0.5805954774	-1.1517917659	-0.104725
C	 2.1478171204	-0.5185622515	-0.3716508478	-0.123404
C	 1.2271682199	-0.5571280526	 0.9154031066	-0.088705
C	 1.1642489789	-2.0990065789	 0.784452828	-0.304097
C	 1.5550372342	-1.8899960186	-0.6849990025	 0.231341
C	 2.0235016901	-2.8623608953	-1.6090777279	 0.117611
C	 2.4176220798	-3.7024195646	-2.3766720505	-0.386956
H	 0.8323971325	 1.9676820539	-0.1476711286	 0.117396
H	-0.8146209658	 1.7798549743	-0.7676422562	 0.114932
H	-0.5288948246	 1.8130291372	 0.9778645556	 0.112946
H	-0.9159164893	-0.5424761688	 0.2174471562	 0.063871
H	 0.7200111998	-0.4029620933	-2.2101049748	 0.092645
H	 3.1264388629	-0.1204083228	-0.5954923769	 0.099675
H	 1.4409685553	-0.082628066	 1.8711311351	 0.073386
H	 1.9720563234	-2.5958671806	 1.3274552195	 0.106822
H	 0.2094450669	-2.588464053	 1.0076214514	 0.094357
H	 2.7650868759	-4.4403887521	-3.0558651691	 0.177567
