20
gdb 85252	2.85526	1.3274	1.00578	2.5399	80.19	-0.2443	-0.0248	0.2196	1225.4109	0.171743	-403.167713	-403.159209	-403.158264	-403.200762	32.815	
C	-0.0505544602	 1.5368452948	 0.0047750934	-0.404041
C	 0.0672741231	 0.0156870452	 0.0417359945	 0.023678
C	 0.8020976829	-0.6007561871	-1.168211557	-0.338066
C	 1.3383986208	-1.9368681373	-0.664791953	 0.349265
O	 1.805489796	-2.8395447445	-1.3194868508	-0.344373
C	 1.2311751815	-1.9345557093	 0.8369985642	 0.263677
C	 0.7540202476	-3.202399181	 1.4751158501	-0.273399
N	 2.1463656914	-2.7832362795	 1.6044416024	-0.363317
C	 0.8475954407	-0.5319724174	 1.2642638234	-0.320048
H	 0.9400493168	 2.0049850951	-0.0308859446	 0.116415
H	-0.6107939215	 1.8727485625	-0.8739973183	 0.116916
H	-0.5659501643	 1.9150278714	 0.893954421	 0.117197
H	-0.9428482609	-0.414399507	 0.0730690602	 0.082294
H	 0.1952314873	-0.7208945489	-2.0689309682	 0.128245
H	 1.6703879489	 0.014726721	-1.4463116246	 0.130344
H	 0.16094479	-3.1301976981	 2.3831773309	 0.123408
H	 0.5195620735	-4.0364917728	 0.8193543793	 0.130913
H	 2.7081437683	-3.3093979937	 0.9329362851	 0.244279
H	 1.7534757848	 0.0654928083	 1.4314703509	 0.109265
H	 0.2617670732	-0.5032290817	 2.1863678212	 0.107347
