17
gdb 66860	2.58749	2.0966	1.83622	0.6005	69.42	-0.2359	0.0674	0.3033	841.6113	0.137815	-421.776629	-421.770294	-421.769349	-421.806829	27.208	
O	-0.1049299054	 1.4103859217	-0.0242902078	-0.497311
C	-0.0232043601	 0.0307265488	-0.0067700253	 0.39792
C	-1.3442478688	-0.7638457046	 0.0644487404	-0.138288
C	-0.9278668533	-2.0979413787	-0.4801998146	-0.06536
C	 0.2043889677	-1.9455627277	-1.4915744514	-0.2297
C	 0.9979034017	-0.7782000579	-0.9140061245	-0.003342
O	 1.7212920852	-1.238413752	 0.2641632711	-0.310333
C	 0.6045825154	-0.8612195519	 1.0908181186	 0.012847
C	-0.6411802846	-1.7733322895	 0.979326679	-0.090318
H	 0.7832905059	 1.7710498316	 0.0768446385	 0.288759
H	-2.3429723937	-0.3513153865	 0.0988788874	 0.096827
H	-1.6911201381	-2.8520531041	-0.6415442866	 0.08891
H	 0.83622429	-2.8336895819	-1.5834562282	 0.112208
H	-0.2030382912	-1.7012612834	-2.4802974219	 0.098752
H	 1.6477930009	-0.2413784478	-1.6104873651	 0.071515
H	 0.8807062778	-0.5281427744	 2.0932014072	 0.079875
H	-1.0605430295	-2.3723994917	 1.7779652931	 0.08704
