23
gdb 109669	2.08573	1.22251	1.11707	2.599	81.93	-0.2263	0.0524	0.2787	1299.9242	0.203925	-425.406913	-425.396154	-425.39521	-425.442985	39.807	
C	 0.1324845843	 1.2797776233	-0.6241454161	-0.383943
C	-0.0065762881	-0.129315491	-0.030101505	-0.252912
C	-1.4501011295	-0.5882183235	 0.1323633212	 0.285071
C	-2.3370046768	 0.3326356528	 0.9542604555	-0.458969
C	-2.1024200876	-1.3198675477	-1.0322531715	 0.080762
O	-1.4073913238	-1.5587706586	-2.2190869726	-0.438723
C	-1.7872610384	-2.0774277139	 0.2375154587	-0.153889
C	-0.8151121205	-3.2452148419	 0.3076254097	-0.1256
O	 0.171126557	-3.3023685075	-0.7327730775	-0.416106
H	 1.186443442	 1.526454109	-0.7864021029	 0.107031
H	-0.3804113708	 1.3381927688	-1.5889029391	 0.1356
H	-0.2861761017	 2.0472718008	 0.0329740525	 0.116231
H	 0.5169901946	-0.8148026427	-0.7010295814	 0.07903
H	 0.5075144899	-0.1723933616	 0.9404410702	 0.085357
H	-2.4024577489	 1.333853855	 0.5166611122	 0.120957
H	-3.3566242854	-0.0603582325	 1.0193653673	 0.111051
H	-1.9603339945	 0.4396774785	 1.9795217438	 0.10943
H	-3.1467922768	-1.089257929	-1.2344938338	 0.088334
H	-0.773536054	-2.2697083701	-2.0465047084	 0.298443
H	-2.6485139043	-2.2865720122	 0.8709574873	 0.083835
H	-0.3247343106	-3.2794240969	 1.2905458686	 0.10655
H	-1.3874453348	-4.1738956886	 0.2054931519	 0.124181
H	 0.9175843685	-2.7567475705	-0.4694510407	 0.298279
