18
gdb 90378	2.26148	1.54735	1.31951	1.8668	78.85	-0.2294	0.0344	0.2638	1073.7239	0.145286	-401.864515	-401.855378	-401.854434	-401.897856	34.52	
C	 0.0117388141	 1.5155446653	 0.0393168687	-0.500696
C	-0.0337287762	 0.0197460114	-0.0709608902	 0.334479
C	-0.9063122398	-0.8127252943	 0.8060121994	-0.268374
C	-1.7449783834	-1.9055784645	 0.4004467513	 0.380054
C	-2.4760565006	-2.8243268901	 0.1402217996	-0.453489
N	 0.5742698779	-0.924075044	 0.9636867848	-0.18823
C	 1.0337303512	-1.8141754065	-0.1637203979	-0.215077
C	 0.5638207413	-0.7766562243	-1.2225467877	 0.043688
O	-0.3439310969	-1.1212558178	-2.2392742573	-0.427518
H	 1.0053474482	 1.898072324	-0.217412687	 0.123422
H	-0.7143728896	 1.9705584345	-0.6436824042	 0.135907
H	-0.2245545857	 1.8418749259	 1.0559484974	 0.130892
H	-1.319284241	-0.248910572	 1.640368157	 0.116743
H	-3.1219188418	-3.6255764172	-0.1212815882	 0.196107
H	 2.1153944396	-1.9505990082	-0.1118957117	 0.106039
H	 0.5325171793	-2.7844896259	-0.191175825	 0.122792
H	 1.4278292891	-0.2351454075	-1.6332104674	 0.077551
H	 0.1323771241	-1.6015149987	-2.9240631716	 0.285711
