19
gdb 40954	3.63437	1.27325	1.12498	2.5519	77.46	-0.2449	0.012	0.2569	1131.5915	0.160534	-423.007878	-423.000077	-422.999133	-423.040674	29.997	
C	-0.0073126566	 1.4998517668	-0.0432012625	-0.1206
O	 1.4056012017	 1.6086778428	 0.2149249037	-0.274122
C	 1.514978121	 0.1949996656	 0.4677269584	-0.118398
C	 0.05714181	-0.0466210023	-0.0433570872	 0.318102
O	-0.8444853803	-0.5908858586	 0.89171249	-0.301226
C	-0.9541503096	-2.0076710132	 0.8346484227	-0.096214
C	-1.5163641937	-2.4622405271	-0.5121031382	-0.259837
C	-0.7664359673	-1.7773939945	-1.622961177	-0.101905
C	-0.0322293259	-0.6912902775	-1.3928337246	-0.087775
H	-0.6172574145	 1.8795577293	 0.7856871077	 0.109272
H	-0.2989300266	 1.9893799341	-0.9785761813	 0.103458
H	 2.3339665358	-0.2615432295	-0.0986353084	 0.100228
H	 1.6228378586	-0.0341362273	 1.5361051805	 0.101548
H	 0.02966945	-2.4739359595	 1.0025643555	 0.094435
H	-1.6072455651	-2.2912261973	 1.6639649636	 0.108747
H	-1.429172158	-3.5522070995	-0.6020807614	 0.106669
H	-2.5885957196	-2.2311839627	-0.5740394629	 0.119322
H	-0.8289018648	-2.1970365693	-2.6232559333	 0.095191
H	 0.5405769048	-0.2158887006	-2.1846870851	 0.103104
