17
gdb 30742	3.05491	1.22747	0.92496	2.0482	72.6	-0.171	0.05	0.221	1244.4708	0.135727	-455.150437	-455.140873	-455.139929	-455.185029	34.762	
C	 0.3861632743	 1.1466333722	 0.4061615046	-0.324794
N	-0.3892833476	 0.1990799116	-0.4078515434	-0.389978
C	 0.3543628691	-0.6096515724	-1.278634238	 0.266364
C	 0.6013058223	-1.9665113182	-1.2676139049	 0.045312
O	 0.2561715737	-2.8677887874	-0.2754322522	-0.462241
C	 1.3765217942	-2.2805020965	-2.4227292137	 0.258207
O	 1.8363390175	-3.5234055313	-2.7443724895	-0.457561
C	 1.5842820967	-1.1169104703	-3.1168865758	-0.195028
N	 0.9616961448	-0.1019943293	-2.3975383802	-0.299365
H	 1.1481842052	 0.6635648926	 1.0358410977	 0.116541
H	 0.8930414548	 1.862701646	-0.2464348633	 0.123926
H	-0.3004016412	 1.7080732358	 1.0458492906	 0.120434
H	-0.9357605244	-0.4034307746	 0.1962790252	 0.233497
H	-0.5355902834	-3.3429700734	-0.5525262379	 0.296304
H	 1.7198801017	-4.0703304098	-1.9583287195	 0.292181
H	 2.1336909076	-0.918259746	-4.0201498929	 0.117277
H	 0.7889135746	 0.8236046609	-2.7466768967	 0.258923
