22
gdb 9746	3.55723	1.47542	1.39903	0.1426	82.17	-0.2342	0.0313	0.2656	1042.6584	0.200566	-313.092561	-313.084009	-313.083065	-313.125078	33.389	
C	-0.2075451709	 1.6993207565	-0.0586763231	-0.393718
C	-0.1865425783	 0.1664573091	-0.0450270315	-0.222905
C	 0.7408083075	-0.500688509	-1.0793254851	 0.341411
C	 0.3346347207	-0.1294118215	-2.5169299985	-0.430682
C	 2.2483908653	-0.1446806577	-0.8628601468	-0.287851
C	 2.9723060253	-1.4457887833	-1.1042471611	-0.063563
C	 2.1367428124	-2.4814354518	-1.1460557554	-0.060756
C	 0.7045948266	-2.0580813916	-0.940517409	-0.297409
H	 0.7927583417	 2.1174067667	 0.0974347616	 0.116471
H	-0.5887150726	 2.0946294273	-1.0050043788	 0.117524
H	-0.8517821187	 2.0826578659	 0.7389135532	 0.110639
H	 0.1139802397	-0.1754250313	 0.9541562333	 0.089884
H	-1.2082142997	-0.2077077295	-0.1969316711	 0.089563
H	 0.4458818206	 0.9423307544	-2.7080267802	 0.110568
H	 0.9616760728	-0.6611466241	-3.2403305626	 0.116401
H	-0.7089438457	-0.4007669987	-2.7135291954	 0.105893
H	 2.5816194211	 0.6582003974	-1.5317711839	 0.096014
H	 2.4359451019	 0.2150722149	 0.1594967118	 0.097934
H	 4.0514821335	-1.5055779721	-1.1975694391	 0.08672
H	 2.4277552131	-3.5179550464	-1.2793519692	 0.086894
H	 0.3488499586	-2.3652129183	 0.0538501359	 0.09618
H	 0.015329145	-2.5136065371	-1.6626851549	 0.094788
