16
gdb 106445	2.74641	1.35425	1.08107	3.9589	69.73	-0.2701	0.012	0.2821	1114.8201	0.123564	-437.82179	-437.813639	-437.812695	-437.854856	30.305	
O	 0.0151162256	 1.3851499935	-0.0513143727	-0.406479
C	 0.0157272591	-0.0259445815	 0.0145210896	-0.197668
C	-1.3841661955	-0.5527328399	 0.137885459	 0.387342
C	-2.515657048	-0.1988924237	 1.1364452989	-0.263645
C	-3.1101925267	-1.0176230855	-0.0284619676	 0.048988
O	-2.3149371156	-0.2137005967	-0.9761390156	-0.340441
C	-1.9230579021	-2.0232609535	 0.0882698795	-0.221965
C	-1.593340564	-2.8215964058	-1.0783008451	 0.282222
N	-1.3181442323	-3.486655697	-1.9825182854	-0.321328
H	-0.5453693528	 1.6324520333	-0.7962197692	 0.300341
H	 0.4922985536	-0.485766512	-0.8645888647	 0.122518
H	 0.5958694627	-0.3078187225	 0.8993983933	 0.125443
H	-2.4873567677	-0.6469575497	 2.132293397	 0.107796
H	-2.7952733639	 0.8529838463	 1.1432420314	 0.12933
H	-4.1448288698	-1.2317276339	-0.2903908271	 0.122131
H	-1.8540488426	-2.6051554513	 1.010114939	 0.125413
