16
gdb 18969	6.31338	1.34393	1.32595	2.5312	64.07	-0.2312	0.0689	0.3001	939.9659	0.130197	-383.628872	-383.622076	-383.621132	-383.660053	26.061	
O	-0.0438553075	 1.464115169	-0.2948447445	-0.420625
C	 0.0560796638	 0.1008810303	 0.0940798245	-0.103634
C	-1.3394162679	-0.4872173629	 0.0595075865	-0.015263
C	-1.9801845598	-0.7878453433	-1.3150430638	-0.086564
C	-1.2278574363	-2.1521362422	-1.4579439297	 0.086664
O	-2.431135239	-2.9287830283	-1.7307127574	-0.329112
C	-2.8344033854	-1.9525215407	-0.7262206912	 0.08771
C	-1.4982622647	-2.025115437	 0.0775112106	-0.118011
H	 0.8311120669	 1.8592732237	-0.2394184534	 0.287471
H	 0.7206096069	-0.4591801852	-0.5842573955	 0.082653
H	 0.4732100726	 0.0057343364	 1.1100444376	 0.086511
H	-1.9906076067	 0.0541513607	 0.7544478202	 0.077836
H	-2.2635111709	-0.1088116091	-2.117756918	 0.08953
H	-0.3165292492	-2.4063840733	-1.9973624794	 0.096463
H	-3.8639289621	-1.9552125153	-0.3693528562	 0.096383
H	-1.2410003307	-2.7515246628	 0.8488812898	 0.081988
