21
gdb 49731	2.30159	1.51659	1.46111	2.4796	82.65	-0.2427	-0.022	0.2206	1069.1362	0.185017	-387.107512	-387.099325	-387.098381	-387.14018	31.904	
O	-0.9127077069	 1.0362069091	 0.1006232888	-0.274912
C	 0.2611573862	 0.9150918116	-0.1761268861	 0.142065
C	 1.3305923774	 1.9094436248	 0.0241213197	-0.127534
C	 1.1403251448	 3.4187745613	-0.2545445212	-0.050242
C	-0.2134553786	 4.0112510274	-0.6370883868	-0.218384
C	-0.8847435786	 4.6919546877	 0.5663550762	-0.190923
C	-1.0626494988	 3.6936297951	 1.7152030695	-0.195767
C	 0.2902382855	 3.1433075789	 2.2151482546	-0.217306
C	 1.3634348334	 2.9565078568	 1.1470624932	-0.034799
H	 0.622145382	-0.0288309876	-0.6452166971	 0.075115
H	 2.306867671	 1.5247552948	-0.2554984133	 0.087537
H	 1.993740119	 3.8538630346	-0.765311071	 0.094138
H	-0.0633259912	 4.730192451	-1.4484100249	 0.092234
H	-0.8831724902	 3.2359577188	-1.0210536153	 0.124857
H	-0.2735442682	 5.5439111988	 0.8962170963	 0.085959
H	-1.856751303	 5.0982985426	 0.2662425196	 0.091794
H	-1.5795355078	 4.1675765765	 2.5568239005	 0.083174
H	-1.6875691439	 2.8686742603	 1.3681283404	 0.135324
H	 0.7100690902	 3.8602835959	 2.9323391536	 0.099137
H	 0.1362996073	 2.2134111018	 2.7734512373	 0.105884
H	 2.3719869705	 3.0806176898	 1.5318974359	 0.092648
