16
gdb 125288	5.03934	1.20605	0.98497	3.6022	79.72	-0.2204	-0.0185	0.2018	1157.9037	0.125763	-400.758419	-400.751285	-400.750341	-400.789857	27.823	
C	-0.0220177603	 1.4701777369	 0.0573576815	-0.485655
C	-0.0010358243	-0.0211816515	-0.0239028747	 0.294108
C	-0.0381172901	-0.7772193289	-1.1435169297	-0.331812
C	 0.0015333483	-2.1849186583	-0.7774984999	 0.195299
C	 0.0061085135	-3.4841349433	-1.162530302	-0.094534
O	 0.0678076751	-4.2806695105	-0.0653813959	-0.180459
N	 0.1060968932	-3.48824978	 1.0950464565	-0.243123
C	 0.0659371907	-2.2683055622	 0.6452688147	 0.361993
C	 0.0692345477	-0.8878827837	 1.2371423187	-0.448256
H	 0.8747687576	 1.8553954734	 0.5594846328	 0.131892
H	-0.0749914244	 1.9228111955	-0.9361959723	 0.129741
H	-0.8813558797	 1.8263349197	 0.6399447422	 0.131853
H	-0.089312178	-0.3890740952	-2.1525533847	 0.106049
H	-0.0269541348	-4.0056089492	-2.1055568091	 0.148311
H	 0.9720841569	-0.6818877609	 1.8250399816	 0.142295
H	-0.7844816914	-0.7110524817	 1.9027955803	 0.142298
