21
gdb 41876	3.19058	1.41888	1.03599	1.6452	82.77	-0.2368	0.0238	0.2606	1166.0298	0.186202	-387.111685	-387.10406	-387.103116	-387.143846	30.323	
C	 0.0068015039	 1.5664678625	 0.1008088436	-0.101064
O	 1.3669743161	 1.9534113966	-0.1234524262	-0.271809
C	 2.2282723462	 0.8159308109	-0.0036205369	-0.101067
C	 1.3806512139	-0.2820276698	 0.635468853	 0.020888
C	 1.7393493542	-1.7470918584	 0.4061917053	-0.297956
C	 0.5626127615	-2.6280487711	 0.7671310101	-0.04728
C	-0.6801644842	-2.1790752285	 0.9543766928	-0.0473
C	-1.0953273973	-0.732830673	 0.7897251858	-0.29795
C	-0.0043505925	 0.0399753718	 0.0547511832	 0.020871
H	-0.3288477393	 1.934386298	 1.0838005441	 0.086028
H	-0.6199029297	 2.0342994657	-0.6666949397	 0.099508
H	 2.5840259553	 0.5101951062	-1.0007525164	 0.086017
H	 3.1015955684	 1.1012266912	 0.5935342916	 0.099514
H	 1.3367732015	-0.1020791359	 1.7193426179	 0.078831
H	 2.0230828892	-1.9138313518	-0.6442571119	 0.107517
H	 2.615248791	-2.0383237941	 0.9995096996	 0.104624
H	 0.7674695545	-3.6895066587	 0.8851906664	 0.084829
H	-1.4620774382	-2.8810180343	 1.2345238581	 0.08483
H	-2.0496697297	-0.68093949	 0.2506760831	 0.104618
H	-1.2864818159	-0.2838967221	 1.7764714554	 0.107519
H	-0.0053116887	-0.2769901652	-0.9981591389	 0.07883
