17
gdb 11643	3.26101	1.95533	1.53243	1.1219	76.47	-0.2174	0.0296	0.247	884.3169	0.141306	-326.613041	-326.605575	-326.604631	-326.644379	29.341	
C	 0.0505699319	 1.4982252388	-0.1601440969	-0.337116
N	 0.0144657476	 0.0505686207	 0.0193475826	-0.126704
C	-1.0423948343	-0.5566978894	 0.9286557395	-0.037869
C	-0.129820116	-1.8072672932	 0.9861043259	-0.242514
C	 0.7742759722	-0.5559188847	 1.2081473674	 0.274281
C	-0.3182788376	-0.0257719246	 2.1958530128	-0.27838
C	 2.200359364	-0.4847802446	 1.3357789022	 0.068357
C	 3.3954447181	-0.4116354666	 1.4508668346	-0.360448
H	 1.035333829	 1.7684830744	-0.5540624544	 0.131104
H	-0.6955317519	 1.7647987476	-0.9159891905	 0.122028
H	-0.1372708723	 2.114912996	 0.7316853883	 0.097652
H	-2.102545491	-0.5094635914	 0.6800729589	 0.085935
H	-0.2503064537	-2.4763754112	 1.8389765174	 0.098808
H	 0.0257139917	-2.322941393	 0.0390133225	 0.112151
H	-0.3358217222	 1.0469412992	 2.3821594768	 0.109045
H	-0.4511708333	-0.5851314898	 3.1254496534	 0.101088
H	 4.4511993378	-0.3524831581	 1.5492815296	 0.182582
