18
gdb 33394	2.30618	1.36055	1.01213	0.9112	83.49	-0.2245	0.023	0.2476	1224.7725	0.145428	-364.703909	-364.694673	-364.693729	-364.738094	34.267	
C	-0.015565207	-1.2014003377	-0.1125736001	-0.427377
C	 0.0140997567	-0.0029975378	-0.0495799946	 0.349149
C	 0.0507038685	 1.4632426565	 0.0198743699	-0.348382
C	 1.4372849441	 1.9402815594	 0.222305479	 0.347799
C	 2.5490737527	 2.3791208998	 0.3517172274	-0.478809
N	-0.6181006286	 2.0389866136	-1.1457751597	-0.063358
C	-0.0057819434	 1.9208372541	-2.4887592192	-0.160655
C	-0.5501841718	 3.3347803409	-2.8095598476	-0.22805
C	-0.7070088934	 3.5100494376	-1.2796058052	-0.166915
H	-0.043206344	-2.2617154814	-0.1653891319	 0.199237
H	-0.5371155926	 1.7757234859	 0.8958963584	 0.139107
H	 3.5364240158	 2.7491995958	 0.4803826971	 0.201308
H	 1.0931719345	 1.8984171249	-2.462663998	 0.103005
H	-0.3702674764	 1.0746070387	-3.0775592286	 0.109063
H	 0.1266186653	 4.0215788646	-3.3178647992	 0.10684
H	-1.5079467404	 3.3101211637	-3.3317803434	 0.114143
H	-1.6368265704	 3.9431453877	-0.896474609	 0.102083
H	 0.1493925804	 4.0394359137	-0.8370241252	 0.101814
