18
gdb 19970	3.28634	1.87624	1.48931	1.6675	67.21	-0.2455	0.0732	0.3187	907.4457	0.153631	-384.896969	-384.889183	-384.888239	-384.929211	28.703	
C	-0.15392785	 1.5955208081	-0.022662819	-0.426348
C	 0.0754776216	 0.091377861	-0.0283672952	-0.030154
C	 1.4356621779	-0.4556432252	-0.5122002945	-0.078993
O	 1.5733406261	-1.2785666642	 0.6687753118	-0.288843
C	 0.430974136	-0.6595832384	 1.291417125	 0.08723
C	 0.8149225964	 0.1723627037	 2.4906412002	 0.056402
C	 2.0804859033	-0.0595504849	 3.1980417365	-0.172735
O	 1.9169135696	 1.0655122407	 2.3277697342	-0.234932
H	 0.6605572494	 2.1224269165	 0.4797113193	 0.152427
H	-0.2248124728	 1.9728347905	-1.0487251306	 0.115361
H	-1.0910761073	 1.852477451	 0.483311454	 0.114243
H	-0.7517379933	-0.4124388368	-0.5362635899	 0.082636
H	 1.4340222692	-1.0563025208	-1.4284325349	 0.099611
H	 2.2297082259	 0.2989754706	-0.5686654023	 0.109529
H	-0.3069902688	-1.4085988152	 1.6123749566	 0.076124
H	-0.0261688781	 0.5882053144	 3.0493883278	 0.091271
H	 2.1567967593	 0.1786155247	 4.2576799285	 0.111692
H	 2.7483471953	-0.8304518159	 2.8234618724	 0.135479
