21
gdb 103781	3.14462	1.09587	1.0085	2.0073	79.59	-0.2341	0.0628	0.2969	1284.2832	0.181204	-424.191696	-424.182166	-424.181222	-424.22604	36.124	
O	-0.071029185	 1.3378396732	-0.0298915868	-0.432227
C	 0.0075449296	-0.0732643534	 0.1822145309	-0.151575
C	-1.3982327312	-0.6004376397	 0.0579750806	 0.382142
O	-2.2806332556	 0.0189028441	 0.9513966812	-0.476895
C	-1.9311220662	-1.0207974104	-1.2979377408	-0.425098
C	-1.6724340304	-2.0436129603	-0.2197863578	 0.298628
C	-0.6637643933	-3.2042077011	-0.1880628937	-0.300426
C	-1.5731546973	-3.9040962408	 0.865196073	-0.201534
C	-2.7014123228	-2.8745210754	 0.5591998067	-0.282927
H	 0.7302277179	 1.7424461253	 0.3136340099	 0.291377
H	 0.6698462264	-0.5504322906	-0.5534614566	 0.090942
H	 0.394366223	-0.2917817719	 1.1889230149	 0.092778
H	-2.1294691942	 0.9668084669	 0.8437349447	 0.287258
H	-2.9663002643	-0.77413426	-1.5109084631	 0.112433
H	-1.2628291895	-0.9855772078	-2.1537274404	 0.105055
H	-0.6239133776	-3.7446776783	-1.1392496512	 0.100774
H	 0.360925266	-2.9772374203	 0.1197942554	 0.093491
H	-1.80557753	-4.9559397522	 0.6858095248	 0.096052
H	-1.1844212603	-3.8043763885	 1.8816891801	 0.103391
H	-3.1658407514	-2.3775608579	 1.4128217158	 0.11897
H	-3.4881175537	-3.283105671	-0.0825075574	 0.097391
