15
gdb 20354	6.04428	1.47035	1.3041	3.0805	68.76	-0.2387	-0.0071	0.2316	931.7265	0.120437	-362.648945	-362.642349	-362.641404	-362.680236	24.739	
C	-0.1337088279	 1.4545460731	-0.0613889965	-0.261938
C	 1.264138161	 0.9488401424	 0.1264025459	-0.261918
C	 0.1153577861	-0.0412626903	 0.0335661484	-0.114428
C	-0.3150160735	-0.792020227	 1.2160780146	 0.463122
C	-0.7949526516	-2.057160124	 1.3900455851	-0.361703
C	-1.0137331648	-2.1408407993	 2.7893661698	 0.037931
N	-0.6983532553	-1.0338026032	 3.413815939	-0.145682
O	-0.2513818723	-0.1701529183	 2.4090894424	-0.223408
H	-0.619193867	 1.9228173739	 0.7865954025	 0.13971
H	-0.4215552295	 1.8473997657	-1.0297541229	 0.121157
H	 1.9512432127	 0.988960705	-0.7109716446	 0.121161
H	 1.7203290486	 1.076392833	 1.1009149015	 0.139687
H	 0.0331475448	-0.6099059843	-0.8855616441	 0.100108
H	-0.9645509574	-2.808283151	 0.6373440042	 0.115646
H	-1.3919571937	-2.9737778459	 3.3657139646	 0.130554
