19
gdb 91159	2.50755	1.79745	1.27056	3.0193	75.33	-0.2422	-0.005	0.2373	1016.7393	0.161441	-423.016832	-423.009269	-423.008325	-423.048569	30.98	
O	 0.1980810514	 1.410209564	-0.1196527085	-0.442603
C	 0.022486683	 0.0275146639	-0.0496303833	 0.169932
C	 0.4411855073	-0.773817003	 1.2231043777	-0.292665
C	-0.8346502363	-1.6677291906	 1.0177975556	-0.044513
C	-1.8380768149	-1.7440444352	 2.1307385628	-0.071578
C	-2.7789285101	-0.802589676	 2.0174186276	-0.127961
C	-2.499813768	 0.1440864315	 0.8713827682	 0.075229
O	-2.1026113281	 1.4385108584	 1.3937859688	-0.441764
C	-1.4050566484	-0.5953728765	 0.0434551335	-0.12242
H	-0.5109679171	 1.7974985663	 0.4147062429	 0.287153
H	 0.5336887751	-0.3995064497	-0.9197017901	 0.085396
H	 1.4162537991	-1.2654450123	 1.2036480889	 0.10077
H	 0.369278838	-0.1676149192	 2.1309314523	 0.087416
H	-0.6034531682	-2.6361876364	 0.56850104	 0.078272
H	-1.7844520014	-2.4757595771	 2.9306414944	 0.104023
H	-3.6040926547	-0.639336463	 2.7024088068	 0.102763
H	-3.3785677049	 0.3654182947	 0.2589354493	 0.094907
H	-1.7319500191	 1.2874031805	 2.2708407516	 0.285047
H	-1.8327048827	-0.9486022102	-0.8972359886	 0.072597
