25
gdb 99770	1.86287	1.33935	0.8341	1.726	88.65	-0.2522	0.0849	0.3371	1469.8668	0.227872	-389.477496	-389.466735	-389.465791	-389.513292	40.551	
C	 0.0303082113	 1.5414851659	 0.0798249529	-0.40231
C	-0.0498884523	 0.0046926769	 0.0570233858	 0.040341
C	 0.6789443103	-0.557293142	 1.2877681683	-0.391354
C	-1.5100400019	-0.5125144169	-0.0634064873	-0.009519
C	-2.190292491	 0.0577804211	-1.3273926034	-0.071702
O	-3.5463704829	-0.3227236479	-1.4773413967	-0.427563
C	-1.5821162618	-2.0342050329	-0.0744835981	 0.005516
C	-1.6849063989	-2.8418047221	 1.1942655102	-0.276842
C	-2.868299145	-2.7672103246	 0.2685889768	-0.301423
H	 1.0625933389	 1.8653299412	 0.2481272664	 0.109243
H	-0.3038209807	 1.9995268465	-0.8542427676	 0.118604
H	-0.5798927976	 1.9533281248	 0.8929333156	 0.113519
H	 0.4915607664	-0.3447580302	-0.8353467463	 0.068637
H	 0.1710322891	-0.2612068662	 2.21366519	 0.108022
H	 0.7382574936	-1.6471105178	 1.2726962649	 0.12091
H	 1.7005770031	-0.1659013075	 1.3348172832	 0.106206
H	-2.0784967962	-0.1503974195	 0.8065283155	 0.068835
H	-2.2035991142	 1.1491875866	-1.2904045893	 0.106808
H	-1.5967791612	-0.2299501438	-2.2132532126	 0.077646
H	-3.5702239707	-1.2837641341	-1.509845682	 0.287189
H	-0.9888543964	-2.4911527297	-0.8657739477	 0.080824
H	-1.1369850181	-3.7755927418	 1.2576376894	 0.11171
H	-1.7477344403	-2.3014017905	 2.1325558948	 0.116636
H	-3.717402748	-2.1736936316	 0.5891338242	 0.128596
H	-3.1307814058	-3.652265634	-0.3018477768	 0.111472
