12
gdb 3807	8.08545	2.12171	1.6987	1.3752	51.63	-0.2332	0.0011	0.2343	689.187	0.092279	-356.68654	-356.680403	-356.679459	-356.716664	21.434	
C	 0.0053696825	 1.4036489542	 0.0485062772	-0.238385
O	 0.0107847538	-0.0227797984	 0.014395631	-0.262406
C	 0.6240593166	-0.6266498235	 1.038485377	 0.395002
N	 1.2077040971	 0.0090612894	 2.0513440774	-0.308404
N	 1.6652072305	-1.0019557501	 2.7984966622	-0.082623
N	 1.4267885308	-2.223544146	 2.3538874822	-0.187442
C	 0.7574111834	-2.0188819213	 1.2210782926	-0.14202
H	 1.0266105452	 1.7983619879	 0.0422885918	 0.136065
H	-0.527246233	 1.7213638223	-0.8483984816	 0.133114
H	-0.5073211776	 1.7710113051	 0.9434735028	 0.136061
H	 2.1655611389	-0.8360880076	 3.6550785185	 0.291925
H	 0.4111246717	-2.8321487621	 0.6061004288	 0.129113
