18
gdb 101063	2.28021	1.32699	0.93969	2.5734	72.8	-0.288	-0.0047	0.2833	1267.0397	0.145563	-439.075073	-439.065545	-439.064601	-439.109599	34.592	
C	 0.1235848628	 1.5427980366	 0.1679925262	-0.387983
C	 0.1711953048	 0.0151290173	 0.098562063	-0.205385
C	 0.5939901635	-0.4954780472	-1.2863404683	 0.028744
O	 1.8649413715	-0.0128909506	-1.6718881115	-0.42689
C	 0.5993045783	-2.0319606441	-1.3456969432	 0.246487
C	 1.5324527107	-2.7501554179	-2.2332707749	-0.212764
O	 1.7930144358	-2.6352862604	-0.8286255106	-0.269498
C	-0.6404195725	-2.6917693909	-0.9775966766	 0.262605
N	-1.6503392635	-3.1818368811	-0.7021258646	-0.331952
H	 1.0911884493	 1.974261608	-0.100155575	 0.13125
H	-0.6245359066	 1.9446858945	-0.5241212371	 0.119301
H	-0.1382920167	 1.8790853014	 1.1749724716	 0.118461
H	 0.8772102351	-0.3790701239	 0.842078942	 0.106203
H	-0.8089280087	-0.4064668345	 0.3489480137	 0.127682
H	-0.1089216988	-0.1282899629	-2.0441136199	 0.111221
H	 2.5055133302	-0.4115188702	-1.0676779537	 0.293089
H	 1.2780471484	-3.7507463876	-2.5738028658	 0.14225
H	 2.1768246064	-2.1553310364	-2.8736083553	 0.14718
