19
gdb 40382	3.80164	1.34185	1.19922	2.1769	78.49	-0.2181	0.0666	0.2847	1087.6531	0.160478	-381.947809	-381.940294	-381.93935	-381.979891	30.208	
C	-0.4798839689	 1.1593895117	-0.3703368415	-0.228231
N	 0.7808618922	 1.3508084852	 0.3680635938	-0.311573
C	 0.283497122	-0.0155080833	 0.1195018874	-0.154941
C	-0.1664743463	-0.7778904779	 1.3158806268	 0.344302
C	-1.4077108676	-1.5822916015	 1.3449182732	-0.292207
N	-1.3470470609	-0.3357082063	 2.1384240279	-0.177526
C	-0.4866819157	-0.5368128003	 3.373567589	 0.015274
C	 0.1532278821	-1.8800398856	 3.5887174284	-0.315296
C	 0.7264709276	-0.9312588569	 2.5711437144	-0.114782
H	-1.3668582938	 1.460265603	 0.1775001578	 0.141315
H	-0.4973405889	 1.3511484573	-1.4398622815	 0.107194
H	 1.5314563427	 1.5642289569	-0.2838092286	 0.22961
H	 0.8126689014	-0.6100584255	-0.6251966297	 0.084648
H	-2.0717776839	-1.4772164701	 0.4913077056	 0.119716
H	-1.4655189956	-2.5509767985	 1.8270648778	 0.118203
H	-0.6029483505	 0.1955729805	 4.1614144545	 0.104925
H	 0.7261860791	-1.9224434105	 4.5108992671	 0.117954
H	-0.3056943187	-2.8284096073	 3.3327306963	 0.112336
H	 1.7307363536	-0.5338876309	 2.6138442614	 0.099078
