20
gdb 32735	3.0272	0.99471	0.79186	1.4043	83.36	-0.1781	0.0493	0.2274	1486.2649	0.170821	-403.18903	-403.179257	-403.178313	-403.22446	35.665	
C	 0.1148080837	 1.612097789	 0.1237235325	-0.378464
C	 0.1430810512	 0.0821502897	 0.1104476052	-0.151261
C	 0.5806166024	-0.4957906341	-1.2511849214	-0.314636
C	 0.6158987612	-1.9869656797	-1.308964977	 0.22226
C	-0.2405231169	-2.8819520846	-1.9148111648	 0.245009
O	-1.3477356896	-2.4943820818	-2.6230898227	-0.455655
C	 0.2216131704	-4.2032906297	-1.6630336698	-0.27846
C	 1.362189287	-4.083764303	-0.899071693	-0.080424
N	 1.5877265753	-2.7527133554	-0.6876021221	-0.29747
H	 1.1027551176	 2.030283003	-0.1012476495	 0.109822
H	-0.58408188	 2.0001122017	-0.6256892485	 0.117016
H	-0.1955235777	 1.9982783389	 1.0996626525	 0.110358
H	 0.8202612139	-0.2814578924	 0.8945896519	 0.083576
H	-0.8477543664	-0.3153669913	 0.3590462336	 0.107361
H	-0.1120417187	-0.151043392	-2.0266956371	 0.123046
H	 1.5646355395	-0.0789703326	-1.514059418	 0.091183
H	-1.7281041846	-3.2725589786	-3.0389835209	 0.293461
H	-0.2280237599	-5.1251806593	-2.001190609	 0.083832
H	 2.0220911615	-4.8352070283	-0.497147466	 0.113813
H	 2.3628475298	-2.3738853297	-0.1732494659	 0.255633
