23
gdb 120450	4.19078	0.71137	0.70411	1.5479	83.7	-0.2502	0.0739	0.324	1742.722	0.203282	-425.409914	-425.399447	-425.398503	-425.445694	38.621	
C	 0.185955989	 1.3874534702	-0.0216798677	-0.223357
O	 0.1857643813	-0.0185296924	-0.0367546594	-0.23371
C	 0.5987787694	-0.5835318122	 1.1896920244	-0.06983
C	 0.586518035	-2.0911413784	 1.0571946958	 0.023085
C	 1.656339839	-2.7533109229	 0.1462283197	-0.260588
C	 1.869328122	-3.8449125179	 1.2239340259	 0.422637
C	 1.130633324	-5.1490623386	 0.9421867319	-0.448052
O	 3.2455725522	-4.0806978326	 1.4603996368	-0.47544
C	 1.1368287668	-2.9204666014	 2.2498324677	-0.313191
H	 1.1902144508	 1.7956660059	 0.1764540961	 0.102168
H	-0.1440657931	 1.7275025555	-1.0065469195	 0.125025
H	-0.5006689437	 1.7897066719	 0.7409233924	 0.100539
H	 1.61440283	-0.2353120029	 1.4504800963	 0.080226
H	-0.0720438018	-0.2622020209	 2.0070275274	 0.080832
H	-0.422070463	-2.4111824671	 0.7784939351	 0.076253
H	 1.3532211623	-3.0814113706	-0.8503704021	 0.09822
H	 2.5522702928	-2.132210986	 0.0618164956	 0.108104
H	 1.5884147852	-5.6682147141	 0.0943195784	 0.123656
H	 1.1672714797	-5.8129650511	 1.815722675	 0.102921
H	 0.0758212842	-4.9709874549	 0.7104023925	 0.12058
H	 3.3221734363	-4.7896469895	 2.1084751196	 0.270829
H	 1.8723189823	-2.3554774843	 2.8303944355	 0.100105
H	 0.4150505294	-3.3806455656	 2.9306490925	 0.088987
