17
gdb 42828	2.55269	1.84902	1.67179	4.1629	70.7	-0.2391	-0.0114	0.2277	898.1627	0.137868	-421.8198	-421.813091	-421.812146	-421.850692	27.313	
O	 0.0450032753	 0.0265783174	 0.0828380423	-0.314517
C	 0.0004070927	 1.2138658882	-0.0250427935	 0.446115
C	-1.1187443255	 2.2689985188	 0.0506704295	-0.14123
C	-0.0457837674	 3.1546982212	 0.7696781921	-0.250078
C	 1.053489513	 2.3462062839	 0.0029079322	-0.185772
C	 1.1534275579	 2.909373283	-1.4107894788	 0.054082
O	 0.7019057491	 2.0525454356	-2.4687951363	-0.2467
C	-0.124626578	 3.1629628695	-2.0977972216	 0.038497
C	-1.4120499222	 2.8359296737	-1.3573483282	-0.247194
H	-2.0345847543	 2.0012629603	 0.5802554119	 0.089907
H	-0.0868484891	 4.2277363966	 0.5687708887	 0.105997
H	-0.015533824	 2.9768734133	 1.8462495984	 0.119004
H	 2.0209460256	 2.1521076668	 0.4665226426	 0.089002
H	 2.0338944816	 3.5023119174	-1.6519454712	 0.101687
H	-0.1821603469	 3.9426836679	-2.8560678197	 0.099395
H	-2.0073179036	 2.1258437869	-1.9425465862	 0.130134
H	-2.0056760744	 3.7522331796	-1.2559894621	 0.111671
