19
gdb 51550	4.9041	0.77633	0.74176	3.3023	77.58	-0.2493	-0.0249	0.2244	1550.1152	0.157128	-423.006476	-422.997443	-422.996499	-423.041575	32.534	
O	-0.3529269076	 0.1202773478	 0.0749391941	-0.237243
C	 0.1003799401	 1.2348174275	 0.0400658882	 0.160258
C	 1.515842969	 1.5746439243	-0.3905003265	-0.306423
C	 1.5307351744	 2.6607728002	-1.4444654169	-0.069624
O	 1.1741435836	 3.9821689181	-0.9962297878	-0.29141
C	 2.5001724484	 3.7625810938	-1.4455873236	 0.456516
C	 3.7679394689	 3.939806313	-0.6047933852	-0.311093
C	 4.5164669706	 4.285116254	-1.9286120284	-0.212185
C	 3.1428570891	 4.4636856582	-2.6441052107	-0.31356
H	-0.5085931571	 2.1183215285	 0.3322309352	 0.097007
H	 2.0542691652	 1.9342635422	 0.4957612371	 0.127167
H	 2.0019061145	 0.6632925696	-0.7522968957	 0.123262
H	 1.0779314849	 2.3853514459	-2.3989589384	 0.10293
H	 3.6821980641	 4.8002536178	 0.0650724749	 0.119221
H	 4.1238383768	 3.0811384813	-0.0297691937	 0.107222
H	 5.1711518735	 5.1571740897	-1.9046024343	 0.109387
H	 5.0793427062	 3.4343105445	-2.3184635006	 0.111093
H	 3.0135265673	 4.0061836788	-3.6277562615	 0.108223
H	 2.8343155481	 5.5118320548	-2.6982190463	 0.119253
