15
gdb 9862	5.85057	0.93322	0.8589	2.2578	85.31	-0.2354	-0.0153	0.2202	1318.404	0.116957	-325.446195	-325.437835	-325.43689	-325.479012	30.732	
C	-0.0509330757	 1.4981072224	 0.0154177634	-0.460512
C	 0.0025531401	-0.0206166194	-0.023397999	 0.016068
C	 0.7473624817	-0.6876207903	-1.1385457201	-0.25741
N	 1.3020530607	-0.7005056004	 0.2183499952	-0.321376
C	-1.1426942432	-0.6815785017	 0.5465401111	 0.484708
C	-2.1335646825	-1.1961814266	 1.0149377673	-0.248934
C	-3.240782075	-1.7853638548	 1.5408464924	 0.296084
C	-4.2256070931	-2.3062613511	 2.007329631	-0.577051
H	 0.8301672349	 1.9238756905	-0.4754820245	 0.114996
H	-0.9426448273	 1.8700865972	-0.4977319088	 0.139794
H	-0.082612627	 1.8581097484	 1.048383113	 0.138523
H	 0.4119208566	-1.6532802378	-1.5031243687	 0.132965
H	 1.1913019096	-0.0392720959	-1.8901712737	 0.117661
H	 2.0275478299	 0.0083663207	 0.3063644411	 0.234042
H	-5.0888944097	-2.7671398212	 2.4187320103	 0.190443
