17
gdb 94764	3.84166	1.15659	1.01227	2.144	73.13	-0.26	0.0104	0.2704	1162.238	0.137922	-418.008155	-418.000242	-417.999298	-418.040596	30.452	
O	 0.0419163136	 1.3931726039	-0.0959097865	-0.435133
C	 0.0386785677	-0.0182343964	-0.0812148231	 0.157361
C	 0.7355549667	-0.6406590029	 1.1595348299	-0.265256
C	 0.0404063458	-1.9928572329	 1.4218417029	-0.279312
C	-1.3627510687	-1.7932872514	 0.8546917965	 0.220863
N	-1.9823352092	-0.502345811	 1.264296345	-0.377557
C	-1.3605201511	-0.6204311558	-0.066737644	-0.119843
C	-2.2184490091	-2.9249594295	 0.6302590832	 0.193466
N	-2.9043101522	-3.8424558264	 0.4669892484	-0.336678
H	-0.4719558964	 1.6792205031	 0.6694096122	 0.289297
H	 0.5443979059	-0.3213322414	-1.0044445891	 0.100252
H	 1.8122356419	-0.7439414767	 1.0127180257	 0.114174
H	 0.5817512505	 0.0301309312	 2.0084679482	 0.119983
H	 0.5245002876	-2.8077458964	 0.8739380747	 0.124586
H	 0.0227708666	-2.2660999032	 2.480184922	 0.125311
H	-2.993693721	-0.5754795633	 1.1784850655	 0.253718
H	-1.9865699187	-0.5873478409	-0.9515998217	 0.114766
