21
gdb 101956	1.98714	1.44058	0.94653	3.8005	79.08	-0.2453	0.0677	0.313	1291.9711	0.18288	-420.334489	-420.325259	-420.324315	-420.36884	34.491	
O	-0.0706921715	 1.3436671337	 0.1747665168	-0.422385
C	-0.1146822303	-0.0673478879	 0.2013420061	-0.05309
C	-1.5543608173	-0.5865704231	 0.0528263374	-0.043513
C	-2.4227267163	-0.1538354057	 1.2174534602	 0.057092
C	-3.563503869	-0.9850245687	 1.6718609101	-0.252507
N	-2.3451568112	-0.8785613435	 2.4957585754	-0.325057
N	-2.0760824436	-0.0189440844	-1.1950213331	-0.073241
C	-1.832635919	-0.7699776495	-2.4244792562	-0.224753
C	-3.1990011793	-0.6859114751	-1.8388480467	-0.220831
H	-0.6514325445	 1.6043627735	-0.5527680057	 0.287913
H	 0.50688763	-0.5055526169	-0.5976767686	 0.08158
H	 0.3024095681	-0.3879721876	 1.1616042158	 0.11057
H	-1.5328889833	-1.6938030955	 0.0201915689	 0.045476
H	-2.4825736627	 0.9239771119	 1.337017814	 0.107264
H	-4.4469821441	-0.5171705998	 2.0967389989	 0.121593
H	-3.7561668828	-1.9216531621	 1.153903911	 0.104222
H	-1.7850669175	-1.7217675078	 2.3828877758	 0.225422
H	-1.5667802849	-0.181260452	-3.297448059	 0.122186
H	-1.3142873676	-1.7239584468	-2.3431501541	 0.115393
H	-3.5930951928	-1.5849849478	-1.3702615291	 0.114005
H	-3.9505496607	-0.0353089852	-2.2764067778	 0.122662
