15
gdb 77238	3.86753	0.99629	0.84938	1.716	62.76	-0.253	-0.048	0.2051	1281.0194	0.108373	-494.878053	-494.868794	-494.86785	-494.91369	31.147	
O	 0.0467500799	 0.7704060755	-0.6586571865	-0.412522
C	-0.3016997341	-0.4702686141	-0.117769511	 0.041093
C	-0.0117494756	-0.7020267937	 1.3903957236	 0.022662
O	-1.4153751848	-0.8422191884	 1.6855676269	-0.308012
C	-1.7907267228	-0.5511673328	 0.3205676191	 0.010276
C	-2.5564632568	 0.7577479611	 0.2042753853	 0.156657
O	-3.3175409213	 0.9968744153	-0.6935324184	-0.233236
C	 0.7865303605	-1.9335537758	 1.7556396389	 0.116456
O	 1.8464407235	-2.1943007884	 1.2466208453	-0.240295
H	 0.927939046	 0.7100220608	-1.040392072	 0.303659
H	 0.0213630133	-1.3036780213	-0.7492907936	 0.108937
H	 0.4314164512	 0.1808957406	 1.8730872875	 0.121991
H	-2.3762957781	-1.3568605832	-0.1333682008	 0.116136
H	-2.3572725688	 1.4712393544	 1.0328993041	 0.093962
H	 0.3092734577	-2.58469109	 2.5203491416	 0.102236
