18
gdb 78438	3.08221	1.4682	1.25544	3.6947	75.16	-0.2407	-0.0089	0.2318	1054.5712	0.148886	-401.906873	-401.899492	-401.898548	-401.938442	29.608	
C	-0.0658604512	 1.4754317433	-0.0047651053	-0.43688
C	-0.0123434776	-0.037231352	 0.0047906886	-0.024857
C	 1.3122371661	-0.7207964089	-0.2628793335	-0.067312
C	 0.7105370492	-0.7332315621	 1.1390090354	-0.067314
C	 0.5222005177	-2.2574954227	 1.3282796278	-0.147076
N	 1.7720450935	-2.8774676984	 0.7454684908	-0.319666
C	 1.3294805336	-2.2408115794	-0.5525882348	-0.147076
C	-0.064084715	-2.6755715058	-0.0408188955	 0.468508
O	-1.0472084446	-3.190947866	-0.4673532809	-0.324741
H	 0.8574031439	 1.9077024324	 0.3953814794	 0.115935
H	-0.199749106	 1.8571190104	-1.0223103603	 0.125922
H	-0.8981428806	 1.8426885094	 0.6046917217	 0.125922
H	-0.9093412873	-0.5123285206	-0.3844204512	 0.112945
H	 2.1776825998	-0.1233115353	-0.5293693031	 0.093407
H	 1.1097385117	-0.1453817935	 1.95880876	 0.093407
H	 0.163176526	-2.6349029605	 2.2837822992	 0.090434
H	 2.6148407349	-2.4308418024	 1.111163179	 0.218007
H	 1.7771516059	-2.6015471981	-1.4765906274	 0.090434
