17
gdb 60705	3.75052	0.65792	0.59914	1.0451	80.82	-0.2492	-0.0347	0.2145	1823.4673	0.132619	-421.779104	-421.769213	-421.768269	-421.81677	33.4	
C	-0.8211584208	 1.346908994	-0.7107889929	-0.397597
C	 0.0508055658	 0.2610059742	-0.0340979187	-0.221262
C	-0.8684692525	-0.8374488244	 0.5121843368	 0.173931
O	-1.1129039384	-0.9942788135	 1.6767944331	-0.239244
C	 1.0092352973	-0.3229014159	-0.9648054133	 0.103093
C	 1.7660267299	-0.8423585049	-1.7462042379	 0.067954
C	 2.7097574602	-1.4349359224	-2.6545804139	-0.113115
C	 2.3067911416	-2.4660893899	-3.6320899098	-0.159604
O	 2.5658712359	-1.1341231069	-4.0531980295	-0.21286
H	-0.1852048777	 2.130003984	-1.1293915915	 0.143448
H	-1.4117132362	 0.9181610712	-1.5256565546	 0.135429
H	-1.5000078076	 1.7932034996	 0.0208784485	 0.135606
H	 0.5702243899	 0.6957204431	 0.826986523	 0.128232
H	-1.3190604585	-1.4785233909	-0.2783414471	 0.087885
H	 3.744111181	-1.4426546355	-2.3125936959	 0.120898
H	 3.0359656656	-3.2131597706	-3.9430089709	 0.122727
H	 1.2646205346	-2.7773946711	-3.6684951055	 0.12448
