14
gdb 125394	3.39438	1.7538	1.16475	6.8008	68.05	-0.2378	-0.0106	0.2272	976.2877	0.103246	-432.881033	-432.874303	-432.873359	-432.912161	25.619	
C	-0.020930317	 1.5353760086	 0.0378373742	-0.493648
C	-0.0106439531	 0.0503385985	-0.0203362488	 0.25853
C	-0.0338534037	-0.8063614572	-1.0636326368	-0.129825
O	-0.0112661702	-2.1299604197	-0.6559149505	-0.217411
C	 0.0273939385	-2.0786357088	 0.6905729438	 0.510201
N	 0.0626961591	-2.94594207	 1.6598067778	-0.351107
N	 0.0899393145	-2.1662981698	 2.8107283621	-0.216899
C	 0.0695687882	-0.8943075125	 2.481797548	-0.019959
N	 0.0289400322	-0.7799388011	 1.1120984563	-0.106829
H	 0.8762067456	 1.9197412596	 0.5358091217	 0.151125
H	-0.055612203	 1.950005114	-0.9715698452	 0.149913
H	-0.8916884293	 1.9052450874	 0.5905781465	 0.151088
H	-0.0661170325	-0.6395037724	-2.1263916475	 0.165924
H	 0.0825155609	-0.0622564565	 3.1653401484	 0.148894
