12
gdb 129014	4.09208	1.80636	1.25317	0.8777	72.76	-0.2489	-0.0933	0.1556	880.651	0.081578	-427.81814	-427.812517	-427.811572	-427.848086	22.282	
N	 0.0322111364	 1.2188680122	 0.0088369547	-0.067418
N	 1.075302832	 2.063798776	 0.0032072106	-0.094167
N	 2.2718485271	 1.5660602164	-0.0111088515	-0.279477
C	 2.3799955241	 0.2216100726	-0.0193623746	 0.351129
C	 3.4505854714	-0.6504286015	-0.0343839425	-0.277429
C	 2.8442321511	-1.9364015348	-0.0354553383	-0.007554
N	 1.4979695232	-1.9464757484	-0.0224770615	-0.32058
C	 1.1836708185	-0.6382088818	-0.0122929861	 0.390699
N	-0.0189417462	-0.1071490397	 0.0022408792	-0.258832
H	-0.8617013092	 1.6911787094	 0.0200480306	 0.309728
H	 4.5041507179	-0.4203638306	-0.0433542145	 0.126749
H	 3.3818705037	-2.8783291999	-0.0457674561	 0.127153
