18
gdb 78833	3.38348	1.26539	1.08982	2.2937	76.55	-0.2503	-0.0238	0.2265	1137.1944	0.147445	-401.888701	-401.880918	-401.879974	-401.921151	29.86	
C	 0.048034509	 1.5958222261	-0.0819902703	-0.422207
C	 0.1006946124	 0.0805860557	-0.11286392	 0.081576
C	 0.7723351376	-0.7210516945	-1.2524387675	-0.118067
C	 1.2133148734	-1.7058688882	-0.1048594611	-0.055023
C	 2.3252989331	-0.7559083232	 0.1517279382	-0.054155
C	 2.2389066877	-0.1730287136	-1.2670979985	-0.114239
C	 3.0912811758	-0.9599214993	-2.223935463	 0.159491
O	 3.871146582	-0.4757366116	-3.0044947768	-0.262296
N	 1.0111659731	-0.6046852852	 0.8694920683	-0.157859
H	 1.0339641245	 2.0519175109	-0.1976593534	 0.129499
H	-0.6002387648	 1.9721472599	-0.8807092986	 0.122491
H	-0.3641123418	 1.9312289462	 0.874770891	 0.132849
H	-0.8981034046	-0.3311034677	 0.0699601892	 0.089267
H	 0.2643544952	-0.9563999698	-2.1863067344	 0.086176
H	 1.0577873325	-2.7538535733	 0.1105128505	 0.107864
H	 3.2027395858	-0.8673106271	 0.7740192648	 0.112534
H	 2.4030742485	 0.8940154229	-1.4295441342	 0.087865
H	 2.9470820005	-2.063896578	-2.1624501843	 0.074232
