18
gdb 6389	3.6204	1.21049	1.0366	4.0703	65.33	-0.2381	0.062	0.3001	1164.3372	0.153257	-418.298942	-418.289445	-418.288501	-418.333323	34.124	
C	 0.0119620857	 1.571627999	 0.0542103086	-0.392892
C	-0.0275975278	 0.0376132005	 0.0040900618	 0.068255
C	-1.4527116121	-0.5089171915	-0.0049684698	-0.098533
O	-2.0605501562	-0.1041041291	-1.2294202273	-0.427987
N	 0.6652672857	-0.5028820349	-1.1602262299	-0.342494
C	 2.0375856366	-0.5482852818	-1.1956526104	 0.455302
N	 2.5613058366	-0.8814029836	-2.4428038106	-0.565857
O	 2.7443359712	-0.3059544043	-0.2326229517	-0.402459
H	 1.0497042247	 1.9115043731	 0.0497352102	 0.141215
H	-0.5124849733	 2.0010257309	-0.803840287	 0.12337
H	-0.4671382153	 1.9400920894	 0.9677368041	 0.106852
H	 0.4867644936	-0.3569277681	 0.8850233861	 0.109649
H	-1.4240196827	-1.6051926234	 0.0736768194	 0.093919
H	-2.0021583381	-0.1130129469	 0.8617783665	 0.092784
H	-2.9342613813	-0.5005479966	-1.2833880822	 0.292885
H	 0.155545461	-0.4259602494	-2.0276253895	 0.244584
H	 2.0101156573	-1.4921370858	-3.0276405668	 0.244468
H	 3.5343009543	-1.1425406676	-2.3869862414	 0.256939
