19
gdb 69840	3.02679	1.53586	1.23635	1.7939	73.65	-0.2519	0.0659	0.3179	1040.3212	0.160665	-423.003511	-422.995976	-422.995031	-423.034994	31.014	
O	-0.0935327121	 1.378025049	 0.130332866	-0.472374
C	 0.0039063685	-0.0149798774	-0.0202444338	 0.400261
C	-0.5174962429	-0.6087747032	-1.3008771556	-0.36186
C	-1.3241852411	-0.7244409148	-0.0165024465	-0.081903
C	-1.4323921996	-2.0448594351	 0.692124631	 0.040725
O	-1.0077325918	-3.2259441714	 0.0015243421	-0.256049
C	-0.2137482509	-2.7640285142	 1.1039786092	 0.040894
C	 1.1510933881	-2.1798375451	 0.7630737459	-0.259042
C	 1.156648739	-0.6379004876	 0.7447302188	-0.273083
H	 0.6312101884	 1.778499415	-0.3630987995	 0.279964
H	-0.8886531893	 0.0866211234	-2.0447757723	 0.112268
H	-0.0841509723	-1.5217967025	-1.6909364441	 0.129118
H	-2.193677551	-0.0817480015	 0.0616266729	 0.093968
H	-2.3404333932	-2.182162026	 1.278071594	 0.088575
H	-0.2614651948	-3.4138818334	 1.9772082794	 0.091107
H	 1.8939656185	-2.5282558979	 1.4869656599	 0.104131
H	 1.4579373901	-2.5744839475	-0.2112725236	 0.12248
H	 2.1111102427	-0.2841021622	 0.3331261912	 0.090955
H	 1.1000752436	-0.2553274975	 1.7716471949	 0.109862
