17
gdb 53129	5.81968	0.8508	0.82001	1.9532	81.48	-0.2297	0.0488	0.2785	1428.8783	0.134623	-384.566522	-384.558394	-384.557449	-384.601152	29.777	
C	 0.041838037	 1.5561354876	-0.0379646207	-0.49975
C	 0.0653843539	 0.1006247689	-0.0152917862	 0.110563
C	 0.0882407008	-1.1041815054	 0.000537715	 0.025466
C	 0.1067483812	-2.5540066965	 0.0272011256	-0.225582
C	-0.0037931254	-3.269277493	 1.4034621408	-0.083738
C	-1.5538911584	-3.0961808081	 1.4512331967	 0.093234
O	-1.8212780219	-4.5052615464	 1.7191348457	-0.327172
C	-0.7096390876	-4.5104246998	 0.7766380914	 0.066322
C	-1.2478445232	-3.3121331035	-0.0636099606	-0.08374
H	 0.8062945194	 1.9552736345	-0.7138217487	 0.148822
H	-0.9290113807	 1.9344981932	-0.3770546094	 0.147865
H	 0.2301016057	 1.9740296513	 0.9573297792	 0.147871
H	 0.8901448275	-2.9549084665	-0.6253960641	 0.095881
H	 0.6871849243	-3.2544593752	 2.2455439038	 0.09027
H	-2.1617864503	-2.3405234148	 1.9446418849	 0.104686
H	-0.2955579912	-5.4648465221	 0.4533874727	 0.09873
H	-1.9654182612	-3.345839104	-0.8825876663	 0.090271
