15
gdb 19460	4.06767	1.84017	1.70715	2.2476	63.87	-0.2713	0.013	0.2844	794.3989	0.121262	-362.656211	-362.649952	-362.649008	-362.686603	24.334	
N	-0.1157529183	-1.2425297821	-0.1420539698	-0.334171
C	-0.0769853467	-0.0883976332	-0.0806592991	 0.271335
C	-0.0093811662	 1.3581788733	 0.0159557359	-0.153356
C	-0.043335326	 2.0823186838	 1.3978083091	 0.069757
C	 1.0502136123	 1.3821442792	 2.2261339902	-0.229356
C	 2.1705483411	 1.4025806328	 1.1358172988	-0.229359
C	 1.359061763	 2.1079228632	 0.0330037419	 0.069757
O	 0.6877684311	 3.1743829787	 0.7663843726	-0.292082
H	-0.6972170873	 1.8362875449	-0.6818592417	 0.13652
H	-0.9782908791	 2.3792746293	 1.8699654903	 0.099195
H	 1.304338888	 1.9723861782	 3.1078683553	 0.118565
H	 0.7673683244	 0.3753465059	 2.5411047051	 0.127718
H	 3.0338988674	 2.0039258039	 1.4246592753	 0.118563
H	 2.5118318575	 0.4071668325	 0.8433647255	 0.127719
H	 1.8506303385	 2.4309226894	-0.8831232294	 0.099195
