22
gdb 82589	2.14202	1.94921	1.4868	1.7816	83.91	-0.2179	0.0675	0.2855	1033.5724	0.196322	-367.162837	-367.154801	-367.153857	-367.194883	32.412	
C	-0.1494822819	 1.5905783393	-0.0346633054	-0.430148
C	 0.0264005639	 0.0784537105	-0.0112891755	 0.044499
C	 0.9890308252	-0.653555186	-0.9668163323	-0.013747
C	 2.4487628973	-0.1591770669	-0.9592326303	-0.253762
C	 2.6473346968	-0.9775510382	 0.3315477701	-0.013755
C	 2.1177520099	-0.3301407687	 1.6261298074	 0.044501
C	 2.5348760817	 1.0661317289	 2.0670993704	-0.430154
C	 0.6950068572	-0.7087605237	 1.1435631757	-0.059391
N	 1.302343417	-1.6917617053	 0.1225611334	-0.163926
H	 0.8033347288	 2.124982957	-0.0427791038	 0.118352
H	-0.7055274359	 1.8975768668	-0.9275349588	 0.115892
H	-0.7151370745	 1.9342744331	 0.8383250554	 0.117663
H	-0.9587164064	-0.3851709169	-0.1461866766	 0.085373
H	 0.5851356721	-1.0042518106	-1.9197221797	 0.066589
H	 3.0174544649	-0.5821346444	-1.7911190461	 0.108265
H	 2.6365798978	 0.9185018353	-0.9302011523	 0.094532
H	 3.553351723	-1.5841793082	 0.4042356042	 0.06659
H	 2.3440706994	-1.0304568018	 2.439723201	 0.085375
H	 2.4685740078	 1.7996238746	 1.260179661	 0.118358
H	 1.9072038248	 1.4221685924	 2.8913961615	 0.117669
H	 3.5714566438	 1.0617993252	 2.4222473962	 0.11589
H	 0.0196653372	-1.1029000022	 1.9077842346	 0.065334
