19
gdb 40096	3.28846	1.50484	1.29967	0.6568	74.78	-0.2327	0.0795	0.3122	1034.8343	0.160542	-422.999969	-422.992553	-422.991609	-423.031886	29.588	
C	-0.4621241266	 1.284670175	-0.0213435019	-0.327853
C	 1.0207937082	 0.9342763151	-0.0251266605	-0.356247
C	-0.017525106	-0.136254387	-0.0671292163	 0.444864
O	-0.2238074444	-1.0521815157	 1.0139667674	-0.32941
C	-0.4326124275	-2.1508581937	 0.0890268741	 0.094314
C	-1.8817647277	-2.6192565518	 0.0174837307	-0.243382
C	-2.535464573	-1.5347343667	-0.8560947213	-0.08852
O	-1.5261749319	-1.1446557654	-1.7920157804	-0.258253
C	-0.2827916312	-1.2017494087	-1.129520447	-0.042406
H	-0.8847469682	 1.6389686243	 0.9128802819	 0.123253
H	-0.9058165985	 1.7077213076	-0.916553563	 0.126099
H	 1.6034120365	 1.1290472215	-0.9202036568	 0.115566
H	 1.5611590121	 1.0579957384	 0.9072668851	 0.124324
H	 0.300007022	-2.9471713026	 0.2414316177	 0.082138
H	-1.9251897091	-3.5939479594	-0.48006491	 0.10813
H	-2.3347941661	-2.7082042929	 1.0074209817	 0.116803
H	-3.3987451393	-1.8828393695	-1.4275767066	 0.109498
H	-2.8419365524	-0.6778780017	-0.2412344165	 0.110106
H	 0.4992632931	-1.3683805468	-1.8713961282	 0.090975
