14
gdb 5172	5.82977	1.43658	1.15257	5.0817	68.14	-0.1898	0.0074	0.1972	965.7687	0.108947	-378.77639	-378.769163	-378.768218	-378.808614	26.359	
O	-0.3544862585	 0.0887720554	 0.0068062724	-0.301605
C	-0.0942125189	 1.2703900993	 0.009465538	 0.144816
N	 1.1637339754	 1.809635914	-0.0009166887	-0.409492
C	 2.3629004404	 1.0885634115	-0.0167670663	 0.416322
C	 2.622219987	-0.2631695669	-0.0315331917	-0.219964
C	 4.0407227959	-0.4056850196	-0.0432416232	-0.127431
C	 4.5963384696	 0.8476561091	-0.0356684914	-0.098874
N	 3.5613774257	 1.7611680982	-0.019183812	-0.32806
H	-0.8641307544	 2.0663108696	 0.0208153607	 0.078517
H	 1.2211386557	 2.816214395	 0.0012578399	 0.247115
H	 1.8745324992	-1.0356398146	-0.0331143263	 0.130657
H	 4.5857456471	-1.3367747242	-0.0560829433	 0.096353
H	 5.6212004125	 1.1795754315	-0.0403080435	 0.117073
H	 3.6747536231	 2.7595113318	-0.0095040047	 0.254574
