15
gdb 43253	3.58923	1.64168	1.41345	3.8193	72.22	-0.2384	-0.0702	0.1683	905.5832	0.114547	-420.588588	-420.582362	-420.581418	-420.6191	25.397	
O	-0.0481464553	 0.0518146117	 0.3510430729	-0.338928
C	-0.031757704	 1.2153814558	 0.0269827664	 0.413128
C	-1.1990304715	 2.1507773215	-0.0943611641	-0.208705
C	-0.7462484775	 3.3662693998	-0.450782893	 0.094851
C	-0.7804123311	 4.562136673	 0.4669461913	-0.126837
O	 0.4164630562	 4.2219734239	 1.2304360826	-0.261164
C	 1.3253472167	 3.5739190697	 0.3555703513	 0.108956
C	 1.1820769602	 2.0826572195	-0.1955901978	-0.211079
C	 0.69572713	 3.3043448302	-0.9385439818	-0.182687
H	-2.1345916478	 1.940046977	 0.410934173	 0.123319
H	-0.648890313	 5.5358176962	-0.0187290856	 0.11307
H	-1.6240014768	 4.5864381233	 1.1568744281	 0.132985
H	 2.3473774081	 3.9030287575	 0.5071330849	 0.122123
H	 2.1268170547	 1.6010276972	-0.4229609048	 0.106818
H	 1.0057287512	 3.6171962135	-1.9285327034	 0.114151
