14
gdb 129623	3.12219	1.37275	1.02431	3.056	66.73	-0.2271	-0.0507	0.1764	1088.0259	0.099671	-469.997301	-469.989065	-469.988121	-470.030489	29.544	
N	-0.3396204909	 1.370300211	-0.128251004	-0.590273
C	-0.119927422	 0.0399113512	 0.0019483892	 0.400381
C	-1.0232973043	-1.0109354189	 0.0777966681	 0.161787
C	-2.5204077891	-0.9764042197	 0.0054294365	-0.390995
C	-2.916991688	-0.3940299756	-1.3415937643	 0.143537
O	-2.865339232	 0.790183792	-1.5863721155	-0.251827
N	-0.2747940926	-2.1365745356	 0.2464036572	-0.14555
N	 0.9507795409	-1.9135784459	 0.2944821238	-0.047954
O	 1.1055708374	-0.4202813067	 0.1281555292	-0.230959
H	 0.4529452722	 1.9373050992	-0.3850157978	 0.273985
H	-1.2279047991	 1.6216690471	-0.5473105196	 0.288216
H	-2.9059825273	-1.9915520244	 0.1222255283	 0.142097
H	-2.9446283547	-0.3412454732	 0.7932976322	 0.138836
H	-3.2103149305	-1.1194795905	-2.1281920534	 0.108718
