17
gdb 24484	3.79201	1.58177	1.12387	0.667	89.7	-0.2124	-0.0178	0.1946	1046.2454	0.140078	-347.645969	-347.639578	-347.638633	-347.676434	26.763	
C	-0.0470857404	 1.5156551506	 0.0105290158	-0.391152
C	 1.4119620631	 1.9068520445	-0.0009878026	-0.093225
C	 2.1959868204	 0.8156257882	-0.0144747628	-0.171321
C	 1.3666213658	-0.3914971284	-0.0134052796	 0.291294
C	 1.7062618706	-1.7418487598	-0.0241351782	-0.26245
C	 0.6831515485	-2.6902920708	-0.0198100144	-0.097706
C	-0.6550577674	-2.2960081651	-0.0050275465	-0.113806
C	-0.9976811756	-0.9401854078	 0.0057617334	-0.238735
C	 0.0136172789	 0.0058569042	 0.0015339615	 0.256457
H	-0.5692056	 1.9070465661	 0.8944942539	 0.129201
H	-0.5856935198	 1.9168447848	-0.8590334537	 0.129202
H	 1.748185167	 2.9358912006	 0.0016036786	 0.100285
H	 3.2794070559	 0.8068343498	-0.0247143757	 0.098249
H	 2.7459447151	-2.0536868084	-0.035653186	 0.090695
H	 0.930605057	-3.7469016793	-0.0280357826	 0.091998
H	-1.437576156	-3.0475596615	-0.0018679324	 0.091729
H	-2.0417606931	-0.6413707277	 0.0172446212	 0.089285
