14
gdb 22860	3.16156	1.3798	0.96664	0.4999	70.8	-0.2354	-0.0896	0.1457	1126.0666	0.101199	-469.990723	-469.982557	-469.981613	-470.023434	30.254	
N	 0.0148215015	 1.310711682	 0.1133324972	-0.570584
C	-0.0239871874	-0.040800752	 0.0419933571	 0.314592
N	-1.0745924343	-0.7825944701	 0.0156798984	-0.305814
C	-0.6731619804	-2.1942131429	-0.0068772924	-0.240169
C	 0.8408261806	-2.2139150103	-0.0103170951	 0.285619
N	 1.5134862738	-3.3011931758	-0.0312231008	-0.206525
O	 2.8773147762	-3.1067143099	-0.0344811136	-0.343831
C	 1.2829495091	-0.7878180528	 0.0122091129	 0.265872
O	 2.3845483512	-0.2889239918	-0.0082437742	-0.323811
H	 0.9039739431	 1.7464153508	-0.0723651693	 0.272166
H	-0.8236471531	 1.8360245169	-0.0690365408	 0.266191
H	-1.0861716833	-2.7161584941	 0.864850097	 0.134116
H	-1.0879084955	-2.6884031557	-0.8936826116	 0.133408
H	 3.2178074184	-4.0094718742	-0.0485839449	 0.318772
