18
gdb 116024	2.38386	1.59309	1.1625	4.533	77.08	-0.214	-0.0293	0.1847	1101.164	0.148498	-439.105798	-439.097087	-439.096143	-439.13931	31.944	
C	-0.0113006254	 1.363307919	 0.2191929468	-0.239514
O	-0.0105231864	-0.023411233	-0.0727290715	-0.254998
C	-1.2958977712	-0.6241738306	-0.0610123881	 0.028024
C	-1.1746361365	-1.9831239991	-0.7414134551	-0.205128
N	-0.4689548204	-2.9300714145	 0.1067491197	-0.273325
C	-0.7071180941	-2.9350532936	 1.439259974	 0.03719
C	-1.3717225233	-1.9448006495	 2.0947618023	-0.228428
C	-1.7910595636	-0.7455073831	 1.4017056343	 0.353284
O	-2.4013669991	 0.1823345854	 1.913325497	-0.374495
H	 1.0265886983	 1.697006856	 0.1456746584	 0.120614
H	-0.621299101	 1.9204509087	-0.5082618787	 0.104108
H	-0.3964732254	 1.5766250686	 1.222587348	 0.138841
H	-2.0163682343	-0.0035173804	-0.6137029022	 0.081008
H	-2.1905933313	-2.3500049448	-0.9582598167	 0.114112
H	-0.6346821272	-1.870594711	-1.6852630383	 0.123563
H	-0.102679717	-3.763617744	-0.3194020084	 0.255894
H	-0.3173777593	-3.7977770475	 1.9721819135	 0.121664
H	-1.5426949627	-2.0142929766	 3.161120695	 0.097584
