18
gdb 84617	2.67188	1.53889	1.18514	2.4383	78.28	-0.2458	-0.0366	0.2092	1078.078	0.147903	-401.946574	-401.938505	-401.93756	-401.97899	30.968	
C	-0.11728482	 1.6060375456	-0.1382748756	-0.397391
C	-0.0057971016	 0.0754060094	-0.0646577201	-0.12033
C	 0.845348041	-0.5309740221	-1.1680355542	-0.075645
C	 1.823543181	-1.3113917708	-0.7061612396	-0.0625
C	 1.8360848109	-1.3233390438	 0.7852115553	-0.111523
N	 2.0794036201	-0.0051851149	 1.3843263179	-0.361256
C	 0.67943227	-0.4371723265	 1.203373554	 0.235836
C	-0.0787219013	-0.8057261241	 2.4179863182	 0.068234
O	 0.4330271301	-0.9842421366	 3.5010274686	-0.284065
H	 0.8685529896	 2.0597936335	-0.0121317045	 0.145808
H	-0.5265828077	 1.9209606769	-1.1032186224	 0.114272
H	-0.7776515918	 1.9899864345	 0.6458287592	 0.116028
H	-1.0205989976	-0.3504870032	-0.1098524681	 0.08384
H	 0.6632221979	-0.305659939	-2.2133883182	 0.102966
H	 2.5436107923	-1.8564312224	-1.3042938378	 0.107491
H	 2.0970386446	-2.2091319152	 1.355557562	 0.111605
H	 2.2816692615	-0.1389428931	 2.3781844951	 0.247817
H	-1.1753306192	-0.9176304382	 2.2730544401	 0.078812
