18
gdb 30374	2.65451	1.57462	1.00065	0.8515	85.15	-0.2057	-0.0352	0.1704	1172.6697	0.14954	-398.168583	-398.16012	-398.159176	-398.201665	31.146	
C	-0.0749646852	 1.3992091226	 0.1168137995	-0.322088
N	-0.0181289217	-0.0479141212	 0.0370163991	-0.35145
C	 0.5618549516	-0.5722033488	-0.9782288669	 0.395427
C	 1.2041222286	 0.0477859534	-2.1192958884	-0.205483
C	 1.7621699982	-0.7120402054	-3.0934245204	-0.001676
N	 1.771582167	-2.0869619558	-3.0912114844	-0.315576
C	 1.1953869797	-2.6374174288	-2.066888057	 0.116039
N	 0.6051921167	-1.9898451832	-1.0344350474	-0.112603
C	-0.0109186323	-2.7256359627	 0.062494211	-0.325284
H	 0.9223777634	 1.8646933974	 0.1506781271	 0.108634
H	-0.6174059125	 1.8529297373	-0.7272271204	 0.108582
H	-0.5993708347	 1.6847325466	 1.0328203973	 0.117168
H	 1.2278449333	 1.127548385	-2.1755388082	 0.109341
H	 2.2442192014	-0.2486954027	-3.9500136075	 0.113027
H	 1.165960673	-3.7226456896	-1.9998378245	 0.127239
H	 0.1034106116	-3.7953966597	-0.1196879837	 0.125934
H	 0.4616358667	-2.4478358722	 1.0072448188	 0.15646
H	-1.0686292749	-2.4634726222	 0.1376743058	 0.156309
