18
gdb 26678	2.32171	1.53603	0.93902	1.7631	75.87	-0.1669	0.0673	0.2342	1222.574	0.147962	-435.292485	-435.282546	-435.281602	-435.326866	36.45	
C	-0.0302129817	 1.5093443618	 0.0408931822	-0.514658
C	 0.007722103	 0.013796849	 0.0128139657	 0.194305
C	-0.0274483025	-0.7873777633	-1.1064985845	 0.135871
N	-0.1041759881	-0.5356490939	-2.4968892278	-0.614555
N	 0.0290739227	-2.114649844	-0.6847886012	-0.331401
C	 0.0980000009	-2.1489993361	 0.6708897986	 0.393889
O	 0.162730653	-3.3202732803	 1.3418171491	-0.443368
C	 0.0882139255	-0.8622883169	 1.1525735526	-0.038582
N	 0.1523198009	-0.6050129046	 2.5566468068	-0.627531
H	 0.8637666224	 1.9372474256	 0.5126641675	 0.115491
H	-0.0916534688	 1.9163682445	-0.9731471405	 0.106221
H	-0.893868783	 1.8910273743	 0.6006118035	 0.1155
H	-0.9495005323	-0.0375710417	-2.7546054377	 0.239157
H	 0.6839624095	 0.0048809868	-2.8371089741	 0.239157
H	 0.0175065744	-2.9062025321	-1.3040914607	 0.261612
H	 0.2032068291	-3.0613462584	 2.2746609152	 0.301442
H	-0.6603778573	-0.0924371689	 2.8871933882	 0.233725
H	 0.9654095123	-0.0484907917	 2.804906677	 0.233726
