20
gdb 92233	2.69459	1.78669	1.38335	2.943	76.78	-0.235	0.0635	0.2985	990.9922	0.174662	-403.124115	-403.116996	-403.116052	-403.15541	29.893	
O	 0.0533223323	 1.4518286629	 0.1441884977	-0.438287
C	-0.0011765072	 0.0634843382	-0.0304930549	 0.154138
C	 0.464339937	-0.8484229002	 1.1427823471	-0.273261
C	-0.8315839536	-1.6983173116	 1.0008955476	-0.017509
C	-1.8003028979	-1.779925672	 2.2033146992	-0.23475
C	-2.7344277904	-0.590108425	 2.0560492477	-0.029716
N	-2.053124096	 0.7231981184	 1.9967845405	-0.357992
C	-2.5147562455	 0.0684523941	 0.7401015888	-0.045909
C	-1.404549793	-0.6423782249	-0.0093110177	-0.070641
H	-0.4139739837	 1.6195857013	 0.9745902609	 0.289251
H	 0.5351735409	-0.1512739173	-0.9594156407	 0.08013
H	 1.4099751967	-1.3774170821	 0.9975775703	 0.090081
H	 0.5081985136	-0.2982133242	 2.0857542795	 0.106653
H	-0.6429679725	-2.6824328555	 0.5680769108	 0.068652
H	-2.3960735677	-2.6992692373	 2.1629589439	 0.098665
H	-1.2708076732	-1.775575228	 3.1623301747	 0.107606
H	-3.7162253873	-0.6216635119	 2.5185927299	 0.087405
H	-2.7160020958	 1.4501447217	 2.2544531011	 0.235131
H	-3.324028854	 0.54100586	 0.1940033889	 0.089429
H	-1.7669613527	-1.0077845268	-0.9734379752	 0.060924
