23
gdb 108194	2.99738	1.3266	1.22253	1.6687	83.83	-0.2347	0.0762	0.3109	1166.0144	0.208362	-388.313435	-388.305151	-388.304207	-388.346005	33.395	
C	 0.0453929989	 1.5493176225	 0.0382355709	-0.390542
C	-0.0567798355	 0.0185994451	 0.0019078199	-0.276057
C	-1.4791746971	-0.5305695312	 0.0035338703	 0.309996
C	-2.364949012	-0.1510537563	-1.2169113146	-0.246388
C	-3.5406190964	-1.1777828345	-1.1426427466	-0.221984
C	-3.1578115772	-2.0036370501	 0.0999612494	 0.103279
C	-1.6312537364	-2.0726888271	 0.0028047835	-0.269797
O	-3.3707444563	-1.1868365619	 1.2621220985	-0.283167
C	-2.3099885603	-0.2155738443	 1.2668461615	-0.096409
H	 1.0924147338	 1.8673124935	 0.0269372261	 0.113644
H	-0.4480337301	 2.0055890102	-0.8257232134	 0.119912
H	-0.4144637608	 1.9649974919	 0.9410548244	 0.119888
H	 0.4610300547	-0.3543647364	-0.891602654	 0.093805
H	 0.4831238868	-0.3987485743	 0.862277438	 0.093712
H	-2.7111976782	 0.884961002	-1.1676468878	 0.098753
H	-1.7958310553	-0.2605890464	-2.1462170634	 0.092057
H	-4.514486194	-0.7039317354	-1.0009841493	 0.105392
H	-3.5956650888	-1.8025571905	-2.0398441021	 0.093626
H	-3.7074958835	-2.9356887973	 0.2370069983	 0.068956
H	-1.2669687936	-2.5388235787	-0.9175373517	 0.092283
H	-1.1708173782	-2.5570812874	 0.8684367467	 0.09746
H	-1.715386847	-0.3275910635	 2.1851923458	 0.088195
H	-2.7357191235	 0.79548488	 1.2560255897	 0.093384
