20
gdb 96895	2.63423	1.31512	1.05302	2.4181	83.78	-0.243	0.03	0.273	1249.6619	0.168455	-403.133808	-403.123988	-403.123044	-403.168384	35.681	
C	 0.0211839977	 1.4081102504	-0.1290342628	-0.339761
N	-0.0778881495	-0.0446981147	-0.1339361942	-0.35216
C	 0.5678208389	-0.6957061761	-0.9835292274	 0.448841
O	 1.4028151829	-0.2567515981	-2.0217064836	-0.325352
C	 1.4921728082	-1.6262341585	-2.5205703949	 0.424873
C	 1.4327408954	-1.8178222015	-3.997423049	-0.488392
C	 2.1784770148	-2.4473860701	-1.4835199898	-0.373825
C	 0.6766182536	-2.1406619699	-1.3451969825	 0.084473
C	-0.3939084807	-3.1788586012	-1.1909082318	-0.490797
H	 0.5926701613	 1.8200376021	-0.9689855297	 0.126635
H	-0.9875007774	 1.8348140717	-0.1436196877	 0.124078
H	 0.4909643733	 1.7333135945	 0.8062616334	 0.126568
H	 2.3207308761	-1.3934427935	-4.4786414518	 0.138523
H	 1.3956098564	-2.8837876345	-4.2395449268	 0.129144
H	 0.5485371717	-1.3310161161	-4.4195688733	 0.135905
H	 2.387066891	-3.4790310631	-1.7542006501	 0.118569
H	 2.9047240305	-1.988108602	-0.8197180681	 0.123743
H	-0.496586032	-3.4784378971	-0.1427681405	 0.139648
H	-1.364091302	-2.7978732065	-1.5240371584	 0.132227
H	-0.1581920702	-4.0755393058	-1.772568691	 0.117059
