16
gdb 131512	3.03677	1.554	1.1202	2.3565	70.14	-0.2531	-0.0143	0.2387	1047.3715	0.12655	-437.880235	-437.872991	-437.872046	-437.912266	27.702	
O	-0.2067391524	 1.5164173708	-0.1551487923	-0.421682
C	 0.0705967305	 0.1317334629	 0.02562659	-0.021527
C	-1.2209177011	-0.7624472392	 0.1601279429	-0.237352
C	-1.3932790829	-1.5997839291	-1.1531387809	-0.36696
C	-0.0507341013	-1.3985507032	-1.7696481334	 0.394733
C	 0.7551406006	-0.5033389369	-1.148831639	 0.13251
C	 1.9219987192	-0.5087724989	-1.9575483789	-0.132304
N	 1.8100115444	-1.3444141311	-2.9660336367	-0.138543
O	 0.5243944022	-1.9242304993	-2.8469141761	-0.229307
H	-0.5491710395	 1.632017283	-1.0485499841	 0.276735
H	 0.6539966215	 0.0964920978	 0.9499409283	 0.099113
H	-1.1025468151	-1.4424405031	 1.0080208011	 0.11906
H	-2.0827349952	-0.1255336494	 0.3704774854	 0.119118
H	-1.6179109715	-2.6504488753	-0.9472820123	 0.134993
H	-2.1958053206	-1.225055061	-1.7990072283	 0.131478
H	 2.8425016412	 0.0498239721	-1.8592772357	 0.139935
