17
gdb 54993	3.20419	1.20479	1.071	1.8332	69.11	-0.2505	0.0253	0.2758	1150.7775	0.135887	-455.127093	-455.11858	-455.117636	-455.161063	31.251	
N	 0.5632760524	 0.2251888036	 0.3496407523	-0.527964
C	-0.6212664547	 0.2950236853	-0.3366182423	 0.397077
O	-0.7632310917	 0.8719263455	-1.3923673091	-0.353681
N	-1.6619408775	-0.3912822814	 0.3474297918	-0.179608
C	-2.7882664772	-0.862313541	-0.4545407685	-0.297931
C	-1.8299591403	-1.824558806	 0.1330616226	 0.267317
C	-0.870109576	-2.7956923572	-0.5531624394	-0.140339
O	-1.0732368265	-3.7563704264	 0.5080818355	-0.276755
C	-1.9650855874	-2.8760826088	 1.2273963881	-0.142928
H	 1.2933020378	 0.8425684062	 0.0328530768	 0.266554
H	 0.5359027336	 0.0104093073	 1.3326799489	 0.264503
H	-3.7661554829	-0.7210435762	-0.0024507775	 0.12342
H	-2.729306738	-0.6712807774	-1.5229153256	 0.145733
H	-1.1913653805	-3.1803712833	-1.5282470942	 0.115394
H	 0.1721000323	-2.4598208431	-0.6154053829	 0.121068
H	-1.5652743036	-2.5802983396	 2.2055496882	 0.107274
H	-2.9628071997	-3.3132364071	 1.3572917354	 0.110866
