15
gdb 129609	3.41736	1.17943	0.88624	4.0283	73.16	-0.2138	0.0066	0.2204	1232.1845	0.113225	-412.950821	-412.942297	-412.941353	-412.984872	30.911	
N	 0.1848487865	 1.0655547166	 1.2716429002	-0.599432
C	 0.0698673685	-0.0054394826	 0.3789328907	 0.215537
C	-1.0104643397	-0.3697162451	-0.4002426539	 0.310826
C	-2.3641752736	 0.246723472	-0.6011365539	-0.4816
C	-3.2834364378	-0.6194475708	-1.3333828701	 0.276756
C	-4.0111691876	-1.3496881174	-1.950797553	-0.421223
N	-0.5820987606	-1.5104878223	-0.9998675178	-0.227079
N	 0.6518494642	-1.8515106065	-0.6160132803	-0.128878
N	 1.0572756668	-0.927186842	 0.2182807396	-0.25489
H	 1.1078276882	 1.0630656083	 1.6905940834	 0.255493
H	 0.0226856826	 1.9666123569	 0.8377454472	 0.245399
H	-2.7884026473	 0.4979464742	 0.380437044	 0.16612
H	-2.2738351972	 1.20264211	-1.1374219566	 0.152187
H	-4.6773710813	-1.9799241256	-2.4869815639	 0.208754
H	-1.1000610016	-2.0948751158	-1.6384345454	 0.282031
