19
gdb 56984	2.86958	1.21953	0.96165	2.9068	79.29	-0.2619	0.0287	0.2906	1243.9303	0.160702	-382.045636	-382.037011	-382.036067	-382.079219	32.629	
N	-0.1443591788	 1.4286265068	 0.0527429681	-0.498852
C	 0.0241920868	-0.0189865136	-0.0929039936	-0.148651
C	 0.8052538866	-0.4015577245	-1.2909857034	 0.25934
N	 1.4350696378	-0.6565464203	-2.2270576113	-0.329705
C	 0.6797436225	-0.6018151996	 1.1667382478	 0.038513
C	-0.1102478018	-0.5143790165	 2.5143782822	-0.260705
C	 0.0460730381	-2.0329452292	 2.6763218736	-0.038324
C	-0.598181427	-2.7378058071	 1.5204960752	-0.276918
C	 0.7629164976	-2.1247143471	 1.3234650735	-0.065477
H	 0.7664694501	 1.8775798418	 0.0997851071	 0.239433
H	-0.6116033939	 1.8129367131	-0.7631171505	 0.243668
H	-0.974797248	-0.4554573595	-0.2050650632	 0.125667
H	 1.6707135318	-0.1497306507	 1.2771748746	 0.085817
H	 0.4186910649	 0.0723872492	 3.2669405723	 0.108548
H	-1.1375881784	-0.1435738019	 2.4452638654	 0.106444
H	 0.2849755466	-2.5430665632	 3.6008432919	 0.090804
H	-0.5978818179	-3.8216858352	 1.5714821568	 0.117658
H	-1.4853560433	-2.3227440866	 1.0468983692	 0.105006
H	 1.6167661963	-2.7271189659	 1.0401241543	 0.097735
