21
gdb 115392	3.24305	1.10002	0.97302	2.2008	75.13	-0.2492	0.08	0.3291	1297.4472	0.183062	-461.366859	-461.357827	-461.356883	-461.400582	34.285	
C	 0.0820347241	 1.3688951317	-0.0407923888	-0.243345
O	 0.0981819335	-0.0494706894	-0.0195215136	-0.234499
C	 0.7113367745	-0.5955506436	 1.0927207131	 0.231896
C	 0.5011828313	-2.1053917233	 1.0866814069	-0.237024
C	 1.3168758051	-2.7709860764	 2.2074393503	-0.233922
C	 2.7786386155	-2.2914733474	 2.1787065794	 0.143728
O	 3.4691170817	-2.7782044438	 1.0358145998	-0.446746
C	 2.8029120954	-0.7616803067	 2.1872158445	-0.111586
O	 2.1061187663	-0.2795971315	 1.0434166277	-0.279042
H	 1.0948221638	 1.7817021239	-0.092306391	 0.130995
H	-0.4785171167	 1.6641183393	-0.9299717001	 0.128655
H	-0.4216278899	 1.7724379278	 0.8504297073	 0.105265
H	 0.3034400018	-0.1480998717	 2.0235595649	 0.047888
H	-0.5658402247	-2.3242811746	 1.1884381313	 0.106316
H	 0.8180195824	-2.4796106352	 0.1073782106	 0.115928
H	 0.882553161	-2.5239152611	 3.1854754007	 0.092556
H	 1.2879331342	-3.8594562664	 2.1057960697	 0.110228
H	 3.3169813676	-2.6763244118	 3.0522967525	 0.079368
H	 3.2367280711	-2.1890017	 0.307499337	 0.287504
H	 2.3555369226	-0.3654464487	 3.1133513376	 0.090117
H	 3.8275891893	-0.389645971	 2.1048259202	 0.115716
