15
gdb 98013	4.72832	0.63102	0.55869	0.3077	76.67	-0.2646	-0.0591	0.2055	1887.1327	0.110826	-453.97309	-453.962627	-453.961683	-454.011785	34.185	
C	-0.0084043571	 1.4354166695	 0.0859915161	-0.34108
N	 0.1267252619	-0.00294576	-0.0359525208	-0.308861
C	 0.5210287114	-0.6061656528	-1.191618266	 0.259291
O	 0.7964556457	-0.0198289202	-2.2231389885	-0.354636
C	 0.587004304	-2.0614003799	-1.0835764793	-0.060506
C	 0.6558334254	-3.2643295071	-1.0410219303	 0.133925
C	 0.7193123175	-4.7190801224	-0.924921777	 0.262606
N	 1.1120580834	-5.3384632774	-2.0718743873	-0.517962
O	 0.4441043668	-5.302032396	 0.1051100747	-0.329605
H	 0.6622260623	 1.8310457011	 0.8563430993	 0.134368
H	 0.2562613748	 1.8723905442	-0.8771175224	 0.175705
H	-1.0371662176	 1.7154312916	 0.3368891607	 0.134368
H	-0.075442194	-0.5912756482	 0.7563551573	 0.264537
H	 1.3311906506	-4.819265669	-2.9042725843	 0.276569
H	 1.1814992649	-6.3430326534	-2.075464922	 0.271281
