21
gdb 93681	2.91091	1.19069	1.1175	2.0969	80.24	-0.252	-0.0012	0.2508	1210.0002	0.182076	-424.241874	-424.232537	-424.231592	-424.27537	36.485	
C	-0.0403325359	 1.5661398139	 0.0187395064	-0.428077
C	 0.0136251321	 0.0334755313	 0.0021062882	 0.345299
O	-1.3306134596	-0.4862263061	-0.0261477744	-0.466054
C	 0.6786821666	-0.4873072208	-1.2794735736	-0.224428
C	 0.9893311467	-1.9829858032	-1.1756958925	-0.236289
C	 1.9552129208	-2.2815931492	-0.0218432278	 0.097048
O	 3.325163157	-2.033681595	-0.3652541867	-0.439087
C	 1.5856421719	-1.5151436318	 1.2234782226	-0.113941
C	 0.7411502332	-0.4837877467	 1.2283042583	-0.095778
H	 0.9639925827	 2.0026241419	 0.0184053073	 0.113621
H	-0.5834752415	 1.9311193169	-0.8577372694	 0.123314
H	-0.5609364287	 1.9241621893	 0.9146985071	 0.102732
H	-1.7131652694	-0.3666480584	 0.8496761925	 0.274946
H	 0.0087771994	-0.2863931116	-2.1212236367	 0.106232
H	 1.598709181	 0.0826187791	-1.4598772136	 0.083597
H	 0.0518258698	-2.521812882	-1.0019560884	 0.114336
H	 1.4277053545	-2.3607046979	-2.1040302162	 0.098138
H	 1.9297128191	-3.355922641	 0.1944953122	 0.088062
H	 3.4541849324	-1.0793605751	-0.3615545507	 0.277134
H	 2.0855604791	-1.8178460379	 2.1406809116	 0.096102
H	 0.5320074887	 0.0386062141	 2.1620565538	 0.083092
