15
gdb 1609	3.70769	2.11191	1.59957	1.1384	57.91	-0.2489	-0.0945	0.1544	804.408	0.122012	-345.680996	-345.672767	-345.671823	-345.713823	28.006	
C	 0.2613937254	 1.2768001276	 0.3469361207	-0.40201
C	-0.0032680887	-0.165824073	-0.1439959723	-0.07133
C	-1.4902026533	-0.5224656214	-0.1044243004	-0.391196
C	 0.5642182819	-0.3160211732	-1.5411074284	 0.2922
O	-0.0871609966	-0.3382347406	-2.560537932	-0.284781
C	 2.0906949641	-0.4484527701	-1.682665685	 0.092834
O	 2.8512064104	-0.5166790945	-0.7531815016	-0.220056
H	 1.3279745784	 1.5138700984	 0.3432624264	 0.138635
H	-0.2625200501	 2.0029567057	-0.2832490655	 0.128852
H	-0.1069354061	 1.3887242501	 1.3706042659	 0.128411
H	 0.5725478891	-0.8381768723	 0.503820289	 0.109192
H	-2.0623830434	 0.1275754589	-0.7718943728	 0.13387
H	-1.6619370523	-1.5544911428	-0.4231108576	 0.122912
H	-1.8805752283	-0.4071724824	 0.9108873928	 0.114336
H	 2.4144205395	-0.4957499205	-2.7444299395	 0.108133
