18
gdb 35783	2.45093	1.54904	1.44201	4.4407	74.79	-0.2436	0.0356	0.2792	1010.0646	0.151565	-398.114512	-398.106864	-398.10592	-398.146673	29.686	
N	-0.1908738251	-1.2018535704	-0.4715097657	-0.34166
C	-0.1268626161	-0.0798284321	-0.1996745513	 0.282952
C	-0.005740578	 1.3830833178	 0.0279734677	-0.146123
C	-0.6989730963	 1.8599247453	 1.3229324916	-0.203513
C	 0.1531226838	 1.6443167839	 2.5544703818	-0.017613
N	 0.6724377091	 0.2901296614	 2.7640692651	-0.320328
C	 1.6099839493	 1.3734321273	 2.4169046673	-0.014772
C	 2.2424034165	 1.2826051289	 1.0364938983	-0.178176
N	 1.3696513125	 1.8725477841	 0.011230657	-0.289706
H	-0.5258353238	 1.8526934584	-0.8143641917	 0.127911
H	-0.8775040492	 2.9340791041	 1.2081895244	 0.114291
H	-1.669966558	 1.3660719992	 1.4339204457	 0.120031
H	-0.1686122989	 2.2070538123	 3.428709385	 0.085965
H	 0.721174927	 0.06707213	 3.7537631821	 0.234102
H	 2.2608254102	 1.7413117809	 3.2055124653	 0.088828
H	 3.1796737032	 1.8483569707	 1.0236403325	 0.105801
H	 2.4832542109	 0.2271993501	 0.8347288258	 0.119697
H	 1.7759041629	 1.7201299981	-0.9052931409	 0.232312
