19
gdb 33024	4.47839	0.84916	0.7607	1.3416	85.58	-0.2398	0.0022	0.242	1498.8156	0.161264	-385.95551	-385.947041	-385.946097	-385.989506	31.618	
O	-0.0638087301	 1.4607014487	 0.0107270536	-0.417812
C	 0.0281481455	 0.0450968267	 0.0027838908	-0.05916
C	-1.3963707548	-0.5147650118	 0.0119191222	-0.297833
C	-1.4147857015	-2.0247115916	 0.0042549013	 0.30812
C	-1.4147732954	-2.7358365955	-1.1999033169	-0.188731
C	-1.3978724072	-4.1279981037	-1.2102618879	-0.091329
C	-1.3806345811	-4.8357016596	-0.0106471349	-0.120385
C	-1.3818337977	-4.1405618715	 1.1963947297	-0.091296
C	-1.3987802735	-2.7483510694	 1.2008016109	-0.18885
H	 0.8280076003	 1.8201945229	 0.0052850632	 0.286126
H	 0.5596203922	-0.3207674269	-0.8901767821	 0.089245
H	 0.5744791116	-0.3297810101	 0.8829400655	 0.089256
H	-1.9088620528	-0.1277255245	 0.8990666863	 0.110918
H	-1.9237402076	-0.1185590766	-0.8623805828	 0.110955
H	-1.4351325659	-2.1903053183	-2.1392538045	 0.089372
H	-1.4032765859	-4.6601999535	-2.1560939349	 0.093832
H	-1.3711328651	-5.9205800476	-0.0163704506	 0.094361
H	-1.374654237	-4.68259705	 2.136614477	 0.093832
H	-1.4065261742	-2.2126628779	 2.1459847039	 0.089379
