18
gdb 22267	2.21534	1.42535	1.01707	2.6514	72.38	-0.229	-0.0064	0.2226	1195.9533	0.143827	-476.159105	-476.149318	-476.148374	-476.193813	36.642	
C	-0.5146239239	 1.3848333895	 0.0788852604	-0.488068
C	 0.0644999188	-0.0007050142	 0.0182071415	 0.319276
N	 0.4863118135	-0.6334846377	 1.0542427904	-0.231018
O	 0.348022804	 0.1240530518	 2.2278498484	-0.393895
C	 0.1182957422	-0.7324429139	-1.2847024151	 0.235938
O	-0.3312442886	-0.0202388886	-2.4044531932	-0.453717
C	 1.1894685007	-1.7917028927	-1.5281750445	-0.380224
C	-0.2313690706	-2.2237404924	-1.2952539766	 0.120422
O	-0.6220684778	-2.8932983871	-0.1552900746	-0.419818
H	 0.2605973377	 2.1045115559	 0.3643721475	 0.144067
H	-0.9397389531	 1.6677444938	-0.8822046157	 0.140792
H	-1.2824087392	 1.4327633952	 0.8561941494	 0.154286
H	 0.7148741923	-0.4631412369	 2.8972884878	 0.307016
H	 0.4075536854	 0.4948414785	-2.749135981	 0.285243
H	 1.584010764	-1.8474156214	-2.5378382577	 0.11394
H	 1.9027797637	-1.95367965	-0.726973908	 0.130155
H	-0.8074588135	-2.5338533149	-2.16066738	 0.122339
H	-0.2255360056	-2.4235946349	 0.5994488211	 0.293268
