19
gdb 79359	2.73813	1.7889	1.58323	0.2819	73.31	-0.2313	0.0734	0.3047	931.4883	0.162608	-423.027406	-423.020368	-423.019424	-423.058506	29.001	
O	-0.0357540956	 1.3606986409	 0.0794651826	-0.439128
C	-0.0060799795	-0.0580359197	-0.0232258547	 0.101887
C	-1.4299557302	-0.5390427363	-0.197726956	-0.061718
C	-1.7006529314	-0.6252375615	-1.6930153217	-0.059227
C	-0.4192661956	-0.2185541929	-2.4084646898	-0.233076
C	 0.6414717723	-0.5478807835	-1.341262322	 0.049285
O	 0.8765243304	-1.9494863362	-1.2536636315	-0.280443
C	-0.30668928	-2.730355568	-1.0759996574	-0.091241
C	-1.5502044868	-1.8842006521	-0.8773268493	-0.07265
H	 0.8640794964	 1.6634249674	 0.2397841676	 0.282323
H	 0.5031083978	-0.5086250352	 0.8402458357	 0.067382
H	-2.185320654	-0.2131264999	 0.5069259656	 0.087654
H	-2.6670430123	-0.3606729454	-2.1053056933	 0.081178
H	-0.2296444344	-0.7665312379	-3.3366112505	 0.099539
H	-0.4213414768	 0.8537188974	-2.6262383543	 0.1111
H	 1.6177179075	-0.0941252897	-1.5302982287	 0.068233
H	-0.4353578513	-3.3795461911	-1.9552107291	 0.098714
H	-0.1492046272	-3.387873364	-0.209871028	 0.102165
H	-2.4500599792	-2.4546296524	-0.6681309254	 0.088023
