17
gdb 70202	3.68479	1.33614	1.15236	5.5344	68.59	-0.2716	0.0332	0.3048	1078.9608	0.136178	-458.994524	-458.986671	-458.985727	-459.026861	29.905	
C	-0.2702476925	 1.5547560575	 0.0580175287	-0.475013
C	-0.0218456695	 0.0641414885	 0.0182460519	 0.263429
C	-0.7317651528	-0.8688935587	 0.9852179949	-0.369124
C	 0.7479617761	-0.6197722252	 1.0997999173	 0.091994
O	 1.6849113622	-1.6227707082	 0.7534632045	-0.247081
C	 1.5539176574	-2.3419383939	-0.3841365705	 0.455135
O	 2.1826496938	-3.3390909585	-0.5643518367	-0.354106
O	 0.6545250339	-1.8944317303	-1.2929082617	-0.252308
C	 0.3054421112	-0.5026277247	-1.3442255378	-0.137992
H	 0.5759565762	 2.1109679165	-0.3611565034	 0.128358
H	-1.1659488811	 1.8213257682	-0.5145935528	 0.129239
H	-0.4209525446	 1.8989643653	 1.0851802371	 0.127337
H	-1.3720144127	-0.4298921497	 1.7425424754	 0.124319
H	-1.055967341	-1.8364465572	 0.6186603002	 0.143816
H	 1.1370128133	-0.0652594214	 1.9450522371	 0.118714
H	-0.5464643313	-0.4514961385	-2.028133395	 0.13146
H	 1.1377440213	 0.0570313404	-1.7923591392	 0.121822
