17
gdb 70716	2.3239	1.88615	1.24659	2.6973	68.97	-0.2466	-0.0304	0.2162	1005.5937	0.136142	-458.96248	-458.954699	-458.953754	-458.994603	30.324	
O	-0.0286904447	 1.3822761129	-0.0186974958	-0.475913
C	-0.0181087253	-0.0010644793	-0.0049656612	 0.36276
C	-0.4393386864	-0.7382207466	-1.2722124368	-0.350314
C	-1.3279113643	-0.7622429199	-0.0574133508	-0.126032
C	-1.4461671896	-2.0445583996	 0.7679715272	-0.09957
O	-0.4317948028	-2.1989496777	 1.7493325688	-0.238669
C	 0.877145833	-2.0455874629	 1.2292875195	-0.199165
C	 1.0712920597	-0.5930646599	 0.8128409116	 0.331583
O	 2.0003593774	 0.0968159071	 1.1837246466	-0.349249
H	 0.8250300963	 1.6371561061	 0.3665626477	 0.295951
H	-0.7160431041	-0.0834894642	-2.0903499408	 0.138197
H	 0.0766116365	-1.6487985974	-1.5609725407	 0.119733
H	-2.2090990024	-0.1305209903	-0.0958398233	 0.118518
H	-2.3864012775	-2.0478042715	 1.32443948	 0.125344
H	-1.4459528408	-2.9190902854	 0.0962630662	 0.097666
H	 1.5824178694	-2.2773560777	 2.0293596172	 0.141638
H	 1.0620787056	-2.7330815838	 0.3856157046	 0.107522
