18
gdb 39154	3.02488	2.05724	1.49154	1.1968	75.67	-0.2215	-0.0052	0.2163	895.7926	0.151184	-401.908606	-401.902257	-401.901313	-401.939046	26.565	
C	-0.0609625215	 1.4456028859	-0.2092345965	-0.211705
C	 1.4751957788	 1.555610421	 0.0797960992	 0.123272
O	 1.9102913294	 2.3543895368	 1.1878585652	-0.287239
C	 2.0702586113	 1.5207825788	 2.3663318309	-0.154882
C	 1.1770085127	 0.3683181693	 2.0338573527	 0.198401
C	-0.0436632406	-0.0016301312	 2.4165110972	-0.176536
C	-0.8213588075	-0.5065177764	 1.1999965779	-0.213079
N	-0.028075291	-0.0445102983	 0.0371822966	-0.113303
C	 1.3569016067	 0.1082565113	 0.5494459667	-0.090193
H	-0.6682197884	 2.016372403	 0.5004469364	 0.107487
H	-0.3687194443	 1.6853428037	-1.2304228797	 0.106998
H	 2.0932511143	 1.796473088	-0.7869393886	 0.084317
H	 3.1287553991	 1.2505181723	 2.4864384429	 0.102578
H	 1.7505760383	 2.0964335486	 3.2385701119	 0.118237
H	-0.4928526721	 0.163927701	 3.3892357289	 0.10222
H	-0.9308408008	-1.5992445896	 1.1689315127	 0.112741
H	-1.8328021112	-0.0839652815	 1.1680080001	 0.113694
H	 2.0885112668	-0.6588748927	 0.2760063454	 0.076993
