17
gdb 123722	3.54352	1.57615	1.10553	2.0172	78.9	-0.2255	0.0239	0.2494	1052.8708	0.140408	-380.913819	-380.90696	-380.906016	-380.945162	27.405	
C	-0.0044507919	 1.5343409543	-0.1321113546	-0.408449
C	 1.383048696	 2.0735143441	 0.1163125587	-0.046033
C	 2.4616291811	 1.3334106797	 0.3725780511	-0.049708
C	 2.4850681596	-0.1721461357	 0.4592882189	-0.37773
C	 1.1235445248	-0.7436596261	 0.2171894202	 0.301895
N	 0.8494257185	-2.0459805639	 0.2325190499	-0.316197
N	-0.4714593379	-2.1027100173	-0.0292108239	-0.186662
C	-1.0373191836	-0.8831095679	-0.2086161661	-0.158062
C	-0.0217977639	 0.0385876012	-0.0547316589	 0.190319
H	-0.70118414	 1.9786339313	 0.5946789138	 0.116348
H	-0.3597585206	 1.8863686501	-1.1123517631	 0.116335
H	 1.4821096929	 3.1556166549	 0.0772412298	 0.083335
H	 3.414717577	 1.8304731676	 0.5363647462	 0.084481
H	 3.207595066	-0.5767362718	-0.2638448704	 0.12469
H	 2.8651024068	-0.4837142446	 1.4427420146	 0.124691
H	-0.9208634163	-3.0010546856	-0.0706629082	 0.27158
H	-2.0885810685	-0.7731139302	-0.425415108	 0.129167
