16
gdb 11925	3.20074	1.86887	1.51738	2.1709	72.95	-0.226	0.0162	0.2422	891.5183	0.1284	-346.530302	-346.522495	-346.521551	-346.562079	29.65	
C	-0.0338535802	 1.5606773456	 0.0182262229	-0.48884
C	 0.0148829652	 0.0632016127	 0.0003812114	 0.189527
C	-0.8839398733	-0.8301939894	 0.8232559745	-0.378895
C	 0.6112368586	-0.9412551548	 0.9927135633	 0.279076
O	 1.1506001655	-1.7577223701	-0.0590432086	-0.321451
C	 0.7030377726	-0.7991343778	-1.0543245023	-0.128157
C	 1.3281798096	-0.7849594198	 2.2074565693	 0.240407
C	 1.9335870811	-0.6447545018	 3.2381041032	-0.430236
H	 0.9273850243	 1.9936170087	-0.2784123433	 0.12657
H	-0.8009320057	 1.940566763	-0.6672502113	 0.126138
H	-0.2732896922	 1.9312083946	 1.0196625161	 0.131302
H	-1.4073153585	-0.3288977634	 1.6310160574	 0.126089
H	-1.4091903674	-1.6692061046	 0.3741534525	 0.1189
H	 0.0747888346	-1.2617516371	-1.8246671822	 0.105145
H	 1.5622362338	-0.3043233213	-1.5228179397	 0.110398
H	 2.4695879821	-0.5272854046	 4.1471796466	 0.194026
