22
gdb 101854	3.02049	0.66476	0.60835	1.7566	83.86	-0.2453	0.026	0.2714	1947.9635	0.191056	-441.480089	-441.468886	-441.467942	-441.51771	39.128	
C	-1.22747889	 1.2520451091	 0.6585404381	-0.383264
C	-0.794510467	-0.2070456469	 0.501193966	-0.19042
C	-1.4541239528	-0.9049170975	-0.6892814014	 0.122761
O	-1.1393246014	-0.2883432679	-1.93357306	-0.42783
C	-1.0997678522	-2.3965111124	-0.771969534	-0.122434
O	-1.5058681082	-3.1106129164	 0.3926824447	-0.198764
C	-2.7262697859	-3.6882172273	 0.3592015972	 0.132989
N	-3.2203882733	-4.2070818754	 1.3912947113	-0.207934
C	-4.513965957	-4.8441685054	 1.2617138902	-0.314753
H	-0.6915116083	 1.7362841424	 1.4799084517	 0.114036
H	-1.0353704152	 1.8169369253	-0.2579243643	 0.12322
H	-2.2994986967	 1.3223166024	 0.8723753473	 0.119024
H	 0.2977784919	-0.2652960434	 0.3735200673	 0.083036
H	-1.0242301357	-0.7797986751	 1.4058766745	 0.128924
H	-2.5452430998	-0.8170874769	-0.5994841562	 0.091023
H	-0.1814199669	-0.1901113217	-1.9797430572	 0.281571
H	-1.5521934177	-2.8256303415	-1.6744100404	 0.114804
H	-0.0132826848	-2.5227845177	-0.8431874167	 0.106776
H	-3.2064045815	-3.6712688592	-0.6329196906	 0.075747
H	-4.9437243297	-4.7870034484	 0.2479283834	 0.095741
H	-4.4336667982	-5.9012267085	 1.5403277573	 0.128359
H	-5.2217752497	-4.3849486576	 1.9611945117	 0.127387
