14
gdb 43902	2.95222	1.39958	1.1217	1.8724	67.11	-0.2613	-0.0604	0.2009	1047.678	0.100342	-436.669151	-436.661616	-436.660672	-436.701626	27.66	
O	 0.0126040145	 0.176303697	-0.6923003725	-0.270007
C	 0.0100396504	 1.2567167278	-0.1909316077	 0.428096
C	-1.102043628	 2.1935779436	 0.3326710922	-0.420544
C	-0.0099177288	 3.2502311752	 0.6917808852	 0.128
C	 0.6555614013	 3.0189618595	 2.0689334981	-0.112046
O	 1.564892996	 2.0376829512	 1.5226055679	-0.273764
C	 1.1203193882	 2.2727618607	 0.1751363255	-0.049816
C	-0.1983483251	 4.6001912408	 0.2270276803	 0.199174
N	-0.3491551545	 5.6857938812	-0.142116698	-0.329663
H	-1.7659855138	 2.515623745	-0.4747252814	 0.166093
H	-1.7087302273	 1.8236833715	 1.1628122275	 0.150071
H	 1.1967798448	 3.8896300635	 2.4528990046	 0.137033
H	 0.0074707596	 2.6068588079	 2.8492824405	 0.126871
H	 1.9229907228	 2.5150908851	-0.5244554422	 0.120505
