17
gdb 17961	2.89805	2.43566	1.56165	1.6938	70.83	-0.2417	0.0115	0.2532	841.9517	0.14398	-363.855492	-363.848471	-363.847527	-363.88657	27.043	
C	-0.0063300701	 1.4796654227	-0.253746407	-0.264548
C	 1.3472597549	 2.1866324827	 0.0195117014	-0.135543
N	 1.9686201666	 2.0796701706	 1.3282730911	-0.205441
C	 1.359653876	 1.7213515969	 2.3652715212	 0.09775
O	 0.0097294101	 1.4795455285	 2.4948214587	-0.229215
C	-0.3375073875	 0.094960865	 2.5426244274	-0.137906
C	-0.1481823114	-0.5958596955	 1.2199806277	-0.049472
C	-0.0006851147	-0.0041714686	 0.033254344	-0.052167
H	-0.7953251704	 1.9784439638	 0.3097533805	 0.125796
H	-0.2238475658	 1.6312931234	-1.3176718396	 0.092204
H	 2.0921047662	 1.8142877231	-0.6948643684	 0.113736
H	 1.2357681684	 3.2559885776	-0.2038594365	 0.118421
H	 1.9097489728	 1.6129575257	 3.3047702238	 0.109559
H	 0.2473554854	-0.4193079949	 3.3223596209	 0.106992
H	-1.3861155818	 0.0682683233	 2.8625784176	 0.128672
H	-0.1294092496	-1.6824943997	 1.2761852922	 0.089361
H	 0.1572632709	-0.6517637847	-0.8267555153	 0.091802
