19
gdb 69283	3.82045	1.11519	0.98446	0.9015	91.32	-0.2184	-0.0167	0.2017	1256.7996	0.158639	-348.73261	-348.724153	-348.723209	-348.765186	33.48	
C	-0.0342724431	 1.5048872971	 0.0444232349	-0.483702
C	 0.0550773997	-0.0020078113	 0.0040419921	 0.346988
C	-0.791901874	-0.8255255226	 0.9420630621	-0.320639
C	 0.7158114236	-0.8122554617	 1.109696857	-0.192935
C	 1.4338979983	-1.9372017959	 0.4226542608	 0.215138
C	 1.2497827681	-1.878657656	-0.9089810205	-0.194363
C	 0.4434127335	-0.671952347	-1.3209883982	-0.323181
C	 2.1680470718	-2.9181175722	 1.1325287407	 0.209708
C	 2.791153677	-3.7253271002	 1.7750899782	-0.427915
H	 0.8981088006	 1.9678904928	-0.2989723277	 0.117326
H	-0.8432524164	 1.8719252869	-0.5986428585	 0.117971
H	-0.2321074243	 1.8646498708	 1.0590529584	 0.115818
H	-1.3781876687	-0.2808186565	 1.6756509746	 0.108073
H	-1.2513963944	-1.7420756567	 0.5850308697	 0.111424
H	 1.1513183857	-0.3573432367	 1.9922329902	 0.090156
H	 1.6213897608	-2.6123513058	-1.6139865513	 0.099029
H	-0.4327123554	-0.9449163975	-1.9242382408	 0.112743
H	 1.0421737855	 0.0064790083	-1.9465952673	 0.108688
H	 3.3398612916	-4.4462628659	 2.3284256856	 0.189673
