17
gdb 61177	3.50517	0.84215	0.77682	5.4802	73.4	-0.306	0.0024	0.3084	1456.8177	0.134173	-418.032542	-418.022547	-418.021603	-418.06819	34.806	
C	-0.1090123832	 1.5979379972	 0.0981434338	-0.420045
C	-0.0229116073	 0.0629084665	-0.0119304074	-0.158328
C	-1.3662345301	-0.5223419884	 0.0481151883	 0.277415
N	-2.4253919731	-0.9796208637	 0.1082158083	-0.310685
C	 0.7000850093	-0.4386617894	-1.2989253578	 0.130222
O	 0.0959083048	 0.0375009797	-2.4758020793	-0.410875
C	 2.2124167554	-0.1172503634	-1.2455705586	-0.395851
C	 2.9315219862	-0.6603461114	-2.3949232351	 0.276232
N	 3.5091049946	-1.090603033	-3.297690994	-0.290822
H	 0.8872526151	 2.0470715103	 0.1281810627	 0.129732
H	-0.6655119022	 2.0168287569	-0.744398495	 0.144615
H	-0.6322312736	 1.8833128892	 1.0129696414	 0.155135
H	 0.5315365251	-0.3255395586	 0.8521767382	 0.131141
H	 0.5860665233	-1.5258669294	-1.3420685123	 0.137602
H	 0.270487843	 0.9805039877	-2.5691181105	 0.292876
H	 2.3738474254	 0.967089659	-1.2166835594	 0.151482
H	 2.6518911272	-0.5272178392	-0.3290749734	 0.160154
