22
gdb 110070	2.09509	1.29683	1.01842	3.742	84.89	-0.2439	0.0102	0.2541	1322.8827	0.191526	-404.362101	-404.351573	-404.350629	-404.39718	38.334	
C	 0.4871166327	 1.5448633799	 0.05685228	-0.387473
C	 0.0621159793	 0.0769036498	-0.0822034675	-0.205926
C	 0.5604496614	-0.5451314114	-1.3707374005	-0.038006
N	 1.876404775	-1.1456442171	-1.4854688692	-0.089816
C	 2.9134920383	-1.1701559515	-0.5896109929	 0.140111
O	 3.3081150586	-0.2295903405	 0.0642312801	-0.308383
C	 0.7288470391	-2.0347288481	-1.6123563717	 0.262666
C	 0.4434429994	-3.0346875304	-0.507181912	-0.453916
C	 0.4774354252	-2.567499242	-3.0108247874	-0.44155
H	 1.5763695153	 1.6161077516	 0.090947911	 0.160334
H	 0.1239022005	 2.1425647958	-0.7866047324	 0.108278
H	 0.0785391955	 1.9806142277	 0.9735250412	 0.109367
H	 0.423208994	-0.4883394753	 0.781219024	 0.110107
H	-1.0333864388	 0.0018684896	-0.0762421521	 0.099932
H	 0.2850381833	 0.0320686825	-2.2555469319	 0.092771
H	 3.4235244824	-2.1538192428	-0.5846353468	 0.079369
H	 0.6601887292	-2.6355693793	 0.4854325139	 0.132479
H	-0.6093877432	-3.3352033141	-0.5330681734	 0.128786
H	 1.0439777325	-3.940458274	-0.6450986264	 0.126844
H	 1.0878156664	-3.4568214694	-3.2034635947	 0.122726
H	-0.5736909178	-2.8509235812	-3.1312038091	 0.12167
H	 0.7248625217	-1.8169494598	-3.7652561421	 0.12963
