17
gdb 114479	3.39437	1.35246	1.2423	3.6213	66.79	-0.2484	0.0437	0.2921	1040.1657	0.135788	-458.874291	-458.866792	-458.865847	-458.906577	29.008	
O	-0.0384951901	 1.4886340341	-0.1927560302	-0.421867
C	 0.1028511996	 0.1214940609	 0.1613545487	-0.098822
C	-1.2466785087	-0.569179748	 0.0889135355	 0.130055
O	-1.8115604483	-0.5401726063	-1.2631010729	-0.320845
C	-2.1137388041	-1.9426060486	-1.2121672962	 0.09846
C	-1.0560775233	-2.9035059178	-1.8346109277	-0.010085
O	 0.232731615	-2.3473909051	-1.5911048877	-0.216676
C	-0.3955896322	-3.0429172388	-0.5159019552	 0.013863
C	-1.4312174273	-2.1068138532	 0.1639111924	-0.178789
H	-0.3886078836	 1.4975349979	-1.0911833816	 0.293698
H	 0.8301208084	-0.3886806377	-0.4773900162	 0.120224
H	 0.4654616866	 0.0993314896	 1.195848857	 0.101931
H	-1.9400556013	-0.053972353	 0.767152044	 0.087226
H	-3.1614817944	-2.1822763742	-1.4085603106	 0.087309
H	-1.1508276825	-3.5859302787	-2.6718819598	 0.109951
H	 0.1489798271	-3.8714758722	-0.0778829135	 0.11361
H	-1.9490853308	-2.5278105389	 1.023509294	 0.090757
