20
gdb 88793	2.65039	1.36697	1.07783	3.4814	79.56	-0.2366	-0.0153	0.2213	1193.4358	0.17046	-403.13181	-403.122846	-403.121901	-403.165967	33.483	
C	 0.1125893492	 1.4269631318	-0.388078783	-0.424283
C	 0.0933966209	-0.0274828614	 0.0150372827	 0.005843
N	 1.3739062132	-0.7597188937	 0.0902812283	-0.34301
C	 0.5737390385	-0.572147541	 1.3148426141	-0.029234
C	 1.2017378072	 0.2183100332	 2.4452704702	-0.138842
C	 2.1182544	-0.6415236616	 3.3841499434	-0.241564
C	 3.3909155608	 0.0459191974	 2.8073454477	-0.317323
C	 2.471432899	 1.0467142137	 2.1058300499	 0.416474
O	 2.650107455	 2.1209049428	 1.609818812	-0.298528
H	 0.9219686918	 1.9753971224	 0.0951331777	 0.16958
H	 0.233948256	 1.5157774014	-1.473161126	 0.116361
H	-0.8382326448	 1.9018147539	-0.1203521943	 0.109628
H	-0.7402066665	-0.5874341843	-0.4105049746	 0.080345
H	 1.2717477238	-1.7036663817	-0.2709224446	 0.229072
H	 0.0249866767	-1.4404928844	 1.6822295437	 0.083824
H	 0.4364020066	 0.8072008209	 2.9631338656	 0.098789
H	 1.96003427	-0.4307610174	 4.4434843857	 0.110722
H	 2.0545624604	-1.7193713225	 3.2250503986	 0.103642
H	 4.1205444484	 0.4681865922	 3.5024300497	 0.124534
H	 3.9163925337	-0.5723352618	 2.0726996831	 0.14397
