18
gdb 11046	3.88634	1.6895	1.4049	1.8092	67.09	-0.2512	0.0751	0.3263	916.4203	0.15436	-384.933617	-384.926005	-384.925061	-384.964967	30.171	
O	-0.0557197425	 1.461487991	 0.0363329659	-0.436832
C	 0.0001241283	 0.0420795213	-0.0161372304	 0.129375
C	 0.6730812024	-0.5972558477	 1.2270146078	-0.272885
C	-0.0139371015	-1.9658032181	 1.4078856266	-0.278722
C	-1.4119462417	-1.7688127523	 0.8313317796	 0.402465
O	-2.1058999956	-2.9021632194	 0.4024516588	-0.473613
C	-2.180026313	-0.5448960982	 1.2568404532	-0.348574
C	-1.3946198335	-0.5462455752	-0.0442845497	-0.069573
H	 0.8468506171	 1.7944005646	 0.0024893831	 0.279149
H	 0.5276202744	-0.2780454115	-0.9291933322	 0.065747
H	 1.7586791651	-0.6793409876	 1.1203288167	 0.093149
H	 0.4803876238	 0.0546952576	 2.0851741466	 0.111772
H	 0.4847036106	-2.7402997824	 0.8140716375	 0.10844
H	-0.0151277867	-2.3033412024	 2.4511838129	 0.09035
H	-2.4920852771	-3.3244084692	 1.1773916549	 0.280876
H	-3.2569034057	-0.6053492008	 1.145775618	 0.11155
H	-1.8419152157	 0.0617643036	 2.0899527828	 0.114498
H	-1.9550382987	-0.5282994531	-0.971090632	 0.092829
