18
gdb 68894	2.459	1.83924	1.28202	2.4729	72.65	-0.2311	0.0158	0.247	1010.7473	0.147447	-439.081475	-439.073152	-439.072207	-439.113806	32.295	
C	 0.0385537452	 1.5780596579	 0.0777530029	-0.447618
C	-0.0650683368	 0.0725935874	 0.1337791431	 0.295979
C	 1.1454477638	-0.7798519845	-0.2548617938	-0.389425
C	 0.6824673544	-0.7170404947	 1.1755124529	 0.305076
O	 1.447750777	-0.0120280866	 2.111990429	-0.459484
C	-0.0798372102	-1.8692547201	 1.8020929959	-0.138518
O	-1.0765263573	-2.433188726	 0.9427349535	-0.226861
C	-1.71504459	-1.5737446615	 0.1070476334	 0.106732
N	-1.3479433107	-0.4302862411	-0.2867796341	-0.301318
H	 1.0158328765	 1.9170094983	 0.4257514588	 0.121669
H	-0.1211941466	 1.9261500513	-0.9471985197	 0.123207
H	-0.7275351722	 2.0361679356	 0.7111775046	 0.122508
H	 0.9655443097	-1.6795761185	-0.8341048959	 0.124796
H	 2.0615510667	-0.2491337153	-0.4933823289	 0.116127
H	 2.2946774039	-0.4618135673	 2.208177448	 0.287584
H	 0.5817321866	-2.698075278	 2.0773721397	 0.110144
H	-0.5630750832	-1.4966798243	 2.7142692528	 0.123822
H	-2.6434677367	-2.0168063025	-0.2467638821	 0.125581
