19
gdb 51177	3.96118	1.01022	0.9074	3.0143	75.42	-0.2488	-0.0246	0.2243	1309.1958	0.158764	-423.03809	-423.029617	-423.028673	-423.072096	31.456	
O	-0.4197370376	 0.2162125344	 0.281233556	-0.240272
C	-0.0145989468	 1.3435662762	 0.1637842356	 0.159777
C	 1.4059818793	 1.712667529	-0.2253290862	-0.374198
C	 1.4372393429	 2.720526548	-1.351287389	 0.400033
C	 0.9888762935	 2.3396663106	-2.7554434949	-0.277916
C	 1.3899081201	 3.555891179	-3.6243707525	-0.21494
C	 2.6066851054	 4.1929677805	-2.9078239551	-0.24151
C	 2.3949363019	 3.8315163724	-1.4527116368	-0.008681
O	 1.052031023	 4.064055441	-0.9938906943	-0.304058
H	-0.6761898908	 2.2192668633	 0.3466321166	 0.096052
H	 1.8791218207	 2.1601663802	 0.6584717549	 0.128737
H	 1.9464311771	 0.7985592171	-0.4887167769	 0.121922
H	 1.5251336288	 1.4321143206	-3.0596497438	 0.107895
H	-0.0816351199	 2.1173475866	-2.8121702575	 0.113834
H	 1.6110393284	 3.2769041771	-4.6569035581	 0.101707
H	 0.5667040786	 4.2725681787	-3.6453912555	 0.123024
H	 3.5526778705	 3.7515411249	-3.2456114707	 0.105181
H	 2.6719438848	 5.2729340554	-3.0711090397	 0.112693
H	 3.1733614001	 3.9999755649	-0.7116777021	 0.09072
