23
gdb 52610	2.40201	0.97363	0.85229	1.2497	90.84	-0.2363	0.0668	0.3032	1541.5023	0.201316	-388.274277	-388.262297	-388.261353	-388.312423	42.819	
C	-0.0351978649	 1.4699240342	 0.0548727758	-0.498994
C	-0.0072984312	 0.0146520442	 0.0048192088	 0.02924
C	 0.030491111	-1.1885054238	-0.0303845377	 0.118826
C	 0.0437994909	-2.6565505287	-0.0766178801	 0.046857
C	-1.4142024973	-3.1656518437	 0.0067779513	-0.415032
C	 0.6790049471	-3.1122916763	-1.4099953551	-0.426308
C	 0.8702540409	-3.1694739412	 1.1540637781	 0.142412
C	 0.8679585829	-4.6880536661	 1.3474582903	-0.434875
O	 2.2020860175	-2.6730295308	 1.126483976	-0.433583
H	 0.776389157	 1.8609393522	 0.678629634	 0.148601
H	 0.077091408	 1.9061104203	-0.9441610566	 0.143477
H	-0.9794200876	 1.8389759488	 0.47102731	 0.142961
H	-2.0231555895	-2.6880849389	-0.7653357626	 0.122718
H	-1.4657306509	-4.2482559026	-0.1418740669	 0.11143
H	-1.8583552662	-2.9261711434	 0.9780141947	 0.119422
H	 1.7030575217	-2.7404860452	-1.503445247	 0.117348
H	 0.6863307771	-4.2037061986	-1.495941347	 0.109634
H	 0.1090340178	-2.7134997044	-2.2532569747	 0.125361
H	 0.4239459325	-2.7042699413	 2.0403086769	 0.093161
H	 1.2869124212	-5.2089382174	 0.478488017	 0.110555
H	 1.4866445947	-4.9334553397	 2.2149963007	 0.126318
H	-0.1360438105	-5.0821671409	 1.5230853845	 0.122772
H	 2.6953319177	-3.1835933567	 0.4760284395	 0.2777
