16
gdb 127867	3.7779	1.17063	0.90367	0.8872	80.54	-0.2446	-0.0602	0.1844	1267.4063	0.122772	-434.046904	-434.038135	-434.037191	-434.081347	30.749	
C	 0.0811047738	 1.4358983803	 0.0370558462	-0.336321
N	-0.0221867074	-0.0015751538	-0.0291715131	-0.262527
C	-1.1421645421	-0.6094842701	-0.0717659031	 0.302516
C	-2.4881139445	-0.010165095	-0.0627351142	-0.008918
N	-3.5937286283	-0.6553539919	-0.1068462171	-0.06734
O	-3.4904980097	-2.0519716942	-0.1690577196	-0.260461
C	-2.2503259024	-2.6222772145	-0.1776586831	 0.428454
C	-2.3627596593	-4.1119445006	-0.2462655463	-0.464222
N	-1.1331394084	-2.0112991544	-0.1347203667	-0.327674
H	 0.6821875232	 1.7828621553	-0.8119769456	 0.139645
H	-0.8578378543	 2.0066493663	 0.0404307309	 0.10295
H	 0.641724088	 1.705499514	 0.9402569153	 0.139601
H	-2.6289141688	 1.0641855792	-0.0152613424	 0.143217
H	-2.9045440095	-4.4090195522	-1.1495759314	 0.154731
H	-1.3636729711	-4.5451505616	-0.2522334298	 0.161614
H	-2.928358079	-4.4883146068	 0.6117613001	 0.154734
