17
gdb 77027	3.03924	1.00415	0.9144	1.6536	81.17	-0.2502	0.0298	0.28	1319.8107	0.132284	-384.601271	-384.591539	-384.590595	-384.636349	35.622	
O	-0.2065860256	 1.3942862513	 0.1132479087	-0.416554
C	-0.1313444247	 0.0093075863	 0.0332651686	 0.110096
C	-1.4059767452	-0.7821178998	-0.0420069135	-0.057102
C	-2.7536349425	-0.0793650122	 0.0092893836	-0.370749
C	-3.3444158764	-0.129482872	 1.3425405265	 0.300843
C	-3.8226650949	-0.1901706561	 2.4432986397	-0.442601
C	-0.5120192023	-0.6717094968	-1.2823329298	-0.288987
C	-0.8667513557	 0.1729353541	-2.3811130197	 0.305037
C	-1.1210217008	 0.9322990568	-3.2811644204	-0.445203
H	-0.042992105	 1.7597836573	-0.7655265806	 0.294851
H	 0.7072336981	-0.4166350922	 0.5801666582	 0.103991
H	-1.3885641498	-1.759073444	 0.4305839628	 0.107371
H	-2.6246268316	 0.9632270672	-0.2969014509	 0.147279
H	-3.4387048927	-0.5380499947	-0.7145325831	 0.134163
H	-4.2493005771	-0.2289537545	 3.4146194271	 0.193713
H	 0.0458708359	-1.5643645077	-1.5485121368	 0.120125
H	-1.3699968997	 1.5713512071	-4.0921187203	 0.203726
