21
gdb 89370	2.83331	1.52827	1.36302	1.2316	81.72	-0.2369	0.0148	0.2516	1055.2972	0.18424	-387.103754	-387.095862	-387.094918	-387.135367	33.071	
C	-0.1615019109	 1.5415270869	-0.0120641363	-0.414552
C	 0.0538459663	 0.0298050687	-0.0066049663	 0.053732
C	 0.9204104644	-0.5125647078	-1.1864724841	-0.245686
C	 2.0199513894	-1.3471611915	-0.4641039579	 0.403803
O	 2.6528299479	-2.2288230511	-1.3552823409	-0.50804
C	 1.2067863299	-1.9308484099	 0.7211251633	-0.276218
C	 0.8162439932	-0.5338245136	 1.2533069021	-0.076835
C	 2.1843732093	 0.1315836284	 1.3031220611	-0.076494
C	 2.8980970028	-0.3461180495	 0.2796198852	-0.161589
H	 0.7938523185	 2.0761712479	-0.0030225427	 0.116862
H	-0.7098570121	 1.8558300133	-0.906546694	 0.112745
H	-0.7388792813	 1.8646394658	 0.8618377311	 0.106467
H	-0.9269871199	-0.45875067	-0.0312178246	 0.070647
H	 0.348820767	-1.164099534	-1.8537651038	 0.102616
H	 1.3580763778	 0.2860204046	-1.79127714	 0.097348
H	 3.3388871873	-2.6987298649	-0.869476735	 0.273595
H	 0.355426252	-2.5377306255	 0.3965633219	 0.091027
H	 1.8285409279	-2.4989225576	 1.4191800138	 0.083308
H	 0.2306497555	-0.4908310342	 2.1729059058	 0.056622
H	 2.4621657517	 0.9268384518	 1.9837976288	 0.095673
H	 3.8714411434	-0.0261174578	-0.0733872174	 0.094971
