22
gdb 120964	3.39595	1.00108	0.9799	1.7174	82.31	-0.218	0.0835	0.3015	1361.8549	0.195163	-404.327422	-404.318604	-404.31766	-404.36132	33.654	
C	-0.0008940504	 1.4330237876	 0.8346694502	-0.385255
C	-0.0596292275	-0.0212376237	 0.3975691568	-0.041259
O	 0.776628555	-0.7788420721	 1.2512960167	-0.250148
C	 0.8560222341	-2.162126491	 0.9246207196	 0.091907
C	 2.0508870259	-2.7725952109	 1.6837375804	-0.244064
C	 1.4414132926	-3.3827631228	 2.9361309728	-0.016877
C	 0.4925051076	-2.5512710237	 3.7199240057	-0.248894
N	-0.0164256724	-3.5500463822	 2.761803745	-0.100563
C	-0.3516737059	-2.9873010979	 1.4421497097	-0.17726
H	 1.0262294731	 1.805793173	 0.7894430432	 0.12697
H	-0.6257768469	 2.0518928002	 0.1838625504	 0.115568
H	-0.3589559037	 1.5409227581	 1.8625756177	 0.126732
H	-1.0978170841	-0.3880603882	 0.4335264168	 0.089739
H	 0.2813968932	-0.1271737758	-0.646317322	 0.087019
H	 0.9707917457	-2.2616339696	-0.1646096061	 0.06689
H	 2.519526314	-3.5569583621	 1.0799809754	 0.104197
H	 2.8038080794	-2.0067504266	 1.8859058915	 0.118116
H	 1.9670696438	-4.2040437806	 3.415285966	 0.085005
H	 0.2967194709	-2.7952495258	 4.7604418979	 0.108043
H	 0.4129142016	-1.4995710436	 3.4637011671	 0.131891
H	-1.2656014617	-2.3884032558	 1.5002077555	 0.108854
H	-0.5465564643	-3.8273303664	 0.7651340395	 0.103391
