18
gdb 38013	3.45753	2.1344	1.7999	0.6395	81.22	-0.2084	-0.0334	0.175	819.2134	0.150652	-364.677402	-364.671616	-364.670672	-364.706975	25.966	
C	-0.080586498	 1.6319865098	-0.0223748727	-0.244291
C	 1.4599362685	 1.5673044265	 0.059995092	-0.021771
C	 2.0256096861	 1.3915720203	 1.4307682291	-0.124442
C	 1.6394034938	 0.2196585433	 1.9886878515	 0.034652
C	 2.6738691921	-0.882676829	 1.709303045	-0.264232
C	 1.7396083568	-1.0344067191	 0.447777492	 0.036457
C	 0.5163030272	-0.5569810863	 1.2685317184	-0.092182
C	-0.0231934147	 0.1131095966	-0.0043878426	 0.017322
N	 1.4024838937	 0.0973466895	-0.5587370184	-0.18994
H	-0.5922122058	 2.1479311412	 0.7907175295	 0.108789
H	-0.4290232947	 2.0102762151	-0.9860919272	 0.109938
H	 2.0381533866	 2.2529809162	-0.5591629098	 0.085052
H	 3.0402354969	 1.7457165497	 1.6052183743	 0.08723
H	 3.7147350412	-0.5754074428	 1.6009349253	 0.112008
H	 2.6038494795	-1.8095904392	 2.292917256	 0.103497
H	 1.751245963	-1.98579324	-0.091606465	 0.096631
H	-0.0803853059	-1.2341580837	 1.881597438	 0.073786
H	-0.7616586465	-0.4840544481	-0.5470941753	 0.071497
