21
gdb 119232	1.89163	1.35508	0.94182	2.8196	81.68	-0.2389	-0.0186	0.2203	1359.83	0.179195	-424.223801	-424.213478	-424.212534	-424.259431	37.098	
C	-0.0031131287	 1.5542802294	-0.1918899645	-0.386344
C	-0.1436417463	 0.0429971674	-0.2054856024	-0.0602
O	 0.912464936	-0.4849643686	-1.0136620467	-0.293148
C	 0.9044871296	-1.8574734629	-1.1714587164	 0.331232
C	-0.0790372825	-2.4812422462	-2.169956509	-0.355935
C	 1.3706063095	-2.3822453435	-2.5273991636	-0.058065
C	 1.8614505327	-1.4060963853	-3.5719617289	-0.402203
C	 1.2665394572	-2.6838216806	 0.0086557868	 0.12361
O	 1.5193311864	-2.2552464262	 1.107183337	-0.278325
H	 0.9634302677	 1.8439175295	 0.2293957625	 0.133685
H	-0.0729720613	 1.9618729683	-1.2047827169	 0.119954
H	-0.7945910983	 2.0009420729	 0.4173190599	 0.11658
H	-0.0718364012	-0.3658447207	 0.8079195363	 0.125449
H	-1.114849444	-0.2564433015	-0.6281793244	 0.084533
H	-0.5126627327	-3.4496321637	-1.9440572581	 0.121732
H	-0.7579998554	-1.7722150396	-2.6314377595	 0.131139
H	 1.928108586	-3.3146540371	-2.4779057955	 0.096708
H	 1.3223078899	-0.4596993016	-3.5023848531	 0.134568
H	 2.9270143421	-1.1941841381	-3.4400546783	 0.127591
H	 1.7194484041	-1.8190458739	-4.5760537215	 0.119696
H	 1.2870079192	-3.778767378	-0.2080924939	 0.067742
