18
gdb 22495	2.91093	0.75872	0.64885	19.0204	84.35	-0.1196	-0.0406	0.079	1715.6126	0.14671	-435.139327	-435.129078	-435.128134	-435.176286	34.701	
C	-0.0921883712	 1.5011548707	 0.0497904728	-0.351569
N	 0.0370967842	 0.0141244731	 0.0536180101	-0.250382
H	-0.8747566861	-0.4213956696	-0.1012215093	 0.318745
H	 0.6279496047	-0.2928736395	-0.7233978353	 0.317619
C	 0.6375068954	-0.5942275418	 1.3332265156	-0.179867
C	 0.8292823648	-2.1014051704	 1.1973342873	-0.331009
C	 1.5935323545	-2.5935865091	 2.387887165	 0.105004
N	 0.8907647988	-3.3438393472	 3.2685756706	-0.108578
O	 1.469778017	-3.7446296236	 4.3010691922	-0.417117
C	 2.9276905587	-2.1562877365	 2.5303775845	 0.195687
N	 4.0069173962	-1.7150066728	 2.5640244094	-0.420546
H	 0.8999969037	 1.9308035302	 0.1884205989	 0.200981
H	-0.5197527405	 1.833572147	-0.8975378116	 0.177396
H	-0.7377607983	 1.7924727592	 0.8784469939	 0.194809
H	 1.5945896686	-0.0875756853	 1.4799257831	 0.181046
H	-0.0444726834	-0.3381696944	 2.1461883921	 0.168133
H	-0.1401972887	-2.6147007434	 1.2113412825	 0.112293
H	 1.3301380216	-2.3118588868	 0.2341508581	 0.087355
