17
gdb 62968	2.15788	1.8784	1.43737	1.7111	67.79	-0.2494	0.0571	0.3065	977.1053	0.132904	-458.88615	-458.877775	-458.876831	-458.918619	32.22	
C	-0.0496933751	 1.5821786489	-0.1188824689	-0.466003
C	 0.0075382958	 0.0705015485	 0.0077590458	 0.259892
O	-1.2621262424	-0.540566492	-0.052695437	-0.45997
C	 1.0562619297	-0.6673761397	-0.8807005833	-0.026284
O	 2.3481926802	-0.2011948446	-0.4816337214	-0.245247
C	 1.7290254483	-1.2497291296	 0.2891693701	-0.103684
C	 0.7698399775	-0.5415725341	 1.2313997591	 0.44428
C	 0.9547961682	-0.0724047692	 2.6016362394	-0.26431
O	 0.0956201399	-1.1829114472	 2.2834023229	-0.263122
H	 0.9563584555	 2.00600217	-0.0797002793	 0.142957
H	-0.5060408084	 1.8746962943	-1.0733947619	 0.107417
H	-0.6507351082	 2.0113698343	 0.6887672249	 0.128544
H	-1.7284725596	-0.1733095651	-0.8115471454	 0.281128
H	 0.9325197074	-1.0516185868	-1.8874665569	 0.107112
H	 2.2698294017	-2.1791158376	 0.4204271327	 0.117486
H	 1.865858252	-0.3231354032	 3.1428088548	 0.120048
H	 0.4398797577	 0.8249869331	 2.9406026242	 0.119755
