17
gdb 28703	3.54901	1.06838	0.94223	2.1672	78.64	-0.2091	0.0188	0.2279	1291.499	0.136087	-418.041467	-418.032576	-418.031632	-418.076316	31.789	
C	-0.1377512806	 1.5071612142	 0.35743206	-0.492096
C	-0.1221160645	 0.0455232598	 0.0872425538	 0.363322
C	-0.9674996108	-0.7913763138	-0.5765098768	-0.255584
C	-0.3883619083	-2.0986126257	-0.5044152215	-0.228166
C	 0.763907709	-1.9654470335	 0.2002550307	 0.407123
N	 1.7299870401	-2.8819583615	 0.6043681523	-0.409007
C	 2.981819092	-2.9795713583	 0.0281481212	 0.063035
N	 3.3237997751	-2.3143770832	-0.9985313087	-0.439486
O	 0.9363737647	-0.6580163979	 0.5746630137	-0.193653
H	 0.7376342886	 2.0030581595	-0.0768031987	 0.143309
H	-1.0351062054	 1.9538915288	-0.0764872986	 0.133429
H	-0.1340278172	 1.7192149621	 1.4327375639	 0.134877
H	-1.8869597817	-0.5086625718	-1.0652071021	 0.104006
H	-0.766105609	-3.0152984588	-0.9282838917	 0.108733
H	 1.6030984403	-3.3491133968	 1.4882979569	 0.251919
H	 3.6078682047	-3.7060846862	 0.5622056507	 0.086826
H	 4.2728662531	-2.556456107	-1.2730233153	 0.221415
