18
gdb 98772	4.11793	1.01091	1.00113	2.3564	72.	-0.2392	0.0041	0.2433	1263.0689	0.14771	-439.065011	-439.056415	-439.055471	-439.099449	30.886	
C	-0.2677131254	 1.4114084107	-0.5697642903	-0.242049
O	-0.3216176562	-0.0212785012	-0.5296075837	-0.235005
C	-0.9955307228	-0.5456826304	 0.5127067614	 0.442056
O	-1.5096149674	 0.1202164534	 1.3791710413	-0.366457
C	-1.0504118567	-2.0513369291	 0.4225851183	-0.128525
C	-1.3971309052	-2.8571257533	 1.6997423333	-0.184929
N	-2.5905225367	-3.5128187883	 1.0486631157	-0.127306
C	-3.5043212816	-2.4061345733	 0.7080597367	-0.23916
C	-2.3414943119	-2.6458089632	-0.1685568304	-0.049654
H	 0.3047460701	 1.661853057	-1.46279251	 0.134787
H	-1.2741887896	 1.8332620871	-0.6284701994	 0.141673
H	 0.2246941327	 1.8029626852	 0.3237927233	 0.142769
H	-0.1648960834	-2.424454109	-0.0920054051	 0.10406
H	-0.6476338735	-3.6072143325	 1.9560557002	 0.115151
H	-1.64561141	-2.261310316	 2.581539419	 0.127306
H	-4.468479644	-2.7541253223	 0.3509370082	 0.121874
H	-3.533050727	-1.5246403534	 1.3428156452	 0.14169
H	-2.4292738813	-3.0303145815	-1.1792956537	 0.101718
