21
gdb 87243	4.3739	0.67344	0.64523	3.6151	80.62	-0.2478	-0.0195	0.2283	1746.9547	0.179179	-424.220598	-424.210162	-424.209218	-424.256848	37.478	
C	 0.0161478955	 1.7040771707	 0.2927579348	-0.460077
C	-0.079570438	 0.1984819474	 0.1329894546	 0.338532
C	-1.4398545021	-0.3353332962	-0.2918389237	-0.277942
C	-1.8638650771	 0.1110539169	-1.7054229655	-0.271028
C	-3.1195492533	-0.5948444944	-2.159664936	 0.159924
O	-4.133941134	-0.0513574604	-2.5127070291	-0.236681
C	 1.1485404532	-0.5422354279	-0.376556945	-0.366632
C	 0.7239048383	-0.665225864	 1.0688999764	 0.058666
O	 1.462929141	-0.0270139608	 2.0690165001	-0.421932
H	 0.9726280404	 1.9855862156	 0.7357778874	 0.133043
H	-0.0831868443	 2.2155493128	-0.6702917139	 0.115367
H	-0.776636487	 2.0749223846	 0.9526210089	 0.117618
H	-1.4253461113	-1.4325845423	-0.2574774341	 0.095888
H	-2.2003020834	-0.012954925	 0.431380693	 0.113942
H	-2.0321326172	 1.1891865675	-1.7627754671	 0.125496
H	-1.062325903	-0.1501315744	-2.4119861818	 0.119252
H	-3.0465790043	-1.7093219917	-2.1404964802	 0.066109
H	 1.0183525756	-1.3978632565	-1.032422782	 0.105285
H	 2.0358159356	 0.0502194519	-0.5751081631	 0.113041
H	 0.2720961061	-1.6088837532	 1.3781008271	 0.082867
H	 2.3026453092	-0.4892002404	 2.1588655092	 0.289262
