17
gdb 37267	4.09792	1.90486	1.74462	1.565	72.05	-0.2321	0.0725	0.3046	813.8908	0.140258	-380.782763	-380.777288	-380.776344	-380.812219	24.232	
C	 0.0087720243	 1.4921060299	-0.0534852335	-0.257972
C	 1.2746904263	 0.7118574171	-0.0194655886	-0.033324
C	 1.9047860219	 0.4508167682	 1.3374708149	-0.061053
C	 2.1586226714	-1.0417772152	 1.6004747442	-0.047332
C	 0.8068969167	-1.6801758457	 1.5809559449	-0.039137
C	-0.1660581011	-0.5333149711	 1.3161551069	-0.016922
C	 0.7376557524	 0.2281096561	 2.3310678783	-0.042379
N	 1.3429611663	-1.0912287273	 2.858048271	-0.181792
N	-0.0382652154	 0.0203515076	-0.0392223649	-0.100737
H	-0.2933530386	 2.0342763388	 0.8401544125	 0.114823
H	-0.3181421097	 1.9445699823	-0.9843154525	 0.121352
H	 1.8847602631	 0.6163209316	-0.9132433142	 0.095819
H	 2.704346797	 1.1198572858	 1.6543526431	 0.08341
H	 3.0772632358	-1.6069401176	 1.4959924877	 0.097165
H	 0.6556034102	-2.7459534226	 1.461180815	 0.099351
H	-1.201364766	-0.7151054947	 1.6036283686	 0.083609
H	 0.3842123455	 0.9767165868	 3.0345025466	 0.085121
