20
gdb 76868	2.42293	1.76265	1.39116	1.667	78.67	-0.2106	0.007	0.2176	1018.0968	0.172319	-403.127957	-403.119889	-403.118945	-403.160436	32.057	
C	 0.4922221952	 1.6187492105	-0.0964463362	-0.419085
C	 0.1127671193	 0.1463972202	 0.0134373204	 0.005289
C	 0.7037688826	-0.7967282868	-1.0869766484	 0.100168
O	 1.4447359023	-0.2324329946	-2.1377584665	-0.424161
C	 1.4784019771	-1.5119490157	 0.0572197978	-0.059611
C	 2.9286758298	-1.147196289	 0.2457887514	-0.114876
C	 3.0749850793	-0.3688149127	 1.3187990055	-0.07049
C	 1.7390140005	-0.1020653673	 1.9819799092	-0.223439
N	 0.7466340367	-0.703798672	 1.0787923226	-0.110596
H	 1.5740341293	 1.7790675769	-0.1380070831	 0.11051
H	 0.0600924607	 2.0291030865	-1.0140359367	 0.131063
H	 0.0967426585	 2.1960839554	 0.7449667575	 0.122003
H	-0.9796272126	 0.0783312807	 0.0835977637	 0.077797
H	-0.0517683393	-1.4261087084	-1.5620769007	 0.091195
H	 2.2098329054	 0.2112787435	-1.7540947561	 0.282323
H	 1.3187548051	-2.5970318948	 0.1216663553	 0.076464
H	 3.7277054624	-1.5328516944	-0.3767327863	 0.107187
H	 4.0162824766	-0.0053620348	 1.7164403241	 0.100924
H	 1.6993126788	-0.5694069137	 2.9780574559	 0.107777
H	 1.5439709222	 0.9646845404	 2.1387610104	 0.109556
