20
gdb 94595	3.14653	0.92444	0.84968	2.9016	77.03	-0.2476	0.0257	0.2733	1449.839	0.169148	-440.305488	-440.295262	-440.294318	-440.343682	35.29	
C	-0.5562299487	 1.2729590068	 0.2237643839	-0.399704
C	 0.0613579848	-0.1035623094	 0.0792163802	 0.13812
O	 1.1268104531	-0.1371237179	-0.903921895	-0.290392
C	 2.1051076799	-0.5331383152	 0.0734144736	-0.098577
C	 1.0390083248	-0.6081253279	 1.1866222537	-0.029408
N	 1.2511829364	 0.1911510332	 2.3617151568	-0.3206
C	 0.9716538351	-0.2604798879	 3.6272289338	 0.408327
C	 1.2462775884	 0.7372839612	 4.7414148555	-0.487188
O	 0.5292353173	-1.3720764167	 3.8467576759	-0.366496
H	 0.1946309392	 2.0295369126	 0.4731855168	 0.103742
H	-1.0266638717	 1.5677539237	-0.7190014504	 0.133051
H	-1.3228781711	 1.2712593483	 1.005534604	 0.124506
H	-0.7145971357	-0.8377183946	-0.1737881523	 0.083637
H	 2.5986547397	-1.4769561582	-0.1863022131	 0.112111
H	 2.8755360457	 0.2362128287	 0.2272133492	 0.090992
H	 0.811979361	-1.6135502897	 1.5375407534	 0.13106
H	 1.6067235509	 1.1265706381	 2.2520032023	 0.244575
H	 1.8026056656	 1.6203232715	 4.4160078298	 0.112012
H	 0.2923887514	 1.0610454513	 5.1684552184	 0.154306
H	 1.8033189842	 0.2313391122	 5.5328439335	 0.155925
