19
gdb 78647	2.93838	1.49497	1.15141	3.4114	79.96	-0.2309	0.0134	0.2443	1118.4984	0.15845	-385.872339	-385.863982	-385.863038	-385.904913	32.225	
C	-0.1766999128	 1.4428836381	 0.03075446	-0.407546
C	 0.0518560658	-0.0626245056	 0.0642490072	-0.001076
C	 0.8686290728	-0.5930309445	-1.1244639738	-0.110803
C	 2.1550819043	-0.5037097044	-0.3678722839	-0.117565
C	 1.263778971	-0.5125180937	 0.9397476498	-0.198713
C	 1.2885309215	-2.0416691097	 0.7662526413	 0.389934
O	 1.3411644102	-2.9696746993	 1.5265344604	-0.349042
C	 1.5585599494	-1.8999311162	-0.7007713546	 0.188199
C	 2.042326192	-2.9452030771	-1.658568823	-0.510706
H	 0.7585149271	 1.9802756345	-0.1593658943	 0.118717
H	-0.8872833035	 1.7131097626	-0.7583236915	 0.116126
H	-0.5844493217	 1.7971457225	 0.9831464318	 0.119249
H	-0.8885341836	-0.5870462392	 0.2776746424	 0.075909
H	 0.7012516773	-0.4083318494	-2.1800232176	 0.092653
H	 3.1501456182	-0.1474775142	-0.5856795618	 0.110608
H	 1.4907787224	-0.0487006506	 1.8962755135	 0.088225
H	 1.2222264757	-3.5986985631	-1.9743887811	 0.13444
H	 2.472618567	-2.4931174612	-2.5579423829	 0.121801
H	 2.8070709369	-3.5730018996	-1.1911123419	 0.13959
