18
gdb 59934	2.3028	0.99983	0.82091	4.8236	78.57	-0.2762	0.0154	0.2915	1453.8777	0.144573	-401.926513	-401.91629	-401.915346	-401.962071	36.731	
C	 0.0175361823	 1.5777683273	 0.0890684268	-0.416703
C	 0.001537562	 0.052363228	 0.0273224444	 0.118252
O	 0.6839466667	-0.5280578948	 1.1380326553	-0.426071
C	-1.4251917375	-0.5030014466	-0.0798755277	-0.203249
C	-1.4423558232	-2.0550457489	-0.1645120606	-0.319669
C	-2.7872824571	-2.6024419596	 0.0084159732	 0.30689
C	-3.8999199619	-3.0225832022	 0.1702263416	-0.408194
C	-0.8480585722	-2.511483647	-1.4322442844	 0.293257
N	-0.3662169741	-2.8412384164	-2.4289813411	-0.330279
H	 1.0447109665	 1.9392310359	 0.183198279	 0.133969
H	-0.4239096717	 2.0156000174	-0.8114258591	 0.127821
H	-0.5559259026	 1.9403132928	 0.9518963457	 0.11023
H	 0.5748322837	-0.2781564101	-0.8468060516	 0.120129
H	 0.3271356932	-0.1342729966	 1.9425929692	 0.280838
H	-2.0000002647	-0.216935371	 0.8087053203	 0.109285
H	-1.9399138605	-0.0835994895	-0.9495893629	 0.127625
H	-0.7915641585	-2.4182009457	 0.6419737293	 0.169218
H	-4.8801513504	-3.408151943	 0.3075347728	 0.206651
