14
gdb 49493	2.31823	1.65116	1.17771	4.7139	67.39	-0.2675	-0.0602	0.2073	1024.6504	0.099541	-436.620997	-436.613345	-436.6124	-436.653733	27.904	
O	-0.7178780474	 0.7832846992	 0.4586397553	-0.239012
C	 0.2076331937	 0.945250533	-0.2962145536	 0.123816
C	 1.3135413616	 1.9515022899	-0.1128497177	-0.124927
C	 1.1233360398	 3.4643299878	-0.496641735	 0.010598
C	 0.1923179044	 3.6736415384	 0.7179721832	-0.267355
C	 1.4334013355	 2.8476452071	 1.1551759739	 0.336012
O	 2.2841575996	 3.7747528837	 0.3663404726	-0.322065
C	 1.8618626342	 2.4680629128	 2.4784737689	 0.185655
N	 2.1878366811	 2.1490532725	 3.539824938	-0.334666
H	 0.3066544719	 0.3353036395	-1.2214916561	 0.098769
H	 2.2751366163	 1.566771226	-0.4607675567	 0.122524
H	 1.0998607478	 3.9095304835	-1.4887260245	 0.125505
H	 0.1812431196	 4.6919249333	 1.104389633	 0.134533
H	-0.773914128	 3.1742571531	 0.7426576088	 0.150613
