20
gdb 85427	2.36535	1.49381	1.18214	3.4446	76.17	-0.2515	0.0336	0.2851	1139.3417	0.169905	-440.317277	-440.308084	-440.30714	-440.350654	35.6	
C	 0.1343934121	 1.7561303208	-0.0129591704	-0.414525
C	 0.0944563214	 0.2356598971	 0.0615805745	 0.114593
O	 0.7444580169	-0.3163979587	-1.1048527963	-0.249375
C	 1.9627715001	-0.8453412324	-0.7901147825	 0.416775
N	 2.7368773494	-1.414929322	-1.6080701071	-0.549621
C	 2.2299601472	-0.6285928222	 0.680993622	-0.34402
C	 0.8222245944	-0.4219604265	 1.2614734172	 0.352518
C	 0.7723687857	 0.3586149065	 2.5717733794	-0.453794
O	 0.1643890274	-1.6825601506	 1.412067731	-0.473667
H	 1.1583945075	 2.1377647181	 0.0528466008	 0.122232
H	-0.2851199461	 2.08231337	-0.9680444985	 0.1352
H	-0.4563596089	 2.203805762	 0.7911952219	 0.124246
H	-0.9388186879	-0.1216022792	 0.0438000489	 0.105423
H	 2.3229570119	-1.4221685926	-2.5422664493	 0.219729
H	 2.7650911418	-1.4723317366	 1.120445593	 0.12426
H	 2.8511511587	 0.2645745077	 0.8137407362	 0.125445
H	 1.240599296	 1.3426948128	 2.4855495221	 0.121803
H	-0.263372253	 0.4875342188	 2.8992578267	 0.129686
H	 1.3040346514	-0.1934314789	 3.3550383713	 0.113305
H	 0.680002894	-2.2182998042	 2.024351869	 0.279787
