23
gdb 120731	3.02486	0.74909	0.66131	2.5474	82.89	-0.2562	0.0764	0.3326	1776.0078	0.203524	-425.406886	-425.395882	-425.394937	-425.443756	39.711	
C	-0.0264375052	 1.5021558787	-0.3634286661	-0.398032
C	 0.0377602726	 0.0506384686	 0.1179889594	 0.127092
O	 0.6966872336	-0.0424387886	 1.3822077558	-0.433963
C	-1.3353467524	-0.5900656569	 0.1552486624	-0.032003
C	-1.8883966528	-1.3327962533	-1.0394394678	-0.304701
C	-1.5326160609	-2.0854385336	 0.2228009474	-0.011769
C	-0.378833211	-3.0660609653	 0.2588431217	-0.189778
C	-0.8075046382	-4.4674773577	-0.1625722353	-0.071756
O	 0.332154608	-5.3116689475	-0.096802692	-0.422077
H	 0.9731493249	 1.9449218716	-0.3688350904	 0.121322
H	-0.4469604455	 1.5651596286	-1.3720711917	 0.117905
H	-0.6619644499	 2.1014255392	 0.3008696884	 0.102716
H	 0.6838297936	-0.5155026675	-0.5615568503	 0.086183
H	 0.1451083932	 0.4091287935	 2.030581207	 0.272971
H	-2.0607882503	-0.0019772778	 0.7173605086	 0.06992
H	-2.9310635394	-1.1974666907	-1.3053221564	 0.107644
H	-1.2276009606	-1.4578395561	-1.8929122148	 0.110074
H	-2.3825471756	-2.3961954395	 0.8275350556	 0.07812
H	 0.4300831785	-2.7437825645	-0.4046383732	 0.105173
H	 0.049342339	-3.1134527571	 1.2664218763	 0.116111
H	-1.6088774356	-4.8270068043	 0.504590521	 0.079766
H	-1.2253520782	-4.4358721068	-1.1819126509	 0.085146
H	 0.0669585221	-6.1960248628	-0.3649982146	 0.283935
