13
gdb 133327	2.41441	1.84997	1.04817	5.4218	64.69	-0.2309	-0.0268	0.2041	1016.9506	0.089563	-494.051268	-494.043811	-494.042867	-494.082917	28.679	
N	-0.0406373156	 1.4317311478	-0.1443677519	-0.60232
C	 0.017971157	 0.0614637278	-0.0663749009	 0.118922
C	-1.1258490376	-0.7471362874	 0.0086296585	 0.31489
F	-2.299175458	-0.108578845	 0.065802801	-0.078382
N	-1.164823922	-2.0533725586	 0.0359387585	-0.262448
N	-0.0177642006	-2.7358708334	-0.0089824687	-0.223621
C	 1.1225095803	-2.0555476858	-0.0739985361	-0.085527
C	 1.2065946075	-0.6624870247	-0.1026547992	 0.312697
O	 2.3675895661	 0.0434855764	-0.157869385	-0.448872
H	 0.8007063583	 1.9239266617	 0.1126904647	 0.271022
H	-0.8975654939	 1.8523142277	 0.1783352771	 0.268162
H	 2.0282776394	-2.6585806512	-0.1028922033	 0.105959
H	 3.1161747091	-0.5629473853	-0.1606800946	 0.309519
