19
gdb 93585	4.52321	0.92791	0.85396	2.2856	80.26	-0.2315	0.0021	0.2336	1395.5704	0.158551	-423.008774	-423.00005	-422.999106	-423.042976	31.872	
C	 0.2216458582	 1.5700039403	-0.1639862647	-0.387969
C	-0.0484439665	 0.0865339188	 0.0885104672	 0.110578
O	 0.4646733687	-0.6918669676	-0.9998378582	-0.282232
C	 1.2970162139	-1.7398606358	-0.520102414	-0.16702
C	 1.397124694	-1.5186384034	 0.9704928153	 0.326014
C	 0.6329418331	-0.4805423663	 1.3041541607	-0.248464
C	 2.2234855889	-2.3443766045	 1.865785463	-0.031909
C	 2.4401425997	-3.7890053955	 1.6504700268	-0.185692
O	 3.4596172577	-2.8503257631	 1.3286239115	-0.23167
H	 1.2976813279	 1.7622078874	-0.2033248231	 0.121487
H	-0.222194994	 1.8731029986	-1.1163371341	 0.12748
H	-0.2176992381	 2.1824018949	 0.6305811065	 0.110241
H	-1.1409322672	-0.063868617	 0.1492551096	 0.08015
H	 0.8521305618	-2.719032592	-0.7639679318	 0.09777
H	 2.2784170147	-1.6980965879	-1.0113260699	 0.123902
H	 0.496544243	-0.0760036122	 2.2998639347	 0.101631
H	 2.3044407941	-1.9786248703	 2.8892400682	 0.095615
H	 2.6391589235	-4.4265568572	 2.511178248	 0.120312
H	 1.9737812668	-4.2868942872	 0.8022598344	 0.119777
