16
gdb 27558	4.16442	1.12214	0.94913	1.8183	72.25	-0.198	0.0521	0.2501	1208.0769	0.126062	-434.074577	-434.066811	-434.065867	-434.107253	29.647	
O	-0.0238749716	 1.3012761863	 0.1588406789	-0.426437
C	-0.0053714272	-0.0381416668	 0.0392444607	 0.452604
N	-0.2264817581	-0.7338106077	-1.042686798	-0.419227
C	-0.0902126475	-2.0596672724	-0.6388785033	 0.33037
C	 0.2127605531	-2.1306352959	 0.6883057098	-0.200235
N	 0.2653399617	-0.8047441132	 1.1209058528	-0.30447
N	-0.247624904	-3.1625698473	-1.4998436433	-0.193982
C	-1.2521131045	-3.0316881407	-2.5669467899	-0.220977
C	 0.1939362023	-2.9840919596	-2.8920418007	-0.221007
H	-0.233814158	 1.6472076563	-0.7174089172	 0.313551
H	 0.389880588	-2.9628187462	 1.3459129429	 0.131718
H	 0.4633915422	-0.4693414265	 2.0474438374	 0.27233
H	-1.8317918645	-3.9299133968	-2.7599356869	 0.112061
H	-1.7986563596	-2.0946904433	-2.6174349257	 0.130849
H	 0.6065665394	-2.0154993055	-3.1581239545	 0.130778
H	 0.6904944783	-3.8468545307	-3.3269518232	 0.112074
