20
gdb 60820	3.28795	0.93915	0.91118	4.1132	77.07	-0.242	0.0294	0.2714	1373.5568	0.169205	-440.283965	-440.273975	-440.273031	-440.319628	35.265	
C	 0.094869362	 1.50304107	 0.1595869802	-0.416262
C	 0.0536560545	-0.0260824548	 0.0362988296	-0.022134
C	-1.3421518604	-0.6165513026	 0.204913223	 0.088567
C	-2.3966215114	-0.025312518	 1.0382467126	-0.187562
O	-2.4424096538	 0.0798652941	-0.3863968567	-0.227571
N	 0.6436510715	-0.497108562	-1.2164225972	-0.039665
C	 0.0639509138	-0.0868843315	-2.4895488284	-0.354373
C	 1.7507721179	-1.2959527806	-1.2122566358	 0.15251
O	 2.3201407489	-1.7258086254	-2.1930803275	-0.34546
H	 1.0928598538	 1.8685555061	-0.0940677824	 0.128427
H	-0.6349936573	 1.9725402533	-0.5034689927	 0.146623
H	-0.1272834742	 1.8141863398	 1.1836834853	 0.122848
H	 0.671156012	-0.4588279597	 0.8339374867	 0.098317
H	-1.3720924042	-1.6960501299	 0.047207315	 0.103052
H	-3.1491605702	-0.6747920173	 1.4825309027	 0.122208
H	-2.2211223379	 0.9084924522	 1.5675254008	 0.119774
H	 0.2087069523	 0.9847053329	-2.6666691183	 0.127006
H	 0.5741346194	-0.6469827934	-3.2729474019	 0.166373
H	-1.0080239266	-0.2992276969	-2.5143561092	 0.14886
H	 2.0862106499	-1.5225834165	-0.180192286	 0.068462
