19
gdb 67847	2.30651	1.64297	1.31001	0.9003	86.82	-0.2231	0.0173	0.2404	1074.8245	0.158572	-348.725215	-348.716762	-348.715817	-348.757727	33.39	
C	 0.019425575	 1.5380715325	-0.0284644215	-0.486922
C	-0.034844642	 0.0308174047	 0.0487847856	 0.302651
C	-1.3190437516	-0.6836722886	-0.2280222369	-0.139039
C	-1.4710441956	-1.7599823253	 0.5445982506	-0.061592
C	-0.3076049618	-1.9439359828	 1.4957713291	-0.29257
C	 0.6303058154	-0.7953408868	 1.1316291123	-0.100365
C	 1.2380455354	-0.7767174322	-0.2687283924	-0.277049
C	 1.2556834126	-1.933181415	-1.1116574261	 0.358311
C	 1.2979795395	-2.9107245631	-1.8125010178	-0.465486
H	 1.0011516494	 1.9169400686	 0.2723565236	 0.117186
H	-0.1735573525	 1.8900428128	-1.048380191	 0.123271
H	-0.7312689762	 1.9912877909	 0.6286788203	 0.12213
H	-2.0092555053	-0.3517354458	-0.995495763	 0.091701
H	-2.2957312098	-2.461356812	 0.4906089061	 0.095274
H	-0.6237918036	-1.8830394849	 2.5451797203	 0.106509
H	 0.1686707759	-2.9244922808	 1.3666300571	 0.122881
H	 1.2142941604	-0.322543659	 1.9133323486	 0.086841
H	 2.1316556592	-0.1612355751	-0.3459693427	 0.106331
H	 1.3290397757	-3.7656930982	-2.4408637421	 0.189936
