19
gdb 124540	3.61405	0.95762	0.90627	2.5577	77.91	-0.2149	0.0433	0.2583	1373.9736	0.159368	-419.237725	-419.228352	-419.227408	-419.272245	34.711	
C	-0.0885500414	 1.5902605477	 0.2476985	-0.385598
C	-0.0650629353	 0.0698275905	 0.0117102231	-0.062271
C	 0.9041277344	-0.6267073851	 0.9830344191	-0.385594
C	-1.4457714799	-0.5225412187	 0.089722641	 0.376402
N	-1.9788402369	-1.1141023637	-0.9733885668	-0.312359
N	-3.2080385865	-1.5255056838	-0.5547246918	-0.256245
C	-3.4458182544	-1.2043281926	 0.7338977979	 0.462254
O	-4.6309712763	-1.553384864	 1.2811391387	-0.430252
C	-2.3288415593	-0.5479642488	 1.2047378003	-0.45359
H	 0.9149897925	 2.0147385736	 0.1372748253	 0.108306
H	-0.7517086516	 2.0896112938	-0.4646119187	 0.119978
H	-0.4410724833	 1.8283109688	 1.2576004578	 0.108941
H	 0.2817642726	-0.1142491594	-1.0114556149	 0.090774
H	 0.5931812896	-0.4817203693	 2.0237703951	 0.108942
H	 0.9466208012	-1.7031477812	 0.7933323353	 0.119982
H	 1.9156827513	-0.2201088077	 0.8786258769	 0.108302
H	-3.8241007176	-2.0102296507	-1.1840468452	 0.27484
H	-4.6456538134	-1.2562025286	 2.1959873099	 0.312783
H	-2.1755042656	-0.1506711511	 2.1950247369	 0.094406
