16
gdb 77113	3.08142	1.20251	0.98585	3.7982	70.84	-0.2554	-0.0027	0.2527	1189.7464	0.122776	-437.851398	-437.842914	-437.841969	-437.884947	31.297	
O	 0.0922094809	 1.1536732542	-0.2532064399	-0.41398
C	-0.0003114751	-0.2287673569	-0.0907407623	-0.046505
C	-0.0248215779	-0.7886249303	 1.374572184	-0.032742
O	-1.2898634177	-1.4349749359	 1.1330261435	-0.306717
C	-1.4183912352	-0.7768668388	-0.1369208213	 0.45371
C	-2.6576610184	-0.0569993256	-0.5447817574	-0.326839
C	-2.2239315888	-1.3337344369	-1.2549210332	-0.341732
C	 1.0319467392	-1.7199062581	 1.7568671496	 0.262676
N	 1.8971124989	-2.4355828766	 2.0310500713	-0.316139
H	 1.0099826435	 1.3897919443	-0.4202147301	 0.300521
H	 0.7037352224	-0.7742138081	-0.7287944122	 0.108887
H	-0.1081245163	 0.0163003992	 2.1145646025	 0.132692
H	-3.5072194605	-0.1237869158	 0.125875063	 0.131894
H	-2.5423540025	 0.8924088737	-1.0557188162	 0.135542
H	-1.8268928565	-1.2654888355	-2.2627183008	 0.123501
H	-2.7879860759	-2.2365937629	-1.0473949505	 0.135231
