13
gdb 133254	3.23655	1.43006	0.99809	6.1465	66.05	-0.2433	-0.0692	0.1741	1074.7717	0.087927	-494.017027	-494.00936	-494.008416	-494.049651	27.579	
C	-0.0308286283	 1.4770952518	 0.0201410267	-0.33886
N	-0.0069330562	 0.0207788497	 0.0560548834	-0.103157
N	-0.0475512582	-0.6107854908	-1.1666005119	-0.041083
N	-0.0313094903	-1.86212701	-1.2394782263	-0.23266
C	 0.0299919533	-2.7237612421	-0.0716779025	 0.448049
O	 0.0418847312	-3.9219911559	-0.2321006264	-0.342944
C	 0.072211917	-2.0412429791	 1.2080614868	-0.466236
C	 0.0514562208	-0.6968021427	 1.2061405608	 0.483661
F	 0.0853578488	 0.0401169269	 2.3049136527	-0.04703
H	 0.8730959326	 1.8906636242	 0.4741765599	 0.158634
H	-0.0783485776	 1.7557537698	-1.0318580812	 0.174964
H	-0.9067436746	 1.863270324	 0.5473136587	 0.158634
H	 0.1188277815	-2.602276516	 2.1304858291	 0.148029
