16
gdb 128787	5.11117	0.9481	0.80788	3.0693	73.67	-0.2357	-0.0701	0.1656	1373.1315	0.124715	-434.059192	-434.050926	-434.049982	-434.093574	28.646	
C	-0.0012218199	 1.4045011826	 0.0311734142	-0.230338
O	-0.0023937086	-0.0049036886	-0.0083983354	-0.237073
C	 0.6543789513	-0.5857486051	 1.0885594306	-0.122019
C	 0.6036990062	-2.0868200444	 0.9601968062	 0.277079
C	-0.0128821467	-2.7420458315	-0.1116905621	-0.029532
N	-0.0276962531	-4.0670454189	-0.1745996599	-0.234592
C	 0.5795713205	-4.6822058185	 0.8451300808	 0.103988
N	 1.1787460307	-4.1044135439	 1.8854692352	-0.184038
N	 1.1879084494	-2.7764542689	 1.938910792	-0.234538
H	 1.0223671166	 1.8089711157	 0.0207980436	 0.114001
H	-0.5310970281	 1.7541322855	-0.8572518505	 0.135832
H	-0.514153999	 1.7847857566	 0.9276754522	 0.114023
H	 1.707782378	-0.2635823828	 1.1439920371	 0.121534
H	 0.1859463205	-0.2890401764	 2.0419570615	 0.121607
H	-0.4886142185	-2.1809653837	-0.9084624946	 0.14739
H	 0.5935042006	-5.7682539678	 0.838647589	 0.136677
