17
gdb 35010	2.81701	1.30743	1.08329	0.7408	87.84	-0.2352	0.0219	0.2571	1155.0479	0.134154	-347.460899	-347.452407	-347.451463	-347.49369	33.089	
C	 0.0476320186	-1.1905810265	-0.0068803025	-0.44774
C	 0.0528378366	 0.0122221915	 0.0281088498	 0.337607
C	 0.0648875381	 1.4458605557	 0.0697001224	-0.266068
C	 0.4904281537	 2.2460383757	 1.2793678793	-0.114623
C	 1.5973133887	 1.5253404174	 2.0521193927	-0.237909
C	 2.4822349855	 1.5263885467	 0.7640088294	-0.294597
C	 1.3602807164	 2.2653519828	 0.0080111292	 0.18667
C	 1.5453495266	 3.2849785321	-0.965454858	 0.161305
C	 1.7218644526	 4.1476905287	-1.7866664255	-0.39609
H	 0.0355179428	-2.2516857104	-0.0427632243	 0.19762
H	-0.7365263503	 1.9212525926	-0.48942202	 0.124812
H	-0.1475759129	 3.0349480293	 1.6592493482	 0.103536
H	 2.023142133	 2.1409842296	 2.8461614239	 0.109614
H	 1.3272501707	 0.5482482698	 2.4604305319	 0.11651
H	 3.3747730171	 2.1441583327	 0.8699355039	 0.11729
H	 2.7596468116	 0.5534721233	 0.3517401367	 0.115653
H	 1.8738057913	 4.9072279691	-2.512595817	 0.18641
