17
gdb 44253	3.03083	1.43429	1.15848	1.5708	71.95	-0.2467	-0.0367	0.21	1059.145	0.136128	-421.867668	-421.86003	-421.859086	-421.900476	29.079	
O	 0.0504744137	-0.0024519032	-0.4573356251	-0.289423
C	-0.0077544365	 1.1443581427	-0.1243208067	 0.402323
C	-1.1555442895	 2.0740614839	 0.3050966798	-0.360477
C	-0.0736184937	 3.155493458	 0.655589599	-0.141829
C	 1.0574902618	 2.2383833515	 0.0925146761	-0.150534
C	 2.0621754198	 1.9660112788	 1.2375362654	-0.234498
C	 1.2669298785	 2.21947105	 2.5297879261	-0.329068
C	 0.2063033914	 3.2632166819	 2.1549827688	 0.404785
O	-0.3116136502	 4.0466231961	 2.9074263489	-0.312464
H	-1.8003266733	 2.3593622239	-0.5318156899	 0.144695
H	-1.7912475687	 1.7105941592	 1.1180817313	 0.141652
H	-0.2408413464	 4.1367501318	 0.2139649623	 0.102353
H	 1.5426691267	 2.5474145871	-0.8364798736	 0.105407
H	 2.4751919681	 0.956344532	 1.1728468969	 0.128346
H	 2.8974473409	 2.6698652291	 1.1650470237	 0.116338
H	 0.7371975794	 1.3115684188	 2.8502055468	 0.138844
H	 1.8630900682	 2.5586775585	 3.3784429101	 0.133551
