19
gdb 92207	2.91435	1.81863	1.51124	1.8103	73.95	-0.2428	0.0709	0.3137	946.5116	0.160783	-423.003783	-422.996647	-422.995703	-423.035257	28.87	
C	-0.000066466	 1.5680833557	-0.0260721354	-0.399127
C	 0.0472021894	 0.0487862807	 0.0272539109	 0.123862
O	 0.6981657054	-0.4560626793	-1.1493600998	-0.288619
C	 1.6062444042	-1.4964296762	-0.8288189862	 0.102716
C	 3.0757860508	-1.022046623	-0.5839944224	-0.254436
C	 2.8175101973	-1.0821461085	 0.934008676	 0.112614
O	 2.1148083565	 0.0875878264	 1.418502229	-0.31289
C	 0.8191095554	-0.5330748968	 1.2099907678	 0.092748
C	 1.4741116825	-1.8203427491	 0.6897022641	-0.145916
H	 1.0106944645	 1.9745724853	 0.0486565714	 0.137544
H	-0.4500533601	 1.8969927476	-0.9661858069	 0.124266
H	-0.6005842182	 1.9631709419	 0.8000144063	 0.110586
H	-0.9777024369	-0.3575217141	 0.0618071385	 0.06872
H	 1.482080384	-2.3101561909	-1.5471954119	 0.080622
H	 3.7980250538	-1.7834505762	-0.8969176484	 0.098951
H	 3.3519316066	-0.0516493429	-1.001011759	 0.112836
H	 3.6129328537	-1.3916122449	 1.6145144998	 0.079415
H	 0.2362888272	-0.5607169653	 2.1361643551	 0.077926
H	 1.1882974201	-2.8064037304	 1.045576901	 0.078182
