19
gdb 73792	2.13895	1.78659	1.00794	5.1699	81.44	-0.205	-0.0024	0.2026	1170.4157	0.161234	-419.272058	-419.263158	-419.262213	-419.305274	34.021	
C	 0.0135272114	 1.5319610811	-0.0181580535	-0.524615
C	-0.0154953515	 0.0265339706	-0.0514584829	 0.12217
C	-1.1737814276	-0.677267471	-0.0547206877	 0.252472
N	-2.4154159861	-0.0775195441	-0.0684644952	-0.568036
C	-1.1796554161	-2.1857025248	-0.0490976828	-0.295552
C	 0.0973065176	-2.7285748162	-0.6859153911	-0.172526
N	 1.2423284004	-2.055685667	-0.1005244017	-0.339576
C	 1.2841226904	-0.6724275007	-0.0131482492	 0.342385
O	 2.3529612081	-0.0919371757	 0.1224193821	-0.394864
H	 1.051838291	 1.8647816075	 0.0105546741	 0.160396
H	-0.4707853141	 1.9735545807	-0.898415682	 0.116651
H	-0.4922096628	 1.9381056762	 0.8699455325	 0.106487
H	-2.4628136674	 0.8861692427	 0.2255187619	 0.256873
H	-3.1966776363	-0.6352122466	 0.2388233419	 0.251311
H	-1.2634416134	-2.5422177693	 0.9872023055	 0.124892
H	-2.0531026161	-2.5610803639	-0.5939733093	 0.109737
H	 0.1842232205	-3.8041701723	-0.5053637583	 0.108788
H	 0.0468136112	-2.5784336558	-1.7769743613	 0.1043
H	 2.1551995907	-2.4573443813	-0.258720213	 0.238708
