17
gdb 12250	3.6215	1.50501	1.14548	2.2326	66.16	-0.244	0.0324	0.2764	1028.9426	0.141314	-401.016758	-401.008002	-401.007058	-401.050454	30.496	
C	-0.0898298713	 1.4373333058	 0.07627816	-0.351161
N	-0.0389923753	 0.0073106913	-0.0976309857	-0.080793
C	-1.0687950548	-1.0449114409	-0.0216693412	 0.036108
C	-2.0421705074	-1.0916734094	-1.1913144467	-0.083959
O	-2.9409372627	 0.0068285936	-1.1939554944	-0.417107
C	 0.0931649266	-2.0811143452	-0.0314932911	-0.415097
C	 1.032711138	-0.8542965437	-0.0466671525	 0.414036
O	 2.2187555661	-0.6565722564	-0.0055441477	-0.370437
H	 0.9315757773	 1.7847624225	 0.2521423172	 0.16306
H	-0.4776395908	 1.9570752447	-0.8091420498	 0.116445
H	-0.7129117803	 1.7085645445	 0.9366694262	 0.134857
H	-1.6307793687	-1.0086086893	 0.9202220736	 0.088738
H	-1.4798988071	-1.1594260427	-2.1350646029	 0.094124
H	-2.6598053834	-1.9929826505	-1.1062505466	 0.117602
H	-2.4668156372	 0.7789393398	-1.5158022267	 0.289052
H	 0.1803769822	-2.7016164473	 0.8615179851	 0.135167
H	 0.1526219087	-2.7100178068	-0.9228154569	 0.129366
