15
gdb 128149	2.26295	1.53214	0.92159	2.9034	77.99	-0.2126	-0.0323	0.1803	1199.3614	0.114882	-413.014523	-413.006145	-413.005201	-413.047881	30.023	
C	-0.0052258596	 1.4682137223	 0.0951104729	-0.332044
N	-0.0013979553	 0.0466205554	-0.1971005453	-0.410226
C	-1.1616375557	-0.679140498	-0.0725827677	 0.178634
C	-1.2890777264	-2.0704278511	-0.0084388641	 0.205171
N	-2.640478214	-2.322636215	 0.057233545	-0.281293
N	-3.3721095726	-1.2171044646	 0.0449667766	-0.1926
C	-2.4981386933	-0.2114667651	-0.0300290097	-0.073502
C	-0.3006876265	-3.0687717989	 0.0020490786	 0.203116
N	 0.5353705739	-3.8740926882	 0.0144520027	-0.359786
H	 1.0043452812	 1.8596535044	-0.0438169982	 0.13573
H	-0.6630444998	 1.9946942462	-0.6044743655	 0.140172
H	-0.3351156145	 1.7027892464	 1.118585297	 0.122714
H	 0.8361179105	-0.4457047858	 0.0738863394	 0.254197
H	-3.0869882626	-3.2224934698	 0.1160647402	 0.288437
H	-2.8515865252	 0.8071149019	-0.0524151022	 0.121279
