11
gdb 956	6.0306	2.83994	1.93072	1.3923	54.78	-0.2486	-0.0474	0.2013	601.9397	0.081528	-339.491316	-339.486232	-339.485288	-339.52006	19.287	
O	 0.1043870944	 1.3361036227	 0.1060933475	-0.409902
C	 0.0703770958	-0.0070666487	 0.0488041649	 0.408057
N	 0.0974783472	-0.5903359173	-1.1403997331	-0.330734
C	 0.0616761174	-1.9283818515	-1.1442458445	-0.017128
C	-0.0003139627	-2.6644338723	 0.0298618041	-0.025128
N	-0.027411719	-2.0667003094	 1.2295780817	-0.220702
C	 0.0076047219	-0.7428938644	 1.2444550077	-0.069374
H	 0.1456721496	 1.6488750283	-0.8087810608	 0.302501
H	 0.083510273	-2.4157311325	-2.1152296438	 0.119904
H	-0.0288615616	-3.7492737824	 0.0137064597	 0.115592
H	-0.0132027259	-0.2333044426	 2.2032135768	 0.126914
