19
gdb 92847	3.53193	1.25118	0.97883	2.7739	77.79	-0.2385	0.0133	0.2518	1194.3537	0.160649	-423.006269	-422.99843	-422.997485	-423.038401	30.955	
O	-0.0207082537	 1.4380244337	-0.0751374509	-0.436336
C	 0.0086252818	 0.0185843953	-0.0232580876	 0.121293
C	 0.8771647793	-0.4800225408	 1.1589242078	-0.27218
C	 0.5346449112	-1.8771627305	 1.6271347544	-0.211746
C	-0.4415255368	-2.5385590105	 1.0267404878	 0.240531
C	-1.4868743323	-3.5880021889	 1.3115928333	-0.162774
O	-2.4415989621	-2.8053755765	 0.5361205015	-0.310266
C	-1.3690656909	-1.9868945145	-0.0168235895	 0.095894
C	-1.4479012173	-0.4714827233	 0.062022783	-0.24931
H	 0.8846458851	 1.7522613938	-0.1680026228	 0.280407
H	 0.4368877167	-0.3790843364	-0.9591848238	 0.069628
H	 1.9411207076	-0.3938106557	 0.8950107907	 0.098817
H	 0.7188870701	 0.2128602566	 1.9975717851	 0.120787
H	 1.0348512846	-2.2555633763	 2.5150872615	 0.092747
H	-1.318127108	-4.5747210186	 0.8573000644	 0.105223
H	-1.7985476029	-3.7183192995	 2.3539937405	 0.118589
H	-1.1565172553	-2.3130969504	-1.0467571424	 0.078614
H	-1.8895734744	-0.1728865942	 1.0183872127	 0.111812
H	-2.0311517628	-0.0218059835	-0.7463389959	 0.10827
