19
gdb 81714	2.11561	1.88092	1.7639	1.0326	69.72	-0.2477	0.0773	0.325	934.98	0.162188	-460.148412	-460.141243	-460.140299	-460.179574	29.476	
O	 0.0151177468	 1.4821783077	 0.1222896798	-0.435394
C	-0.0025328631	 0.093366159	 0.0180800983	 0.106707
C	-1.3370082991	-0.6977792709	-0.1364041903	 0.059866
C	-2.4915830417	 0.0943634879	-0.7533297938	-0.24812
C	-2.23886609	 0.4646427921	-2.2214217833	-0.073127
O	-0.984544061	 1.1194355664	-2.4295168115	-0.271898
C	 0.1333975614	 0.2394737406	-2.5550079555	-0.113984
C	 0.3742389313	-0.6113563841	-1.3132065868	 0.042654
O	-0.6944063295	-1.5690666597	-1.1059887726	-0.302332
H	-0.3979155352	 1.8244167648	-0.685197038	 0.294815
H	 0.5805561898	-0.3001100884	 0.8535623863	 0.098721
H	-1.668249772	-1.26026517	 0.7424077443	 0.079747
H	-3.4194532896	-0.4875397571	-0.7059992445	 0.107512
H	-2.6475597933	 0.9985170219	-0.1517081195	 0.117331
H	-2.2873156515	-0.4361857953	-2.8450922867	 0.113885
H	-3.0037744816	 1.1661042775	-2.567543111	 0.109427
H	-0.0011015146	-0.4214628202	-3.4242789352	 0.113184
H	 0.9974746136	 0.8859824281	-2.740340083	 0.120225
H	 1.3510321292	-1.1051188903	-1.3803960571	 0.08078
