18
gdb 49993	3.39056	1.1008	1.01468	2.1631	78.22	-0.2397	-0.022	0.2177	1215.4453	0.147085	-401.892375	-401.884412	-401.883468	-401.925237	30.405	
O	-0.0483273842	 0.0020340611	-0.3473958272	-0.269122
C	 0.0523384335	 1.1462252537	 0.0221030761	 0.166912
C	 1.3052350187	 1.927862507	 0.0319789395	-0.170891
C	 1.2115294349	 3.4434603619	-0.1520722009	-0.372872
C	 1.5497820872	 2.9018442073	 1.1817912694	 0.351251
C	 0.7910365908	 3.1192656659	 2.499530647	-0.253328
N	 2.0784835552	 3.4109253918	 3.229522812	-0.120706
C	 2.8925717384	 2.188892717	 3.1085224721	-0.238562
C	 2.8344556313	 3.0960016113	 1.9437244688	-0.112807
H	-0.8360382874	 1.7095797226	 0.3974197803	 0.063008
H	 2.1689765106	 1.4149348007	-0.3782086174	 0.108881
H	 1.9909856071	 3.9098039576	-0.7452344469	 0.132498
H	 0.2205044275	 3.8642801005	-0.2993307152	 0.127014
H	 0.1521746448	 4.0054717297	 2.4952446553	 0.121538
H	 0.2366556452	 2.272607239	 2.9178532764	 0.115252
H	 3.7872902143	 2.2179774346	 3.7227452784	 0.127423
H	 2.3974008525	 1.2207485316	 3.0649506652	 0.120487
H	 3.6779814496	 3.6933926768	 1.6115288471	 0.104024
