18
gdb 13082	4.03932	1.2956	1.07171	2.0058	73.37	-0.2532	0.0597	0.3129	1109.4117	0.152453	-347.7568	-347.748252	-347.747308	-347.789897	31.843	
O	 0.2437803106	 1.1842535708	-0.5653248558	-0.428414
C	 0.0773285851	-0.0671489918	 0.0613545757	 0.122951
C	-0.1162715146	-0.1317572448	 1.6008670487	-0.261973
C	-1.2630891468	-1.1537476503	 1.3601871087	-0.223575
C	-1.330623188	-0.6935650925	-0.1253266615	-0.0141
C	-2.4296492109	 0.3457589411	-0.4108758821	-0.358675
C	-3.7626686936	-0.2447434662	-0.3846482378	 0.293599
C	-4.850225712	-0.7568178321	-0.3551210687	-0.441188
H	 1.1174377848	 1.5222905401	-0.3453596798	 0.285402
H	 0.8534704807	-0.7757260217	-0.2628596275	 0.06868
H	 0.7348669319	-0.4468206227	 2.2094839655	 0.092749
H	-0.4899176739	 0.8230080255	 1.9812601572	 0.108094
H	-0.9263675209	-2.188642645	 1.4573421351	 0.102997
H	-2.1763372583	-1.0309830774	 1.9458624351	 0.112722
H	-1.3961783381	-1.4896388632	-0.8709789331	 0.078729
H	-2.3744348672	 1.1626088929	 0.3185484343	 0.130525
H	-2.2420652545	 0.8078991881	-1.3865664236	 0.141392
H	-5.8172422742	-1.1941761608	-0.3358386804	 0.190086
