19
gdb 31037	2.34675	1.31121	0.89068	2.326	80.24	-0.1863	0.0478	0.2341	1342.0376	0.158699	-419.260746	-419.250943	-419.249999	-419.295761	35.272	
C	 0.2117051124	 1.5668688073	 0.1572655197	-0.359136
C	-0.1401675889	 0.0965791829	-0.1207165218	-0.302812
C	 0.5578646963	-0.4599391785	-1.32201476	 0.14554
C	 0.0268475324	-0.9126058686	-2.4998869091	 0.291061
O	-1.2282582199	-1.0412190962	-3.0013027171	-0.439194
N	 1.0818153824	-1.3064876188	-3.2859627171	-0.335626
C	 2.2294801463	-1.0792462878	-2.5596725024	 0.327521
C	 3.5929266635	-1.3842426879	-3.0803597956	-0.497725
N	 1.9406878866	-0.5750860263	-1.3860593208	-0.341683
H	 1.2932855236	 1.6755341024	 0.2730827763	 0.139572
H	-0.1015560373	 2.2095675288	-0.6719601766	 0.108119
H	-0.2729445333	 1.9246803459	 1.0715151103	 0.102317
H	 0.1160813959	-0.5050395957	 0.7608651922	 0.114513
H	-1.228134622	-0.0045500327	-0.2447820092	 0.066979
H	-1.8501159677	-0.7370710606	-2.3325860153	 0.307242
H	 1.0019075107	-1.6882979618	-4.2134952265	 0.264914
H	 3.825654247	-0.8143007004	-3.9881456352	 0.126832
H	 4.3211289977	-1.1186976595	-2.3127939785	 0.154913
H	 3.7156903743	-2.4476482726	-3.3192342133	 0.126653
