20
gdb 58645	2.6682	1.39436	1.05974	1.2127	73.88	-0.2491	0.0693	0.3184	1176.7865	0.170206	-440.233725	-440.224557	-440.223613	-440.267535	34.817	
C	 0.6017811565	 0.1403906423	 0.9056198637	-0.413175
C	-0.4020909457	-0.0504114263	-0.2359994106	 0.056514
O	-1.0766580075	 1.161868572	-0.5269671021	-0.433145
C	 0.2560779223	-0.6162809061	-1.5004374461	 0.357257
C	-0.2898523953	-0.2492102876	-2.8135472402	-0.226072
O	 0.8973274072	 0.3914857518	-2.3019215116	-0.29411
C	 1.0307534873	-1.8942891833	-1.3390542706	-0.075047
C	 2.0761029777	-2.2833856214	-2.312929074	-0.248146
N	 2.4542791737	-1.8541373642	-0.9533644555	-0.321837
H	 1.0736870436	-0.8017582176	 1.1969686308	 0.140095
H	 1.3925384795	 0.8371104424	 0.6043358113	 0.115739
H	 0.0884066484	 0.563510335	 1.772385062	 0.125997
H	-1.182769123	-0.7536865236	 0.0804161651	 0.095994
H	-0.4235056461	 1.7327021264	-0.9531604816	 0.286952
H	-0.1197831115	-0.9100871695	-3.660360104	 0.117257
H	-1.1644599464	 0.3923953432	-2.8643446922	 0.13402
H	 0.4716821047	-2.6816801885	-0.8360657244	 0.094872
H	 2.2476250554	-3.3337758211	-2.528831895	 0.118586
H	 2.2769912642	-1.5993312837	-3.1318446026	 0.127222
H	 2.7737407653	-0.8884750103	-1.0051332025	 0.241028
