15
gdb 128280	2.80491	1.56329	1.01014	1.9043	73.29	-0.2228	-0.0427	0.1802	1111.1423	0.115357	-450.174423	-450.166345	-450.1654	-450.208553	28.705	
C	-0.0421579363	 1.4346985798	 0.0586719758	-0.318737
N	 0.0439500825	-0.0042309252	-0.0729358167	-0.323867
C	 0.6333482724	-0.6184900482	-1.103927506	 0.323343
N	 1.1898346158	 0.0359880136	-2.0953432847	-0.364123
C	 1.7514060756	-0.7272106357	-3.0754067336	 0.079839
N	 1.8056186881	-2.0244079603	-3.1523101815	-0.2213
N	 1.2168062499	-2.6703008225	-2.1038164653	-0.277751
C	 0.602092283	-2.1025737855	-1.0272341318	 0.401129
O	 0.086515261	-2.7253057611	-0.1082879134	-0.409601
H	 0.9553596602	 1.885311742	 0.0872199309	 0.148621
H	-0.5817027882	 1.8730694845	-0.7872409821	 0.148736
H	-0.5699422246	 1.6725296711	 0.9830918029	 0.13429
H	-0.3441061002	-0.6261940862	 0.621651208	 0.275144
H	 2.2134427458	-0.1928744652	-3.8985321621	 0.128364
H	 1.2499768751	-3.6798128911	-2.1476975802	 0.275912
