18
gdb 92419	2.43019	1.53591	1.26318	1.0174	73.18	-0.2379	-0.0446	0.1933	1067.1648	0.146886	-439.048832	-439.040507	-439.039562	-439.081774	31.219	
C	-0.5659123562	 1.4279371762	-0.0257423381	-0.408415
C	 0.0731761077	 0.0643586889	-0.1258142934	 0.115904
O	 1.2801790993	 0.0459316029	-0.9425776474	-0.31075
C	 2.0218200974	-0.649645893	 0.0633094921	 0.056945
C	 2.8352863747	 0.256861486	 1.0092895446	-0.183747
N	 1.6174700271	 0.5122911473	 1.8347955455	-0.363218
C	 0.8511797858	-0.5032449285	 1.0963782712	 0.1832
C	 0.2869640181	-1.6325106488	 1.8847615656	 0.059182
O	 0.4790144101	-1.7790834254	 3.0687135866	-0.26163
H	-0.7820313773	 1.8089260946	-1.0285088553	 0.128952
H	-1.5090022572	 1.3658764478	 0.5278863845	 0.118167
H	 0.101240739	 2.1206275734	 0.4908114745	 0.14627
H	-0.6350490514	-0.6810118435	-0.5181753229	 0.076299
H	 2.4581913637	-1.5860932035	-0.2918331968	 0.093276
H	 3.6256794412	-0.291817503	 1.5356776633	 0.10855
H	 3.2575626784	 1.1527311205	 0.5448370467	 0.118479
H	 1.7164838493	 0.2444284759	 2.8091564234	 0.237822
H	-0.3252438597	-2.3561646779	 1.3026413357	 0.084715
