20
gdb 63513	3.14575	1.26987	1.24682	2.8451	79.7	-0.231	0.0743	0.3052	1132.7161	0.169404	-403.04968	-403.041129	-403.040185	-403.08237	33.554	
C	-0.0635778929	 1.5527760741	-0.0925430657	-0.437825
C	-0.0705470993	 0.0415981059	 0.0144329171	 0.187611
C	-1.245936046	-0.6465640163	-0.6512622801	-0.460032
N	 1.2838671321	-0.5842640493	-0.125720309	-0.448521
C	 0.6006029225	-0.6329110574	 1.1403440963	 0.45911
C	 1.1526023346	-0.2901887813	 2.5351224059	-0.05503
C	-0.185559401	-0.7740355258	 3.1473315283	-0.218701
C	 0.2756010225	-1.803195713	 2.0849053853	-0.068692
O	 1.6528395023	-1.688316458	 2.6265668987	-0.311274
H	 0.8374105079	 1.9686329689	 0.3636357716	 0.128463
H	-0.0848591189	 1.8642259313	-1.1431074702	 0.119428
H	-0.9396199048	 1.9857601665	 0.4036298014	 0.112643
H	-1.2554561068	-0.4376616311	-1.7275657171	 0.124422
H	-1.2065265627	-1.7317939068	-0.51573512	 0.113479
H	-2.1972988021	-0.2905047764	-0.2401399403	 0.123429
H	 1.2294212363	-1.4787947154	-0.6087754158	 0.227599
H	 1.8226359397	 0.5075429321	 2.8525719222	 0.101637
H	-0.1076205596	-1.1268897771	 4.1758698748	 0.109771
H	-1.0896732147	-0.1917220627	 2.9515073997	 0.097896
H	-0.1016554291	-2.804255988	 1.8730808069	 0.094588
