16
gdb 60749	2.02451	1.28548	1.08801	2.3821	69.76	-0.2734	-0.0536	0.2198	1198.2108	0.120569	-437.926379	-437.916545	-437.9156	-437.962725	33.219	
C	 1.5307846598	 1.3750179916	 0.0183981147	-0.410421
C	 0.60653121	 0.3011837413	 0.6075640065	-0.21171
C	-0.2597504403	-0.3213562146	-0.4876175365	 0.167107
O	-0.4775277774	-1.4961527451	-0.6329142816	-0.243041
C	 1.3730634828	-0.7642226693	 1.389665214	 0.406791
O	 2.5733502038	-0.840832733	 1.3644079448	-0.284662
C	 0.5527909937	-1.7967470326	 2.1896304765	-0.42605
C	-0.5558076231	-1.2180514721	 2.9374281715	 0.255989
N	-1.4255590898	-0.7239304648	 3.5166365266	-0.310007
H	 2.2819470385	 0.9256490923	-0.6349824059	 0.150182
H	 0.9524313719	 2.1049909924	-0.5551835886	 0.125315
H	 2.0570104682	 1.9038334981	 0.8152282198	 0.14581
H	-0.1125907206	 0.775229905	 1.2937616438	 0.154123
H	-0.6932239636	 0.4325468852	-1.1804344641	 0.104303
H	 0.1519686809	-2.5046076395	 1.4535583319	 0.202826
H	 1.2357889452	-2.3281539149	 2.8563963366	 0.173445
