19
gdb 125892	3.56053	1.27782	1.0049	2.9231	83.89	-0.2213	0.0352	0.2565	1225.7013	0.160417	-382.070195	-382.061557	-382.060613	-382.104569	31.474	
C	-0.384635519	 1.6043666578	-0.227904197	-0.400549
C	 0.0486535039	 0.1786061411	 0.0563738315	 0.05621
C	 0.7509478778	-0.6417255614	-1.109063691	-0.408484
C	 1.9596367278	-0.6953770516	-0.1824984169	 0.324606
C	 3.2010488712	-1.0491269102	 0.3253410168	-0.003754
C	 4.3202948765	-1.8402687752	-0.2779597795	-0.508998
C	 3.1617797232	-0.4463263582	 1.6171203412	-0.052013
N	 2.0173579006	 0.2037910279	 1.8988800048	-0.323268
N	 1.3385472557	 0.0260303637	 0.7611893144	 0.084703
H	 0.4099093964	 2.1604417646	-0.734261998	 0.130137
H	-1.2753028724	 1.6075112737	-0.864395868	 0.125181
H	-0.6295013064	 2.1252325077	 0.7024347483	 0.142287
H	-0.7499612781	-0.386058407	 0.5488129629	 0.105946
H	 0.278167901	-1.6005576496	-1.335825224	 0.125675
H	 0.8796756593	-0.0759037285	-2.0357559679	 0.122974
H	 5.1184143489	-1.9959236004	 0.4535980815	 0.12642
H	 3.9896032093	-2.8285125256	-0.6168825456	 0.123881
H	 4.7651888692	-1.3351422825	-1.143346819	 0.125524
H	 3.950316185	-0.4672134162	 2.3575071657	 0.103522
