15
gdb 16206	3.15807	2.40718	1.56712	1.7547	62.63	-0.2523	0.0181	0.2704	807.6239	0.119777	-399.796346	-399.789551	-399.788606	-399.827394	25.699	
N	-0.0553580297	 1.2714239102	-0.2006169442	-0.552993
C	-0.0249525309	 0.0210202578	-0.045824384	 0.35034
O	 1.0846828091	-0.7485416096	 0.1712045127	-0.247793
C	 0.6429716429	-2.0839337786	 0.4294897675	 0.00799
O	-0.6424870179	-2.2029652197	-0.1202637784	-0.278031
C	-1.1906606496	-0.9050362683	-0.0630739655	 0.340946
C	-2.4364229251	-0.6207589874	 0.7443272634	-0.318229
C	-2.4690657844	-0.6118348721	-0.768758257	-0.318558
H	 0.8759711991	 1.6788125208	-0.118365649	 0.228963
H	 1.3169370071	-2.7875881245	-0.0649754076	 0.132153
H	 0.6388465058	-2.2469426598	 1.5188373593	 0.107357
H	-2.8852399614	-1.468436848	 1.2495662781	 0.127888
H	-2.4835889889	 0.3269555979	 1.2681490348	 0.13996
H	-2.5307785792	 0.343033843	-1.2780810922	 0.148228
H	-2.947409627	-1.4479332916	-1.2660360779	 0.131777
