15
gdb 25031	4.21369	1.07807	0.91059	4.2506	69.47	-0.1978	0.0173	0.215	1220.7993	0.113995	-453.977846	-453.970134	-453.96919	-454.010519	28.769	
O	 0.0809666163	-0.0148997084	 0.1234152933	-0.425448
C	 0.0083960172	 1.1956097223	 0.1009078177	 0.450827
N	-1.1250173205	 1.992188618	-0.0438784924	-0.338986
C	-0.791210876	 3.3418673044	-0.0958223004	-0.194034
C	 0.5484772187	 3.4319000381	 0.0594117912	 0.352261
N	 1.0326295514	 2.1324393604	 0.2112785486	-0.41659
C	 1.4299590491	 4.60184886	 0.1356123854	-0.036118
C	 2.5378379681	 4.7034796648	 1.1040873295	-0.189841
O	 2.7934343993	 4.3867542409	-0.2657796125	-0.243507
H	-2.0374134064	 1.5932188178	-0.1745594723	 0.270743
H	-1.5309319907	 4.1168181822	-0.2003329429	 0.141889
H	 2.0030911073	 1.8785213072	 0.1352893818	 0.2753
H	 0.987174059	 5.5283937725	-0.2272887566	 0.105802
H	 2.8765772449	 5.6863218192	 1.4285410295	 0.125016
H	 2.7034082623	 3.8937760507	 1.8126102002	 0.122687
