20
gdb 17358	4.239	1.3055	1.1053	0.0001	76.94	-0.211	0.0929	0.304	1134.8413	0.176262	-345.111581	-345.102847	-345.101903	-345.145233	32.124	
C	-0.1496703715	 1.5499880703	-0.1595353809	-0.309711
N	-0.0188503248	 0.1074860996	-0.0079976075	-0.089366
C	 1.2950085065	-0.4871838602	-0.2079171257	-0.261993
C	 0.6780149233	-0.455130313	 1.1533182147	 0.000734
C	 1.265044563	 0.4033153354	 2.2329306735	 0.000743
C	 0.6482112433	 0.4351787911	 3.5942392685	-0.261997
N	 1.9621343991	-0.1592964192	 3.3941194612	-0.089369
C	 2.0931475041	-1.6017995612	 3.5455005988	-0.309709
H	 0.7635460635	 2.1242341877	 0.059290309	 0.102921
H	-0.4350596481	 1.7626248754	-1.1948315078	 0.123775
H	-0.9493153647	 1.91354083	 0.4935064351	 0.125136
H	 1.3276026282	-1.4060648193	-0.7882645223	 0.113329
H	 2.1370603034	 0.1852330324	-0.3757320004	 0.106037
H	 0.2023545238	-1.3650401583	 1.5120256245	 0.08914
H	 1.7405396725	 1.3133149693	 1.8742346672	 0.089136
H	 0.6155570701	 1.3540098217	 4.1746624783	 0.11333
H	-0.1937273142	-0.2373679597	 3.7621038016	 0.106036
H	 1.1800086325	-2.1761440554	 3.3266140258	 0.102918
H	 2.8928395248	-1.9651749668	 2.8924171778	 0.125136
H	 2.3785702352	-1.8145085397	 4.5807724786	 0.123774
