22
gdb 109735	1.81265	1.41908	1.05068	3.1567	83.87	-0.2412	0.0289	0.2701	1304.972	0.193142	-404.384104	-404.373466	-404.372522	-404.419988	38.656	
C	-0.3444553166	 1.5178998617	 0.7811466891	-0.37488
C	-0.1361474962	 0.2912093343	-0.1143889818	-0.200759
C	-1.3369414357	-0.6344846313	-0.1109017473	-0.011478
C	-1.284834531	-2.0808377149	-0.5019241175	-0.045675
C	-0.0197645315	-2.7849847697	-0.9449880114	-0.417667
C	-1.5612254812	-1.7090603543	 0.9587111114	-0.151622
C	-0.5604976597	-1.9670946396	 2.0376900993	 0.424749
N	-1.1149629963	-2.3207578179	 3.2400945601	-0.534642
O	 0.6509778927	-1.8658696639	 1.9116917054	-0.382591
H	 0.5156199165	 2.192669508	 0.729494072	 0.110072
H	-1.2330423674	 2.0868088926	 0.4833659396	 0.104115
H	-0.4729167207	 1.2212089703	 1.8270980904	 0.121602
H	 0.0405065328	 0.6186344782	-1.1476597476	 0.087646
H	 0.7542841956	-0.2462422806	 0.2133045653	 0.139474
H	-2.2605936489	-0.1250440631	-0.3817139342	 0.081662
H	-2.1753721626	-2.4413772682	-1.0123736266	 0.08481
H	 0.8370457189	-2.5073002534	-0.3321623674	 0.162215
H	-0.1434128068	-3.8710599851	-0.8725739418	 0.110074
H	 0.198682173	-2.5466424728	-1.9919693973	 0.110328
H	-2.5924870751	-1.8311263308	 1.2772858456	 0.069451
H	-2.0901098901	-2.5405867716	 3.3376986806	 0.255707
H	-0.4851843297	-2.5922347081	 3.9773495639	 0.25741
