15
gdb 125437	4.01137	0.99284	0.86488	1.7599	72.61	-0.2692	-0.0218	0.2474	1324.7679	0.111138	-416.787965	-416.779331	-416.778387	-416.822436	30.344	
C	-0.0445586437	 1.457314758	-0.0770947513	-0.496129
C	-0.0294873924	-0.0264710152	-0.0059063117	 0.412303
N	-1.0202511621	-0.85484065	-0.1488197755	-0.332143
C	-0.4047167283	-2.0750083404	 0.017800072	 0.358815
C	-1.1318003058	-3.3879122284	-0.0413583683	-0.44969
C	-1.7195436716	-3.6533158206	-1.3512339397	 0.314868
C	-2.1994383842	-3.8783007198	-2.4284025781	-0.451711
N	 0.8780549103	-2.013039609	 0.2517976585	-0.169599
O	 1.1399955122	-0.6361556066	 0.236973032	-0.19381
H	 0.3158518027	 1.8920291096	 0.8599492998	 0.159274
H	 0.6103737611	 1.8100843487	-0.8794438063	 0.160799
H	-1.0625421347	 1.7965178056	-0.2665999214	 0.165517
H	-0.4263662483	-4.1804793102	 0.2282700345	 0.162243
H	-1.920824324	-3.3820817301	 0.7210691008	 0.156964
H	-2.6258219613	-4.0744949916	-3.3808293854	 0.2023
