20
gdb 79069	2.16387	1.98029	1.68497	1.528	82.4	-0.2228	0.0041	0.227	969.2295	0.171323	-365.975105	-365.967228	-365.966284	-366.006738	32.146	
C	-0.1026149981	 1.5978566824	-0.0330930886	-0.415227
C	 0.0899881682	 0.0957750734	 0.0550984918	 0.064831
N	 1.0256395207	-0.533748156	-0.9188191871	-0.17783
C	 2.4585683281	-0.549727091	-0.3342828564	-0.068192
C	 2.8227424648	 0.3539636678	 0.783400467	-0.092451
C	 1.8981884557	 0.2572935591	 1.7481519133	-0.141917
C	 0.7831631339	-0.6455921633	 1.2856682561	 0.236378
C	-0.1007830239	-1.2815967895	 2.337238532	-0.504798
C	 1.4327593131	-1.4960985951	 0.1464758846	-0.081766
H	 0.8284241471	 2.1421108294	 0.1365250791	 0.121945
H	-0.4684607248	 1.854163777	-1.0330822596	 0.125013
H	-0.8450303726	 1.9408258719	 0.6962142885	 0.110377
H	-0.8685814227	-0.4090779357	-0.1110002465	 0.085142
H	 3.1666953354	-0.8258966366	-1.1056215778	 0.095687
H	 3.6774146525	 1.0183953611	 0.763662488	 0.099894
H	 1.8343597582	 0.8656831381	 2.6431948077	 0.096459
H	-0.596731436	-0.5195932561	 2.9490219395	 0.119069
H	-0.8802302903	-1.9005058406	 1.8800446963	 0.11657
H	 0.4818431313	-1.918636484	 3.0117357019	 0.121978
H	 1.4152144695	-2.5747289424	 0.0173000002	 0.088839
