17
gdb 83296	2.40939	1.91224	1.49002	1.0755	66.47	-0.2427	-0.0278	0.2149	938.1931	0.136947	-458.985259	-458.977848	-458.976904	-459.017132	28.554	
C	-0.2582510893	 1.5597630018	 0.0246099553	-0.413408
C	 0.0123655224	 0.0599244189	-0.0305302198	-0.127957
C	 0.9345036353	-0.4740233627	-1.1492073893	 0.170346
O	 2.1593417159	 0.2585516204	-1.1573073327	-0.2731
C	 2.9257243923	-0.2897331775	-0.0707400207	-0.097658
C	 1.928016117	-1.3080964204	 0.5277312593	-0.088785
O	 1.282392767	-1.7645451699	-0.6713756243	-0.246732
C	 0.8133379356	-0.4694582598	 1.1761579847	 0.42224
O	 0.6415291596	-0.2354002619	 2.3412382413	-0.322071
H	 0.6745429495	 2.1219619717	-0.066879757	 0.135254
H	-0.9243892912	 1.8712003081	-0.7853561349	 0.119731
H	-0.7291991468	 1.8175981452	 0.9770497182	 0.140309
H	-0.9298300663	-0.5011438602	-0.0795402214	 0.115591
H	 0.5274088027	-0.5263999828	-2.158236732	 0.102506
H	 3.8191114092	-0.7887126343	-0.46095447	 0.121644
H	 3.2178200825	 0.4992366925	 0.6289665879	 0.126968
H	 2.3373259047	-2.1261962189	 1.1144221454	 0.115122
