12
gdb 11170	4.31636	1.61201	1.40684	4.5939	56.17	-0.2795	-0.014	0.2655	855.271	0.085078	-414.678492	-414.671819	-414.670875	-414.710001	23.552	
N	-0.1125883416	 1.2784334739	-0.1222100223	-0.558597
C	 0.0045093348	 0.0428940173	 0.0339823717	 0.507009
O	 1.1512658379	-0.6778716047	 0.2054297761	-0.242603
C	 0.8220299907	-2.021120543	 0.5428324425	-0.120135
C	-0.6405198075	-2.1393333073	 0.0597189863	-0.051888
O	-1.0814292992	-0.7875377681	 0.0551684997	-0.215702
C	-0.7568539535	-2.7381855065	-1.2808739593	 0.281989
N	-0.8352322981	-3.2375983567	-2.3190495217	-0.297612
H	 0.7934071401	 1.7365444824	-0.0659010921	 0.243297
H	 1.5062977164	-2.699441612	 0.0331694994	 0.158722
H	 0.8880849124	-2.1639383907	 1.6264664702	 0.138109
H	-1.2664205927	-2.7045284245	 0.7541575597	 0.157412
