21
gdb 26407	4.15005	0.89618	0.82237	1.3251	86.46	-0.1671	0.0558	0.223	1480.9205	0.183161	-383.302819	-383.293308	-383.292364	-383.337277	36.251	
C	 0.0015248638	 1.5717125378	 0.084951157	-0.39635
C	-0.0085317589	 0.0438207655	-0.000161959	 0.069182
C	 0.6416926904	-0.5943535938	 1.2399713112	-0.3855
N	-1.378289174	-0.4042391771	-0.2418980272	-0.39762
C	-1.6219891538	-1.7400320006	-0.5866426618	 0.318026
C	-0.7446666524	-2.6532335259	-1.1418335962	-0.174736
N	-1.4565852316	-3.8120407135	-1.3955329456	-0.24426
C	-2.7532449124	-3.6561746808	-1.0024385017	-0.064085
C	-2.8939328247	-2.3841232907	-0.4969048298	-0.2597
H	 1.0203867553	 1.9500616664	 0.2109470263	 0.112206
H	-0.4302356184	 2.0128974119	-0.8171109117	 0.122491
H	-0.5858140342	 1.9150601217	 0.9459990508	 0.10713
H	 0.5708662438	-0.2483147209	-0.8860476505	 0.085563
H	 0.5859319202	-1.6849074468	 1.1904809431	 0.125195
H	 1.6950195623	-0.3064409934	 1.3275337711	 0.106061
H	 0.1277317806	-0.2683316409	 2.1522325902	 0.104397
H	-2.014198881	-0.0767602111	 0.4743235658	 0.21751
H	 0.3016209049	-2.5816416278	-1.3842173666	 0.104444
H	-1.0651755859	-4.6493586052	-1.7860508236	 0.256575
H	-3.4713387768	-4.452799345	-1.1124838972	 0.112799
H	-3.8041414571	-1.9473863497	-0.1140242845	 0.080673
