22
gdb 6015	2.52485	1.67379	1.36004	0.5638	83.51	-0.2573	0.0612	0.3185	1069.2119	0.1967	-313.049159	-313.038888	-313.037943	-313.083162	38.911	
C	 0.0460013171	 1.5686639396	 0.0323228173	-0.407018
C	-0.0033649807	 0.0339642265	 0.0509209706	 0.045674
C	 0.8616971765	-0.5073341557	 1.1995155609	-0.41647
C	-1.4717761902	-0.5289926139	 0.0478100059	 0.071471
C	-1.460544428	-2.0771379601	 0.0136005304	-0.415641
C	-2.2901179644	-0.0583972315	 1.2736099256	-0.41192
C	-2.1432538498	-0.0635702661	-1.1735645094	 0.351921
C	-2.6988101555	 0.2958544136	-2.1782355353	-0.499281
H	 1.071979946	 1.9102301154	-0.1385389435	 0.108885
H	-0.5844779156	 1.9798775638	-0.7599842332	 0.128504
H	-0.2821956688	 1.9946463816	 0.9866941384	 0.112231
H	 0.4401116846	-0.3189735734	-0.8895605235	 0.080305
H	 0.4719978858	-0.2091588635	 2.1786473139	 0.116048
H	 0.9457053316	-1.5968137646	 1.1856594844	 0.115419
H	 1.8751930505	-0.1008791596	 1.1194666479	 0.113329
H	-1.082527233	-2.4867631168	 0.9541572915	 0.114967
H	-2.4735830684	-2.4592486999	-0.1381610224	 0.121648
H	-0.8344183679	-2.4472112017	-0.8038007789	 0.119287
H	-2.3855285454	 1.0291997938	 1.3008017988	 0.124909
H	-3.2985023108	-0.4797717126	 1.2352427212	 0.121647
H	-1.8212426771	-0.3904177391	 2.2045895638	 0.113509
H	-3.1893982465	 0.6167558942	-3.0636311546	 0.190576
