15
gdb 75870	3.16615	1.24105	0.92311	2.516	69.27	-0.2574	-0.074	0.1834	1183.6129	0.110784	-457.794666	-457.786267	-457.785322	-457.828219	30.087	
O	 0.2141620501	 1.5966853924	-0.0133395487	-0.435458
C	 0.1645025016	 0.1923487686	 0.0292151317	-0.067624
C	 0.5539385286	-0.3635273983	 1.4125631561	 0.366911
O	 1.335151182	 0.1803620114	 2.1465979808	-0.304599
C	-0.322527947	-1.5858648617	 1.7017141076	-0.37914
C	-1.4579022478	-1.3731732078	 0.7386351842	-0.140385
C	-1.2190461228	-0.3916481263	-0.1471015966	 0.201904
C	-2.1724390713	 0.0514485569	-1.1866417432	 0.070751
O	-3.2658352228	-0.4416983045	-1.348989175	-0.259338
H	 0.8659094513	 1.8643194707	 0.6502497936	 0.298612
H	 0.8579637033	-0.2409190376	-0.71723227	 0.103427
H	 0.2392465364	-2.5077932843	 1.4925260228	 0.153948
H	-0.618894714	-1.6335358971	 2.7548077112	 0.152549
H	-2.3784366091	-1.9446409751	 0.7594587859	 0.141663
H	-1.8170576085	 0.8877748727	-1.8222793803	 0.096781
