23
gdb 110664	2.82678	1.35107	1.25271	0.1988	87.87	-0.2466	0.0861	0.3327	1168.7786	0.208476	-351.143868	-351.13577	-351.134826	-351.176474	32.769	
C	 1.160842484	 0.3115192513	 1.1499223595	-0.38147
C	 0.0903837624	 0.2341930616	 0.0547251988	-0.205476
C	 0.5987079966	-0.46887904	-1.2035193136	 0.049841
C	 0.9488009286	-1.9629954262	-1.2116987687	-0.084676
C	-0.2623316803	-2.852738044	-1.4623656951	-0.025376
C	-1.6743968949	-2.3417980568	-1.1842099349	-0.236167
C	-1.7800112096	-1.0503230234	-2.0442042338	-0.204981
C	-0.3297588816	-0.7335556584	-2.4439738477	-0.082523
C	 0.3645767	-2.1160736035	-2.6090231634	-0.08663
H	 1.4848809339	-0.6890968612	 1.4559337449	 0.117878
H	 2.0473508368	 0.8526980268	 0.7999232595	 0.111049
H	 0.7867248981	 0.8263422027	 2.0403319969	 0.108762
H	-0.7948138692	-0.2730414793	 0.4520415221	 0.096028
H	-0.2318849344	 1.250193058	-0.2117130066	 0.089917
H	 1.4808119091	 0.0758172382	-1.5645965671	 0.065429
H	 1.8654404271	-2.3949562768	-0.8242495352	 0.074328
H	-0.061339399	-3.9146256698	-1.3639659055	 0.076521
H	-2.4165352643	-3.0864032719	-1.4909232716	 0.093315
H	-1.8456951383	-2.1496768825	-0.1200759197	 0.099193
H	-2.3752035754	-1.2401300789	-2.9444616238	 0.092386
H	-2.2584796748	-0.2233133054	-1.5102217689	 0.094512
H	-0.2410558956	-0.0096973147	-3.2549550199	 0.058985
H	 0.7870980606	-2.5521843258	-3.5042672261	 0.079156
