18
gdb 19365	4.18565	1.71156	1.51998	0.8729	71.14	-0.2092	0.0856	0.2948	903.2725	0.153102	-347.715	-347.707601	-347.706656	-347.746473	28.961	
C	 0.0318812219	 1.330783619	 0.2128866735	-0.256454
O	-0.0190562321	-0.0315485052	-0.1808000368	-0.274693
C	-1.2838061865	-0.5681296857	-0.0963668765	 0.448173
C	-1.8755422271	-1.0668367718	 1.1949568673	-0.36654
C	-1.6557352791	-2.0188674736	 0.0301446634	-0.154834
C	-2.6868245091	-1.8523401444	-1.1245866528	-0.045787
C	-3.7235036699	-0.7838281808	-0.8962833752	-0.301697
C	-2.3175729327	-0.3845885876	-1.2549786473	-0.124733
H	 1.0684609925	 1.6567045595	 0.1022713913	 0.125447
H	-0.6100773936	 1.9599268032	-0.4196889719	 0.112354
H	-0.2795115983	 1.4563918029	 1.2591058639	 0.111206
H	-1.1269277404	-1.1857922864	 1.9731766884	 0.116056
H	-2.8576926885	-0.7986795644	 1.5695965094	 0.108151
H	-1.0097015142	-2.8819186267	 0.1210178901	 0.097848
H	-2.7850839287	-2.5833364092	-1.9165921492	 0.090168
H	-4.4361774924	-0.6785540959	-1.7099190805	 0.111576
H	-4.1582857007	-0.5847525734	 0.0768737354	 0.112283
H	-2.0683062513	 0.1620720903	-2.1554183525	 0.091474
