13
gdb 124059	3.90842	1.63539	1.16136	2.4791	65.18	-0.232	-0.0344	0.1976	947.8144	0.092053	-452.738322	-452.731988	-452.731044	-452.769646	23.618	
C	-0.0119108884	 1.482295167	 0.1215379982	-0.180402
O	 1.2510746578	 2.0312982257	-0.3315641261	-0.23839
C	 2.2672919672	 1.2437170792	-0.7597944378	 0.125429
N	 2.3263340817	-0.025596158	-0.8480326057	-0.357174
C	 1.150469033	-0.6583205035	-0.4324694352	 0.138757
C	 0.0563309115	 0.0017230579	 0.018869852	 0.346534
O	-0.920861709	-0.8414875576	 0.3477932933	-0.222104
N	-0.4622776434	-2.1537367177	 0.105089888	-0.137115
C	 0.7593202249	-2.0238191029	-0.3540584876	-0.058643
H	-0.1732700874	 1.8274007484	 1.1508105588	 0.147377
H	-0.8041771292	 1.9130714611	-0.5039882785	 0.147377
H	 3.1082611395	 1.8673950587	-1.0481388843	 0.142395
H	 1.3212723018	-2.9093998884	-0.6141688954	 0.145959
