15
gdb 127742	3.36523	1.42811	1.00931	2.7148	74.12	-0.2342	-0.0583	0.1759	1112.145	0.113458	-450.144785	-450.13669	-450.135746	-450.177277	30.239	
C	-0.0195353601	 1.4173501385	-0.0297963619	-0.313478
N	-0.0152157949	-0.0402518404	 0.0144922624	-0.065562
N	-0.0657066193	-0.6577106071	-1.1605179086	-0.061571
N	-0.0674320836	-1.9319517919	-1.2213357531	-0.282697
C	-0.0150681623	-2.673552611	-0.0506640827	 0.468075
N	-0.0682842638	-4.0159767065	-0.2798464129	-0.554267
C	 0.0493361872	-2.0939260915	 1.1898175112	-0.379761
C	 0.0506450285	-0.672103048	 1.2963304197	 0.483177
O	 0.1002625804	 0.0223536981	 2.2966796035	-0.406667
H	 0.8850778654	 1.8042691933	 0.444352231	 0.156408
H	-0.0666107995	 1.7129240115	-1.0765538005	 0.15039
H	-0.8802362954	 1.8012438638	 0.5222294673	 0.156724
H	 0.0962871607	-4.3086483692	-1.2296344311	 0.2704
H	 0.212416516	-4.6495709158	 0.4486880497	 0.266132
H	 0.0943909505	-2.6730194736	 2.1038296358	 0.112698
