19
gdb 65954	2.26759	1.46677	1.36982	1.0097	81.77	-0.2519	0.0311	0.283	1088.1089	0.156891	-385.827628	-385.81847	-385.817526	-385.861233	35.288	
O	-0.0875319583	 1.3217786218	-0.5687829007	-0.463218
C	-0.0122294574	-0.00940689	-0.0894670837	 0.173668
C	 0.0920233497	-0.1928771363	 1.4663918999	-0.274575
C	-1.0958905615	-1.1952157665	 1.4143822747	-0.308374
C	-1.3898013031	-0.7038457458	-0.0059125104	 0.345639
C	-2.6539362468	-0.0522910097	-0.4827893449	-0.315042
C	-2.1666278859	-1.3338071165	-1.1175551052	-0.338662
C	 0.9878931668	-0.7748163917	-0.8288006879	 0.304199
C	 1.8308035973	-1.3772469894	-1.4403797833	-0.507478
H	 0.7922161524	 1.5846012038	-0.8589065857	 0.284047
H	 1.0449793807	-0.5500977846	 1.8596658105	 0.103243
H	-0.1809669449	 0.7487342048	 1.9472706971	 0.1152
H	-0.7667498285	-2.2380610861	 1.4441397408	 0.109047
H	-1.8857942683	-1.054421248	 2.1557634336	 0.102806
H	-3.5201697739	-0.0975494341	 0.1701421234	 0.108079
H	-2.5537161916	 0.8679953306	-1.0464621245	 0.132262
H	-1.745908047	-1.2823750687	-2.1168327282	 0.119362
H	-2.7022583773	-2.2532941092	-0.9035269121	 0.109819
H	 2.5675756675	-1.9182962944	-1.9812763734	 0.199978
