22
gdb 118114	3.39181	0.73755	0.67311	1.4137	79.42	-0.2447	0.0696	0.3143	1738.4509	0.192259	-441.450115	-441.439206	-441.438261	-441.486982	38.875	
C	 0.0953174958	 1.5258159926	-0.3079032559	-0.392556
C	 0.0318006683	 0.0521844416	 0.0136496045	-0.000155
N	 1.3027363648	-0.6959635054	 0.0519666389	-0.34132
C	 0.5091532231	-0.555075898	 1.2842208949	-0.045876
C	 1.1368713177	 0.2272656078	 2.4203143912	 0.123064
O	 0.1333348211	 0.8354452463	 3.2361314728	-0.435412
C	 2.0876327791	-0.6519546398	 3.2379620254	-0.190866
C	 2.806356786	 0.1101816174	 4.3430527398	-0.081161
O	 3.6118134567	-0.8175610454	 5.0573417259	-0.424483
H	 0.9974068779	 1.9853031716	 0.1008626211	 0.128646
H	 0.1073677481	 1.6793609929	-1.3922669728	 0.115701
H	-0.7749898951	 2.048572242	 0.1017943932	 0.123935
H	-0.81500455	-0.4611091208	-0.4422316681	 0.079496
H	 1.1919625931	-1.6248655345	-0.3441962391	 0.230492
H	-0.0393712544	-1.4367831883	 1.6243314294	 0.068617
H	 1.7009779937	 1.0653917063	 1.9998100451	 0.093121
H	-0.3866688594	 0.1281009833	 3.6341382168	 0.275715
H	 1.5257597787	-1.4816507057	 3.6909395597	 0.087774
H	 2.8261080384	-1.1006283745	 2.5643113155	 0.120749
H	 3.4196112292	 0.9115025091	 3.8986460399	 0.084915
H	 2.0657629039	 0.5913689675	 4.997419024	 0.095313
H	 4.0435822434	-0.3461218862	 5.7755112478	 0.284292
