21
gdb 111073	3.46467	1.06795	1.04074	3.2362	82.71	-0.2298	-0.0021	0.2276	1276.6266	0.183875	-387.10482	-387.096558	-387.095613	-387.137819	32.421	
C	 1.0665610585	 0.2292112301	 1.1372412306	-0.381563
C	 0.0686368328	 0.1750243591	-0.0259301413	-0.224365
C	 0.671154428	-0.4484108635	-1.2827308238	 0.045701
C	 0.8664646579	-2.0011689321	-1.3312115833	-0.03322
C	-0.6258080462	-2.1033801116	-1.7591212553	-0.24818
C	-0.3152262391	-0.7463079476	-2.4760478482	-0.144656
C	 0.6866060169	-1.225162859	-3.5162423371	 0.43315
O	 0.7749598966	-0.9416257154	-4.6801702546	-0.338627
C	 1.5844579639	-2.1747923944	-2.6839902461	-0.338221
H	 1.3900558272	-0.7738841684	 1.4342868571	 0.11873
H	 1.9618321654	 0.7985625567	 0.8643743158	 0.117851
H	 0.6220075648	 0.7082630737	 2.0147612474	 0.116355
H	-0.8303610247	-0.3640377086	 0.2910349851	 0.100418
H	-0.2594067656	 1.1935901437	-0.2696691931	 0.102847
H	 1.5620119356	 0.1286340429	-1.5634004506	 0.070453
H	 1.2584639292	-2.5583669527	-0.4802941411	 0.068643
H	-0.9223054587	-2.9515016529	-2.3831347132	 0.10257
H	-1.330911024	-1.9924212165	-0.9360714155	 0.112242
H	-1.0814365412	-0.0476754659	-2.8070527134	 0.076754
H	 2.6252269788	-1.8363151124	-2.687167336	 0.121788
H	 1.554150484	-3.195538975	-3.0779701733	 0.121331
