13
gdb 75689	2.77581	1.32815	1.15506	2.5335	60.83	-0.2545	-0.0737	0.1807	1050.3167	0.086138	-493.664155	-493.656107	-493.655163	-493.697295	28.651	
O	 0.500822068	 1.1122345055	-0.3888737706	-0.413671
C	 0.0803313136	-0.1711269317	-0.0620147957	-0.044152
C	 0.1403060317	-0.6861706423	 1.4301189081	 0.389159
O	 1.0151384237	-0.9118516817	 2.2055278741	-0.276458
C	-1.37493433	-0.9144211861	 1.4326152989	-0.17128
O	-1.9310319178	 0.3597247716	 1.0769364751	-0.272734
C	-1.4340036144	-0.4476560825	 0.004265856	 0.273291
C	-2.383628667	-0.9275716407	-1.0261588486	 0.061068
O	-2.031542729	-1.34026681	-2.101227568	-0.242534
H	 0.0241645399	 1.7299789347	 0.1792578468	 0.299023
H	 0.6027793137	-0.8768564305	-0.7153802804	 0.148614
H	-2.0106253501	-1.61407747	 1.9627590198	 0.146756
H	-3.4483131326	-0.8795425764	-0.7137868655	 0.102918
