20
gdb 11997	3.20863	1.97799	1.74869	0.1954	79.37	-0.2254	0.0236	0.249	882.1765	0.17765	-311.873696	-311.866065	-311.865121	-311.904778	31.014	
C	-0.1189326767	 1.5924751751	 0.0227148004	-0.416461
C	 0.0028612879	 0.0579202742	 0.008008565	 0.253581
C	-1.4066045439	-0.5676324257	-0.0264946036	-0.418515
C	 0.8265925283	-0.4475465538	-1.1700011034	-0.111384
C	 1.8039841156	-1.2789903619	-0.8031129171	-0.091935
C	 1.8842172174	-1.4107235424	 0.6805433701	-0.078881
C	 2.2329113165	-0.1239343959	 1.4059062413	-0.300381
C	 0.787954109	-0.5009482506	 1.2091180537	-0.052754
H	 0.8619790706	 2.0738219176	 0.0631603948	 0.113825
H	-0.6326371934	 1.9522597119	-0.8759403553	 0.107599
H	-0.6964363461	 1.9275571838	 0.8911819159	 0.110459
H	-1.9463847437	-0.2743314238	-0.9334469079	 0.107699
H	-1.3485798965	-1.6599440028	-0.0066352846	 0.116789
H	-1.9979206887	-0.2384662493	 0.8363063817	 0.106821
H	 0.6106671887	-0.1386179363	-2.1878560115	 0.085539
H	 2.4960576995	-1.7727750056	-1.4765194973	 0.091722
H	 2.1348146756	-2.3610272288	 1.1390208695	 0.082894
H	 2.6221678499	-0.2063365795	 2.4158642962	 0.106169
H	 2.6633897649	 0.6815307792	 0.8202032963	 0.110629
H	 0.2206145253	-0.7770337755	 2.0916529658	 0.076586
