16
gdb 64561	3.09278	1.60538	1.31365	3.2304	70.38	-0.2293	-0.0481	0.1812	965.2188	0.124798	-437.83214	-437.825014	-437.82407	-437.863491	28.727	
O	 0.0494290202	 1.3745037663	-0.0286659355	-0.467737
C	 0.0196955177	 0.000883377	-0.0085248553	 0.397152
C	 1.0088652137	-0.5302969887	-1.0308279267	 0.076751
O	 1.6629088767	 0.2399372173	-1.6981306644	-0.277226
C	-0.0198042785	-0.65653218	 1.4587650876	-0.113452
N	-1.4369601005	-0.1751217551	 1.4902443667	-0.287133
C	-1.4507433208	-0.6457042679	 0.0691733666	-0.113425
C	-1.1039285611	-2.1325299807	 0.1690957297	-0.108723
C	-0.141427323	-2.1398039628	 1.1038069409	-0.108716
H	 0.7091654618	 1.6090208645	-0.7053139167	 0.292123
H	 1.1095105873	-1.6200394164	-1.1434106588	 0.110981
H	 0.660237099	-0.3228028343	 2.2415148847	 0.08448
H	-2.0156123065	-0.7756705657	 2.0814433746	 0.202801
H	-2.2504742812	-0.3007949233	-0.5850429411	 0.084483
H	-1.493068154	-2.9368794301	-0.4389637004	 0.113821
H	 0.4714816291	-2.95173346	 1.4688548581	 0.11382
