16
gdb 44821	3.00379	1.2421	1.0072	5.5185	73.85	-0.256	-0.0231	0.2329	1168.5954	0.123857	-400.75491	-400.746716	-400.745771	-400.788771	29.939	
O	-0.4644215012	 0.1126344588	-0.3849545005	-0.30553
C	-0.2411198237	 1.2439057824	-0.0606388359	 0.36346
C	-1.1581810785	 2.4547243541	 0.2617150615	-0.356131
C	 0.0829316025	 3.3404548674	 0.0697218543	-0.118695
C	 1.1060538259	 2.9775661491	 1.083772628	-0.311439
C	 0.9939539951	 2.0916918288	-0.1491098766	 0.237281
C	 2.1514341701	 1.8300638175	-1.0866706234	-0.460399
C	 3.2361067476	 1.0743725284	-0.4548912422	 0.272675
N	 4.0931884339	 0.4938618431	 0.0577308491	-0.304027
H	-1.9235435779	 2.5593928778	-0.5117671342	 0.138682
H	-1.6314412955	 2.4904591763	 1.246644398	 0.129615
H	 0.1140558859	 4.2573746501	-0.5038303499	 0.116014
H	 2.0112655214	 3.5770281042	 1.1021442121	 0.137015
H	 0.8074930561	 2.5984521997	 2.0571025292	 0.133948
H	 1.7984991042	 1.2698494365	-1.9599000496	 0.170113
H	 2.564591644	 2.7760065657	-1.4556236097	 0.157417
