21
gdb 52853	2.3289	1.11316	0.94891	1.7931	86.4	-0.2434	0.0404	0.2838	1392.2459	0.181639	-387.083674	-387.073444	-387.0725	-387.120868	36.5	
C	-0.2144317056	 1.3674791713	 0.2171997385	-0.498594
C	-0.1057621253	-0.0798734877	 0.1000024286	-0.019518
C	-0.027111939	-1.2781339872	-0.0041333086	 0.093312
C	 0.1123871605	-2.7338950379	-0.1370657025	 0.234751
O	 0.7626291265	-3.0664433558	-1.3628206068	-0.470814
C	 0.8137258767	-3.3382994298	 1.1064093149	-0.243434
C	-0.288978769	-3.4072904381	 2.1776270456	-0.205723
C	-1.6275757177	-3.5581953125	 1.3891549711	-0.20518
C	-1.2561412769	-3.448931387	-0.1049789611	-0.224822
H	 0.5778251829	 1.7805985236	 0.8512128726	 0.147431
H	-0.141402615	 1.8503219509	-0.763552993	 0.150648
H	-1.1755885248	 1.6573918028	 0.6559605957	 0.150657
H	 1.5055476631	-2.4635467394	-1.4703103722	 0.277185
H	 1.1502182595	-4.3400863827	 0.8174871812	 0.102642
H	 1.6895900966	-2.7633340193	 1.4185374364	 0.091714
H	-0.122278024	-4.22874967	 2.879246544	 0.09721
H	-0.3010952655	-2.4852175708	 2.7655758287	 0.106612
H	-2.1234195477	-4.5088171796	 1.6023126864	 0.09933
H	-2.3278121354	-2.7684707038	 1.6742498804	 0.104655
H	-2.0053644722	-2.9312413486	-0.7068197284	 0.104215
H	-1.0971956377	-4.4376201883	-0.5481468913	 0.107724
