17
gdb 76003	2.61265	1.1918	1.06854	4.1846	81.55	-0.2434	0.0047	0.2481	1193.1107	0.134062	-380.834884	-380.825159	-380.824215	-380.869143	35.605	
C	-0.1571324799	 1.5330509063	-0.0604989688	-0.455998
C	-0.0307389729	 0.0212126773	-0.048576821	 0.096094
C	-1.141297038	-0.6788450067	 0.5390435967	 0.248032
N	-2.0381684577	-1.2505281849	 0.9968450261	-0.347466
C	 0.7024828182	-0.7209948421	-1.1907361947	-0.010346
N	 1.314191869	-0.0689215369	-2.2979841307	-0.522945
C	 1.3493630388	-0.6479936422	 0.1728954056	-0.285467
C	 2.5009427641	 0.1776890848	 0.3810092714	 0.317488
C	 3.4738962751	 0.8680020125	 0.5391591658	-0.41293
H	 0.6628008146	 1.9842873707	-0.6205510907	 0.124678
H	-1.1006167489	 1.8297667545	-0.5276265288	 0.137206
H	-0.1365089474	 1.9362646295	 0.9555496872	 0.146356
H	 0.268875248	-1.6867898309	-1.4349918896	 0.126171
H	 0.6418923015	 0.3811328222	-2.9080434791	 0.243038
H	 2.0143365783	 0.6046540988	-2.0103177763	 0.246522
H	 1.3307540253	-1.5620709223	 0.7574937531	 0.141864
H	 4.3349307919	 1.4692594793	 0.6986610938	 0.207703
