19
gdb 82131	3.09427	1.15262	1.00447	3.4096	76.53	-0.2402	0.023	0.2632	1230.747	0.159614	-419.185884	-419.177053	-419.176109	-419.220818	32.463	
C	-0.1486969974	 1.60240782	 0.2810556459	-0.409824
C	 0.0486215281	 0.1108089582	 0.0947399741	 0.044254
C	 0.5510207486	-0.4713671771	-1.2744478048	 0.016673
N	 0.8800426111	 0.3948799602	-2.3843408664	-0.286102
C	 0.0625092128	 0.5604385789	-3.4610425622	 0.150896
O	-1.0216853633	 0.0355763367	-3.5970470961	-0.320791
C	 1.7169792355	-1.0575839559	-0.4941465144	-0.064892
C	 2.4399436043	-0.0201933782	 0.2721578646	-0.253603
N	 1.1914982881	-0.5491326813	 0.8394444469	-0.134028
H	 0.6970470438	 2.1965764394	-0.0760478631	 0.108461
H	-1.0344807464	 1.9304624258	-0.2719301401	 0.13593
H	-0.3025760599	 1.831096651	 1.3404524755	 0.132443
H	-0.8606525593	-0.4133289051	 0.3994358594	 0.096613
H	-0.1436123195	-1.2201794169	-1.653901894	 0.124302
H	 1.7653256932	 0.8763933763	-2.3774372032	 0.246516
H	 0.5069990539	 1.23962604	-4.2157626575	 0.075613
H	 2.101095481	-2.065687898	-0.6095537105	 0.103415
H	 3.318201418	-0.3405000437	 0.8240854388	 0.128912
H	 2.4900501172	 1.0085026598	-0.075733903	 0.105211
