17
gdb 103726	3.05309	1.15835	0.98184	1.6295	72.22	-0.2414	0.0323	0.2737	1217.6591	0.131515	-458.893128	-458.883144	-458.8822	-458.927499	37.163	
O	-0.0549621872	 1.3474499671	-0.3030370511	-0.436755
C	 0.0184608928	-0.0193681685	 0.1100463062	-0.146946
C	-1.4011220947	-0.5334486713	 0.057360246	 0.397549
O	-2.277532476	 0.2264979705	 0.8273640237	-0.472162
C	-1.9313143786	-1.1719022253	-1.2085855382	-0.401823
C	-1.6525626233	-2.0177518882	 0.0388441878	 0.112276
O	-0.4857531255	-2.8030355543	 0.0427466722	-0.456612
C	-2.7627271695	-2.5708916884	 0.7687372587	 0.344518
C	-3.6707146899	-3.0965679109	 1.3558558347	-0.472849
H	 0.7394119077	 1.797276187	-0.0028635526	 0.294414
H	 0.6742227181	-0.6067851947	-0.5410032572	 0.108482
H	 0.3897771826	-0.0972160977	 1.1411051506	 0.106848
H	-2.0834261577	 1.1440280552	 0.5929215831	 0.29031
H	-2.9694609303	-0.9866167523	-1.4562635768	 0.129092
H	-1.2508389077	-1.3124144534	-2.0413647748	 0.118981
H	-0.7019268903	-3.6432516138	-0.377641838	 0.288417
H	-4.4732753407	-3.5395307209	 1.8916428857	 0.196259
