16
gdb 6695	6.77349	0.75472	0.70367	1.3787	82.78	-0.2418	-0.0137	0.2281	1541.9076	0.127363	-346.554037	-346.544786	-346.543842	-346.588162	33.221	
C	-0.8145863701	 0.3767068256	 0.3449547618	-0.402688
C	 0.417717006	-0.0172425636	-0.4636150111	 0.13656
O	 1.0247671173	 1.1029787498	-1.0894835088	-0.418821
C	 1.4758596076	-0.7725670692	 0.3847437535	-0.403271
C	 1.0138477734	-2.048104588	 0.9034254925	 0.368659
C	 0.6067137154	-3.1114802729	 1.315341756	-0.240966
C	 0.1548493454	-4.3078765225	 1.7801336244	 0.290792
C	-0.2472194137	-5.3695573875	 2.1921131493	-0.551201
H	-0.5368986783	 1.043992033	 1.1715200255	 0.106252
H	-1.5320667809	 0.9001418028	-0.2922129553	 0.128729
H	-1.3000007347	-0.5030169275	 0.7760142633	 0.139759
H	 0.1190268958	-0.673555217	-1.2880933355	 0.106691
H	 1.1552025237	 1.7830907096	-0.4191097141	 0.279257
H	 2.3609503066	-0.9210598909	-0.2450923069	 0.14659
H	 1.7889488167	-0.125126436	 1.216950263	 0.123298
H	-0.5980966601	-6.3037520556	 2.5541234324	 0.190361
