17
gdb 39780	3.03133	1.89048	1.5424	3.5435	70.71	-0.2546	0.0844	0.339	892.4071	0.137176	-421.745421	-421.739006	-421.738062	-421.775871	26.955	
C	-0.0047993509	 1.4758403114	 0.0092615539	-0.311194
O	 1.2313907942	 0.7321911016	-0.0071920643	-0.281086
C	 0.0323449193	 0.0172002671	 0.0018696227	 0.574478
C	-0.5184173917	-0.9642419514	 1.0459101078	-0.206411
C	-1.6996475488	-1.1269397752	 0.0144167818	-0.229381
C	-0.5401517658	-0.9542131365	-1.0398571893	-0.206409
C	 0.2573752733	-2.2441923907	-0.7446318984	 0.049219
O	 1.4821830084	-2.0582607944	-0.0232106627	-0.241646
C	 0.2726468027	-2.2512482184	 0.7217337435	 0.04922
H	-0.2103260481	 2.0140529233	 0.9337863566	 0.116615
H	-0.2294952587	 2.0228862305	-0.9055677909	 0.116615
H	-0.6764059956	-0.690997372	 2.0875137405	 0.07574
H	-2.217512001	-2.0882750873	 0.0151913825	 0.102484
H	-2.4136731601	-0.3006402478	 0.0258319948	 0.107324
H	-0.7197830133	-0.6709750887	-2.0752653666	 0.07574
H	 0.193658857	-3.1220093465	-1.3784127164	 0.104346
H	 0.2220492891	-3.1351277549	 1.3482303144	 0.104345
