19
gdb 38723	2.5532	2.04904	1.59136	1.7828	73.4	-0.247	0.0687	0.3157	908.0809	0.162048	-422.984947	-422.978251	-422.977307	-423.015564	28.33	
C	-0.0701148979	 1.5890883177	-0.14579914	-0.274435
C	 1.3972945168	 1.9551680728	 0.1092396683	 0.037174
O	 2.4665191372	 1.9171497455	-0.8662004894	-0.302646
C	 2.1738142565	 0.7340894021	-0.1273867734	 0.332573
C	 1.2539295702	-0.253740871	-0.8429950372	-0.274652
C	 0.0041519746	 0.0398243552	 0.0063958516	-0.02739
C	 0.3746094803	-0.4652834099	 1.4343471914	-0.065903
O	 1.6098011287	-0.001709596	 2.0026397986	-0.272011
C	 2.752834434	 0.1457459477	 1.1332204416	-0.16282
H	-0.7121789413	 2.0760570481	 0.593854294	 0.105916
H	-0.4346438296	 1.863578361	-1.1413768388	 0.113071
H	 1.6266611035	 2.593487457	 0.9572847552	 0.104339
H	 1.1282501304	 0.0175643983	-1.8936859217	 0.108777
H	 1.5965438237	-1.2901356718	-0.7779692881	 0.095152
H	-0.9114885287	-0.4778622632	-0.3039419046	 0.063791
H	-0.3857615192	-0.1731313441	 2.1662535069	 0.10977
H	 0.3820915137	-1.5663036264	 1.3855008898	 0.093836
H	 3.2465861544	-0.8229898462	 0.9716702268	 0.094674
H	 3.4424306428	 0.8169146333	 1.6514418689	 0.120784
