18
gdb 79951	2.5657	1.59187	1.28628	4.0835	80.01	-0.2485	-0.0049	0.2436	1038.9534	0.148985	-364.824702	-364.816751	-364.815807	-364.857052	30.715	
C	-0.1111470362	 1.5358397885	-0.2001566179	-0.418518
C	 0.0475417726	 0.0429322561	-0.0176682497	-0.000939
C	 1.3501859133	-0.7232511617	-0.2196542529	-0.112998
C	 2.6134072497	 0.0573272519	-0.1111906818	-0.071472
C	 2.7965121621	 0.5666568798	 1.107090623	-0.091571
C	 1.6869289951	 0.1335455252	 2.0623141482	-0.193707
C	 1.0835602139	 1.2457305051	 2.8053774142	 0.276452
N	 0.6187213492	 2.1173047604	 3.4058995835	-0.337012
C	 0.7059733896	-0.6359453044	 1.159717838	-0.08351
H	 0.7914426845	 2.088697107	 0.0664625946	 0.131338
H	-0.3475665874	 1.7644448352	-1.2449863781	 0.114425
H	-0.9275357891	 1.9164145412	 0.4211378726	 0.136798
H	-0.8160070369	-0.5190947554	-0.3673476737	 0.094564
H	 1.3333558217	-1.6345893692	-0.807332852	 0.09402
H	 3.2842555704	 0.2070232671	-0.9495463377	 0.10927
H	 3.601841358	 1.2164030655	 1.4256351076	 0.118376
H	 2.0970154594	-0.5516062101	 2.8182068399	 0.134261
H	 0.2036226499	-1.4870219323	 1.6023728021	 0.100224
