18
gdb 22179	2.52985	1.22497	1.00587	1.2221	72.36	-0.2493	-0.001	0.2483	1223.7967	0.143616	-476.162703	-476.152573	-476.151628	-476.197524	36.935	
C	-0.1288377628	 1.5284391465	 0.075003049	-0.426193
C	-0.0277761423	 0.0058784287	 0.0105303045	 0.277444
O	-1.2913596396	-0.6120525882	 0.1521030268	-0.47196
C	 0.7420871505	-0.5395049431	-1.2341751534	 0.095316
O	 0.8725104584	 0.3901798515	-2.2781755522	-0.427989
C	 1.9947648169	-0.8296615573	-0.3384385468	-0.379693
C	 1.1018810132	-0.579763202	 0.85439884	 0.376038
N	 1.0988031758	-0.837994813	 2.0921093481	-0.256636
O	 2.2922965162	-1.4619317765	 2.4956816516	-0.389599
H	 0.8403532204	 2.0066338414	-0.0888032938	 0.123655
H	-0.8205446946	 1.8806571833	-0.6936905634	 0.135661
H	-0.4998993628	 1.8306605772	 1.0597387818	 0.112991
H	-1.5443123836	-0.5415269175	 1.0795152055	 0.286555
H	 0.2613898365	-1.4685547223	-1.5622894675	 0.091733
H	 1.2844123946	-0.0484904637	-3.0285287292	 0.289929
H	 2.45753679	-1.8169376264	-0.4035788725	 0.127149
H	 2.7670669738	-0.0625467016	-0.4590324828	 0.129199
H	 2.1365322895	-1.614178267	 3.4341859646	 0.3064
