16
gdb 74608	3.3478	1.95699	1.57371	1.5188	71.38	-0.2263	-0.0217	0.2045	864.8472	0.126595	-396.908334	-396.901744	-396.9008	-396.939098	26.453	
C	 0.2125205076	 1.3515958331	 0.1821143169	-0.483704
C	-0.0860693034	-0.1041469466	 0.0718190683	 0.326932
N	 0.0757978442	-0.8245904364	-0.9698205608	-0.228446
C	-0.3709375599	-2.1454625333	-0.6432149826	-0.034517
C	 0.1997643665	-2.9251579956	 0.6081086208	-0.027899
N	 1.1961979823	-2.3227518615	 1.4457403999	-0.172272
C	 0.7220351896	-1.1960965973	 1.7993952845	 0.000427
N	-0.5932358203	-0.8273181041	 1.2655784131	-0.211415
C	-1.0618821185	-2.1177696816	 0.6852774688	-0.078794
H	 0.9344477975	 1.5602583749	 0.977842232	 0.140857
H	 0.6124355479	 1.7175800715	-0.763830951	 0.155446
H	-0.7040927802	 1.8963969477	 0.4325390674	 0.149857
H	-0.6898863371	-2.77008493	-1.4671578293	 0.112196
H	 0.2156414815	-4.0033006757	 0.5197996929	 0.113057
H	 1.2586219437	-0.471672663	 2.4013650097	 0.135661
H	-2.0599703613	-2.4629735423	 0.9273096596	 0.102614
