18
gdb 37766	2.97687	2.18975	2.06382	1.7597	76.85	-0.2174	0.0045	0.222	796.9364	0.152265	-364.757132	-364.751572	-364.750628	-364.786594	24.962	
C	-0.0386768689	 1.5465297493	 0.0395912722	-0.240349
C	 1.495357988	 1.5030677933	-0.0457754418	-0.004781
C	 2.2127284546	 1.0016555642	 1.2767038138	-0.083793
C	 1.4093734819	 1.0718693728	 2.55169568	-0.087236
C	 0.4660126529	 0.1212209346	 2.5588385485	-0.087236
C	 0.5328473337	-0.6912019085	 1.2894231577	-0.083793
C	 0.0159880216	 0.0122707084	-0.0345741335	-0.004781
N	 1.4378041527	 0.0765314552	-0.6038375267	-0.167511
C	 1.9524354735	-0.4241160643	 0.7322813312	 0.003795
H	-0.5000019389	 2.0108922026	 0.9144539518	 0.100333
H	-0.4705754055	 1.9682709946	-0.8716471399	 0.108095
H	 2.0204157112	 2.2645904266	-0.6255065766	 0.070711
H	 3.2493277396	 1.3336284818	 1.3494377691	 0.070481
H	 1.5519309461	 1.8255879211	 3.3178917612	 0.097676
H	-0.2808048267	-0.0213053177	 3.3317684689	 0.097676
H	 0.2094454944	-1.7297352076	 1.3724542158	 0.070481
H	-0.7457911933	-0.5229833973	-0.6045618021	 0.070711
H	 2.7275095031	-1.192988409	 0.7668583005	 0.069523
