16
gdb 123585	2.99561	2.25663	1.48453	4.8375	73.13	-0.2361	-0.0509	0.1852	859.1313	0.127234	-396.837063	-396.830758	-396.829813	-396.867627	25.388	
C	-0.1044983686	 1.5391168378	-0.1247441664	-0.166849
C	 1.4506478032	 1.7010955324	 0.0070795898	-0.096062
C	 2.1064380516	 2.2083319769	 1.3482602056	-0.235525
C	 2.4664687494	 0.9200517818	 2.2116837291	-0.296866
C	 1.5980696402	-0.1271453127	 1.547602355	 0.171406
C	 1.3454775273	 0.2346002379	 0.2711758041	 0.121069
N	 0.0180422836	-0.0191954035	-0.0056531125	-0.07446
N	-0.4784473447	-0.7032080807	 1.1334737342	-0.130197
N	 0.471097813	-0.796431078	 2.0053940156	-0.181076
H	-0.67485664	 1.9101965502	 0.726237906	 0.153956
H	-0.5552723672	 1.823505336	-1.0741949281	 0.147216
H	 1.9345588682	 2.0764756691	-0.8945945522	 0.097925
H	 2.9924610647	 2.8161888435	 1.1447399947	 0.115484
H	 1.4058206436	 2.8456818883	 1.8977995437	 0.118372
H	 3.5370359721	 0.6995171039	 2.1591625242	 0.123975
H	 2.2106369338	 1.0508937969	 3.2651122274	 0.131631
