17
gdb 70799	2.88199	1.70951	1.44577	3.7886	66.85	-0.239	0.0649	0.3039	935.2878	0.135627	-458.908813	-458.901386	-458.900441	-458.940089	30.318	
O	-0.1336335965	 1.3609371501	 0.0740706796	-0.485172
C	-0.0038955822	-0.0191163831	-0.0059344585	 0.371692
C	 0.387582161	-0.7629842946	-1.3189884762	-0.392024
C	-0.4285647418	-1.9104029925	-0.6946898742	 0.395744
O	-0.9548428763	-2.9799883015	-1.3946807975	-0.473735
C	-0.0007922776	-2.0913528601	 0.8356805337	-0.006403
C	 0.8069491444	-0.8000628957	 1.056186247	-0.286182
O	-1.329809938	-1.6706857638	 1.2626961506	-0.289374
C	-1.3297761825	-0.9111643478	 0.0513666886	 0.014739
H	 0.744829967	 1.7558076248	 0.0545799495	 0.281851
H	-0.1385844772	-0.3613131672	-2.1892075888	 0.113496
H	 1.4508859531	-0.8989847211	-1.5395645196	 0.08649
H	-0.2340148458	-3.5642724428	-1.6540779714	 0.283935
H	 0.3245038711	-3.0401381884	 1.2623964237	 0.081999
H	 1.8710756115	-0.8719219886	 0.8119732387	 0.089617
H	 0.6725387521	-0.4276864373	 2.0740092547	 0.115041
H	-2.2820217524	-0.4996248404	-0.2769030299	 0.098285
