19
gdb 85922	2.76205	1.24813	1.05979	3.4591	71.23	-0.2493	-0.0277	0.2216	1194.1961	0.157188	-460.196312	-460.187136	-460.186192	-460.229972	35.264	
C	-0.0838770098	 1.5392648486	-0.0213902739	-0.44646
C	 0.0553525929	 0.0197781881	-0.0011270561	 0.354713
O	-1.2345451176	-0.6010946314	-0.0663549323	-0.468651
C	 0.8270708746	-0.5500771593	-1.2144466207	-0.254616
C	 1.220318584	-1.9613340952	-0.7644728076	 0.055864
O	 2.269859013	-2.551872751	-1.4814615737	-0.445391
C	 1.5806383482	-1.7481504133	 0.7052347231	 0.372176
O	 2.4070655105	-2.4097574226	 1.2842012809	-0.33207
C	 0.8397662973	-0.5204883853	 1.2244766875	-0.36349
H	 0.8941388586	 2.0301248053	-0.0188838086	 0.120464
H	-0.6309012903	 1.8548453672	-0.9144730264	 0.130285
H	-0.6357927428	 1.8916025302	 0.8586418421	 0.108448
H	-1.7567157636	-0.2837792794	 0.6783630379	 0.277908
H	 0.2084311064	-0.5335249151	-2.113228078	 0.120888
H	 1.7349215335	 0.034128537	-1.399535612	 0.108944
H	 0.3159879761	-2.593963552	-0.7811751674	 0.110851
H	 2.8157961338	-3.0026183304	-0.8201716434	 0.290104
H	 1.5850587147	 0.1949252472	 1.5910411396	 0.134809
H	 0.1888098405	-0.7676370588	 2.0685231592	 0.125224
