18
gdb 16695	4.30392	1.63507	1.50801	1.8888	72.89	-0.2242	0.0114	0.2356	930.3778	0.153587	-347.765812	-347.758403	-347.757459	-347.797044	28.937	
C	-0.1372187859	 1.5102859508	-0.0028589485	-0.425391
C	-0.0134753089	-0.0045633139	-0.0098464689	 0.039057
C	 1.2746039659	-0.605828281	-0.676152252	 0.014343
O	 2.0098849948	-0.2289255159	 0.5391880133	-0.288325
C	 0.7666862707	-0.6491913104	 1.1896002628	-0.045554
C	 0.7087492917	-2.1504149549	 0.8314902807	 0.360538
C	 0.3380739783	-3.2623639869	 1.7476049477	-0.518129
C	 1.0620051876	-2.1098666694	-0.4581780485	-0.205278
H	 0.8123857526	 1.974818536	 0.2723569164	 0.135892
H	-0.4326504939	 1.8806032215	-0.990863016	 0.113568
H	-0.9035545142	 1.8350280661	 0.7098207834	 0.112721
H	-0.9543787474	-0.4923374412	-0.2803781499	 0.067846
H	 1.7096797626	-0.2335982145	-1.6035405025	 0.07445
H	 0.6633028703	-0.3278228956	 2.2270463997	 0.071194
H	-0.6703448879	-3.1239070054	 2.1585871816	 0.127973
H	 0.3628571971	-4.2283074076	 1.2354982964	 0.128684
H	 1.0193575454	-3.3150734674	 2.6063899849	 0.133615
H	 1.1679805211	-2.9026170303	-1.1845158205	 0.102797
