14
gdb 57233	3.09105	0.8234	0.74621	3.334	84.72	-0.2691	-0.0471	0.222	1509.6544	0.097204	-399.495979	-399.486348	-399.485404	-399.530589	34.499	
C	-0.0117775215	 1.5424677094	 0.0636200146	-0.389724
C	 0.0100154526	 0.0047653556	 0.00145023	-0.053558
O	 0.6919882121	-0.4285624488	 1.1698371605	-0.407619
C	-1.3864546335	-0.5137663874	 0.0133640433	 0.279978
N	-2.4657277887	-0.9244100323	 0.047175836	-0.332148
C	 0.6749027521	-0.4696434985	-1.2193710438	 0.582015
C	 1.2508636456	-0.8671134853	-2.2057798422	-0.389157
C	 1.895105416	-1.3122981956	-3.3178175841	 0.307667
C	 2.4681994443	-1.7082103022	-4.3034302987	-0.551554
H	 1.0180579052	 1.9037879677	 0.0557693963	 0.149088
H	-0.5511667607	 1.9533669155	-0.7911196562	 0.148781
H	-0.4998387022	 1.8531750055	 0.9896485799	 0.151241
H	 0.793234104	-1.3871056742	 1.1260149889	 0.300785
H	 2.9698962348	-2.0555042795	-5.1729742643	 0.204206
