21
gdb 108259	2.41254	1.38958	1.36084	1.8573	78.46	-0.2302	0.0756	0.3059	1124.5137	0.180648	-424.188684	-424.179192	-424.178248	-424.22311	35.522	
C	-0.1310207722	 1.3820347705	-0.0431574117	-0.261735
O	-0.1058608447	-0.0303931364	-0.0645980358	-0.292604
C	 0.6498614651	-0.561093667	-1.105173234	 0.426096
C	 2.2053685982	-0.4889828105	-0.9650514129	-0.289
C	 2.2856497908	-2.0486605982	-0.9754395151	-0.28844
C	 0.7711706229	-2.1172716094	-1.2798643048	 0.349593
O	-0.0330595253	-2.9740092877	-0.5264134102	-0.481126
C	 0.4067068834	-1.9404837217	-2.7870045839	-0.290319
C	 0.1282992138	-0.4211459182	-2.5569300974	-0.287972
H	 0.8744018352	 1.810461176	 0.0837758117	 0.105981
H	-0.5699682157	 1.7986970649	-0.9616795891	 0.108035
H	-0.748792015	 1.6786570889	 0.807526336	 0.127984
H	 2.7244707386	 0.013826954	-1.7851053511	 0.093343
H	 2.5226773367	-0.0432490872	-0.0203127507	 0.109937
H	 2.9600522948	-2.5071724379	-1.7044641429	 0.088349
H	 2.5006935933	-2.4531779361	 0.0166201108	 0.107442
H	 0.1368411505	-3.8771922993	-0.8173735869	 0.275771
H	 1.2133905114	-2.1689681581	-3.4888937518	 0.09303
H	-0.4814792516	-2.5100151264	-3.0684501533	 0.104671
H	-0.9413760756	-0.1974649562	-2.5714724896	 0.109456
H	 0.6503779454	 0.2825206758	-3.2105880274	 0.091508
