23
gdb 113923	3.56592	0.69744	0.6423	2.5209	82.94	-0.2529	0.0706	0.3235	1816.5147	0.203391	-425.405075	-425.394093	-425.393149	-425.442126	39.675	
C	 0.1361165734	 1.5382450457	 0.1996924837	-0.401441
C	 0.0285948329	 0.0122611725	 0.176181355	 0.139463
O	 0.4708462099	-0.5537018025	 1.4061229182	-0.42387
C	-1.3836751404	-0.4613919592	-0.2057226604	-0.227416
C	-1.500913382	-1.9704079078	-0.2903494375	 0.009396
C	-1.932198596	-2.8013917462	 0.8897054127	-0.270503
C	-2.8233560577	-2.708926956	-0.3240215522	-0.011397
C	-4.1514647804	-2.0031764574	-0.253065237	-0.095842
O	-5.1116234066	-2.9272499964	 0.246756311	-0.420186
H	 1.1473973519	 1.841523553	 0.4832673142	 0.123557
H	-0.0965003141	 1.9705518469	-0.779103541	 0.113164
H	-0.5649535232	 1.9658571249	 0.9278637701	 0.103806
H	 0.7366199836	-0.3800498069	-0.5656142412	 0.087049
H	-0.1326271589	-0.2594795344	 2.0973594725	 0.274269
H	-2.0961220891	-0.0590106308	 0.527595963	 0.082105
H	-1.6479959249	-0.0046724424	-1.1695410192	 0.094959
H	-0.7282262507	-2.4176061606	-0.9121889274	 0.081624
H	-1.4175776993	-3.7325702775	 1.0970004495	 0.111753
H	-2.2591147146	-2.2715266193	 1.7796473282	 0.099024
H	-2.8527940241	-3.587018738	-0.9635758856	 0.087306
H	-4.0814169595	-1.1192407424	 0.399327544	 0.077379
H	-4.4394049303	-1.6446886461	-1.255156881	 0.082976
H	-5.9758616297	-2.506742449	 0.2083994907	 0.282829
