19
gdb 39903	2.64095	1.76841	1.578	2.7472	73.62	-0.2371	0.0807	0.3178	948.2988	0.161698	-423.010148	-423.003062	-423.002117	-423.041414	28.763	
C	 0.0568087741	 1.4705333235	 0.009962962	-0.299567
O	 1.1925919541	 0.5853752973	-0.0091622415	-0.306753
C	-0.1040639988	 0.0215789816	 0.0072275734	 0.524404
C	-0.5771659712	-0.8965637782	 1.13065173	-0.149204
C	-2.085635776	-0.9964273803	 0.7978388008	-0.221129
C	-2.1025808953	-0.9858514159	-0.7727470619	-0.221719
C	-0.6036464822	-0.8839504101	-1.1068583395	 0.018758
O	 0.0115772168	-2.1403230856	-0.781536071	-0.288417
C	 0.1059676089	-2.1922379516	 0.6597939355	-0.071981
H	-0.0804279297	 2.0309171795	 0.9339225456	 0.116131
H	-0.0999854734	 2.0414451677	-0.9045362628	 0.117491
H	-0.3308273732	-0.5947992554	 2.1483189489	 0.076363
H	-2.5331221473	-1.9022495153	 1.2155616479	 0.10475
H	-2.6317224205	-0.1415855562	 1.2061937019	 0.100954
H	-2.5232591662	-1.8994293693	-1.1975765022	 0.112947
H	-2.6650999955	-0.1341822625	-1.1677286277	 0.098232
H	-0.3413779795	-0.6179209667	-2.1304851205	 0.082575
H	 1.1625073104	-2.2280688123	 0.9532951975	 0.109802
H	-0.3947797556	-3.0959127301	 1.0274379134	 0.096362
