17
gdb 106031	2.7277	1.58096	1.23645	3.1681	71.94	-0.2408	0.0013	0.242	1035.1258	0.136221	-421.78867	-421.78083	-421.779886	-421.822067	29.652	
O	 0.0822338883	 1.4344669751	 0.2838945981	-0.414087
C	-0.0039521003	 0.0516931974	-0.0242107344	-0.201002
C	-1.4240521713	-0.4309134427	 0.0370669697	 0.202318
C	-2.1205984614	-1.0529872107	 1.2579358069	-0.110401
C	-3.6318801751	-0.851941628	 1.0981071047	-0.241585
C	-3.4080107217	-1.1791779848	-0.4080933757	-0.192313
C	-2.0310302638	-1.8568999161	 0.0005742139	-0.135211
C	-2.5216119752	-0.0175705282	-0.8880695991	 0.400193
O	-2.5646689201	 0.7668171919	-1.7990624613	-0.362545
H	-0.4169935089	 1.9015651578	-0.3961114256	 0.298113
H	 0.411596078	-0.1577069645	-1.0216300694	 0.103696
H	 0.6205649074	-0.4716526864	 0.7075677945	 0.112642
H	-1.5515553532	-1.177680555	 2.1712276904	 0.104593
H	-4.1912609935	-1.6424722854	 1.6050010026	 0.113055
H	-4.0632516035	 0.1256091326	 1.3390985286	 0.109355
H	-4.1880590204	-1.5961657194	-1.0386314425	 0.096084
H	-1.5481877452	-2.7778627335	-0.2878470515	 0.117096
