14
gdb 127339	3.33193	1.48265	1.03275	5.1	68.93	-0.2456	-0.0481	0.1975	1076.8807	0.1028	-470.043743	-470.036306	-470.035362	-470.075868	27.427	
C	 0.0537140102	 1.4340507912	 0.0508985375	-0.315727
N	 0.0165828891	-0.0204260235	-0.0051763107	 0.005564
C	-1.107659002	-0.7223664242	-0.2113374228	 0.120025
N	-1.1988733402	-2.0244834308	-0.2711948789	-0.352072
C	-0.0312351173	-2.7213622379	-0.1071364245	 0.335068
O	 0.092041631	-3.9404479564	-0.1295044945	-0.397464
C	 1.1977153823	-1.910674724	 0.1189980896	 0.339437
O	 2.3089046442	-2.6137477	 0.2732764192	-0.37509
N	 1.23456246	-0.6191759709	 0.1701624928	-0.293536
H	 0.7157948313	 1.8157657822	-0.7300314342	 0.161997
H	-0.9537683129	 1.8239008103	-0.0983194653	 0.147353
H	 0.4326093971	 1.7552623893	 1.0240745574	 0.161991
H	-2.0066332255	-0.1223852864	-0.335026669	 0.143339
H	 1.9966687328	-3.5411505287	 0.1910058233	 0.319116
