25
gdb 106824	2.82589	1.05304	0.89955	0.3164	93.83	-0.2349	0.0859	0.3208	1473.3187	0.228298	-352.345946	-352.335748	-352.334804	-352.381129	38.604	
C	 0.0585403891	 1.4525627122	-0.3647837049	-0.370723
C	-0.0002870747	-0.0029763767	 0.1211675079	-0.293699
C	-1.4039875996	-0.540567164	 0.1996215295	 0.32231
C	-2.1420862589	-1.0868019203	-0.9984436324	-0.37325
C	-1.9335324437	-1.984346129	 0.1971377651	 0.322313
C	-1.2102022405	-3.3017954364	 0.1155680041	-0.293698
C	-2.1060570487	-4.4488526665	-0.3742396488	-0.370729
C	-2.9725716291	-1.6185847048	 1.2690352496	-0.282141
C	-2.4342857494	-0.1510475923	 1.2715912748	-0.282145
H	 1.0896620106	 1.8183127368	-0.3984743361	 0.107741
H	-0.3682720784	 1.5474146948	-1.3686013128	 0.117342
H	-0.5081910599	 2.1138138523	 0.2994740167	 0.117241
H	 0.595113817	-0.6349374149	-0.5501329738	 0.093254
H	 0.4745299237	-0.0745787078	 1.1094532652	 0.091044
H	-3.1348670773	-0.7222243441	-1.2578868114	 0.094475
H	-1.5180998244	-1.3142010123	-1.858893796	 0.101023
H	-0.3469047561	-3.2027926453	-0.5548309699	 0.093253
H	-0.8024139742	-3.5569161851	 1.1034494577	 0.091045
H	-1.5559032723	-5.3944529183	-0.4101567731	 0.107743
H	-2.9664219395	-4.5887205383	 0.2889977275	 0.117244
H	-2.4922434787	-4.2424602922	-1.3777727947	 0.117342
H	-4.0236010209	-1.758946771	 0.9937232325	 0.090491
H	-2.7951348988	-2.1251631652	 2.2219955941	 0.096017
H	-1.9724358718	 0.1177269316	 2.2258944479	 0.096019
H	-3.1449876537	 0.6364571568	 0.9979147513	 0.090488
