19
gdb 116609	3.22575	1.01374	0.85401	0.996	81.05	-0.2466	0.0149	0.2615	1416.9536	0.159271	-419.174184	-419.165151	-419.164207	-419.209095	32.605	
C	 0.1066074478	 1.4969702092	 0.1479547713	-0.361114
C	 0.1004723321	-0.0187278355	-0.0529036039	-0.149338
N	 0.9337357375	-0.3825009928	-1.196276501	-0.355129
C	 1.7712634268	-1.3040155724	-1.0923458711	 0.419792
O	 2.1100410914	-2.1337994832	-0.0289004625	-0.283762
C	 3.1896829806	-2.7617895669	-0.7979231648	-0.140241
C	 2.7996787878	-1.9004461524	-1.9954999601	 0.174959
C	 2.6951440266	-2.1508088316	-3.4492905967	-0.29269
N	 3.6809368812	-1.1985339436	-2.9126915396	-0.356435
H	 1.1119691075	 1.8531235136	 0.393231716	 0.117513
H	-0.2185269068	 2.0059944177	-0.7639778714	 0.123023
H	-0.5651685777	 1.7799367144	 0.9645025802	 0.109546
H	 0.4154401305	-0.5269659388	 0.8678596995	 0.111994
H	-0.923825179	-0.3495043548	-0.2689843643	 0.109294
H	 4.166685028	-2.5427210008	-0.3605648495	 0.131327
H	 3.0317422052	-3.8393312061	-0.8857877671	 0.124139
H	 3.1201603251	-3.0577357703	-3.870365958	 0.128187
H	 1.8106472545	-1.7694307976	-3.9521134883	 0.137462
H	 3.3468521608	-0.2426364081	-3.0238334088	 0.251472
