19
gdb 37935	2.4804	2.32559	1.76229	1.3169	75.96	-0.2257	0.079	0.3046	868.1934	0.16383	-385.873274	-385.867045	-385.866101	-385.903591	26.815	
C	-0.0550660525	 1.5302795888	 0.030682564	-0.225813
C	 1.3033644208	 2.2543901875	-0.0389964903	-0.22959
C	 2.360336561	 1.5329271982	-0.8629218725	-0.089177
C	 3.0417922693	 0.3339905591	-0.2601548347	 0.078236
O	 2.4286670879	-0.2214853049	 0.8796664428	-0.251732
C	 1.2009338864	-0.8107301705	 0.5227454495	 0.073438
C	 0.039693258	 0.0178531561	 0.0130514271	-0.069696
C	 0.9712807455	-0.6742288611	-0.9650471937	-0.113033
C	 2.1438234158	 0.1400434056	-1.4569272975	-0.107425
H	-0.5938502274	 1.8591426097	 0.9263019496	 0.099399
H	-0.6718961138	 1.8289137409	-0.8269745615	 0.099595
H	 1.1478321236	 3.2579899685	-0.4456650134	 0.095856
H	 1.6930521749	 2.3840902564	 0.9767960061	 0.114455
H	 3.0087743577	 2.1737010137	-1.4536891236	 0.083886
H	 4.1201778574	 0.2191442665	-0.2566484709	 0.09232
H	 1.0022242692	-1.7140197242	 1.0900115541	 0.096281
H	-0.9173643212	-0.4812119132	 0.1487223191	 0.082095
H	 0.6234421856	-1.4906522289	-1.5861980987	 0.084357
H	 2.5399660317	-0.0771345982	-2.4409198957	 0.086548
