22
gdb 60359	3.38554	0.68062	0.58886	5.2222	83.8	-0.2746	0.0423	0.3169	1892.8397	0.191976	-404.375425	-404.364379	-404.363435	-404.412351	39.386	
C	-0.0110599315	 1.5701304277	-0.1129726379	-0.403139
C	 0.0104018888	 0.0425418962	-0.0536337485	 0.126477
O	 0.7888453797	-0.5034683031	-1.1163678377	-0.431318
C	 0.6270008692	-0.4773426243	 1.2464571075	-0.18706
C	 0.5755645756	-2.0052635036	 1.3516978915	-0.183602
C	 1.3541175146	-2.5689786372	 2.5640419911	-0.146641
C	 0.7893646514	-2.1246554297	 3.9282160821	-0.390092
C	 1.3887782153	-4.0344867044	 2.4919398221	 0.265573
N	 1.401735913	-5.1890689657	 2.4364845054	-0.326474
H	 1.0053031502	 1.9693707877	-0.0363803394	 0.125656
H	-0.4421054787	 1.916693535	-1.0591258281	 0.106901
H	-0.614616436	 1.9893073892	 0.6988586923	 0.116018
H	-1.0262188772	-0.3306971027	-0.1202517407	 0.066758
H	 0.3950322868	-0.2286291371	-1.9499731591	 0.284232
H	 1.6702172871	-0.1360599943	 1.286205431	 0.104286
H	 0.1027447396	-0.0102091639	 2.0872298714	 0.099148
H	-0.46682131	-2.3422891511	 1.4143012097	 0.107342
H	 0.9902549613	-2.4314046576	 0.4346486934	 0.140739
H	 2.3951083804	-2.2264137786	 2.4905516354	 0.126135
H	 1.3507836195	-2.576850888	 4.7493512743	 0.137337
H	 0.8524056585	-1.0388124556	 4.0295600015	 0.127409
H	-0.2587388876	-2.422365389	 4.0274506526	 0.134314
