15
gdb 33816	2.27063	1.57654	1.11923	4.8693	78.97	-0.2636	-0.0171	0.2465	1091.2084	0.112169	-379.607438	-379.599419	-379.598475	-379.640044	30.357	
C	 0.01488912	-1.2106093134	 0.0332084801	-0.385066
C	 0.0297512972	-0.0086575381	 0.0216766083	 0.282349
C	 0.0193158016	 1.4127649641	-0.047880688	 0.056999
C	-0.7346666597	 2.2584406144	-1.0959295271	-0.288675
C	 0.4430231028	 3.2829643729	-1.1080878357	-0.291449
C	 1.1717397577	 2.4296121898	-0.0551328564	 0.119169
N	 0.3529285654	 2.2086953982	 1.1280953216	-0.360736
C	 2.5858431438	 2.2285724145	 0.020312678	 0.259917
N	 3.7331219009	 2.0821242176	 0.0328722704	-0.342851
H	 0.0135668186	-2.2725236952	 0.059790402	 0.202695
H	-0.8470434292	 1.7421697936	-2.0499254958	 0.134876
H	-1.7132330743	 2.6194551427	-0.7670594623	 0.115285
H	 0.9631921053	 3.3078143791	-2.0665259283	 0.138165
H	 0.227287545	 4.3075912958	-0.7922472004	 0.118252
H	-0.3036750352	 2.9714753541	 1.2912829336	 0.241069
