19
gdb 107499	2.04456	1.84868	1.24303	2.4337	75.94	-0.2323	0.0583	0.2906	1068.441	0.160196	-419.121846	-419.113587	-419.112642	-419.154453	32.292	
O	 0.275868097	 1.2961970474	 0.3577989737	-0.401585
C	 0.0359522969	-0.0464393866	-0.0492585362	-0.202538
C	-1.4153737717	-0.4150776917	-0.0155249963	 0.220877
N	-1.9185736809	-1.6430841431	-0.6896068358	-0.372226
C	-2.4981001539	-0.3251437059	-1.0464763025	-0.120151
C	-3.5610514825	-0.0252066011	 0.0225463208	-0.29707
C	-2.4314185992	-0.1041553977	 1.0769259417	 0.339296
C	-2.4072783755	-0.5014048918	 2.4962099596	-0.305503
N	-2.2637685038	 0.9189031852	 2.1026978356	-0.379404
H	-0.2660045148	 1.8689633653	-0.1962849853	 0.287601
H	 0.4402982096	-0.2440659481	-1.0561898926	 0.092699
H	 0.6070050199	-0.6663681306	 0.6520886239	 0.124383
H	-1.2418435908	-1.8800391134	-1.4181612438	 0.22405
H	-2.4577719188	 0.0369041103	-2.067093438	 0.094836
H	-3.973430267	 0.9844923237	-0.0368375201	 0.113544
H	-4.3642477292	-0.7619755076	 0.0939017259	 0.111947
H	-3.3339219458	-0.7379830618	 3.0122025458	 0.118574
H	-1.5358907483	-1.037859865	 2.8647916762	 0.109573
H	-1.286873351	 1.2027665625	 2.1379965274	 0.241097
