20
gdb 107927	3.91902	1.17582	1.09154	1.9996	79.15	-0.2167	0.0817	0.2984	1201.632	0.170325	-403.058989	-403.050523	-403.049579	-403.091945	32.549	
C	-0.3377242302	 1.2675709504	-0.0439889585	-0.257556
O	 0.3948738308	 0.0579664279	 0.0840692921	-0.283319
C	 0.7848955875	-0.4780067507	-1.1156265574	 0.411143
C	-0.0080134302	-1.3138952931	-2.1102383474	-0.247926
N	 1.3183957093	-1.7833839257	-2.6788696453	-0.17844
C	 1.9776275511	-1.3385924932	-1.352739812	-0.119836
C	 2.0118724752	 0.0633232255	-1.9057235632	-0.156547
C	 1.8677370102	-0.50251282	-3.3080246219	 0.054999
C	 3.1595423878	-0.7699485318	-4.0583400712	-0.398057
H	 0.2547264999	 2.0417029048	-0.5501994445	 0.113019
H	-1.2708571611	 1.1177927518	-0.6041362503	 0.115291
H	-0.5805744131	 1.6005428167	 0.9670878158	 0.130465
H	-0.5187953397	-2.1528848641	-1.6298395399	 0.11125
H	-0.672846256	-0.8381641723	-2.8401324911	 0.095591
H	 2.6196264658	-1.9369725369	-0.7229287991	 0.10391
H	 2.5725608147	 0.9137454379	-1.5351161009	 0.088955
H	 1.1385840595	-0.0198477542	-3.9719437897	 0.064772
H	 3.8910420633	-1.267276501	-3.4138023485	 0.119644
H	 2.968556318	-1.415403975	-4.9210630305	 0.122645
H	 3.6005719174	 0.1664285732	-4.4168271565	 0.109996
