17
gdb 52313	4.11764	0.94731	0.81407	5.6285	71.34	-0.2491	-0.0034	0.2457	1363.8155	0.135271	-458.981198	-458.972697	-458.971753	-459.015658	29.959	
O	 0.6225963684	 0.1972433458	-0.5682351229	-0.277752
C	 0.6817124031	 1.385977064	-0.6556407432	 0.184647
O	 0.6012628701	 2.1943955689	 0.423815967	-0.181535
C	 0.7732897612	 3.5955383018	 0.2109776974	-0.096463
C	 2.2447259875	 3.992417645	 0.3536450592	 0.076753
O	 3.0059770325	 3.3742459175	-0.6854840936	-0.276892
C	 3.6845159564	 4.361189374	-1.4635671013	-0.116313
C	 3.2904296401	 5.6756638631	-0.8529840358	-0.089107
C	 2.4851217059	 5.4690686594	 0.1823219524	-0.103355
H	 0.7876101204	 1.9446752962	-1.6027123209	 0.081231
H	 0.4077348231	 3.8857409239	-0.7818250605	 0.114626
H	 0.1645940746	 4.0956371102	 0.9697026822	 0.121481
H	 2.6000114337	 3.6202059772	 1.3276309439	 0.103243
H	 4.7703245841	 4.186397544	-1.4182075303	 0.116863
H	 3.3872613929	 4.277437747	-2.519981352	 0.112475
H	 3.6433806073	 6.6299061519	-1.2227268168	 0.116158
H	 2.0480170888	 6.2184131501	 0.8296157052	 0.113941
