13
gdb 717	6.18567	5.559	4.35023	1.6597	52.16	-0.2238	0.0883	0.3121	397.6097	0.110471	-249.269471	-249.265191	-249.264247	-249.29668	17.297	
C	-0.0013740663	 1.4544708149	 0.1143135057	-0.168722
C	 1.5104317125	 1.394831493	-0.0110093182	-0.079425
C	 1.9278654482	 0.0864952896	 0.6952984203	-0.079418
C	 0.6332976517	-0.5347044337	 1.1882617593	-0.168722
N	-0.0484274936	-0.0505335332	-0.0787674531	-0.168618
C	 1.367634811	 0.0682927112	-0.6955809894	-0.020732
H	-0.4622972626	 1.8096935976	 1.0435004788	 0.096189
H	-0.4761779493	 1.9411086895	-0.7416875196	 0.108365
H	 2.2299631047	 2.1794359525	-0.2096718078	 0.089291
H	 2.9507265548	-0.0796215167	 1.00987317	 0.089292
H	 0.6623991563	-1.6274689092	 1.1849855338	 0.108363
H	 0.1726794598	-0.180354895	 2.1179345254	 0.096193
H	 1.6850260927	-0.3420179903	-1.6432037252	 0.097943
