18
gdb 115524	2.67687	1.07727	1.03105	3.4399	72.38	-0.2691	0.0172	0.2863	1252.2559	0.146596	-439.07319	-439.063803	-439.062859	-439.107913	33.665	
C	-0.1257351083	 1.59045572	-0.1066066404	-0.457148
C	-0.0484320718	 0.063516229	 0.0235287296	 0.060692
C	 1.2127146071	-0.5710924814	-0.6375767355	-0.097821
O	 1.8052003773	-0.8439697181	 0.6432921157	-0.300472
C	 0.581366224	-0.5120764435	 1.3400294054	 0.100158
C	 0.866414592	 0.3738421025	 2.5392236659	-0.08443
O	 1.6968414971	-0.3182536238	 3.4509488041	-0.415195
C	-1.3175205148	-0.5488956553	-0.3500411828	 0.24349
N	-2.3248720308	-1.0337927325	-0.6446480813	-0.336063
H	 0.8438448006	 2.0422244093	 0.1148318572	 0.137766
H	-0.405079785	 1.8640217649	-1.1279369012	 0.143113
H	-0.8727184082	 2.011321446	 0.5715172206	 0.144401
H	 1.014396934	-1.4866168238	-1.2058864879	 0.12699
H	 1.8176412701	 0.1152202937	-1.2394891365	 0.11917
H	 0.0727166673	-1.4236801835	 1.6782286447	 0.104303
H	 1.3250749587	 1.3197364109	 2.2184295164	 0.091225
H	-0.0650173157	 0.6065479774	 3.066672018	 0.121294
H	 2.4868041563	-0.5791081218	 2.9625516481	 0.298525
