23
gdb 36961	5.48948	0.54399	0.52109	1.7144	87.09	-0.2616	0.0944	0.356	2157.0523	0.205094	-388.258066	-388.248223	-388.247278	-388.294354	35.853	
C	 0.0349556184	 1.4847834217	 0.1364759182	-0.164426
C	-0.021447377	-0.0331293121	 0.3501940224	-0.209516
C	-1.3961131021	-0.6174716215	 0.1039054576	 0.03616
C	-1.8309259086	-0.986161238	-1.2931815884	-0.253313
C	-1.5637829051	-2.0670065803	-0.2730690131	-0.27777
C	 1.424935566	 2.0814538252	 0.394403374	-0.223432
C	 1.4642162544	 3.5725831388	 0.1683439366	 0.100498
C	 2.6330180112	 4.2595354069	-0.3937492435	-0.181636
O	 1.4757760144	 4.0127117299	-1.1944717338	-0.237093
H	-0.2701899382	 1.7229771181	-0.88929308	 0.117298
H	-0.6971861903	 1.9714418334	 0.7958011029	 0.090575
H	 0.7023931804	-0.521554437	-0.3168385764	 0.090555
H	 0.3020045492	-0.2699242518	 1.3738113795	 0.091676
H	-2.1746721157	-0.2059149275	 0.7427548953	 0.078144
H	-2.8570211816	-0.7959084994	-1.5877646533	 0.109387
H	-1.1102574574	-0.8603055055	-2.0950804261	 0.109764
H	-0.6663380285	-2.6654244314	-0.3940767718	 0.107836
H	-2.408067145	-2.6140036599	 0.1320194599	 0.108657
H	 1.7359363282	 1.8715118683	 1.4272842077	 0.097008
H	 2.1626739349	 1.6054570933	-0.2632249055	 0.100334
H	 0.798220842	 4.1578642182	 0.8068806298	 0.087359
H	 2.8213476141	 5.3047544165	-0.1512165269	 0.111749
H	 3.5169558963	 3.680564074	-0.6597001549	 0.110184
