16
gdb 93307	2.11954	1.93873	1.28545	3.899	66.26	-0.2618	-0.0002	0.2617	998.9534	0.124112	-475.004693	-474.996659	-474.995715	-475.037549	29.955	
O	-0.2793762797	 1.4179925858	 0.8289810714	-0.428874
C	-0.0854384372	 0.2104741151	 0.1097253607	-0.008941
C	 0.7399396751	-0.8233711558	 0.8953945465	-0.118709
O	-0.1956425613	-1.5569153104	 1.7057522242	-0.248597
C	-1.456456583	-1.4531731621	 1.1914279858	 0.38248
N	-2.4788824775	-2.0550025463	 1.6155281926	-0.547759
C	-1.4279669929	-0.4923566689	 0.037435501	 0.351079
C	-2.6344952662	 0.0565139928	-0.5752795799	-0.232125
O	-1.8841276572	-0.9723844932	-1.2288323537	-0.273774
H	 0.5791603607	 1.8328094064	 0.963338722	 0.290162
H	 0.3237696294	 0.3888606245	-0.8918394294	 0.094346
H	 1.2548927609	-1.5189798703	 0.2218077068	 0.12353
H	 1.471317716	-0.3605293648	 1.5630446516	 0.114836
H	-2.2457099026	-2.6756840253	 2.3918816677	 0.228053
H	-3.5956630253	-0.2570021482	-0.1755136361	 0.148137
H	-2.5890358691	 1.0396951509	-1.0389941111	 0.126156
