19
gdb 38847	2.8324	1.86939	1.54561	2.8823	72.48	-0.2507	0.0772	0.3279	926.384	0.162966	-423.027718	-423.021024	-423.02008	-423.058663	27.676	
C	-0.0136412528	 1.5653684492	-0.0056387708	-0.232634
C	 1.4894362016	 1.95203332	-0.0534881752	-0.225226
C	 2.1755390894	 0.5868838884	 0.1542243632	 0.032406
O	 1.301346382	-0.3343923588	-0.4844302504	-0.249847
C	 0.0036438008	 0.0099406737	 0.0106868024	 0.090845
C	-0.1662349573	-0.5864050561	 1.4184219637	-0.245381
C	 1.0561187191	-0.2941283886	 2.2785853698	 0.044179
O	 2.2217833535	-1.0894568059	 2.0193940955	-0.248516
C	 2.2558016485	 0.280190346	 1.6450268358	 0.050974
H	-0.5193758209	 1.9731002037	 0.8734075654	 0.101701
H	-0.5432564219	 1.9353579895	-0.8860018793	 0.109912
H	 1.7616071592	 2.3648307673	-1.0275182565	 0.109232
H	 1.7654352948	 2.6850344751	 0.7097899667	 0.10117
H	 3.1556682201	 0.4978575654	-0.3218713639	 0.085118
H	-0.7272341887	-0.420165544	-0.6782077013	 0.078705
H	-1.0635385882	-0.1754130546	 1.8952177279	 0.097142
H	-0.2997482807	-1.6715156439	 1.3520345852	 0.120497
H	 0.8797876345	-0.114185006	 3.3386141031	 0.091286
H	 2.9331969769	 0.9087941494	 2.2250927586	 0.088438
