21
gdb 93134	2.129	1.83846	1.30345	1.7019	82.12	-0.2424	0.0213	0.2636	1072.1837	0.184106	-387.080612	-387.072352	-387.071408	-387.113058	32.707	
C	-0.1868712301	 1.5544787306	-0.2057799763	-0.398296
C	-0.0292005969	 0.0474028133	 0.0403327302	-0.039041
C	 0.5352525916	-0.7032253761	-1.1836011326	-0.259884
C	 1.9339942045	-0.3578091766	-1.640128369	-0.031179
C	 2.9430024583	 0.2407481212	-1.0021837652	-0.059373
C	 2.9928301557	 0.7878599365	 0.4066697269	-0.298677
C	 2.2039391203	-0.0009080695	 1.4389071855	 0.057843
O	 1.1986289282	 0.6946268234	 2.1929636606	-0.259237
C	 0.7817262668	-0.3224861805	 1.278566469	 0.057169
H	 0.7332880915	 2.0175537175	-0.567792806	 0.126622
H	-0.9563137222	 1.7221045472	-0.9666045701	 0.106321
H	-0.4871709532	 2.0686376986	 0.7096740466	 0.130325
H	-1.0392813925	-0.3491346342	 0.2079378599	 0.07594
H	 0.4913560399	-1.7868623637	-0.9915271168	 0.108077
H	-0.1441793565	-0.5437988935	-2.0318857662	 0.102752
H	 2.1346388696	-0.6701836205	-2.6645163608	 0.084863
H	 3.8606808558	 0.3834206246	-1.5697679161	 0.084833
H	 4.0397869544	 0.8363850519	 0.725949649	 0.104341
H	 2.6350725042	 1.8251003435	 0.4245361989	 0.132591
H	 2.7995975343	-0.6835509036	 2.0464631668	 0.090023
H	 0.4322656262	-1.2314254902	 1.7736389457	 0.083987
