17
gdb 124479	3.23865	1.21276	1.08412	2.8617	69.33	-0.2905	-0.0449	0.2456	1152.389	0.13401	-455.11077	-455.101985	-455.101041	-455.144585	32.525	
C	-0.1759321246	 1.5454334474	-0.0419770093	-0.424295
C	 0.0076671155	 0.0256564983	 0.0121654269	 0.228764
C	 0.8095822031	-0.3952121292	 1.2506252227	-0.393415
O	-1.253178706	-0.6388389361	 0.1350533152	-0.449715
C	 0.6956708163	-0.4913708865	-1.2352239132	 0.315643
N	 1.5147966748	 0.2092745713	-1.9716850242	-0.172571
O	 1.9213661432	-0.6212610292	-2.9814709823	-0.15019
N	 1.3407655434	-1.8535140966	-2.87344625	-0.066918
C	 0.5892377982	-1.7924708227	-1.8113047656	-0.108521
H	 0.7867939157	 2.0552417573	-0.12307479	 0.146108
H	-0.774141146	 1.8343400848	-0.9126603047	 0.117218
H	-0.6867077124	 1.8815541965	 0.8640219166	 0.124894
H	 0.2909708026	-0.0566953339	 2.1515195943	 0.12958
H	 0.9021173403	-1.483594178	 1.294673303	 0.128639
H	 1.8109702457	 0.0413756354	 1.2267901438	 0.132904
H	-1.8448713575	-0.2834221387	-0.5377052977	 0.283912
H	-0.0005896922	-2.6339690403	-1.4858753956	 0.157962
