23
gdb 59764	2.43363	1.30846	0.93264	2.6275	81.1	-0.2472	0.0584	0.3056	1323.461	0.206645	-425.444994	-425.435512	-425.434567	-425.479276	36.842	
C	 0.0668861378	 1.5345636706	 0.048398414	-0.407057
C	 0.0001029985	 0.0115545415	-0.0245313744	 0.109817
O	 0.7515086892	-0.5780114232	 1.0537310062	-0.443715
C	-1.4295192384	-0.5387388828	-0.0559635428	-0.02056
C	-2.2488326455	-0.137968836	-1.3001657134	-0.224813
C	-3.3398524378	-1.2163021682	-1.3744802347	-0.211862
C	-2.5807653028	-2.5089755494	-1.0361051853	-0.210383
C	-1.4972607588	-2.1096212593	-0.01041364	 0.127106
O	-0.2837929191	-2.7460073753	-0.3729311481	-0.443436
H	 1.108043139	 1.8632093668	 0.1083956714	 0.124602
H	-0.3913558815	 1.994835146	-0.8318707041	 0.125293
H	-0.4629330238	 1.9082187339	 0.9338669868	 0.104978
H	 0.5237853491	-0.3337590221	-0.9218033781	 0.103007
H	 0.3333387641	-0.31418247	 1.881325392	 0.279509
H	-1.9543091044	-0.1575799506	 0.833925289	 0.052401
H	-2.6489499259	 0.8783522331	-1.2433438016	 0.093575
H	-1.6142091362	-0.1905516395	-2.1949940215	 0.101651
H	-4.111953247	-1.0136850185	-0.621385737	 0.094163
H	-3.8407328285	-1.2578668078	-2.3458925532	 0.095107
H	-3.2286890879	-3.3118668439	-0.6756394006	 0.093816
H	-2.0561262873	-2.8818475468	-1.922075863	 0.11458
H	-1.7911300828	-2.4242272894	 1.0019969182	 0.053602
H	 0.38075844	-2.425295959	 0.2528644904	 0.288619
