20
gdb 84871	2.29889	1.52291	1.00037	2.2567	82.2	-0.2305	0.0015	0.232	1235.9159	0.171047	-403.156721	-403.147813	-403.146869	-403.190137	33.719	
C	-1.1212291872	 0.8974158792	 0.1128917486	-0.392918
C	 0.2153989521	 0.1507993993	 0.0715850172	-0.003425
C	 0.7941331104	 0.1378032826	-1.3315908518	-0.132601
C	 1.9545427071	-0.4463293038	-1.6340808435	 0.28285
C	 2.5590821401	-0.4521710145	-3.0093977609	-0.484447
C	 2.7295466819	-1.1167137667	-0.5227740333	-0.172097
O	 3.2250294491	-0.1878497046	 0.4599234602	-0.225539
C	 2.3454777152	 0.5781519528	 1.15477242	 0.137559
N	 1.1000339766	 0.7588232936	 1.0758770477	-0.272714
H	-0.9792990224	 1.9452388069	-0.1708563067	 0.120529
H	-1.8413822012	 0.4439591405	-0.5763571795	 0.104258
H	-1.5356763967	 0.8748870986	 1.1232287333	 0.12057
H	 0.0170574574	-0.8882024464	 0.3805943717	 0.092506
H	 0.2286061224	 0.6530491323	-2.1060488068	 0.086234
H	 3.5377303111	 0.0449124376	-3.0130130823	 0.133353
H	 2.7282152201	-1.4765166744	-3.3664147634	 0.125265
H	 1.9152449342	 0.0559151549	-3.731919268	 0.125554
H	 2.121677836	-1.876340597	-0.0146518492	 0.120215
H	 3.628552828	-1.6078693975	-0.9011944023	 0.116138
H	 2.9097105959	 1.1192318769	 1.9158587788	 0.118711
