13
gdb 20146	4.52367	2.49803	2.05152	2.9063	59.39	-0.2388	-0.0286	0.2102	654.6963	0.097452	-361.410358	-361.405198	-361.404253	-361.439443	21.188	
O	 0.0097911438	 0.0313196912	 0.1561995225	-0.32947
C	-0.0178478843	 1.2268949516	 0.0391417181	 0.477698
C	-1.1950339023	 2.1515242638	-0.0622374901	-0.216381
C	-0.822333462	 3.4884346923	 0.5807581581	-0.112405
C	-0.7662377585	 3.3317377406	-0.8999641713	-0.014639
N	 0.7668920592	 3.3572444768	-0.9129646783	-0.153405
C	 0.7254928415	 3.483379415	 0.5667406847	-0.04007
C	 1.1355468423	 2.1909152754	-0.0504414564	-0.193356
H	-2.214604154	 1.7954462907	-0.0631588067	 0.119541
H	-1.4855012818	 4.0559813786	 1.2163550028	 0.112683
H	-1.3238747611	 3.7687808415	-1.7160839789	 0.11732
H	 1.3871818942	 4.1484632611	 1.1084104621	 0.112012
H	 2.1619794028	 1.8539124913	-0.1003731067	 0.120471
