17
gdb 46715	3.01397	1.67614	1.25242	2.8626	71.53	-0.2358	-0.0237	0.2121	988.1015	0.137607	-421.787019	-421.780276	-421.779332	-421.81826	27.145	
O	-0.0046317615	-0.0707639044	-0.1145357524	-0.315209
C	-0.0514249479	 1.1325779612	-0.0055950523	 0.376737
C	-1.3471372501	 1.9115206569	 0.1516823169	-0.321514
C	-1.1591606758	 3.1722506316	 1.0180228868	-0.267022
C	 0.2419155248	 3.7584677755	 0.8722143688	-0.001941
C	 1.0844824884	 3.4973186498	-0.4122172098	 0.013928
O	 2.3107419743	 3.7632716099	 0.3669519899	-0.304065
C	 1.4804445837	 2.8900446181	 1.2142419124	 0.03492
C	 1.1915826037	 1.9899584503	-0.0319031083	-0.104984
H	-1.6369361199	 2.2125903563	-0.8654306505	 0.131266
H	-2.1306569832	 1.2470963342	 0.5214498635	 0.127392
H	-1.9062497031	 3.926142457	 0.7508016811	 0.113916
H	-1.3315580632	 2.9328805048	 2.0742826319	 0.118306
H	 0.3361142648	 4.7814676193	 1.2409045714	 0.090529
H	 1.011528424	 3.9438598667	-1.404524604	 0.100133
H	 1.8797882953	 2.5864096656	 2.1824514187	 0.105872
H	 2.0643882757	 1.4640797571	-0.4178944741	 0.101736
