16
gdb 3159	4.08621	2.57898	1.90049	1.9755	60.61	-0.2437	0.0663	0.31	714.064	0.136777	-325.728271	-325.721387	-325.720442	-325.759062	25.499	
C	-0.2798201735	 1.4873863126	 0.0468241278	-0.401464
C	 0.1238850134	 0.0271411728	 0.0012881855	 0.087316
O	 1.3388314466	-0.1924565879	-0.7594633892	-0.298655
C	 1.9771077232	-0.8971749737	 0.3307730166	-0.126904
C	 0.7821314261	-0.6114270115	 1.2294462854	 0.274321
C	 0.6989864574	-0.2133140375	 2.6477112109	-0.302241
N	 0.2160051712	-1.5372260927	 2.1946242789	-0.357873
H	 0.5194442395	 2.0986144319	 0.475172069	 0.123328
H	-0.4909850863	 1.8506826816	-0.9637971201	 0.130892
H	-1.1864111009	 1.6198852883	 0.648225252	 0.112134
H	-0.697836783	-0.5845251656	-0.4041446696	 0.074479
H	 2.1316611041	-1.9604952703	 0.1084099409	 0.109426
H	 2.932631319	-0.4388985558	 0.6127000223	 0.105296
H	 1.5843773946	-0.2433239998	 3.2775724142	 0.122808
H	-0.0289244496	 0.5449351787	 2.9264790709	 0.115489
H	-0.8001070017	-1.540928411	 2.1318158545	 0.231647
