18
gdb 105403	2.32295	1.22788	1.03372	3.0026	70.89	-0.253	0.0231	0.2761	1229.4031	0.145249	-476.184498	-476.174823	-476.173879	-476.219225	35.174	
O	 0.3584487218	 0.9864844281	 0.5780111914	-0.418135
C	-0.2211109513	 0.3068425204	-0.5226574957	-0.131971
C	-1.4261077958	-0.5209459292	-0.1163759851	 0.362094
C	-1.9787676562	-1.5425027872	-1.0727317704	-0.379182
C	-1.300447808	-1.9852172324	 0.2070168517	 0.041971
O	-0.0227207308	-2.5416994478	 0.1674733494	-0.414105
O	-2.4004244887	 0.2209002459	 0.5842580381	-0.235125
C	-2.181046922	 0.4091108876	 1.9108591677	 0.092738
N	-2.8736045436	 1.2604455416	 2.5344803716	-0.448882
H	-0.1759644149	 1.7667416324	 0.7576013022	 0.2989
H	-0.5194012572	 1.0104066365	-1.3124019645	 0.10297
H	 0.5439986409	-0.3611255539	-0.9251383581	 0.129641
H	-3.0570554456	-1.6308042154	-1.136844551	 0.134485
H	-1.4375186377	-1.6858563248	-2.00241735	 0.120853
H	-1.9513405946	-2.3624594084	 0.9955807406	 0.103312
H	-0.0869563737	-3.411302192	-0.2415124189	 0.294389
H	-1.3981562971	-0.2377453904	 2.3187520869	 0.116325
H	-2.6161052155	 1.255565449	 3.519622984	 0.229722
