19
gdb 121704	1.9084	1.26669	0.93022	1.9534	72.99	-0.243	-0.0413	0.2018	1323.5505	0.155206	-460.174739	-460.164411	-460.163467	-460.211609	35.398	
C	-1.8347741227	 0.273526852	-0.7564959329	-0.413394
C	-0.445126798	-0.2390553666	-0.3906694645	-0.054053
O	-0.3878097251	-1.6310024725	-0.0850803313	-0.234957
C	-0.9953663655	-2.0047196438	 1.1262875318	-0.172044
C	-2.4542124548	-2.4664896851	 1.0085907539	 0.338018
O	-3.2296554389	-2.329023335	 1.9252192508	-0.30539
C	-2.8626136727	-3.1542784619	-0.294754439	-0.374714
C	-4.1384005875	-2.5429772065	-0.8505440473	 0.164222
O	-4.2588021303	-2.1550405165	-1.9827667237	-0.234891
H	-1.7713923306	 1.3262645633	-1.051218809	 0.123509
H	-2.2596697462	-0.2911353069	-1.5906698963	 0.152466
H	-2.5252709585	 0.2160806703	 0.0918930045	 0.128023
H	 0.2387587456	-0.1133514013	-1.2353134925	 0.117431
H	-0.0373500588	 0.3358769797	 0.4552216961	 0.097874
H	-0.4337635244	-2.8672117909	 1.5154889077	 0.133979
H	-0.9512262405	-1.2139631406	 1.8871383592	 0.123343
H	-2.071715856	-3.1288763553	-1.0430253186	 0.148018
H	-3.0925978377	-4.1961742807	-0.0319481333	 0.15354
H	-4.9645649975	-2.4713674719	-0.1134074955	 0.109018
