16
gdb 44281	3.47021	1.83233	1.44739	4.2225	71.02	-0.2218	0.0354	0.2572	886.4631	0.127283	-400.728061	-400.721786	-400.720841	-400.758627	26.272	
O	 0.0118890176	-0.0756392798	 0.0703444836	-0.398674
C	-0.0267246504	 1.1409781956	 0.0217649931	 0.442945
N	-1.1820315247	 1.8661580803	-0.0030299603	-0.35589
C	-1.1519495124	 3.2915603479	-0.0604311937	 0.041527
C	-0.1100500716	 4.1024805525	 0.6697827569	-0.116804
C	-0.1155209933	 4.0409983185	-0.8607908504	-0.116821
C	 1.2468544846	 3.3100309501	-0.8226392649	-0.09277
C	 1.2522088614	 3.3703802449	 0.6806850685	-0.092768
C	 1.1808610974	 2.0155641119	-0.0175429754	-0.179103
H	-2.0551685142	 1.3637933613	 0.0198961881	 0.248146
H	-2.1429427109	 3.7321720675	-0.0745600994	 0.110142
H	-0.3593751232	 4.9227098644	 1.3302165215	 0.096065
H	-0.3698040247	 4.8056812703	-1.5830873833	 0.096063
H	 2.05062153	 3.4876826079	-1.5236026747	 0.102223
H	 2.060891235	 3.6034360219	 1.3594115012	 0.102221
H	 2.1075216197	 1.4531320647	 0.0017280992	 0.113498
