18
gdb 74676	3.17008	1.68777	1.50587	1.9005	80.99	-0.2058	0.0067	0.2125	954.3106	0.149863	-364.801065	-364.794161	-364.793217	-364.832034	28.37	
C	 0.0982433826	 1.460578606	 0.0450743651	-0.503068
C	-0.0133667943	-0.0301605703	-0.0044070151	 0.357101
C	-0.0856930937	-0.8237304294	-1.0829963852	-0.185862
C	 0.0023275025	-2.2830603898	-0.659278303	-0.127945
C	 1.498610455	-2.5708558477	-0.7084603138	-0.079409
C	 2.037545775	-2.3151268314	 0.4892766794	-0.070991
C	 0.9730663007	-2.0058186997	 1.4586803023	-0.075611
C	-0.0511463424	-0.8743703155	 1.2091186002	-0.14791
N	-0.3272005763	-2.2641773904	 0.8148083748	-0.107981
H	 1.0617214147	 1.7701365742	 0.4697291946	 0.131354
H	 0.0123715665	 1.9005883427	-0.951667374	 0.126447
H	-0.6808215818	 1.900019281	 0.6799717619	 0.127316
H	-0.0261383561	-0.5019358439	-2.1166650395	 0.094567
H	-0.6356943652	-2.9803836291	-1.2075692206	 0.080711
H	 2.0330111212	-2.7729060776	-1.6291273506	 0.10166
H	 3.0910029742	-2.3195793447	 0.7382812984	 0.099694
H	 1.0754278913	-2.3320929292	 2.4912278993	 0.092333
H	-0.5732562041	-0.5057749952	 2.0905648558	 0.087595
