20
gdb 18526	5.44405	1.09467	1.03419	0.8437	75.52	-0.2492	0.0911	0.3403	1213.0118	0.177211	-348.960462	-348.952258	-348.951314	-348.993469	30.432	
C	 0.0175412542	 1.3851231919	-0.043512127	-0.22312
O	 0.1206508414	-0.0168763959	-0.0349791048	-0.232827
C	 0.5814587817	-0.5286261039	 1.1991599769	-0.068542
C	 0.6820620014	-2.0374923987	 1.080930469	 0.00654
C	 1.7807625747	-2.6625047947	 0.1547450708	-0.243015
C	 2.2926141569	-3.4834315238	 1.3463239331	-0.035617
C	 2.7292983183	-2.567459726	 2.4512054249	-0.274653
C	 1.2568307896	-2.8279783732	 2.2658335168	-0.073356
H	 0.989765577	 1.8695299722	 0.1431390531	 0.100667
H	-0.3400787062	 1.6835369552	-1.0323347486	 0.124447
H	-0.6939084271	 1.7490360386	 0.7155455757	 0.100792
H	 1.5595859231	-0.0856214744	 1.4519612263	 0.080332
H	-0.1136949715	-0.2567460168	 2.0138820654	 0.08055
H	-0.3013964178	-2.4241029196	 0.7987411795	 0.081202
H	 1.3526106274	-3.2648109824	-0.6484005968	 0.104151
H	 2.4994682375	-1.9617110721	-0.2830497411	 0.095375
H	 2.6005749037	-4.5211503736	 1.3088722657	 0.083251
H	 3.1683177777	-3.0548109426	 3.3161282863	 0.108799
H	 3.1681495558	-1.5991150394	 2.2231763432	 0.103975
H	 0.6650513423	-3.2786504607	 3.0540742416	 0.081049
