15
gdb 81878	3.17154	1.30164	1.01497	3.3357	67.99	-0.252	-0.0598	0.1923	1141.4544	0.109382	-457.740534	-457.731983	-457.731039	-457.774213	30.14	
C	-0.0190443195	 1.6347674373	-0.0966300187	-0.414221
C	 0.0427243166	 0.1189003404	 0.0346501659	-0.140734
C	 0.6499378331	-0.6946175196	-1.1251558664	-0.029005
O	 1.9905112207	-0.2969077363	-1.2644892061	-0.243515
C	 1.7268300448	-1.3026774967	-0.2623597836	 0.181463
C	 2.3856820782	-2.6297878816	-0.3653345022	 0.046678
O	 2.9073558687	-3.0473257176	-1.366916869	-0.245343
C	 1.144569515	-0.5339046222	 0.9276852677	 0.362809
O	 1.3503586343	-0.5545158589	 2.1033537743	-0.290708
H	 0.9237441553	 2.0242570503	-0.4881238241	 0.144221
H	-0.8283086897	 1.9405773846	-0.7668050701	 0.127459
H	-0.1998890135	 2.0887812558	 0.8818994007	 0.141736
H	-0.9208036655	-0.2960865896	 0.3567224612	 0.115322
H	 0.16629044	-1.172741527	-1.9693994548	 0.139757
H	 2.3403611315	-3.2219631989	 0.572352095	 0.104084
