15
gdb 49808	2.64331	1.58948	1.02024	2.5366	68.93	-0.2656	-0.0468	0.2188	1093.8429	0.114055	-454.013549	-454.005952	-454.005008	-454.046019	27.789	
O	-0.0313494967	-0.0528808744	-0.1247636958	-0.293976
C	-0.0250180637	 1.1487362467	-0.0621739112	 0.171584
N	 1.153940217	 1.9085654929	 0.0631038124	-0.188981
C	 2.4076072498	 1.2428821434	 0.0855101842	 0.110706
N	 3.5218546709	 1.7698674762	 0.3653619715	-0.2461
C	 3.5225088886	 3.1876122472	 0.7118882076	-0.174173
C	 2.429941912	 3.9886158707	-0.0072827799	-0.341541
C	 1.0773782045	 3.3231413456	 0.1045029543	 0.431909
O	 0.0213729939	 3.9002376744	 0.1809011847	-0.331713
H	-0.9154279913	 1.7898448977	-0.0973995458	 0.146447
H	 2.3173084338	 0.1854579405	-0.1427169783	 0.164296
H	 3.4039657045	 3.2686203086	 1.8017574812	 0.131007
H	 4.5066773282	 3.6020238738	 0.4775556151	 0.12915
H	 2.3402889085	 5.0107179416	 0.3650767091	 0.143842
H	 2.6678662699	 4.0461130252	-1.0783493989	 0.147543
