14
gdb 56420	4.10769	0.63235	0.5785	3.6075	76.51	-0.2775	-0.0153	0.2622	1820.7469	0.09769	-399.47718	-399.467367	-399.466423	-399.514652	33.499	
O	-0.8737571209	 0.7292022903	 0.2602349871	-0.382227
C	 0.1133936214	-0.185300539	-0.1779431849	-0.181348
C	 0.9656356551	 0.4131844364	-1.2369563439	 0.280006
N	 1.6156694152	 0.9000272475	-2.0581340742	-0.316495
C	 0.9494051235	-0.7115591565	 0.904093948	 0.090734
C	 1.6223544412	-1.1253172464	 1.8102502479	 0.097088
C	 2.4500310743	-1.6328341549	 2.9058222096	-0.494354
C	 1.8731301249	-2.7936594896	 3.5846506992	 0.312463
C	 1.4088573917	-3.7457408528	 4.1485194699	-0.431752
H	-0.4318282341	 1.4249311816	 0.7616317557	 0.300173
H	-0.4464071598	-1.0083495499	-0.6390665076	 0.172443
H	 3.4433437327	-1.8903528317	 2.513463434	 0.174826
H	 2.6193811305	-0.8270871173	 3.6330951578	 0.170597
H	 0.9957794744	-4.5885388778	 4.6455350413	 0.207846
