19
gdb 65328	3.07312	1.07532	1.0132	1.9022	82.17	-0.2572	0.0223	0.2795	1278.252	0.156287	-385.823825	-385.814398	-385.813454	-385.858519	35.213	
C	 0.5294430534	 1.2252212861	-1.0091807446	-0.460419
C	 0.0092987019	 0.079141681	-0.1687763706	 0.38416
O	 0.9091681896	-1.0352597807	-0.0522809988	-0.283663
C	 0.6642908044	-0.2486327948	 1.1239790964	-0.235418
C	 1.7557892887	 0.5212216383	 1.661548812	 0.333473
C	 2.6532405122	 1.1536740192	 2.1516860912	-0.412702
C	-1.433867438	-0.2560611835	-0.4124437687	-0.044943
C	-2.29152871	-1.0502632157	 0.5340055826	-0.279801
C	-2.5318784315	 0.428461724	 0.3698804572	-0.262235
H	 1.5753943886	 1.4358184138	-0.7823978303	 0.139584
H	 0.445976332	 0.9732785094	-2.0718059444	 0.124495
H	-0.0612966851	 2.1291817313	-0.8305086247	 0.126121
H	 0.0782396836	-0.766258958	 1.8816505596	 0.1093
H	 3.4502766083	 1.7117306429	 2.5775470568	 0.200473
H	-1.6419902485	-0.4120705578	-1.4685454814	 0.091026
H	-3.0032201998	-1.739961754	 0.0945468684	 0.116543
H	-1.868860569	-1.3998802669	 1.4683302726	 0.120318
H	-2.2318342067	 1.0772042221	 1.1862514015	 0.11747
H	-3.416312754	 0.7611886631	-0.1615945248	 0.116217
