19
gdb 41737	3.70679	1.43965	1.24133	1.9795	74.28	-0.2295	0.0899	0.3194	1044.9068	0.16228	-423.016427	-423.009388	-423.008443	-423.047652	28.408	
C	 0.2067215865	 1.2847981543	-0.340314005	-0.102683
C	 1.4686333485	 1.8869530925	 0.3283623047	-0.25579
C	 2.1077702632	 0.6888413703	 1.0187426028	-0.12486
C	 2.323026988	-0.5552946908	 0.1711859007	-0.171216
C	 3.0071495577	-1.7201295772	 0.8593192475	-0.097599
O	 2.3371620132	-1.9010424663	 2.1126468283	-0.260318
C	 0.9861634627	-1.4736351906	 1.9838646453	-0.170698
C	 1.0424670949	-0.3666450703	 0.9634511339	 0.453217
O	-0.1371639318	 0.1103661866	 0.40218657	-0.305542
H	-0.6576770857	 1.9531480711	-0.332178233	 0.11354
H	 0.4167463905	 1.0100035126	-1.3830346388	 0.102837
H	 2.1119878002	 2.3804855315	-0.4063916713	 0.10681
H	 1.1934986686	 2.6299856927	 1.0837763664	 0.112609
H	 2.717763655	 0.8474623107	 1.9023597177	 0.095983
H	 2.3627941935	-0.4884875296	-0.9105625155	 0.089399
H	 2.9233724471	-2.6224853033	 0.2329305945	 0.094884
H	 4.06579516	-1.5598745931	 1.0911768837	 0.108006
H	 0.3251012052	-2.2802572671	 1.6272721722	 0.099481
H	 0.6457152127	-1.1561157044	 2.974653746	 0.111941
