18
gdb 41288	2.98715	2.03074	1.83824	1.2541	74.23	-0.2293	0.0615	0.2908	839.0015	0.150573	-401.827564	-401.821507	-401.820563	-401.857477	26.541	
C	-0.0337687908	 1.5535073652	-0.0261261827	-0.217342
O	 1.4254729314	 1.5268275076	 0.1310987066	-0.345646
C	 1.3588547262	 0.1230437217	 0.4017393368	 0.389887
C	 0.9842715169	-0.3954389904	 1.8258847847	-0.302979
C	-0.0761525204	-1.1327463839	 1.0160285291	-0.037241
N	 0.643809536	-1.9144117185	-0.1619216648	-0.153199
C	-0.1893548815	-1.0644970174	-1.1161509263	-0.237968
C	-0.118441103	 0.0043609081	-0.0472655827	 0.178632
C	 1.9493745339	-1.1359408344	-0.2337974444	-0.235809
H	-0.5179790187	 2.0595558361	 0.8159037319	 0.113836
H	-0.3176237353	 2.0441169278	-0.9619830732	 0.119463
H	 1.7218597993	-0.9611717181	 2.400120332	 0.10222
H	 0.5359334633	 0.3856265732	 2.4436046859	 0.113402
H	-0.9167466912	-1.7014507634	 1.4127809908	 0.081997
H	 0.2588016873	-0.9063000914	-2.1023034915	 0.104632
H	-1.1830686759	-1.5085747569	-1.2266829925	 0.107638
H	 2.2733868406	-1.0428187189	-1.2710018378	 0.113703
H	 2.7298596618	-1.6251177064	 0.3517690982	 0.104773
