19
gdb 133655	2.40121	1.1276	1.07496	0.8751	64.	-0.2567	0.0707	0.3275	1234.9151	0.154918	-550.72478	-550.714809	-550.713865	-550.759763	36.622	
C	-0.5222128902	 1.2698554835	-0.2506960603	-0.413914
C	-0.0768838177	-0.1886361732	-0.0574088984	 0.04282
C	 0.5941842246	-0.7246447002	-1.3294646645	-0.402323
C	 0.8666971054	-0.3931533799	 1.1529714095	-0.129598
N	 2.0234509587	 0.4939873617	 1.104399646	-0.514005
C	 0.1389272899	-0.3169690365	 2.5009081341	 0.271372
F	-0.9271440269	-1.1301663845	 2.5523824022	-0.077043
F	 0.965709137	-0.6805663211	 3.4999290972	-0.085547
F	-0.2884541314	 0.9274191213	 2.7878296982	-0.084065
H	 0.3333857608	 1.915434934	-0.4768065399	 0.121615
H	-1.2107186094	 1.3386396171	-1.0983752463	 0.116336
H	-1.0321620161	 1.6685958807	 0.628850235	 0.125641
H	-0.9691821687	-0.7935241222	 0.14082877	 0.090189
H	 1.5328698484	-0.1964972322	-1.5197229852	 0.136173
H	 0.8188675422	-1.7931203959	-1.2429877759	 0.108512
H	-0.059626824	-0.5895750649	-2.1965487538	 0.110395
H	 1.2389678531	-1.4238006758	 1.1077622108	 0.105275
H	 1.7371176948	 1.4470972685	 1.3065566226	 0.238589
H	 2.6895202495	 0.2336860998	 1.8246503587	 0.239579
