14
gdb 123515	4.08308	1.74337	1.22172	3.4826	78.95	-0.2137	-0.0597	0.1539	929.519	0.105839	-395.779035	-395.773214	-395.77227	-395.80911	23.573	
C	-0.0286068867	 1.2951574595	 0.0096264873	 0.015211
N	 1.1827946728	 1.8281381376	 0.0011480316	-0.261347
C	 2.0665010664	 0.7947029193	-0.0131548371	-0.187645
C	 1.3956205715	-0.4184483299	-0.0137385006	 0.357236
C	 1.6878506236	-1.7968902535	-0.0244033325	-0.200241
C	 0.6476212328	-2.6829140796	-0.019553542	-0.141268
C	-0.6884901987	-2.1794857497	-0.0039417897	 0.021342
N	-1.0185953101	-0.9161578712	 0.0064267563	-0.233872
N	 0.030314961	-0.0610496359	 0.0013232169	-0.009475
H	-0.9702294142	 1.8201583373	 0.0215817433	 0.14619
H	 3.1337772647	 0.9569250845	-0.0223870762	 0.118931
H	 2.7220874391	-2.121763956	-0.0361107919	 0.128425
H	 0.8109879472	-3.7529100457	-0.0272212817	 0.11513
H	-1.5309712395	-2.8639838668	 0.0001698463	 0.131383
