23
gdb 67450	2.09493	1.80778	1.7405	0.2285	87.57	-0.2567	0.0769	0.3336	1023.9782	0.208494	-351.155192	-351.147318	-351.146374	-351.187163	32.489	
C	-0.0414155835	 1.5251498143	 0.0466944117	-0.520567
C	 0.0011324628	 0.0185022294	-0.0223967387	 0.390872
C	 0.6704283153	-0.8216869009	-1.1736443511	-0.074895
C	 1.676375304	-1.3988980895	-0.1560340992	-0.234213
C	 0.8539926081	-0.7879567752	 1.0223626596	-0.059806
C	-0.0897997343	-1.7658531327	 1.766407425	-0.228992
C	-1.5116727734	-1.5356820494	 1.1881764853	-0.218538
C	-1.3044826345	-0.8203421577	-0.1492949371	-0.057826
C	-0.6451942846	-1.6371130449	-1.3084603703	-0.242522
H	 0.9666580415	 1.9562404678	 0.0546503011	 0.11209
H	-0.5766946622	 1.9512755368	-0.809864252	 0.111572
H	-0.5508338587	 1.8656685758	 0.9572779574	 0.112501
H	 1.0695961751	-0.3827022728	-2.0899333818	 0.054431
H	 1.8125403924	-2.4863658185	-0.1496441106	 0.084989
H	 2.6609174489	-0.9313363086	-0.2495366067	 0.093582
H	 1.4485516497	-0.1833703665	 1.7112764865	 0.060059
H	 0.2366972093	-2.7997384118	 1.6113201323	 0.096484
H	-0.0744776733	-1.5998058908	 2.8476180576	 0.093789
H	-2.08062992	-2.466123004	 1.0857789184	 0.092355
H	-2.0878581408	-0.8865626317	 1.8586795591	 0.092967
H	-2.1912764302	-0.2664626583	-0.4695050882	 0.056925
H	-1.1460475595	-1.4833547784	-2.2674502825	 0.096751
H	-0.5538243622	-2.7165470125	-1.1455970056	 0.08799
