20
gdb 105382	3.30053	0.96417	0.87648	2.6115	75.16	-0.2444	0.0739	0.3183	1390.3849	0.169968	-440.221642	-440.212491	-440.211547	-440.256177	33.991	
O	-0.0012106328	 1.5635115424	-0.2418891568	-0.420858
C	 0.0009604832	 0.1976186054	-0.5926971153	-0.123047
C	-1.2352184557	-0.5234330038	-0.0714441938	 0.380426
C	-1.4441337872	-1.9392463121	-0.5687831314	-0.242636
N	-0.3102055964	-2.7799727997	-0.2024506262	-0.065787
C	-0.417848221	-3.5114806805	 1.0566656841	-0.21858
C	-0.5307092843	-4.2199140472	-0.2482160074	-0.217464
C	-1.8567508375	-0.0708044415	 1.1787150686	-0.221226
O	-2.416686753	 0.2960911296	-0.0960581791	-0.29435
H	-0.8914809171	 1.8816968593	-0.4425207967	 0.290429
H	 0.0481265595	 0.0590569868	-1.6863145208	 0.089749
H	 0.9003317671	-0.2576060826	-0.1697122587	 0.130788
H	-2.4072243321	-2.3180534875	-0.184879077	 0.091048
H	-1.512871139	-1.9252716488	-1.6640137655	 0.112725
H	 0.4917903576	-3.5782106321	 1.6460564795	 0.121477
H	-1.3311694336	-3.3950712407	 1.6380365904	 0.110799
H	-1.5191981295	-4.5750190611	-0.5359294181	 0.112714
H	 0.2953202737	-4.812678503	-0.6302444837	 0.121371
H	-2.4642881814	-0.7599965087	 1.7626524568	 0.111557
H	-1.4006827404	 0.7487689257	 1.7276777211	 0.130867
