21
gdb 118925	2.46757	1.12376	1.02653	2.6306	80.38	-0.2266	0.0289	0.2555	1326.4242	0.181759	-420.398301	-420.388421	-420.387477	-420.433255	36.23	
C	-0.0916878363	 1.5556473907	 0.0771243972	-0.38492
C	-0.0383824608	 0.034505776	-0.0344412593	-0.126902
N	 0.7882382284	-0.5213903724	 1.0427946081	-0.341247
C	 0.8044296778	-1.9754298971	 1.1577279982	 0.162202
C	 1.3489153596	-2.7444291113	-0.0501564152	-0.455292
C	 1.3503505763	-2.4309876167	 2.5369750539	-0.115851
O	 0.0240532257	-2.9149961441	 2.9164896939	-0.254852
C	-0.5106367956	-2.5223770828	 1.7128139953	 0.448995
N	-1.6788094812	-2.61765424	 1.2658983004	-0.553312
H	 0.9068246168	 1.9972712645	-0.0265784738	 0.105732
H	-0.7227629282	 1.9781606021	-0.7105611415	 0.115112
H	-0.4931539255	 1.8569395404	 1.0486087272	 0.127134
H	-1.0415150773	-0.3885998743	 0.0719278361	 0.146567
H	 0.3185089619	-0.2450540895	-1.0406513783	 0.078649
H	 1.7447498751	-0.1908853911	 0.9391152005	 0.209684
H	 2.372917627	-2.4237961376	-0.274688372	 0.110538
H	 1.3608380051	-3.82284719	 0.135870193	 0.124185
H	 0.7293324145	-2.5665831421	-0.9324495712	 0.143634
H	 2.0745780931	-3.2493584432	 2.5298542989	 0.112522
H	 1.6712677491	-1.6187713655	 3.1918065922	 0.120361
H	-2.3059942554	-3.048111016	 1.9482961764	 0.227059
