17
gdb 106155	2.46878	1.6354	1.26981	0.4362	68.25	-0.2161	0.066	0.2821	1040.6042	0.134201	-458.864136	-458.855927	-458.854983	-458.896879	31.109	
C	 0.1187662705	 1.2581499408	 0.2945388516	-0.254227
O	-0.0058384115	-0.0695518685	-0.2064780748	-0.272346
C	-1.2648703927	-0.5647987366	-0.1343655501	 0.326383
C	-2.2434930734	-0.9116247325	 0.9520772366	-0.093936
O	-3.350120307	-0.2199609474	 0.3839125229	-0.281007
C	-2.6506481349	-0.2790554751	-0.8888146447	-0.018572
C	-2.7009744438	-1.7782807177	-1.2876566655	-0.2979
C	-1.7698960141	-1.9859655951	-0.0934378899	 0.264461
O	-1.0391349517	-3.0947890512	 0.2607393023	-0.455398
H	 1.1732381473	 1.5272191235	 0.2111104256	 0.133429
H	-0.4832008097	 1.9634566374	-0.2929293821	 0.120318
H	-0.1945637077	 1.3133303878	 1.3444328917	 0.122134
H	-2.1672133716	-1.0422710145	 2.0237003287	 0.111297
H	-2.9134693338	 0.5208815253	-1.5769310891	 0.092075
H	-3.6939458577	-2.238668887	-1.2847119032	 0.098026
H	-2.1816384634	-1.9667258865	-2.2306232148	 0.114385
H	-1.6182149646	-3.7066709726	 0.7293988447	 0.290876
