19
gdb 94192	2.71941	1.33344	1.22632	1.3366	71.07	-0.2477	0.0633	0.311	1114.8583	0.15698	-460.116926	-460.107646	-460.106702	-460.151204	33.974	
C	-0.119422082	 1.7592860634	 0.4175150815	-0.440272
C	-0.0448499311	 0.2779866825	 0.0868466506	 0.359987
O	 0.8242573684	 0.0189049079	-1.0469765583	-0.319938
C	 1.6877619854	-0.8366187162	-0.2706370371	-0.100117
C	 0.8525887461	-0.6043171396	 1.0053980872	 0.021201
O	 1.4590333428	 0.1275944051	 2.0440113677	-0.430393
C	-1.4204779685	-0.3130539632	-0.1451231099	 0.025603
C	-1.8850614283	-0.6756234035	-1.4884917302	-0.173257
O	-1.4537127916	-1.6784691741	-0.5606456857	-0.246955
H	 0.8761458727	 2.1550760062	 0.6209322975	 0.137633
H	-0.5528326031	 2.3022153344	-0.4283534554	 0.12203
H	-0.7425031964	 1.9328054217	 1.3003142229	 0.121397
H	 1.6977820622	-1.8619358102	-0.6565132695	 0.107802
H	 2.709602622	-0.4433406633	-0.2091686812	 0.098175
H	 0.34529303	-1.4990435871	 1.3816009753	 0.090607
H	 1.9502861668	-0.4843152071	 2.6001695101	 0.290428
H	-2.1609896762	-0.0574144177	 0.6152585614	 0.090814
H	-2.9515321751	-0.6726326848	-1.7080240061	 0.110961
H	-1.2152379742	-0.5155942844	-2.3286221206	 0.134293
