21
gdb 84011	2.09979	1.67832	1.39082	1.4138	78.01	-0.2315	0.0755	0.3071	1085.4193	0.182686	-424.211365	-424.202443	-424.201498	-424.244736	33.972	
C	-0.4006650852	 1.5032071447	-0.0845480424	-0.417054
C	-0.1010657948	 0.0226010238	-0.0288085454	-0.071927
C	 1.2547037569	-0.5818914791	-0.3925880469	-0.137896
C	 2.4981089872	 0.2487878669	-0.6419975039	-0.119444
O	 3.3074972893	 0.2823314235	 0.5368252714	-0.220634
C	 2.6261359291	 0.9011487033	 1.5745269792	 0.01397
O	 1.4176196958	 0.2519313382	 1.9612127011	-0.314435
C	 0.7710920936	-0.5942195581	 1.0397547823	 0.407829
C	 0.3752504131	-1.8861956037	 1.7113190795	-0.439217
H	 0.4027779212	 2.1100053079	 0.336581386	 0.124565
H	-0.571970138	 1.8374251126	-1.1140496719	 0.115187
H	-1.3042017685	 1.726934611	 0.492264787	 0.123339
H	-0.9403135456	-0.599240161	-0.3317463791	 0.081579
H	 1.2288951004	-1.534289974	-0.9125764208	 0.089174
H	 3.1196223947	-0.2017437073	-1.417988256	 0.115575
H	 2.2644413569	 1.2786933125	-0.9518906293	 0.097585
H	 3.2823129969	 0.8864311101	 2.4495281827	 0.114987
H	 2.3942207939	 1.9480050682	 1.304976724	 0.079855
H	-0.2599623596	-1.6854998745	 2.5804809826	 0.124118
H	-0.1781067272	-2.5317570463	 1.0231802357	 0.110216
H	 1.26279451	-2.4258938488	 2.0571877242	 0.122629
