17
gdb 30109	3.88231	1.15957	1.0086	2.0101	77.03	-0.2189	0.0033	0.2222	1196.6037	0.136063	-421.83597	-421.827995	-421.827051	-421.869155	29.728	
C	 0.159507692	 1.524892842	-0.3885161647	-0.436144
C	-0.0155158669	 0.086536435	 0.0211079533	 0.078887
O	 1.1465452344	-0.7457453161	 0.071383054	-0.257714
C	 0.4457225265	-0.5004051009	 1.2994766387	-0.075105
C	 1.145065482	 0.194757912	 2.388681489	 0.381754
C	 1.0948717345	 0.002256372	 3.7379050534	-0.269654
C	 1.9752576705	 0.9684433691	 4.321226146	-0.174715
C	 2.4987902854	 1.669431347	 3.2832396455	-0.017035
O	 2.0043097819	 1.2136201633	 2.1014415377	-0.175543
H	 1.0207256081	 1.97721135	 0.1019819548	 0.150451
H	 0.2980882188	 1.5880013239	-1.4731110672	 0.127062
H	-0.7377666562	 2.0992727806	-0.1332863857	 0.120402
H	-0.8777274831	-0.4098184074	-0.4326244621	 0.088269
H	-0.1136269497	-1.3592301227	 1.6740282451	 0.096272
H	 0.5046952005	-0.7404574969	 4.2518013918	 0.11155
H	 2.1921617739	 1.1116012534	 5.3679517145	 0.114966
H	 3.2079542274	 2.4771897556	 3.2100596258	 0.136296
