16
gdb 3438	4.43191	2.96448	2.13779	1.4823	64.88	-0.2298	0.0152	0.245	657.6353	0.138727	-288.621895	-288.615793	-288.614849	-288.651438	24.126	
C	-0.0846417171	 1.5732270092	 0.0441140929	-0.391466
C	 0.0238463685	 0.0417977561	 0.0056451547	-0.019094
C	 0.8175306968	-0.4893062014	-1.1785702272	-0.077799
C	 1.8120415114	-1.3018084543	-0.8158119914	-0.057768
C	 1.8803659859	-1.4100208471	 0.6718786879	-0.084344
N	 2.1787629535	-0.0963612641	 1.3178000455	-0.330007
C	 0.7788441671	-0.5597747944	 1.195175218	-0.051801
H	 0.9094991616	 2.0153752433	 0.1451557616	 0.140637
H	-0.5479046583	 1.9586978618	-0.8699912364	 0.107694
H	-0.6963831424	 1.9006407693	 0.8913836365	 0.107689
H	-0.9932493422	-0.3771948616	-0.0185395397	 0.076743
H	 0.5930759008	-0.1883253258	-2.1966875671	 0.091795
H	 2.5096043622	-1.7920648018	-1.4842531143	 0.095095
H	 2.2128264919	-2.3180222783	 1.1636869857	 0.08568
H	 2.4837687051	-0.2683498417	 2.2747886019	 0.224989
H	 0.2370629453	-0.8129392191	 2.1004944016	 0.081958
