15
gdb 74320	3.4661	1.25838	1.0221	4.869	67.68	-0.2378	-0.0227	0.2151	1122.0137	0.1126	-453.938429	-453.93058	-453.929636	-453.971414	29.115	
N	 0.3403329119	 1.4149435592	 0.2283389902	-0.579121
C	 0.1066189543	 0.0830635497	 0.0392636806	 0.403025
N	-1.0506414124	-0.4206201935	-0.2020176194	-0.314879
C	-0.9486361204	-1.884632909	-0.1850682048	-0.08562
C	-1.4899160657	-2.4739642931	-1.4866033762	 0.172696
O	-2.1787956768	-3.4578304488	-1.5430550247	-0.247109
C	 0.5383850793	-2.2140542888	-0.0043387453	 0.014252
O	 1.3620879132	-1.6776566358	-1.0474241652	-0.244203
C	 1.2173638403	-0.9233086091	 0.1690769592	-0.080161
H	 1.2536285185	 1.7678167961	-0.0095119314	 0.263125
H	-0.4280550342	 2.0258212937	-0.0090373007	 0.266458
H	-1.5351229719	-2.3100336534	 0.6372630224	 0.105
H	-1.1763186583	-1.9154481292	-2.3930325715	 0.093905
H	 0.8775971456	-3.1456325418	 0.4376563885	 0.118593
H	 2.1214320566	-0.7564215064	 0.7471283882	 0.114038
