17
gdb 42866	2.51804	1.75028	1.48118	1.9404	73.3	-0.2374	-0.0271	0.2103	957.2194	0.137465	-421.828532	-421.82133	-421.820385	-421.860102	28.303	
O	-0.0373329231	 0.0262355813	 0.3534133597	-0.289913
C	-0.0073266016	 1.1960162743	 0.1326753861	 0.384411
C	-1.0359782864	 2.3118538542	-0.1196661269	-0.019313
C	-1.6201535239	 2.9401954942	 1.1585220907	-0.2412
C	-0.6570302651	 3.9380240118	 1.8428727447	-0.241392
C	 0.7709185807	 3.4872718697	 2.074281477	-0.069429
C	 1.546957241	 2.8028181902	 1.2294661822	-0.044018
C	 1.0708156676	 2.2807195463	-0.0978803461	-0.081514
O	 0.035083414	 3.1117465303	-0.6856755119	-0.288848
H	-1.8099931632	 2.0805084637	-0.8591551991	 0.106986
H	-2.5474118095	 3.4705863004	 0.9164265761	 0.111057
H	-1.8928476079	 2.133505875	 1.8491920738	 0.124834
H	-0.6321939714	 4.8534499658	 1.240183493	 0.137554
H	-1.0956661219	 4.2218560412	 2.8048975723	 0.103792
H	 1.2114217065	 3.8008148279	 3.0177128982	 0.100836
H	 2.5614338434	 2.5398647546	 1.5150133458	 0.099839
H	 1.8826476109	 2.0647199091	-0.7980593657	 0.106317
