18
gdb 98737	4.74447	0.77755	0.70288	4.5211	75.96	-0.2566	-0.0365	0.2201	1597.5439	0.144565	-439.097655	-439.087864	-439.086919	-439.133748	33.685	
C	 0.1718841482	 1.4246902211	-0.4073097787	-0.372949
C	-0.0053623684	-0.0104073469	 0.0823362623	-0.289544
C	-1.4602050103	-0.448700004	 0.1097021802	 0.386436
O	-2.3878478929	 0.2460972	-0.2294603978	-0.31998
N	-1.6578030808	-1.7303761915	 0.6581167521	-0.097889
C	-1.238401946	-2.9686017821	 0.0520265983	-0.25986
C	-2.7048810936	-2.609237328	 0.1783272807	-0.101862
C	-3.5249936805	-3.2853740445	 1.2274427898	 0.166137
O	-4.630179495	-3.721566481	 1.0409986461	-0.245811
H	 1.2303959692	 1.6986624507	-0.413830655	 0.112256
H	-0.2243458603	 1.5452093961	-1.4185024012	 0.133426
H	-0.3641645537	 2.1252126656	 0.2375413911	 0.136727
H	 0.5524904456	-0.7140698128	-0.5499106084	 0.121253
H	 0.4021914737	-0.1448762665	 1.0916341127	 0.135688
H	-0.828572496	-2.9460591251	-0.9553011496	 0.141614
H	-0.7967270024	-3.7078983255	 0.7158827878	 0.136112
H	-3.233341299	-2.3239920058	-0.7270777126	 0.133147
H	-3.0100606879	-3.3628310497	 2.2118488323	 0.085098
