11
gdb 130880	7.33158	0.92303	0.81982	2.8279	69.17	-0.2884	-0.1072	0.1812	1263.9522	0.064439	-451.507611	-451.500179	-451.499235	-451.540025	26.042	
O	-0.0227585717	-0.0079448443	-0.0006370324	-0.222841
C	 0.0057229193	 1.1935811576	 0.0084351423	 0.074461
C	 1.2617067988	 1.9874734076	 0.0018742117	 0.30976
N	 1.3463733901	 3.284043922	 0.0112157906	-0.316737
C	 2.7115824743	 3.4795961436	-0.0015345509	 0.191025
N	 3.412585848	 2.3597552536	-0.0165703603	-0.146353
O	 2.4499785822	 1.3691363785	-0.0148866125	-0.160324
C	 3.3258894996	 4.7550543421	 0.0027830373	 0.274005
C	 3.8403675133	 5.8402743934	 0.0065492728	-0.34743
H	-0.8964661758	 1.8331701842	 0.022489247	 0.130248
H	 4.2965846118	 6.8002515316	 0.0098512744	 0.214186
