23
gdb 81776	2.06985	1.66209	1.27585	1.4514	84.85	-0.2293	0.069	0.2983	1147.1094	0.203798	-388.270106	-388.260293	-388.259349	-388.30349	38.863	
C	-0.4120567676	 1.5341244151	 0.3799072847	-0.409875
C	-0.1138711635	 0.0475206957	 0.2098893578	-0.015583
C	 0.2638236105	-0.4711921706	-1.1850169079	-0.162318
C	 1.6065065135	 0.0871693437	-1.6155746392	-0.333245
C	 1.5805058155	-1.0320835831	-0.6351164672	 0.393584
O	 2.276811203	-2.1914117088	-0.9335956457	-0.463027
C	 1.2312217983	-0.5671013416	 0.795345331	 0.242453
C	 2.2273306987	 0.3711802262	 1.4765345681	-0.452346
C	 0.9314591409	-1.7654498372	 1.7010427007	-0.464846
H	 0.3747006402	 2.1689070241	-0.0380073626	 0.114094
H	-1.3469338834	 1.7947680753	-0.1283953063	 0.113553
H	-0.52611731	 1.7991891898	 1.4368219353	 0.111335
H	-0.9606183818	-0.5223323015	 0.6074514279	 0.064934
H	-0.4252863539	-0.8895836955	-1.9094899998	 0.081859
H	 1.9158001523	-0.2231821596	-2.6086325907	 0.116944
H	 1.9227590634	 1.091866306	-1.3475317215	 0.102038
H	 1.8234583104	-2.9315507734	-0.5150693745	 0.283464
H	 2.4761222015	 1.2355233918	 0.8556408301	 0.113104
H	 1.8325683724	 0.7476981187	 2.4272895375	 0.109183
H	 3.1619581691	-0.1582991323	 1.6929965888	 0.117543
H	 1.8457813319	-2.3199931149	 1.9421633561	 0.116333
H	 0.4848511248	-1.4367983556	 2.6456879909	 0.116468
H	 0.2248963137	-2.4603570622	 1.2305477065	 0.104351
