22
gdb 103424	2.27933	1.48809	1.27633	2.6259	81.18	-0.2359	0.0766	0.3125	1143.6839	0.193871	-404.309179	-404.299916	-404.298972	-404.342475	36.449	
C	 0.1261021878	 1.535175165	 0.1016853063	-0.396206
C	 0.0024574571	 0.0199406274	-0.1046260536	-0.2255
C	-1.4250665691	-0.526856597	-0.0181867462	 0.296194
C	-2.3541735957	 0.0427181394	-1.0909580106	-0.459427
C	-1.5540983231	-2.0606681899	 0.0448345196	-0.097467
N	-0.9016465756	-2.511738305	 1.2993737416	-0.368578
C	-2.3028165339	-2.0129230004	 1.3263841895	-0.08288
C	-2.1389087524	-0.490675959	 1.4174638744	 0.095404
O	-1.4178730496	-0.0236459411	 2.5243988082	-0.433929
H	 1.1768491541	 1.8412008897	 0.0755235084	 0.106401
H	-0.3960485839	 2.1000343017	-0.6772361418	 0.108166
H	-0.2871333641	 1.824688393	 1.0712844836	 0.138773
H	 0.4161797958	-0.2553521578	-1.085090048	 0.084033
H	 0.6156546512	-0.4988661771	 0.6386286057	 0.102867
H	-1.9564552489	-0.1386008071	-2.0964807474	 0.110893
H	-3.3463222552	-0.4199618986	-1.0390527304	 0.110052
H	-2.4859069528	 1.1222483204	-0.9714332923	 0.123778
H	-1.6716116515	-2.7431517359	-0.7895201128	 0.088206
H	-0.9350647587	-3.5292284613	 1.3234313407	 0.233391
H	-3.1036918964	-2.6372318725	 1.7035549285	 0.092518
H	-3.0798199878	 0.0635485993	 1.3842491029	 0.080732
H	-0.7063164074	-0.6664252731	 2.6535051337	 0.292577
