17
gdb 62170	2.23093	0.99711	0.78497	5.7689	67.7	-0.2835	-0.0072	0.2763	1447.6352	0.132512	-496.142701	-496.132764	-496.13182	-496.179543	33.148	
C	-0.046351611	 1.7395242496	-0.097777817	-0.39169
C	-0.0161987882	 0.2161503982	-0.0908554701	 0.099625
C	 0.4423038904	-0.3960931183	-1.41272392	-0.097268
O	 1.690647581	 0.1446201705	-1.8361554775	-0.182322
C	 2.8155784875	-0.5491183553	-1.5349713759	 0.184529
O	 3.9021272898	-0.1409815333	-1.8034509819	-0.266262
O	 0.9020895261	-0.2466950292	 0.9184171649	-0.19688
C	 0.4001016364	-0.6789580816	 2.0933203504	 0.172408
O	 1.0890268777	-1.0648765425	 2.9866904135	-0.265266
H	 0.9484193631	 2.1367800168	-0.3082750059	 0.162604
H	-0.7366732544	 2.1025633453	-0.8653459957	 0.127907
H	-0.3795458837	 2.1182163527	 0.872019627	 0.129877
H	-1.016556344	-0.1851316501	 0.1260719259	 0.094213
H	 0.5090656002	-1.4859139139	-1.310369231	 0.123509
H	-0.2810098191	-0.1633615385	-2.1990470715	 0.132037
H	 2.6043127734	-1.5145043722	-1.0403505475	 0.092177
H	-0.7068371253	-0.6407105984	 2.1255066423	 0.080803
