19
gdb 78541	2.30257	1.55319	1.22783	2.1862	75.3	-0.2066	0.0781	0.2847	1101.1503	0.156716	-422.934464	-422.92547	-422.924526	-422.967619	35.135	
C	-0.1779327376	 1.6000533462	-0.0293387754	-0.437861
C	 0.155402462	 0.1098214827	 0.0542981181	-0.081829
C	 1.4380723658	-0.6492720268	-0.2726441246	-0.226778
C	 2.7681898372	-0.1040012965	 0.3377123572	 0.398797
O	 3.9827964076	-0.6439337137	-0.0457579785	-0.453674
C	 2.6564617577	 1.1720803757	 1.1217876002	-0.374422
C	 2.1708352085	-0.1386840503	 1.7199617629	-0.189752
C	 0.8458371438	-0.7057604138	 1.1176585461	 0.360424
O	 0.2519199789	-1.8110102314	 1.7056509563	-0.451738
H	 0.4867781312	 2.1376611539	-0.7115869776	 0.127797
H	-1.1966116199	 1.7268788474	-0.4086781232	 0.11263
H	-0.1363219705	 2.0939117086	 0.9453272848	 0.127596
H	-0.6658363655	-0.5054466062	-0.3144245468	 0.097857
H	 1.4605076896	-1.4321646617	-1.0205824083	 0.098639
H	 4.3011783133	-0.1505902326	-0.8108656176	 0.283527
H	 3.6126915711	 1.4781857747	 1.5392667655	 0.114591
H	 2.0059772552	 1.9952090093	 0.8631949047	 0.109879
H	 2.595907955	-0.5523188225	 2.624852441	 0.101466
H	-0.3498744136	-1.4983301131	 2.3913531151	 0.28285
