17
gdb 94336	2.75721	1.23196	1.07358	4.0764	73.5	-0.2635	0.0046	0.2681	1169.0542	0.135264	-417.971231	-417.9626	-417.961656	-418.005022	31.327	
C	-0.3104367327	 1.4235625223	 0.0945666353	-0.397034
C	 0.1241149571	-0.018092974	-0.0518397833	 0.083517
O	 1.3700405053	-0.1714222152	-0.7938090815	-0.292351
C	 2.0298331521	-0.8357174115	 0.2979219938	-0.148189
C	 0.7780898055	-0.6929492467	 1.1557135522	 0.268476
N	 0.6443949649	-0.2546919427	 2.5258853487	-0.343093
C	 0.2185205069	-1.6304280636	 2.1679742709	-0.278549
C	-1.1975696299	-1.9011594262	 2.2274237389	 0.335633
N	-2.3300300101	-2.1334065635	 2.2401566903	-0.331078
H	 0.4652479137	 2.0189490372	 0.5834435933	 0.121927
H	-0.515206746	 1.8518641812	-0.8909152536	 0.130988
H	-1.2228634641	 1.481344703	 0.6957818634	 0.139421
H	-0.6686411256	-0.6228556453	-0.5111561619	 0.100256
H	 2.3264742916	-1.8626196209	 0.0489249764	 0.114572
H	 2.9096792227	-0.2827386319	 0.6547024539	 0.111091
H	 1.5330421245	-0.2876798476	 3.0216650611	 0.247679
H	 0.8447745442	-2.4649422046	 2.4733825221	 0.136734
