17
gdb 69717	3.7669	1.31698	1.19576	2.634	71.71	-0.2307	-0.0238	0.2069	1045.4423	0.134916	-421.783059	-421.775417	-421.774473	-421.815001	30.365	
O	-0.1668339846	 1.4047982405	 0.0091138005	-0.461485
C	-0.0838720885	 0.025620715	 0.0320387265	 0.400653
C	-0.3603173968	-0.8181439059	-1.1783992569	-0.370707
C	-1.234998075	-0.9725821628	 0.0511358491	-0.111412
C	-0.526044055	-1.7805914944	 1.1664055573	-0.144287
C	 0.65048954	-0.7496052414	 1.158098453	-0.106686
C	 1.6714471012	-1.860343188	 0.781012191	-0.380356
C	 0.4895317251	-2.865505827	 0.732238036	 0.393638
O	 0.412426145	-4.0345752997	 0.4950065719	-0.293336
H	 0.5118113047	 1.7429864557	-0.5857856086	 0.287203
H	-0.8466622124	-0.266877798	-1.977446187	 0.120077
H	 0.2989406245	-1.6094649193	-1.5239198111	 0.12162
H	-2.3041722692	-0.81192603	-0.0000719942	 0.103953
H	-1.1246237204	-1.9857455159	 2.0542545985	 0.095222
H	 0.8546001167	-0.1445168034	 2.0392670838	 0.087598
H	 2.2523733315	-1.746903588	-0.1385022793	 0.125663
H	 2.3604688332	-2.1138163476	 1.5939939395	 0.132641
