15
gdb 51981	3.41046	0.83489	0.72482	1.8953	65.51	-0.2664	-0.0381	0.2283	1487.6578	0.11171	-491.128051	-491.118988	-491.118044	-491.163627	30.634	
N	 0.539255072	 0.1850872505	 1.9105610575	-0.491852
C	-0.0106127884	-0.1825310692	 0.8311065132	 0.345537
C	-1.3250689225	-0.9443918678	 0.9008295861	-0.15933
O	-2.1174124869	-0.746303388	-0.2766788145	-0.198557
C	-3.175735585	 0.0983403926	-0.1968416393	 0.177497
O	-3.8340637472	 0.3815751692	-1.1477681272	-0.259314
N	 0.462804583	-0.019864136	-0.4819515539	-0.335748
C	 1.6485976818	 0.5710401681	-0.8489073006	 0.166721
O	 2.4791624307	 1.0097493769	-0.0868620107	-0.292813
H	 1.4398961895	 0.6292059279	 1.727159007	 0.259203
H	-1.129214449	-2.0191135262	 0.9610560616	 0.153662
H	-1.8544387367	-0.6348004566	 1.8054023034	 0.154577
H	-3.3485725515	 0.46634795	 0.831529583	 0.099859
H	-0.1640661797	-0.3093540203	-1.2203430973	 0.276228
H	 1.76444122	 0.5986571788	-1.9484267083	 0.104331
