21
gdb 89375	2.62627	1.37753	1.06707	1.255	78.27	-0.2467	0.0761	0.3227	1206.751	0.181005	-424.238259	-424.228897	-424.227952	-424.271695	36.167	
C	-0.0811989539	 1.4890904843	-0.0530202911	-0.48523
C	 0.1412773804	 0.0020049296	-0.0241855423	 0.347998
C	 0.3246927862	-0.7536435604	-1.3288508014	-0.287757
C	 0.7133464892	-2.1826167312	-0.9073377815	 0.12026
O	 1.5471443766	-2.7490229107	-1.9074390555	-0.436009
C	 1.4009827943	-2.0211326778	 0.4718512224	-0.321447
C	 0.7899618473	-0.7616752724	 1.0633791864	 0.35564
C	 1.3465850304	-0.1911896063	 2.3388978991	-0.484823
O	-0.6483264878	-0.7490383057	 0.9258770272	-0.344292
H	 0.7374038868	 1.9927944488	-0.5782869254	 0.121249
H	-1.0109907356	 1.7240452432	-0.5829379271	 0.127874
H	-0.1578754936	 1.9019258642	 0.9550014955	 0.127266
H	-0.5686007083	-0.731989467	-1.9605463347	 0.105535
H	 1.1506215469	-0.3150728117	-1.9019364163	 0.111715
H	-0.1972907922	-2.7811327941	-0.7860247245	 0.084004
H	 1.6776445806	-3.678304154	-1.6950735237	 0.281366
H	 1.2671144703	-2.8954018367	 1.1188870278	 0.095741
H	 2.4773295675	-1.8748181388	 0.3185241315	 0.105735
H	 2.4173235512	 0.0155378785	 2.2360340572	 0.120579
H	 0.8365238265	 0.7326712939	 2.6197222768	 0.128006
H	 1.2226679974	-0.905144286	 3.1608418895	 0.126591
