14
gdb 48530	3.3602	1.41047	1.23537	2.7668	67.63	-0.2617	-0.0562	0.2055	993.6144	0.100422	-436.639282	-436.632106	-436.631162	-436.671417	26.463	
O	-0.8773436205	 1.1359294616	 0.4672029884	-0.260763
C	 0.156663984	 0.847704529	-0.0852937959	 0.01867
C	 1.3731804737	 1.6668825573	 0.0034606191	 0.278979
C	 1.9714042847	 2.613554489	 0.9949526217	-0.129643
C	 3.3126851141	 1.908209637	 0.7842386926	-0.193882
N	 2.7760911953	 1.3647128704	-0.5367218623	-0.256523
C	 2.6412479382	 2.6448580306	-1.2985198245	 0.435496
O	 3.1521284123	 2.9835026592	-2.3144388883	-0.298923
C	 1.573082215	 3.1528000149	-0.3817256347	-0.243629
H	 0.2697280517	-0.0641614363	-0.7073508159	 0.105994
H	 1.5095241226	 3.003580362	 1.8934743477	 0.133815
H	 4.2212305688	 2.5096257095	 0.681556111	 0.131087
H	 3.4737631323	 1.0866844869	 1.4841170921	 0.135114
H	 0.8124960277	 3.9094234988	-0.5173427809	 0.144207
