20
gdb 61830	2.4741	1.13242	0.84463	2.6703	78.05	-0.2606	0.0222	0.2828	1392.0565	0.168904	-440.265117	-440.25512	-440.254175	-440.30113	36.004	
C	 0.0642977355	 1.4756621714	-0.0239638989	-0.400686
C	 0.0129115726	-0.0481724856	 0.0270903751	 0.103878
O	 0.6763761344	-0.5289776822	 1.2242456466	-0.206794
C	 2.0173600334	-0.6247787613	 1.1795465966	 0.122063
N	 2.662973658	-0.9828280019	 2.2047250864	-0.446394
C	-1.3946425109	-0.586845603	 0.0733117083	-0.052932
C	-2.0288847454	-1.1367894422	-1.1918213776	-0.318662
C	-1.605654488	-2.0706745064	-0.1013418124	 0.113495
O	-0.4993692622	-2.8818824865	-0.3660263114	-0.426514
H	 1.0961947531	 1.837331155	-0.0643633724	 0.118459
H	-0.4623776778	 1.8403096067	-0.9109564309	 0.12749
H	-0.41220911	 1.9015483633	 0.8640546073	 0.134081
H	 0.5323751188	-0.4759854359	-0.8384403608	 0.093061
H	 2.4441485818	-0.3861377223	 0.1947383145	 0.086185
H	 3.6570222771	-1.0248241796	 1.9897191286	 0.227746
H	-2.0474928493	-0.0799991132	 0.7784004632	 0.092292
H	-3.0869314253	-0.9708845538	-1.3579439945	 0.117688
H	-1.4220808377	-1.1409861815	-2.0911268725	 0.124468
H	-2.3867707045	-2.5375780562	 0.4975643474	 0.090904
H	 0.0217202465	-2.9230467749	 0.4446763874	 0.300174
