17
gdb 127085	2.68916	1.39499	1.11152	3.2424	71.17	-0.2196	0.0021	0.2217	1129.7994	0.136306	-451.30493	-451.295983	-451.295039	-451.340095	32.122	
C	 1.1373898828	-0.3379425994	-0.2552809638	-0.335851
N	-0.0301687975	-0.1609653707	 0.6133034693	-0.186282
C	-0.2312446979	 1.2341303008	 1.0105754312	-0.334534
C	-1.1904811774	-0.7897031149	 0.1448270163	 0.254307
C	-2.145070062	-0.5182946667	-0.81868838	 0.324979
O	-2.1959698893	 0.550648447	-1.6412021559	-0.439618
N	-3.0727844884	-1.4983560338	-0.8370890649	-0.280495
N	-2.7575809827	-2.39922624	 0.0690349414	-0.1288
N	-1.6400785536	-1.9741217749	 0.6567737848	-0.207478
H	 2.0309866881	 0.0129611979	 0.27081995	 0.122585
H	 1.2677115395	-1.3984462691	-0.4837816187	 0.127236
H	 1.0534525002	 0.2150303335	-1.2046811	 0.120297
H	-0.4461725145	 1.8981004032	 0.1590021999	 0.12648
H	-1.0628918216	 1.2958192946	 1.7164831443	 0.129762
H	 0.6733917307	 1.5941009627	 1.5107669393	 0.12138
H	-2.9956860608	 0.4519021779	-2.1737992467	 0.305962
H	-1.2199847757	-2.5085823182	 1.4017528437	 0.28007
