19
gdb 70552	2.66112	1.52969	1.16556	4.0084	76.46	-0.2168	0.0354	0.2522	1100.5047	0.160956	-419.227931	-419.219733	-419.218789	-419.260398	32.404	
C	-0.0433775907	 1.4729249905	-0.0295138204	-0.445542
C	-0.0336204968	-0.0410824918	 0.0373831665	 0.33446
C	-0.8526804101	-0.7400887883	 1.1076886651	-0.327848
C	 0.6633890139	-0.7381041645	 1.1721965504	-0.039904
N	 1.3560079725	-1.943434838	 0.8041034179	-0.306879
C	 2.1424041325	-1.7908405191	-0.4176023239	-0.289121
C	 1.2196635329	-1.448400808	-1.5874187199	 0.416835
O	 1.4176439365	-1.8273298109	-2.7245245111	-0.376411
N	 0.1367231305	-0.6886344519	-1.2339242091	-0.351778
H	 0.8776756657	 1.8508248627	-0.4855929984	 0.125497
H	-0.8889915974	 1.8311501812	-0.6288239951	 0.119619
H	-0.1397187401	 1.9088789748	 0.968874386	 0.12085
H	-1.40878499	-0.1228671848	 1.8051635063	 0.108947
H	-1.3068875488	-1.687044054	 0.8429052612	 0.123765
H	 1.1362938079	-0.087773293	 1.9095052031	 0.08225
H	 1.9087755996	-2.3098093161	 1.5677999689	 0.228659
H	 2.9242762708	-1.0106914993	-0.3584323166	 0.10163
H	 2.6339924132	-2.7328953101	-0.6671725929	 0.133077
H	-0.5014991421	-0.4698261095	-1.986640158	 0.241894
