18
gdb 30255	2.73767	1.53748	1.04982	3.3537	80.65	-0.1787	0.0439	0.2227	1147.3166	0.150015	-398.132114	-398.123837	-398.122893	-398.16512	31.118	
C	-0.2882723954	 1.5386600018	 0.059022796	-0.391796
C	-0.0267267721	 0.0371631128	 0.0035430631	-0.171238
C	 1.1316242863	-0.439781135	-0.9638208812	-0.185762
N	 1.804140446	-0.9878376381	 0.2325087034	-0.002001
C	 2.7932977499	-1.590402087	 0.9271670991	-0.045772
N	 2.477045678	-1.5995068341	 2.2177548867	-0.312562
C	 1.2589219319	-0.9731417709	 2.3575434009	 0.10722
N	 0.7036923974	-0.7725001453	 3.6288402647	-0.59975
C	 0.8286717267	-0.581879259	 1.1082095592	 0.281093
H	 0.6412065634	 2.093050699	 0.2217665	 0.12585
H	-0.7473761583	 1.8934236131	-0.8702843245	 0.114567
H	-0.9682353858	 1.7804348258	 0.8818626648	 0.127478
H	-0.9621821427	-0.49950614	-0.1907927299	 0.088565
H	 0.8607295921	-1.1986933872	-1.7020857434	 0.126495
H	 1.6898668429	 0.3680377035	-1.4447802047	 0.127364
H	 3.6907976684	-2.0037707899	 0.4956912139	 0.127552
H	 1.1773319303	-1.3604588824	 4.3039191326	 0.245757
H	-0.2911153391	-0.956409777	 3.6594754992	 0.236938
