21
gdb 114674	3.26282	1.26673	1.19947	1.6277	81.06	-0.243	0.0121	0.2551	1155.9751	0.184799	-387.093684	-387.085877	-387.084933	-387.125901	31.491	
C	-0.1035437414	 1.6237245242	-0.0204663793	-0.380658
C	-0.0734245812	 0.091597344	-0.0130797866	-0.200678
C	 0.7421362629	-0.503193536	-1.1630265142	 0.057974
C	 2.2870367107	-0.2889540728	-1.0973974689	-0.244748
C	 2.7970452213	-1.7583869725	-1.2785630672	 0.021649
O	 1.8097427006	-2.2931883756	-2.170132124	-0.249023
C	 0.6877725046	-2.0668675971	-1.3078707816	-0.013585
C	 1.1632503416	-2.6850016308	 0.0021799562	-0.076961
C	 2.4827879043	-2.4944292037	 0.0194106969	-0.079537
H	 0.9036674885	 2.0437083686	 0.0717715515	 0.118182
H	-0.5356312986	 2.0060478574	-0.9520214133	 0.114267
H	-0.702747095	 2.0125273548	 0.8088199267	 0.110898
H	 0.3311353003	-0.2636318667	 0.9424005653	 0.097331
H	-1.1035477267	-0.2865046181	-0.0709280011	 0.090247
H	 0.3693888541	-0.0929062042	-2.1079205397	 0.075908
H	 2.6423274841	 0.3427655307	-1.9146515811	 0.103416
H	 2.620705921	 0.1516860056	-0.1538753745	 0.096892
H	 3.7968454782	-1.8709616535	-1.6960231731	 0.0775
H	-0.2268848442	-2.4610350076	-1.75053357	 0.074471
H	 0.5273539922	-3.0928051921	 0.7758003263	 0.104405
H	 3.1894017225	-2.7017123145	 0.8116753717	 0.102051
