12
gdb 130811	8.28305	0.6802	0.62859	5.9568	78.91	-0.266	-0.0792	0.1868	1618.4958	0.078753	-431.663413	-431.655767	-431.654823	-431.697055	25.822	
O	-0.0936935741	-0.014275104	-0.0007848646	-0.226268
C	 0.0070270451	 1.1914763216	 0.0071429224	-0.000167
C	 1.2566679482	 1.9050509022	-0.0009568004	 0.220228
C	 2.2859541584	 2.5385492929	-0.0071746247	 0.009665
C	 3.4881277313	 3.2825475163	-0.0144946023	 0.146824
N	 4.6871382167	 2.6953557896	-0.03208585	-0.245648
N	 5.515032534	 3.7524845801	-0.0329550931	-0.171481
C	 4.8146913773	 4.9100285271	-0.0163492745	-0.00639
N	 3.526311033	 4.6551349748	-0.0042361094	-0.285754
H	-0.8846747345	 1.8499997161	 0.02193903	 0.105531
H	 6.5119753296	 3.6043557098	-0.0449979813	 0.29489
H	 5.2796494951	 5.8842383036	-0.0138681121	 0.158571
