18
gdb 19693	4.66856	1.69764	1.57712	1.1264	71.08	-0.2409	0.0876	0.3285	880.7928	0.154741	-347.742201	-347.735235	-347.734291	-347.773462	27.039	
C	 0.0275742828	 1.2709032981	 0.2549554667	-0.241083
O	 0.0086516185	-0.0609592439	-0.2075478967	-0.250402
C	-1.2525529598	-0.6679979486	-0.0991481537	 0.185852
C	-1.3694168771	-2.0873999096	-0.6104563007	-0.120797
C	-0.9860808241	-3.028530744	 0.5382321408	-0.058648
C	-0.5883625803	-2.1597308364	 1.7304707148	-0.223715
C	-1.7354611788	-1.2146944444	 1.2825985366	-0.120249
C	-2.3663034304	-2.4222400105	 0.4824894828	-0.085846
H	 1.0363880347	 1.6589739444	 0.0950649937	 0.125852
H	-0.6867760085	 1.9024316042	-0.2969787645	 0.102758
H	-0.2108204081	 1.3415231868	 1.3269521838	 0.106128
H	-2.0290374429	-0.027207658	-0.5456164701	 0.060246
H	-1.3727370913	-2.4236582744	-1.6389071983	 0.085498
H	-0.7047046551	-4.0527009845	 0.3294684283	 0.083994
H	-0.8251097862	-2.6529191642	 2.6770121451	 0.093365
H	 0.4212317066	-1.738692603	 1.7597960242	 0.10108
H	-2.2511508969	-0.5717620233	 1.9924998871	 0.06621
H	-3.3577043731	-2.8457554989	 0.43288796	 0.089756
