14
gdb 127450	4.06041	1.11089	0.87709	6.7171	72.66	-0.243	-0.0221	0.221	1227.4168	0.10162	-432.901158	-432.892721	-432.891777	-432.93563	29.53	
C	-0.0416430486	 1.398618255	-0.0507774304	-0.328112
N	-0.0066979693	-0.0492743689	 0.0132027646	-0.017622
N	-0.0591201515	-0.7897973349	-1.1132467605	-0.323061
C	 0.0252534106	-2.0518203274	-0.6833810338	 0.277295
C	 0.1371931127	-2.1367057619	 0.7263492759	-0.473238
C	 0.1136109381	-0.8172951105	 1.1242466254	 0.471951
O	 0.1833465677	-0.1986254277	 2.3192267289	-0.430314
C	-0.0052779029	-3.1387380288	-1.6008833982	 0.240535
N	-0.0258737728	-4.0510714724	-2.3126021251	-0.342589
H	 0.9547297077	 1.822330331	 0.1078419604	 0.151492
H	-0.3997880106	 1.6698770384	-1.042781181	 0.170017
H	-0.7190592447	 1.7876845118	 0.7121493988	 0.15521
H	 0.2172196645	-3.0195790912	 1.3374506491	 0.128055
H	 0.235423579	-0.8609151224	 3.0157557358	 0.320381
