22
gdb 111406	1.98776	1.46496	0.97559	2.5588	81.45	-0.2265	0.0691	0.2956	1295.088	0.19412	-404.29587	-404.286345	-404.2854	-404.330345	35.68	
C	-0.2713957148	 1.8199374448	 0.3627998643	-0.383876
C	-0.4806201227	 0.3023844537	 0.3217137865	-0.1954
C	 0.4426818994	-0.430588162	 1.284067737	 0.062555
C	 0.4905755015	-1.9922200737	 1.3470468751	-0.023615
C	-0.3871297864	-2.8471691417	 0.4500379478	-0.101302
O	-1.7209531577	-2.7379418654	 0.9334134867	-0.421292
C	 1.9750750385	-1.8632517742	 1.0145366034	-0.057344
C	 2.2082582715	-1.0879413241	-0.2192455971	-0.247235
N	 1.9377331899	-0.3433830709	 1.0230912318	-0.140802
H	 0.7617923451	 2.0788303363	 0.1121087177	 0.132821
H	-0.9320087185	 2.3307293008	-0.3443709333	 0.107264
H	-0.4781074978	 2.2185862662	 1.3620463936	 0.115278
H	-1.5114016807	 0.0447903716	 0.5913107425	 0.115233
H	-0.3419192419	-0.0575632964	-0.7045451069	 0.087312
H	 0.2864235591	-0.0240064444	 2.2877867826	 0.082832
H	 0.338945971	-2.3300705226	 2.3756893452	 0.088328
H	-0.3196102901	-2.5181900682	-0.5970822244	 0.083769
H	-0.0321400487	-3.8905787158	 0.4860388816	 0.087566
H	-2.296855264	-3.2376920464	 0.347478336	 0.287735
H	 2.7719873016	-2.4081115311	 1.5113141157	 0.092076
H	 3.2372778029	-0.9782550213	-0.5484497386	 0.119114
H	 1.4830788229	-1.0903099554	-1.0278106171	 0.108986
