21
gdb 113589	4.06606	0.92602	0.85085	2.4535	79.4	-0.2295	0.0755	0.305	1419.8377	0.182723	-424.20967	-424.200513	-424.199569	-424.244546	34.017	
O	-0.1886679654	 1.3559177018	-0.8195947151	-0.41588
C	 0.0098729469	 0.1871426715	-0.0341287829	-0.105208
C	-1.3229673824	-0.4852187151	 0.1493563099	-0.079171
C	-1.8926731557	-1.38658373	-0.9354426354	-0.347757
C	-1.4359753562	-1.9573324503	 0.3837706853	 0.445701
C	-0.2735182218	-2.9542209979	 0.4977934231	-0.30888
C	-0.849826371	-4.0649262029	 1.412011835	-0.214044
C	-2.3549849626	-3.7616315283	 1.3998736904	-0.089534
O	-2.4332561967	-2.3462305545	 1.3035822643	-0.283728
H	 0.6506761875	 1.8223758656	-0.8760620378	 0.283986
H	 0.7148075308	-0.5034273646	-0.5251555206	 0.079505
H	 0.4375466289	 0.4420946003	 0.949346857	 0.087205
H	-2.0533237781	 0.1143542523	 0.6850534363	 0.101551
H	-2.9603590917	-1.3355985684	-1.1159249744	 0.116534
H	-1.2819858198	-1.5635348517	-1.8161399776	 0.106125
H	 0.0063791028	-3.3430925721	-0.484744248	 0.10811
H	 0.6198891633	-2.5032803799	 0.9382108266	 0.108596
H	-0.6170032701	-5.0726724768	 1.0597334949	 0.101381
H	-0.4593463439	-3.9646358824	 2.4284520306	 0.109952
H	-2.8444406802	-4.2378586592	 0.5349134441	 0.089362
H	-2.8798508046	-4.0663096575	 2.3084798143	 0.106194
