21
gdb 83308	2.36908	1.48931	1.25505	2.5594	81.56	-0.243	-0.0157	0.2273	1118.0478	0.183142	-387.103184	-387.094363	-387.093419	-387.136975	33.11	
C	-0.1668696137	 1.6828046727	 0.0943306361	-0.426133
C	 0.0559432887	 0.1881337306	-0.0172023277	 0.002758
C	 1.3513517688	-0.4820664343	-0.4123890568	-0.058648
C	 2.672475009	 0.2705344964	-0.2885389694	-0.226205
C	 2.7877832448	 0.7340098279	 1.1866202389	-0.247427
C	 1.7626225395	-0.0960767184	 1.9924547336	-0.088716
C	 1.0508231179	 0.6693000986	 3.0901492942	 0.160236
O	 1.2158543862	 1.8332638076	 3.3552424118	-0.250736
C	 0.7818358557	-0.6996747195	 0.9763408855	-0.092477
H	 0.688452394	 2.2241794326	 0.499093997	 0.136309
H	-0.3879648344	 2.104160753	-0.8927885373	 0.115076
H	-1.0225432857	 1.9000264359	 0.7428694173	 0.121633
H	-0.8116314533	-0.3165324109	-0.4389778184	 0.084808
H	 1.2996009092	-1.2714453843	-1.1554338338	 0.080949
H	 3.4882957117	-0.4165440414	-0.5381972984	 0.100782
H	 2.7499319782	 1.1122045371	-0.9856727459	 0.102689
H	 3.8003440158	 0.596202732	 1.57490843	 0.102284
H	 2.5622853335	 1.7956327069	 1.3038872326	 0.133946
H	 2.2522941258	-0.9440911861	 2.4942219208	 0.092504
H	 0.3151561372	 0.0568262708	 3.6619998342	 0.073207
H	 0.3093410712	-1.637841727	 1.2477266654	 0.08316
