16
gdb 128165	1.99619	1.81575	1.00311	0.9971	67.35	-0.2092	0.0513	0.2606	1139.5702	0.12544	-471.209698	-471.200859	-471.199915	-471.243181	32.439	
C	-0.2551811732	 1.4954268904	 0.0478799488	-0.325051
N	-0.096981304	 0.036761578	-0.0360437289	-0.42539
C	 0.6643854522	-0.4232179446	-1.1388613328	-0.049617
C	 0.1388793219	-1.2365113697	-2.1264568571	 0.449269
O	-1.098970143	-1.7390361582	-2.2393827766	-0.429097
N	 1.1047303507	-1.482033077	-3.0273839874	-0.291149
N	 2.2881233129	-0.8602067695	-2.6920387228	-0.351186
C	 2.0057737117	-0.2339704025	-1.5642201963	 0.376568
O	 2.9287691333	 0.5006232727	-0.906373442	-0.435485
H	 0.6993764542	 2.0363907097	 0.1109998088	 0.125458
H	-0.7879184814	 1.8495537647	-0.8395349274	 0.125256
H	-0.8572039519	 1.740570721	 0.9283991202	 0.113683
H	 0.2818443826	-0.3109536982	 0.8388042889	 0.23249
H	-1.5702057292	-1.4147757237	-1.455331243	 0.30631
H	 1.0506245339	-2.0402152551	-3.8599581743	 0.276981
H	 3.7438514693	 0.454946602	-1.4227599781	 0.300959
