19
gdb 35640	2.32877	1.44822	1.22583	0.826	87.72	-0.2339	0.0164	0.2503	1132.9295	0.159675	-348.723286	-348.714705	-348.71376	-348.757083	32.837	
C	 0.3655237453	-1.2327361211	 0.0642200168	-0.494454
C	 0.1777786021	-0.0455652268	 0.037761242	 0.354447
C	-0.0596912405	 1.3999625373	-0.0064971936	-0.206751
C	-0.9698232152	 1.8714396907	 1.1551366593	-0.269951
C	-0.4388714526	 1.638226245	 2.5454613562	-0.056871
C	 0.7704304763	 1.9344558492	 3.0157039023	-0.030047
C	 1.9403597975	 2.5771952879	 2.3250713819	-0.306266
C	 2.0295939769	 2.6531444312	 0.8266034935	-0.023593
C	 1.2463521278	 2.1657281231	-0.1330385675	-0.081439
H	 0.5384596472	-2.2798025651	 0.092013227	 0.192572
H	-0.6232985647	 1.5985600896	-0.9292101036	 0.10608
H	-1.1687149707	 2.9398056965	 0.9995986565	 0.113306
H	-1.9321489658	 1.3604887561	 1.0517597427	 0.108316
H	-1.1444586632	 1.1907994662	 3.2415956562	 0.084852
H	 0.9629794133	 1.7143999324	 4.0646110846	 0.084768
H	 2.0543081216	 3.5986829475	 2.7271865181	 0.121713
H	 2.8566708112	 2.0716791343	 2.6698111622	 0.124152
H	 2.9255873197	 3.1765860194	 0.4937096996	 0.087876
H	 1.5717420438	 2.3124081665	-1.1603008341	 0.091288
