14
gdb 132568	3.13627	1.40269	0.97503	1.2577	67.44	-0.2463	-0.045	0.2013	1108.5728	0.101008	-478.041197	-478.033504	-478.03256	-478.074207	28.16	
C	-0.0635317026	 1.5169759858	 0.0184322422	-0.487756
C	-0.0004961075	 0.0183943416	-0.0085353431	 0.207363
N	 0.0121039403	-0.606689516	-1.1869388184	-0.332157
C	 0.0686825244	-1.936943444	-1.1617202541	 0.446148
O	 0.0798176021	-2.5345715435	-2.3630713985	-0.392284
N	 0.1147587702	-2.7288394804	-0.0888631277	-0.347821
C	 0.102191404	-2.1043896978	 1.0908629611	-0.090808
C	 0.0449049614	-0.7275284237	 1.1708690256	 0.186388
F	 0.0326596876	-0.1087778881	 2.357306765	-0.073213
H	 0.8049761726	 1.9332727915	 0.5396897632	 0.146586
H	-0.0925873457	 1.9001065992	-1.0015380634	 0.15077
H	-0.9505926471	 1.8590643405	 0.5619328337	 0.146566
H	 0.1219976545	-3.4847215777	-2.1923783165	 0.306675
H	 0.1384405658	-2.7116585672	 1.9915092509	 0.133544
