13
gdb 7718	3.44929	2.07459	1.34564	1.987	56.65	-0.2784	-0.0285	0.2499	844.6142	0.096156	-435.768775	-435.762058	-435.761114	-435.800243	24.326	
N	-0.1307443462	 1.3197600896	-0.2157370211	-0.48369
C	-0.067166954	 0.0994825933	 0.0772699471	 0.400897
C	-1.2467275759	-0.8322997569	-0.0305258782	-0.173174
O	-1.2293108915	-1.7827733745	 1.015275704	-0.226583
C	-0.0797070199	-2.5881057078	 0.941783484	-0.217205
C	 1.2214351257	-1.8025181251	 0.8655419924	 0.390687
O	 2.2968875299	-2.2685934922	 1.0889598687	-0.289233
O	 1.1213312223	-0.4773935285	 0.5067306395	-0.224471
H	 0.7794363961	 1.7717650046	-0.1069469101	 0.239967
H	-2.1631581285	-0.2496293001	 0.0541748406	 0.161032
H	-1.2355325211	-1.3302479962	-1.0151029759	 0.122521
H	-0.0416211588	-3.2071608491	 1.8399475006	 0.163813
H	-0.1078202782	-3.2608929171	 0.0672739583	 0.135439
