17
gdb 33460	2.75496	1.39298	1.04707	3.154	74.1	-0.2511	0.0206	0.2718	1146.9909	0.133985	-421.741344	-421.732741	-421.731797	-421.7752	31.566	
C	 0.9742936128	-1.0761652454	-0.5099458892	-0.407327
C	 0.5197383318	 0.0050659094	-0.2459317259	 0.27721
C	-0.0649198543	 1.3014654846	 0.0042581191	 0.217093
C	-0.2702150495	 1.7803633753	 1.3858827864	-0.218808
O	 0.797854921	 2.2876065011	 0.5870809821	-0.271136
C	-0.9478767569	 1.8110584877	-1.1246218291	 0.03458
C	-2.2364960228	 1.0106586407	-1.4197070712	-0.289394
C	-2.9547006437	 2.3335242837	-1.0867629313	-0.066569
O	-1.7024515936	 2.9840015324	-0.7669100055	-0.282922
H	 1.390835598	-2.0289721488	-0.7270048247	 0.200457
H	-1.0793407102	 2.48245961	 1.5687235015	 0.134318
H	 0.0275935052	 1.1418290353	 2.2153160598	 0.118777
H	-0.312985091	 2.0004561976	-1.9998161757	 0.097284
H	-2.3442493418	 0.6489516917	-2.4421665439	 0.118922
H	-2.4263788498	 0.1910611235	-0.7251186326	 0.119822
H	-3.4557992643	 2.8225094512	-1.9301344327	 0.110005
H	-3.636465651	 2.31513246	-0.228946247	 0.107688
