19
gdb 90551	4.49577	1.00174	0.92498	4.7554	79.59	-0.2234	0.0271	0.2504	1305.6839	0.159421	-419.180778	-419.172237	-419.171293	-419.214892	31.225	
C	-0.0457872483	 1.6565452309	 0.2846940439	-0.327419
N	 0.0431220455	 0.223446574	 0.1201259288	-0.067059
C	-1.203356345	-0.5706514491	 0.2051322865	-0.182367
C	-0.4835572836	-1.5985221099	 1.1088476048	-0.035274
C	 0.6959362342	-0.5768881555	 1.1767648166	-0.020042
C	 1.6299592632	-1.6710600672	 0.5938410398	-0.171081
N	 0.4379389646	-2.5180845007	 0.4434975387	-0.031927
C	 0.3019252069	-3.7642914692	-0.0599315244	 0.129621
O	 1.2046962526	-4.4174288048	-0.5415468492	-0.33075
H	 0.958265942	 2.0932474636	 0.2881588033	 0.125577
H	-0.5930109182	 2.0894487681	-0.559138074	 0.127727
H	-0.5590770049	 1.9657971968	 1.2155329893	 0.090911
H	-2.0063546311	-0.0584059088	 0.7592755097	 0.092976
H	-1.5960317656	-0.9215088552	-0.7550141795	 0.112387
H	-1.0245655754	-2.0085264083	 1.9626567595	 0.0963
H	 0.9976005587	-0.0464290077	 2.0821579672	 0.079671
H	 2.1216787208	-1.4071932751	-0.345445913	 0.130354
H	 2.3587204223	-2.0924385169	 1.2957188782	 0.116997
H	-0.7439096188	-4.1287569848	 0.0233687239	 0.063398
