19
gdb 48788	2.71383	1.44466	1.14604	2.9897	81.46	-0.2433	-0.0239	0.2194	1121.2722	0.15867	-385.859146	-385.850952	-385.850008	-385.891821	31.743	
O	-0.1504652067	 0.1566339939	-0.712898881	-0.280877
C	 0.0694181796	 0.9977807917	 0.1313120299	 0.054674
C	 1.219175119	 1.9111354197	 0.1190072331	 0.178971
C	 2.0730410106	 2.0781414635	-1.1217075057	-0.32165
C	 2.7136409887	 1.4409451087	 0.055439873	-0.073428
C	 3.087966124	 2.4646574233	 1.1360532845	-0.315254
C	 1.6193980543	 2.9395308953	 1.1644180696	 0.293586
C	 1.1111041487	 4.3459166983	 1.3026547959	-0.31863
C	 0.8486471192	 3.3261946171	 2.3910142118	-0.341874
H	-0.6034406072	 1.1082485743	 1.0108921438	 0.065912
H	 1.7982529999	 1.4074152525	-1.9284617905	 0.144444
H	 2.34985337	 3.0863224765	-1.419067941	 0.116571
H	 3.0289191306	 0.4052622553	 0.037442804	 0.113158
H	 3.3951669935	 1.9966385305	 2.0747474223	 0.112541
H	 3.8418682844	 3.2035211044	 0.8433153508	 0.10409
H	 1.8329555678	 5.130937509	 1.5036132969	 0.115105
H	 0.2757420435	 4.6542357663	 0.6820781221	 0.116442
H	-0.1665661335	 2.9629296816	 2.5102062144	 0.120367
H	 1.3961627538	 3.4168780779	 3.3239056761	 0.115851
