17
gdb 14492	3.55741	2.03286	1.53916	4.0434	72.74	-0.2987	0.0296	0.3282	854.2972	0.143217	-326.691951	-326.684828	-326.683884	-326.722971	27.779	
C	-0.155167346	 1.5550522964	-0.0119816315	-0.480326
C	 0.0106704434	 0.031381196	 0.0079846121	 0.209779
C	-1.3097187785	-0.5678525332	-0.206721098	 0.224775
N	-2.3717860496	-0.9924942542	-0.3791585324	-0.353254
C	 1.202434771	-0.66648104	-0.7570764566	-0.065385
C	 2.156423291	-0.1348689295	 0.3521180811	-0.247447
C	 0.9036503775	-0.6745661402	 1.1019563057	-0.065331
C	 0.9829713835	-1.9086501658	 0.1557897881	-0.240855
H	 0.7874592893	 2.0809284498	 0.1395404435	 0.12796
H	-0.5738456825	 1.8764879417	-0.9703078426	 0.140127
H	-0.8500812927	 1.8693032276	 0.7724732786	 0.140092
H	 1.357096179	-0.6520666953	-1.8363836315	 0.087462
H	 3.0705800402	-0.7141368524	 0.4965044281	 0.103259
H	 2.3685104863	 0.932497285	 0.3909003264	 0.101469
H	 0.7122946961	-0.6694979399	 2.1754519361	 0.087456
H	 0.0703798348	-2.4868690834	 0.0065957383	 0.131374
H	 1.8518484871	-2.5549140926	 0.2926275045	 0.098845
