29
gdb 57518	2.29407	0.99307	0.98385	0.006	98.85	-0.2882	0.0649	0.353	1527.9867	0.271892	-354.773656	-354.761677	-354.760733	-354.809384	46.961	
C	-1.1122809783	 1.012150462	-1.4648772099	-0.400873
C	-0.8989684158	-0.4136087593	-0.9159990488	 0.248099
C	-0.5607481498	-0.3353204647	 0.583859048	-0.404423
C	-2.2381404281	-1.1700568976	-1.0635263966	-0.390741
C	 0.1429096269	-1.2130086974	-1.7587459425	-0.20089
C	 1.6882759578	-1.0071083442	-1.6938170654	 0.248101
C	 2.300779049	-1.6358724771	-0.4253326631	-0.400874
C	 2.2709468239	-1.7611011865	-2.9101019727	-0.390741
C	 2.1266767255	 0.4652894519	-1.7935529543	-0.404423
H	-0.2311144042	 1.6454143478	-1.347430715	 0.11249
H	-1.3690764683	 0.9892194195	-2.529905993	 0.104764
H	-1.9393241682	 1.5012452517	-0.9376753972	 0.103454
H	-1.3965891202	 0.111767086	 1.1343379622	 0.103845
H	-0.3801959906	-1.3282043275	 1.0085744701	 0.109411
H	 0.3205366685	 0.282446953	 0.7776976316	 0.113727
H	-2.5184035892	-1.2780860505	-2.1172764831	 0.106396
H	-2.17791033	-2.1741998935	-0.62960455	 0.106436
H	-3.0476290921	-0.6337366389	-0.5563071065	 0.104051
H	-0.024096903	-2.2788177941	-1.5499198517	 0.083807
H	-0.1559511473	-1.0773772018	-2.807428289	 0.083807
H	 2.0179159049	-2.6905138247	-0.33326637	 0.104765
H	 3.3949053898	-1.5916650647	-0.471040554	 0.103455
H	 1.9919961843	-1.1262980415	 0.4891381324	 0.11249
H	 1.9284591457	-1.320512588	-3.8528653571	 0.106436
H	 3.3659310037	-1.7273900164	-2.9026360061	 0.104051
H	 1.96950287	-2.8145302986	-2.9050519963	 0.106396
H	 1.8437613347	 1.0422046433	-0.9086793602	 0.113727
H	 3.2172854948	 0.5269075837	-1.8847672271	 0.103844
H	 1.6944778755	 0.955795098	-2.6718520447	 0.109412
