14
gdb 27442	2.60962	1.78326	1.17543	3.2025	74.78	-0.2415	-0.0778	0.1637	999.6569	0.10346	-429.069384	-429.061923	-429.060979	-429.101314	28.183	
N	 0.0820530921	 1.2562404263	 0.4485389263	-0.519516
C	-0.0783841497	-0.0285381348	 0.0376524966	 0.412412
N	-1.2575663364	-0.569876561	 0.1100065684	-0.340987
C	-1.4696704828	-1.921654663	-0.0928260115	 0.282637
N	-2.4843640096	-2.4624080932	-0.6436592922	-0.512894
C	-0.4724168823	-2.8286436741	 0.5555984789	 0.021148
N	 0.7928558337	-2.7756623682	 0.3789440646	-0.195751
C	 1.377651294	-1.8024482305	-0.4062970369	 0.086715
N	 1.092589619	-0.5543705009	-0.5128247066	-0.28257
H	 0.8998486926	 1.7496470273	 0.134500353	 0.271633
H	-0.7462121697	 1.7815238008	 0.6728022388	 0.270205
H	-3.0898986379	-1.7342433873	-1.0325444273	 0.220375
H	-0.8640795061	-3.5915910715	 1.2305544187	 0.149068
H	 2.2719294434	-2.1476871798	-0.9253626208	 0.137524
