15
gdb 18139	3.3983	1.94971	1.547	4.3023	64.75	-0.2618	-0.003	0.2588	840.4784	0.118691	-362.625468	-362.618246	-362.617301	-362.656923	26.75	
C	-0.0713355821	 1.536309134	-0.107983259	-0.423744
C	 0.0489072308	 0.0360769136	 0.0411292247	-0.024215
C	 1.3121670579	-0.7338403835	-0.1600135801	 0.077783
O	 2.4569494434	 0.012213093	 0.295233037	-0.28357
C	 1.9784342079	-0.0689763219	 1.6586521951	-0.014437
C	 1.9594121672	 1.211601636	 2.3740559566	 0.283561
N	 1.9484331241	 2.1991810754	 2.9739625167	-0.321086
C	 0.6655757904	-0.714947285	 1.2126794952	-0.166154
H	 0.8814192297	 2.034009251	 0.0797416253	 0.150979
H	-0.3815284938	 1.7855417465	-1.1279159366	 0.12094
H	-0.8142340138	 1.9467572197	 0.5822019921	 0.130635
H	-0.8113387423	-0.5240235498	-0.3237316907	 0.101912
H	 1.4955824549	-1.5245673137	-0.8773368041	 0.116114
H	 2.6016882735	-0.7699477898	 2.2269627374	 0.135933
H	 0.1500010721	-1.4846418455	 1.7695241205	 0.11535
