13
gdb 125786	3.62047	1.5943	1.11456	3.7478	65.17	-0.2653	-0.035	0.2304	999.0787	0.090276	-452.705399	-452.698711	-452.697767	-452.736573	25.2	
C	-0.0183161114	 1.5164036113	-0.0144809462	-0.502497
C	-0.0083695285	 0.0254373587	 0.0593130602	 0.232712
N	-0.0430985916	-0.6703408434	-1.0574255306	-0.187984
O	-0.0237831426	-2.0724647693	-0.6955656963	-0.244459
C	 0.0213479917	-2.0795773694	 0.6187195542	 0.561632
C	 0.03492151	-0.8421772795	 1.1946307643	 0.027471
C	 0.083958246	-1.1673906575	 2.5774868019	-0.129992
N	 0.0972209822	-2.4653118881	 2.776369344	-0.126532
O	 0.0555128386	-3.0824888548	 1.4706048367	-0.240852
H	 0.8802349501	 1.9308336848	 0.4536280728	 0.148409
H	-0.0567307811	 1.8397409576	-1.055857857	 0.162277
H	-0.8855134216	 1.9221754335	 0.5161502166	 0.14837
H	 0.1107040381	-0.530013384	 3.4503847295	 0.151445
