18
gdb 12023	4.42132	1.44287	1.2759	1.937	68.62	-0.2606	0.0773	0.338	1011.4188	0.151472	-384.904555	-384.896126	-384.895182	-384.93725	31.023	
C	 0.3495265769	 1.4652157487	-0.0668428077	-0.469945
C	 0.0314746948	 0.0010447917	 0.1381630323	 0.392901
C	-1.1586850189	-0.5168037513	-0.6425208841	-0.450437
O	 1.1671476043	-0.892878246	 0.1311388467	-0.29076
C	 0.4482875239	-0.7374509044	 1.3501422074	-0.026604
C	 1.1841980599	-0.1917163464	 2.5372723521	 0.047287
C	 2.6258604372	-0.4305066918	 2.7072668432	-0.174351
O	 2.1244203549	 0.8627296414	 2.3622666028	-0.226301
H	 1.264224114	 1.742912443	 0.4533439067	 0.163871
H	 0.4684588683	 1.6705613209	-1.1366548047	 0.117849
H	-0.4734765084	 2.0889626658	 0.2993036311	 0.115356
H	-1.0019460151	-0.3650126634	-1.7159875948	 0.126556
H	-1.3111082568	-1.5845809373	-0.4669014985	 0.123944
H	-2.0712786319	 0.0189500749	-0.3597094027	 0.120673
H	-0.1601385105	-1.604159539	 1.6279729278	 0.08273
H	 0.5673649884	-0.0999407872	 3.4332070476	 0.096906
H	 3.0484639401	-0.5160363765	 3.7067185521	 0.115738
H	 3.163092709	-0.9396365329	 1.9104774728	 0.134586
