16
gdb 23240	2.89504	1.45589	1.14346	2.4418	68.07	-0.2479	-0.016	0.2319	1060.3951	0.123188	-474.926055	-474.917853	-474.916909	-474.959065	30.472	
O	-0.1577836416	 1.3619848407	 0.1262036099	-0.406528
N	 0.0627139419	-0.037368341	 0.1742748746	-0.245558
C	-1.0422899767	-0.6453733564	 0.069299456	 0.373573
C	-2.4925858814	-0.2173211333	-0.1125293913	 0.063706
O	-2.8173620105	 0.7353282268	-1.0776171233	-0.428951
C	-2.8261533651	-1.7054876789	-0.426340578	 0.078934
O	-2.5947775714	-2.0832759691	-1.7893523211	-0.273783
C	-1.2962331153	-2.6349717752	-1.4817495752	-0.072416
C	-1.3644871464	-2.119974924	-0.0265623076	-0.207516
H	 0.7361548005	 1.716118233	 0.1781335006	 0.312645
H	-2.9144109271	 0.0244849818	 0.8815561599	 0.087236
H	-2.177367517	 1.4509845185	-0.9837108545	 0.301417
H	-3.7483874116	-2.124119211	-0.0185336909	 0.085356
H	-1.3013072521	-3.7296877785	-1.5582843811	 0.107342
H	-0.5000300576	-2.2255875728	-2.1115822627	 0.121041
H	-1.0793015586	-2.7837470207	 0.7871383248	 0.103504
