16
gdb 67932	2.21719	1.50634	1.05912	3.5095	72.82	-0.2519	-0.0355	0.2163	1142.8918	0.122347	-437.869442	-437.861055	-437.86011	-437.90271	30.839	
C	-0.1274332695	 1.5011790127	 0.1068308736	-0.489487
C	 0.0328724191	 0.0199527356	 0.0911268222	 0.425636
O	-1.1806020037	-0.7852508823	-0.0078250544	-0.301698
C	-0.6614668814	-1.6794193744	 0.9359365777	 0.442177
N	-1.1982071918	-2.6475509501	 1.5180799658	-0.549247
C	 0.6594753859	-0.9891229395	 1.0163629423	-0.27554
C	 1.1993477856	-0.7760833023	-0.4238845517	-0.181126
C	 1.1080025234	-1.8123275375	-1.4908367305	 0.157214
O	 1.9807858453	-1.9882697167	-2.3047888296	-0.260806
H	 0.8367133532	 1.9847812979	 0.2842035774	 0.140184
H	-0.5151728074	 1.8543055885	-0.8541541429	 0.149113
H	-0.8250089597	 1.8030816227	 0.8933091735	 0.145847
H	-2.165145146	-2.7768340043	 1.2156866287	 0.236795
H	 1.2995628423	-0.893406931	 1.8808311666	 0.135452
H	 2.138552371	-0.2294892645	-0.4370853217	 0.123612
H	 0.1804717639	-2.417859875	-1.4940261571	 0.101872
