12
gdb 11191	4.41269	1.58438	1.37726	4.9646	56.08	-0.2942	-0.0002	0.294	867.9362	0.083689	-418.484351	-418.477512	-418.476567	-418.516061	24.299	
O	 0.059400267	 0.0387770751	-0.1116667394	-0.362318
C	 0.0090683724	 1.2226451053	-0.047473637	 0.507705
O	-1.1195256793	 1.9638269425	-0.1923039505	-0.237481
C	-0.848138374	 3.33237111	 0.0942794296	-0.112588
C	 0.6996189227	 3.4105821946	 0.043091955	-0.089004
O	 1.0793743165	 2.0315288355	 0.1910184944	-0.234814
C	 1.2203949883	 3.9691573209	-1.1982454816	 0.343481
C	 1.630929177	 4.4481308337	-2.219871035	-0.453901
H	-1.3284623963	 3.9588680506	-0.6569641362	 0.149202
H	-1.2321319777	 3.578866025	 1.0891516193	 0.132062
H	 1.1035857325	 3.9544463199	 0.9010099181	 0.139012
H	 2.0025350809	 4.8657619368	-3.1237246667	 0.218643
