23
gdb 89485	2.6478	1.4794	1.29732	1.3118	83.62	-0.25	0.0763	0.3263	1117.3832	0.208211	-388.319794	-388.311434	-388.31049	-388.352053	34.539	
C	-0.2579768849	 1.5449880836	 0.0027814582	-0.420318
C	 0.0337816236	 0.0450427774	-0.0053492761	 0.061691
C	 0.7653847058	-0.477873069	-1.2855775904	-0.287185
C	 1.9400934554	-1.3119371021	-0.7151435411	 0.436885
O	 2.4415507269	-2.310359818	-1.5746555133	-0.503775
C	 3.0026752663	-0.3367038358	-0.1520608784	-0.263414
C	 2.3146711764	 0.2270850238	 1.1291308659	-0.216692
C	 0.942775906	-0.4915605213	 1.1367515979	-0.021059
C	 1.3243637675	-1.8768589918	 0.5788684524	-0.256917
H	 0.6463033295	 2.140689148	-0.1601706942	 0.114395
H	-0.9653143291	 1.8063824281	-0.7916370207	 0.112549
H	-0.6985378802	 1.8599881272	 0.9555983957	 0.109967
H	-0.9259733748	-0.4781112469	 0.082380684	 0.070264
H	 0.1203289206	-1.1190117942	-1.8934735683	 0.097553
H	 1.1181376491	 0.340144352	-1.9249705798	 0.080862
H	 2.8206094337	-1.8765696563	-2.3461615079	 0.272589
H	 3.9144266728	-0.8925719328	 0.0858302449	 0.099127
H	 3.2674966605	 0.4436817457	-0.8739767134	 0.082627
H	 2.8831952199	-0.037503948	 2.0256045753	 0.097119
H	 2.2237567888	 1.3156875875	 1.1232035132	 0.095803
H	 0.4515717054	-0.4807842915	 2.1124144865	 0.053013
H	 0.4658909762	-2.5274008027	 0.387572686	 0.092917
H	 2.0539961647	-2.4171572431	 1.1894324137	 0.091996
