15
gdb 33720	6.26907	0.95774	0.9567	1.9384	82.38	-0.2462	-0.0025	0.2438	1225.8782	0.109588	-383.349299	-383.34122	-383.340276	-383.381643	31.521	
C	-0.056613851	-1.0838043202	-0.1384537517	-0.34334
C	-0.0279197762	 0.1142810152	-0.0465741002	 0.065795
C	 0.0235879414	 1.5359218157	 0.0907266727	 0.319634
C	-0.6492472229	 2.4460540718	 1.1564921227	-0.284998
C	-0.0325914363	 3.3454294661	 0.0484482939	 0.319666
C	 1.2585207487	 2.4802892005	 0.0867710371	-0.284994
O	-0.5846542504	 2.3984496704	-0.9664527095	-0.358639
C	-0.1719586755	 4.7531642117	-0.1550904522	 0.065805
C	-0.2759292877	 5.9414817735	-0.3026197288	-0.343374
H	-0.086127619	-2.1420638041	-0.2254507082	 0.188635
H	-1.7381647981	 2.4124178015	 1.1641961073	 0.125697
H	-0.2031549488	 2.4831683819	 2.1525282738	 0.107889
H	 1.8745903603	 2.5204605427	 0.9874976958	 0.107891
H	 1.8335850244	 2.4765335271	-0.8385514304	 0.125703
H	-0.3711231889	 6.9905775662	-0.4393245623	 0.18863
