19
gdb 107856	3.58774	1.37109	1.33251	2.0948	73.84	-0.2447	0.0692	0.3139	1033.1592	0.161087	-422.981599	-422.974357	-422.973412	-423.013258	29.577	
O	-0.0122935362	 1.4005915569	-0.198520059	-0.416909
C	 0.0244297186	-0.001539645	 0.0050678618	-0.18308
C	-1.3642934519	-0.5672962326	 0.1206303318	 0.399955
C	-2.3579935532	-0.0728105488	 1.1933361521	-0.232843
C	-3.3956013723	-1.1701463547	 0.8808993495	-0.090931
C	-2.6193538413	-2.4537596114	 1.2810243257	-0.254693
C	-1.7312485397	-2.1093255685	 0.074828983	-0.131704
C	-2.9307458711	-1.4455025925	-0.6314386959	 0.117573
O	-2.1612700906	-0.3347542204	-1.0982043133	-0.344718
H	-0.585105268	 1.5504669655	-0.9598832296	 0.29757
H	 0.5613486518	-0.5132762639	-0.8085225358	 0.093865
H	 0.577903396	-0.1752851541	 0.9343271966	 0.111815
H	-1.9823610314	-0.1281958916	 2.2188479619	 0.096292
H	-2.6798002372	 0.9457233244	 0.9738580173	 0.109122
H	-4.4349157816	-1.0104074016	 1.1614144104	 0.069388
H	-2.1821653374	-2.4908157326	 2.2830265006	 0.097292
H	-3.1852579452	-3.3708901713	 1.093060193	 0.10234
H	-1.0339824818	-2.7886716437	-0.4132734753	 0.074506
H	-3.6067102276	-1.896922344	-1.355838155	 0.085159
