18
gdb 85182	2.31416	1.6383	1.1445	2.9057	71.59	-0.2384	0.0026	0.241	1101.3692	0.147182	-439.078256	-439.06969	-439.068745	-439.11192	31.338	
C	 0.6110281283	 1.5066791738	-0.3524467909	-0.4
C	 0.0369889745	 0.1409784145	-0.0559304522	 0.120721
O	 0.8021863579	-0.9404867273	-0.7098842992	-0.254065
C	 1.1661614097	-1.4953566052	 0.4858232546	 0.434944
O	 1.9029902251	-2.4128306504	 0.6737352025	-0.338324
C	 0.3294092296	-0.5045156685	 1.3251996305	-0.168074
N	 0.9169020739	 0.3101625334	 2.360075026	-0.086893
C	 1.5987804235	-0.3839025416	 3.4537617096	-0.22604
C	 2.3748588017	 0.4107670262	 2.4639378662	-0.231835
H	 1.6737162532	 1.5533225893	-0.1041474266	 0.134462
H	 0.4911586651	 1.7470147598	-1.4125172209	 0.132643
H	 0.0863561802	 2.2622520228	 0.2395875705	 0.138179
H	-1.0081096565	 0.0674477836	-0.3676811256	 0.100157
H	-0.5532352567	-1.002560057	 1.7388805324	 0.119443
H	 1.4018301731	 0.0093636013	 4.4469024503	 0.121813
H	 1.6921398063	-1.4649860074	 3.388049264	 0.142036
H	 2.9900825839	-0.1465676891	 1.7621292158	 0.139182
H	 2.7470852071	 1.3978211918	 2.721227513	 0.121652
