19
gdb 18169	3.59413	1.62315	1.40742	1.5947	71.6	-0.2291	0.068	0.2971	973.7368	0.165229	-365.002756	-364.994585	-364.993641	-365.035242	30.351	
C	-0.099949717	 1.3889735867	 0.0525788908	-0.241181
O	 0.3215074296	 0.064267903	-0.1925278583	-0.241914
C	 0.8073519663	-0.5792092597	 0.9597097147	 0.138066
C	-0.172651182	-1.1829195268	 2.0063798221	-0.21113
N	 0.4787561895	-2.5367642173	 1.8945363528	-0.152097
C	 0.2945146404	-2.9980622915	 0.5034151374	 0.030861
C	-0.9643455309	-2.8231187466	-0.3175163449	-0.428144
C	 1.3439755601	-1.9837409837	 0.7504436144	-0.103371
H	 0.7214825253	 2.0074182421	 0.446998663	 0.10729
H	-0.4315165309	 1.8070314567	-0.9005841969	 0.129807
H	-0.935472053	 1.4307549613	 0.7673499544	 0.109486
H	 1.5538413775	 0.0589354723	 1.4547799944	 0.078418
H	-0.0419838344	-0.7933811658	 3.0176394148	 0.108735
H	-1.2352785448	-1.1673956429	 1.7488183559	 0.106822
H	 0.710834101	-4.0016363424	 0.4218318595	 0.095481
H	-1.261871669	-1.7808499891	-0.4228326452	 0.141291
H	-0.791234115	-3.215470298	-1.3249297537	 0.121887
H	-1.7903340751	-3.3937053321	 0.122384477	 0.118614
H	 2.4006446824	-2.2204829061	 0.6721576377	 0.091081
