14
gdb 1205	7.81929	1.34207	1.16189	1.3863	61.55	-0.2642	0.028	0.2923	979.6637	0.111062	-324.548763	-324.540769	-324.539825	-324.581478	27.537	
C	-0.0620653072	 1.4451372461	-0.0910027756	-0.460708
C	 0.0785146664	-0.0454705221	 0.0782747194	 0.407691
N	 0.2856040851	-0.7144523472	 1.1372220714	-0.518592
O	-0.0491291403	-0.6589623931	-1.1183635871	-0.234367
C	 0.0652437374	-2.0906988232	-1.0967615778	-0.223188
C	-0.094450388	-2.5914496701	-2.4524392324	 0.297053
C	-0.2215604418	-3.0409104754	-3.5585632134	-0.417647
H	 0.0383595691	 1.9576403333	 0.8668489256	 0.127562
H	 0.7003968771	 1.8186805852	-0.7810411687	 0.150268
H	-1.0368870038	 1.6837375767	-0.5266967235	 0.150268
H	 0.3561026431	-0.0997025752	 1.9443972075	 0.221904
H	 1.0385078423	-2.3724964385	-0.6793433648	 0.149408
H	-0.6943114293	-2.5070913261	-0.4255060053	 0.149407
H	-0.3343526603	-3.4356037705	-4.5379557254	 0.200941
