23
gdb 101330	2.62698	0.98993	0.82034	1.9327	83.1	-0.2387	0.0688	0.3075	1520.0237	0.203453	-425.40209	-425.391411	-425.390467	-425.437828	39.143	
C	 0.0872453587	 1.5518008393	-0.2172614998	-0.381035
C	 0.000876589	 0.0245708718	-0.2600453806	-0.178044
C	 0.9446582607	-0.6053178841	-1.2936305134	 0.114404
O	 2.3056969377	-0.2299413255	-1.0427250426	-0.428815
C	 0.7922523756	-2.1097655269	-1.3660639582	-0.065296
C	-0.3061513128	-2.7188945925	-2.2208046736	-0.33493
C	 1.1214982904	-2.8666995097	-2.6363037552	 0.118055
O	 1.5055412175	-2.1777364823	-3.78046129	-0.239332
C	 2.9092116475	-1.9700477194	-3.8539093675	-0.249306
H	 1.1138256045	 1.8742755602	-0.025351554	 0.12631
H	-0.2236075206	 1.9889216513	-1.172688307	 0.114266
H	-0.557978635	 1.9643399828	 0.564259689	 0.107043
H	 0.2385588466	-0.3929024186	 0.7299752635	 0.080138
H	-1.0241538657	-0.2936706985	-0.4844702588	 0.101496
H	 0.7308528906	-0.1856465665	-2.2826502941	 0.097236
H	 2.5639083327	-0.6214467076	-0.200542449	 0.273208
H	 1.0128263154	-2.6249977328	-0.4314473998	 0.071324
H	-0.8451421017	-3.5861002816	-1.8567126618	 0.111787
H	-0.9011484282	-2.0314603966	-2.8134666755	 0.124399
H	 1.5923416473	-3.8454707493	-2.5248363604	 0.07924
H	 3.2661796412	-1.375809153	-3.0050003876	 0.137146
H	 3.4500908455	-2.9286064073	-3.8791320429	 0.09888
H	 3.1012265832	-1.4351257632	-4.7869836006	 0.121828
