16
gdb 123458	5.08333	0.92758	0.82032	4.5002	70.32	-0.2563	-0.0099	0.2464	1340.9254	0.124862	-437.852098	-437.844425	-437.843481	-437.885595	27.792	
C	-0.0120247035	 1.4312036737	 0.4951985326	-0.367731
C	-0.099987799	-0.0518647541	 0.1960156975	 0.102963
C	-1.3037371978	-0.6583657099	-0.382887326	-0.181807
O	-0.1492121822	-0.4058858183	-1.1884957116	-0.231494
C	 1.3484349595	 1.9901832828	 0.2017347409	 0.150755
C	 2.2050995223	 2.6621043261	 1.0151425553	-0.018019
O	 3.3290488791	 2.9932098359	 0.3628046319	-0.164191
N	 3.240694621	 2.5278685975	-0.9468702255	-0.130324
C	 2.0740143236	 1.9413438377	-1.0277964228	-0.034636
H	-0.7713762698	 1.9479868145	-0.1039156982	 0.12183
H	-0.2647588547	 1.6017388555	 1.5480936439	 0.113591
H	 0.5618942506	-0.6853183489	 0.7883743922	 0.102187
H	-1.5247986675	-1.7086389572	-0.2004612699	 0.120551
H	-2.1688638017	-0.0321482897	-0.5975246979	 0.116893
H	 2.1523282635	 2.9710716757	 2.048113704	 0.148317
H	 1.7695826167	 1.484995979	-1.9588918964	 0.151116
