17
gdb 37373	3.04924	1.85696	1.63689	1.5523	65.8	-0.2411	0.0891	0.3302	868.478	0.138657	-458.937681	-458.931388	-458.930444	-458.968053	26.132	
C	-0.0140213128	 1.5347177315	 0.0053399601	-0.086945
O	 1.301430226	 2.0778809155	-0.0635347697	-0.262346
C	 2.1269134115	 1.4765345083	-1.0570835328	-0.086946
C	 2.0509937594	-0.0533725528	-0.9673600584	 0.01401
O	 0.6806723293	-0.4155715024	-1.1778917178	-0.263457
C	 0.0365486799	 0.001374364	 0.0322941026	 0.01401
C	 1.0029597251	-0.4685897322	 1.1189466925	 0.046799
O	 1.6350035873	-1.7135753971	 0.8163074909	-0.251559
C	 2.3118070568	-0.5041581464	 0.4694383916	 0.046798
H	-0.4660728418	 1.951833051	 0.9112851559	 0.110593
H	-0.6135457011	 1.845614426	-0.863635769	 0.104178
H	 1.8108735547	 1.7797291766	-2.0667356523	 0.104178
H	 3.1391124682	 1.8538535181	-0.8777618214	 0.110593
H	 2.6550139894	-0.5464697483	-1.7333334656	 0.09328
H	-0.9593248998	-0.448241777	 0.060261056	 0.09328
H	 0.8485431476	-0.229576186	 2.1663690373	 0.106766
H	 3.2491141502	-0.2948199987	 0.9751038902	 0.106767
