21
gdb 67640	3.11656	1.73109	1.54312	0.3506	85.02	-0.2299	0.0928	0.3227	977.3578	0.18555	-349.928192	-349.921226	-349.920282	-349.958997	29.807	
C	 0.0016962357	 1.543292238	 0.0743321038	-0.517842
C	-0.008903639	 0.0460069658	-0.004437827	 0.35622
C	 1.0925037662	-0.8390095199	-0.5108595771	-0.098237
C	 0.5952122423	-1.756052637	-1.6161164893	-0.226758
C	-0.8500087408	-2.0613701235	-1.1913215408	-0.045985
C	-0.8559001268	-3.0434095452	 0.017000617	-0.237621
C	-0.753591751	-1.8131264989	 0.9422683721	-0.017971
C	 0.578290937	-1.0317169121	 0.9135274141	-0.139083
C	-1.2415111746	-0.8784316945	-0.2053644127	-0.103556
H	 0.9911921401	 1.9136425013	 0.3635388169	 0.116379
H	-0.2503503503	 1.9965433155	-0.8927086592	 0.116055
H	-0.7196966278	 1.9169379475	 0.8105333644	 0.115561
H	 2.0897049005	-0.4138936841	-0.5791144546	 0.074571
H	 0.6294997808	-1.2250577675	-2.5760835238	 0.088684
H	 1.1850277755	-2.673392162	-1.727161039	 0.092621
H	-1.5151365243	-2.2921583972	-2.0249385225	 0.058927
H	-1.8230743384	-3.5421564548	 0.1346204658	 0.090594
H	-0.0613787495	-3.79621108	 0.0533269836	 0.085955
H	-1.2375769597	-1.8218274796	 1.920537554	 0.059054
H	 1.2526961728	-0.9132924794	 1.7549245354	 0.074202
H	-2.2479862487	-0.4655114823	-0.2420182311	 0.05823
