21
gdb 39294	2.53117	2.02804	1.7639	1.3684	80.	-0.2405	0.0767	0.3172	915.4993	0.187507	-387.096348	-387.089808	-387.088864	-387.126854	28.37	
C	-0.0262276566	 1.5153239545	 0.1086841905	-0.232284
C	 1.5229989292	 1.4026136476	 0.0239361602	-0.058204
C	 2.0341764084	 1.0543042869	 1.4205947729	-0.081009
O	 1.1309185155	 0.172374842	 2.0827155854	-0.272739
C	 0.4725462739	-0.7455363957	 1.2089031778	 0.110167
C	 1.4438186332	-1.8189106291	 0.6752684704	-0.218132
C	 2.1652816849	-1.1539018927	-0.5312447115	-0.251948
C	 1.32239219	 0.0963235866	-0.8289491834	 0.014089
C	-0.0278879438	-0.0190961248	-0.0690519614	-0.047611
H	-0.4535888952	 1.9302123232	 1.0249940331	 0.101499
H	-0.4517085	 2.0207595709	-0.7617074309	 0.093165
H	 2.099826206	 2.2209146213	-0.4145940443	 0.060852
H	 3.0448634874	 0.6187804921	 1.374793926	 0.089279
H	 2.0919669128	 1.952918331	 2.0456574978	 0.103362
H	-0.3345728901	-1.1731822582	 1.8097141687	 0.073682
H	 2.1204517243	-2.1560765737	 1.4646646912	 0.104257
H	 0.8708899175	-2.6908675875	 0.340505241	 0.096683
H	 3.2071163477	-0.9054839722	-0.3030261507	 0.101161
H	 2.1880829967	-1.821795733	-1.3974626331	 0.09434
H	 1.2329848421	 0.3326194976	-1.8914832775	 0.061762
H	-0.8831175639	-0.5229112069	-0.526520262	 0.057628
