23
gdb 112256	2.38586	1.09535	0.84023	2.7442	86.54	-0.2347	-0.0155	0.2193	1486.9501	0.204008	-388.313179	-388.302914	-388.30197	-388.348816	37.678	
C	-0.0675291214	 1.6987180345	-0.0539144266	-0.387329
C	-0.006684288	 0.1841916922	 0.1682715768	-0.175293
C	-1.3647219928	-0.49679755	-0.0059280553	-0.027671
C	-1.8194024957	-0.6381123841	-1.4962148827	-0.350742
C	-1.4714507269	-2.1307218328	-1.3970697996	 0.391923
O	-1.2417160222	-2.9840112667	-2.2073614245	-0.302829
C	-1.3692650765	-2.0663098896	 0.1352569521	-0.096389
C	-0.251045003	-2.8323187051	 0.8394151332	-0.199394
C	-0.4639910981	-4.3500519309	 0.7830672823	-0.391326
H	 0.9179303118	 2.1572374584	 0.072247477	 0.115352
H	-0.4208514549	 1.9434294124	-1.0613604282	 0.118912
H	-0.7508076018	 2.1735585149	 0.65895746	 0.115768
H	 0.7200422646	-0.25874247	-0.5260797361	 0.099941
H	 0.3742012352	-0.0192373698	 1.1765180026	 0.10074
H	-2.1015992241	-0.0064141555	 0.6364323311	 0.06968
H	-2.8912948961	-0.4797234511	-1.652032511	 0.126698
H	-1.271520119	-0.0701371072	-2.2534001541	 0.124746
H	-2.3395766086	-2.3811899742	 0.5452615796	 0.097597
H	 0.7122303075	-2.582409049	 0.3801660442	 0.10351
H	-0.1906963222	-2.5009802012	 1.8839287605	 0.098162
H	 0.3577756903	-4.880318541	 1.2739505883	 0.109481
H	-1.3943237968	-4.6362578727	 1.2866613391	 0.109896
H	-0.5250480913	-4.6908620514	-0.2536524885	 0.148569
