14
gdb 19489	3.54953	2.08337	1.90716	3.0337	66.1	-0.2432	-0.0127	0.2306	749.4466	0.108973	-341.572882	-341.566559	-341.565615	-341.603295	24.187	
N	-0.1096719777	-1.1768715453	-0.0486968644	-0.345817
C	-0.0610322677	-0.023383178	 0.0267076118	 0.312287
C	-0.0061849214	 1.414877017	 0.0543124969	-0.170784
C	 0.5156973764	 2.1553752659	 1.2594468865	-0.072903
C	 1.2805862607	 1.3628589878	 2.2613229983	-0.075507
C	 2.387419609	 0.87764693	 1.6994989469	-0.069858
C	 2.4933789969	 1.3239662307	 0.2593898643	-0.2193
N	 1.2817249984	 2.1434740831	 0.0006218344	-0.112411
H	-0.7786403895	 1.8859972842	-0.5482757127	 0.138844
H	 0.0170849631	 3.0791597498	 1.541262694	 0.111436
H	 0.9465643947	 1.2119076665	 3.2790406272	 0.116064
H	 3.113175509	 0.2274813901	 2.1719847601	 0.117554
H	 3.3745285135	 1.9523962421	 0.0814503065	 0.12771
H	 2.5477300946	 0.4838200061	-0.4429574798	 0.142684
