17
gdb 79491	2.23461	1.88912	1.21454	1.6161	79.88	-0.2477	0.0343	0.282	1035.1035	0.135203	-384.577648	-384.569921	-384.568976	-384.609576	30.806	
O	 0.2147880934	 1.4118127337	-0.207954139	-0.44028
C	 0.0830008657	 0.0259616634	-0.0719663889	 0.094917
C	 0.0490587547	-0.627167344	 1.3212672406	-0.124714
C	-1.4726166283	-0.2933526665	 1.5366299872	-0.109582
C	-1.818451609	-1.7530820293	 1.881126873	-0.269819
C	-0.7479238525	-1.8632513321	 0.7792519139	-0.081391
C	-1.3285254322	-0.6231718212	-0.0110345944	 0.231836
C	-2.3715112285	-0.6319501018	-0.9885894697	 0.077523
C	-3.2418068556	-0.6262687941	-1.8203262818	-0.380541
H	-0.3879853255	 1.8418977161	 0.4086550086	 0.284497
H	 0.7692407765	-0.4199284065	-0.7981747253	 0.091995
H	 0.8142926772	-0.6513098519	 2.0968544429	 0.079201
H	-1.8950438898	 0.621754229	 1.9555452932	 0.07676
H	-1.5309683627	-2.1005559863	 2.8779540944	 0.097548
H	-2.825324318	-2.0938572846	 1.624502124	 0.108889
H	-0.3177859915	-2.7490429704	 0.3111218996	 0.083654
H	-4.0074403841	-0.6225368436	-2.5559786984	 0.179506
