17
gdb 38504	3.15556	1.78479	1.60305	0.6657	70.07	-0.2522	0.0706	0.3228	891.9672	0.137219	-421.766089	-421.759501	-421.758557	-421.796755	27.201	
C	-0.0001296306	 1.6026706709	 0.0554757429	-0.294588
C	 1.5724606945	 1.5855027927	 0.1555474586	-0.295524
C	 1.5157888592	 0.0695734935	-0.1048020713	 0.282374
O	 0.7014417171	-0.5370239395	 0.9060462436	-0.302766
C	 0.0500731308	 0.0851849693	-0.2069751693	 0.32274
C	-0.4527163032	-0.8743253323	-1.266593302	-0.350039
C	 0.8644981509	-1.4554370541	-1.8074137604	 0.070703
O	 1.6967188669	-0.4850286536	-2.4541106152	-0.255154
C	 2.0470183687	-0.8874069916	-1.1195303514	-0.081974
H	-0.5563986717	 1.9079747609	 0.9441786192	 0.112194
H	-0.3511606224	 2.1697629201	-0.8093453886	 0.115825
H	 2.0429464082	 2.1330004477	-0.6629812162	 0.123108
H	 2.0189811417	 1.885084743	 1.1057737599	 0.112267
H	-1.1018227434	-1.6570004551	-0.8614449472	 0.118022
H	-0.9974367307	-0.3541864566	-2.0609406951	 0.121384
H	 0.8846908774	-2.4468615105	-2.2531425795	 0.101403
H	 2.9886451967	-1.4208001048	-1.0213708981	 0.100024
