17
gdb 37996	3.62408	1.63709	1.28924	1.7483	80.58	-0.2146	-0.0247	0.1899	970.6557	0.13863	-384.684777	-384.678333	-384.677388	-384.715428	26.689	
C	-0.0197696792	 1.5899335681	-0.1007448641	-0.299305
C	 1.4719479807	 1.8344345079	 0.0620678304	-0.068382
C	 2.1154367386	 0.7668356326	 0.5704686105	-0.176892
C	 1.1540924596	-0.3007400373	 0.7901061269	 0.326929
C	 0.9510990686	-1.3029783962	 1.6596620273	-0.277687
C	-0.5081533205	-1.6223189124	 1.6792638959	 0.018953
O	-1.3141875299	-0.480592894	 2.1016316986	-0.259916
C	-1.185676484	-0.7318692116	 0.7076118139	-0.003928
C	-0.0971641424	 0.0473424686	-0.007071505	-0.080159
H	-0.5674103562	 2.0522989074	 0.7321088245	 0.131594
H	-0.4287863863	 2.0000206087	-1.0291783212	 0.104886
H	 1.9306648587	 2.7947722134	-0.1462208951	 0.102447
H	 3.1602905337	 0.7334617016	 0.8530150309	 0.104733
H	 1.6644762089	-1.7082595784	 2.3658035537	 0.098912
H	-0.9048787706	-2.5837954578	 1.989581623	 0.09597
H	-2.1015197715	-1.0127369583	 0.1935037818	 0.089737
H	 0.0041161015	-0.3640302122	-1.0216184119	 0.092107
