21
gdb 91534	2.5285	1.38607	1.15935	1.4996	82.66	-0.2435	0.0799	0.3233	1174.5245	0.182331	-387.042437	-387.033793	-387.032849	-387.075789	33.355	
C	-0.0120964544	 1.6473705271	 0.034115134	-0.415277
C	 0.0660320387	 0.1250455701	 0.0562974256	-0.048691
C	 1.0805811233	-0.5935416237	-0.9003688404	-0.25162
C	 1.6976739181	-1.3103298656	 0.3040264607	-0.098881
C	 2.2105821107	-0.3123714869	 1.2999206572	-0.34974
C	 0.7293563896	-0.5851308184	 1.2540092755	 0.385377
C	 0.0004271996	-1.1343761471	 2.4207689565	-0.043648
C	-1.2154911603	-0.5174810132	 2.9720473429	-0.189693
O	-1.2963162721	-1.7000722004	 2.1753633756	-0.239398
H	 0.9694049303	 2.1076734695	 0.1885565956	 0.113352
H	-0.3931563037	 2.0003464231	-0.9306238111	 0.115826
H	-0.682712333	 2.027511289	 0.8126101163	 0.113654
H	-0.9307689878	-0.3012102178	-0.0871283264	 0.092178
H	 0.5887442049	-1.2641480867	-1.6077162999	 0.105825
H	 1.7618178209	 0.061106929	-1.4557028047	 0.092318
H	 2.0059353057	-2.348719369	 0.3303053932	 0.0894
H	 2.7273207221	-0.7334711364	 2.1576221871	 0.111196
H	 2.6130755762	 0.6439678052	 0.9741631863	 0.106608
H	 0.6121000924	-1.7274509274	 3.1039200409	 0.084856
H	-1.4573077089	-0.6431006484	 4.0270297578	 0.112955
H	-1.6181223824	 0.3830811279	 2.5106999471	 0.113404
