20
gdb 18012	4.21574	1.41463	1.27951	1.8163	74.16	-0.2376	0.0788	0.3164	1043.1086	0.17771	-348.972104	-348.964255	-348.963311	-349.00473	29.669	
C	 0.1015348924	 1.5101475554	 0.1556012513	-0.380023
C	 0.0292377656	-0.0162126568	 0.0373636502	-0.198413
C	 0.6480275743	-0.5347850169	-1.2562293931	 0.043868
C	 2.2060059443	-0.4738457546	-1.4241175714	-0.258993
C	 2.2186122786	-1.9838599425	-1.7540028795	 0.125667
O	 2.4672571339	-2.8059712685	-0.5945889768	-0.292156
C	 1.0498504576	-2.9945654162	-0.3703172883	-0.081827
C	 0.6804197401	-2.0685801667	-1.5425457189	-0.116843
H	 1.1386939866	 1.8606170178	 0.1199286473	 0.120676
H	-0.440120987	 1.9968887881	-0.6631536962	 0.112952
H	-0.3341139359	 1.8578424012	 1.0973043008	 0.112548
H	 0.5370412521	-0.4675205996	 0.8987796281	 0.102263
H	-1.0187939896	-0.3403573938	 0.0929914162	 0.093025
H	 0.1648049906	-0.0311245939	-2.1012161718	 0.070638
H	 2.5509507999	 0.1797105652	-2.229602163	 0.097557
H	 2.7683263915	-0.244505319	-0.5148242033	 0.107417
H	 2.763669426	-2.330739082	-2.6360869441	 0.071946
H	 0.7616915002	-4.0428160164	-0.5233693441	 0.09817
H	 0.7408534639	-2.6899046616	 0.6365648582	 0.100321
H	-0.0282232651	-2.4562256092	-2.2740600716	 0.071206
