18
gdb 17744	3.76934	2.51794	2.06943	0.1229	74.03	-0.2347	0.0942	0.3289	741.366	0.155268	-310.600649	-310.594535	-310.59359	-310.630282	26.06	
C	-0.0345124425	 1.48904607	 0.0089731985	-0.509886
C	-0.0266336922	-0.0163929892	-0.0481135738	 0.350336
C	 0.2515217891	-0.8230204019	-1.3459509861	-0.285681
C	-0.4743157208	-1.977226439	-0.6157577282	-0.057036
C	 0.303613991	-2.2464742567	 0.6947152616	-0.069472
C	-0.6536500481	-1.4596794498	 1.5635877493	-0.104333
C	 0.6363618774	-0.8131916023	 1.1082215698	-0.107735
C	-1.2858894307	-0.9332644473	 0.2414642433	-0.097321
H	 0.9737937033	 1.8955410752	-0.1382117256	 0.114386
H	-0.6805065686	 1.9154142096	-0.7663440513	 0.111617
H	-0.3948006579	 1.8450424742	 0.9810602544	 0.11684
H	-0.3393691997	-0.4409500075	-2.1862146177	 0.090061
H	 1.2904361303	-0.9701378574	-1.6598941827	 0.086422
H	-0.9307442687	-2.8165612665	-1.1387936022	 0.060553
H	 0.9260498211	-3.091614036	 0.9581536931	 0.080888
H	-1.0428005581	-1.6554596403	 2.5537652199	 0.081946
H	 1.5140638364	-0.5549768873	 1.6875938507	 0.076633
H	-2.3156194615	-0.6381384878	 0.052360297	 0.061782
