17
gdb 117016	5.14886	0.51728	0.47419	3.266	77.25	-0.2592	-0.0492	0.2101	2211.0422	0.131959	-458.92894	-458.918049	-458.917104	-458.967475	35.782	
O	-0.2535350445	 1.457692386	 0.0123736288	-0.427208
C	-0.013328529	 0.0580720761	 0.0026433114	-0.083866
C	-1.3729087908	-0.6253841217	 0.0116692634	-0.283873
C	-1.2755273089	-2.138761921	 0.0026730632	 0.206264
O	-0.2162027074	-2.7320622837	-0.0108494953	-0.296345
C	-2.5443908096	-2.8406993464	 0.0113331413	-0.038628
C	-3.6067282205	-3.4132406198	 0.0185650155	 0.218798
C	-4.9003035898	-4.0801815418	 0.0271126232	-0.221708
O	-4.7209308173	-5.4863603609	 0.0174220073	-0.401361
H	 0.5976033419	 1.9048646845	 0.0062769783	 0.287806
H	 0.5504622961	-0.2538317602	-0.8878687027	 0.104633
H	 0.5669356668	-0.2632723488	 0.8791164073	 0.104614
H	-1.9497943741	-0.3132958973	 0.8917826382	 0.138406
H	-1.966003464	-0.3040469368	-0.8542373067	 0.138425
H	-5.4565199347	-3.7457166223	 0.9186371955	 0.129371
H	-5.4734520166	-3.735699371	-0.8497757377	 0.129381
H	-5.5949606276	-5.8900173847	 0.025310389	 0.295291
