22
gdb 97052	3.63999	1.00197	0.9663	2.68	85.59	-0.2395	0.0366	0.2761	1375.6406	0.193149	-404.380191	-404.370223	-404.369279	-404.41567	36.664	
C	-0.0568903443	 1.4417859244	-0.0359182213	-0.333491
N	-0.0340079528	-0.0121424113	-0.0476035206	-0.331347
C	-1.1145144451	-0.6561842174	-0.0111925579	 0.432858
C	-1.2482584034	-2.1630342704	-0.039329594	-0.347031
C	-2.6597614575	-2.4148844182	 0.532496632	 0.27117
C	-3.3297015203	-3.6751707263	-0.018932048	-0.448616
C	-2.6167258951	-2.4522270226	 2.0696790646	-0.425825
C	-3.3645255417	-1.1269165567	 0.0533461065	-0.102769
O	-2.3691969128	-0.0966060598	 0.0668555012	-0.25146
H	 0.4981627099	 1.8012000448	 0.8386222323	 0.12102
H	 0.4752138147	 1.8138812661	-0.9191570661	 0.121236
H	-1.0602540071	 1.8815573447	-0.0193035537	 0.120781
H	-1.1828839548	-2.5095990242	-1.0781878506	 0.118218
H	-0.4424620042	-2.6407859002	 0.5197923784	 0.127896
H	-2.7933910569	-4.5750731044	 0.2996885154	 0.121711
H	-4.3613798742	-3.763941825	 0.3401427517	 0.116331
H	-3.3537363938	-3.669190186	-1.1138166586	 0.114632
H	-2.168616735	-1.5409095802	 2.4780567424	 0.131534
H	-3.6246676502	-2.5489556444	 2.4873215692	 0.113196
H	-2.0245198406	-3.3034989527	 2.4209991993	 0.117422
H	-3.7524701783	-1.2401210368	-0.9681908622	 0.100206
H	-4.1841486764	-0.8106890735	 0.7048094099	 0.112327
