16
gdb 31215	2.25981	1.49174	0.91201	2.7764	81.83	-0.1981	0.015	0.2131	1221.1071	0.124301	-400.751976	-400.743285	-400.742341	-400.785615	32.328	
O	-0.1026509866	 1.3840515997	 0.4091779841	-0.428887
C	-0.0118400915	 0.0630231517	-0.1213282155	-0.221448
C	-1.3662158709	-0.5548792816	-0.0314762752	 0.225395
C	-1.7663318792	-1.8827747319	 0.0416573514	 0.079119
C	-3.2005046115	-1.8827330908	 0.0541365434	-0.271744
C	-3.6124050401	-0.5766314112	-0.0054313496	-0.079898
N	-2.4904764127	 0.2145062255	-0.0698129794	-0.272947
C	-0.9050866488	-3.0025403851	 0.0896997288	 0.239379
C	-0.1687945735	-3.9564728943	 0.1324716018	-0.47036
H	 0.7113120783	 1.8484289364	 0.1943565005	 0.294625
H	 0.3301069639	 0.0950518502	-1.1692504999	 0.108983
H	 0.7055785178	-0.558281782	 0.4330119725	 0.122649
H	-3.8307974353	-2.7560275444	 0.1059174435	 0.102539
H	-4.599158549	-0.143343348	 0.0018918538	 0.12219
H	-2.4552295689	 1.219787904	-0.0474660924	 0.271912
H	 0.4753567177	-4.798959658	 0.1709133522	 0.178496
