23
gdb 104438	2.85971	1.17622	1.06144	2.5407	81.21	-0.2402	0.0701	0.3103	1260.8525	0.206502	-425.434666	-425.425265	-425.424321	-425.468178	36.547	
C	-0.1009574005	 1.6117261187	 0.0314976525	-0.424581
C	-0.0181540044	 0.0751642997	 0.0007389333	 0.256351
C	-1.4287282082	-0.524061426	 0.0192860057	-0.110656
O	-2.0905061508	-0.120435497	 1.2111096403	-0.427332
C	 0.7126619538	-0.4289075061	-1.265920263	-0.236283
C	 2.2151288698	-0.1117755009	-1.2293487134	-0.218516
C	 2.8185416939	-0.5806855225	 0.09538009	-0.06182
O	 2.1266020317	-0.0368369947	 1.2057717176	-0.248533
C	 0.7658832213	-0.4319937119	 1.2323213327	-0.087424
H	 0.8844532536	 2.0543098445	 0.1923465808	 0.124209
H	-0.5061210646	 2.0020382458	-0.9091319029	 0.099055
H	-0.7567331554	 1.9359274099	 0.8431110076	 0.131752
H	-1.977732024	-0.1838729514	-0.8742086888	 0.083202
H	-1.3604734794	-1.6230069002	-0.0345844518	 0.080988
H	-2.9795865813	-0.485211049	 1.2024927121	 0.288805
H	 0.5859294446	-1.5188749872	-1.3366105873	 0.087347
H	 0.2504905003	-0.0017622918	-2.163989524	 0.091052
H	 2.7293066812	-0.6012558667	-2.0646343168	 0.092037
H	 2.3810714166	 0.9656028902	-1.3380722492	 0.107833
H	 2.7969069457	-1.6844302331	 0.1449477323	 0.079322
H	 3.8602156663	-0.2615504502	 0.1955990027	 0.101742
H	 0.3418309435	-0.0260346518	 2.1527600932	 0.118992
H	 0.6970863464	-1.5337489183	 1.2822859765	 0.072455
