17
gdb 82128	3.42268	1.17034	1.00629	2.1299	72.82	-0.2516	0.0572	0.3088	1182.07	0.13415	-421.744476	-421.73598	-421.735035	-421.778037	32.106	
O	 0.2141540318	 1.3643904915	-0.0490667048	-0.423343
C	 0.0525098744	-0.0232686551	-0.0322024855	 0.116237
C	 0.344388181	-0.7137106012	 1.3101488488	-0.021082
O	-0.5825810777	-0.1163378733	 2.2361336242	-0.26248
C	-1.0380763176	-1.2058177522	 1.4132756728	 0.000933
C	-1.4228606418	-0.6215038644	 0.0514434648	-0.067015
C	-2.6120244492	 0.3431592765	 0.0013064858	-0.362038
C	-2.8503222819	 0.8792735612	-1.333287784	 0.308888
C	-3.0429255553	 1.2909731388	-2.4456623954	-0.449131
H	-0.0945075722	 1.6842604733	 0.8082595245	 0.292655
H	 0.6102370617	-0.430039749	-0.8778787831	 0.098529
H	 1.2714691972	-1.0971263019	 1.7201083222	 0.110537
H	-1.4296167734	-2.0752299113	 1.9285776341	 0.109699
H	-1.5434025778	-1.4118735212	-0.6948961474	 0.091885
H	-3.5114721469	-0.1826307421	 0.3489019867	 0.129701
H	-2.4457945349	 1.161451525	 0.7102027204	 0.131715
H	-3.2107168976	 1.6734528556	-3.4216768142	 0.194311
