22
gdb 82940	2.08863	1.77394	1.43035	1.6371	84.88	-0.2145	0.0799	0.2944	1079.1898	0.195477	-367.174149	-367.165699	-367.164755	-367.206508	33.951	
C	-0.0828371606	 1.5852849505	 0.0154509204	-0.433115
C	 0.0591031742	 0.0727654055	 0.0714907546	-0.053094
C	 1.2951864426	-0.7235065851	-0.2947847199	-0.114241
C	 2.6883624907	-0.1005350029	-0.1709640507	-0.192538
N	 3.0484950868	-0.0032463373	 1.2693088039	-0.095683
C	 2.3713649084	 1.0564642846	 2.0291503862	-0.26702
C	 1.8281638419	-0.3272123084	 2.0375578703	-0.084363
C	 0.7263873353	-0.814549857	 1.1135365585	 0.329366
C	-0.0305944361	-2.0303098893	 1.6067309338	-0.486093
H	 0.8567232069	 2.1013450936	-0.1953453076	 0.126933
H	-0.7712956339	 1.8512351331	-0.7932051197	 0.11488
H	-0.4935482708	 1.9988267565	 0.9424372141	 0.124181
H	-0.845764649	-0.4105525557	-0.2942782222	 0.082223
H	 1.1845829263	-1.5448797453	-0.9970531416	 0.080657
H	 3.4205916548	-0.7557409469	-0.6529643873	 0.110233
H	 2.7765370476	 0.8815875299	-0.6523756111	 0.102897
H	 2.9330316412	 1.4136155269	 2.8898203878	 0.108714
H	 1.841047372	 1.8362733515	 1.5001611634	 0.110486
H	 1.9750446106	-0.93747653	 2.9263942861	 0.082737
H	-0.6681594566	-1.7838718114	 2.4642047166	 0.11879
H	-0.6759270992	-2.438433088	 0.8231405157	 0.114113
H	 0.6557790967	-2.8249956744	 1.9216077285	 0.119937
