22
gdb 113894	4.02145	0.70636	0.64734	2.0714	83.88	-0.2375	-0.0083	0.2292	1814.473	0.191727	-404.352356	-404.341648	-404.340704	-404.389924	37.699	
C	-0.0464772383	 1.5086567273	-0.4089364358	-0.37609
C	-0.0611377512	 0.1875317006	 0.3683124578	-0.18115
C	-1.3902447187	-0.5257278577	 0.2483131274	-0.010729
N	-1.6297917975	-1.2972280715	-0.9854617069	-0.342169
C	-1.5773648415	-1.9994699035	 0.3100626166	-0.010199
C	-0.4542758285	-2.9914967229	 0.4956231214	-0.321483
C	-0.8832961249	-4.4333415237	 0.2229682092	 0.389949
C	 0.2407974781	-5.4383546597	 0.0501915881	-0.475496
O	-2.046865909	-4.7573748724	 0.1617592109	-0.295356
H	 0.9200198102	 2.0135445097	-0.3179704767	 0.109918
H	-0.2389264501	 1.3289446891	-1.4711514627	 0.129801
H	-0.8168649112	 2.1950209779	-0.039569987	 0.110229
H	 0.7382031639	-0.4617189743	-0.0023780881	 0.09895
H	 0.1483473067	 0.3754009353	 1.4297266928	 0.093595
H	-2.2308098488	 0.059446236	 0.6247696584	 0.077294
H	-2.5917280254	-1.1980835871	-1.2968485178	 0.232107
H	-2.5222378286	-2.350318169	 0.7167082188	 0.100938
H	 0.3979746012	-2.7423212897	-0.1439249065	 0.124816
H	-0.0771898563	-2.9679308953	 1.5297476355	 0.123796
H	 0.9840106103	-5.3386069596	 0.8486301852	 0.133048
H	-0.1616199861	-6.451945337	 0.0351999523	 0.141732
H	 0.7617660656	-5.2421214825	-0.8945421429	 0.146498
