23
gdb 119419	3.11303	0.92408	0.82813	1.0674	86.85	-0.2375	0.0819	0.3194	1527.9671	0.204659	-388.269614	-388.259726	-388.258782	-388.304575	37.417	
C	-0.1135109042	 1.5930976271	-0.0876873094	-0.379832
C	-0.1298332497	 0.0636204463	-0.1463132708	-0.158169
C	 0.8904561401	-0.5096714401	-1.1421017731	-0.30274
C	 0.903282774	-2.0118989395	-1.1913454266	 0.329712
C	-0.1081332092	-2.8208524771	-1.9859545464	-0.392442
C	 1.3591080762	-2.9713030788	-2.2843128952	 0.337882
O	 1.9028315925	-2.6391229086	-3.5148023695	-0.46581
C	 2.0328977186	-3.8894332709	-1.261396377	-0.284858
C	 1.523544251	-2.935658214	-0.1280118478	-0.278864
H	 0.870622221	 1.967529265	 0.2158722539	 0.112977
H	-0.3429207623	 2.0292227093	-1.0665513763	 0.11285
H	-0.8493751172	 1.9744831426	 0.6272944914	 0.109124
H	 0.0718704155	-0.3440668936	 0.8527868868	 0.096475
H	-1.13269365	-0.2875786001	-0.4200165954	 0.096841
H	 0.6827567918	-0.1187802031	-2.1467301432	 0.100153
H	 1.8940630484	-0.147218733	-0.8771083621	 0.092084
H	-0.6816999748	-3.6219863866	-1.5221612508	 0.095974
H	-0.651906073	-2.2452394406	-2.7296138881	 0.107067
H	 1.542895372	-3.2374988829	-4.1785403221	 0.28345
H	 1.6975373203	-4.9322435819	-1.2326497571	 0.086897
H	 3.1211953469	-3.8682092191	-1.3537950992	 0.107675
H	 2.3428668257	-2.4655141012	 0.4223014094	 0.100559
H	 0.8233158864	-3.3726939792	 0.5912861888	 0.092995
