18
gdb 39152	2.94439	2.0937	1.48802	3.6124	74.52	-0.2442	0.0062	0.2505	898.574	0.151598	-401.937913	-401.931596	-401.930652	-401.968378	26.397	
C	-0.0741031745	 1.545263699	-0.1399824459	-0.263921
C	 1.4935838535	 1.6267073255	 0.0439574531	-0.054259
C	 2.1114229753	 2.3046368521	 1.2958327087	-0.09702
O	 2.0014984632	 1.3482854493	 2.397563746	-0.259472
C	 1.1846404572	 0.3793705285	 1.9152449881	 0.365049
N	 0.1174602127	-0.0554549937	 2.4411039229	-0.274776
C	-0.6711374817	-0.6277007343	 1.3189570784	-0.174311
C	-0.0375665082	-0.0262318957	 0.0360674189	-0.03338
C	 1.432095589	 0.1467507697	 0.4357464505	-0.123265
H	-0.6512690344	 2.0747973281	 0.6220256407	 0.119244
H	-0.4143866133	 1.87436807	-1.1233414717	 0.107018
H	 2.0240430229	 1.901364091	-0.8684267923	 0.081102
H	 3.1730509027	 2.5308131587	 1.1585824251	 0.118259
H	 1.5855954333	 3.2182286842	 1.5930742826	 0.121255
H	-0.6396845961	-1.7259261074	 1.3106820251	 0.104606
H	-1.7179362912	-0.3358930747	 1.4593375353	 0.111349
H	-0.264851302	-0.5747137735	-0.8788571227	 0.070234
H	 2.2250290116	-0.5687865568	 0.207547907	 0.082287
