18
gdb 18806	3.00077	2.89365	2.32359	1.5736	69.08	-0.2308	0.084	0.3148	711.5188	0.157883	-347.780267	-347.774659	-347.773715	-347.809521	24.299	
C	-0.0676574377	 1.4905563234	 0.2100271079	-0.248865
C	 1.4730033952	 1.4657876693	-0.0269357463	-0.067709
C	 2.199568892	 1.1984916974	 1.2994979111	-0.196299
C	 1.4816019417	 0.031533423	 2.0271937815	-0.221141
C	 0.8621996564	-0.8451706353	 0.9431882229	 0.099129
O	 1.8704184749	-1.0292763615	-0.1024978525	-0.30413
C	 1.2824726864	 0.0854401316	-0.786790392	 0.131567
C	-0.0561446145	-0.0286844566	-0.0379819351	-0.071966
H	-0.4270651489	 1.8745791089	 1.1698806745	 0.093728
H	-0.6037608302	 2.0031940779	-0.5938529677	 0.099924
H	 1.9135187237	 2.2921688153	-0.5879076034	 0.063126
H	 3.2372565686	 0.9208481252	 1.0956300923	 0.111825
H	 2.2152554497	 2.1016021459	 1.9182096117	 0.091973
H	 2.1876208777	-0.5497575927	 2.6282088466	 0.103593
H	 0.701415635	 0.3932207832	 2.7068439691	 0.099666
H	 0.4795656342	-1.8035046509	 1.3033290946	 0.073411
H	 1.4301765529	 0.0670600463	-1.8681595205	 0.073086
H	-0.9308523169	-0.5568929604	-0.4181233047	 0.069083
