18
gdb 53752	3.82701	0.74563	0.66144	2.3125	83.37	-0.2451	-0.0512	0.1939	1700.7608	0.145029	-401.902018	-401.892122	-401.891178	-401.939089	34.007	
C	-0.0567023062	 1.1655521055	-0.015712744	-0.478252
C	-0.3596161537	-0.1989955809	 0.569115241	 0.251261
O	 0.3347903992	-0.7267028371	 1.4118058194	-0.276558
C	-1.5504674435	-0.8486610565	 0.0532067492	 0.013032
C	-2.5439549171	-1.3833249949	-0.3814844478	 0.059331
C	-3.7352243099	-2.0835814458	-0.8684056591	-0.286571
N	-4.0221913598	-3.404353129	-0.3034793836	-0.07482
C	-2.9058525622	-4.2845017422	 0.0292338565	-0.219728
C	-3.7187691859	-3.6483591131	 1.1036400869	-0.219733
H	 0.8531727058	 1.5623250793	 0.4367928559	 0.144514
H	 0.0649891029	 1.0910430349	-1.1017467236	 0.14713
H	-0.8948317548	 1.8471000787	 0.1656769052	 0.147191
H	-4.6129336276	-1.4490946273	-0.6904876622	 0.14677
H	-3.6547736937	-2.198911385	-1.9568928289	 0.146758
H	-3.0489744731	-5.3288065608	-0.2319465872	 0.119679
H	-1.8943845421	-3.9064367713	-0.1008113978	 0.130128
H	-3.2356968943	-2.8567993034	 1.6719565587	 0.130189
H	-4.4687559642	-4.2177836912	 1.6445148614	 0.119682
