20
gdb 82392	2.43567	1.70397	1.1262	2.3382	80.57	-0.2335	0.0279	0.2614	1120.4789	0.172803	-403.14299	-403.134689	-403.133745	-403.175639	32.765	
C	-0.6700035763	 1.4757663288	 0.100297041	-0.468416
C	-0.1737031269	 0.0570105474	 0.0069344455	 0.293389
C	-0.0201897181	-0.567264943	-1.1625291075	-0.153156
C	 0.4459347973	-1.9825005816	-1.3536838619	-0.270536
C	 0.9421191807	-2.6376967534	-0.0857241014	-0.028041
N	 2.0715000659	-1.9836957174	 0.6027526353	-0.348387
C	 0.7331664842	-1.9869984806	 1.2305388353	-0.065216
C	 0.129162866	-0.5997069798	 1.3411942449	 0.037536
O	 0.9875503923	 0.2224663232	 2.1349184102	-0.438592
H	 0.0472170971	 2.1025669051	 0.6385166795	 0.137672
H	-0.8451955039	 1.9047482964	-0.8896658751	 0.111621
H	-1.6098764587	 1.527044547	 0.666173126	 0.116703
H	-0.2613185947	-0.0277257305	-2.0769276602	 0.077371
H	-0.3792425426	-2.5850563207	-1.7615938384	 0.109341
H	 1.2371040031	-2.0150387927	-2.1157611034	 0.113203
H	 0.9493386378	-3.7256919496	-0.1010164836	 0.08355
H	 2.6639254598	-2.6843376515	 1.0390528607	 0.233224
H	 0.594267076	-2.6178554944	 2.104779995	 0.086777
H	-0.8041310188	-0.6648715586	 1.9169769829	 0.084701
H	 1.8596984398	 0.1244283557	 1.7286578351	 0.287254
