15
gdb 125648	3.44457	1.65018	1.12344	4.6309	73.12	-0.2132	0.0158	0.229	1019.6027	0.115764	-413.017915	-413.010369	-413.009424	-413.049893	28.067	
C	-0.0177495848	 1.4908982346	-0.0451068578	-0.495513
C	 0.0027927246	 0.000483473	 0.0482364609	 0.227338
N	-0.0054332293	-0.7487372822	-1.0521552965	-0.291449
N	 0.0177518819	-2.0653973388	-0.6452408181	-0.371694
C	 0.0403900066	-2.1257148232	 0.7013696874	 0.458097
C	 0.0320076655	-0.8351970617	 1.1998540066	 0.170495
N	 0.0548844467	-0.8542281832	 2.585287245	-0.343782
C	 0.0761047137	-2.1244245083	 2.8884733668	-0.012208
N	 0.0687849325	-2.9717989826	 1.7755488851	-0.415234
H	 0.8649863349	 1.9282750134	 0.4337146632	 0.13354
H	-0.0383376148	 1.7994622955	-1.0921838775	 0.136635
H	-0.8957208517	 1.9057714019	 0.4616875703	 0.133541
H	 0.0164229402	-2.787381583	-1.3416911276	 0.270251
H	 0.0976497041	-2.5368193837	 3.8869015083	 0.130933
H	 0.0819113099	-3.9764065117	 1.7909452839	 0.26905
