19
gdb 85738	3.36404	1.19011	1.02089	2.0454	80.95	-0.252	0.0529	0.3049	1219.0239	0.158758	-385.855249	-385.846753	-385.845808	-385.888252	32.878	
C	 0.0068173419	 1.5696558118	 0.0344696205	-0.407088
C	 0.0282830255	 0.0398193271	 0.0154166027	-0.006085
C	 0.7910805593	-0.5586486536	-1.1928163118	-0.240244
C	 1.3089571832	-1.950317293	-0.7235586281	-0.204583
C	 2.4856495962	-2.425882698	-1.4376477082	 0.320736
C	 3.4582830203	-2.8154240844	-2.0266954732	-0.451061
C	 1.5068347238	-1.7519277268	 0.7800973774	 0.036199
O	 2.164370527	-0.5298469956	 1.1216921525	-0.255969
C	 0.7302095157	-0.5871243222	 1.2094515317	 0.039962
H	 1.02587217	 1.9630814153	 0.1041118888	 0.133797
H	-0.4512904516	 1.9695556932	-0.8757445699	 0.116099
H	-0.5627340905	 1.949376127	 0.8892564617	 0.112998
H	-1.0053559668	-0.3352212542	 0.0172039618	 0.075464
H	 0.1714135618	-0.6357899739	-2.0885707751	 0.106718
H	 1.649571445	 0.0716282705	-1.433498611	 0.128955
H	 0.5055639778	-2.6928615251	-0.8371086499	 0.105149
H	 4.3204742439	-3.1572964554	-2.5434656236	 0.194204
H	 1.7291016648	-2.6035947719	 1.4173939531	 0.101819
H	 0.3220196828	-0.4878045708	 2.2128675305	 0.092931
