19
gdb 107220	3.89532	1.22348	1.11337	1.8417	73.69	-0.2509	0.0726	0.3235	1137.7854	0.160274	-423.000262	-422.992434	-422.99149	-423.032711	31.029	
O	 0.0456386136	 1.3419541449	-0.3766605735	-0.417477
C	 0.0603373837	 0.0250358254	 0.1533281425	-0.14814
C	-1.3290660091	-0.547159143	 0.2472000618	 0.373869
C	-2.3634013386	 0.0428141024	 1.2049485186	-0.295986
C	-3.3912744896	-1.0659983049	 1.4569378175	-0.047728
C	-4.2129102924	-1.6047611323	 0.3163849359	-0.281974
C	-2.9445405325	-2.3194273147	 0.7195218765	-0.061456
C	-1.6953891129	-1.9456405908	-0.0443613118	-0.043127
O	-1.8852494465	-0.9215675707	-1.0360099598	-0.303387
H	-0.3696815447	 1.2837109851	-1.2447560333	 0.292742
H	 0.6854992516	-0.6470249031	-0.4532670989	 0.092524
H	 0.510977216	 0.1021290933	 1.1485178872	 0.109727
H	-1.86517872	 0.3108275669	 2.1434013463	 0.106187
H	-2.8034579753	 0.9599857186	 0.8014815137	 0.119663
H	-3.8130935911	-1.1380843336	 2.4532421337	 0.086635
H	-5.1517911814	-2.084363356	 0.5715924068	 0.106998
H	-4.2049479301	-1.0786770205	-0.6300477846	 0.133558
H	-2.9911781531	-3.3057132441	 1.1650841547	 0.08503
H	-0.9679773474	-2.7099266729	-0.3062366132	 0.092341
