18
gdb 62893	3.22728	1.51063	1.18387	2.5175	72.83	-0.235	0.0635	0.2985	1060.3189	0.145748	-438.972015	-438.963768	-438.962823	-439.00417	32.668	
C	-0.0543168897	 1.5640738627	-0.0556081456	-0.484293
C	-0.0442719701	 0.0465787097	-0.0580193489	 0.435098
O	-1.2627606072	-0.4966659342	-0.4989653945	-0.474449
C	 1.2152153583	-0.6763530392	-0.6249915697	-0.11997
O	 1.9755345464	-0.1666601863	 0.5402514014	-0.312465
C	 0.7087777141	-0.6775548675	 1.1233710699	-0.129935
C	 0.8566154635	-1.9092841542	 0.2202061132	 0.486668
C	 0.1864810278	-3.1879631031	-0.0202004142	-0.322594
N	 1.5860623552	-3.1204689192	 0.488257823	-0.403963
H	 0.9127412927	 1.9580645274	 0.2549575472	 0.15147
H	-0.2958730692	 1.9398283281	-1.0550463043	 0.124468
H	-0.8190238007	 1.9376567841	 0.6375411871	 0.108466
H	-1.9770123073	 0.0449809174	-0.1488921789	 0.28373
H	 1.6790691039	-0.5992318429	-1.6098088514	 0.09095
H	 0.5836489271	-0.6046496368	 2.2038242491	 0.094005
H	-0.5363147378	-3.5780968235	 0.6904552078	 0.12166
H	 0.0135693051	-3.4856259724	-1.0514009417	 0.116519
H	 2.254609428	-3.3225945202	-0.2509158695	 0.234634
