15
gdb 48976	3.54785	1.59954	1.24379	1.6336	71.26	-0.239	-0.0693	0.1697	955.9126	0.111345	-416.66882	-416.661644	-416.6607	-416.700525	27.589	
O	-0.1923013164	 0.3802413364	-0.7234476441	-0.262931
C	 0.2082520732	 1.0378928854	 0.2092716596	 0.063222
C	 1.3009394686	 2.0367006561	 0.1209534875	 0.193846
C	 1.671544861	 2.9803349376	 1.2932264673	-0.248236
N	 2.8682682201	 3.6696809824	 0.7475812139	-0.149662
C	 2.7924968553	 3.4948400183	-0.5093812029	 0.122335
N	 3.7093347694	 2.4883751728	-1.0910231017	-0.346046
C	 2.3674626355	 1.7079764774	-1.0738361152	-0.032823
C	 1.4856327231	 2.8704065853	-1.1152285528	-0.185686
H	-0.2313067585	 0.9163669193	 1.2246301738	 0.085202
H	 0.8229354737	 3.6263649576	 1.5648123525	 0.119712
H	 2.0060773313	 2.4659295749	 2.1999083815	 0.136779
H	 3.8361673021	 2.6536883917	-2.0965786289	 0.233195
H	 2.2964147915	 0.7443172305	-1.566451897	 0.145596
H	 0.7480390301	 3.2360691643	-1.8171171032	 0.125497
