19
gdb 86037	3.59627	0.95263	0.89292	4.8309	76.76	-0.2353	0.0313	0.2666	1363.008	0.157926	-419.193488	-419.184116	-419.183172	-419.227913	34.522	
C	-0.0395821809	 1.4504180108	 0.1808887559	-0.321818
N	 0.1389741831	 0.0179661574	 0.1018911334	-0.087322
C	 1.142711358	-0.5281346359	-0.8326128891	-0.229244
C	 1.3850476433	-1.6705066991	 0.1949039009	 0.408597
O	 0.5896610692	-2.809336777	-0.0398746126	-0.478634
C	 2.8130143388	-2.1705420938	 0.3980057083	-0.384898
C	 2.9568538057	-2.9509371556	 1.6267585791	 0.275945
N	 3.076293199	-3.5455091165	 2.6098970557	-0.311234
C	 0.7753061745	-0.6885641886	 1.2325318479	-0.223869
H	 0.9031572758	 1.991078561	 0.3889451505	 0.094068
H	-0.4471376823	 1.8269130573	-0.7630189937	 0.12584
H	-0.7528839397	 1.6917935853	 0.9755585591	 0.127897
H	 0.7635000346	-0.8203792276	-1.817358614	 0.109357
H	 2.0250597604	 0.1231033518	-0.9570895892	 0.082914
H	-0.3241445284	-2.510035438	-0.1155580192	 0.293571
H	 3.0951543238	-2.7956365835	-0.4562274751	 0.162212
H	 3.5068753593	-1.3255543451	 0.4371483365	 0.148199
H	 1.5479130043	-0.0902788258	 1.7443788168	 0.090551
H	 0.0924471314	-1.110095087	 1.9767806488	 0.117867
