18
gdb 74196	2.2956	1.59081	0.99775	5.2648	82.99	-0.2126	-0.0235	0.1891	1171.6857	0.14908	-401.984566	-401.97635	-401.975406	-402.017219	32.166	
N	 0.0177660103	 1.3734167213	 0.2620202917	-0.549285
C	-0.0063593288	 0.0224816277	 0.0058509092	 0.369227
C	-1.1835125211	-0.6556538267	-0.0336577869	-0.259013
C	-1.4214325597	-2.0888864612	-0.1446676686	 0.373049
O	-2.5580726446	-2.5328898846	-0.1771080322	-0.354521
C	-0.231129068	-3.0637484026	-0.1818841625	-0.371752
C	 0.7873181325	-2.7436531832	-1.244303159	-0.053899
C	 1.5052869525	-1.6248203966	-1.2348518531	-0.059891
C	 1.3748425072	-0.592412595	-0.1378019841	-0.360501
H	 0.799123618	 1.9077578874	-0.0820849867	 0.254872
H	-0.8636048931	 1.8638904549	 0.246616159	 0.259256
H	-2.104777458	-0.0825552223	 0.0493475268	 0.073483
H	 0.2474089554	-3.0308633204	 0.8091959156	 0.118914
H	-0.6514469414	-4.0620603452	-0.3085849824	 0.119651
H	 0.9054775164	-3.4568428901	-2.0548003898	 0.101424
H	 2.2220293605	-1.4208868337	-2.0241768921	 0.095068
H	 2.1031005328	 0.210331906	-0.2897685009	 0.100086
H	 1.6393635188	-1.0473604756	 0.8292983261	 0.143831
