15
gdb 45663	3.23032	1.82164	1.44039	2.5802	70.44	-0.247	-0.0377	0.2093	889.906	0.114375	-416.750323	-416.743937	-416.742992	-416.781001	25.712	
O	-0.083334125	-0.0804975663	 0.1518200713	-0.2967
C	-0.059521115	 1.1202872015	 0.1277786694	 0.377486
C	-1.3083016102	 2.0325814376	-0.0209260607	-0.27234
N	-1.1484439202	 2.9400939967	 1.1152900095	-0.210299
C	-0.0231765145	 3.5154090901	 1.0963938226	 0.220673
C	 0.9994471813	 3.5684355954	 2.2047659069	-0.287901
C	 1.87730417	 2.9091946938	 1.1162969995	-0.051734
C	 1.2202642278	 1.9496269571	 0.1318394583	-0.131338
N	 0.9900568098	 3.4109376039	 0.0182543665	-0.155443
H	-1.2739775498	 2.5212126277	-1.0038907227	 0.138699
H	-2.2251060096	 1.4516584582	 0.0723149959	 0.135793
H	 1.4125007496	 4.5575073845	 2.4202641072	 0.140289
H	 0.7458986877	 3.0383740059	 3.1221894291	 0.139856
H	 2.9534334737	 3.0478827397	 1.0530154179	 0.119694
H	 1.9333796743	 1.5568340542	-0.5922245309	 0.133265
