18
gdb 34929	4.7057	0.99159	0.91695	1.9948	84.94	-0.2305	0.0359	0.2664	1302.0002	0.146692	-364.709689	-364.70159	-364.700646	-364.742171	31.875	
C	-0.1103873986	-1.0954622537	-0.0137605014	-0.38518
C	-0.0235899808	 0.1025347739	 0.0347381875	 0.306
C	 0.0413753192	 1.5344537763	 0.109010375	-0.235809
C	 0.6439276535	 2.1942898146	 1.302770999	-0.121057
N	 1.4043906354	 2.1293742516	-0.0013993914	-0.132347
C	 1.1803730965	 3.6164304539	-0.1570123934	-0.251046
C	 0.4842981335	 3.6900462748	 1.2089076099	 0.372316
C	-0.6419388815	 4.5564490563	 1.691710851	-0.326854
C	 0.7384996554	 4.6860130942	 2.2975140778	-0.337392
H	-0.1762642815	-2.1539091083	-0.065810353	 0.193356
H	-0.7710453764	 2.0578144248	-0.3938678611	 0.11106
H	 0.9500278807	 1.6239885382	 2.1743147601	 0.107512
H	 2.1444444174	 4.1292766026	-0.1952255031	 0.119477
H	 0.5920502226	 3.8803034949	-1.0426820136	 0.108288
H	-0.9873015761	 5.3504587362	 1.0373543911	 0.116694
H	-1.4235683284	 4.097281854	 2.2882552304	 0.118846
H	 0.8903087412	 4.3123350217	 3.3051818409	 0.119337
H	 1.326365828	 5.565826324	 2.0551315943	 0.1168
