19
gdb 41786	2.39128	1.86025	1.41396	2.5115	75.35	-0.2382	-0.006	0.2322	986.9059	0.161563	-422.990578	-422.982958	-422.982014	-423.022724	29.421	
C	 0.2167485602	 1.6362225416	 0.1018792958	-0.082533
O	 1.4551438063	 1.4757038075	-0.6220685982	-0.284181
C	 1.2218328662	 0.0619318711	-0.7965675033	 0.10391
C	 2.3979051471	-0.8472489781	-0.4624271959	-0.083177
O	 3.1491922003	-0.5879222428	 0.7050788323	-0.256153
C	 2.4879258509	-0.0563536426	 1.8469915029	-0.108733
C	 1.1632343843	-0.7006219384	 2.1992212572	-0.09875
C	 0.0639571259	-0.6138239144	 1.4478625286	-0.059707
C	-0.029059862	 0.1004349299	 0.1284497942	-0.118144
H	 0.3650053867	 2.1168536915	 1.0744573656	 0.109444
H	-0.5215991971	 2.2066102865	-0.4758219135	 0.10295
H	 0.9426872162	-0.1622639016	-1.8377666438	 0.075747
H	 1.9916166248	-1.8738521237	-0.4496515877	 0.092218
H	 3.1249221829	-0.8004543194	-1.2813007291	 0.11502
H	 3.1973262428	-0.1989349965	 2.6668412161	 0.107001
H	 2.3555929122	 1.0255320231	 1.715710269	 0.117237
H	 1.1190587885	-1.259622015	 3.1301164132	 0.095676
H	-0.8427284292	-1.1062008596	 1.791553875	 0.09182
H	-0.9452208071	-0.194305709	-0.3861272585	 0.080353
