23
gdb 107408	2.98678	1.1599	1.04313	1.4134	85.22	-0.2519	0.0741	0.326	1290.6304	0.206584	-388.299721	-388.290611	-388.289667	-388.333168	35.963	
C	-0.0126521371	 1.5312793886	 0.4240745679	-0.374825
C	-0.0097640273	 0.0334000094	 0.091139787	-0.279353
C	-1.3814292057	-0.5171706009	-0.2367010357	 0.386337
C	-2.3067615804	-0.932935317	 0.8858897888	-0.333056
C	-1.7360294933	-1.9789488491	-0.0459071295	-0.09207
C	-2.594263772	-2.4296274651	-1.2163032588	-0.245631
C	-3.1110535133	-1.1287476957	-1.8792120291	 0.089049
O	-4.3651244038	-0.6978958703	-1.3459075747	-0.426595
C	-2.0622599839	-0.0553047051	-1.5252028555	-0.26989
H	 0.9931614642	 1.8820101492	 0.676012858	 0.107032
H	-0.3698180636	 2.1281347315	-0.4216275841	 0.116858
H	-0.6675745586	 1.7408761154	 1.2762427713	 0.118436
H	 0.6679044539	-0.1503430267	-0.7546713841	 0.087869
H	 0.4036304128	-0.5245716151	 0.9406624929	 0.090127
H	-1.8972792531	-0.9017120604	 1.8912239334	 0.097181
H	-3.360424949	-0.691577869	 0.8136804941	 0.127266
H	-1.0051779667	-2.6752207053	 0.3533196266	 0.073412
H	-1.9806465237	-2.9903847195	-1.9323369863	 0.096482
H	-3.4278715982	-3.08312295	-0.928782095	 0.085585
H	-3.2045729488	-1.2494065012	-2.9675855192	 0.064329
H	-4.9971439315	-1.4136186719	-1.4682055782	 0.278916
H	-2.5464949338	 0.9229434685	-1.4490736107	 0.111525
H	-1.3137968072	 0.0077778797	-2.3251068789	 0.091019
