16
gdb 39517	3.10622	2.10834	1.60816	1.358	73.27	-0.2359	-0.0205	0.2155	841.4506	0.128677	-396.89731	-396.891287	-396.890343	-396.927363	25.31	
C	-0.0053622125	 1.5617098132	 0.0423051478	-0.186198
N	 1.4121414643	 1.973879731	 0.0559001768	-0.214778
C	 2.0879011249	 0.951612707	-0.2936863422	 0.234138
N	 3.3696370705	 0.6658160615	 0.240480591	-0.35015
C	 3.0850249952	-0.0841903571	 1.4246810892	 0.074784
N	 2.0114990079	-0.724764876	 1.6767840264	-0.242258
C	 1.0462282687	-0.902414358	 0.6153749341	 0.021639
C	 0.0129850196	 0.0419612762	-0.0915579987	-0.084278
C	 1.3387438623	-0.2810910647	-0.7164633015	-0.177276
H	-0.4501613192	 1.9183878271	 0.9776198326	 0.127775
H	-0.5675166827	 2.0208169775	-0.7824748703	 0.114484
H	 3.919914058	 1.4912110369	 0.4541838722	 0.252819
H	 3.8842076216	-0.0555582937	 2.1637784499	 0.124137
H	 0.6629892302	-1.9193730385	 0.619616517	 0.10636
H	-0.8927379834	-0.4698291487	-0.3955979244	 0.095147
H	 1.5701826046	-0.8141638138	-1.6308374899	 0.103653
