17
gdb 50220	4.27196	1.17347	1.06944	2.01	72.18	-0.2396	-0.0278	0.2118	1114.8837	0.136384	-421.772564	-421.76549	-421.764546	-421.804679	27.437	
O	 0.0171516393	-0.1146576216	 0.0559095008	-0.250047
C	 0.0332694741	 1.0885626519	 0.0456026367	 0.160713
C	 1.2775191213	 1.9430295096	 0.0379444143	-0.100257
C	 1.2613718018	 3.0259189684	-1.0984270847	-0.29085
C	 1.383086858	 4.3013666315	-0.2766927911	-0.02533
C	 2.3146422943	 4.0538124316	 0.9455855145	 0.044784
O	 1.5183623351	 4.9565101528	 1.7854579182	-0.312106
C	 0.5398527454	 4.1686063099	 1.0260367162	 0.049386
C	 1.3623356975	 2.8634868194	 1.262641265	-0.05316
H	-0.9184487931	 1.6740143184	 0.0432081854	 0.069297
H	 2.1411781808	 1.2761145294	-0.0286827296	 0.097304
H	 2.0898196437	 2.8853985947	-1.797521555	 0.120186
H	 0.3340685188	 2.9995526361	-1.6819467251	 0.112631
H	 1.4225714107	 5.2716812731	-0.7692425117	 0.086705
H	 3.4012967382	 4.1060692262	 1.0195807277	 0.097763
H	-0.5176903197	 4.3709262786	 1.1970991295	 0.09827
H	 1.3827304738	 2.4355088002	 2.2638078489	 0.094711
