21
gdb 47495	2.57487	1.43267	1.08637	2.9296	82.36	-0.2306	-0.0089	0.2217	1179.3735	0.184029	-387.121526	-387.11332	-387.112376	-387.154315	32.644	
O	 0.0550136695	-0.0607406988	-0.010435806	-0.307528
C	-0.0030159018	 1.1465552712	-0.0208482416	 0.390765
C	-1.3220377933	 1.9090603825	-0.028659407	-0.287387
C	-1.3516491434	 2.9983448631	-1.119448555	-0.209107
C	-0.1219013357	 3.9145354278	-1.0331644772	-0.27373
C	 1.1615800303	 3.103994885	-1.1009962161	 0.384804
C	 1.7373550127	 2.7826085174	-2.4616384314	-0.298574
C	 2.4366144694	 3.7657604556	-1.5498079886	-0.335365
C	 1.2420446603	 2.0287485886	-0.0212792728	-0.37506
H	-2.1382933645	 1.1914877461	-0.1399243937	 0.117161
H	-1.4296952841	 2.3871620017	 0.956268818	 0.113778
H	-1.3744206518	 2.5184505526	-2.1055725963	 0.110942
H	-2.2734125463	 3.5828959462	-1.0311153171	 0.10006
H	-0.1436403645	 4.6536937163	-1.8414920833	 0.094975
H	-0.1501235716	 4.4798369368	-0.0901706993	 0.094011
H	 2.1943440002	 1.8100700664	-2.609980075	 0.119639
H	 1.2310084293	 3.1727447404	-3.3386397869	 0.11078
H	 2.3997435249	 4.8185205594	-1.8109897086	 0.111224
H	 3.3665780776	 3.4568068931	-1.0837388421	 0.112663
H	 1.3079431092	 2.5117439755	 0.9657621165	 0.111946
H	 2.1220936336	 1.3915449629	-0.1387484864	 0.114002
