20
gdb 88481	2.22033	1.46402	1.11615	1.9108	84.96	-0.2409	0.0423	0.2832	1188.0817	0.16952	-365.93512	-365.925775	-365.924831	-365.969136	35.71	
C	 0.5168170378	 1.4598631111	-0.5009232898	-0.418447
C	 0.0866823111	 0.0747463418	-0.0682412746	 0.022691
C	 1.0886105544	-1.0525046944	 0.0240119461	-0.331043
C	 0.462508197	-0.4951481958	 1.2802867001	-0.086398
C	 1.2322551537	 0.2910765904	 2.3164757466	 0.063259
C	 2.3141333342	-0.4022226633	 3.0864209249	-0.268299
N	 2.6583519658	 0.65306679	 2.1298227943	-0.331766
C	 0.4402424217	 1.2932082622	 2.9942521213	 0.346559
C	-0.2570640085	 2.09560711	 3.5557473964	-0.442804
H	 1.5107659194	 1.7153696734	-0.1236180459	 0.130152
H	 0.5423005798	 1.5346938766	-1.593537703	 0.113672
H	-0.1761163456	 2.2199338181	-0.1261482285	 0.130456
H	-0.902227987	-0.2084721297	-0.4195836863	 0.085554
H	 0.8017741613	-2.0507400996	-0.2880980232	 0.114206
H	 2.123387247	-0.8106808826	-0.2019494537	 0.107404
H	-0.296383076	-1.1238748239	 1.7390112431	 0.097
H	 2.4755863092	-0.1480641791	 4.1293029882	 0.127714
H	 2.5150732136	-1.4371204907	 2.8210128567	 0.117362
H	 3.0038969706	 0.2328901526	 1.2707535716	 0.230168
H	-0.8582053495	 2.8154625128	 4.0535224259	 0.192558
