20
gdb 69554	2.65965	1.54289	1.35698	1.6461	78.8	-0.219	0.0711	0.2901	1060.5094	0.170453	-403.084183	-403.07582	-403.074876	-403.116406	33.625	
C	-0.0290116987	 1.5445731209	 0.0581582366	-0.513455
C	 0.1306224475	 0.0570774681	 0.0041148478	 0.348462
N	-0.8078076118	-0.8527214429	 0.7105651754	-0.375274
C	 0.6463627531	-0.9298055128	 0.9974932011	-0.199221
C	 1.3008791236	-1.773134964	-0.131146398	 0.424021
O	 2.6887555552	-1.9180264186	-0.0293156943	-0.483363
C	 0.4592394005	-2.9156586841	-0.7784165375	-0.28671
C	-0.1183908436	-1.8900530641	-1.807196997	-0.227787
C	 0.7428982299	-0.7605841517	-1.1678837182	-0.113935
H	 0.8846772165	 2.0503956791	-0.2714390059	 0.128718
H	-0.8480871545	 1.8800388912	-0.5895963844	 0.127407
H	-0.2492519243	 1.8801649319	 1.0781281222	 0.11412
H	-1.2340667415	-0.3152283154	 1.4656345724	 0.223108
H	 1.0264356917	-0.7895683712	 2.0046473036	 0.083212
H	 2.8716695236	-2.5527296984	 0.673226668	 0.275722
H	 1.1075523297	-3.6680313904	-1.2349476219	 0.094322
H	-0.2722820681	-3.3996947965	-0.1295327333	 0.103084
H	 0.1515906334	-2.1054667951	-2.8432886636	 0.092795
H	-1.1950477332	-1.7343964487	-1.737742903	 0.111643
H	 1.4332974411	-0.2028167076	-1.8006306699	 0.073131
