21
gdb 75361	2.182	1.76552	1.34371	1.8756	83.74	-0.233	0.0265	0.2595	1081.7041	0.182559	-387.097948	-387.089276	-387.088332	-387.130773	33.59	
C	 0.2553376802	 1.4530565968	 0.0133014582	-0.503108
C	 0.0241458933	-0.0273052426	-0.0003453666	 0.281245
C	-0.1570073686	-0.7971639817	-1.0773564057	-0.167498
C	-0.3565369709	-2.2584808126	-0.7538931229	-0.283296
C	-0.1043729642	-2.3060890833	 0.7583170147	 0.091777
O	 1.2828761489	-2.552146616	 1.0882428582	-0.296325
C	 1.4076848326	-1.282265561	 1.7560199391	-0.108825
C	-0.0034788736	-0.8428459826	 1.2801218487	 0.186303
C	-0.9711505384	-0.3433735176	 2.3443575776	-0.487549
H	 1.2010297117	 1.7056342786	 0.5103191627	 0.124586
H	 0.2895450885	 1.8603923145	-1.0006044407	 0.125128
H	-0.5347176488	 1.9806390167	 0.5617206604	 0.126755
H	-0.1629701356	-0.4225720026	-2.0965083567	 0.084936
H	-1.3632943078	-2.6083113634	-1.0206387325	 0.099185
H	 0.3558090361	-2.913663608	-1.2697547851	 0.11844
H	-0.7666071681	-2.990455926	 1.3017662285	 0.06411
H	 1.4994148251	-1.4005062392	 2.8452531176	 0.088411
H	 2.2613062604	-0.7021381106	 1.3846884594	 0.097685
H	-0.6762907389	 0.6430515218	 2.7194472168	 0.119221
H	-1.9872389044	-0.255415306	 1.944614829	 0.120097
H	-1.0011929175	-1.025994975	 3.1998114695	 0.11872
