19
gdb 54008	2.04728	1.5825	1.00381	4.1036	81.81	-0.241	-0.0223	0.2187	1220.4593	0.158666	-415.396167	-415.386313	-415.385369	-415.431358	35.554	
C	-0.6012263645	 1.3809930307	 0.1305651443	-0.46045
C	-0.4271570842	-0.1229521518	 0.1674865183	 0.344938
N	-0.0880894686	-0.6733568504	 1.2564685486	-0.471289
N	-0.5579630649	-0.8053581367	-1.0938914471	-0.141311
C	 0.120050848	-1.9998519957	-1.3696313204	 0.109728
N	 0.7593483663	-2.6692291388	-0.4973493265	-0.47934
C	-1.3265832236	-0.2694719965	-2.1655140132	 0.318678
C	-2.6745325143	 0.3343380089	-1.8152009462	-0.480946
N	-0.8875198518	-0.4102443431	-3.3518178169	-0.468424
H	-0.1899006211	 1.8171831762	-0.7847517386	 0.134776
H	-1.6483322309	 1.6835747237	 0.2120912609	 0.135487
H	-0.0737121465	 1.7849099819	 0.9942664826	 0.157154
H	 0.0667853671	-1.674516348	 1.1369750486	 0.253151
H	 0.0098937282	-2.2683449319	-2.4200030471	 0.140803
H	 1.1622748744	-3.49889583	-0.9275204171	 0.233066
H	-3.0307256857	 0.0179471582	-0.8333635273	 0.150403
H	-2.6388142592	 1.4264942086	-1.8362781585	 0.156371
H	-3.4021760457	 0.0149805589	-2.5660851959	 0.142429
H	-1.5756326033	-0.0812325943	-4.0284913787	 0.224776
