17
gdb 97527	2.53666	0.78733	0.63678	0.9453	88.85	-0.2532	0.0324	0.2857	1775.2307	0.131613	-347.44837	-347.437858	-347.436914	-347.48542	36.903	
C	-0.5324852861	 1.4035838556	 0.1222068144	-0.366577
C	 0.3605371017	 0.1829464594	-0.1646366888	-0.315983
C	 1.0113975702	-0.3450072182	 1.0295828347	 0.098192
C	 1.5416134469	-0.7683123788	 2.022557675	 0.089554
C	 2.1868184507	-1.2827594108	 3.2416959144	-0.535181
C	 1.8862196323	-2.7088269338	 3.4568863209	 0.351875
C	 1.6312002937	-3.8652064054	 3.6496536507	-0.442522
C	 3.639543038	-1.0380245727	 3.2341637848	 0.351997
C	 4.8203403584	-0.8258518964	 3.2446167671	-0.44283
H	 0.052249555	 2.2202119739	 0.5541075342	 0.129881
H	-0.9949180422	 1.7617359133	-0.8022018428	 0.116417
H	-1.3269794423	 1.1471019737	 0.8281804192	 0.129374
H	-0.2381625416	-0.6112576954	-0.6284568371	 0.133723
H	 1.1271241997	 0.4522009571	-0.9023069379	 0.133866
H	 1.7694225031	-0.7304580566	 4.0990534201	 0.163864
H	 1.4097117743	-4.8910788817	 3.8117944236	 0.202182
H	 5.8665282184	-0.6434798731	 3.2458681474	 0.202167
