17
gdb 36641	5.91837	0.78668	0.76667	1.4807	75.47	-0.2425	0.0249	0.2675	1474.6847	0.133665	-421.697432	-421.689081	-421.688137	-421.731454	30.898	
C	-0.0974985926	-1.1977370155	-0.1358936968	-0.411372
C	 0.0108072914	-0.015642813	 0.0437423404	 0.278614
C	 0.1136465764	 1.4169140227	 0.281053104	-0.216815
O	 1.2959549084	 1.9230364916	-0.3242331998	-0.261063
C	 1.4160419044	 3.3072511447	-0.207028912	 0.177296
C	 2.091034719	 3.9720778971	 1.0412107211	 0.005783
C	 3.443017934	 3.34593922	 0.6271214459	-0.224207
C	 2.7604269021	 3.9359187956	-0.6305365763	-0.001324
O	 2.3748676618	 5.126442573	 0.1620583191	-0.307947
H	-0.1886866635	-2.2430718158	-0.2999037918	 0.203694
H	-0.7714180733	 1.9286450543	-0.13114585	 0.126666
H	 0.1202823141	 1.6149930273	 1.3648272348	 0.125917
H	 0.5308598227	 3.8475704072	-0.5650651188	 0.08506
H	 1.692515014	 4.1862065713	 2.0330754616	 0.093688
H	 4.3242344607	 3.8894919078	 0.9690520352	 0.108393
H	 3.5426668025	 2.2617020828	 0.6859265466	 0.118297
H	 3.157229158	 4.100825499	-1.6318759932	 0.099321
