21
gdb 61215	3.28679	0.95559	0.83677	1.4061	84.63	-0.2488	0.058	0.3069	1433.9302	0.179314	-387.043836	-387.033671	-387.032727	-387.078818	38.69	
C	-0.485457908	 1.4541324878	 0.1324522313	-0.420504
C	 0.0050715363	 0.0045235613	 0.0810322816	-0.042202
C	 0.8622849068	-0.261774215	-1.1862377695	-0.35715
C	 0.1199759832	-0.1233836877	-2.4320027418	 0.302426
C	-0.515651796	-0.0098119904	-3.4467406315	-0.451024
C	 0.7844869513	-0.4622340472	 1.3082201111	 0.425066
O	 1.0729828225	-1.8429549877	 1.2761285434	-0.466184
C	 1.8961789129	 0.3410738666	 1.9131223017	-0.295085
C	 0.603052926	 0.1363348188	 2.6809504349	-0.347675
H	 0.3449515671	 2.1592971455	 0.2492938981	 0.11753
H	-0.9980931408	 1.7024470483	-0.8005867179	 0.135864
H	-1.1885849166	 1.6152133667	 0.9537822936	 0.117327
H	-0.8813875884	-0.6432026974	 0.0089907001	 0.073401
H	 1.7179241506	 0.4264373724	-1.1877074918	 0.125285
H	 1.278274634	-1.2720125513	-1.1118695747	 0.143882
H	-1.0626306418	 0.0857558808	-4.3515523199	 0.190808
H	 0.2412297981	-2.3178074445	 1.3871836885	 0.280157
H	 2.7666551007	-0.215926048	 2.2388753392	 0.125153
H	 2.1070494042	 1.3293246993	 1.5202772894	 0.115065
H	-0.0535775609	 0.9875455765	 2.8159680386	 0.114247
H	 0.6279810388	-0.5587253048	 3.5126700957	 0.113613
