18
gdb 90021	3.43806	1.09586	0.963	2.9056	73.02	-0.2466	0.0305	0.2771	1236.3262	0.14774	-439.091737	-439.083192	-439.082248	-439.125289	32.004	
O	 0.7979545621	 0.5281668334	-0.8928317238	-0.43177
C	 0.048906017	-0.2861877412	-0.0335172592	 0.174559
C	 0.1687816142	-0.1167768329	 1.5055861013	-0.339495
C	-1.3530698682	-0.3883070179	 1.612264931	 0.187347
C	-1.9049359818	-1.7091622439	 2.2265594426	-0.231429
N	-2.6752859126	-0.8698874636	 3.151489036	-0.338438
C	-2.2259317446	 0.3308161428	 2.658529097	 0.391018
O	-2.4421520342	 1.4787139435	 2.9463841061	-0.372663
C	-1.4846072849	-0.079730756	 0.0994636662	-0.339502
H	 0.6233493756	 1.4471873032	-0.661920145	 0.280478
H	 0.2786775258	-1.3139750599	-0.3307540099	 0.095137
H	 0.8523564578	-0.7705439707	 2.0522507861	 0.107258
H	 0.3809298248	 0.9247339268	 1.7726868025	 0.116098
H	-2.5211619391	-2.3153048408	 1.5539565924	 0.113356
H	-1.1579893446	-2.3440123493	 2.7150467249	 0.113331
H	-3.3115321081	-1.0955857279	 3.9014618721	 0.251366
H	-1.7550328207	 0.9725725828	-0.0440798224	 0.116067
H	-2.1505430084	-0.7033409086	-0.501498888	 0.107282
