17
gdb 61087	4.58187	0.65507	0.60647	2.9568	77.35	-0.2478	-0.0353	0.2125	1766.239	0.133468	-455.181141	-455.171408	-455.170464	-455.217034	33.491	
C	-0.0045235973	 1.2235061884	 0.0059011562	-0.414614
C	-0.0199645657	-0.2746986599	 0.3083269672	-0.02982
C	-1.4281713677	-0.7747881636	 0.6495496855	 0.163154
O	-2.3363747861	-0.0668297468	 0.9948583508	-0.241687
N	 0.5282886079	-1.2010880864	-0.6707510025	-0.277898
C	 1.1339664622	-0.7635541312	-1.6923537915	 0.124306
N	 1.6465490198	-1.6536928614	-2.6276148645	-0.309119
C	 2.3221392235	-1.2676354273	-3.7635455323	 0.160884
O	 2.5461448246	-0.1226309702	-4.0749744484	-0.293304
H	 1.0154815885	 1.6129799949	-0.051441095	 0.123035
H	-0.5174664894	 1.4422912242	-0.9360202133	 0.132103
H	-0.5366158835	 1.7516326469	 0.7992218173	 0.143212
H	 0.5444338826	-0.4520550016	 1.2419729785	 0.120655
H	-1.5345024153	-1.8775105839	 0.5637526222	 0.091466
H	 1.3241789984	 0.2765784604	-1.9564382599	 0.146609
H	 1.5030329025	-2.6364940556	-2.4413077992	 0.2655
H	 2.639895345	-2.1399131668	-4.3644613912	 0.09552
