20
gdb 86356	2.50527	1.22007	0.88586	1.2298	81.76	-0.2221	0.0525	0.2747	1327.7596	0.168789	-403.085358	-403.075612	-403.074668	-403.120114	36.217	
C	-0.0080692176	 1.4884928315	 0.0248730051	-0.330143
N	-0.0448122794	 0.0445553214	 0.1246796498	-0.08536
C	-1.307241442	-0.6068792833	 0.5248640627	-0.207581
C	-0.4691375897	-1.6897919888	 1.246517351	 0.107896
O	-0.2281091479	-2.8586408902	 0.4978306971	-0.430422
C	 0.675181714	-0.6313420302	 1.2249839992	 0.016461
C	 2.103903913	-1.104010322	 0.939169607	-0.354265
C	 3.0677827135	-0.0132950216	 0.8514812469	 0.293855
C	 3.8533133421	 0.8952288667	 0.7917567745	-0.444246
H	 1.0151803109	 1.8186203912	-0.1698467	 0.139754
H	-0.6402008717	 1.8168400301	-0.8072511938	 0.117393
H	-0.365150419	 1.9895571997	 0.9447473823	 0.090216
H	-1.9070183075	-0.0072409249	 1.2302671021	 0.08704
H	-1.9498267548	-0.9387617973	-0.2988970866	 0.100014
H	-0.8097189586	-2.0185090584	 2.2287978922	 0.092312
H	-0.0467285386	-2.5881050081	-0.409674381	 0.289462
H	 0.6642658212	-0.0388065862	 2.1561414741	 0.065395
H	 2.4034352032	-1.7960558842	 1.7371481988	 0.135441
H	 2.1115235876	-1.6835394945	 0.0099554527	 0.121874
H	 4.5573604315	 1.6878846991	 0.7351897857	 0.194904
