19
gdb 76094	2.43762	1.24668	1.0163	0.7304	83.17	-0.2232	0.0305	0.2537	1248.5167	0.157932	-381.96816	-381.958837	-381.957893	-382.002553	34.468	
C	-0.2321253742	 1.5207271091	-0.044084428	-0.315077
N	 0.0391214725	 0.0914589892	 0.0669186066	-0.110743
C	 1.3761054148	-0.4264178238	-0.2815314783	-0.230421
C	 2.4421682581	 0.4470720843	-0.6876698939	 0.356373
C	 3.3299346192	 1.1681430735	-1.0619671428	-0.463021
C	 0.8778788818	-0.4112271207	 1.1445134167	-0.031175
C	 1.5014868239	 0.4591201198	 2.1896104069	 0.004804
C	 0.898998846	 0.4869108532	 3.5489164993	-0.248288
N	 2.1931686824	-0.1756160912	 3.3254042831	-0.3203
H	 0.6401559249	 2.169886055	 0.1017986406	 0.121528
H	-0.6368295704	 1.7177437908	-1.041122242	 0.128555
H	-0.995988486	 1.7852421586	 0.6928932863	 0.126789
H	 1.3449251122	-1.3703398041	-0.8226615275	 0.115038
H	 4.1214544524	 1.7976789019	-1.3860722886	 0.20233
H	 0.5289035047	-1.3662758823	 1.544917629	 0.087189
H	 2.0086671385	 1.3469057882	 1.8267625418	 0.109948
H	 0.9438932769	 1.3932393972	 4.1459547427	 0.121985
H	 0.0190901891	-0.1278467239	 3.7237431333	 0.113594
H	 2.0641771733	-1.1849186749	 3.2886590151	 0.23089
