19
gdb 18535	5.63882	1.01658	0.96833	1.7511	70.84	-0.2315	0.0757	0.3072	1231.2989	0.166072	-365.004312	-364.99622	-364.995276	-365.037254	29.959	
O	-0.035775134	 1.4595180481	-0.0518924288	-0.419946
C	 0.010269388	 0.0450948468	 0.0535549539	-0.070174
C	-1.4063604287	-0.4855688812	-0.1317269451	-0.200892
C	-1.4853008793	-2.00467735	-0.0210020235	 0.007427
C	-1.3171301426	-2.7179399177	 1.3538495663	-0.183136
N	-2.6050004981	-3.4842959324	 1.1882672047	-0.126655
C	-3.6583167933	-2.4567033018	 1.126065759	-0.235231
C	-2.85112377	-2.6893767343	-0.0872639519	-0.052218
H	 0.8542076305	 1.8006210864	 0.0752711573	 0.2856
H	 0.6733023257	-0.391490613	-0.7119039767	 0.08404
H	 0.4009196714	-0.2682884397	 1.0360683255	 0.087125
H	-2.0535386722	-0.0092814251	 0.6135258649	 0.104777
H	-1.7726916281	-0.1652286937	-1.1150464658	 0.107171
H	-0.8087429394	-2.45967895	-0.7522679619	 0.079897
H	-0.4704838945	-3.4049550884	 1.4054911063	 0.109803
H	-1.3081908047	-2.074991789	 2.2419744724	 0.099927
H	-4.6595921889	-2.8764918637	 1.1434298966	 0.120028
H	-3.5421518145	-1.5435303066	 1.7061007587	 0.110692
H	-3.2703169572	-3.1578633847	-0.9727853919	 0.091765
