19
gdb 26157	2.53802	1.4141	0.9537	1.0674	78.38	-0.2115	0.0168	0.2283	1237.6013	0.15842	-423.062407	-423.053191	-423.052247	-423.096619	34.327	
C	 0.2152549337	 1.1467002099	 1.2812785509	-0.397217
C	-0.1729130276	 0.509697576	-0.0546620846	 0.01443
O	 0.8385085544	-0.4078393618	-0.4901673893	-0.42068
C	-1.538225669	-0.1375547008	-0.0304639973	 0.12812
C	-2.0692786261	-0.952908609	-0.9941931344	 0.273243
C	-1.5723596192	-1.4511325281	-2.3047874115	-0.503599
O	-3.3240747919	-1.3457866378	-0.6307987665	-0.175504
C	-3.6004432232	-0.7735324135	 0.5712027855	-0.025872
C	-2.5495800149	-0.0266093618	 0.9889890923	-0.28585
H	 1.22524843	 1.5568811769	 1.2075210064	 0.122713
H	-0.4700221647	 1.9564967443	 1.5511278082	 0.118448
H	 0.2006452323	 0.4053094437	 2.088258464	 0.111678
H	-0.1544661508	 1.292366779	-0.8238588063	 0.098815
H	 0.7566620212	-1.1965431146	 0.0583030738	 0.274979
H	-0.509289354	-1.226651115	-2.3964383465	 0.158399
H	-1.7130008318	-2.5340625491	-2.39248384	 0.133064
H	-2.1075401888	-0.98577558	-3.1415729241	 0.133331
H	-4.5675462288	-1.0004284083	 0.9882460113	 0.131818
H	-2.4917777007	 0.5357772501	 1.9073552979	 0.109685
