26
gdb 113933	2.82754	0.8405	0.73238	1.1266	94.01	-0.2198	0.0833	0.3031	1724.8405	0.238739	-369.594161	-369.58307	-369.582126	-369.630543	41.137	
C	 2.6549506253	 0.359921343	 0.6653181242	-0.370819
C	 1.4331616402	-0.5246940671	 0.4231462012	-0.118641
N	 1.4303253426	-0.9997645755	-0.9560957569	-0.078189
C	 2.1268526228	-2.2535870872	-1.2230548562	-0.270696
C	 0.6441981821	-2.1747755251	-1.3553133836	 0.013452
C	-0.2830755002	-2.9670987114	-0.4491546999	-0.208101
C	-1.7747857272	-2.6171657575	-0.620344527	 0.045123
C	-2.6520619098	-3.5837705512	 0.1856314823	-0.39279
C	-2.0867255886	-1.1600745224	-0.25484496	-0.384662
H	 3.5813190533	-0.2078248956	 0.5290406201	 0.116708
H	 2.6670399607	 1.1972443181	-0.0379138928	 0.125359
H	 2.6486479313	 0.7577791926	 1.6849238334	 0.107857
H	 1.4278318293	-1.3444120249	 1.1618876548	 0.080088
H	 0.5174070084	 0.0553894272	 0.5834648407	 0.102173
H	 2.7705337822	-2.2793490861	-2.0991051752	 0.10813
H	 2.5112056265	-2.8067528976	-0.3647479433	 0.100101
H	 0.2519170582	-2.068798381	-2.3680060289	 0.083658
H	-0.1517055765	-4.0323798139	-0.6823760048	 0.097572
H	 0.0061529757	-2.8531931214	 0.6022584352	 0.094519
H	-2.016853142	-2.7533369901	-1.6848172686	 0.07243
H	-2.4511167198	-3.4927075906	 1.2600726629	 0.11107
H	-3.7160020171	-3.3765657224	 0.0306480438	 0.109747
H	-2.4676537986	-4.625136597	-0.0991259066	 0.108606
H	-1.875824546	-0.9684724503	 0.8042188059	 0.110041
H	-1.4928992367	-0.457999756	-0.8474719313	 0.129442
H	-3.1441008961	-0.9322618069	-0.4261491694	 0.107823
