19
gdb 52622	3.64996	0.78127	0.74315	2.2065	87.22	-0.2485	0.0352	0.2837	1614.5635	0.153987	-385.834203	-385.822944	-385.821999	-385.871683	39.683	
C	 0.063502089	 1.4711539239	 0.040592508	-0.500633
C	 0.0228293055	 0.0159626034	 0.0164484332	 0.056926
C	-0.0271780234	-1.1874434244	-0.0118769279	 0.070312
C	-0.0392023805	-2.6579179298	-0.0501776223	 0.13328
C	-1.4728683207	-3.1993748017	-0.0229237985	-0.394686
O	 0.5275044252	-3.1324835363	-1.2709473119	-0.438101
C	 0.7882458144	-3.1822194029	 1.1688304299	-0.373668
C	 0.881122349	-4.6336438814	 1.2372619479	 0.328574
C	 0.9583814006	-5.8310131225	 1.3062562684	-0.46112
H	 0.9318015544	 1.8385612123	 0.5983110426	 0.149319
H	 0.1208163722	 1.8816661043	-0.9734399926	 0.152895
H	-0.8343816428	 1.8832185923	 0.5139757611	 0.152775
H	-2.021868117	-2.8233133879	-0.8883402546	 0.129899
H	-1.4475280807	-4.2906823843	-0.061442551	 0.1397
H	-1.9870378652	-2.883612906	 0.8881723824	 0.117993
H	 1.3641984264	-2.6740398908	-1.4049482985	 0.280933
H	 1.7933104758	-2.7469197362	 1.1066956936	 0.124819
H	 0.3407966808	-2.7874307259	 2.0886955436	 0.136533
H	 1.029319437	-6.8888235563	 1.3628103966	 0.19425
