18
gdb 108009	3.68251	1.56713	1.39172	2.5146	73.52	-0.2241	0.0714	0.2956	972.4387	0.1484	-401.847414	-401.840307	-401.839363	-401.878972	28.364	
C	 0.0299563849	 1.3540006278	-0.0955488288	-0.260338
O	-0.0407571849	-0.0401158143	 0.1341149398	-0.301176
C	 0.6695091768	-0.4927725684	 1.2250419879	 0.446347
C	 0.5170269419	 0.0289286459	 2.6839393766	-0.321481
C	 1.8691938024	-0.6938414453	 2.9093061616	-0.079329
C	 1.665430275	-2.1708058765	 2.512868936	-0.036295
C	 0.8079583327	-2.0251192913	 1.3073758881	-0.11522
N	 2.302163373	-2.0575599626	 1.1550400994	-0.176777
C	 2.2380751229	-0.5431298858	 1.397160315	-0.073466
H	 1.0693533046	 1.6938417649	-0.2059854967	 0.11192
H	-0.506214681	 1.5478778168	-1.026754562	 0.132777
H	-0.4436496517	 1.9274970992	 0.7126487847	 0.115145
H	 0.6342406372	 1.11538776	 2.7501085465	 0.100591
H	-0.3535842065	-0.2927533878	 3.2628770795	 0.100468
H	 2.5382069925	-0.4433310612	 3.7283569591	 0.079905
H	 1.7514564158	-3.0681337889	 3.1137680466	 0.096247
H	 0.1615135559	-2.7808001489	 0.8792851157	 0.098733
H	 2.9839240287	 0.1231291564	 0.9699043409	 0.081945
