24
gdb 9422	6.0769	0.68925	0.65071	1.4057	82.79	-0.2607	0.0722	0.333	1838.2787	0.221361	-351.421731	-351.410913	-351.409969	-351.457958	38.577	
C	-0.0100521003	 1.5845696196	 0.1002833968	-0.378683
C	 0.0103142	 0.0550818439	 0.0301321204	-0.165135
C	 0.6914804415	-0.4790942485	-1.2338587569	-0.157039
C	 0.7127884068	-2.0084532796	-1.3164429618	-0.203273
C	 1.4519970798	-2.5484643341	-2.5470425016	 0.134882
O	 2.8027081945	-2.0825598765	-2.591017496	-0.428581
C	 1.3871039491	-4.0783055929	-2.6440805051	-0.185127
C	 2.0577258103	-4.6334937536	-3.9026404197	-0.380348
H	 1.0061335005	 1.9940876374	 0.0853624204	 0.113892
H	-0.5487817543	 2.0123136771	-0.7526541776	 0.113121
H	-0.4987837841	 1.9381200169	 1.013689837	 0.108852
H	 0.5232783823	-0.3450880732	 0.9152127979	 0.090372
H	-1.018073512	-0.3276102124	 0.0803447745	 0.091151
H	 0.1790923911	-0.0777452418	-2.1195934676	 0.089397
H	 1.7212563779	-0.1072619543	-1.2884777566	 0.104636
H	 1.1869762095	-2.422274401	-0.4125935535	 0.079478
H	-0.3144228937	-2.3969565424	-1.3218348057	 0.092068
H	 0.9953699024	-2.1193000522	-3.4497061398	 0.082579
H	 3.2522780056	-2.4317740332	-1.8126237614	 0.274205
H	 1.8612052162	-4.5049259482	-1.7473912469	 0.082438
H	 0.3355505822	-4.3898289607	-2.6070794146	 0.094507
H	 1.5447436424	-4.2863492163	-4.8064462639	 0.113087
H	 3.0963493924	-4.2984465664	-3.9642772791	 0.126489
H	 2.0447985201	-5.7275608276	-3.9107782392	 0.107032
