20
gdb 110383	5.25093	0.94119	0.92826	2.1565	79.73	-0.2293	0.0684	0.2978	1339.0824	0.170771	-403.043028	-403.034627	-403.033683	-403.076055	32.338	
C	-0.2537427154	 1.5390667753	 0.0122996609	-0.419806
C	-0.0393770119	 0.0411940941	-0.067451706	 0.063615
C	 0.9250379311	-0.5806060954	-1.0792325216	-0.082452
C	 2.1323864753	-0.1970472547	-0.1709406702	-0.038163
C	 2.6947342581	-1.6257462038	-0.1302510933	-0.03413
C	 3.5063832463	-2.0660025331	 1.0776455626	-0.101479
O	 3.660894068	-3.4802173878	 1.1312024844	-0.422057
C	 1.163222957	-1.7568629569	-0.0893933543	-0.022055
N	 1.0217805533	-0.5419005978	 0.8704712058	-0.178213
H	 0.6792025016	 2.0965367263	-0.1144771514	 0.117149
H	-0.9506479406	 1.8685286273	-0.7659187532	 0.118547
H	-0.6808111954	 1.8111067706	 0.9830783555	 0.128597
H	-0.9930427062	-0.4904402344	 0.0503161675	 0.068738
H	 0.8941084207	-0.6200543921	-2.1740919698	 0.063573
H	 2.6673045647	 0.7523438096	-0.1221993911	 0.084192
H	 3.153332799	-1.97033558	-1.0633885015	 0.076381
H	 4.5223791549	-1.661341729	 1.0093290424	 0.105914
H	 3.0506299516	-1.6721185479	 1.9956940137	 0.112907
H	 2.7985424017	-3.8584365857	 1.329091558	 0.283265
H	 0.5294221263	-2.6368393545	 0.0477639717	 0.075477
