18
gdb 57019	2.42609	1.34982	0.91058	2.7852	78.77	-0.2439	-0.0278	0.2161	1267.0125	0.145302	-401.906389	-401.89702	-401.896076	-401.940955	34.324	
C	-0.1435887539	 1.4765065926	 0.0629562755	-0.400483
C	 0.0334384617	-0.0488715893	-0.0665021803	-0.153422
C	 0.7073479042	-0.4093322171	-1.3107778929	 0.337593
C	 1.2818885292	-0.67704726	-2.331870585	-0.465348
C	 0.8037745755	-0.6088647529	 1.1464919156	-0.095772
N	 0.1291915879	-0.403907363	 2.458382506	-0.327988
C	 0.2577311511	-1.8340922339	 2.8471715931	-0.286052
C	 0.7370568539	-2.1275963005	 1.4158653984	 0.385265
O	 0.9371428319	-3.1126312856	 0.7748051251	-0.273869
H	 0.8275501163	 1.9813864868	 0.0511609178	 0.120738
H	-0.7372755815	 1.8655819441	-0.7678782735	 0.129076
H	-0.6547196996	 1.7085690787	 1.0010165418	 0.130205
H	-0.9634901005	-0.5088818199	-0.0555641283	 0.110565
H	 1.7785919855	-0.9367555972	-3.2337019607	 0.197294
H	 1.8462586421	-0.2595183966	 1.1074274413	 0.102187
H	 0.6153111897	 0.2344335746	 3.0759675883	 0.227773
H	 1.0306435947	-2.0596373284	 3.5947359278	 0.125789
H	-0.6787408381	-2.3105971025	 3.15646502	 0.136451
