14
gdb 5209	8.85876	1.02587	0.92471	3.6418	78.95	-0.2091	-0.0057	0.2034	1218.7797	0.108444	-341.605306	-341.597692	-341.596748	-341.639199	26.481	
C	-0.0571275498	 1.4450701175	 0.0102472399	-0.510266
C	-0.0014313303	-0.0073534463	 0.002420165	 0.226373
C	 0.0614380454	-1.2120259786	-0.0041864449	-0.057458
C	 0.1149773075	-2.6239449148	-0.0117945239	 0.168419
N	 1.1976236404	-3.3876437911	-0.0229892418	-0.304117
C	 0.7394891503	-4.6771173273	-0.0265312694	-0.098135
C	-0.6332662784	-4.7096842754	-0.0174754186	-0.107236
N	-1.0220545644	-3.3949520734	-0.0081135922	-0.286523
H	 0.951779058	 1.8713173008	 0.0047313251	 0.160253
H	-0.5857543382	 1.8304498161	-0.8689365348	 0.151505
H	-0.572269908	 1.8214369227	 0.9012613181	 0.15151
H	 1.4211273722	-5.5140648385	-0.0354078775	 0.107091
H	-1.3460738975	-5.5173215739	-0.0168330505	 0.129516
H	-1.9649275172	-3.0438055678	 0.0000256355	 0.269068
