20
gdb 121320	2.66704	1.16491	0.95442	2.0321	77.36	-0.2498	0.0185	0.2683	1322.3989	0.171361	-440.301619	-440.292488	-440.291544	-440.336228	33.2	
C	 0.0846044505	 1.5105580987	 0.4863069949	-0.3854
C	-0.0822423259	 0.0204871292	 0.2454831867	-0.044442
O	 0.8391703173	-0.665845825	 1.0887408993	-0.272879
C	 0.8039759347	-2.077970204	 0.9712468098	 0.043108
C	 1.9647927051	-2.6429199894	 1.7880876356	-0.260157
C	 1.3561670323	-2.70586184	 3.1940827703	-0.079585
O	-0.0443893059	-2.974528436	 2.9835697652	-0.243417
C	-0.4044670489	-2.6461204077	 1.7106298028	 0.411434
N	-1.5674044863	-2.7682691942	 1.2300588775	-0.540861
H	 1.1092089929	 1.8269182864	 0.2699574207	 0.122021
H	-0.5966241157	 2.0749597949	-0.1574259814	 0.117376
H	-0.1382931963	 1.7598401724	 1.5277880865	 0.125233
H	-1.1081710533	-0.3045503031	 0.4577918233	 0.125046
H	 0.1290740409	-0.2319078275	-0.8065470854	 0.086862
H	 0.7998425953	-2.3834487274	-0.0817651474	 0.089484
H	 2.2164268128	-3.6474056038	 1.4352956906	 0.117297
H	 2.8502479886	-2.0088957306	 1.7271510925	 0.122588
H	 1.7573556876	-3.5058850696	 3.8197235263	 0.119042
H	 1.4561925013	-1.7515183292	 3.7217705034	 0.126222
H	-2.2111180872	-3.1292796242	 1.937949609	 0.221026
