17
gdb 25654	5.54904	0.75236	0.66646	1.9906	95.21	-0.171	0.0168	0.1877	1669.0767	0.136483	-380.889421	-380.879976	-380.879031	-380.925496	33.643	
C	-0.1116349312	 1.4495709483	 0.0137818805	-0.508604
C	-0.0214181826	-0.0019343222	 0.0035176266	 0.174369
C	 0.0654195773	-1.2075733912	-0.0047273063	-0.07872
C	 0.1513664127	-2.6112826245	-0.0183337899	 0.168596
C	 1.2381463458	-3.4678126682	-0.0044837521	-0.255512
C	 0.7515246086	-4.8003432165	-0.0145464037	-0.197016
C	-0.6285721082	-4.7337248589	-0.0463749355	 0.290464
N	-1.6172372329	-5.7268113382	-0.14185905	-0.617806
N	-0.9849807462	-3.4153917913	-0.0472698123	-0.347119
H	 0.8867839534	 1.9011501615	 0.024861659	 0.150368
H	-0.6336654465	 1.830834315	-0.8719835733	 0.144274
H	-0.6469072138	 1.8170919639	 0.8974580363	 0.143979
H	 2.2695168626	-3.1539264553	 0.0311238736	 0.094331
H	 1.3362556269	-5.7070588183	 0.0155151158	 0.084473
H	-1.19653313	-6.6424264826	-0.2367441169	 0.249256
H	-2.2338736341	-5.7452168315	 0.6650327678	 0.244909
H	-1.9225540918	-3.0718929401	-0.1655444797	 0.259759
