12
gdb 132196	2.00383	1.97895	1.00184	5.5753	58.62	-0.2791	-0.0595	0.2195	1062.3293	0.076375	-513.969217	-513.961751	-513.960806	-514.002029	26.237	
C	-0.026920226	 1.4622722649	 0.1265304926	-0.473296
C	-0.0176468374	-0.0152997408	-0.0538945591	 0.409407
N	-0.1771908123	-0.6205853774	-1.1525828262	-0.31587
C	-0.1450816906	-2.0470509057	-1.1801252752	 0.40415
O	-0.2928260327	-2.6493646556	-2.2041401506	-0.30166
N	 0.0687454311	-2.7205885736	 0.0534354063	-0.391328
C	 0.213151363	-2.0013282495	 1.0751137304	 0.408493
F	 0.4150396366	-2.5050979431	 2.2609577287	-0.02686
O	 0.1929623261	-0.6628572256	 1.1636374718	-0.216452
H	 0.9255498111	 1.7948474865	 0.5511996821	 0.164673
H	-0.1931155109	 1.9404614414	-0.8371007225	 0.174072
H	-0.8154371079	 1.7500414986	 0.8290794018	 0.16467
