21
gdb 106175	2.62472	1.5625	1.39562	1.0777	81.17	-0.2287	0.0821	0.3108	1062.425	0.184233	-387.060879	-387.052901	-387.051957	-387.093297	31.623	
C	 0.10296771	 1.3177282565	 0.2107416916	-0.258569
O	-0.1628152493	-0.0357470705	-0.116373577	-0.285268
C	 0.5658915261	-0.4999389581	-1.1841320306	 0.438115
C	 0.9512239469	-1.9167355697	-1.5057436412	-0.151064
C	 0.4345669451	-1.7730095726	-2.937575081	-0.230952
C	 0.3320217639	-0.2266579877	-2.7089022426	-0.110879
C	 1.6009204806	 0.4885153867	-3.1939822822	-0.210255
C	 2.7465473674	-0.1953956692	-2.3909836631	-0.232138
C	 2.0268604894	-0.8508338892	-1.2136956988	-0.117572
H	 1.1647241633	 1.4715143054	 0.4488124335	 0.10995
H	-0.1744165268	 1.9964051124	-0.6082717404	 0.111667
H	-0.5018807621	 1.5593729849	 1.0876942738	 0.126245
H	 0.880352585	-2.7977648137	-0.8785910759	 0.086271
H	 1.0832137232	-2.1052777926	-3.7563220152	 0.087118
H	-0.548907004	-2.234929395	-3.0553460106	 0.102932
H	-0.6089478246	 0.2380429784	-3.0038088239	 0.068592
H	 1.7409327688	 0.406712634	-4.276804339	 0.094096
H	 1.547517906	 1.5562001164	-2.9504015558	 0.092699
H	 3.2814631365	-0.9317169202	-3.0008724123	 0.100548
H	 3.490928228	 0.5301389739	-2.0486872595	 0.095416
H	 2.5361015866	-0.9891380099	-0.2661317095	 0.083049
