20
gdb 60013	2.60439	0.89611	0.69682	3.8931	75.79	-0.2718	0.0351	0.3069	1592.6916	0.16927	-440.307697	-440.29754	-440.296596	-440.343229	37.122	
C	-0.1109467296	 1.1766017418	-0.6649091068	-0.410813
C	-0.0247925608	-0.1800690602	 0.0267393878	 0.120556
O	 0.4220089399	-0.0288977169	 1.3891181194	-0.43191
C	-1.3382080895	-0.9705902479	-0.0457131376	-0.229204
C	-1.2331309523	-2.3744944908	 0.5660788576	 0.131787
O	-0.9815966644	-2.341802633	 1.9551689827	-0.451234
C	-2.537475069	-3.1832244341	 0.4152859182	-0.3454
C	-2.8905083159	-3.4488781158	-0.9748156393	 0.258481
N	-3.1519070754	-3.6409560078	-2.084194525	-0.318059
H	 0.8361638829	 1.7139970795	-0.5675734148	 0.131451
H	-0.3378456043	 1.0602586146	-1.7287578893	 0.132344
H	-0.9047395353	 1.7910188294	-0.2216059254	 0.11394
H	 0.7693753716	-0.7734994258	-0.4425673296	 0.103917
H	-0.1428328495	 0.6306230965	 1.8096277532	 0.287111
H	-2.1304172893	-0.4118454033	 0.473109656	 0.093513
H	-1.6375778429	-1.0575960879	-1.09678994	 0.126866
H	-0.4344554643	-2.9230416802	 0.0366947737	 0.081201
H	-0.3052650974	-1.6595511293	 2.0904254453	 0.290956
H	-2.416930553	-4.1315927339	 0.94851662	 0.16224
H	-3.3559969913	-2.642910805	 0.9037073939	 0.152257
