16
gdb 42873	2.96972	1.40692	1.39498	3.4038	68.97	-0.2375	-0.0317	0.2058	989.4364	0.12596	-437.925263	-437.917977	-437.917033	-437.957183	28.319	
O	 0.0434985035	 0.0225847035	 0.0377134226	-0.304969
C	-0.0050505738	 1.2139926561	-0.0016683804	 0.436964
C	-1.1182785422	 2.2781414459	 0.0693288166	-0.160642
C	-0.0609617733	 3.1435811371	 0.8326639226	-0.24329
C	 1.0348557233	 2.3721468335	 0.0417716044	-0.119931
N	 1.129110743	 2.9273289855	-1.306044317	-0.295879
C	 0.0120958368	 3.1842592465	-2.0599564987	 0.394505
O	 0.0599813496	 3.6246754173	-3.1888596869	-0.368811
C	-1.313430206	 2.8588872205	-1.3477630277	-0.329214
H	-2.0613599766	 2.0170147616	 0.5516758802	 0.098083
H	-0.0944131242	 4.2222699975	 0.6680609561	 0.119439
H	-0.0321121104	 2.9173596631	 1.9007039202	 0.123419
H	 2.0253560749	 2.2123864312	 0.4646341024	 0.102694
H	 2.0242955381	 3.04584313	-1.7551276316	 0.258217
H	-1.857436592	 2.1575200531	-1.9882678373	 0.149179
H	-1.9058517508	 3.7793618876	-1.3143156755	 0.140238
