23
gdb 76496	2.80267	1.26451	1.11611	0.2406	90.14	-0.2331	0.0876	0.3207	1244.8244	0.205403	-351.11731	-351.108104	-351.10716	-351.150796	35.919	
C	-0.1858983029	 0.8471716297	-1.9787798543	-0.409862
C	-0.0241641568	-0.2981025061	-1.0016469805	-0.080705
C	 1.3034805081	-0.6267693701	-0.3339866845	-0.107955
C	 2.5735307979	 0.1549840381	-0.5921930716	-0.410326
C	 0.1673289506	-0.0625608611	 0.4748800309	 0.366369
C	 0.1824462424	 1.2744188718	 1.2545389421	-0.320764
C	-0.5433795793	 0.562831298	 2.4074448634	-0.038163
C	-1.8321737907	-0.0475758401	 1.9314828974	-0.277664
C	-0.5377854053	-0.7541523052	 1.6265876625	-0.131302
H	 0.3793729433	 1.7323548123	-1.6746676959	 0.116549
H	 0.1534603128	 0.5675488689	-2.9828598415	 0.113705
H	-1.2373648774	 1.1456592435	-2.0577200254	 0.114625
H	-0.6304450403	-1.1677124629	-1.2491598657	 0.075752
H	 1.477379987	-1.6914795094	-0.1858808163	 0.076476
H	 2.3858678474	 1.2259884788	-0.7061729038	 0.117157
H	 3.2812269296	 0.0349050532	 0.2362442705	 0.114885
H	 3.0726553183	-0.1909639666	-1.5043036729	 0.115148
H	 1.1944581511	 1.5925383075	 1.5210214094	 0.102337
H	-0.3453110465	 2.1253442911	 0.8088627822	 0.092038
H	-0.3443294737	 0.72518913	 3.45954574	 0.082901
H	-2.4419512689	-0.5039270862	 2.7053398845	 0.105906
H	-2.4020819413	 0.4192485135	 1.1309695237	 0.103051
H	-0.3286434756	-1.7579947086	 1.9789332959	 0.079842
