16
gdb 34587	4.3502	1.1052	0.95451	1.5379	79.31	-0.2374	-0.0297	0.2077	1221.049	0.123459	-400.711508	-400.703526	-400.702582	-400.744499	30.224	
C	 0.1443835809	-1.1304061968	-0.1703023578	-0.35391
C	 0.0343733935	 0.0606236429	-0.0608295606	 0.270383
C	-0.0882955746	 1.4733080821	 0.0711438413	 0.243087
N	-1.1553932372	 2.143932738	-0.1196488642	-0.325406
C	-0.8026781326	 3.5470170628	 0.1304700282	-0.261824
C	 0.6842628137	 3.5109779779	 0.5000612709	 0.39761
C	 1.7186976042	 4.5046222772	 0.0851212938	-0.328908
C	 1.3498805583	 4.3352970073	 1.5522258981	-0.328877
O	 1.0523001945	 2.1269893264	 0.4328646994	-0.272121
H	 0.2336502806	-2.1845340036	-0.2692318193	 0.206537
H	-1.0005321319	 4.1453839994	-0.7668734467	 0.123215
H	-1.4285215697	 3.9494677762	 0.9359235658	 0.123217
H	 2.6804302425	 4.1184987987	-0.2332612922	 0.132483
H	 1.3866135011	 5.3953315947	-0.4389640444	 0.121019
H	 0.76399363	 5.1094881675	 2.0376873771	 0.121015
H	 2.0708101869	 3.8386190193	 2.1917253007	 0.13248
