19
gdb 45131	2.69914	1.53684	1.06823	3.5802	81.8	-0.2355	-0.0477	0.1879	1129.343	0.161606	-385.909182	-385.9016	-385.900656	-385.94118	30.336	
O	 0.0194327206	-0.0160165375	-0.5340497209	-0.326083
C	-0.0018629387	 1.1186050546	-0.0966661775	 0.367303
C	-1.3231705453	 1.8378853633	 0.1681527503	-0.341644
C	-1.4430944386	 3.1279941294	-0.625786192	 0.000229
C	-2.0427430705	 4.3754577371	-0.0182396364	-0.322511
C	-0.5563850803	 4.2886599839	-0.2646861	 0.012229
C	 0.4270452596	 4.1274262234	 0.8886243485	-0.300328
C	 1.4737091756	 3.066382036	 0.639131977	-0.049078
C	 1.2781711961	 1.8106630229	 0.2104436216	-0.124026
H	-2.1294341673	 1.1417230988	-0.0769604969	 0.119275
H	-1.3901529134	 2.0518480559	 1.2420740478	 0.11074
H	-1.620982828	 2.9740264889	-1.6861485644	 0.095423
H	-2.6380719399	 5.0246064678	-0.6508238416	 0.115703
H	-2.3896036803	 4.3186103274	 1.0091691725	 0.111386
H	-0.1664694408	 4.8677486527	-1.0966485025	 0.090009
H	 0.9200583995	 5.083784306	 1.0900877903	 0.109351
H	-0.1203906485	 3.8834768479	 1.8085108296	 0.122147
H	 2.5029662414	 3.3644883659	 0.8306510124	 0.105912
H	 2.1385109688	 1.1638090855	 0.0591306921	 0.103963
