19
gdb 35469	3.89679	1.14159	0.96367	0.8956	87.01	-0.2351	0.0139	0.2491	1239.4435	0.160321	-348.719338	-348.711329	-348.710385	-348.751783	31.971	
C	 0.0585583782	-1.2342372383	 0.1118393074	-0.455022
C	 0.0277296102	-0.0345922411	 0.0393628322	 0.303583
C	-0.0128626178	 1.424247539	-0.0220194653	-0.205913
C	-0.8020481545	 2.0097644075	 1.1820857611	-0.223682
C	-0.7336163358	 3.5336030096	 1.2264156252	-0.050194
C	 0.1654271761	 4.2176632376	 2.2298125771	-0.289705
C	 0.5480113663	 4.1859978902	 0.7631626915	-0.053804
C	 1.6237308417	 3.2879150362	 0.2757993519	-0.096469
C	 1.3835775337	 2.029407515	-0.0907869683	-0.050004
H	 0.0837562381	-2.2943190673	 0.1658755353	 0.192059
H	-0.5486434219	 1.7035634659	-0.9428227387	 0.115648
H	-1.8421314947	 1.6750105503	 1.1292607695	 0.108028
H	-0.3807565639	 1.5776018308	 2.0949430191	 0.113739
H	-1.6550049753	 4.0495207324	 0.9764104802	 0.084876
H	-0.1533704934	 5.164477619	 2.6526472554	 0.109386
H	 0.7272206108	 3.5841145453	 2.9086116394	 0.115152
H	 0.4628427933	 5.1338956595	 0.2376538649	 0.091069
H	 2.6319534563	 3.6907858564	 0.2110618212	 0.090173
H	 2.1801732127	 1.3891511621	-0.4554702192	 0.101081
