17
gdb 124474	3.25535	1.27223	1.14149	0.6426	69.29	-0.2783	-0.0305	0.2478	1117.1848	0.134521	-455.15359	-455.144731	-455.143787	-455.187489	32.35	
C	-0.1502959637	 1.5468970883	-0.044616976	-0.402005
C	 0.0213825192	 0.026009337	 0.0623092767	 0.237505
C	 0.872894699	-0.3530067244	 1.2919370139	-0.407536
O	-1.2713895831	-0.5446352831	 0.1675382894	-0.461132
C	 0.6857730368	-0.5246518943	-1.1756608603	 0.427251
N	 0.284308133	-1.5494618569	-1.8699650402	-0.344808
C	 1.2602020696	-1.6385344423	-2.8321009607	 0.037852
N	 2.2033242041	-0.7429850776	-2.7524263413	-0.11162
O	 1.8186894136	 0.0136427605	-1.630613793	-0.211237
H	 0.8164448057	 2.0505471261	-0.1183283561	 0.132316
H	-0.753094032	 1.8003786334	-0.9199424406	 0.13242
H	-0.6706640446	 1.904514264	 0.8474600554	 0.132616
H	 0.3742860246	 0.0174185357	 2.1911923405	 0.132448
H	 0.9645501024	-1.4400073782	 1.3706785347	 0.125646
H	 1.8752922906	 0.0809605813	 1.234338619	 0.129468
H	-1.2653998199	-1.3821674855	-0.3139745093	 0.296527
H	 1.2646613648	-2.3879607139	-3.610068902	 0.15429
