17
gdb 41728	3.40809	1.77421	1.76667	0.3949	65.87	-0.2369	0.0853	0.3222	846.7421	0.139609	-458.952393	-458.946442	-458.945498	-458.982438	25.147	
C	-0.0124664537	 1.5889603471	-0.0087849908	-0.079185
O	 1.3948703065	 1.9278508937	-0.0007760014	-0.286154
C	 2.1016892882	 0.7154099082	-0.1703489207	 0.080632
C	 2.0298894531	-0.2156199658	 1.0665552352	 0.030681
C	 2.4157321681	-1.5594854024	 0.461500405	-0.079185
O	 1.7091216577	-1.5454579413	-0.8018339958	-0.286154
C	 1.1815369536	-0.2427466343	-0.9533529972	 0.080632
C	 0.018034643	 0.0661285687	 0.0227427233	 0.030681
O	 0.603959935	-0.2862780058	 1.2970675731	-0.293985
H	-0.4910304765	 2.0009302897	 0.8840917094	 0.119218
H	-0.4937756084	 2.0025559581	-0.9063475176	 0.097174
H	 3.0972776187	 0.9113500878	-0.5663438723	 0.093969
H	 2.5422964721	 0.0899499641	 1.9779601418	 0.090657
H	 3.4952696549	-1.6717879065	 0.2873584928	 0.097174
H	 2.0560097451	-2.3936533443	 1.0703808223	 0.119218
H	 0.994231099	-0.031598417	-2.005367109	 0.093969
H	-0.9274635163	-0.45756581	-0.1127952579	 0.090657
