19
gdb 118618	2.73109	0.76153	0.6222	3.1626	78.56	-0.2472	-0.0239	0.2233	1740.7664	0.155129	-422.993285	-422.982493	-422.981549	-423.03054	37.12	
O	-0.1264993773	 1.5120527191	 0.0224223018	-0.420155
C	 0.0374611324	 0.1050268052	-0.0657097361	-0.086796
C	-1.3495625312	-0.5171404182	 0.0371958218	-0.170461
C	-1.338583137	-2.0613214739	 0.0159340457	-0.183302
C	-2.7688053921	-2.6136164103	 0.2552272313	-0.284788
C	-2.8191233423	-4.1213573493	 0.3837370132	 0.150235
O	-3.3764655628	-4.704166475	 1.2786931166	-0.241346
C	-0.7732391444	-2.5808404152	-1.2305856689	 0.344308
C	-0.3292830996	-2.9959540937	-2.2683836465	-0.48445
H	 0.7335495346	 1.9231800826	-0.1027623824	 0.288156
H	 0.5082657635	-0.1883036075	-1.0149548752	 0.103722
H	 0.6759742804	-0.2746513826	 0.7496878864	 0.084952
H	-1.8128681228	-0.1819210658	 0.9715214471	 0.113155
H	-1.9699590571	-0.1424396132	-0.784278781	 0.116905
H	-0.705124213	-2.4045225233	 0.8467756963	 0.117232
H	-3.1986987747	-2.1769424137	 1.1605818845	 0.124908
H	-3.3989208166	-2.3271131324	-0.5979877402	 0.13172
H	-2.2965660659	-4.6748988929	-0.4266006425	 0.092326
H	 0.0729000657	-3.3682537098	-3.178284712	 0.203681
