17
gdb 50559	3.48321	1.16455	1.01907	3.8162	69.74	-0.2402	-0.0344	0.2059	1183.8465	0.134375	-458.945665	-458.937353	-458.936409	-458.97969	30.274	
O	-0.6948703156	 0.676043832	 0.0235967461	-0.232338
C	 0.2892958087	 1.0234382902	-0.56981634	 0.157528
C	 1.4312501171	 1.8230768889	 0.0627375193	 0.11134
O	 2.6248198305	 1.0855835284	-0.1075596989	-0.272606
C	 3.583642382	 1.9380359154	-0.735929508	-0.154272
C	 2.7142782028	 2.9481464304	-1.4460381278	 0.414276
C	 3.1801076212	 4.1725302524	-2.149762237	-0.343224
C	 2.5510827052	 3.0308161045	-2.937492998	-0.323458
O	 1.575850169	 3.0587502576	-0.6142365959	-0.287567
H	 0.4554495226	 0.8012821169	-1.6472132803	 0.084055
H	 1.2124860798	 2.0203664457	 1.1204124308	 0.100727
H	 4.2242870239	 2.4144342249	 0.0196603574	 0.11003
H	 4.1998493626	 1.3347825826	-1.4064743321	 0.124072
H	 2.5876982121	 5.0700401804	-2.0138185099	 0.137296
H	 4.2481539793	 4.3422896621	-2.2374290473	 0.124168
H	 3.1902419491	 2.4193981205	-3.5661235657	 0.120113
H	 1.5471601199	 3.188053407	-3.3152659726	 0.129859
