21
gdb 63516	3.046	1.29858	1.2952	1.1998	84.01	-0.2434	0.0761	0.3196	1125.5275	0.181802	-387.018499	-387.009992	-387.009048	-387.051051	34.161	
C	-0.0620204546	 1.5429756578	-0.0421339578	-0.451296
C	-0.002582021	 0.0329736912	 0.0248783263	 0.259522
O	-1.1672778419	-0.6128353051	-0.4297673826	-0.468466
C	 1.3318695073	-0.6822078385	-0.2252434407	-0.471087
C	 0.690904483	-0.6677008226	 1.130573326	 0.465801
C	 1.1781214657	-0.2347622515	 2.5282591225	-0.137119
C	-0.2154191265	-0.6997105072	 3.0553217178	-0.21713
C	 0.2424709869	-1.8097799298	 2.0592210602	-0.112038
C	 1.6549520613	-1.7084870488	 2.7160159486	-0.218413
H	 0.8419427453	 1.9949895939	 0.3759278044	 0.117923
H	-0.1546579506	 1.8852295857	-1.0809924315	 0.105313
H	-0.9261279904	 1.9198378458	 0.5146705382	 0.124703
H	-1.2511368819	-0.4394548133	-1.3745072827	 0.277456
H	 1.2855883628	-1.6054258788	-0.7953398519	 0.109598
H	 2.2154576782	-0.0766264291	-0.4082928848	 0.104175
H	 1.7188255497	 0.6755388836	 2.7914333996	 0.068661
H	-0.260090752	-0.985066473	 4.1102953307	 0.084897
H	-1.0805204555	-0.1030527916	 2.7584568492	 0.100822
H	-0.2995694064	-2.710771391	 1.7744334684	 0.07833
H	 2.5033875973	-2.0310491667	 2.1081466539	 0.093049
H	 1.7356772333	-2.0620003208	 3.7478761961	 0.085298
