14
gdb 127293	5.41387	1.33642	1.07932	3.5793	70.92	-0.2369	-0.0202	0.2166	1045.2069	0.104079	-432.880255	-432.873452	-432.872507	-432.91193	25.24	
C	 0.0219046488	 1.3835129898	 0.0661381934	-0.315663
N	-0.0242261636	-0.0613836866	-0.0210699403	 0.051364
C	-0.1129960927	-0.8011203354	-1.1773974501	-0.216336
C	-0.0230582635	-2.0972247061	-0.7354026211	 0.247479
O	-0.0384325272	-3.4084578295	-1.1102577028	-0.221184
C	 0.0971631703	-4.0571036151	 0.1053625632	 0.053554
N	 0.1884681388	-3.3287630253	 1.1661464495	-0.328314
C	 0.1139738355	-2.0365414994	 0.6532730081	 0.350747
N	 0.119794228	-0.7886726124	 1.1144798238	-0.371587
H	 1.0537426607	 1.7422178864	 0.141027707	 0.148195
H	-0.4446929516	 1.8118855445	-0.8229674224	 0.139509
H	-0.5280456707	 1.6984671709	 0.9540220144	 0.162266
H	-0.2269925669	-0.3335808223	-2.140087357	 0.145934
H	 0.115348454	-5.1345773697	 0.0435335243	 0.154035
