18
gdb 69811	3.20803	1.61297	1.27384	3.2693	76.66	-0.2417	-0.0038	0.2379	1016.3959	0.148884	-401.912992	-401.905613	-401.904669	-401.944395	29.855	
C	-0.0462933749	 1.516841084	 0.0024591286	-0.483968
C	 0.001660322	 0.0023600916	 0.0036822816	 0.286611
N	-0.7748872205	-0.7235319583	 1.04237587	-0.34574
C	 0.6917250029	-0.7217190919	 1.121204099	-0.131539
C	 1.4067097449	-2.0138491583	 0.8375264316	 0.054135
O	 0.6263085403	-3.1530279297	 0.5163656253	-0.236134
C	 1.3969427454	-2.5465433274	-0.5426014604	-0.01608
C	 0.671018325	-1.7904044937	-1.587781144	-0.080595
C	 0.0380214448	-0.6396673015	-1.3358343981	-0.089553
H	 0.792701504	 1.9421411186	-0.5582227431	 0.129507
H	-0.9723926537	 1.8753734316	-0.4621533597	 0.127142
H	-0.0051638727	 1.912733638	 1.022473299	 0.114303
H	-1.1437734427	-0.0469724653	 1.7083950086	 0.227093
H	 1.1633386607	-0.1040160984	 1.8823759304	 0.07781
H	 2.274316322	-2.2147864038	 1.4661571969	 0.087782
H	 2.2268887038	-3.1663691842	-0.8787813305	 0.090056
H	 0.6833997532	-2.1940311297	-2.5960552837	 0.096188
H	-0.4597833845	-0.1102344818	-2.1449936814	 0.092982
