17
gdb 98171	2.28726	1.25796	1.13932	2.2243	70.93	-0.2607	-0.008	0.2527	1196.3422	0.131253	-458.953821	-458.943331	-458.942387	-458.989646	36.831	
C	-0.4284147035	 1.3401077036	-0.556110249	-0.243404
O	-0.3588031274	-0.0850553964	-0.710183864	-0.250931
C	 0.8810259383	-0.5965165465	-0.8250967538	 0.437578
O	 1.8891568298	 0.0560282129	-0.7998945975	-0.355591
C	 0.803380095	-2.1343870134	-1.0077809935	 0.058312
C	 2.1355442765	-2.7741967134	-0.6134218008	-0.399597
O	-0.1925674275	-2.6802713685	-0.1545064408	-0.437046
C	 0.4893865605	-2.3823818327	-2.4252676741	 0.347263
C	 0.2184795029	-2.5751919972	-3.5802308732	-0.498714
H	 0.097254694	 1.6515434354	 0.3495774085	 0.147419
H	 0.0228114867	 1.8381593105	-1.4174523306	 0.148079
H	-1.4890142836	 1.5798185708	-0.4857177433	 0.137947
H	 2.3257369349	-2.5858315948	 0.4456380198	 0.131638
H	 2.0797838292	-3.8509665868	-0.7827696225	 0.133867
H	 2.9486976572	-2.3501262931	-1.2024503926	 0.145731
H	-1.0103056348	-2.1988112058	-0.3266296052	 0.292498
H	-0.0191423383	-2.7530145445	-4.6003007673	 0.204953
