20
gdb 18013	4.17356	1.47581	1.34809	1.5906	74.5	-0.236	0.0801	0.3161	1019.7533	0.177619	-348.977685	-348.969842	-348.968898	-349.010138	29.81	
C	 0.2776074175	 1.467449714	 0.1219943622	-0.379774
C	 0.0359364632	-0.0433438123	 0.0295342774	-0.197452
C	 0.5386525479	-0.6193546411	-1.2812773722	 0.165556
O	 1.9807732304	-0.4948158052	-1.4458568418	-0.318743
C	 2.1039079227	-1.8778208199	-1.8348783548	 0.133056
C	 2.5223888591	-2.7938684227	-0.6629903299	-0.228316
C	 1.0143003857	-3.0446421048	-0.3401914652	-0.234615
C	 0.6011337688	-2.1421056154	-1.5369101784	-0.115851
H	 1.3437725201	 1.6889849577	 0.0201819773	 0.137804
H	-0.2535909377	 2.0030164851	-0.6726159565	 0.112219
H	-0.0649846718	 1.8656185409	 1.0816578539	 0.109394
H	 0.5337914629	-0.545748384	 0.8660207446	 0.100377
H	-1.0366803274	-0.2638716374	 0.1150912654	 0.094366
H	 0.0346794349	-0.1059962084	-2.1157857675	 0.067707
H	 2.5935703262	-1.9951919438	-2.8057843551	 0.070783
H	 3.0595148709	-3.6950227202	-0.9716200256	 0.098396
H	 3.1056131499	-2.2763341751	 0.101737852	 0.1089
H	 0.7151802695	-4.0856018367	-0.4821399184	 0.103037
H	 0.6674021688	-2.7291160075	 0.6461154049	 0.102874
H	-0.1123776618	-2.5501044232	-2.2520731821	 0.070284
