15
gdb 30417	2.90121	1.45071	0.97295	3.7144	74.54	-0.2327	-0.0382	0.1946	1148.8419	0.1132	-454.01038	-454.002146	-454.001202	-454.044792	29.29	
C	 0.1139604398	 1.4365316958	 0.0906197153	-0.322901
N	 0.1541654714	-0.0164875699	 0.1159917136	-0.303548
C	 0.4078771672	-0.6515345225	-0.9437767367	 0.417542
O	 0.651081972	 0.0509724101	-2.144244594	-0.274458
C	 0.9316468487	-0.522135528	-3.3475380948	 0.484212
O	 1.1250317499	 0.1453931102	-4.3246938052	-0.364789
N	 0.9729123802	-1.9024844625	-3.3417300544	-0.391567
C	 0.7499556891	-2.6697531426	-2.214321494	 0.023248
C	 0.4737118182	-2.0944472144	-1.0369008887	-0.206949
H	 1.0857368447	 1.8643142376	-0.1870788785	 0.130726
H	-0.6200129359	 1.8148694363	-0.6319589032	 0.130709
H	-0.1538522774	 1.8002570074	 1.0848241038	 0.121333
H	 1.1813442582	-2.3248920894	-4.2315573202	 0.278794
H	 0.8150024932	-3.7406039031	-2.3579798974	 0.144389
H	 0.2946553207	-2.6666261252	-0.1396418255	 0.133258
