13
gdb 420	5.09171	3.88977	2.43681	3.5654	50.52	-0.2452	0.0373	0.2825	539.0137	0.108515	-286.517094	-286.510925	-286.509981	-286.54679	21.625	
C	-0.0833011552	 1.5775413625	 0.0217861622	-0.40169
C	 0.0046094476	 0.0588036426	-0.0288722045	-0.125599
C	 0.7892069164	-0.5974779678	-1.2083227413	-0.170492
N	 1.6953274155	-1.1607752667	-0.2045519691	-0.318297
C	 1.0810400782	-0.5904529315	 0.884356935	 0.42039
O	 1.3231239944	-0.6002663179	 2.0614295163	-0.362143
H	 0.8936398251	 2.0365939213	-0.1631448699	 0.123098
H	-0.7863677302	 1.9611708472	-0.7243624671	 0.119237
H	-0.4231285061	 1.9029474646	 1.0093593504	 0.140323
H	-0.9771732552	-0.3976780697	 0.1267752556	 0.103328
H	 0.2382959031	-1.3446355204	-1.7884193821	 0.111501
H	 1.2643216545	 0.1174822144	-1.8888905559	 0.110657
H	 2.5298845119	-1.7225305286	-0.2845641196	 0.249685
