19
gdb 96433	1.96975	1.82447	1.20813	2.4715	71.96	-0.2344	-0.0289	0.2054	1095.0587	0.158733	-460.164813	-460.156239	-460.155294	-460.197979	32.182	
C	-0.0339813684	 1.516876531	-0.0902421454	-0.424424
C	 0.0688145888	 0.0004442546	-0.0097530577	 0.115478
O	 0.6959265228	-0.4566920455	-1.1981366592	-0.260153
C	 0.7144260992	-1.87740517	-1.2607167581	-0.086282
C	 1.4686195345	-2.4475341292	-0.0686630794	-0.087959
O	 0.9091845193	-1.9625096646	 1.1543175746	-0.26
C	 0.8299157863	-0.5555068151	 1.2203700047	-0.010562
C	 2.1834390844	 0.1107704864	 1.4481069683	 0.153769
O	 3.2452236045	-0.4533117043	 1.4199841306	-0.242258
H	 0.9460294748	 1.9714958327	-0.2563605645	 0.135937
H	-0.6767257105	 1.794075576	-0.9295199978	 0.134332
H	-0.4651181726	 1.9315803503	 0.8261142352	 0.120216
H	-0.9441192632	-0.433565913	 0.0495207183	 0.078471
H	-0.3180691518	-2.2627971135	-1.2767279962	 0.09349
H	 1.2049854169	-2.1474435707	-2.2004986275	 0.112174
H	 1.3724254	-3.536608784	-0.0315837503	 0.109446
H	 2.5297492553	-2.1842561262	-0.1263496035	 0.129939
H	 0.2323959186	-0.326168673	 2.1155836495	 0.106128
H	 2.115852281	 1.1971683781	 1.6845692485	 0.082259
