15
gdb 132586	3.10595	1.3383	0.94073	2.4776	72.58	-0.2286	-0.0228	0.2058	1162.8012	0.112076	-461.975541	-461.967573	-461.966629	-462.008235	29.793	
C	-0.0771911228	 1.5191693121	 0.0170148017	-0.485727
C	-0.0173700133	 0.0163871752	-0.0046806476	 0.189273
N	-0.0558612892	-0.6200908358	-1.1802856629	-0.302112
C	-0.004003082	-1.9489007475	-1.2190698425	-0.066703
C	 0.0909572242	-2.7423013304	-0.0727705781	 0.356013
O	 0.137325082	-4.0918826771	-0.2268858568	-0.435697
C	 0.1328560825	-2.1049485755	 1.1659040143	-0.362284
C	 0.0771607954	-0.7224473494	 1.1741985848	 0.24596
F	 0.1151041925	-0.0770346136	 2.3461533265	-0.075456
H	 0.8132861676	 1.949202912	 0.4885571286	 0.133572
H	-0.1490171681	 1.8870705863	-1.0071531164	 0.141037
H	-0.9418389497	 1.8779317033	 0.5861228095	 0.133561
H	-0.0379381225	-2.4271667514	-2.1939051019	 0.116916
H	 0.2016861364	-4.5138222633	 0.6361226039	 0.302124
H	 0.2062037569	-2.6509801849	 2.1010361469	 0.109521
