19
gdb 97477	5.98449	0.44127	0.4197	1.2409	102.37	-0.2275	-0.0124	0.2151	2595.7246	0.156299	-385.842662	-385.831602	-385.830658	-385.881863	37.774	
C	-0.0371842574	 1.5638401087	-0.0027490489	-0.375562
C	-0.0170585216	 0.0211438777	-0.0268221325	-0.167027
C	-1.4428242952	-0.5623480963	 0.057594233	-0.375423
C	 0.6838558567	-0.4741155473	-1.2075610634	 0.380589
C	 1.2593743803	-0.8822290089	-2.1923650355	-0.292165
C	 1.9023041386	-1.3402141186	-3.2994438749	-0.201586
C	 2.4732451621	-1.7520323481	-4.2837789445	 0.29704
C	 3.1706145534	-2.2080124253	-5.4761296716	-0.245006
O	 3.0434985276	-3.6192071528	-5.5997168553	-0.408033
H	 0.9761998459	 1.9717675056	-0.0356192766	 0.127448
H	-0.5897572988	 1.9551224792	-0.8622076345	 0.127548
H	-0.5248800648	 1.9179694798	 0.9108901574	 0.115224
H	 0.5385096852	-0.3205096657	 0.8583045902	 0.111807
H	-2.0420056422	-0.2399860256	-0.799247142	 0.127622
H	-1.421366537	-1.6549726283	 0.0652693596	 0.129004
H	-1.9353600253	-0.217815665	 0.9723395468	 0.114653
H	 2.7505601295	-1.6901865603	-6.3546640997	 0.121397
H	 4.2292050351	-1.9063381909	-5.4071459842	 0.121483
H	 3.5169577382	-3.880007768	-6.3965020735	 0.290986
