18
gdb 88291	3.29703	1.04773	1.01981	4.3179	74.68	-0.2525	-0.0134	0.2391	1267.2288	0.146065	-439.059675	-439.0507	-439.049756	-439.094114	32.231	
C	 0.4096146607	 1.4445351399	-0.6379655331	-0.433831
C	-0.0034872456	 0.10236584	-0.0945145652	 0.081109
O	 1.014758069	-0.8667085534	 0.113377628	-0.231509
C	 0.3315510167	-0.3924540265	 1.2673443973	-0.048018
C	 1.1245800306	 0.4410825902	 2.2391953053	 0.351293
O	 2.1378078013	 1.0402852365	 1.9590733685	-0.337554
N	 0.6008672536	 0.39787261	 3.5325276559	-0.081378
C	-0.6906540579	 0.9517768136	 3.9139292537	-0.234563
C	 0.5972317827	 1.5500187301	 4.3996178261	-0.215064
H	 1.3053838588	 1.8076849879	-0.133657447	 0.16779
H	 0.6169335001	 1.3583106044	-1.7096944748	 0.130923
H	-0.4013597212	 2.1706383975	-0.5138282385	 0.114453
H	-0.9191216066	-0.3127386639	-0.5229868745	 0.09515
H	-0.3425489308	-1.1114915741	 1.7318291879	 0.10294
H	-1.2476842628	 1.5052424662	 3.1617156804	 0.132732
H	-1.2948516754	 0.3394834132	 4.577334861	 0.132152
H	 0.9167513199	 1.3738549187	 5.4223049594	 0.132307
H	 0.922381757	 2.4915742295	 3.9655493196	 0.141068
