17
gdb 51248	4.14217	0.86966	0.79229	2.2305	78.63	-0.241	-0.0622	0.1788	1415.5765	0.134844	-421.877834	-421.869112	-421.868168	-421.913358	30.619	
O	 0.0572549494	-0.0411728135	-0.6082570982	-0.221786
C	 0.0769224168	 1.087124224	-0.1967618146	 0.154237
C	 1.3424401842	 1.9363520378	-0.070531956	-0.37095
C	 1.3509864456	 2.9709732777	-1.1588323387	 0.307069
C	 1.0023301972	 4.2621998286	-1.048000635	-0.294083
C	 1.0920468972	 4.9489282494	-2.3555478437	 0.397692
O	 0.8549602057	 6.1112555695	-2.5875164519	-0.331071
C	 1.5454752893	 3.8959627527	-3.3821868886	-0.335565
C	 1.7286826419	 2.5962205307	-2.5779059417	-0.310456
H	-0.8551284568	 1.6167555686	 0.1003861954	 0.094097
H	 1.3402766525	 2.4177065584	 0.9135043803	 0.129555
H	 2.2044647878	 1.2677784416	-0.15335846	 0.134147
H	 0.7012352409	 4.775728324	-0.1431345634	 0.111564
H	 0.786275525	 3.8092355255	-4.1649306556	 0.138334
H	 2.4635423951	 4.2350577041	-3.8698392515	 0.136537
H	 2.7596203433	 2.2223873451	-2.6077777629	 0.125281
H	 1.1030665048	 1.7721967058	-2.9412924139	 0.135398
