20
gdb 95589	2.56161	1.4742	1.07524	2.5097	81.46	-0.2318	0.0041	0.2359	1173.3973	0.17262	-403.144759	-403.136232	-403.135288	-403.177979	32.558	
C	-0.7141282842	 1.2692325308	 0.0345761615	-0.394687
C	-0.0113354999	-0.104680531	 0.0329740618	-0.04349
C	 0.6328578146	-0.3515653441	-1.3322815966	-0.084088
O	 1.1125525868	-1.6906610976	-1.4979751578	-0.231282
C	 2.3967768467	-2.038862979	-1.2243854388	 0.139736
N	 3.3380223599	-1.5024233104	-0.5816840041	-0.258771
C	 3.245378681	-0.2566485045	 0.1827347585	-0.228
C	 2.2257082256	-0.2791902471	 1.3091784858	-0.079261
C	 0.8966008936	-0.2292957853	 1.2308831155	-0.030625
H	 0.0090785752	 2.0788545887	-0.1095636614	 0.122988
H	-1.4648043049	 1.3326893385	-0.7601486197	 0.116573
H	-1.2193384251	 1.4439382647	 0.9887153856	 0.123394
H	-0.7917619386	-0.8715899559	 0.1440548366	 0.096042
H	-0.1355501479	-0.2420335414	-2.1037721306	 0.113067
H	 1.4198999904	 0.3696793685	-1.5585400852	 0.118154
H	 2.5723318852	-3.0105368213	-1.6883989796	 0.117805
H	 4.2321743649	-0.1031448666	 0.6291637824	 0.107861
H	 3.089210335	 0.608177473	-0.4716293336	 0.112103
H	 2.6561836691	-0.3714379454	 2.3035847674	 0.094528
H	 0.3488660527	-0.2652093646	 2.1723180724	 0.087953
