15
gdb 4538	3.89498	1.69086	1.18906	2.9374	64.92	-0.1828	0.0491	0.2319	966.1198	0.118026	-399.816696	-399.808172	-399.807228	-399.849944	30.214	
C	-0.0919497801	 1.4449789292	-0.0215133008	-0.330207
N	-0.113122492	 0.0016987855	 0.006642728	 0.020406
C	-0.0380786926	-0.8086958112	-1.1056172679	-0.226938
C	 0.1272566465	-2.102890182	-0.6647025144	 0.175358
O	 0.2226539012	-3.2873917538	-1.349488221	-0.467797
C	 0.1682852215	-2.0768334087	 0.7536589752	 0.245332
O	 0.2963600272	-3.1613073799	 1.5714070782	-0.459929
C	 0.0281249735	-0.7651278776	 1.1434804654	-0.182262
H	 0.92873027	 1.8484875373	-0.0527092278	 0.131656
H	-0.6338261464	 1.8029283526	-0.901198796	 0.133373
H	-0.591896013	 1.8357151739	 0.8688225056	 0.137405
H	-0.1089303852	-0.4007484987	-2.10113773	 0.107235
H	 0.073105045	-3.1291091296	-2.2854788413	 0.298377
H	 0.3366357954	-3.9394740394	 1.0044434743	 0.302042
H	 0.0109055989	-0.3247015778	 2.1261514626	 0.115949
