20
gdb 91838	3.55533	1.16485	1.05645	1.8798	85.6	-0.2302	0.0394	0.2696	1220.465	0.17089	-365.964089	-365.955412	-365.954468	-365.997044	34.005	
C	 0.6758618736	 1.5024093057	 0.0144990186	-0.404105
C	 0.0092658138	 0.1208395032	-0.0361853492	 0.009264
C	 0.4813863687	-0.7819306831	-1.2162755527	-0.176844
N	 1.2994237711	-1.8958065945	-0.7057400489	-0.123526
C	 2.4516869365	-1.4790436643	 0.0924082228	-0.27997
C	 1.1857550373	-1.8821160777	 0.7795867758	 0.147866
C	 0.2529033985	-0.7529696976	 1.2245557124	-0.301242
C	 1.0975057264	-3.1376686969	 1.4736060387	 0.197848
C	 1.0126845597	-4.1647134156	 2.0933669929	-0.372778
H	 1.760682419	 1.4421633518	 0.1468726903	 0.120448
H	 0.4888749365	 2.0576728836	-0.9108957521	 0.117358
H	 0.2770725427	 2.0969618365	 0.8434283696	 0.1178
H	-1.0666477682	 0.2921330957	-0.1416168147	 0.081781
H	-0.3791552839	-1.2269733859	-1.725575565	 0.110709
H	 1.0515423261	-0.2220312459	-1.9659212004	 0.105749
H	 3.2865598638	-2.1731963427	 0.0765776494	 0.124064
H	 2.73232262	-0.4296977217	 0.1197654227	 0.112446
H	 0.6792064096	-0.1770099004	 2.0519170607	 0.110739
H	-0.6803946179	-1.1930516688	 1.5859232263	 0.115255
H	 0.9426227266	-5.0802302814	 2.6264522226	 0.187137
