11
gdb 130510	4.13725	1.7772	1.24318	2.1402	66.91	-0.2979	-0.128	0.1699	871.4511	0.068228	-447.668446	-447.662852	-447.661908	-447.698445	21.644	
O	-0.0766814268	 1.2168773546	 0.0094479237	-0.184331
N	 1.002217773	 2.0591621163	 0.0034946091	-0.042772
C	 2.2051823068	 1.5491519295	-0.0108121985	-0.027149
C	 2.3917399479	 0.1547942087	-0.0199467278	 0.252896
N	 3.4375369279	-0.6385533335	-0.0342208576	-0.340517
C	 2.838879002	-1.9012342426	-0.0346242655	 0.044747
N	 1.5219391875	-1.9743621086	-0.023691762	-0.293386
C	 1.1736552654	-0.6469748491	-0.0124575093	 0.409779
N	-0.026342558	-0.1512606016	 0.001651885	-0.138201
H	 3.0122514213	 2.2747312547	-0.0147331197	 0.171499
H	 3.460388323	-2.7883771384	-0.0462731875	 0.147434
