15
gdb 11014	4.4153	1.78916	1.5038	3.6248	62.93	-0.2624	0.0052	0.2676	851.7546	0.119136	-399.800711	-399.793717	-399.792772	-399.831749	26.366	
C	 0.0424023004	 1.5004235949	-0.0626785544	-0.493339
C	-0.0539241191	 0.0112696097	 0.1014919841	 0.396797
C	-1.3051316174	-0.7479245028	-0.3101865691	-0.140674
O	-1.2739178796	-1.9934537258	 0.4071655791	-0.2529
C	-0.3029885141	-1.985037632	 1.3736838997	 0.454099
N	-0.1766352836	-2.837796644	 2.2945108725	-0.547403
C	 0.5680446266	-0.7948650345	 1.162321233	-0.143635
O	 1.1131697432	-0.768362439	-0.1731947501	-0.283104
H	 1.0058840909	 1.8590229055	 0.3060962063	 0.144219
H	-0.0419931236	 1.7787045315	-1.1187469474	 0.137313
H	-0.7571880977	 2.00716364	 0.4866704169	 0.132594
H	-2.2146452405	-0.1997646818	-0.0364962395	 0.116918
H	-1.3251535072	-0.9675935334	-1.3819621055	 0.130617
H	-0.9199385173	-3.5372629195	 2.2427320038	 0.226672
H	 1.197814049	-0.4194903289	 1.9599394605	 0.121826
