17
gdb 126438	2.60685	1.51511	0.96947	4.7993	78.82	-0.2234	-0.0309	0.1925	1187.0112	0.137415	-418.047425	-418.039209	-418.038265	-418.080727	30.658	
C	-0.0708769543	 1.5513044476	-0.0815872365	-0.383281
C	 0.0291422065	 0.0336653836	 0.0495603889	-0.243072
C	 0.7562995593	-0.4653559735	 1.2661908071	 0.209499
N	 1.2408440241	 0.4007735037	 2.1076584147	-0.254742
N	 1.8869994651	-0.0771786579	 3.1886352618	-0.222038
C	 2.0665996668	-1.3925530772	 3.4591913305	 0.046745
C	 1.5841772403	-2.3429742218	 2.6191974454	-0.245863
C	 0.8713361523	-1.9422493221	 1.4235671302	 0.326354
O	 0.3926621261	-2.7103516949	 0.5946948689	-0.387105
H	 0.9190779373	 2.0139470887	-0.1262320167	 0.12147
H	-0.6141703867	 1.815493696	-0.9933315131	 0.109016
H	-0.5965258134	 1.9915690208	 0.7704100018	 0.121475
H	-0.9656890589	-0.430575294	 0.0519036268	 0.131619
H	 0.5201607094	-0.4086243616	-0.8270695193	 0.131619
H	 2.2397458175	 0.6375354203	 3.8032711814	 0.28004
H	 2.6099021097	-1.6090796144	 4.372709515	 0.138098
H	 1.7224601089	-3.3962421732	 2.8265033431	 0.120164
