14
gdb 129210	2.63526	1.75653	1.05399	4.1142	79.6	-0.2395	-0.0917	0.1478	1046.0636	0.103128	-432.859846	-432.8525	-432.851556	-432.892893	27.169	
N	-0.0477498686	 1.3673134609	-0.1151178351	-0.453355
C	-0.0303702644	 0.0944790757	-0.1109649981	 0.277184
N	 1.1843461615	-0.6177425545	-0.0047460495	-0.303757
N	 1.5955085053	-1.886615511	 0.0335989418	-0.193663
C	 0.8215484321	-2.9204612252	-0.0306003803	 0.006705
C	-0.6051116904	-3.0266137379	-0.1532530186	-0.080989
C	-1.5394794926	-2.0563758809	-0.236202443	-0.155593
C	-1.3898622097	-0.6018092721	-0.2267791023	 0.33955
O	-2.3731404712	 0.1020481939	-0.3133690657	-0.283779
H	 0.8893251867	 1.7697954174	-0.0351023846	 0.214057
H	 1.980822537	 0.0024086629	 0.062383479	 0.263047
H	 1.3706172176	-3.8566537602	 0.018941805	 0.124885
H	-0.9654663201	-4.052277318	-0.1818041904	 0.117869
H	-2.5820512933	-2.3454014311	-0.3254196284	 0.12784
