17
gdb 35914	3.14691	1.36753	1.06404	5.1639	72.08	-0.2419	0.0279	0.2698	1108.2375	0.138672	-417.999613	-417.991998	-417.991054	-418.031911	29.084	
N	-0.0459363813	-1.1462515712	-0.1668610904	-0.31779
C	-0.0094017909	 0.0066211216	-0.0929173236	 0.274787
C	 0.0137549979	 1.4659287752	 0.0194425339	-0.20016
C	-0.7580504185	 1.9537810088	 1.2833761623	-0.185063
N	-0.6715408323	 3.3913618453	 1.467296511	-0.287587
C	 0.6961915349	 3.8724102949	 1.6755805648	-0.196606
C	 1.7634731252	 3.1904764904	 0.8280921849	 0.025504
O	 2.1500510762	 1.8716495594	 1.2499720846	-0.241072
C	 1.4429963233	 1.999597977	 0.023815353	 0.05601
H	-0.4874425422	 1.8707874862	-0.8710143936	 0.122252
H	-1.8067213461	 1.6567216579	 1.2008246788	 0.124976
H	-0.3367711088	 1.4573844577	 2.1624178707	 0.145297
H	-1.0842805173	 3.8641976907	 0.6698263746	 0.219984
H	 0.7132253226	 4.9496010226	 1.4839005148	 0.112778
H	 0.9681301923	 3.7321722017	 2.7301306247	 0.131819
H	 2.6048349698	 3.8101322221	 0.5170349986	 0.103996
H	 2.0269843752	 1.7768201197	-0.8688710592	 0.110873
