22
gdb 121995	2.50694	0.72069	0.58741	3.4093	81.43	-0.2285	-0.0259	0.2026	1913.8013	0.190349	-441.458629	-441.447331	-441.446387	-441.496931	38.176	
C	 0.3944990673	 1.3995447801	 0.3597057619	-0.226596
O	 0.4629362982	-0.0013220183	 0.24737895	-0.228675
C	-0.2948034897	-0.5051818593	-0.8285850699	-0.060057
C	-0.124266142	-2.0223898114	-0.8323967247	-0.163374
N	-0.9276724122	-2.6781743765	-1.8636938233	-0.0814
C	-0.3673973468	-2.5248015591	-3.2007210218	-0.324309
C	-1.1907789381	-4.0692544191	-1.5394680251	-0.229796
C	-2.1880031746	-4.2006783356	-0.39795007	 0.15131
O	-2.236274203	-5.1328018012	 0.3601653234	-0.237917
H	 0.7803510995	 1.9014512293	-0.5420884509	 0.103298
H	-0.637211774	 1.7465920097	 0.5286721894	 0.105262
H	 1.009091618	 1.6899432169	 1.2151661886	 0.128859
H	-1.3626559502	-0.255387731	-0.7173895004	 0.094326
H	 0.0468801883	-0.0584806699	-1.7770133543	 0.085198
H	 0.9496773074	-2.268139953	-0.9218253291	 0.09512
H	-0.4450899978	-2.3862488598	 0.1494997478	 0.121016
H	 0.6284517875	-2.9933236804	-3.3088918887	 0.100216
H	-1.0392907758	-2.9783102924	-3.9355212123	 0.121551
H	-0.2686954327	-1.4662077441	-3.4530274575	 0.125626
H	-1.6654550508	-4.5461217768	-2.4090681113	 0.126463
H	-0.2926349896	-4.6661248568	-1.3012160904	 0.109161
H	-2.9068915488	-3.3513993115	-0.3412419014	 0.084717
