16
gdb 60920	3.77045	1.08691	0.90647	3.0887	66.72	-0.2573	-0.0371	0.2202	1253.057	0.123797	-475.037979	-475.029428	-475.028484	-475.072549	29.796	
O	-0.0250769258	 1.4497594122	 0.0796056985	-0.423972
C	 0.0653768664	 0.0516771276	 0.0621032282	-0.062525
C	 0.7405340818	-0.4286254145	-1.2197505712	 0.159501
O	 1.0824941363	 0.3635924057	-2.0613748079	-0.259943
C	 0.8349026543	-0.4646107647	 1.2522752028	 0.4263
N	 1.938036404	-1.092060249	 1.1869383568	-0.32023
C	 2.3211728087	-1.3964684944	 2.5760684487	-0.188234
C	 1.2151909119	-0.7317389574	 3.4374073544	-0.113992
O	 0.2761463295	-0.2204368932	 2.4591281643	-0.252613
H	 0.4199521209	 1.7373000353	-0.7354419937	 0.298956
H	-0.9450440536	-0.3937901262	 0.0933082639	 0.11325
H	 0.8774114742	-1.5173756737	-1.3344573056	 0.121819
H	 2.3721608303	-2.48144689	 2.716343428	 0.121637
H	 3.3162175771	-0.9929981109	 2.7856044102	 0.126344
H	 0.6811858938	-1.4273091013	 4.0889020694	 0.125369
H	 1.5757361102	 0.1112414846	 4.0331005831	 0.128333
