17
gdb 46116	3.03646	1.09879	0.87892	5.0572	73.	-0.2519	0.0167	0.2686	1286.143	0.137663	-418.075692	-418.067322	-418.066378	-418.10957	30.55	
O	 0.1269931649	 0.0492258871	-0.1588475197	-0.365862
C	 0.0346495104	 1.2506383346	-0.0703711884	 0.409515
C	-1.1270101515	 2.0580137878	 0.5200758718	-0.332689
C	-0.8398266642	 3.511575578	 0.1100291787	-0.24396
C	 0.6854990276	 3.5478547178	-0.174816252	 0.016945
C	 1.4969435162	 4.0805228693	 1.0371256128	-0.34213
C	 2.9356135523	 3.990383379	 0.8045643175	 0.255573
N	 4.0651875326	 3.8989365479	 0.5779713345	-0.300377
N	 0.9793258334	 2.1637748884	-0.4761965173	-0.297241
H	-2.0798582941	 1.6743449854	 0.1523755486	 0.139756
H	-1.1205024879	 1.9144415698	 1.6060634726	 0.134216
H	-1.3771801899	 3.7583588261	-0.8090452586	 0.125438
H	-1.1289336347	 4.245633627	 0.8656890364	 0.113135
H	 0.9133749716	 4.1860146919	-1.0349289097	 0.108475
H	 1.2315907292	 5.126542425	 1.2272571234	 0.155589
H	 1.2458000718	 3.5070991065	 1.9365304234	 0.156786
H	 1.8831967123	 1.8547856585	-0.801071534	 0.26683
