20
gdb 39511	2.35491	1.77339	1.20632	2.6046	74.79	-0.2325	0.0677	0.3002	1067.2313	0.173868	-440.237713	-440.229976	-440.229032	-440.269775	30.728	
C	 0.1656399377	 1.3607380168	-0.2725488829	-0.080055
C	 1.3848274417	 2.1457265305	 0.2145215022	-0.087111
O	 2.649941389	 1.599898001	-0.1249931473	-0.233573
C	 2.8947671721	 1.4404118248	-1.5058702956	-0.094451
C	 2.4241882831	 0.1226999627	-2.1113725993	-0.015474
N	 3.0276523535	-1.1265767909	-1.6352093066	-0.333088
C	 1.5844908432	-0.9098018257	-1.4318792434	-0.064617
C	 1.14243119	-0.8230988256	 0.014971441	-0.063838
O	 0.039255061	 0.0506369542	 0.2407398471	-0.262228
H	-0.7284578177	 1.8960369943	 0.0676946381	 0.108014
H	 0.1373621851	 1.3600258583	-1.3725684277	 0.091727
H	 1.2986818534	 3.1753463182	-0.1758721837	 0.087895
H	 1.3792632976	 2.1944800216	 1.3079795838	 0.117594
H	 2.4391478496	 2.2674394673	-2.0747604853	 0.086015
H	 3.9811147774	 1.5128272227	-1.633276684	 0.117617
H	 2.265330947	 0.2061644737	-3.1878876705	 0.082543
H	 3.193050381	-1.7635165963	-2.409306759	 0.23242
H	 0.8972503431	-1.4479446503	-2.0841581212	 0.085527
H	 0.7877177484	-1.8065324885	 0.3417785467	 0.100073
H	 2.0052458939	-0.5479270689	 0.6263483375	 0.12501
