19
gdb 41560	2.95039	1.83047	1.79099	1.5508	76.51	-0.2427	0.0083	0.251	886.0016	0.162984	-385.869391	-385.863079	-385.862135	-385.899726	27.326	
C	-0.0328271038	 1.5971656551	 0.1430325678	-0.233551
C	 1.5248972031	 1.6292407033	 0.12875276	-0.233545
C	 1.5554952533	 0.084393277	-0.0605182055	-0.011111
C	-0.003275548	 0.052312807	-0.0463596915	-0.0111
C	-0.2939086192	-0.6102380672	-1.4391415803	 0.010184
O	 0.796196407	-1.5466264069	-1.497504048	-0.248936
C	 1.8478221521	-0.5662595348	-1.4585473365	 0.010183
C	 1.4137574892	 0.3950064418	-2.5596760163	-0.086318
C	 0.0803355149	 0.3676992818	-2.5475300823	-0.08634
H	-0.4747102299	 1.9141755098	 1.0905060768	 0.09581
H	-0.5157186081	 2.1553905287	-0.6626324304	 0.094637
H	 1.9695768395	 2.2065072553	-0.6854496956	 0.094643
H	 1.970627103	 1.9645946786	 1.0680717282	 0.095805
H	 2.0599483011	-0.4791571399	 0.7257039121	 0.075411
H	-0.4697542289	-0.5312676503	 0.748648247	 0.07541
H	-1.246956779	-1.1301794053	-1.5300998651	 0.07491
H	 2.8196096806	-1.0466743464	-1.566915007	 0.074905
H	 2.0717988169	 1.0162992769	-3.1514748074	 0.1045
H	-0.6132523937	 0.9612965556	-3.1270361459	 0.104502
