20
gdb 94587	3.24841	1.03158	0.85597	2.3751	75.76	-0.2649	0.058	0.3229	1388.2984	0.170548	-440.327524	-440.317916	-440.316971	-440.363416	35.135	
C	-0.1005876947	 1.576606087	 0.0402496156	-0.384964
C	-0.0032852038	 0.0536827991	-0.0078509366	-0.039119
C	 1.2054233617	-0.477803886	-0.8419687781	-0.230958
C	 2.002692618	-0.6735187562	 0.4792523858	-0.249276
C	 0.6576445626	-0.6032164218	 1.2311706896	 0.17786
O	 0.5925135045	 0.1803849877	 2.4229827702	-0.270848
C	 0.9522063647	-0.456830614	 3.5662302665	 0.487674
N	 0.9059022903	 0.4175564956	 4.6169180846	-0.565153
O	 1.2909803486	-1.6149498294	 3.6376218724	-0.400268
H	 0.8610883459	 2.0375294582	 0.2874412344	 0.117496
H	-0.4183396883	 1.9646404276	-0.9331871389	 0.11184
H	-0.8253498863	 1.9040724882	 0.7913503485	 0.116976
H	-0.9781422982	-0.3662105774	-0.273227217	 0.06952
H	 0.9861095763	-1.4246565414	-1.34134306	 0.104285
H	 1.6256526608	 0.2137840071	-1.5760081047	 0.099695
H	 2.5943100707	-1.5815507003	 0.6033232937	 0.112469
H	 2.6273103736	 0.1928260736	 0.7121784229	 0.109486
H	 0.2625624876	-1.598515375	 1.442567054	 0.103175
H	 0.4006157447	 1.28005538	 4.5056075898	 0.262696
H	 0.9439138715	 0.0077797775	 5.5342308573	 0.267412
