21
gdb 63927	3.05219	1.39777	1.20971	1.2871	83.2	-0.2349	0.0246	0.2595	1118.5188	0.182791	-387.09725	-387.088839	-387.087895	-387.129856	33.799	
C	-0.9547300498	 1.3806652649	 0.0248661068	-0.45662
C	-0.148669809	 0.0920302075	-0.0051797952	 0.411229
O	-0.9975265506	-1.0360615143	-0.1981189618	-0.482899
C	 1.1059669857	 0.0375513211	-0.9326521838	-0.287197
C	 1.9321762832	-0.6166731418	 0.2126474025	-0.002758
C	 3.1861869829	 0.1470545182	 0.6827180483	-0.277664
C	 2.6330749641	 1.1076267285	 1.7118043795	-0.066206
C	 1.3482526151	 0.8826483342	 1.9938167266	-0.089068
C	 0.7741018064	-0.2614806915	 1.2055349894	-0.077211
H	-0.3195190859	 2.2403608635	 0.2559528342	 0.11972
H	-1.4230195583	 1.564036027	-0.9509420101	 0.100957
H	-1.7494840594	 1.3188579607	 0.775310466	 0.120035
H	-1.455560455	-0.9175263809	-1.0377234921	 0.271607
H	 0.9725826126	-0.556610177	-1.84054285	 0.0895
H	 1.4803095656	 1.0280164197	-1.2091121282	 0.09361
H	 2.1050860487	-1.6818567589	 0.0598437086	 0.071651
H	 3.9395593521	-0.516195985	 1.1297110973	 0.102277
H	 3.6886569384	 0.6631359148	-0.1464834827	 0.10002
H	 3.2429425441	 1.8767197361	 2.1749244903	 0.089802
H	 0.7674170134	 1.4436161306	 2.7186832217	 0.092002
H	 0.3490747756	-1.0525130373	 1.8308114325	 0.077213
