16
gdb 35070	3.90429	1.35635	1.3027	0.4364	81.7	-0.2181	-0.0464	0.1717	1004.2277	0.123949	-363.445248	-363.438158	-363.437214	-363.476651	28.6	
C	-0.0145979524	-1.2170551657	 0.1274198426	-0.449301
C	-0.0327798686	-0.0169419536	 0.061867893	 0.313279
C	-0.0408815681	 1.4378994184	-0.0100415159	-0.213685
C	-0.5675745208	 2.0574827716	 1.29439189	-0.121785
C	 0.2102155648	 3.1102701825	 1.6262664094	 0.009694
C	 1.4098370029	 2.7621130912	 2.5087185173	-0.164756
N	 2.1750334296	 2.5980785205	 1.1839348052	-0.144936
C	 1.355352912	 2.1240483855	-0.041799145	-0.020801
C	 1.1846150543	 3.4734010871	 0.5017300621	-0.095365
H	 0.0005950579	-2.2776775949	 0.1764099813	 0.200002
H	-0.5571257657	 1.7429416741	-0.9331877536	 0.121336
H	-0.9775096744	 1.3903659754	 2.0463294321	 0.112067
H	 1.9118564649	 3.5772092209	 3.0380677544	 0.120849
H	 1.331643127	 1.8743641906	 3.141221659	 0.120173
H	 2.0448737955	 1.8945652159	-0.8483858265	 0.112888
H	 1.4309546809	 4.4400361107	 0.0780504344	 0.100341
