16
gdb 26693	2.32062	1.56621	0.94358	1.4942	69.03	-0.1659	0.047	0.213	1182.2613	0.122415	-475.043658	-475.033876	-475.032931	-475.077664	35.301	
C	-0.1223506931	 1.5932347265	 0.1888752017	-0.508535
C	 0.0106906077	 0.120873555	 0.0135673632	 0.206765
C	 0.1393576706	-0.6443906749	-1.1173779262	 0.187138
O	 0.1670492319	-0.1811116627	-2.4032858905	-0.462861
C	 0.2119661048	-2.0194620912	-0.7328789684	-0.005429
O	 0.4097775519	-3.1023128838	-1.5737435228	-0.462328
C	 0.1432966681	-2.0530828255	 0.6383517873	 0.317469
O	 0.1944709887	-3.0840168117	 1.5182410721	-0.441941
N	 0.0063653442	-0.7762850576	 1.0891730047	-0.374009
H	 0.6489102094	 2.0085359197	 0.8514750649	 0.116502
H	-0.0148741049	 2.0772284402	-0.7847884803	 0.147586
H	-1.0978292466	 1.8894089657	 0.5986188354	 0.118868
H	 0.5137831735	-0.8956205786	-2.9496055074	 0.293822
H	-0.4447064321	-3.382483503	-1.9224537548	 0.297078
H	 0.4285786632	-3.8702154664	 1.0112935839	 0.307745
H	-0.0186714973	-0.5218385719	 2.0605275573	 0.262132
