21
gdb 70569	2.49496	1.72643	1.40799	1.424	81.38	-0.2338	0.0883	0.3221	1037.1913	0.184225	-387.06901	-387.061242	-387.060297	-387.100592	32.231	
C	 0.01189197	 1.4752733494	-0.0527966036	-0.473041
C	-0.0309016406	-0.0379088133	 0.0398693212	 0.320016
C	-0.3084786208	-0.6560943443	 1.3960566433	-0.358842
C	 1.0709534659	-0.7360039549	 0.7984528438	 0.05402
O	 1.4863705561	-1.9853671941	 0.3240813352	-0.257013
C	 1.7618940511	-1.9879679098	-1.0746917754	-0.096963
C	 0.5182168547	-1.678574956	-1.8868109514	-0.031867
C	-0.8033011575	-2.1805030919	-1.3667190195	-0.317592
C	-0.4578107904	-0.7137595121	-1.2451701585	-0.080801
H	 0.6252770833	 1.8023782021	-0.9005918825	 0.116404
H	-0.9940601681	 1.8899868007	-0.1890508418	 0.117701
H	 0.431904914	 1.9196711332	 0.8549131577	 0.1129
H	-0.4630154275	 0.0132490383	 2.2360503807	 0.105776
H	-0.8745880003	-1.5791622342	 1.4415997848	 0.118899
H	 1.8743255415	-0.1405263847	 1.2332354921	 0.080274
H	 2.5600345197	-1.2649146358	-1.3097457967	 0.088087
H	 2.1407906763	-2.99110974	-1.29599364	 0.109095
H	 0.6726653094	-1.6274288263	-2.9604125141	 0.080995
H	-1.5715403049	-2.449140026	-2.0834166301	 0.106751
H	-0.7821013579	-2.7981167847	-0.4765879011	 0.126378
H	-1.0019206335	-0.0561552757	-1.9164277842	 0.078823
