17
gdb 48880	3.30229	1.57983	1.32361	3.0517	71.57	-0.2531	-0.0322	0.2209	974.8495	0.13653	-421.803653	-421.796504	-421.79556	-421.835352	28.001	
O	-0.7933277153	 1.077153267	 0.395533193	-0.256659
C	 0.3048780431	 0.833835207	-0.0351761174	 0.078761
C	 1.4417164788	 1.818193229	-0.0396030571	 0.326761
C	 1.4760025121	 2.9412600649	 1.047581347	-0.285092
C	 1.8516485957	 3.928157889	-0.0573644429	-0.075316
C	 2.8954848919	 3.3108363676	-0.9805554742	-0.07559
C	 3.6703259821	 2.0936661594	-0.4874182854	-0.112676
O	 2.6702693428	 1.1225431138	-0.1442875245	-0.312972
C	 1.4554029083	 2.9347054162	-1.1356031298	-0.125797
H	 0.5623864322	-0.1473553514	-0.4894378128	 0.09323
H	 0.467723044	 3.1194730148	 1.4278440661	 0.132473
H	 2.1705759166	 2.7778593628	 1.8775220828	 0.100564
H	 1.6841089341	 4.9982881939	-0.0425553976	 0.093091
H	 3.3504421074	 3.9646646727	-1.715299455	 0.099758
H	 4.3124027944	 1.6704745061	-1.2678182873	 0.111676
H	 4.2934319073	 2.3153374003	 0.3888885873	 0.105953
H	 0.8424293346	 3.0214755468	-2.0217738621	 0.101834
