18
gdb 40870	4.06952	1.40328	1.30093	1.3678	73.92	-0.2413	0.0746	0.316	1002.9435	0.14911	-401.847525	-401.840602	-401.839658	-401.879163	27.397	
C	 0.070866216	 1.4892992629	-0.0586598777	-0.150784
O	 1.467055308	 1.4569564175	 0.2997302781	-0.274121
C	 1.4614251941	 0.0183789396	 0.4099371065	-0.157268
C	-0.0013191889	-0.0521055803	-0.0628313681	 0.342002
C	-1.1685459764	-0.7361939678	 0.6317830267	-0.137162
C	-1.8826655863	-0.9300419647	-0.655218485	-0.044859
C	-0.469209104	-0.7851642259	-1.3443783006	-0.172856
C	-0.2806038597	-2.2609622406	-0.9627568606	-0.157197
N	-1.3633279461	-2.1199442449	 0.0709889805	-0.150683
H	-0.5375848941	 1.9843916584	 0.7103430919	 0.100493
H	-0.0999923004	 1.9867300081	-1.0219697911	 0.102327
H	 2.2028974767	-0.450473183	-0.2508201988	 0.100539
H	 1.6417943328	-0.3165274716	 1.4401385672	 0.10363
H	-1.5636908649	-0.5588152787	 1.624050836	 0.100689
H	-2.9100993075	-0.7946319339	-0.9644918551	 0.102703
H	-0.2321738685	-0.3843440362	-2.3287425853	 0.079052
H	-0.6265410357	-2.9604055512	-1.7276331572	 0.11215
H	 0.696642545	-2.5810145377	-0.5808885073	 0.101346
