21
gdb 41821	2.29863	1.94226	1.47321	2.3318	76.88	-0.2296	0.0716	0.3012	993.1492	0.18674	-424.235099	-424.227796	-424.226852	-424.266594	29.821	
C	 0.3724435446	 1.6736823145	 0.2450391689	-0.068833
O	 1.4384473723	 2.0312140728	-0.6366376058	-0.264157
C	 2.0306915234	 0.8470782153	-1.157665123	 0.105431
C	 0.8661618792	-0.15259606	-1.2266157991	-0.251766
C	 0.1059001507	 0.1523657049	 0.0798190101	-0.023314
C	 0.584517744	-0.6914823717	 1.2798691146	-0.22337
C	 2.0960887074	-0.9622639294	 1.3237414571	-0.066496
O	 2.8870861065	 0.1881079509	 1.0774416824	-0.242082
C	 3.2123257169	 0.4086956107	-0.2820830945	-0.093362
H	 0.6423256189	 1.9219832026	 1.2784004587	 0.10158
H	-0.5046716384	 2.270699125	-0.0339239189	 0.09255
H	 2.4268123041	 1.0871660072	-2.1524595029	 0.074644
H	 0.2442305015	 0.0844923058	-2.0947901221	 0.104242
H	 1.1845170156	-1.1943817527	-1.3186191881	 0.098093
H	-0.9670005589	-0.0186912236	-0.043996894	 0.074327
H	 0.2793385792	-0.1889989215	 2.2053890213	 0.104353
H	 0.0759942277	-1.6642632878	 1.2750560723	 0.094186
H	 2.370434836	-1.3224601595	 2.3217215798	 0.103672
H	 2.3652962196	-1.7575582759	 0.6114945272	 0.088148
H	 3.6829522518	-0.4892285793	-0.7204323454	 0.078347
H	 3.9535476177	 1.2138191819	-0.2768218486	 0.113807
