15
gdb 91733	2.68159	1.71685	1.53914	2.5252	58.92	-0.2736	-0.0083	0.2652	900.3003	0.114554	-494.936184	-494.929469	-494.928525	-494.967335	26.606	
O	 0.1132195968	 1.4070333337	 0.1106066863	-0.434602
C	 0.0090322329	 0.011478759	 0.017429773	 0.125872
C	-1.4406723925	-0.5679988603	-0.1211642633	-0.281294
C	-1.3178026402	-1.3288527857	-1.4657205416	-0.094573
O	 0.0333200545	-1.8308667474	-1.4125919508	-0.238659
C	 0.6415969689	-0.5773638938	-1.2697710098	 0.146527
O	 0.1163824435	 0.2098287076	-2.3737179575	-0.26308
C	-1.1691172887	-0.2576119533	-2.5485882234	 0.456359
O	-1.9352996858	 0.176529159	-3.3506861343	-0.328422
H	-0.0671917698	 1.7738508424	-0.7642439881	 0.296787
H	 0.5110418382	-0.3979730453	 0.8966437129	 0.110346
H	-1.6794721098	-1.266897482	 0.6819693476	 0.127046
H	-2.1897289519	 0.2260148024	-0.1348875459	 0.136007
H	-2.0313640314	-2.1179759394	-1.6828708522	 0.123055
H	 1.7248216454	-0.6273669868	-1.3478308228	 0.118628
