18
gdb 6722	6.58322	0.72971	0.68048	2.3075	65.85	-0.2588	-0.0305	0.2283	1591.9806	0.149447	-422.069408	-422.059452	-422.058508	-422.105535	33.404	
C	-0.0421747822	 0.5820419218	-0.8470632173	-0.39951
C	 0.1093781312	-0.0792281263	 0.5190998016	 0.107617
O	 0.4712607112	 0.8484070187	 1.5345458911	-0.42782
C	-1.1519403804	-0.8319733694	 0.9514248766	-0.064204
O	-1.4227744865	-1.8549516001	 0.0143654093	-0.249145
C	-2.5571892679	-2.6207069744	 0.3231591035	-0.139991
C	-2.7200920747	-3.6845237557	-0.7489250841	 0.13907
O	-3.6250922619	-4.4747781849	-0.7713971277	-0.236101
H	 0.8846940292	 1.0869173764	-1.1314812308	 0.125809
H	-0.2930753556	-0.1612047111	-1.6077975081	 0.135893
H	-0.8490126779	 1.3268283539	-0.8276396718	 0.102738
H	 0.9334798937	-0.8009946759	 0.4838713896	 0.102184
H	-0.1399147746	 1.5918301498	 1.4859052177	 0.279724
H	-0.9954387459	-1.2512995844	 1.9569052974	 0.102893
H	-2.0038720539	-0.1303793945	 1.0129542921	 0.077655
H	-2.4658852772	-3.118634832	 1.3037264297	 0.124527
H	-3.4746281736	-2.0089764479	 0.359198246	 0.122534
H	-1.916623273	-3.666538354	-1.5181168047	 0.096127
