16
gdb 11664	3.13597	1.96946	1.55131	2.8192	64.91	-0.2456	0.006	0.2516	858.3855	0.130787	-383.701968	-383.694665	-383.693721	-383.733832	27.357	
O	 0.0126669113	 1.3918569855	 0.0407154956	-0.417695
C	 0.0043805481	-0.0188967008	-0.1123731057	-0.205865
C	-1.3994437249	-0.5564161336	-0.0610251297	 0.185799
C	-2.5981580764	-0.3117179771	-1.0499631039	-0.25916
C	-3.2464208081	-1.1776080757	 0.0864773759	-0.171993
C	-1.9296228125	-2.031321788	 0.036718416	-0.284983
C	-2.4484820952	-0.2643546762	 1.0229383792	 0.4335
O	-2.5517470525	 0.3704678301	 2.0303313944	-0.348739
H	-0.390476607	 1.5888535071	 0.894370565	 0.299618
H	 0.4746427866	-0.2272308546	-1.0793928702	 0.116033
H	 0.6133204498	-0.5164507402	 0.6597365932	 0.098203
H	-2.9485096742	 0.7135879856	-1.174696392	 0.12252
H	-2.4987959613	-0.8320053324	-2.0059231174	 0.108854
H	-4.2711541082	-1.5343112502	 0.1520768769	 0.098431
H	-1.8111346613	-2.6149401673	-0.879605142	 0.110559
H	-1.664428964	-2.6086310023	 0.9246645445	 0.114916
