19
gdb 108545	2.74284	1.64876	1.24655	1.9571	74.22	-0.2388	0.0631	0.3019	1034.3479	0.160838	-422.972116	-422.964652	-422.963708	-423.004013	29.928	
O	 0.0711354083	 1.4005112499	 0.0275248874	-0.41552
C	 0.0193399211	-0.0133520277	-0.1321093895	-0.187419
C	-1.3920819292	-0.5465180715	-0.0561726046	 0.290049
C	-2.4079156035	 0.0050666462	-1.0575202144	-0.136178
O	-3.5954552967	-0.7103165093	-0.6846687124	-0.282145
C	-3.1368567601	-1.505273993	 0.3838054993	 0.151576
C	-1.7185074373	-2.0816714968	 0.0897472403	-0.142275
C	-1.4132308929	-2.0112583873	 1.6033867407	-0.266292
C	-2.1766482192	-0.7010160794	 1.3091859532	-0.14029
H	-0.248428968	 1.6050119483	 0.912428137	 0.285004
H	 0.4349871661	-0.2087056044	-1.1275530956	 0.113413
H	 0.6727406965	-0.5191697467	 0.593391609	 0.093472
H	-2.563073125	 1.0844465559	-0.9578637478	 0.11084
H	-2.1426674852	-0.2181118419	-2.0992020313	 0.100228
H	-3.9354757034	-2.1266711238	 0.7872820319	 0.087501
H	-1.4601492497	-2.8696364694	-0.6192489947	 0.07383
H	-1.9250635185	-2.7406536299	 2.237653356	 0.095917
H	-0.3652477279	-1.9230658265	 1.8945087204	 0.100013
H	-2.4515044854	 0.0960941274	 2.002760395	 0.068277
