19
gdb 71171	2.5616	1.62547	1.32256	0.857	84.72	-0.244	0.0458	0.2899	1047.9719	0.158685	-348.676657	-348.668629	-348.667685	-348.708738	32.388	
C	-0.0043744221	 1.5535404496	 0.0208485914	-0.511773
C	 0.0413202458	 0.051279605	 0.0855421124	 0.319161
C	-1.2521305427	-0.7995973141	 0.2444268845	-0.278493
C	-0.3572055103	-1.8641707381	 0.870981697	-0.057503
C	 0.976411421	-1.845866878	 0.1138747468	-0.073045
C	 0.707258204	-0.8504667917	 1.2133581733	-0.159581
C	 0.8872687484	-0.7613009754	-0.9662607524	-0.204345
C	 0.3258376859	-1.0471791206	-2.2755206475	 0.313424
C	-0.1439628555	-1.2760072377	-3.3595996599	-0.460079
H	 1.0018410537	 1.9870495061	 0.0230121094	 0.11651
H	-0.5083771047	 1.8825925646	-0.8954960475	 0.129314
H	-0.5521838031	 1.9705847682	 0.8727443342	 0.118198
H	-1.9197184189	-0.3554437995	 0.9889342502	 0.093871
H	-1.8112715306	-1.038005204	-0.6661219055	 0.104344
H	-0.6498237606	-2.7340218407	 1.444751801	 0.084783
H	 1.6476067674	-2.6945413348	 0.1309093286	 0.090038
H	 1.2392670417	-0.62224712	 2.1253540332	 0.089741
H	 1.8661177021	-0.2805356456	-1.0750282536	 0.094064
H	-0.5557753915	-1.4843710132	-4.3158516458	 0.19137
