17
gdb 33904	3.84529	1.32876	1.19519	5.2552	77.38	-0.2414	0.002	0.2434	1055.0815	0.137735	-380.812113	-380.804988	-380.804044	-380.843567	28.4	
N	 0.0687094578	-1.1458234484	-0.0265571396	-0.351594
C	 0.0513571836	 0.0110110211	 0.0036009744	 0.208673
C	 0.0355188643	 1.4409693325	 0.0308252724	 0.235455
C	 0.3270715502	 2.264172616	-1.2086656445	-0.333937
C	 1.1985182023	 2.4595102222	-0.0080962936	-0.127939
C	 0.4626518381	 3.2043292433	 1.1148646057	 0.031079
C	-0.5644570107	 4.3233946512	 0.7933189642	-0.264919
C	-1.648901009	 3.2059709269	 0.7596492447	-0.182302
N	-0.6265178899	 2.1660816494	 1.1368483882	-0.164963
H	 0.7829910078	 1.6982723772	-2.0138956453	 0.144994
H	-0.3717748102	 3.0240633384	-1.5402747425	 0.127696
H	 2.2600791002	 2.2494862918	-0.0278344125	 0.1186
H	 1.0419081886	 3.3042219877	 2.0357436489	 0.094263
H	-0.6900407879	 5.0485844813	 1.5989297622	 0.117767
H	-0.4001155338	 4.8647202889	-0.1410689012	 0.113712
H	-2.4214767859	 3.2889087342	 1.5274805856	 0.118775
H	-2.1356090055	 3.0329524364	-0.2044015071	 0.11464
