17
gdb 47633	2.40309	1.62326	1.02439	5.6979	76.9	-0.236	-0.0835	0.1525	1133.6887	0.136816	-421.863014	-421.854968	-421.854024	-421.896653	29.848	
O	-0.3231069315	-0.0646428731	-0.2712420647	-0.26947
C	-0.0970022633	 1.1039474131	-0.0831208702	 0.292809
C	-1.1799280633	 2.1601053161	-0.1536035509	-0.308521
C	-1.4551967209	 2.7683708872	 1.2366872122	-0.222801
C	-0.5332933916	 3.9296531976	 1.6059356325	-0.257435
C	 0.9504342851	 3.7275651681	 1.5275656707	-0.036563
C	 1.7060173565	 2.7626870696	 0.9814500433	-0.149503
C	 1.364205768	 1.5246136717	 0.2491212121	 0.275126
O	 2.2522681025	 0.7921910405	-0.134758094	-0.292297
H	-0.89095824	 2.9521765464	-0.8568220494	 0.11707
H	-2.0722138967	 1.6650297038	-0.5429775828	 0.130122
H	-2.4866069923	 3.1338260776	 1.2609246991	 0.117427
H	-1.3934008463	 1.9819723908	 1.9987062656	 0.121915
H	-0.7691106368	 4.79676462	 0.9677029975	 0.129136
H	-0.7675751438	 4.2681924358	 2.6240292642	 0.123963
H	 1.5058273082	 4.543372916	 1.9901331	 0.114026
H	 2.785688116	 2.8635034787	 1.0624291749	 0.114996
