17
gdb 12664	3.36747	1.86047	1.37487	3.4788	65.24	-0.2572	0.0268	0.284	910.6747	0.142848	-401.017452	-401.009505	-401.008561	-401.049642	29.487	
C	 0.470206963	 1.5926704606	 0.0825561206	-0.391166
C	 0.0425741623	 0.118102884	-0.0049508784	-0.107769
C	 0.7155733322	-0.6579685751	-1.1517711779	 0.092207
O	 0.9745307863	 0.1713252567	-2.2644360234	-0.425802
C	 1.9845479619	-1.199224597	-0.4649022477	-0.122148
O	 1.6107055403	-1.4112227946	 0.9011926234	-0.238497
C	 0.5074117936	-0.657251147	 1.2134575368	 0.414333
N	-0.0240928842	-0.6147141456	 2.356381701	-0.54247
H	 1.5547192608	 1.6976688121	 0.184668612	 0.119778
H	 0.1647058329	 2.1299042035	-0.8174106351	 0.133316
H	 0.0012878303	 2.0511627332	 0.9560903306	 0.137309
H	-1.0461591045	 0.0688473158	-0.0674714672	 0.106659
H	 0.0732028389	-1.5036716646	-1.4366631379	 0.084242
H	 1.2379608871	-0.3832169308	-3.0048736237	 0.290813
H	 2.3419671262	-2.1500505007	-0.8695204257	 0.110953
H	 2.7902135915	-0.4572557662	-0.5289282703	 0.117926
H	 0.4917578513	-1.2006141645	 3.0155785228	 0.220316
