23
gdb 114101	2.8607	1.22139	1.02808	1.4755	85.72	-0.2336	0.0815	0.3151	1305.2304	0.204978	-388.276392	-388.266963	-388.266019	-388.310678	36.06	
C	-0.0286800155	 1.4635536091	-0.3395514031	-0.379571
C	 0.0372161604	-0.0454521449	-0.0789007074	-0.200941
C	-1.3342228726	-0.6330079132	 0.2024115054	 0.160245
O	-2.2440547514	-0.5215468116	-0.927820071	-0.354021
C	-2.6269480819	-1.917554905	-0.8241184873	 0.473189
C	-4.117896986	-2.1001969444	-0.7116688321	-0.476085
C	-1.8055987661	-2.7998449053	-1.80226517	-0.268251
C	-0.7550003292	-3.0524613394	-0.6757983076	-0.230999
C	-1.5654460266	-2.1555148153	 0.2969760306	-0.172534
H	 0.9610196697	 1.8703457448	-0.5675091771	 0.108721
H	-0.6891134525	 1.6745784201	-1.1853928816	 0.137058
H	-0.4191681449	 1.9994528629	 0.5326724742	 0.11145
H	 0.4806498189	-0.5470140975	-0.9458418123	 0.099898
H	 0.6873005295	-0.2558117605	 0.7810572044	 0.093398
H	-1.7714000678	-0.1164272007	 1.0718706349	 0.066321
H	-4.6090020389	-1.755760467	-1.6292234043	 0.126827
H	-4.3738144575	-3.1545590058	-0.5647543153	 0.113225
H	-4.5212963402	-1.5214902096	 0.1248730029	 0.120558
H	-2.3218720476	-3.7038822254	-2.1374622878	 0.095358
H	-1.451799511	-2.2480290938	-2.6756945251	 0.105956
H	-0.7278293384	-4.0942737916	-0.3480403695	 0.101284
H	 0.2708903507	-2.7423076232	-0.8858252314	 0.101827
H	-1.793876031	-2.5577378627	 1.2842105207	 0.067085
