16
gdb 16363	2.6746	2.24577	1.41693	3.211	66.59	-0.236	-0.0188	0.2172	884.2894	0.129129	-383.731684	-383.723921	-383.722976	-383.763901	28.916	
O	 0.1322160969	 1.1777060293	-0.517510879	-0.429206
C	 0.0648334656	-0.1103573546	 0.0523267885	 0.006768
C	 0.066105954	-0.1973443883	 1.6188646113	-0.388505
C	-1.3155047723	-0.8804537293	 1.5288340829	 0.344426
O	-2.0504473204	-1.3982400064	 2.3234173962	-0.315901
C	-1.3601178705	-0.6764402315	 0.0458404166	 0.240325
C	-2.5440564581	-0.1238167417	-0.7236632671	-0.294197
C	-2.0785015791	-1.5173963	-0.9830736544	-0.323037
H	 1.0485059565	 1.4710416545	-0.4951105945	 0.28804
H	 0.7979512738	-0.7865971426	-0.4074421248	 0.075013
H	 0.8570573853	-0.7826745259	 2.0947473135	 0.124068
H	 0.0108527947	 0.7911661604	 2.0852314164	 0.134846
H	-3.4607094413	 0.0228347623	-0.1629824704	 0.135127
H	-2.3077308768	 0.6483147831	-1.4466291365	 0.142111
H	-1.5451415171	-1.7218170225	-1.9056688628	 0.124704
H	-2.6697870211	-2.3414342568	-0.5974970359	 0.135419
