22
gdb 40674	3.66575	1.07427	0.98249	0.929	87.28	-0.2147	0.094	0.3087	1314.2581	0.194433	-367.147681	-367.138906	-367.137962	-367.181856	33.712	
C	-0.2674726494	 0.9123898007	-0.4866466302	-0.221535
C	 1.0272902994	 1.1343913567	 0.2095018736	-0.213658
N	 0.4037113881	-0.1878484001	 0.1956489313	-0.080068
C	-0.1030464265	-0.6932186594	 1.4487009799	-0.026216
C	-1.282584093	-0.1321821823	 2.2273461684	-0.397534
C	-1.3844362572	-1.4608449655	 1.5218929774	 0.358182
C	-2.2611155582	-1.836617294	 0.316826449	-0.288548
C	-2.1556907789	-3.3250718723	 0.7654035045	-0.200778
C	-1.5569111859	-2.8608390552	 2.1262459667	-0.292605
H	-1.1517877247	 1.3577089423	-0.0383957014	 0.11387
H	-0.3057837089	 0.8275815082	-1.5690963959	 0.115456
H	 1.9527698996	 1.2264578545	-0.3519658199	 0.114599
H	 0.9923284322	 1.6994855836	 1.1391502904	 0.111508
H	 0.713042881	-1.0803820799	 2.055297459	 0.091069
H	-1.2153893744	-0.1223763805	 3.3115424348	 0.106178
H	-1.8527557707	 0.6945596195	 1.815630328	 0.108869
H	-3.2794015196	-1.4410715003	 0.3873477544	 0.094822
H	-1.858099677	-1.5967995224	-0.6697840489	 0.110994
H	-3.0891337548	-3.8901892488	 0.8098878215	 0.095252
H	-1.4376855506	-3.8882825113	 0.1646865027	 0.107249
H	-0.6486807573	-3.3671011632	 2.4664445736	 0.095838
H	-2.290384933	-2.8816371702	 2.9392817011	 0.097056
