16
gdb 50223	4.22801	1.2592	1.13776	1.7386	68.87	-0.2448	-0.0358	0.209	1056.3332	0.125084	-437.815375	-437.80849	-437.807546	-437.847337	26.506	
O	-0.9571041149	 1.0769875823	 0.4252168071	-0.245161
C	 0.1655546947	 0.8641125772	 0.0491211386	 0.143868
C	 1.2377727291	 1.9345484613	-0.0474889851	 0.002095
O	 2.5484805633	 1.3432224196	-0.018352363	-0.287904
C	 3.1144009722	 1.749262291	-1.2446606025	 0.153936
C	 2.7156742827	 3.2121376961	-1.5817911061	-0.079532
N	 2.7706643385	 2.8546264948	-3.0439594328	-0.332466
C	 2.0688034823	 1.6916833417	-2.3930517678	-0.076953
C	 1.2722850554	 2.6255720245	-1.41536787	-0.084753
H	 0.5058209416	-0.1428215697	-0.2818205572	 0.089241
H	 1.1135818918	 2.6426917826	 0.7800065622	 0.113221
H	 4.1298234387	 1.3835994376	-1.3705231382	 0.110172
H	 3.1179370169	 4.1423955882	-1.1798961828	 0.091183
H	 2.0841524287	 3.4175303651	-3.5530429792	 0.21544
H	 1.7143147903	 0.8278800681	-2.9558756309	 0.092704
H	 0.3986633987	 3.1794580396	-1.757555892	 0.094909
