26
gdb 119907	2.73093	0.85772	0.80847	1.2132	94.12	-0.2096	0.0786	0.2883	1662.0855	0.237557	-369.597962	-369.586289	-369.585345	-369.634783	42.59	
C	-0.6056732176	-0.9427293557	 4.7066789082	-0.382625
C	-0.731933435	-1.9781364599	 3.5866309254	-0.159348
C	-1.4447145954	-1.4306813577	 2.3402188509	-0.206455
C	-1.5029356774	-2.4414494503	 1.2109688356	-0.039299
N	-2.5388423611	-3.4771641692	 1.0777990889	-0.132517
C	-3.6344637264	-3.5695888829	 2.0284453766	-0.316486
C	-2.4857999743	-2.3995443419	 0.0783227904	 0.295955
C	-3.5602481391	-1.3274842969	 0.0123233336	-0.456319
C	-2.0296234056	-2.8681769341	-1.2924904382	-0.434441
H	-0.0910688324	-1.3579376427	 5.5787978097	 0.112162
H	-0.0404560204	-0.0651848052	 4.3729096656	 0.113284
H	-1.5901842524	-0.5928785725	 5.0374818267	 0.112762
H	 0.2657696769	-2.3354957848	 3.3004121651	 0.09754
H	-1.2728172739	-2.8583916798	 3.9555727925	 0.102743
H	-2.441511422	-1.0783613669	 2.6224413173	 0.093397
H	-0.9044333482	-0.5439947967	 1.9796529421	 0.096338
H	-0.5105504052	-2.8278905484	 0.9656388872	 0.073309
H	-3.9929234761	-2.6201528586	 2.4511224885	 0.096798
H	-4.4848999801	-4.0556309718	 1.5384276513	 0.119462
H	-3.3241695453	-4.2090505419	 2.8619233437	 0.1208
H	-3.8769021295	-0.9607227482	 0.9892421992	 0.117004
H	-3.1965447567	-0.4673055648	-0.5605290887	 0.119029
H	-4.4479775175	-1.7096259026	-0.5055871875	 0.117169
H	-2.8745242449	-3.2594396946	-1.8717412363	 0.110434
H	-1.5865396261	-2.0439750759	-1.8638306952	 0.106957
H	-1.2894630744	-3.6660988762	-1.1976146325	 0.12235
