13
gdb 2978	3.70664	2.51929	1.75643	2.9294	53.65	-0.2749	0.0215	0.2964	710.2236	0.102132	-340.610842	-340.603824	-340.602879	-340.642061	24.642	
N	 0.254318689	 1.4686008601	 0.0755411035	-0.500172
C	-0.053462751	 0.0408964395	-0.0027352567	-0.153378
C	 0.4779074879	-0.6154492378	-1.2177940477	 0.273357
N	 0.8834545984	-1.0876137005	-2.1919784743	-0.332314
C	 0.451633753	-0.6249413434	 1.2687682285	 0.101853
C	 1.0494049295	-1.9621852338	 1.3111023937	-0.186858
O	 1.86278699	-0.7831000843	 1.3658595735	-0.230281
H	 1.2632467222	 1.5878110666	 0.1118393565	 0.255999
H	-0.0732850146	 1.9486302184	-0.7567901328	 0.247522
H	-1.1453785975	-0.0690216358	-0.0271078669	 0.136771
H	-0.0250986915	-0.2217144893	 2.1617481693	 0.117257
H	 0.9978461967	-2.5336205302	 2.2358772306	 0.12545
H	 1.141462248	-2.5443805195	 0.3972434928	 0.144794
