21
gdb 72358	2.3274	1.86648	1.4178	0.145	87.04	-0.2327	0.02	0.2527	1028.9317	0.184592	-349.984971	-349.977215	-349.976271	-350.016975	31.766	
C	-0.3243611161	 1.4070767405	 0.204622913	-0.459623
C	 0.0720447563	-0.0494494565	-0.0531669281	 0.342055
C	-1.2047529746	-0.9477848543	-0.1378604211	-0.310253
C	-1.2398711213	-1.68912516	 1.1746462688	-0.060635
C	-0.1148930306	-1.5410693723	 1.8695579494	-0.077448
C	 0.8819728744	-0.6590813228	 1.1526992569	-0.119604
C	 2.0246683677	-1.3930278748	 0.4832720626	-0.078264
C	 2.0767053381	-1.1614173089	-0.8267419584	-0.066782
C	 1.0062986991	-0.2031096884	-1.2881648466	-0.323667
H	 0.558472698	 2.0369963122	 0.3597785725	 0.110159
H	-0.8860745875	 1.819633488	-0.6413829977	 0.109695
H	-0.9563507359	 1.4874796104	 1.0962356125	 0.115964
H	-2.1084796353	-0.3488106027	-0.3084914059	 0.096348
H	-1.1481141158	-1.6566897466	-0.9749810029	 0.103776
H	-2.0880260505	-2.2941820239	 1.4776842063	 0.088412
H	 0.0998186878	-2.0048648835	 2.826509712	 0.086828
H	 1.2733132689	 0.1192515789	 1.8252478931	 0.069714
H	 2.710000502	-2.0268737527	 1.0362527043	 0.088227
H	 2.815906964	-1.577429677	-1.5037045924	 0.088115
H	 0.4687660063	-0.5609221408	-2.1748716292	 0.098351
H	 1.4492092052	 0.7612983053	-1.5757253189	 0.098635
