17
gdb 74715	2.29595	1.69401	1.44724	2.5959	74.49	-0.2486	-0.0021	0.2465	1007.0345	0.133863	-421.815056	-421.806574	-421.80563	-421.847966	31.701	
C	-0.1053218118	 1.4514114931	 0.0233386248	-0.514576
C	 0.0164203918	-0.0326501989	 0.0005722709	 0.308734
C	 0.0332198928	-0.9124897643	-1.0215628843	-0.200988
C	 0.0596676356	-2.2489862794	-0.3197111567	-0.099529
O	 0.9570327782	-2.0101145295	 0.8014168365	-0.297787
C	 0.0393664225	-0.9493525501	 1.2207296422	 0.186114
C	 0.2084745993	-0.4441554527	 2.6218769261	-0.518849
C	-1.0859207088	-1.9778274193	 0.7428673567	 0.395904
O	-2.1331802672	-2.3984921231	 1.0962024468	-0.304223
H	 0.7436167829	 1.9163505852	 0.5389537736	 0.137193
H	-0.1549777829	 1.8602748691	-0.989177332	 0.13428
H	-1.0094517345	 1.7673105022	 0.558784777	 0.13909
H	-0.0555375837	-0.7365787489	-2.0839155583	 0.116512
H	 0.2210224814	-3.1824010286	-0.8520630151	 0.101818
H	 1.1806964223	 0.0429584208	 2.7465601439	 0.137376
H	-0.5733065048	 0.2842489187	 2.8567319494	 0.13506
H	 0.1374734068	-1.2664381843	 3.3377638785	 0.143872
