19
gdb 35281	3.34949	0.91118	0.81025	3.4158	80.89	-0.2427	0.03	0.2727	1443.6129	0.159574	-382.038065	-382.029248	-382.028304	-382.072558	32.362	
N	-0.1353138786	-1.1403979727	 0.2145592157	-0.344653
C	-0.057193915	 0.0142928615	 0.1985274759	 0.287019
C	 0.0360235582	 1.4473367079	 0.1742791377	-0.186167
C	 0.792775998	 2.1698542756	 1.2810614616	-0.280698
C	 1.3704469656	 2.1302826876	-0.100905654	 0.006703
C	 2.6070584295	 1.318766548	-0.4167802107	-0.17909
N	 3.8003512942	 2.1410087458	-0.252539483	-0.065602
C	 4.4532954399	 2.0977106835	 1.0526394432	-0.218786
C	 5.064407137	 1.4246910648	-0.1266201602	-0.220796
H	-0.850167058	 1.9345250475	-0.2177017325	 0.135362
H	 0.3590587559	 3.0919863767	 1.6496204133	 0.131541
H	 1.2489782046	 1.5460273088	 2.0412737083	 0.13763
H	 1.2903734057	 3.0441321906	-0.6812474299	 0.113359
H	 2.6299615096	 0.4075340894	 0.2065486279	 0.100104
H	 2.5703551429	 0.9883327765	-1.4618610269	 0.118557
H	 4.8466633191	 3.0418409345	 1.4178182856	 0.119107
H	 4.0237804844	 1.4555876399	 1.820081531	 0.110623
H	 5.0389066799	 0.3361840378	-0.1442930604	 0.115594
H	 5.911527837	 1.8687712463	-0.6412131027	 0.120195
