13
gdb 50814	4.8392	0.86614	0.73465	3.6746	64.22	-0.2496	-0.1288	0.1208	1414.3475	0.087081	-489.907892	-489.898834	-489.89789	-489.943283	29.844	
N	 0.3066586409	 1.2682967798	 0.0047357586	-0.38967
C	 0.0554441046	 0.0283560713	 0.0013139625	 0.08613
N	-1.237887668	-0.4949237957	 0.0113067147	-0.327052
C	-2.4406897785	 0.1657543776	 0.0270715229	 0.331693
O	-2.641555135	 1.3589956946	 0.0356398109	-0.304596
C	-3.6172629323	-0.8289073504	 0.0328410664	 0.214853
O	-3.4500218836	-2.0229977641	 0.0247572257	-0.271547
C	-5.032398447	-0.2043971564	 0.0494627774	 0.097861
O	-6.0035387707	-0.9104598494	 0.0546972802	-0.208158
H	 1.3144903289	 1.4178500298	-0.0042529565	 0.238786
H	 0.7960303745	-0.7802052182	-0.0097030203	 0.110048
H	-1.3342556208	-1.5026311628	 0.0066323846	 0.277061
H	-5.073582903	 0.8971418241	 0.0557561031	 0.144592
