21
gdb 96367	2.3723	1.66543	1.29461	1.6717	77.69	-0.251	0.0824	0.3334	1081.0645	0.183501	-424.218765	-424.210438	-424.209494	-424.251189	33.046	
C	-0.0202747593	 1.578948675	-0.0023041637	-0.39345
C	 0.0137292168	 0.0449991238	-0.0005131602	-0.056706
C	 0.7745177475	-0.5084531569	-1.2189126384	-0.0974
O	 2.1654533392	-0.223506748	-1.1123556436	-0.238646
C	 2.6990447764	-0.7673054215	 0.0636356411	 0.009165
O	 2.0982390689	-0.2404629054	 1.2239348372	-0.288465
C	 0.711246628	-0.5035654546	 1.2377681576	 0.45453
C	 0.0841223576	-0.4757027274	 2.5899360891	-0.337544
C	 0.2748138925	-1.8021646587	 1.874316126	-0.338196
H	 0.9950700082	 1.9818427372	-0.00084401	 0.140199
H	-0.5369940885	 1.9564526016	-0.8907752363	 0.106311
H	-0.5404728663	 1.961222691	 0.8809504594	 0.113133
H	-1.0111343121	-0.3453799668	-0.0288892954	 0.069927
H	 0.6226097926	-1.5977527394	-1.2941655144	 0.089031
H	 0.4353697187	-0.0462642485	-2.150093422	 0.106967
H	 2.5865453303	-1.8675839633	 0.0549892596	 0.075759
H	 3.7544241326	-0.4904750152	 0.0986013992	 0.115697
H	 0.7398381332	-0.2625858015	 3.4263183686	 0.126137
H	-0.9200760889	-0.0756818446	 2.6820904885	 0.113506
H	-0.6001792665	-2.3103740433	 1.483004893	 0.111136
H	 1.054008679	-2.4566012137	 2.2482001646	 0.118907
