21
gdb 110494	4.83561	1.07294	1.03568	0.209	86.98	-0.2167	0.0092	0.2259	1255.0975	0.183895	-349.901289	-349.893595	-349.892651	-349.933513	31.278	
C	-0.1093948225	 1.5776635806	 0.0512584847	-0.373678
C	 0.1600852254	 0.0769104139	-0.1126326758	-0.222128
C	 0.7595921729	-0.5491060968	 1.1410058772	 0.034105
C	-0.1198483865	-0.8731947022	 2.3807545665	-0.050749
C	-0.6921034201	-2.1632303793	 1.6747748547	-0.064251
C	-0.8426155056	-3.2275812735	 2.7505661045	-0.110583
C	 0.2314705932	-3.0569516168	 3.5237741329	-0.115351
C	 0.9685785602	-1.9002887799	 2.8697812487	-0.056591
C	 0.8415168727	-2.0887969408	 1.311595362	-0.067244
H	 0.809660111	 2.1189415979	 0.3025892849	 0.112967
H	-0.511464731	 2.0141400524	-0.8683583175	 0.109838
H	-0.8312601382	 1.7652937198	 0.8534492428	 0.116112
H	-0.7690532215	-0.4312189926	-0.3937539976	 0.094717
H	 0.8545124962	-0.0770115377	-0.9494778335	 0.093388
H	 1.6947650452	-0.0337247788	 1.3987893967	 0.054641
H	-0.6819634307	-0.1814764648	 3.0155184636	 0.06341
H	-1.4487608782	-2.0786143319	 0.8962879382	 0.06222
H	-1.6499764626	-3.9414611637	 2.8357397664	 0.098809
H	 0.5391268193	-3.5927968818	 4.4107584365	 0.100223
H	 1.9045003223	-1.5296630194	 3.2904921084	 0.057845
H	 1.3971163684	-2.8068249946	 0.7003744657	 0.062301
