19
gdb 107621	2.60718	1.52713	1.14248	2.0196	70.97	-0.2542	0.0639	0.3182	1107.3412	0.158615	-460.146578	-460.137865	-460.13692	-460.179989	32.758	
C	-0.0203342889	 1.5263016972	-0.1334391138	-0.411677
C	-0.0207659732	 0.0077261583	-0.053935102	 0.087566
O	 0.7859605549	-0.5037530308	-1.120792366	-0.274448
C	 1.4320217213	-1.7026242239	-0.721713348	-0.108968
C	 1.503452228	-1.6409458785	 0.7874058837	-0.051121
O	 2.0091931721	-0.3911481329	 1.2734447905	-0.301389
C	 0.5788336663	-0.589110641	 1.2149646069	 0.356108
C	-0.1313689679	-0.5429175201	 2.540420894	-0.166607
O	-0.2207460819	 0.7789632919	 3.0491146559	-0.40979
H	 1.0003559283	 1.8984779224	-0.0122358274	 0.130475
H	-0.3970419747	 1.8525484628	-1.1063089889	 0.122141
H	-0.6487457701	 1.9455280647	 0.6558965386	 0.132403
H	-1.0524953367	-0.3754798087	-0.1442506889	 0.068788
H	 0.863660358	-2.5994248296	-1.021083241	 0.094589
H	 2.4136647957	-1.7363509608	-1.2058950702	 0.120196
H	 1.7384627947	-2.5220522716	 1.3791429801	 0.101028
H	-1.1619081924	-0.8967338992	 2.4294143312	 0.11618
H	 0.3823084637	-1.210770369	 3.2470027526	 0.098793
H	 0.6814501629	 1.1095006288	 3.1283666928	 0.295733
