18
gdb 73175	2.43366	1.47843	1.3543	5.3575	75.84	-0.2597	0.0242	0.2839	1057.7462	0.147573	-401.937001	-401.928684	-401.92774	-401.970172	31.191	
C	-0.3602796816	 1.3317498012	-0.1464395382	-0.478994
C	 0.0374956997	-0.1055762758	 0.053525225	 0.447962
O	-1.0813511649	-0.9678720324	 0.320531955	-0.311121
C	-0.4512893755	-1.5142229946	 1.5066104614	-0.085856
C	 0.8405507007	-0.72690057	 1.2408694024	-0.134868
C	 1.8014580085	-1.4188954559	 0.242296552	-0.249904
C	 1.0494863246	-0.7517638301	-0.9642661374	-0.218928
C	 0.4937742006	-1.623411535	-1.9824232553	 0.292038
N	 0.0633857337	-2.3260082261	-2.7935063737	-0.330579
H	 0.5179510544	 1.9711516625	-0.2798820504	 0.120413
H	-0.9919548231	 1.4232507623	-1.0370410168	 0.145148
H	-0.9312768873	 1.6941515917	 0.7131161403	 0.131603
H	-0.9953613064	-1.2195114912	 2.4120148902	 0.10887
H	-0.37554894	-2.6072807844	 1.4707350018	 0.112876
H	 1.2746096733	-0.1503599434	 2.0562526428	 0.085418
H	 2.8404734723	-1.094425189	 0.3152914616	 0.119631
H	 1.7739320277	-2.5101632946	 0.2540161381	 0.126061
H	 1.6654153131	 0.0118537149	-1.4481024189	 0.120229
