19
gdb 82378	2.37547	1.98403	1.33503	3.1573	74.13	-0.2448	0.0826	0.3274	1003.0854	0.160384	-423.00523	-422.997599	-422.996655	-423.037091	30.178	
C	 0.5735108068	 1.5140416908	 0.0105417479	-0.390698
C	 0.0871515845	 0.0555032037	 0.001931772	-0.055569
C	 0.5166901366	-0.6492098888	-1.2723693499	 0.045732
O	 1.9184423188	-0.8515128581	-1.4775346045	-0.249778
C	 1.0922485121	-2.0015669853	-1.2813077345	 0.04935
C	 1.2875642716	-2.7986944179	-0.0102264807	-0.283674
C	 1.0867178921	-2.0147568864	 1.2681740156	 0.049348
O	 1.9120298409	-0.8668063216	 1.4798616384	-0.249778
C	 0.5111794301	-0.662363944	 1.2707300569	 0.045734
H	 1.6659245826	 1.5384201716	 0.0130497099	 0.152028
H	 0.2165182992	 2.0519780764	-0.8733415849	 0.112361
H	 0.212642985	 2.0428081757	 0.8983741313	 0.112362
H	-1.013295188	 0.0531422604	-0.0004646567	 0.078972
H	-0.0105208003	-0.3094248817	-2.1665627059	 0.086299
H	 0.9651182166	-2.6077380047	-2.1800870003	 0.087936
H	 0.5734513558	-3.6329789475	-0.0160932507	 0.108616
H	 2.2888481618	-3.2483862263	-0.0103811059	 0.126524
H	 0.955711622	-2.6301854544	 2.1600779924	 0.087937
H	-0.0199123686	-0.3318328821	 2.1660950995	 0.086298
