20
gdb 116521	2.19268	1.18433	0.82199	2.9932	87.95	-0.2291	-0.037	0.192	1457.582	0.168771	-399.341424	-399.330451	-399.329507	-399.37841	37.424	
C	 0.0021119063	 1.5945012838	-0.0003761256	-0.359355
C	 0.080761492	 0.0652997756	 0.009209954	-0.154593
N	 0.7813087117	-0.4098926595	-1.1682638734	-0.316973
C	 1.7921901068	-1.1862980031	-1.0865864184	 0.330901
C	 2.3603276694	-1.6095832187	 0.1915894158	 0.234103
N	 2.7676531029	-1.9002846892	 1.2345027891	-0.354491
N	 2.396635463	-1.7239671513	-2.2002019307	-0.112644
C	 1.8772032413	-1.3253655052	-3.4969705677	-0.326857
C	 3.7640778863	-2.2132610068	-2.1746262437	-0.353163
H	 1.0015066059	 2.0348258043	 0.0703790134	 0.118219
H	-0.4599796861	 1.9499061438	-0.9256433671	 0.124505
H	-0.5909426747	 1.9517967142	 0.8470995645	 0.113416
H	 0.5324694256	-0.2797290702	 0.9508343466	 0.113595
H	-0.9385966227	-0.3427925771	-0.0228164642	 0.110155
H	 2.2336843395	-0.329298155	-3.7966936569	 0.125636
H	 2.2017665964	-2.055155239	-4.2434168586	 0.122005
H	 0.7885244399	-1.2915784215	-3.457926858	 0.158
H	 4.0262389666	-2.5623786654	-1.1752119263	 0.166866
H	 3.8623225669	-3.0541997126	-2.8682276485	 0.134509
H	 4.4862391732	-1.4380033971	-2.4713300544	 0.126164
