14
gdb 128996	4.05208	1.70104	1.19809	1.5641	76.63	-0.2405	-0.046	0.1945	942.6627	0.106665	-395.80321	-395.797342	-395.796398	-395.833288	23.804	
N	 0.013973143	 1.3070845409	 0.0094015717	-0.316183
N	 1.2539877805	 1.8552990656	 0.0002779877	-0.18792
C	 2.1040872543	 0.8453496296	-0.0135925505	-0.136195
C	 1.422439296	-0.40625879	-0.0138266824	 0.206852
C	 0.0487505479	-0.0535724042	 0.0015652233	 0.431487
N	-0.9969801303	-0.8814676653	 0.0072402656	-0.359741
C	-0.66216011	-2.1685462665	-0.0031295451	-0.025588
C	 0.6613909854	-2.6555251606	-0.0187704654	-0.114965
C	 1.7273506514	-1.7718791805	-0.0243367381	-0.225209
H	-0.7972035141	 1.9018720434	 0.0206340851	 0.27819
H	 3.1666479792	 1.0395345826	-0.0229203464	 0.121808
H	-1.4892943993	-2.8743103018	 0.0010779814	 0.111549
H	 0.8277278307	-3.7263970606	-0.0262989023	 0.10295
H	 2.7530457753	-2.1257704926	-0.0363269847	 0.112966
