23
gdb 96093	2.48692	1.45707	1.06631	1.15	86.04	-0.2373	0.0859	0.3232	1235.7011	0.206638	-388.301451	-388.292745	-388.291801	-388.334262	35.114	
C	 0.0077531693	 1.4868441983	 0.1287198817	-0.403444
C	 0.0340353962	-0.0293644753	 0.0099542585	 0.141036
C	 0.665639037	-0.525975177	-1.2962434154	-0.189695
C	 0.7756586884	-2.0569735029	-1.3013969427	-0.21943
C	 1.4857711461	-2.5376300446	-0.0264409061	-0.25764
C	 0.8291922421	-1.9208671602	 1.1915896024	 0.462244
C	-0.3142446103	-2.6228176626	 1.8906366848	-0.322593
C	 1.0395027027	-2.4711611921	 2.5633014601	-0.335018
O	 0.7685231686	-0.5184717636	 1.1362490163	-0.307012
H	 1.0243162819	 1.8905569202	 0.0876407524	 0.121629
H	-0.5741532818	 1.9264951165	-0.6870181406	 0.111221
H	-0.4408401377	 1.7885421208	 1.07916768	 0.119697
H	-0.9972277774	-0.4190156436	 0.0691480117	 0.061059
H	 0.0711501166	-0.1752842224	-2.1478040507	 0.090497
H	 1.6645706137	-0.0798639478	-1.3906385229	 0.09678
H	-0.2309966318	-2.4937086445	-1.3411840742	 0.096676
H	 1.3073890349	-2.4037889962	-2.1938217062	 0.091772
H	 1.4678435904	-3.6301127105	 0.0459900775	 0.090881
H	 2.5395219292	-2.2298176078	-0.0524799992	 0.099614
H	-1.1211260001	-2.0022889543	 2.2635873061	 0.114695
H	-0.6152048027	-3.6074060928	 1.5481850331	 0.107306
H	 1.6651734741	-3.3502154523	 2.6757707275	 0.108628
H	 1.1152206105	-1.7488464752	 3.3679001759	 0.121098
