16
gdb 29536	3.15585	1.51137	1.03523	1.4882	71.73	-0.1894	0.0436	0.233	1086.5973	0.12601	-437.898462	-437.890446	-437.889502	-437.931325	29.456	
O	 0.1040205048	 1.38036228	-0.105497272	-0.445696
C	 0.0636890715	 0.0168096917	-0.0158030923	 0.154015
C	 0.0516239657	-0.8219205153	-1.111923775	-0.162672
N	 0.0087847575	-2.1320440436	-0.6471252052	-0.384791
C	-0.0053010164	-2.1047925344	 0.7105721425	 0.271297
C	 0.0272938891	-0.807835537	 1.141915707	 0.106677
C	 0.0109927855	-0.8043829088	 2.6380606449	-0.192954
O	-0.033595565	-2.2003033711	 2.9983489772	-0.279009
C	-0.0453585548	-3.0618655583	 1.8533326309	-0.16885
H	 0.1035195108	 1.7459046945	 0.7828854344	 0.297526
H	 0.06975532	-0.5930221474	-2.1638316171	 0.122378
H	-0.0081640665	-2.9464595749	-1.2340049426	 0.262418
H	 0.9063231439	-0.3537499807	 3.0931233294	 0.103397
H	-0.8663645951	-0.3022358355	 3.0737700051	 0.10339
H	-0.9513250952	-3.687861496	 1.8766029942	 0.106448
H	 0.8227331043	-3.7384618433	 1.8963252388	 0.106427
