21
gdb 41427	3.5514	1.7983	1.43587	0.1057	85.32	-0.2722	0.1014	0.3735	967.1226	0.187142	-349.937752	-349.931371	-349.930426	-349.968029	28.034	
C	-0.0415278383	 1.5614051381	-0.0363101221	-0.232922
C	 1.4920531681	 1.8751517115	-0.0209892093	-0.342631
C	 2.0265621377	 0.4537740687	 0.0424976151	 0.406247
C	 3.4423596221	-0.0970738371	 0.088603307	-0.342631
C	 3.1104723751	-1.626020797	 0.140730209	-0.232922
C	 1.5716916454	-1.5833224207	 0.1117918433	-0.033763
C	 1.1128104263	-0.396805854	 0.9968689479	-0.080357
C	-0.0168587608	 0.0230816761	 0.0225514044	-0.033763
C	 1.1460960822	-0.4679571596	-0.8764325839	-0.080358
H	-0.5647509315	 1.9988940008	 0.8204388822	 0.094601
H	-0.5334610651	 1.9319784689	-0.9417675918	 0.094601
H	 1.8204365341	 2.4097082331	-0.9187055851	 0.094659
H	 1.7891205831	 2.4767040953	 0.8446699563	 0.094659
H	 4.0300783233	 0.1753364483	-0.7944920021	 0.094659
H	 3.9986378272	 0.2422554426	 0.9688841546	 0.09466
H	 3.5243645178	-2.1714436872	-0.7138967967	 0.094602
H	 3.493128589	-2.1046029545	 1.0483131259	 0.094601
H	 1.0320371921	-2.5322455462	 0.1382438144	 0.053372
H	 1.1076369731	-0.3412187647	 2.0894536074	 0.054658
H	-0.9725762147	-0.5051003984	 0.0256314433	 0.053372
H	 1.179756354	-0.495406174	-1.9695801098	 0.054657
