19
gdb 24683	3.5406	1.49649	1.08126	0.5263	89.31	-0.2278	0.0031	0.2309	1117.292	0.163918	-348.848025	-348.841156	-348.840212	-348.879112	28.297	
C	 0.1349536709	 1.4181799495	-0.393942696	-0.207464
C	 1.4032925603	 1.9879436631	 0.2889503752	-0.327446
C	 2.1373119337	 0.7434163409	 0.739248639	 0.29275
C	 3.4625061521	 0.6009043652	 1.1338376641	-0.25301
C	 3.9242260309	-0.6556350555	 1.5282068575	-0.105096
C	 3.0652067121	-1.7542105904	 1.5305077645	-0.105096
C	 1.7336098412	-1.6101324273	 1.1384683186	-0.25301
C	 1.2749488779	-0.3594357281	 0.7415581263	 0.29275
C	-0.1107649518	 0.0516573114	 0.2930039371	-0.327446
H	-0.7243253654	 2.0902236563	-0.3273102905	 0.096094
H	 0.3413442689	 1.2545688203	-1.4571513701	 0.106574
H	 1.9956488942	 2.6231788869	-0.3771253668	 0.105611
H	 1.1356551044	 2.6069995959	 1.1568020034	 0.109684
H	 4.1356846481	 1.4531785617	 1.1298023133	 0.088672
H	 4.9592878555	-0.7796743281	 1.8298652372	 0.091234
H	 3.4357898001	-2.7280328495	 1.8339460687	 0.091234
H	 1.068806827	-2.4689651662	 1.1380165607	 0.088672
H	-0.774327267	 0.1643770457	 1.1619146155	 0.109684
H	-0.5857665432	-0.6781239921	-0.3702151079	 0.105611
