18
gdb 23341	3.80274	0.9342	0.85707	1.755	77.46	-0.2455	0.0099	0.2554	1398.0235	0.145634	-438.956788	-438.94801	-438.947066	-438.990495	32.777	
C	 0.0744238874	 1.5276501162	 0.1024357804	-0.38043
C	-0.1422181413	 0.0240573977	-0.1027194836	-0.223107
C	 0.6229520102	-0.5164748063	-1.3012557325	 0.02637
C	 2.1526610313	-0.8165389364	-1.1452279677	-0.060198
O	 1.7989933706	-1.9833393344	-0.2822859855	-0.311772
C	 0.8374154756	-2.0601885501	-1.4238243642	-0.068631
C	 2.022304167	-1.7750355918	-2.3208664013	 0.53556
N	 2.5400641021	-2.2237445115	-3.3746008813	-0.31907
O	 3.7355066138	-1.5406921441	-3.6903960514	-0.397573
H	 1.1281397927	 1.7551801933	 0.2957107715	 0.119065
H	-0.232229618	 2.1008548262	-0.7795282786	 0.116149
H	-0.5050259578	 1.893761358	 0.9550888553	 0.118675
H	 0.1608804067	-0.5302221549	 0.7894795754	 0.122999
H	-1.2106892885	-0.1742846156	-0.255836897	 0.099772
H	 0.3483307299	-0.0161254479	-2.2367725212	 0.088128
H	 2.9763659782	-0.1800647312	-0.8320189745	 0.115266
H	 0.1178492016	-2.876229874	-1.432636177	 0.109984
H	 4.0171805785	-1.9957314933	-4.4913323466	 0.308812
