20
gdb 57868	2.13624	1.3275	0.94851	1.9789	78.49	-0.2431	-0.038	0.2051	1309.8946	0.16786	-440.324438	-440.313541	-440.312597	-440.361018	37.255	
C	 0.2513900602	 1.3585170278	 1.2520423601	-0.400611
C	-0.1646777428	 0.5022429194	 0.0492115286	-0.197191
C	 0.7302439406	-0.7248977875	-0.0529528859	 0.169133
O	 1.2314743535	-1.1318516921	-1.0706900539	-0.251044
C	-1.6261357628	 0.0191872142	 0.2273358704	 0.394671
O	-2.1261978689	-0.0033972376	 1.3400824729	-0.377461
N	-2.2960193832	-0.3881287289	-0.8938096709	-0.085282
C	-3.6972878012	-0.7634313957	-0.7680085113	-0.345891
C	-1.7792870046	-0.3507768786	-2.2543760999	-0.3591
H	 1.2919151665	 1.6814735945	 1.151106	 0.116025
H	-0.3825673979	 2.2449319356	 1.3257344782	 0.133966
H	 0.1365467862	 0.79659977	 2.1807638343	 0.147719
H	-0.0563540396	 1.0650284363	-0.8802776122	 0.107608
H	 0.8924930141	-1.2454442095	 0.9170743792	 0.099329
H	-4.3351801274	-0.0705289336	-1.3317437022	 0.122826
H	-3.8568143674	-1.7735705666	-1.1627807378	 0.125859
H	-3.9711560487	-0.7338593319	 0.2846280822	 0.170804
H	-0.6927705663	-0.3993305091	-2.2777184678	 0.173782
H	-2.1556937457	-1.2245702372	-2.7965557881	 0.132615
H	-2.1181624547	 0.5465620205	-2.7913968359	 0.122241
