19
gdb 97007	3.44476	1.24168	1.1117	3.1032	78.08	-0.2362	0.0249	0.2611	1173.6979	0.161468	-419.204311	-419.196143	-419.195199	-419.237535	30.597	
C	 0.0480124926	 1.4198179985	 0.2737976348	-0.340231
N	-0.0330323451	-0.0295091721	 0.3882625704	-0.331472
C	-1.0554181759	-0.6199055674	-0.017629472	 0.479051
O	-2.223059467	-0.1194676487	-0.586702534	-0.288768
C	-2.8106426808	-1.4564389577	-0.6848808142	 0.11133
C	-2.8558121325	-1.9878260053	-2.110263561	-0.233912
C	-1.3940289639	-2.4380444057	-2.3693637409	-0.186138
N	-0.8609091487	-2.8975820755	-1.0741773672	-0.275163
C	-1.5123217493	-2.0747777777	-0.0672623657	-0.179638
H	 0.913326811	 1.6805650192	-0.3457541749	 0.127869
H	-0.8458429907	 1.8884685675	-0.1542914134	 0.124514
H	 0.2283796381	 1.8460382511	 1.2667724849	 0.126566
H	-3.7500504286	-1.4994622012	-0.1320396465	 0.087655
H	-3.5344925257	-2.8484731882	-2.1457809924	 0.101211
H	-3.2164026582	-1.2397531641	-2.8208521014	 0.118386
H	-1.3067783726	-3.2248487844	-3.1213538288	 0.107295
H	-0.7966291521	-1.58602201	-2.7122862455	 0.128545
H	-1.1144471426	-3.8682295042	-0.9216943391	 0.222447
H	-1.5625266378	-2.5720884541	 0.901230987	 0.100452
