17
gdb 67410	2.73493	1.53305	1.26817	1.7165	80.3	-0.2249	0.0343	0.2592	1045.0165	0.134423	-384.595558	-384.587527	-384.586583	-384.627835	31.341	
C	-0.1852002811	 1.5254138265	-0.0529798093	-0.528368
C	-0.0233866858	 0.0444964795	 0.0114369039	 0.229382
C	 0.0755978748	-1.0568483019	-0.9781955192	 0.002041
O	 1.2284788595	-1.6668087878	-0.4213341513	-0.293627
C	 0.9033716816	-0.958773072	 0.8108366561	 0.000777
C	-0.3536521505	-1.6927925708	 1.3313789491	-0.298181
C	-1.0576340969	-1.1049858457	 0.1026948222	 0.146049
C	-2.4361899917	-1.071277653	-0.2228117455	 0.124674
C	-3.6067682013	-1.0309701001	-0.5056774768	-0.397859
H	 0.7344338238	 2.0138724902	-0.3931855884	 0.131675
H	-0.9869840577	 1.7859525125	-0.7513696499	 0.139598
H	-0.450281631	 1.9429340001	 0.9246330801	 0.128573
H	-0.1135478947	-1.1223675448	-2.0416435372	 0.119334
H	 1.7696244108	-0.7363659757	 1.429701764	 0.093928
H	-0.2780036084	-2.7799746235	 1.4251508527	 0.109572
H	-0.7370256237	-1.2484749533	 2.2529907839	 0.112404
H	-4.6388699178	-1.0038067901	-0.7526094744	 0.18003
