14
gdb 6242	4.62156	1.15734	1.00824	3.2792	66.64	-0.2518	-0.0718	0.18	1127.271	0.102714	-382.536842	-382.527932	-382.526987	-382.572086	30.259	
C	 0.6528970803	 0.8542772256	 0.3381583091	-0.485472
C	-0.5780637147	 0.0765395288	-0.0647807094	 0.386702
O	-1.6294315599	 0.1529236914	 0.5234615822	-0.286367
C	-0.4596579994	-0.8344489842	-1.2951454473	-0.401587
C	 0.4386845496	-2.0539578298	-1.0940536723	 0.230051
O	 1.3278391991	-2.1133346619	-0.2729966563	-0.281411
C	 0.1576517456	-3.1599650337	-1.9900210723	 0.258532
C	-0.0877861369	-4.0660476463	-2.7435234845	-0.391727
H	 0.9966761129	 1.4790794057	-0.4946211982	 0.132436
H	 0.4300288029	 1.4800068269	 1.2029091979	 0.140315
H	 1.4590181062	 0.1507519398	 0.5675710807	 0.175802
H	-1.4606918898	-1.1608700754	-1.5864859934	 0.149722
H	-0.0353302103	-0.2728103925	-2.1395697008	 0.150974
H	-0.2925763357	-4.8766625742	-3.4005580456	 0.222031
