17
gdb 45540	4.21837	1.24278	1.00516	3.9677	76.2	-0.2409	-0.0455	0.1954	1142.6934	0.137845	-421.863562	-421.856325	-421.855381	-421.895566	27.92	
O	 0.023246054	 0.0075017481	-0.2408450564	-0.325216
C	 0.005916323	 1.2042219766	-0.0897446361	 0.387823
C	-1.2613744496	 2.070624108	 0.1281897371	-0.37582
C	-0.7590379799	 3.4921333702	-0.0960116667	 0.057865
O	-1.0946301544	 4.4611057122	 0.889210765	-0.26547
C	-0.0728766457	 5.460279484	 0.8202459002	-0.072308
C	 1.254469622	 4.7395958266	 0.4114786391	-0.377272
C	 0.7419728258	 3.3859550484	 0.0335449485	 0.366272
C	 1.1762154972	 2.1233501697	-0.0054724655	-0.359525
H	-2.0821895084	 1.7521050024	-0.5160812406	 0.125653
H	-1.5758574614	 1.9563787106	 1.171238139	 0.147207
H	-1.042098633	 3.8617117163	-1.0975958402	 0.083389
H	-0.3375141068	 6.2223231428	 0.0730297609	 0.101616
H	-0.0148840017	 5.9424124211	 1.7983526731	 0.120868
H	 1.7484276904	 5.2508792906	-0.4216360401	 0.132216
H	 1.973802981	 4.6843089437	 1.2326761909	 0.136512
H	 2.1917672375	 1.7592968386	 0.0855528019	 0.11619
