20
gdb 69665	3.54429	1.3876	1.16955	1.6165	86.55	-0.2185	0.0163	0.2347	1120.8262	0.172302	-365.957168	-365.949421	-365.948476	-365.988966	31.373	
C	 0.1510000654	 1.5966325555	 0.343388808	-0.506337
C	 0.1146330056	 0.1359724703	 0.0160755484	 0.304592
N	-0.9346331575	-0.7577376555	 0.5431472864	-0.3597
C	 0.5171463701	-1.0720339469	 0.8220473552	-0.261945
C	 0.9307265302	-1.7790588543	-0.4383231797	 0.353671
C	 0.9371027715	-2.8909714112	-1.1628349544	-0.226614
C	 0.6983680703	-2.5095536878	-2.6273531219	-0.236953
C	 0.0485354855	-1.0837985502	-2.5335354098	-0.260151
C	 0.71067033	-0.5318037429	-1.2638801319	-0.065773
H	 1.1229857245	 2.0325067408	 0.0890563293	 0.124758
H	-0.6167304962	 2.144811986	-0.2157678743	 0.129389
H	-0.0266433571	 1.7692280395	 1.4109702676	 0.115491
H	-1.2951222723	-0.312945895	 1.3902246648	 0.221069
H	 0.8665513092	-1.1563926042	 1.8434987354	 0.095883
H	 1.0092308126	-3.9166009195	-0.8209607912	 0.092866
H	 1.6332088686	-2.4824680753	-3.2067210606	 0.100307
H	 0.0442251641	-3.229202288	-3.1317313268	 0.102881
H	 0.206474228	-0.4845060174	-3.4349168726	 0.085478
H	-1.0279682518	-1.1945054807	-2.3695278196	 0.117652
H	 1.6654036994	-0.030377533	-1.4802217423	 0.073437
