21
gdb 39265	2.36233	2.14808	1.51624	1.3746	80.9	-0.2347	0.0833	0.3181	959.0334	0.186692	-387.078605	-387.071732	-387.070788	-387.109316	29.776	
C	-0.0189685131	 1.4702948768	-0.0066560518	-0.42689
C	 1.3367536268	 0.7865682522	-0.0306732123	-0.043923
C	 2.1949086171	 0.4140539064	-1.2162684865	-0.104942
O	 2.3128649762	-1.0185262802	-1.2883253652	-0.290173
C	 1.0968502636	-1.7526283955	-1.0519001409	 0.142256
C	 0.929661985	-2.1699047797	 0.4482369488	-0.212157
C	 0.0122352314	-1.0736569598	 1.0995763939	-0.301305
C	 0.0510568089	-0.0220478378	 0.0062471216	 0.36545
C	-0.1154625832	-0.8424057475	-1.2691957896	-0.295067
H	-0.2647226171	 2.0073850988	 0.9038857086	 0.115477
H	-0.3980238518	 1.9420470092	-0.9088810116	 0.112029
H	 1.8728661012	 0.8236497789	 0.9139993635	 0.087857
H	 1.7917240613	 0.8192323461	-2.1551791554	 0.090349
H	 3.2210317535	 0.779053018	-1.121536407	 0.105206
H	 1.1487817944	-2.6222379557	-1.7124166359	 0.069547
H	 0.4817939418	-3.1656564194	 0.5217177779	 0.09421
H	 1.9139415294	-2.2133924609	 0.9199067206	 0.108945
H	-0.9999888663	-1.4590059578	 1.2714745991	 0.091509
H	 0.3973322524	-0.7134196843	 2.0567877694	 0.096203
H	-0.0809907684	-0.2758152582	-2.2010254605	 0.101602
H	-1.049675613	-1.4146390396	-1.2549438368	 0.093817
