17
gdb 3181	4.38356	2.28615	1.86772	1.7351	63.77	-0.2621	0.0967	0.3588	746.8521	0.147637	-309.686114	-309.678907	-309.677963	-309.717067	27.091	
C	 0.1450708617	 1.6188597907	 0.3601773662	-0.465213
C	-0.0281350293	 0.1501816614	 0.0242279505	 0.33553
C	 0.8943798169	-0.4899683753	-0.9807978695	-0.305831
C	 1.0250059896	-0.8306241016	 0.48543767	-0.298465
C	-1.4577427256	-0.3088720824	 0.0659061464	 0.018714
C	-2.3003767687	-0.4011351017	-1.1345872374	-0.179066
O	-1.7654114469	-1.5755874824	-0.5142758307	-0.238129
H	 1.2025811986	 1.8990458784	 0.3523317086	 0.117717
H	-0.3765740657	 2.2580507125	-0.3616451134	 0.117315
H	-0.2513620734	 1.8492919941	 1.3563969735	 0.116743
H	 0.4799850855	-1.255837119	-1.6262018284	 0.127551
H	 1.6560052967	 0.1335163378	-1.4366253471	 0.105204
H	 1.8760485256	-0.4425028411	 1.0352407856	 0.107267
H	 0.6961789355	-1.8165704644	 0.7949130276	 0.123887
H	-1.9633869181	-0.1292088509	 1.0180794063	 0.087618
H	-3.3802352638	-0.2853817942	-1.0557343098	 0.114601
H	-1.8708301986	-0.1547270719	-2.1041846184	 0.114558
