11
gdb 131017	5.06128	1.16386	0.97142	4.9059	63.55	-0.2698	-0.1107	0.1591	1085.3608	0.065116	-484.852568	-484.845504	-484.84456	-484.884765	24.907	
O	-0.0727184905	-0.0330333823	-0.1642051768	-0.228144
C	-0.0369494869	 1.1564003021	-0.1176455415	 0.20069
N	 1.1529953097	 1.9200822353	-0.0011986974	-0.100793
C	 1.1412596205	 3.2847047782	 0.1184531202	 0.137031
N	 2.2058563329	 3.9983244061	 0.1376232627	-0.294068
C	 3.3972414522	 3.2981878989	-0.0678050699	 0.432782
O	 4.4068793958	 3.7813100247	-0.4896611527	-0.276544
N	 3.3998347815	 1.8779857583	 0.2877779742	-0.154059
N	 2.3496037169	 1.2165073109	 0.2556364021	-0.005176
H	-0.916998068	 1.8228617569	-0.1748278347	 0.12378
H	 0.1583479759	 3.7446839209	 0.2318166339	 0.164501
