16
gdb 8850	3.57792	1.22742	1.11729	2.663	62.82	-0.2556	-0.0357	0.2199	1117.9027	0.127361	-420.919612	-420.910237	-420.909293	-420.955234	30.904	
C	 0.2860385155	 1.4512673712	 0.1385927028	-0.24314
O	 0.4693613162	 0.0274465671	 0.0957074497	-0.228826
C	 0.2834409239	-0.5400960613	-1.1078097834	 0.430901
O	-0.0130898494	 0.0688184187	-2.106867957	-0.368121
C	 0.5068781064	-2.0405689144	-1.0620704713	-0.177927
C	-0.7851615556	-2.7736324783	-1.4912345237	-0.405463
C	 1.6124460299	-2.409944407	-2.0494362867	 0.162579
O	 2.4875935695	-3.1970556502	-1.8082831901	-0.244439
H	 0.9971137753	 1.9488243531	-0.5251711606	 0.145608
H	-0.7282375869	 1.7169750545	-0.1686986108	 0.144403
H	 0.4618121522	 1.7398778853	 1.1744701115	 0.139015
H	 0.8171620924	-2.3531626925	-0.0640967131	 0.117197
H	-0.6184517141	-3.8536851776	-1.5015439882	 0.138608
H	-1.5974556534	-2.5548756034	-0.7927949408	 0.135856
H	-1.0940703023	-2.4497270921	-2.4884322883	 0.148402
H	 1.5207152504	-1.9088086829	-3.0369298901	 0.105348
