18
gdb 98331	4.34522	0.81204	0.70401	4.1262	74.7	-0.2529	0.0132	0.2661	1556.6269	0.147624	-435.313205	-435.303062	-435.302118	-435.349245	35.2	
C	-0.2229227186	 1.554417988	-0.7809256665	-0.335484
N	-0.1547689827	 0.1112220842	-0.881049086	-0.311577
C	 0.8521385867	-0.6147912801	-0.3451579246	 0.421208
O	 1.8125627728	-0.1493023474	 0.2479053683	-0.392072
C	 0.6802701148	-2.1412793689	-0.5088616779	-0.099927
N	-0.2049203419	-2.4728385414	-1.6224931421	-0.529144
C	 2.0864944672	-2.7917403208	-0.5456235208	-0.343655
C	 1.9951723055	-4.2473713424	-0.554741559	 0.250836
N	 1.8736875099	-5.3968944506	-0.5737393372	-0.311036
H	 0.6699284097	 1.8916508699	-0.252716045	 0.169544
H	-0.2504699127	 2.0194893085	-1.7723921588	 0.128082
H	-1.1101029769	 1.8727914158	-0.2223719579	 0.130297
H	-0.8795228187	-0.4160194529	-1.3470880595	 0.26144
H	 0.1810369214	-2.4837488612	 0.4062061003	 0.136121
H	 0.277182187	-2.3553368404	-2.5100019377	 0.23807
H	-0.4891020173	-3.4461654225	-1.5705890531	 0.256567
H	 2.6283606152	-2.4602298238	-1.4392023762	 0.148924
H	 2.6629389386	-2.445934024	 0.3160438238	 0.181804
