20
gdb 87463	2.78625	1.41907	1.29442	1.6014	80.11	-0.2248	0.082	0.3068	1095.3627	0.170351	-403.061819	-403.053377	-403.052433	-403.094358	33.387	
C	-0.2053706371	 1.3883672188	-0.0397749407	-0.318319
N	-0.002082133	-0.0510719022	 0.0778998968	-0.187343
C	 1.3800664265	-0.533881971	-0.1776865915	-0.374247
C	 0.7930255637	-0.5376893363	 1.1710488239	 0.400258
C	 1.1913120118	 0.050769545	 2.5383901283	-0.160754
C	-0.1728437414	-0.4837426663	 3.0766644823	-0.292479
C	 0.419579148	-1.6344669159	 2.1862544949	 0.328111
O	-0.0938448281	-2.8860489489	 1.9315227815	-0.471611
C	 1.7882621482	-1.3601266007	 2.8566498998	-0.255865
H	 0.6513381007	 1.9835163463	 0.3161004123	 0.100734
H	-0.3876265064	 1.6434725566	-1.0885194421	 0.122912
H	-1.0878668335	 1.6812479067	 0.5381443859	 0.122496
H	 1.4575568897	-1.4454273362	-0.7651646449	 0.117366
H	 2.1350851296	 0.2188088817	-0.4029103712	 0.107796
H	 1.6484866687	 1.0128389234	 2.7526262747	 0.085713
H	-0.2199338357	-0.684395605	 4.1500077025	 0.093359
H	-1.0766292437	 0.0092466155	 2.711178233	 0.096692
H	-0.8394343224	-2.7775277742	 1.3291324025	 0.291044
H	 2.6782122762	-1.6572101395	 2.297433053	 0.097883
H	 1.8627316683	-1.6130330577	 3.9167905091	 0.096255
