17
gdb 22665	4.11984	0.89396	0.76497	1.6629	79.41	-0.1883	-0.0189	0.1694	1436.5088	0.136256	-455.108886	-455.100039	-455.099095	-455.142724	32.725	
O	 0.7388208782	 0.0208309807	-0.6672360728	-0.414284
C	-0.100042133	 0.3091227642	 0.4502382254	-0.172635
C	-1.4967862673	-0.1871896016	 0.2323686735	 0.341506
C	-2.6731529013	 0.4647681411	 0.4002672898	-0.354672
C	-3.7408878663	-0.4433168536	 0.0255047624	 0.399576
C	-3.0772433266	-1.7066561428	-0.5134982835	-0.24734
N	-1.6614651157	-1.5019200067	-0.1739964065	-0.347626
N	-5.0162797644	-0.3429047877	 0.0883063899	-0.265053
O	-5.3887942539	 0.9117695239	 0.622510769	-0.402471
H	 0.4321077154	 0.5591581356	-1.4050621744	 0.28971
H	 0.3552980664	-0.2186452222	 1.2956461444	 0.134865
H	-0.115875039	 1.3798016983	 0.688839028	 0.112496
H	-2.8107126147	 1.4566665723	 0.7973024905	 0.115648
H	-3.4745928172	-2.6147168564	-0.0514334633	 0.136556
H	-3.2177224608	-1.790874851	-1.5992772931	 0.12575
H	-0.9574129471	-1.8604356024	-0.8030999295	 0.246599
H	-6.3489764227	 0.8481187783	 0.6249208604	 0.301376
