19
gdb 94023	4.5413	0.99705	0.86791	0.8924	84.47	-0.2475	0.0105	0.2581	1349.17	0.158678	-385.864319	-385.855582	-385.854637	-385.897628	33.576	
C	 0.0867289693	 1.5591086898	-0.0774740306	-0.396733
C	 0.0110236195	 0.0366752177	 0.0106740316	 0.094651
O	 0.6123659128	-0.4749292307	-1.1728766713	-0.261021
C	 0.8652553527	-1.8615709609	-1.1204334195	-0.092334
C	 1.9497126869	-2.1747124092	-0.0643548316	-0.218947
C	 1.5722251184	-1.4784725641	 1.231239114	-0.073227
C	 0.6743330598	-0.4984339617	 1.2544251396	-0.080239
C	 2.1088894066	-3.6149499966	 0.1123466919	 0.312985
C	 2.2184271525	-4.8044337746	 0.2474458627	-0.467208
H	 1.1296838241	 1.8878734873	-0.0705556162	 0.127063
H	-0.381571494	 1.90226132	-1.0037046544	 0.126716
H	-0.4326314406	 2.0190978613	 0.768388538	 0.114546
H	-1.0549674955	-0.2604457765	 0.0274115716	 0.077847
H	-0.0476675945	-2.4250590364	-0.8739889777	 0.10203
H	 1.1966819148	-2.160978466	-2.1175662662	 0.116532
H	 2.9033623293	-1.7635870175	-0.4274799707	 0.120726
H	 2.0487470387	-1.8298849667	 2.1409633935	 0.104016
H	 0.3848974292	-0.0331934723	 2.1933501979	 0.096067
H	 2.32507498	-5.8540243028	 0.3677280274	 0.196528
