21
gdb 63975	3.15442	1.2716	1.12784	1.5988	85.45	-0.2265	0.0156	0.242	1189.584	0.182451	-387.077029	-387.068402	-387.067457	-387.109772	34.312	
C	-0.0266861927	 1.5236748922	 0.1600630939	-0.451052
C	-0.0200979648	 0.0106553747	 0.0123044493	 0.278685
O	-1.3278699991	-0.4883146624	-0.2553952288	-0.477848
C	 1.0555969228	-0.6573565707	-0.9419033421	-0.30298
C	 1.2631830206	-1.7874927181	 0.1292247928	-0.037344
C	 2.5964525636	-2.1501133737	 0.8152414241	-0.243412
C	 2.3289063463	-1.835676636	 2.3255258555	-0.236411
C	 1.2384323097	-0.7670055575	 2.2728905056	-0.256081
C	 0.6213755718	-0.8336052762	 1.0989167543	 0.340908
H	 0.967482658	 1.9013636873	 0.4137114128	 0.118693
H	-0.3407731031	 2.0009135773	-0.7769414183	 0.104385
H	-0.7284013912	 1.8244086102	 0.9439752356	 0.127804
H	-1.6223852586	-0.0917499725	-1.0830600353	 0.275309
H	 0.678038067	-0.9591107873	-1.9233867454	 0.089979
H	 1.9437392572	-0.0303523604	-1.0604810791	 0.098396
H	 0.6514945061	-2.662838701	-0.1119407621	 0.082605
H	 2.9138501681	-3.1834304895	 0.648512587	 0.093278
H	 3.3981803476	-1.4978404227	 0.4496909892	 0.097563
H	 1.9989036142	-2.7311014671	 2.8710919907	 0.106458
H	 3.228430693	-1.4786413178	 2.839055764	 0.099619
H	 1.0820169836	-0.0396516988	 3.0613153261	 0.091446
