18
gdb 26295	3.35027	1.05956	0.97636	4.6207	74.84	-0.211	0.0291	0.2401	1285.5462	0.147307	-439.154191	-439.14521	-439.144266	-439.188158	33.083	
C	-0.0212070982	 1.5535836053	-0.0473408919	-0.386627
C	-0.022523384	 0.0125159275	-0.0336438168	-0.092336
C	-1.4600595491	-0.5430426809	-0.0399842782	-0.386595
C	 0.7752802801	-0.5389935883	-1.1658454266	 0.392407
C	 1.8768211471	-1.2987208287	-1.2382784639	-0.235126
N	 2.1472205417	-1.489093828	-2.5963715993	-0.362296
C	 1.207462354	-0.841279458	-3.3630147321	 0.474424
O	 1.0961674134	-0.7680706499	-4.5561341005	-0.401791
O	 0.3480741767	-0.2474255147	-2.4533662973	-0.25418
H	 0.9971957979	 1.9482433447	 0.0124439986	 0.117889
H	-0.4768954009	 1.9309244574	-0.9674099975	 0.138366
H	-0.5920273995	 1.9432221997	 0.8010244629	 0.114106
H	 0.4776621037	-0.3274921025	 0.8819567771	 0.087238
H	-1.9789322623	-0.258366143	-0.9599499185	 0.138325
H	-1.4617629338	-1.6349140004	 0.0254531537	 0.117877
H	-2.0263567331	-0.1461612413	 0.8080664689	 0.114128
H	 2.4885611013	-1.718868235	-0.4589403584	 0.147981
H	 2.9028954751	-2.0103902137	-3.0027638404	 0.276211
