17
gdb 29915	3.32444	1.3005	0.94589	4.7048	85.91	-0.2061	0.0106	0.2167	1215.2337	0.135393	-380.887831	-380.878742	-380.877798	-380.921591	32.933	
C	 0.0091162747	 1.4523690072	 0.0185694679	-0.34133
N	 0.0049757612	 0.0041451047	 0.0262860921	-0.036072
C	-0.0278537919	-0.8153529119	-1.0709866175	-0.024337
N	-0.0223971717	-2.082732692	-0.7522557632	-0.331199
C	 0.0162797138	-2.101841163	 0.6327668217	 0.080372
C	 0.0341578321	-3.2973604147	 1.3906504686	 0.251101
C	 0.0499780744	-4.3002541072	 2.0581132444	-0.445397
C	 0.0337685201	-0.8125620884	 1.1353849314	 0.193927
C	 0.0744199539	-0.3091659048	 2.5353484197	-0.517768
H	 0.9139092988	 1.8463516788	 0.4919397422	 0.146663
H	-0.0210149208	 1.7989088054	-1.0159168028	 0.148861
H	-0.8632571835	 1.8515529756	 0.5453771378	 0.146677
H	-0.0548268857	-0.4129105437	-2.0736160509	 0.125756
H	 0.063447959	-5.1920613189	 2.6335114023	 0.183067
H	 0.96671221	 0.2975253295	 2.7339784825	 0.131389
H	-0.8000339018	 0.3056563907	 2.7823435613	 0.131323
H	 0.0892148975	-1.1617474373	 3.2172710426	 0.156966
