20
gdb 58029	1.80637	1.5439	1.02479	2.4153	82.45	-0.2268	-0.0244	0.2024	1260.5743	0.166198	-403.112026	-403.10114	-403.100196	-403.148171	38.708	
C	 0.9003928151	-0.5057316338	-0.8350071043	-0.323314
N	-0.1210294331	-0.013107719	 0.0826375965	-0.079595
C	 0.0521586839	 1.4144087931	 0.3311622252	-0.326954
C	-1.4905406707	-0.2958254928	-0.366840976	-0.195466
C	-1.6917291328	-1.695091528	-0.7377937127	 0.287195
C	-1.9254273411	-2.8379094427	-1.0291657142	-0.42263
C	-2.5126577476	 0.0474945309	 0.7630234562	 0.369913
C	-2.2927518396	-0.6330436561	 2.0954794922	-0.476349
O	-3.4219400631	 0.8067171085	 0.5415832645	-0.297427
H	 1.8867322925	-0.3105041155	-0.4037005536	 0.119973
H	 0.7911919501	-1.5822931322	-0.975105527	 0.138791
H	 0.8597594855	-0.019289539	-1.8273225903	 0.096349
H	-0.0661720158	 2.0264779698	-0.5822828234	 0.104094
H	-0.6753279314	 1.7704609999	 1.0661493229	 0.132712
H	 1.0534241451	 1.591189938	 0.733451264	 0.123123
H	-1.782596998	 0.3390300304	-1.2242272462	 0.09915
H	-2.1205669899	-3.8466632979	-1.2989328624	 0.202328
H	-1.2468847969	-0.5423237286	 2.3989108269	 0.153583
H	-2.9615765618	-0.2060336632	 2.8430291588	 0.137422
H	-2.4981033304	-1.7035266419	 1.987964373	 0.1571
