17
gdb 130073	5.49711	1.00805	0.91501	1.2296	77.66	-0.2052	0.0075	0.2127	1281.4671	0.138371	-414.175369	-414.167376	-414.166432	-414.208958	30.002	
N	-0.1073144363	 1.3377274196	-0.0769356638	-0.593464
C	 0.0200909339	-0.0458930545	 0.003605859	 0.321931
N	-1.0394439875	-0.8577980868	-0.0571281582	-0.313622
N	-0.5118342461	-2.0739496661	 0.1331940224	 0.122308
N	 0.7955756335	-2.1100649242	 0.3006882515	-0.230901
C	 1.1675271	-0.8276236585	 0.2264666031	-0.117703
C	-1.3409234032	-3.2452970807	 0.1484137065	 0.103325
C	-0.8204312656	-4.5369226552	-0.4178619408	-0.278699
C	-1.0100869668	-4.3834106153	 1.073225175	-0.278166
H	 0.6532830975	 1.7836971053	-0.5709951966	 0.249697
H	-0.9971148882	 1.6121602637	-0.472314972	 0.254474
H	 2.1998366312	-0.536366489	 0.3342382015	 0.113833
H	-2.3721693122	-2.9634603237	-0.011413524	 0.122601
H	-1.5101011933	-5.1578963219	-0.9783719113	 0.119732
H	 0.1982591869	-4.5229906546	-0.7864528319	 0.141824
H	-0.1146588643	-4.2696166746	 1.6723801044	 0.14264
H	-1.8328494192	-4.8965377635	 1.5581380651	 0.120191
