18
gdb 41622	3.517	1.57238	1.3431	3.526	75.51	-0.2455	0.0178	0.2633	982.748	0.150608	-401.912252	-401.905554	-401.904609	-401.943271	27.291	
C	-0.0396450632	 1.5417431813	-0.1710449757	-0.201342
C	 1.460562969	 1.630510618	 0.2261533282	-0.243911
C	 1.4197369354	 0.1561410609	 0.7250139383	-0.056233
C	 0.0224882483	-0.0017470783	-0.0515857832	 0.002738
N	 0.3412509127	-0.6201957123	-1.364022583	-0.307498
C	 1.5119387214	-1.0648858797	-1.2108033332	 0.420997
O	 2.5691743377	-1.3270290671	-2.039687314	-0.271609
C	 3.468284203	-0.8705199771	-0.946517015	-0.130442
C	 2.2776644636	-0.9208429279	 0.0620585315	-0.155948
H	-0.6971459898	 1.9789086971	 0.5857501557	 0.1006
H	-0.3201782084	 1.9262706034	-1.1533971631	 0.115047
H	 2.1135128361	 1.7705244151	-0.6392440242	 0.108627
H	 1.7290375139	 2.3774367748	 0.9759013295	 0.102386
H	 1.363246158	 0.074418367	 1.8110660125	 0.07254
H	-0.8188742653	-0.4994036209	 0.4384980872	 0.075135
H	 4.2759322437	-1.5857677891	-0.7860568247	 0.129037
H	 3.8577161782	 0.1212825924	-1.1866151139	 0.132738
H	 2.3295138557	-1.8358756174	 0.6580836874	 0.107138
