17
gdb 16936	3.55549	2.14103	1.95024	3.8403	66.81	-0.2321	0.0332	0.2653	768.6397	0.146641	-363.917786	-363.911695	-363.910751	-363.947736	25.097	
O	-0.0055573539	-0.0194601673	 0.075749557	-0.388602
C	 0.0004650382	 1.1856488702	-0.0259329401	 0.40988
N	-1.1033333782	 2.0196174222	-0.0844808945	-0.295285
C	-0.6575593899	 3.4135485287	 0.0440251413	-0.002633
C	-0.0755842922	 3.6262914427	 1.4665172363	-0.208944
C	 1.2121083845	 2.7413025231	 1.4246077699	-0.21821
C	 1.1922998522	 2.1539333063	-0.0236980251	-0.130003
C	 0.6201063325	 3.3451161022	-0.8171675277	-0.217114
H	-1.9892863022	 1.6950552756	 0.2742277587	 0.245181
H	-1.4288552361	 4.119080188	-0.2650989715	 0.077556
H	 0.1597533494	 4.6803197856	 1.6420030932	 0.103179
H	-0.7825855148	 3.3111047067	 2.2380319779	 0.101789
H	 2.1131055219	 3.3438814623	 1.5680196747	 0.105207
H	 1.2157679823	 1.9545552539	 2.1820630912	 0.120634
H	 2.1241281813	 1.6993631325	-0.3525370388	 0.084837
H	 0.4091138239	 3.1185482871	-1.864465546	 0.111978
H	 1.2323264112	 4.2482950502	-0.7464804566	 0.10055
