21
gdb 101922	1.86579	1.47819	1.05954	3.01	79.72	-0.2191	0.0232	0.2424	1261.2761	0.181322	-420.410451	-420.400062	-420.399118	-420.446466	37.235	
C	 0.0704275158	 1.7906655692	-0.7816903712	-0.389166
C	-0.0906057214	 0.2695145384	-0.7606623005	-0.163492
C	-1.2037220569	-0.2161938519	 0.181481236	-0.048242
N	-2.4811724955	 0.4019055446	-0.1937827023	-0.078068
C	-3.276018511	-0.1443099895	-1.2928165702	-0.222973
C	-3.7430863209	-0.2574740573	 0.1186238358	-0.24019
C	-1.2157169068	-1.7558771444	 0.1989640354	 0.391715
N	-1.1215988821	-2.3238166422	 1.4354020928	-0.525796
O	-1.3141871321	-2.4263697792	-0.8148162696	-0.372324
H	 0.8613274171	 2.0849599371	-1.4784718076	 0.108884
H	-0.8583035146	 2.278815583	-1.0846257016	 0.136279
H	 0.3393245916	 2.1755892603	 0.2087398735	 0.106722
H	-0.3098220082	-0.1141939311	-1.762576675	 0.122295
H	 0.8500613302	-0.2031229063	-0.4521347453	 0.096184
H	-0.9898587824	 0.1467180272	 1.1967957748	 0.067654
H	-3.712967015	 0.6011542393	-1.9522916156	 0.108029
H	-2.9354980516	-1.057743472	-1.7694372767	 0.153147
H	-3.7207140013	-1.2504223151	 0.5635923459	 0.117433
H	-4.5268563542	 0.3917021891	 0.5003561417	 0.110628
H	-1.0448925534	-1.7777613378	 2.2747654372	 0.261418
H	-1.1167995375	-3.3290186014	 1.5041526324	 0.259861
