20
gdb 89304	1.98819	1.84616	1.13677	1.522	75.5	-0.2223	0.0643	0.2866	1125.3158	0.170167	-440.239067	-440.230301	-440.229357	-440.272222	34.193	
C	 0.0271104776	 1.5121922609	 0.1676068534	-0.329444
N	 0.1759720639	 0.0698120937	 0.1605001378	-0.092461
C	-1.0642842253	-0.7456251256	 0.2490551614	-0.213443
C	-0.4171486986	-1.6397866599	 1.3204533941	 0.406321
O	-1.2924188934	-1.9624594027	 2.3549677411	-0.474857
C	 0.5745706966	-2.710561959	 0.7948459844	-0.354567
C	 1.759135937	-1.6803977161	 0.8908996394	 0.165113
O	 2.4577483575	-1.3739014694	-0.2774683147	-0.435172
C	 0.7550435935	-0.5849801241	 1.3602165435	-0.127436
H	 1.0133383891	 1.9844128357	 0.2125145104	 0.128318
H	-0.4598764076	 1.8361186609	-0.7583079119	 0.124316
H	-0.5740328856	 1.8823469042	 1.0170823747	 0.101218
H	-1.9065511957	-0.1896133605	 0.6838681998	 0.105147
H	-1.3800532437	-1.2088978848	-0.6922242144	 0.103471
H	-0.8596741641	-2.5929124363	 2.9397827805	 0.280362
H	 0.6827901554	-3.5631247192	 1.4745239523	 0.090737
H	 0.3776817221	-3.0928507073	-0.2102671008	 0.107219
H	 2.4864527838	-1.9601398228	 1.6585845235	 0.081214
H	 1.8464688265	-0.7922809371	-0.7631822417	 0.272301
H	 0.9974692011	 0.0729972996	 2.1984389271	 0.061643
