21
gdb 114352	2.79855	1.18992	1.0977	2.5665	77.96	-0.2448	0.0602	0.305	1229.4854	0.182758	-424.190525	-424.181669	-424.180724	-424.224388	33.754	
C	 0.6097647725	 1.5883408698	 0.0532753941	-0.404322
C	 0.2006647446	 0.1241717039	 0.0867544331	 0.025897
C	 0.8368737525	-0.8669095891	-0.94606235	-0.268244
C	 1.2547947711	-1.8200313954	 0.2135999883	-0.121909
C	 2.630175326	-1.5693220676	 0.8591581148	 0.134984
C	 3.8645844824	-1.1613500537	 0.0786959902	-0.083646
O	 4.8676273577	-0.6983766116	 0.966822279	-0.422633
O	 2.104135402	-0.4457062869	 1.6254720313	-0.331062
C	 0.7465785202	-0.7617442663	 1.2331276254	 0.114395
H	 1.6925850266	 1.6885000193	 0.1662466824	 0.124367
H	 0.3162198746	 2.0544930067	-0.8932290166	 0.113045
H	 0.1364721101	 2.1518991248	 0.8648213155	 0.115749
H	-0.8917908056	 0.0375622024	 0.0617514489	 0.072933
H	 0.1174234542	-1.3101557967	-1.6377867116	 0.104231
H	 1.6585307053	-0.4554106903	-1.5365053297	 0.104324
H	 0.9042136895	-2.849756971	 0.1677536364	 0.076724
H	 2.9082414297	-2.3782803535	 1.550289364	 0.082304
H	 4.2790339293	-2.0263638549	-0.4514998163	 0.107649
H	 3.6146826956	-0.3943840285	-0.6681152785	 0.088429
H	 4.4504777212	-0.019474134	 1.5108589237	 0.294793
H	 0.1113440006	-0.9611761973	 2.101144206	 0.071992
