18
gdb 46367	3.37575	1.11561	0.88558	4.2057	72.34	-0.2453	0.0291	0.2744	1276.6668	0.148282	-439.078395	-439.06981	-439.068866	-439.113551	30.173	
O	 0.307366237	 0.0639778682	-0.1679284039	-0.364043
C	 0.1039834521	 1.2454155511	-0.0806118792	 0.426066
N	-1.0379480612	 2.007277935	-0.080609362	-0.321744
C	-0.3682977506	 3.2952435904	 0.1209915277	-0.190516
C	 0.9832989758	 2.5131946128	 0.106920242	-0.163305
C	 1.8391631086	 2.5230374346	 1.3586438262	-0.03518
C	 3.0925701056	 1.6171224274	 1.3082727239	-0.082082
O	 3.9744373139	 2.7604690539	 1.3441213738	-0.27268
C	 2.8690654124	 3.6700146303	 1.4955281824	-0.090536
H	-2.0126439708	 1.7537239165	-0.1460138322	 0.25283
H	-0.5090170691	 4.008619992	-0.6967515086	 0.1166
H	-0.6074446168	 3.7788085401	 1.0743768657	 0.113477
H	 1.5908816635	 2.7227831464	-0.779034965	 0.10776
H	 1.2151630403	 2.3709326598	 2.2436183333	 0.082425
H	 3.2306874831	 0.9638569108	 2.1780752703	 0.105079
H	 3.2143698718	 1.0234692918	 0.395668492	 0.119917
H	 2.8478840754	 4.4304851545	 0.7036214566	 0.097351
H	 2.8805687388	 4.1751524744	 2.4702931971	 0.098581
