15
gdb 5399	5.32125	1.56661	1.2197	3.1499	70.4	-0.2447	-0.0071	0.2376	950.1121	0.121382	-362.715048	-362.708343	-362.707399	-362.745988	25.165	
C	-0.0583355652	 1.4015609777	 0.0874280811	-0.250451
O	 0.0057090411	-0.012551278	-0.0047633789	-0.25963
C	 0.6186851316	-0.5566292765	-1.0790563676	 0.427907
C	 1.2045202112	 0.1623662599	-2.122796997	-0.274152
C	 1.7980333155	-0.5555835643	-3.1602554733	 0.015524
N	 1.8498397804	-1.8848566803	-3.2333067957	-0.280151
C	 1.2812162856	-2.5541223215	-2.2206070186	 0.018646
C	 0.6623025549	-1.9539357172	-1.1367183673	-0.220501
H	 0.9428952998	 1.847558467	 0.1272562036	 0.131104
H	-0.6120337344	 1.8346084584	-0.7545001688	 0.13111
H	-0.5869340603	 1.6190902814	 1.0164162738	 0.141626
H	 1.2093800879	 1.2439224156	-2.1462708007	 0.09901
H	 2.2595074624	-0.0117909647	-3.9821097108	 0.106377
H	 1.3241266563	-3.639163169	-2.2813447107	 0.108127
H	 0.2157262231	-2.5376056888	-0.340600339	 0.105453
