22
gdb 100811	3.69946	0.76488	0.66967	4.0984	83.39	-0.2811	0.0388	0.3199	1701.3145	0.191907	-404.376304	-404.365337	-404.364393	-404.412756	39.392	
C	 0.1146159851	 1.6081002039	 0.0754378563	-0.379033
C	-0.0152836004	 0.0841020567	-0.0021752091	-0.210856
C	 0.6756900484	-0.5130854591	-1.2344389926	 0.130304
O	 2.0506981434	-0.1273041411	-1.2835543549	-0.430533
C	 0.5365578188	-2.0485175336	-1.3426199489	 0.003138
C	-0.9207957133	-2.5250507362	-1.3892974758	-0.416119
C	 1.3176823425	-2.5340500048	-2.5898685322	-0.346249
C	 1.4454751813	-3.9867068847	-2.6497123134	 0.261011
N	 1.5374540797	-5.1388347555	-2.6754903718	-0.318151
H	 1.1636941716	 1.9135491058	 0.0688315573	 0.126845
H	-0.3731285494	 2.0861279917	-0.78109371	 0.117989
H	-0.3532112019	 1.9951102966	 0.9852515893	 0.113777
H	 0.4161573393	-0.3772063638	 0.8992454239	 0.089402
H	-1.0740154192	-0.1936281267	-0.0085619992	 0.108905
H	 0.2383504972	-0.0632300264	-2.1373105825	 0.087997
H	 2.4604089757	-0.398294301	-0.4534964499	 0.280532
H	 1.0216162774	-2.4873327779	-0.4587605238	 0.084196
H	-1.4431130463	-2.3318801086	-0.4497440742	 0.126182
H	-1.4720057594	-2.0220146391	-2.192856074	 0.118413
H	-0.9671032896	-3.6017566709	-1.5761291769	 0.144696
H	 0.8130577126	-2.1903522053	-3.5017543433	 0.143962
H	 2.3139144267	-2.0837689801	-2.5902346343	 0.163594
