15
gdb 7420	2.92049	1.76789	1.30164	5.2841	58.31	-0.2369	-0.0036	0.2334	933.9895	0.119692	-433.17706	-433.168564	-433.16762	-433.210046	31.244	
N	-0.0281306649	 1.5161691371	 0.0882516392	-0.524538
C	-0.0074251485	 0.0725712836	-0.0030123169	-0.146324
C	 0.6520822231	-0.4196658283	-1.3328018162	 0.382303
N	 0.8919980243	-1.754802419	-1.4234842233	-0.518876
O	 0.8553677565	 0.3612424495	-2.2397957642	-0.354115
C	 0.7159155095	-0.5141360091	 1.2141032436	 0.377292
N	 0.2863689338	-1.7669655926	 1.6002839465	-0.523911
O	 1.6458920825	 0.0493581016	 1.7486003847	-0.34241
H	 0.8055490052	 1.7969458445	 0.6006762503	 0.244253
H	 0.0796356007	 1.8754108397	-0.8588658849	 0.245186
H	-1.0346139861	-0.3256382409	-0.0285268214	 0.098287
H	 0.8971802026	-2.3337113898	-0.5987913717	 0.265958
H	 1.3652420468	-2.0852522725	-2.2495555633	 0.26437
H	-0.6706707514	-2.0280972638	 1.418044311	 0.265769
H	 0.6786453957	-2.1082750201	 2.4666143265	 0.266756
