17
gdb 92191	2.71773	1.97114	1.76919	1.7371	65.05	-0.2427	0.0477	0.2905	847.8142	0.13871	-458.921466	-458.915203	-458.914258	-458.951775	26.628	
O	 0.0612754115	 1.3781635404	-0.133921791	-0.443859
C	 0.0133836325	-0.0310419415	-0.0060382005	 0.135361
C	 0.6975415501	-0.5511163233	 1.2912117173	-0.257545
C	-0.3858632768	-0.6205043243	 2.3585741203	 0.050792
O	-1.1899429018	 0.6131953543	 2.2657753932	-0.323163
C	-2.1015594393	-0.0877285982	 1.4048977407	 0.058877
C	-1.6079198881	-1.4657684958	 1.827112945	 0.074339
O	-1.4300165414	-1.9211951646	 0.4841195093	-0.302919
C	-1.4417223733	-0.5234516512	 0.0438177176	 0.023331
H	-0.2856747647	 1.725104813	 0.6993161412	 0.288861
H	 0.5134141858	-0.4371909641	-0.8894957728	 0.091779
H	 1.1326951418	-1.542611309	 1.1361331159	 0.119507
H	 1.4974405054	 0.1374389087	 1.5778310316	 0.114902
H	-0.0379561092	-0.7881736739	 3.3795247227	 0.08828
H	-3.1181222429	 0.3044790368	 1.4137182184	 0.098118
H	-2.0863568162	-2.1867841592	 2.4893781279	 0.094425
H	-1.9981616833	-0.383281788	-0.8842200868	 0.088914
