20
gdb 91641	2.7532	1.81132	1.54336	2.7758	76.75	-0.2443	0.0893	0.3336	947.821	0.175233	-403.131823	-403.12513	-403.124186	-403.162449	29.136	
O	 0.0459510508	 1.407540451	-0.0480312682	-0.450055
C	 0.0360533716	 0.0021490522	 0.0183829232	 0.175185
C	 0.6516948912	-0.6023207527	 1.3380554077	-0.245095
C	-0.5203842111	-1.4340978774	 1.9239088415	-0.036486
C	-1.1398699288	-1.9909832613	 0.6250145613	-0.255741
C	-1.3991825169	-0.5938717383	 0.035242302	-0.023415
N	-2.0732456417	 0.2143440317	 1.0936315963	-0.123228
C	-2.9847616285	-0.5188294082	 1.983472913	-0.276994
C	-1.5523043872	-0.3938186985	 2.3552744612	-0.003921
H	-0.7340044362	 1.6908967563	 0.452672447	 0.286491
H	 0.5854060206	-0.3553610472	-0.8579367532	 0.078672
H	 1.5172389125	-1.2360202241	 1.1234389173	 0.093235
H	 0.980236209	 0.2036458816	 1.9996693826	 0.103607
H	-0.2424882139	-2.1600488824	 2.6894470128	 0.066936
H	-0.4185410952	-2.5581407551	 0.030756663	 0.10285
H	-2.0253924268	-2.6128326129	 0.7604780653	 0.101375
H	-1.934858948	-0.5286348986	-0.9125600301	 0.072026
H	-3.7003893582	 0.1247277024	 2.4866900034	 0.120754
H	-3.3971936691	-1.4709977137	 1.6678119519	 0.118698
H	-1.2666563241	 0.3045652654	 3.137995732	 0.095106
