19
gdb 102841	1.86484	1.26299	0.8011	4.0556	78.59	-0.2706	0.0115	0.282	1435.2137	0.155546	-423.023308	-423.012917	-423.011973	-423.059488	36.441	
C	-0.2743746808	 1.5306257467	-0.1987112204	-0.40147
C	-0.1081455693	 0.013875311	-0.0840341755	-0.179531
C	 0.6766760224	-0.4184449703	 1.1534825872	 0.105688
C	 0.7854690256	-1.9518737868	 1.2719854561	-0.358661
C	 1.4414727839	-2.3789155584	 2.5003383647	 0.277298
C	 1.9838558988	-2.6945664124	 3.5253413982	-0.418001
O	 1.9978555582	 0.1350078035	 1.0553655959	-0.189858
C	 2.5603992914	 0.6726077262	 2.1581900039	 0.176032
O	 3.669672153	 1.1132079129	 2.1616452439	-0.278684
H	 0.6974085386	 2.0264902564	-0.2640967147	 0.142819
H	-0.8477651041	 1.7905010575	-1.0928740522	 0.121428
H	-0.8063698362	 1.9390927769	 0.6678515313	 0.115596
H	-1.0909576041	-0.4709666352	-0.0462084069	 0.103774
H	 0.4031039601	-0.3767924033	-0.9721149474	 0.116247
H	 0.1922720099	-0.0247078076	 2.0577445303	 0.09652
H	-0.2239750158	-2.377680104	 1.2192554689	 0.135016
H	 1.3351970391	-2.3278283926	 0.4006473293	 0.147508
H	 2.4691484236	-2.988901095	 4.423060019	 0.204143
H	 1.8815880656	 0.6704239545	 3.0309593583	 0.084137
