20
gdb 78984	2.97532	1.73799	1.44199	1.8631	80.9	-0.2239	0.084	0.3079	997.1233	0.171772	-365.942398	-365.934832	-365.933888	-365.97389	30.797	
C	-0.028645138	 1.6643442042	 0.0173772876	-0.424049
C	 0.024702465	 0.1454775932	 0.0157080941	 0.021545
C	 1.0483833658	-0.6082142762	-0.878572356	-0.142457
C	 2.4517223186	-0.2695987286	-0.3413887046	-0.045071
C	 2.2087891875	-0.2799463401	 1.1290990179	-0.045074
C	 0.707968574	-0.6224746197	 1.1815591434	-0.142477
C	 1.131008614	-1.7595963441	 0.1853564884	 0.40872
C	 0.5770222861	-3.1424286854	 0.0841750158	-0.529513
N	 2.6361031823	-1.5413873715	 0.435455921	-0.214709
H	 0.9660785208	 2.0901863081	 0.1847100848	 0.119447
H	-0.4021105334	 2.0494688025	-0.9378923302	 0.114635
H	-0.6904465655	 2.0374251397	 0.8067863847	 0.114636
H	-0.9732266448	-0.2795688021	-0.1521578285	 0.07031
H	 0.9066518066	-0.7624193019	-1.9472862171	 0.066168
H	 3.2824761448	 0.2240622364	-0.8303659879	 0.091613
H	 2.8370159759	 0.2050406617	 1.8660317245	 0.091617
H	 0.2302686222	-0.7907762556	 2.1456617053	 0.066157
H	-0.5033147089	-3.1204908809	-0.096948142	 0.120807
H	 1.0518697971	-3.6894890974	-0.7376347053	 0.128884
H	 0.7587567499	-3.7002110622	 1.0093641541	 0.128812
