13
gdb 378	4.3707	3.32059	2.02436	3.2128	50.59	-0.2865	0.0177	0.3042	619.0012	0.106659	-286.495035	-286.487984	-286.48704	-286.525708	23.771	
C	-0.527912342	 1.0758703298	-0.1023024708	-0.248739
O	 0.630616885	 0.2786136197	 0.074986494	-0.226363
C	 1.0158346447	-0.4461671638	-1.068175258	 0.008194
C	 2.3761270819	-1.0827422523	-0.7873818815	-0.397849
C	 0.007914878	-1.4781768466	-1.4173286429	 0.261512
N	-0.7871618803	-2.2729715834	-1.6848348644	-0.323075
H	-0.3889001601	 1.808982223	-0.9107600325	 0.11243
H	-1.4118727796	 0.4644565282	-0.3274138047	 0.136071
H	-0.6892460477	 1.6064293064	 0.837710768	 0.139549
H	 1.0935941871	 0.226811638	-1.9386790924	 0.11308
H	 2.305828639	-1.7526369474	 0.0723356396	 0.149527
H	 2.7206985763	-1.6512396062	-1.6542663238	 0.138517
H	 3.0969739376	-0.2933882352	-0.5635024607	 0.137146
