20
gdb 85413	2.27288	1.46547	1.20187	3.0451	75.01	-0.242	0.0269	0.2689	1136.5895	0.170199	-440.340944	-440.33164	-440.330696	-440.374473	35.942	
C	-0.0730887017	 1.5910325842	 0.0669641559	-0.4117
C	 0.0266357283	 0.0653053715	 0.0465101439	 0.216814
C	-1.3781942392	-0.5571738347	-0.0574197718	-0.410158
N	 0.8916009772	-0.3957354644	-1.0458579621	-0.321869
C	 1.6349789936	-1.5165012399	-0.7722853417	 0.388563
O	 2.3058822357	-2.140632532	-1.5635987291	-0.378091
C	 1.4361299443	-1.8046190755	 0.7207463774	-0.373904
C	 0.8008352933	-0.5211036575	 1.2773033821	 0.116552
O	 1.7766526109	 0.3669456109	 1.7938318455	-0.431258
H	 0.9119601602	 2.0560679868	 0.1213076971	 0.119458
H	-0.5815728589	 1.9524657738	-0.8337306379	 0.109423
H	-0.6511777309	 1.9237141452	 0.9339332325	 0.12656
H	-1.8620748776	-0.2561003541	-0.9923227075	 0.117275
H	-1.3365652723	-1.6502883556	-0.0413248131	 0.121326
H	-2.0123885155	-0.2254569874	 0.7709613811	 0.122481
H	 0.75437843	-0.1114712245	-2.0046105718	 0.245244
H	 0.7761661805	-2.6730699525	 0.8167598724	 0.133557
H	 2.3771013857	-2.0507213067	 1.2160041417	 0.133654
H	 0.1142130632	-0.7040668418	 2.1071492817	 0.089583
H	 2.4658606133	 0.4756404243	 1.1282969937	 0.286491
