19
gdb 73526	2.73007	1.72237	1.34454	1.6071	82.33	-0.2359	0.0086	0.2445	1014.4276	0.160936	-385.907986	-385.900372	-385.899428	-385.939599	30.989	
O	 0.2496272706	 1.42969393	-0.1302483746	-0.48074
C	 0.1178729925	-0.0031542541	-0.0395118591	 0.33216
C	 0.5738634539	-0.5516454189	-1.400897697	-0.260449
C	-0.7426536817	-0.6267562462	-2.2253760862	-0.250132
C	-1.8026784072	-0.8085553456	-1.1527119483	-0.230467
C	-1.327866392	-0.4824370959	 0.0451115155	 0.313919
C	-1.7051118362	-0.7206043339	 1.4822238605	-0.395765
C	-0.3221134916	-0.8365332079	 2.1148104433	-0.073323
C	 0.6674163096	-0.4971223621	 1.2807111846	-0.168113
H	-0.0953911752	 1.8030775702	 0.6881407963	 0.269047
H	 1.3396465675	 0.0822632299	-1.8533947947	 0.105161
H	 0.9832665189	-1.5586834611	-1.2765414984	 0.101798
H	-0.9062243468	 0.2902670403	-2.8063022264	 0.116715
H	-0.7378107955	-1.4547656144	-2.9427156344	 0.098425
H	-2.7927768005	-1.198164826	-1.3663058807	 0.089736
H	-2.2775386965	 0.1003531521	 1.9389803125	 0.114887
H	-2.3103294352	-1.6245317851	 1.6164139679	 0.1206
H	-0.1889956865	-1.1571515942	 3.1428952122	 0.09829
H	 1.7224872418	-0.4773119374	 1.5302021272	 0.098252
