15
gdb 44265	3.13471	1.49429	1.22062	0.7915	65.37	-0.2324	-0.0421	0.1903	993.8724	0.114326	-453.971705	-453.964358	-453.963414	-454.003941	27.609	
O	 0.0518631908	 0.0843340091	 0.4822831794	-0.34909
C	 0.0169378933	 1.2475434708	 0.1906826121	 0.403848
N	-1.0142532972	 2.1624579085	 0.0921546256	-0.326619
C	-0.1463309774	 3.3376767276	-0.0952739302	-0.089438
C	 1.0636640889	 2.3663208062	-0.1335305081	-0.157757
N	 1.9602504575	 2.7716001097	 0.9429069058	-0.308161
C	 1.1753070252	 3.4365325723	 1.9863306769	-0.290297
C	 0.0418773772	 4.1180782508	 1.2131784204	 0.418254
O	-0.5985830044	 5.0706417916	 1.5677987941	-0.300459
H	-1.9720061622	 2.1142900081	 0.4144689141	 0.260167
H	-0.3866841035	 3.9652345404	-0.9540959556	 0.111717
H	 1.5897397353	 2.2411290172	-1.0814653963	 0.112645
H	 2.5035207596	 1.9907736611	 1.2926541681	 0.243484
H	 0.7220074912	 2.75800502	 2.7297538446	 0.130261
H	 1.7667769456	 4.1765559564	 2.5319742093	 0.141447
