21
gdb 68692	2.55397	1.75333	1.46244	1.5604	81.41	-0.2378	0.0187	0.2565	1003.2664	0.185627	-387.113923	-387.106418	-387.105474	-387.145087	31.941	
O	-0.0822787742	 1.4162192837	-0.0261681343	-0.49924
C	 0.0244174673	 0.004194873	 0.0324804289	 0.390285
C	-1.3740575049	-0.6317549155	 0.0405348417	-0.230938
C	-1.0299801939	-2.0474795794	 0.5519408571	-0.061396
C	-0.3618545351	-2.8188340093	-0.6184139372	-0.198477
C	 0.9212161536	-2.1115876564	-1.1113741785	-0.198277
C	 0.7990884602	-0.5698330829	-1.1781961501	-0.253084
C	-0.0070843967	-1.7089180655	 1.6306632079	-0.073929
C	 0.5922226078	-0.5552759903	 1.3367712966	-0.13442
H	 0.7973479875	 1.77691553	-0.1799849148	 0.27079
H	-2.0097697953	-0.0940345085	 0.7491654081	 0.101596
H	-1.8509392004	-0.6241780803	-0.9443107066	 0.086531
H	-1.8966239212	-2.6012341829	 0.9244431406	 0.061802
H	-0.1160998169	-3.8439023977	-0.3185589925	 0.091324
H	-1.0912562827	-2.8982975806	-1.4342014639	 0.095283
H	 1.7386192587	-2.3623349112	-0.4286741229	 0.104184
H	 1.2101211527	-2.5031618402	-2.0924205851	 0.091563
H	 0.2704284758	-0.2555601588	-2.0860673252	 0.102296
H	 1.8045823736	-0.1293950931	-1.2284803034	 0.078001
H	 0.2354195225	-2.3674792708	 2.457490968	 0.090866
H	 1.4117519016	-0.0884471133	 1.8725011957	 0.085241
