23
gdb 58730	2.90181	1.33763	1.196	0.4728	88.96	-0.2334	0.0831	0.3166	1191.0216	0.206466	-351.115719	-351.107023	-351.106079	-351.148915	34.539	
C	 0.0301126953	 1.5843033755	 0.2433361876	-0.384587
C	 0.0011308717	 0.0615392275	 0.0286098458	-0.133821
C	 0.8414318101	-0.6612068114	 1.0916529939	-0.391858
C	-1.4077515331	-0.4556826881	-0.0021316737	 0.416527
C	-2.4367706251	-0.7479033276	 1.0705403306	-0.11476
C	-3.4922279128	 0.1112960601	 0.3812608812	-0.226263
C	-2.6676613778	-0.1053194145	-0.9165456353	-0.126957
C	-2.8149065564	-1.622565477	-1.2107698817	-0.227578
C	-2.0119860626	-1.8407251243	 0.0677017715	-0.137007
H	 1.0561538399	 1.9655004682	 0.2077681466	 0.106728
H	-0.5489040318	 2.1059736278	-0.5252306259	 0.113265
H	-0.393601673	 1.8465683403	 1.219244571	 0.114795
H	 0.4564102123	-0.1441021966	-0.9522593681	 0.07292
H	 0.8513379452	-1.7429498953	 0.9273113897	 0.114958
H	 1.8771351745	-0.3075742538	 1.0712721935	 0.110496
H	 0.445733433	-0.4747511775	 2.0964561275	 0.115464
H	-2.270204918	-0.8850117662	 2.1319511795	 0.078669
H	-4.5356341377	-0.2276205473	 0.3753837596	 0.082802
H	-3.4469740571	 1.1489368821	 0.7237936792	 0.095695
H	-2.6958479	 0.6245843534	-1.723967054	 0.064231
H	-3.8330124455	-2.0252587233	-1.2788855795	 0.083127
H	-2.2437422972	-1.9226553805	-2.0941143801	 0.094179
H	-1.540812134	-2.7512819814	 0.4174817811	 0.078977
