12
gdb 129791	3.5246	1.68576	1.14166	6.7223	64.85	-0.2262	-0.049	0.1772	948.5437	0.079473	-464.941123	-464.934178	-464.933234	-464.972228	26.33	
N	 0.0825743589	 1.4115995337	 0.1626099878	-0.602497
C	-0.0394784647	 0.0457273642	 0.0509189381	 0.282073
C	-1.1409828451	-0.8073363486	 0.0285916991	 0.168369
N	-2.5023235892	-0.9095762635	 0.0149692328	-0.203703
N	-2.862736588	-2.0936488947	-0.0275161465	-0.030009
O	-1.593254463	-2.99547464	-0.0515121427	-0.280756
C	-0.6116192273	-2.1121824587	-0.0148174946	 0.466927
N	 0.7043265052	-2.1661808056	-0.023145022	-0.366654
N	 1.0154907271	-0.8051324459	 0.0204211735	-0.257933
H	 0.8815586529	 1.8221512866	-0.3001216303	 0.26538
H	-0.7683067571	 1.9147565014	-0.0425443915	 0.279829
H	 1.9881049202	-0.5523513789	 0.0740657862	 0.278974
