22
gdb 80395	2.16513	1.61802	1.38485	2.1604	82.76	-0.2218	0.0688	0.2907	1107.998	0.191688	-404.308651	-404.298819	-404.297875	-404.342185	38.154	
C	-0.1483674337	 1.5011816178	-0.0653018007	-0.314179
N	 0.1100560911	 0.0756015255	 0.0983197569	-0.127472
C	 1.3869987983	-0.5486381542	-0.1413342887	-0.095942
C	 2.5626489277	 0.3107267905	 0.3491687636	-0.324622
C	 1.9501175816	 0.2536421455	 1.7957596988	 0.340603
C	 2.8164832445	-0.5520800443	 2.7607671815	-0.447387
O	 1.5497624212	 1.4753105209	 2.3986330211	-0.475696
C	 0.7465005608	-0.5501600789	 1.2375052413	 0.317106
C	-0.0161492963	-1.6011875798	 1.9944134202	-0.50207
H	 0.6627309307	 2.165247095	 0.2489111227	 0.119797
H	-0.3762203476	 1.685198442	-1.1206872366	 0.109953
H	-1.0341449971	 1.7603176944	 0.52225788	 0.121534
H	 1.4507565715	-1.352215666	-0.8686893028	 0.086006
H	 3.5306490532	-0.1918366535	 0.2802534723	 0.096321
H	 2.647577584	 1.305800122	-0.0958269078	 0.098614
H	 3.7469998476	-0.0113760143	 2.9758935958	 0.105127
H	 2.2894925501	-0.7146808527	 3.7057560714	 0.125829
H	 3.0909268802	-1.5248870781	 2.3424666097	 0.123147
H	 2.3298425728	 1.8901264075	 2.7830190766	 0.274821
H	-0.6500758217	-1.1427772527	 2.762799999	 0.125733
H	-0.666491731	-2.1504571205	 1.3093910459	 0.129818
H	 0.6484760521	-2.3137070662	 2.4932760599	 0.112958
