17
gdb 84898	2.08147	1.8146	1.27601	4.1304	72.6	-0.2651	0.0035	0.2686	1037.9859	0.137493	-418.036422	-418.02826	-418.027316	-418.069277	30.199	
C	-0.0652391099	 1.5452813597	-0.0567205937	-0.400482
C	 0.0662227985	 0.0237162609	-0.0134875895	 0.042567
N	 0.6766531257	-0.4473300633	-1.2535183227	-0.265252
C	 1.4434192601	-1.4505586276	-1.2274022499	 0.135557
O	 1.7845964543	-2.2437624822	-0.1803048875	-0.216936
C	 1.0862530693	-1.998263125	 1.0387678028	-0.08307
C	 0.8243903975	-0.4967296687	 1.2420195624	-0.216899
C	 2.0780315121	 0.2218500357	 1.4824754022	 0.30016
N	 3.0663098698	 0.7860010063	 1.6839192268	-0.327739
H	 0.9185923079	 2.0180881006	-0.1178813148	 0.149401
H	-0.6378386889	 1.8333345577	-0.9411235908	 0.133496
H	-0.578246379	 1.9210675013	 0.8345323917	 0.111737
H	-0.9441628055	-0.4040807432	 0.0453863654	 0.099615
H	 1.9517156142	-1.7922750128	-2.1262804886	 0.137482
H	 0.1255917092	-2.5267960483	 1.0163228101	 0.124197
H	 1.7036340339	-2.4190034728	 1.8340121929	 0.142219
H	 0.1945966108	-0.3689309984	 2.1298028933	 0.133948
