18
gdb 74890	2.76094	1.57601	1.1217	4.1255	79.69	-0.2369	-0.0473	0.1896	1099.8652	0.148829	-401.965443	-401.957452	-401.956507	-401.998028	30.729	
C	-0.0013605696	 1.4859735271	-0.1661722509	-0.474555
C	-0.0100940777	-0.0085189541	-0.0125438635	 0.19876
C	-1.1278008278	-0.752808014	-0.0412315272	-0.109646
C	-1.1202116148	-2.2295189158	 0.0130490202	-0.087743
N	-0.3009636008	-2.9199942141	-1.0270990188	-0.32891
C	 0.1472273532	-2.9285719126	 0.3682818685	-0.041116
C	 1.3636054119	-2.0941709617	 0.6829850162	-0.326536
C	 1.3190277753	-0.6588030459	 0.1544216055	 0.322371
O	 2.3489792376	-0.0453302352	-0.043835963	-0.324369
H	 0.5986613119	 1.7752808669	-1.0346526136	 0.14818
H	-1.0141957398	 1.8781530662	-0.2871431634	 0.112915
H	 0.4640633239	 1.9688541426	 0.6997439922	 0.134305
H	-2.0952115029	-0.265902319	-0.1450233176	 0.097778
H	-2.0584881256	-2.7012736844	 0.2899843456	 0.089714
H	-0.7326658894	-3.8125131762	-1.2569351592	 0.234474
H	 0.0622914582	-3.8614667017	 0.9217092866	 0.090889
H	 1.4748502635	-2.0154569564	 1.7736132122	 0.127974
H	 2.2795980729	-2.5604219318	 0.3084451603	 0.135515
