20
gdb 95862	2.91265	1.16741	0.87952	4.5187	80.9	-0.228	0.0269	0.2549	1321.4577	0.173271	-399.331335	-399.322708	-399.321764	-399.36447	32.865	
C	 0.0010536984	 1.4642511124	-0.0162377385	-0.319966
N	-0.0106443775	 0.0115258787	 0.0277962164	-0.069538
C	-1.3595258974	-0.5365110674	-0.0738494752	-0.14105
C	-1.3022675264	-2.0655164384	-0.1475562486	-0.1745
N	-0.5640078964	-2.675850778	 0.96209971	-0.293547
C	 0.7503928221	-2.0441557084	 1.1130408853	-0.12296
C	 0.6851782655	-0.5023317991	 1.1974923851	-0.146393
C	 1.4412404055	-2.5936445741	 2.2850508111	 0.271232
N	 1.9851541473	-2.9944678178	 3.2219602648	-0.317614
H	 1.0334162593	 1.8272372015	 0.0004320822	 0.122437
H	-0.4671428745	 1.8072675622	-0.9440152051	 0.122134
H	-0.5383345273	 1.9295226145	 0.8305546531	 0.097413
H	-1.9892489788	-0.2312453956	 0.7883280451	 0.072415
H	-1.8325852848	-0.1353138958	-0.9773025471	 0.103998
H	-2.3123731226	-2.4851038136	-0.1610656808	 0.110483
H	-0.8079802931	-2.359063528	-1.0817028858	 0.117573
H	-1.086383902	-2.5598692594	 1.827023889	 0.226281
H	 1.3385094678	-2.3011496418	 0.2218460545	 0.136954
H	 1.6984412758	-0.0877237837	 1.2235847271	 0.11869
H	 0.1864302989	-0.2193399181	 2.1469602074	 0.085957
