19
gdb 73561	2.79008	1.70488	1.34953	1.7747	76.46	-0.2149	0.0317	0.2466	1006.5403	0.16202	-419.2308	-419.222821	-419.221877	-419.262878	31.438	
O	-0.1275161103	 1.3759874452	 0.0930697558	-0.491657
C	-0.0553422644	-0.0546154233	 0.1108110602	 0.356821
C	-1.4811384753	-0.554455579	-0.1294494539	-0.272774
C	-1.606167786	-0.477331165	-1.6786076663	-0.165452
N	-0.224871408	-0.6351757791	-2.1512825288	-0.376868
C	 0.6635194313	-0.5713266441	-1.1265767655	 0.384269
N	 1.8974149715	-0.8832484019	-1.0171211555	-0.345588
C	 2.2367302435	-0.7140480349	 0.4135931463	-0.174129
C	 0.8853426379	-0.5951700143	 1.1938356102	-0.308987
H	 0.7567046899	 1.7180788123	-0.0795803389	 0.285598
H	-1.5757439101	-1.592612723	 0.2018543313	 0.108552
H	-2.2325104495	 0.0515879564	 0.379681314	 0.116405
H	-2.2506028053	-1.2660877748	-2.0796228549	 0.108323
H	-2.0191107669	 0.4893542919	-1.9901647064	 0.120069
H	 0.0009734271	-1.054868448	-3.0369727891	 0.250184
H	 2.8283506403	-1.5700974703	 0.7536667072	 0.105464
H	 2.8720459907	 0.1726192226	 0.5560228204	 0.092633
H	 0.9306078509	 0.0592299426	 2.0672901504	 0.103385
H	 0.5640379527	-1.5884400031	 1.5229258837	 0.103752
