16
gdb 44342	4.44239	1.44743	1.38178	3.5748	72.77	-0.2273	-0.0218	0.2056	937.6681	0.127315	-400.745754	-400.739576	-400.738632	-400.775988	26.165	
O	-0.0039226657	 0.0288261657	 0.063661728	-0.364617
C	 0.0140438856	 1.2295680112	-0.0310350364	 0.406313
N	-1.0764151639	 2.0980922776	-0.1413001587	-0.330709
C	-0.465222192	 3.4144212482	 0.0170839308	 0.003987
C	 0.7591936686	 3.3765697564	-0.972114868	-0.065073
C	 1.5966027043	 4.5670041734	-0.5235217936	-0.104042
C	 1.5612832693	 4.4972105758	 0.8098822223	-0.103362
C	 0.7031890358	 3.2717544372	 1.0830688867	-0.085891
C	 1.1863679661	 2.2132147754	 0.0034564848	-0.154395
H	-1.9454168701	 1.853162401	 0.311510197	 0.248411
H	-1.1600750993	 4.2538446989	 0.0324896794	 0.087101
H	 0.6009462443	 3.1852634308	-2.0331589466	 0.078415
H	 2.0592065056	 5.2974606639	-1.1713621706	 0.110418
H	 1.9871655829	 5.156233507	 1.5527844832	 0.10978
H	 0.4959901999	 2.9673019164	 2.1095728029	 0.074445
H	 2.1919591287	 1.797438501	 0.0105842591	 0.089221
