17
gdb 44235	4.09219	1.2247	1.14827	4.4725	73.07	-0.2223	0.0212	0.2435	1094.2312	0.137042	-417.973858	-417.966372	-417.965428	-418.005879	29.531	
O	 0.0333552146	 0.0410077018	-0.0515193646	-0.351274
C	 0.0251100978	 1.2368565905	 0.0209706309	 0.449062
N	-1.0048143598	 2.1670293248	 0.0735266185	-0.321819
C	-0.1442124788	 3.3514394538	 0.0402063116	-0.107039
C	 1.0775224587	 2.3819480405	 0.035371014	-0.17135
N	 1.4142471827	 2.7787984227	-1.3649112939	-0.367136
C	 0.3499143615	 3.803227353	-1.3385703405	 0.373661
C	-0.4440136733	 4.2504942358	-2.5227205093	-0.311234
C	 0.4950712061	 5.2144075468	-1.8173947403	-0.33614
H	-1.9647716966	 2.0589981328	-0.2246228917	 0.248244
H	-0.3576301781	 4.106386777	 0.7975904441	 0.092338
H	 1.8817786659	 2.368515666	 0.7687791303	 0.101005
H	 2.3415956996	 3.1851506244	-1.4286355695	 0.226927
H	-0.1386386339	 3.8690835046	-3.4910856198	 0.127786
H	-1.513872958	 4.3958216792	-2.4111830938	 0.112338
H	 0.0671473155	 6.0105955586	-1.2155978013	 0.11712
H	 1.414558136	 5.4866571579	-2.3268214148	 0.117512
