18
gdb 107335	2.70993	1.57362	1.21252	2.6156	71.75	-0.2449	-0.0081	0.2368	1047.3342	0.148837	-439.054333	-439.046235	-439.045291	-439.086913	31.577	
O	-0.0226601478	 1.2950052025	 0.4704585081	-0.4269
C	 0.0223917417	-0.002050732	-0.1067018709	-0.165932
C	-1.3529108824	-0.5996642178	-0.1871947605	 0.279586
N	-2.0504418229	-1.0000087841	 1.0589134887	-0.375014
C	-1.755335212	-2.011150224	-0.0069576757	-0.161447
C	-2.9498367142	-2.2304718502	-0.8839053015	-0.04796
C	-3.3016700236	-1.0953037208	-1.4899183238	-0.12508
C	-2.3596498672	 0.0490835321	-1.1506403849	 0.043664
O	-2.9849786741	 1.1818663761	-0.553695618	-0.441436
H	-0.8286464312	 1.7241604666	 0.1533526104	 0.294233
H	 0.4714668175	 0.0258612126	-1.1134935761	 0.091783
H	 0.6791783007	-0.6115895678	 0.5263875071	 0.095655
H	-1.3508678317	-1.0715651658	 1.7979008957	 0.235137
H	-1.0486277746	-2.8044176051	 0.2109352722	 0.098943
H	-3.4666453126	-3.1801703665	-0.9536936553	 0.108964
H	-4.1686881736	-0.9486388708	-2.1231466788	 0.108508
H	-1.859571618	 0.4374223917	-2.0467088569	 0.094653
H	-3.298271914	 0.8618827132	 0.3057088401	 0.29264
