17
gdb 4016	3.54326	1.08891	0.92122	2.4532	63.88	-0.2561	-0.008	0.248	1243.3929	0.140288	-438.079288	-438.069958	-438.069014	-438.113875	32.969	
O	 0.2949576836	 1.2372025569	-0.1140294295	-0.412545
C	 0.1198248825	-0.1599720933	 0.0327076347	-0.060977
C	-1.3656144036	-0.5687098658	-0.0122553622	-0.300072
C	-1.5405434427	-2.0610026216	-0.0371264365	 0.33529
C	-1.1947461903	-2.8432077722	-1.2936293358	-0.142044
O	-0.1368679094	-3.7612577856	-1.088557021	-0.419576
N	-1.9458227972	-2.6126610612	 1.042824513	-0.167921
O	-2.0415452475	-4.0183671793	 0.8973474998	-0.412382
H	-0.0862082645	 1.6661996735	 0.6587544932	 0.284102
H	 0.6661109869	-0.6196977529	-0.7969158795	 0.128403
H	 0.5705441424	-0.5344372566	 0.9636350528	 0.103269
H	-1.8860384639	-0.1599867858	 0.8600718084	 0.109126
H	-1.8119188653	-0.1260133926	-0.9114522984	 0.117818
H	-2.1076018916	-3.3455902216	-1.6506436602	 0.113709
H	-0.8659476709	-2.158219219	-2.0796793309	 0.114074
H	-0.4400724395	-4.3566446267	-0.3920772135	 0.297819
H	-2.3431717389	-4.2948915863	 1.7685866156	 0.311906
