20
gdb 22420	3.42014	1.19007	1.03229	1.2356	83.28	-0.2344	0.0238	0.2582	1218.3968	0.171496	-403.108672	-403.100451	-403.099507	-403.141019	33.067	
C	-0.0380507683	 1.4977951347	 0.0164435565	-0.494273
C	 0.0006833191	-0.0126901796	 0.0255763479	 0.329174
C	 0.9457790646	-0.8329234099	-0.9116430512	-0.26461
C	 0.6789413733	-1.9732068564	 0.1263647197	-0.106999
C	 0.6478598218	-0.8278277527	 1.1922261433	-0.264609
C	-0.7942385187	-2.185516118	-0.0817525414	 0.477534
C	-1.3406490871	-0.7673444843	-0.1625225401	-0.342388
N	-1.3669057256	-3.3141210399	-0.1601187326	-0.295201
O	-2.7577151403	-3.1583945465	-0.3573896446	-0.39878
H	 0.9616362207	 1.9223182627	 0.1568604594	 0.113246
H	-0.4329878713	 1.8771853594	-0.9330441531	 0.11767
H	-0.6806344051	 1.881410532	 0.817296297	 0.117671
H	 0.6375612488	-0.9970152315	-1.9484049377	 0.097981
H	 1.9784665978	-0.4773426245	-0.8726849809	 0.09861
H	 1.3099459409	-2.854312099	 0.2178499119	 0.077342
H	 1.6509991375	-0.4717339674	 1.439830702	 0.098611
H	 0.0637999796	-0.9872016854	 2.1034196421	 0.097981
H	-2.0713459316	-0.5612159367	 0.6267720834	 0.118857
H	-1.8233718975	-0.5654227204	-1.1246024748	 0.118856
H	-3.0572292287	-4.0726829266	-0.3975727667	 0.303328
