19
gdb 12075	3.70964	1.6001	1.45603	2.5326	70.39	-0.2279	0.062	0.2899	956.185	0.164746	-365.012927	-365.004787	-365.003843	-365.045059	31.352	
C	 0.0156137683	 1.5615531831	 0.1263458632	-0.404853
C	-0.1024484854	 0.0401665367	-0.0236913116	-0.226505
C	 0.6867183048	-0.5172951638	-1.2089043798	 0.406881
O	 0.1894749028	-0.0132938734	-2.4406087912	-0.484811
C	 2.2483965926	-0.5157874003	-1.1651654573	-0.22524
N	 2.3185741139	-1.9923782569	-1.4612295291	-0.125937
C	 1.6468796913	-2.6472683797	-0.3259255396	-0.250941
C	 0.8020632851	-2.0330348146	-1.3671722165	-0.061899
H	 1.0598590884	 1.8744188058	 0.2397098325	 0.120448
H	-0.4037155955	 2.0877283076	-0.7384531105	 0.113158
H	-0.5307789467	 1.9113894477	 1.0066635648	 0.122945
H	 0.2417741949	-0.4418782667	 0.8978268847	 0.095116
H	-1.1544899791	-0.239964924	-0.155690581	 0.106217
H	 0.3409979591	 0.9373602642	-2.4587085417	 0.279526
H	 2.6827048606	 0.0538646823	-1.9890397966	 0.109426
H	 2.7338825125	-0.235421664	-0.2231759832	 0.093323
H	 1.7462676263	-3.7285202774	-0.3415122042	 0.123163
H	 1.7220669269	-2.204073934	 0.6651046311	 0.108572
H	 0.1992357893	-2.6045628725	-2.065173894	 0.10141
