19
gdb 36826	4.76473	0.61274	0.57624	1.4065	87.08	-0.2306	0.0504	0.281	1950.1512	0.158204	-385.824686	-385.815367	-385.814423	-385.860986	33.226	
C	 0.2061702531	 1.4090809508	-0.7581475257	-0.381219
C	 0.0167052763	-0.0272500554	-0.5827554463	 0.042508
C	-0.1136263678	-1.2151467976	-0.4245967627	 0.104965
C	-0.2779571685	-2.6273134649	-0.2362072778	-0.156919
C	 0.0535020213	-3.2636357876	 1.1051792643	-0.251852
C	-1.3780107978	-3.1555487633	 0.6723474599	-0.251354
C	 1.3585038665	 1.9611753259	 0.0643333932	 0.112882
C	 1.3629745175	 3.3480477548	 0.5421271984	-0.181946
O	 1.0838890547	 2.2627221636	 1.4298194764	-0.226009
H	 0.3962924263	 1.6300922024	-1.8178200113	 0.130244
H	-0.7061788856	 1.9529988555	-0.4830807338	 0.132168
H	-0.0598595311	-3.2354633648	-1.1095798473	 0.106682
H	 0.5299105157	-4.2374149608	 1.0875810326	 0.116546
H	 0.4003111394	-2.6018011021	 1.8895964305	 0.130546
H	-2.0044462639	-2.4203061778	 1.1627841259	 0.12764
H	-1.8946123365	-4.054265002	 0.3546178254	 0.116588
H	 2.3161766681	 1.4661377089	-0.099440252	 0.100698
H	 2.3077392888	 3.863041967	 0.7097937056	 0.115351
H	 0.5160916736	 3.9957940175	 0.3170071547	 0.112482
