23
gdb 60427	4.29908	0.62448	0.57455	3.3245	84.42	-0.2443	-0.0098	0.2345	2024.5133	0.200915	-425.444829	-425.433108	-425.432164	-425.483803	40.149	
C	-0.0495747345	 1.5516074242	 0.0503105203	-0.383345
C	 0.0338254199	 0.0206175567	 0.0246159976	 0.020594
C	 0.7426977318	-0.4905807866	-1.235438035	-0.393708
C	 0.7303874684	-0.5155945686	 1.2741890837	-0.038026
O	-0.0081343535	-0.1257630363	 2.4160554674	-0.227721
C	 0.5568358803	-0.5471519517	 3.6164783236	-0.153784
C	-0.2855255381	-0.074296183	 4.7997146579	 0.358203
C	 0.2831266721	-0.4192726275	 6.1665305211	-0.482858
O	-1.3172023417	 0.5307037073	 4.6557708698	-0.269774
H	 0.9527905206	 1.9965283156	 0.0142667015	 0.103421
H	-0.6102022228	 1.927078025	-0.8117051271	 0.10752
H	-0.5420218328	 1.8965823208	 0.9620252432	 0.141293
H	-0.988378545	-0.3800321271	 0.0380027415	 0.0875
H	 1.7776656372	-0.1305686774	-1.2802872165	 0.112301
H	 0.7674484367	-1.585118581	-1.271834469	 0.110278
H	 0.2332099714	-0.137778386	-2.1372789033	 0.11631
H	 0.8064884758	-1.6157590388	 1.2293873731	 0.081268
H	 1.7610659958	-0.1209543347	 1.3335029174	 0.080275
H	 0.6356058839	-1.6498146416	 3.6714582076	 0.103341
H	 1.5873323714	-0.1657029303	 3.7466320596	 0.101644
H	 1.1918070362	 0.1658277629	 6.3509421825	 0.143518
H	-0.4529694165	-0.1861583398	 6.936516127	 0.147294
H	 0.5643550034	-1.4761059322	 6.226728836	 0.134453
