20
gdb 15438	5.09644	0.85862	0.79422	2.2075	73.14	-0.2501	0.0761	0.3262	1469.3149	0.175372	-386.10309	-386.093472	-386.092528	-386.138257	33.512	
C	-0.3006559246	 1.3390134952	-0.0366962381	-0.224813
O	-0.2497898503	-0.0589350934	-0.1759650508	-0.229005
C	 0.8146971295	-0.4887519511	-1.0015164862	-0.075653
C	 0.8099560457	-1.9948800884	-1.0287840831	-0.0275
C	-0.0447434611	-2.7524369351	-2.0131841968	-0.27605
C	 1.4572817298	-2.8062543925	-2.1300263336	 0.004054
C	 2.1668492953	-2.1883857582	-3.3070137055	-0.100225
O	 2.1721606777	-3.1482842293	-4.3570087448	-0.41938
H	 0.6214925278	 1.7414219511	 0.4136847845	 0.100461
H	-0.4535244091	 1.8438112634	-1.0046574181	 0.10001
H	-1.1434288039	 1.5734265264	 0.6183707375	 0.126156
H	 0.6995429468	-0.0707670884	-2.0152713948	 0.080376
H	 1.7735766039	-0.1097490156	-0.6048998063	 0.082167
H	 0.8877562566	-2.4242323822	-0.0337852085	 0.091776
H	-0.5771258009	-3.6343432686	-1.6760114459	 0.112822
H	-0.5777073617	-2.1685469364	-2.7574999845	 0.112612
H	 1.9280421561	-3.7302951443	-1.8055446758	 0.091576
H	 1.6585717831	-1.2644952619	-3.6227846406	 0.081657
H	 3.1962245795	-1.9139889935	-3.0232569745	 0.084818
H	 2.6964734598	-2.7935836274	-5.0812186242	 0.28414
