17
gdb 63347	2.60221	1.4459	1.15385	1.8733	70.87	-0.2603	-0.0143	0.246	1090.2823	0.136152	-455.209057	-455.200582	-455.199638	-455.242174	32.485	
C	 0.0823783189	 1.5575300899	 0.0086956333	-0.427372
C	-0.0381714009	 0.0267789963	-0.0042647801	 0.34321
O	-1.3948297229	-0.3707197939	 0.0037125442	-0.474062
C	 0.7029620841	-0.6117827006	-1.1939671077	-0.384848
C	 1.9937521586	-1.1811611602	-0.616061664	 0.407414
O	 2.9498133358	-1.6259972539	-1.1960782682	-0.344902
N	 1.8678692595	-1.120215965	 0.7734601778	-0.369495
C	 0.6836743447	-0.5590003645	 1.2185055064	 0.348347
N	 0.1754557986	-0.4909172471	 2.3781253782	-0.550869
H	 1.1279603764	 1.8804765732	-0.040226627	 0.117355
H	-0.4522020875	 1.9675551808	-0.8526461815	 0.130127
H	-0.3591560332	 1.95715236	 0.9253583071	 0.135205
H	-1.6761478215	-0.3338731158	 0.9286554491	 0.292953
H	 0.1087044789	-1.4374638545	-1.5965353568	 0.157549
H	 0.9228277269	 0.0769412876	-2.0113708157	 0.137815
H	 2.573171528	-1.5208553163	 1.3757732738	 0.262411
H	 0.7434731057	-0.936606686	 3.0984209913	 0.219162
