17
gdb 103385	2.6344	1.50686	1.24452	2.6159	67.94	-0.2516	-0.0409	0.2108	1042.6238	0.133873	-458.929411	-458.92082	-458.919876	-458.962389	32.119	
C	-0.0590629096	 1.5964774492	-0.1485600954	-0.449796
C	-0.0361864812	 0.0749724617	-0.0825721357	 0.106223
C	-1.4228141427	-0.5239465508	 0.2268919871	-0.102742
O	-1.9048725158	-0.1005365605	 1.4833315168	-0.420766
C	 0.742205595	-0.6647304966	-1.1973975219	-0.015787
O	 2.0770040464	-0.1881111951	-1.1515267212	-0.227356
C	 1.7293173094	-1.264264625	-0.2549039871	-0.114531
C	 0.9721009012	-0.6197478785	 0.8918772534	 0.400542
O	 0.9456454208	-0.7867459904	 2.0806928894	-0.329262
H	 0.9394425509	 1.9958167304	-0.3363690406	 0.13579
H	-0.7265258826	 1.9334898	-0.9499487544	 0.118657
H	-0.4371724009	 2.0024052871	 0.7924843725	 0.144195
H	-2.1463688901	-0.177997331	-0.5205273114	 0.112759
H	-1.3801547323	-1.6242628862	 0.1569103058	 0.088097
H	-1.2407640049	-0.3491324001	 2.1406259185	 0.299191
H	 0.3783594202	-1.0872055756	-2.1268992909	 0.125673
H	 2.3146824962	-2.1742569085	-0.3059724451	 0.129113
