19
gdb 8442	2.71644	2.11598	1.78376	0.645	71.48	-0.2218	0.0774	0.2993	869.328	0.164105	-365.026511	-365.01813	-365.017186	-365.058361	32.679	
C	-0.0607466639	 1.5376203829	 0.0303163569	-0.5174
C	 0.1096792866	 0.0515427848	 0.021506946	 0.326642
N	-0.7757824413	-0.8688575019	 0.7770812635	-0.382114
C	 0.6948922314	-0.9008928197	 1.003695447	-0.104363
C	 1.2619437839	-1.7932348094	-0.1007512808	-0.277085
C	 0.6562338807	-0.7876491789	-1.1584796579	 0.377643
C	-0.3442321238	-1.332150742	-2.1644559944	-0.459987
O	 1.6649907969	-0.0086083431	-1.78559094	-0.483974
H	 0.8119173606	 2.0204396657	-0.4169606263	 0.14614
H	-0.9453336179	 1.8412090537	-0.5421943827	 0.123349
H	-0.1782757965	 1.9120971103	 1.0533380401	 0.110963
H	-1.1849260349	-0.3214645957	 1.5346796922	 0.222825
H	 1.1028828565	-0.7162936542	 1.9904877998	 0.087556
H	 2.3524727781	-1.7766874279	-0.1530020123	 0.099174
H	 0.8906250256	-2.8215292842	-0.1132352	 0.096302
H	-1.1628251646	-1.8371860024	-1.6475310312	 0.143133
H	-0.7522626448	-0.5200141597	-2.7750068974	 0.115956
H	 0.1351149049	-2.05533709	-2.8367912697	 0.099952
H	 2.0692399925	-0.5487059682	-2.4728676826	 0.275288
