18
gdb 56927	2.12177	1.42236	1.00564	1.1694	84.45	-0.2343	0.0303	0.2646	1231.8241	0.143967	-364.708302	-364.698643	-364.697699	-364.742754	36.022	
C	-0.1848546204	 1.4462998813	 0.1096201943	-0.388238
C	 0.1097459883	-0.0313994374	-0.190294084	-0.148082
C	 0.949710199	-0.1736527357	-1.3803284715	 0.367619
C	 1.6289240413	-0.2658813314	-2.3667595556	-0.460876
N	 0.7970745679	-0.618924782	 0.9724396934	-0.078161
C	-0.0441557949	-1.0748741392	 2.0656279785	-0.246436
C	 0.6741169059	-2.0708136484	 1.201577836	-0.175076
C	-0.079391056	-2.9231447713	 0.3223439076	 0.346031
C	-0.6818546012	-3.6589990849	-0.4142498289	-0.466015
H	 0.745174717	 1.9805410915	 0.3169015391	 0.13825
H	-0.6786536048	 1.9141574402	-0.7453809755	 0.127427
H	-0.8405719112	 1.5301778358	 0.9813297766	 0.116138
H	-0.8444203874	-0.5489268582	-0.385374959	 0.102972
H	 2.2294945417	-0.3609341452	-3.2372817477	 0.19579
H	 0.318389515	-0.8658286434	 3.0682666992	 0.123539
H	-1.1249773406	-1.0255925894	 1.9430980323	 0.121946
H	 1.5894743202	-2.5162175818	 1.5836989556	 0.121325
H	-1.2130082098	-4.3063618103	-1.0673279403	 0.201847
