19
gdb 52235	4.99273	0.7679	0.74626	3.9498	78.42	-0.2373	0.0295	0.2668	1550.1206	0.159756	-419.150607	-419.141868	-419.140924	-419.18567	31.604	
N	-0.0826959521	 1.2030395595	-0.2454023883	-0.442379
C	-0.0845384727	-0.0587862142	-0.191783844	 0.129381
O	-1.1983573069	-0.7186781212	 0.1706537529	-0.186012
C	-1.0901122344	-2.1349159213	 0.3482371516	-0.091822
C	-2.4549605117	-2.7450223204	 0.1045590694	 0.003951
C	-3.0256726099	-2.7381294379	-1.3616504692	-0.233256
C	-3.0839042533	-4.2674547743	-1.3005416166	-0.036383
N	-1.6919880448	-4.7238326529	-1.0652447742	-0.33388
C	-2.5286020116	-4.2804057651	 0.0800052108	-0.079922
H	 0.8276594298	 1.5323148567	-0.5598848411	 0.226143
H	 0.7592294648	-0.7221751969	-0.4305904726	 0.083149
H	-0.3631205165	-2.5580369654	-0.3537350147	 0.126224
H	-0.7493488541	-2.345048267	 1.3718080931	 0.103026
H	-3.1816423598	-2.3209087051	 0.8019117243	 0.09095
H	-4.0058639454	-2.2624417515	-1.4197750545	 0.111026
H	-2.3731303823	-2.3267101786	-2.1352628082	 0.110753
H	-3.808763576	-4.9270548115	-1.7610790025	 0.095941
H	-1.7060093264	-5.7434134763	-1.0625098431	 0.229816
H	-2.7259772865	-4.9466397267	 0.911053177	 0.093294
