18
gdb 83846	2.23571	1.86479	1.34955	2.041	73.11	-0.2563	0.0121	0.2684	1009.5481	0.149116	-439.082777	-439.07486	-439.073916	-439.115367	30.234	
C	-0.2143648322	 1.5168666156	 0.0099509514	-0.411123
C	 0.0258024572	 0.0252981972	 0.0298412782	-0.045076
C	 1.3763223651	-0.5701147288	-0.2333968177	 0.055605
O	 2.4482126973	 0.3244374219	-0.3969685408	-0.230601
C	 3.2578266321	 0.3679462654	 0.7363491815	 0.00195
O	 2.557263503	 0.85719928	 1.8771527472	-0.245585
C	 1.4384652762	 0.1426790006	 2.237409016	 0.393299
N	 0.9651880095	 0.1885975406	 3.4093760775	-0.524242
C	 0.7982752599	-0.6625492152	 1.1620383209	-0.162079
H	 0.6783798659	 2.0695991259	 0.3066873931	 0.139296
H	-0.4933085844	 1.8448543417	-0.9966925323	 0.121026
H	-1.0266121248	 1.7846896993	 0.6923768443	 0.130539
H	-0.8049372267	-0.5729613975	-0.3345108099	 0.098323
H	 1.4681790915	-1.4681219952	-0.8394547937	 0.10253
H	 3.6699039579	-0.6257986612	 0.9680761517	 0.103289
H	 4.0592856872	 1.0819917524	 0.5438576102	 0.13039
H	 1.5535379584	 0.7801190468	 4.0001799543	 0.221217
H	 0.404676567	-1.6093095692	 1.5091105781	 0.121243
