17
gdb 94304	3.4614	1.16895	1.02495	2.7856	68.43	-0.2643	0.0026	0.2669	1175.8078	0.13483	-458.974618	-458.966443	-458.965499	-459.007824	30.327	
C	-0.1645051857	 1.59152765	-0.1767867942	-0.416912
C	 0.2025704747	 0.1241476834	-0.1422825129	 0.105946
O	 1.5099449	-0.1416104621	-0.7120925016	-0.294087
C	 1.9015215016	-0.94225454	 0.420204995	-0.128071
C	 0.635217283	-0.5383006297	 1.1808664946	 0.343016
C	 0.6276468597	 0.1434475026	 2.5565100193	-0.497604
C	-0.2519085759	-1.0412015254	 2.9546594044	 0.440788
O	-0.8153797621	-1.4466842992	 3.9166799483	-0.308557
O	-0.2132875798	-1.6071261834	 1.6998039134	-0.265556
H	 0.5846975873	 2.1986441235	 0.3401649232	 0.124103
H	-0.2231027278	 1.934239522	-1.2140217302	 0.140162
H	-1.1418552012	 1.756150217	 0.28945465	 0.126761
H	-0.5679652648	-0.4835129922	-0.6373888615	 0.096307
H	 1.9409034294	-2.0139627322	 0.1884788768	 0.122089
H	 2.8595110475	-0.6214388774	 0.8449791213	 0.112182
H	 1.5861255488	 0.1899005929	 3.0767306421	 0.148772
H	 0.1316176752	 1.1134414202	 2.617055222	 0.150657
