16
gdb 53921	1.77729	1.6086	1.27611	3.0563	77.09	-0.2464	0.0126	0.259	1104.4986	0.120006	-400.709522	-400.699348	-400.698404	-400.744522	37.249	
C	-0.4984075336	 1.5334723704	-0.104653428	-0.402724
C	 0.0378796448	 0.0872913168	 0.0453536744	-0.24278
C	 0.8677721936	-0.0247041098	 1.2529111073	 0.375283
C	 1.5588059558	-0.0969557301	 2.2324350578	-0.492608
C	-1.0763054895	-0.8660066705	 0.1202426944	 0.32302
C	-1.9958622613	-1.6394765808	 0.162503942	-0.457286
C	 0.9861205349	-0.2129865789	-1.1813483042	 0.426753
N	 1.0265208009	-1.5096535189	-1.5655029963	-0.533487
O	 1.6433436983	 0.6699341255	-1.6857044952	-0.35692
H	 0.3466725457	 2.208879907	-0.2353473875	 0.156623
H	-1.1460529609	 1.5994372455	-0.9820618656	 0.129333
H	-1.0676621952	 1.8115089578	 0.7838135443	 0.129725
H	 2.1682758624	-0.1643142768	 3.0995966574	 0.203339
H	-2.8147969834	-2.3142684645	 0.2139761198	 0.20458
H	 0.3936162227	-2.1898087142	-1.1803890669	 0.271411
H	 1.6197253746	-1.7585443085	-2.3395731338	 0.265738
