21
gdb 61517	2.41653	1.13082	0.97781	2.1545	83.95	-0.2537	0.0548	0.3085	1347.087	0.178965	-387.043404	-387.033088	-387.032143	-387.078865	38.183	
C	-1.1355548317	-1.4469214785	-0.0276089262	-0.390446
C	 0.3109621349	-0.9147498539	-0.0809715783	-0.166623
C	 0.7816128438	-0.4792493243	 1.3278622651	-0.250451
C	 2.1868939166	 0.0959198594	 1.4122027747	 0.42827
C	 2.5568426007	 1.1812276264	 0.4238418019	-0.468403
C	 2.8782479188	 0.0354304469	 2.7102886784	-0.232169
O	 3.2260828761	-0.8636775581	 1.6568243196	-0.265038
C	 1.2044416437	-1.9015042633	-0.6860077003	 0.363733
C	 1.9199275606	-2.7239820877	-1.1922839929	-0.491024
H	-1.8080542078	-0.6842221449	 0.3779908973	 0.111818
H	-1.4852038013	-1.7221808007	-1.0257123353	 0.12635
H	-1.1969110508	-2.3345841418	 0.6091011377	 0.128017
H	 0.3111469371	-0.0248194563	-0.7251186091	 0.106675
H	 0.0713576466	 0.2738741065	 1.6943735097	 0.099523
H	 0.7241198963	-1.3378026287	 2.0048177305	 0.111608
H	 1.843481566	 2.0120312504	 0.4662131528	 0.115435
H	 3.5548236269	 1.569967163	 0.6394271205	 0.125174
H	 2.5632861386	 0.7878847541	-0.5972625176	 0.139102
H	 3.629570071	 0.7854244142	 2.9563403821	 0.106532
H	 2.3831464179	-0.4176474464	 3.5692281885	 0.105676
H	 2.5679229257	-3.4439703665	-1.6269989692	 0.196243
