21
gdb 81481	3.05738	1.51687	1.41576	1.7271	80.91	-0.2427	0.0857	0.3283	1037.1621	0.185604	-387.05784	-387.050658	-387.049714	-387.089017	30.047	
C	-0.1116094346	 1.5884922755	 0.0032003122	-0.440532
C	-0.0078427355	 0.0677767953	-0.0303502549	 0.049838
C	 0.7707670217	-0.566043496	-1.2313468955	-0.055662
C	 2.0754821867	-0.2912871341	-0.411751609	-0.239698
C	 1.1341641339	-0.5950886545	 0.7992553534	-0.060707
C	 0.8905263935	-2.0935693373	 0.5477220248	 0.134838
O	-0.4472282814	-2.5921484924	 0.7894078214	-0.303363
C	-0.71049098	-2.7113212044	-0.6288755271	-0.113921
C	 0.6493017528	-2.0834736379	-0.9894646177	-0.057836
H	 0.8382245815	 2.0976538995	-0.181472402	 0.11516
H	-0.8228501098	 1.93831308	-0.7533819691	 0.114487
H	-0.4808918758	 1.9239850478	 0.9784982527	 0.117742
H	-0.997346179	-0.3498662957	 0.1679779228	 0.083776
H	 0.6397272958	-0.2002713617	-2.2510654686	 0.057425
H	 2.9253190568	-0.9613657904	-0.5785118957	 0.090105
H	 2.4165250675	 0.7423552727	-0.4486592155	 0.103897
H	 1.3690909748	-0.2780520334	 1.8160957631	 0.05914
H	 1.6510227818	-2.7486604208	 0.9842078436	 0.071639
H	-0.8142403702	-3.7624743322	-0.9260319851	 0.098565
H	-1.6124135077	-2.1650873545	-0.9321037665	 0.099475
H	 1.2997790371	-2.6755895253	-1.6344097375	 0.075632
