12
gdb 572	12.11067	1.99826	1.83642	1.9719	51.81	-0.2611	0.0484	0.3095	653.8855	0.094784	-269.170665	-269.164427	-269.163483	-269.200589	21.894	
C	 0.0281635226	-1.1495084269	 0.2346889912	-0.440497
C	-0.002150822	 0.036450601	 0.0455272893	 0.299912
C	-0.0120716358	 1.4747555508	-0.1988663065	-0.373748
C	 1.3827803275	 2.0774187948	-0.2286768611	 0.107504
C	 1.6168340717	 3.4762763541	 0.1455520591	-0.181256
O	 1.9648772637	 2.4064537554	 1.0280280812	-0.222842
H	 0.048229924	-2.1962005245	 0.4116376347	 0.198906
H	-0.5062594728	 1.681304488	-1.1579534561	 0.135328
H	-0.5957638441	 1.9851721426	 0.5763543534	 0.139135
H	 2.0702466499	 1.6058397597	-0.9313847925	 0.10475
H	 2.4539383688	 4.0216955883	-0.2871437946	 0.118327
H	 0.7785856565	 4.0929156567	 0.468511352	 0.11448
