16
gdb 25004	4.68672	1.2965	1.02856	1.0982	76.16	-0.2072	-0.033	0.1743	1095.0976	0.126654	-400.812834	-400.805867	-400.804923	-400.844521	27.204	
O	-0.0348004886	 0.0526540741	 0.0047423253	-0.290137
C	-0.0190358273	 1.2513222558	 0.0111010745	 0.401653
C	-1.2814510438	 2.1436361992	 0.0327721701	-0.291694
N	-0.7261270129	 3.4739318131	 0.0321175697	-0.010197
C	-1.2473891871	 4.7401794409	 0.0449102303	-0.133456
C	-0.1831514313	 5.6173605036	 0.0347577097	-0.138108
C	 1.0208855077	 4.8539976432	 0.0151605899	-0.316328
C	 0.6514206475	 3.5294773915	 0.0139164849	 0.352569
C	 1.2304383296	 2.153728239	-0.000532503	-0.482821
H	-1.901625004	 1.9357227894	-0.8473248856	 0.148528
H	-1.8775705509	 1.9265480884	 0.9271735143	 0.148515
H	-2.3114950392	 4.9115978693	 0.0599666439	 0.117055
H	-0.258815621	 6.6940371305	 0.0408052752	 0.097311
H	 2.0288606318	 5.2387313274	 0.0035279245	 0.097439
H	 1.8536285758	 1.9121482321	 0.8693102839	 0.149831
H	 1.8310861237	 1.9210230724	-0.8884370277	 0.149841
