13
gdb 62369	2.48225	1.815	1.1995	4.8375	63.5	-0.2717	-0.0401	0.2316	964.9498	0.088703	-452.682927	-452.675605	-452.674661	-452.714707	27.85	
O	 0.1431948668	 1.3868972542	-0.06736708	-0.476192
C	 0.08834909	 0.0034506164	-0.0482868443	 0.383184
C	 1.0288536952	-0.5348378886	-1.0263297486	 0.257419
N	 1.7635113081	-0.990907357	-1.7912650722	-0.318064
C	 0.0306175456	-0.7010849956	 1.3626349566	-0.222574
N	-1.3717573616	-0.0920292014	 1.4451158445	-0.364325
C	-1.3391706668	-0.665219984	 0.0256804781	-0.222574
C	-0.6649838837	-1.8961548541	 0.6725887851	 0.451548
O	-0.7930212051	-3.0726720679	 0.7722082876	-0.302419
H	-0.4995681581	 1.6772617156	 0.5989753463	 0.307243
H	 0.747656615	-0.630804438	 2.1769542844	 0.126948
H	-1.9836392084	-0.6349489006	 2.057460582	 0.25286
H	-2.1682156571	-0.5544609389	-0.6690259496	 0.126948
