18
gdb 34948	3.47885	1.52965	1.32805	4.2526	79.12	-0.2896	0.034	0.3236	987.4751	0.15127	-364.796395	-364.789835	-364.788891	-364.827222	27.232	
N	-0.0443668975	-1.1347620883	-0.0693239477	-0.340062
C	-0.0028475318	 0.0188387835	-0.000228307	 0.262317
C	 0.0484552598	 1.4744869401	 0.0636978445	-0.125227
C	-0.3551388404	 2.0903148075	 1.4330528003	-0.058929
C	 0.6702896714	 1.4382241981	 2.3970254202	-0.251997
C	 1.6798902807	 2.2977508481	 1.6246523025	-0.017136
C	 0.5786170712	 3.3816615782	 1.3938088394	-0.031093
C	 1.1039580913	 3.6090760185	-0.0304439918	-0.252501
C	 1.472779692	 2.1049646856	 0.0572063937	-0.052936
H	-0.5530233609	 1.8645092345	-0.7631892563	 0.117573
H	-1.4186543116	 2.139960431	 1.6601975796	 0.079842
H	 0.5548338818	 1.8086001992	 3.4194333549	 0.104308
H	 0.7573168046	 0.3488250571	 2.4043124742	 0.125225
H	 2.6874522119	 2.5278118637	 1.9668938386	 0.075611
H	 0.3554932763	 4.1751865441	 2.1053111625	 0.077146
H	 0.4284540166	 3.9319268378	-0.8294109323	 0.095463
H	 1.9891185426	 4.2509892381	-0.0156198037	 0.106227
H	 2.221814762	 1.6450984731	-0.5844603016	 0.086169
