18
gdb 103913	3.4672	0.86531	0.77537	1.8586	71.52	-0.2501	0.0181	0.2683	1476.9422	0.144955	-476.185997	-476.176115	-476.17517	-476.221553	35.202	
O	-0.0785768264	 1.3005771191	-0.4968403034	-0.435863
C	 0.0101470482	 0.0420341331	 0.172702572	-0.148488
C	-1.3781164227	-0.5455704118	 0.119543627	 0.399742
O	-2.3477443945	 0.2884408561	 0.6787798755	-0.481475
C	-1.7774285749	-1.4280349608	-1.0534598388	-0.377932
C	-1.5974791004	-1.9991842648	 0.3386748654	 0.043883
O	-0.4616929454	-2.7765274	 0.6350562215	-0.194835
C	-0.5135837123	-4.0700032322	 0.2429728287	 0.132904
N	 0.4579839717	-4.8359684834	 0.48697734	-0.439586
H	 0.680537904	 1.8326364389	-0.2432766036	 0.295447
H	 0.73763212	-0.6244309711	-0.305107839	 0.110553
H	 0.3024727867	 0.1760564755	 1.2234467903	 0.107792
H	-2.1870792628	 1.1583432284	 0.2893574102	 0.291188
H	-2.7911648809	-1.3399289166	-1.4263543611	 0.124817
H	-1.0175265052	-1.6586938825	-1.7920719504	 0.127612
H	-2.4883794577	-2.2730276785	 0.8986001344	 0.120207
H	-1.4460758745	-4.3296733448	-0.274380773	 0.09344
H	 0.2609336872	-5.7692529747	 0.1315254842	 0.230593
