18
gdb 65678	4.14882	1.01376	0.95628	3.4481	74.21	-0.2453	0.0173	0.2626	1266.8717	0.146054	-439.027623	-439.018984	-439.01804	-439.061134	32.053	
C	 0.0137341096	 1.5995857613	 0.0424679972	-0.474076
C	 0.0174401835	 0.0949863827	-0.0493514164	 0.381576
O	-1.022354469	-0.5441137082	 0.6697889446	-0.231759
C	-2.2540238306	-0.5176241898	 0.1094894551	 0.117716
N	-3.2363682494	-0.9962747203	 0.7385933044	-0.439074
C	 0.4622425575	-0.7279200907	-1.2561415183	-0.200899
C	 1.7170510522	-0.1162452499	-1.8644512872	-0.103516
O	 2.3708205239	-0.0665345341	-0.56325798	-0.287438
C	 1.2625556787	-0.7361229239	 0.0333079201	 0.038701
H	 0.973777609	 2.0003216013	-0.2882926962	 0.147867
H	-0.7819084371	 2.0476380899	-0.5621822869	 0.117497
H	-0.138712972	 1.8965096784	 1.0844312575	 0.140226
H	-2.2696999806	-0.0659313216	-0.8903351575	 0.093485
H	-4.0823483525	-0.909065494	 0.1791447629	 0.230314
H	-0.1629344875	-1.490525264	-1.6999547779	 0.112268
H	 2.2523472628	-0.8005435376	-2.5314117784	 0.121318
H	 1.6393025594	 0.8715958175	-2.3321931208	 0.111003
H	 1.4433511423	-1.4868597371	 0.7933120378	 0.12479
