18
gdb 78440	3.994	1.36402	1.29608	3.6069	75.93	-0.2276	-0.0058	0.2218	1025.1792	0.148928	-401.895149	-401.887813	-401.886868	-401.926796	29.334	
C	-0.1022589903	 1.5213047471	 0.0190371894	-0.441044
C	 0.0360677132	 0.0081397178	-0.1074910578	 0.022161
C	 0.4700001446	-0.8333688248	-1.2590746037	-0.060288
C	 1.5278398045	-0.4052266625	-2.2716323121	-0.169513
C	 2.3089989106	 0.7447077027	-1.5698552396	-0.277686
C	 2.5554917799	-0.3166991553	-0.4506110964	-0.112685
N	 1.2534803597	-0.825857202	 0.0507447384	-0.14427
C	 2.6965143462	-1.2754465341	-1.6804132504	 0.454462
O	 3.4139939065	-2.1474838066	-2.0467693389	-0.306906
H	-0.2006584536	 2.0257457643	-0.9457251678	 0.135304
H	-1.0038398691	 1.7465233964	 0.5951728766	 0.123239
H	 0.7406685441	 1.9666044695	 0.5553478231	 0.137568
H	-0.7466868709	-0.4995258649	 0.4542934618	 0.106748
H	-0.0833972596	-1.7404237522	-1.488929159	 0.107429
H	 1.2737153235	-0.3980310994	-3.3285494202	 0.089863
H	 3.2341010509	 0.9828649045	-2.1004789285	 0.122415
H	 1.7837977408	 1.6589239793	-1.3251864985	 0.118146
H	 3.3139834889	-0.2102851296	 0.3204757137	 0.095056
