18
gdb 123414	4.68912	0.89141	0.85711	2.844	77.33	-0.2606	-0.0055	0.2551	1388.5268	0.148714	-401.932559	-401.924602	-401.923657	-401.966437	29.638	
C	-0.1288980617	 1.6186336714	 0.0440921529	-0.345322
C	-0.2400736354	 0.1489052074	-0.3288559925	 0.028806
C	-0.0084935922	-0.9094617011	 0.7171542794	-0.248027
C	-1.3989376778	-0.6693927976	 0.1795828969	-0.274983
C	 1.2891111063	 2.1097184685	 0.0605739464	 0.401309
N	 1.859151044	 2.4363247919	 1.19739182	-0.202938
O	 3.1594707112	 2.8262071195	 0.8781040112	-0.164056
C	 3.3262440436	 2.7207034977	-0.4466824467	 0.08413
C	 2.1900481711	 2.2746337783	-1.0355101319	-0.329835
H	-0.7139192617	 2.224537596	-0.6593933625	 0.113399
H	-0.5549826788	 1.78082848	 1.0390965931	 0.12454
H	 0.1072965518	-0.0868293943	-1.331428435	 0.083455
H	 0.5063360024	-1.8187024473	 0.4277339645	 0.111969
H	 0.2121801692	-0.5762464074	 1.7258060641	 0.125038
H	-2.1171571175	-0.1806219965	 0.8299770794	 0.113452
H	-1.8338706651	-1.4126816214	-0.4794547144	 0.112025
H	 4.2990113886	 2.9995499777	-0.8218777908	 0.14918
H	 2.0107988419	 2.0922937972	-2.0820183941	 0.117857
