16
gdb 2093	4.91506	2.43886	1.7375	2.2593	60.82	-0.2443	0.0284	0.2727	729.9612	0.138772	-325.795649	-325.789053	-325.788109	-325.825979	24.495	
C	-0.0297537849	 1.546262578	 0.006406128	-0.40558
C	 0.0227104596	 0.0180945368	-0.0001676905	-0.019039
C	 0.7288293513	-0.5140642127	-1.2445191818	-0.066392
O	 0.818594375	-1.946175778	-1.2340134554	-0.226935
C	 1.0226703012	-2.5140906585	-0.0200070726	 0.128865
N	 1.0332332507	-1.9843607279	 1.1271577478	-0.272607
C	 0.744145475	-0.55591877	 1.2269835002	-0.1511
H	 0.978780565	 1.9752575925	-0.0137524439	 0.119205
H	-0.5765119646	 1.9340413585	-0.8597210182	 0.11696
H	-0.5288319784	 1.9154556383	 0.9079069091	 0.123517
H	-1.0017515936	-0.3771935364	-0.0081667659	 0.090394
H	 0.195263389	-0.2562098873	-2.1633065296	 0.116206
H	 1.7455748307	-0.1017357908	-1.3119101539	 0.10822
H	 1.1893944785	-3.5831122571	-0.1414252773	 0.121795
H	 1.6888574423	-0.0183181015	 1.3951907728	 0.106779
H	 0.1428211932	-0.3960156939	 2.129528741	 0.109711
