16
gdb 125299	3.20161	1.58351	1.07355	3.358	76.86	-0.2175	-0.0158	0.2017	1075.4544	0.125688	-400.75326	-400.746082	-400.745137	-400.784756	27.824	
C	-0.0216617039	 1.539534648	-0.0016260869	-0.504113
C	-0.0079341772	 0.0447419444	 0.0064595505	 0.192454
C	-0.0274673911	-0.7862426379	-1.0593409405	-0.184354
C	-0.0034128569	-2.256180741	-0.6509729904	-0.425094
C	 0.0325756533	-2.099412466	 0.8333149589	 0.382192
C	 0.0302679217	-0.7927364645	 1.215496056	 0.131023
C	 0.0668341082	-0.8791211337	 2.6295029163	-0.142849
N	 0.0887425797	-2.1316284695	 3.0405026629	-0.144594
O	 0.0662629758	-2.926561535	 1.8704996268	-0.225656
H	 0.8679320915	 1.9461720361	 0.4943558122	 0.133628
H	-0.0518368868	 1.9306003101	-1.0216242674	 0.129548
H	-0.8913423034	 1.930250967	 0.540320422	 0.133603
H	-0.0566688584	-0.4760080881	-2.0960688596	 0.09955
H	-0.8881195428	-2.8029228535	-1.000256292	 0.147022
H	 0.8725297971	-2.7865836528	-1.0447326687	 0.14704
H	 0.0788161833	-0.1024231436	 3.3814334299	 0.1306
