18
gdb 106845	2.77861	1.23023	1.02242	3.1242	78.41	-0.2573	0.0099	0.2672	1221.3905	0.146999	-401.930427	-401.921678	-401.920734	-401.964167	32.298	
C	-0.1808872959	 1.5044648791	-0.0760126173	-0.380659
C	 0.1363344047	 0.0071743524	 0.0527367294	-0.283091
C	 0.7378488511	-0.5431234095	-1.2007971727	 0.441201
C	 0.0183661808	-1.0619889024	-2.3994761865	-0.3683
C	 1.0286390883	-1.9713938944	-1.7008597726	 0.044335
C	 2.4326373183	-1.4320956618	-1.975022301	-0.130186
O	 2.044488872	-0.0957560338	-1.5703915672	-0.316479
C	 0.7036521898	-3.2408640012	-1.1533973132	 0.199341
N	 0.4430110815	-4.2743247733	-0.6997396004	-0.353937
H	 0.7231809654	 2.0723308725	-0.3128577461	 0.141401
H	-0.9123705702	 1.6856890904	-0.8696486403	 0.122919
H	-0.5913892723	 1.8917742489	 0.8603607987	 0.121219
H	 0.8342921268	-0.1584839477	 0.8809251497	 0.120597
H	-0.773651441	-0.5593260828	 0.2795075872	 0.119083
H	-1.0153986931	-1.3510690947	-2.2422376793	 0.141923
H	 0.2545448702	-0.6782533733	-3.3880036519	 0.128688
H	 3.1889984236	-1.8388021206	-1.297185024	 0.131852
H	 2.78827124	-1.4717525577	-3.0101955125	 0.120092
