20
gdb 9383	4.76036	0.8602	0.76321	1.2662	78.72	-0.2516	0.0413	0.2929	1533.7088	0.17335	-348.966476	-348.956277	-348.955333	-349.002579	35.712	
C	-0.0760917489	 1.5058041681	-0.0278777328	-0.383868
C	 0.0839640004	-0.0162333625	-0.0078311752	-0.1815
C	 0.6824275862	-0.5201753244	 1.2986820955	-0.033832
O	 0.7937865365	-1.9291700529	 1.2213936491	-0.258118
C	 1.4316868697	-2.5356999906	 2.3391020798	-0.035934
C	 0.4710027024	-2.7106758067	 3.5270565594	-0.394206
C	 1.9704190972	-3.8260664498	 1.9054561079	 0.3212
C	 2.4120348503	-4.8960786612	 1.5849811206	-0.444344
H	 0.8885112733	 2.0113325169	 0.092713516	 0.116303
H	-0.5096104212	 1.8419069632	-0.9740584911	 0.118453
H	-0.7332229418	 1.8499421326	 0.7785285492	 0.115771
H	-0.8867225799	-0.5031154696	-0.1551632502	 0.108675
H	 0.7261477697	-0.3445285815	-0.832705983	 0.109825
H	 1.6764175464	-0.069255824	 1.4642727598	 0.084968
H	 0.0454832103	-0.2153715676	 2.1450860073	 0.085766
H	 2.2766971092	-1.9019030822	 2.6583390412	 0.093066
H	 0.9832277593	-3.1984670338	 4.3608976272	 0.127184
H	 0.1015667143	-1.740695636	 3.870813752	 0.118094
H	-0.3791912772	-3.3280685321	 3.2270930079	 0.135665
H	 2.8060750839	-5.8368481359	 1.2893519092	 0.196831
