16
gdb 101986	2.31781	1.12293	0.85134	3.9795	74.99	-0.2455	-0.0876	0.1579	1351.8991	0.122349	-434.079831	-434.06982	-434.068876	-434.116169	33.457	
C	-0.3741011425	 1.3520060675	-0.0279499142	-0.313077
N	 0.1110159522	-0.0079737453	 0.0313778161	-0.298947
C	 0.8112626784	-0.4889106644	 1.0800147182	 0.285997
C	 1.2203690396	-1.936737321	 0.8722333351	 0.119236
O	 0.921272696	-2.5478147214	-0.1238615964	-0.254964
N	 1.062349529	 0.2480720352	 2.1069468487	-0.306287
C	 1.8025610254	-0.2839071445	 3.2440818975	-0.302239
C	 3.2238415953	-0.5393438992	 2.959214027	 0.260803
N	 4.3310804455	-0.749021443	 2.7013722012	-0.310074
H	 0.4520864368	 2.0656901379	 0.0636078147	 0.147162
H	-0.8809747655	 1.5059894758	-0.9817698426	 0.130002
H	-1.0747474196	 1.554480176	 0.7897093871	 0.142301
H	-0.0291619047	-0.6478738265	-0.7342829758	 0.269198
H	 1.8094645437	-2.4039354754	 1.6797069982	 0.122344
H	 1.7568706424	 0.4610387465	 4.0456351896	 0.162085
H	 1.370268228	-1.2037632482	 3.6647687758	 0.14646
