11
gdb 132040	2.43944	1.90439	1.06948	6.5011	56.88	-0.2507	-0.0521	0.1986	976.2019	0.064893	-533.816894	-533.809698	-533.808753	-533.848815	26.094	
O	 0.0454312335	 1.3461034335	 0.0075234847	-0.387628
C	-0.0252860449	 0.016729762	 0.0007577659	 0.355463
C	-1.1719411908	-0.6955074941	 0.0031189325	-0.0119
F	-2.3411683002	-0.0666690537	 0.0127800428	-0.042592
C	-1.151398594	-2.1534276676	-0.004760299	 0.324258
O	-2.14111811	-2.8442399048	-0.0030972958	-0.333165
N	 0.1605535165	-2.7223899894	-0.0148938162	-0.294038
C	 1.1745705083	-1.9709522755	-0.0163655562	 0.120071
O	 1.1826685586	-0.6006815891	-0.0090609841	-0.214081
H	 0.9744014986	 1.610838372	 0.0037032528	 0.320743
H	 2.1948614143	-2.3409640632	-0.0238436974	 0.162868
