25
gdb 116190	2.17117	1.30995	1.0354	1.5256	88.26	-0.2355	0.0775	0.3131	1338.2708	0.228069	-389.516193	-389.50584	-389.504896	-389.551462	39.271	
C	-0.0604103045	 1.6910654953	-0.2108109542	-0.38922
C	-0.1848819844	 0.1634048355	-0.231582937	-0.200794
C	 0.808899569	-0.5138739473	-1.1801383422	 0.004006
C	 2.2904274523	-0.4047262264	-0.7848125838	-0.249242
C	 2.9212034573	-1.4966994827	-1.6489908313	-0.076257
O	 1.9381911451	-2.5170188751	-1.7883234888	-0.308757
C	 0.6345358005	-2.0469196068	-1.380582301	 0.384795
C	 0.254370825	-2.7987350468	-0.0967749237	-0.4162
C	-0.3503888489	-2.3762299164	-2.5039649704	-0.421192
H	 0.9244072884	 2.0104156146	 0.14539928	 0.118613
H	-0.2034439676	 2.1137150988	-1.2116809614	 0.114507
H	-0.8106342354	 2.1377650786	 0.4489797637	 0.112368
H	-0.0497230693	-0.2252861095	 0.78475263	 0.098943
H	-1.2070075677	-0.1057211546	-0.5284963566	 0.096685
H	 0.6956088823	-0.0510963735	-2.171295496	 0.067122
H	 2.7201558166	 0.5815982343	-0.9761930425	 0.100135
H	 2.4201260091	-0.6250565836	 0.2815207796	 0.100942
H	 3.193859394	-1.1004681717	-2.6398376324	 0.087107
H	 3.8235963414	-1.9339517254	-1.206691733	 0.098406
H	 0.9244982316	-2.544859698	 0.7298892159	 0.109285
H	-0.7726119148	-2.5806749263	 0.2121553435	 0.108922
H	 0.3380848499	-3.8744721112	-0.2750650147	 0.119541
H	-0.4101574332	-3.4577813736	-2.6580954001	 0.118288
H	-1.3553520772	-2.0107312266	-2.2664054923	 0.108848
H	-0.0263233896	-1.9159699116	-3.4418331614	 0.113149
