27
gdb 100757	2.72265	0.88744	0.78003	1.3915	92.55	-0.2624	0.068	0.3304	1661.7433	0.249649	-390.702819	-390.69089	-390.689945	-390.739586	44.489	
C	 0.7869916915	 1.7305791451	 0.3719900135	-0.388797
C	 0.7669804191	 0.1985496981	 0.4121995517	-0.17234
C	 1.1125639182	-0.4859582274	-0.9295226043	 0.064626
C	 2.6111813215	-0.3320085513	-1.2331873297	-0.417018
C	 0.6228393791	-1.9658962054	-0.9248467539	 0.027171
C	-0.9065888537	-2.0339100854	-1.0855048566	-0.407312
C	 1.3251597345	-2.8414781107	-1.9812204514	 0.123246
C	 0.9083740753	-4.3139068482	-1.9493064529	-0.420742
O	 1.0544460907	-2.2588361361	-3.2585038134	-0.436206
H	 1.7717973473	 2.1255109519	 0.104085187	 0.116512
H	 0.0675538136	 2.1127818723	-0.360938625	 0.113697
H	 0.5215501425	 2.1513959387	 1.3472739999	 0.108308
H	 1.4707941795	-0.1582219758	 1.1776212313	 0.087174
H	-0.2250503125	-0.1213186536	 0.7490400613	 0.091801
H	 0.5618095377	 0.030013678	-1.7276611596	 0.076495
H	 3.2224555974	-0.9040649469	-0.5240047308	 0.103553
H	 2.8487216569	-0.665977453	-2.2452673171	 0.125536
H	 2.9177702874	 0.7150207688	-1.1541722531	 0.105481
H	 0.8972321329	-2.3979900071	 0.0490042037	 0.060741
H	-1.2993305249	-3.0263912922	-0.8467849155	 0.107022
H	-1.4147681967	-1.3230736275	-0.4292880572	 0.109862
H	-1.183150679	-1.7985527235	-2.1171613601	 0.132521
H	 2.406580689	-2.8033604948	-1.7838753303	 0.063953
H	 1.0719536686	-4.7475875948	-0.9570322825	 0.115606
H	-0.1439763323	-4.4397185	-2.2162131146	 0.127674
H	 1.507896971	-4.8931479621	-2.6620213045	 0.101458
H	 1.4434328356	-2.8248438372	-3.9322335758	 0.279977
