11
gdb 129350	7.28902	0.89799	0.80112	3.7065	56.39	-0.2875	-0.0423	0.2452	1285.9873	0.064848	-525.820888	-525.813506	-525.812562	-525.854088	25.187	
N	-0.2374816857	 1.2918482743	 0.1355822662	-0.394139
C	-0.0484201776	 0.0704366748	-0.046117309	 0.120621
O	-1.1622216445	-0.7604573408	 0.0592089308	-0.204612
C	-0.9574072766	-2.0656254929	 0.0608732504	 0.554371
N	 0.1533652125	-2.7012491564	 0.1696474839	-0.241623
O	-0.254167862	-4.0685351555	 0.0978877415	-0.229665
C	-1.5994137611	-4.133742643	-0.0324300442	 0.527374
O	-2.2765960849	-5.0982798722	-0.1116760172	-0.339588
O	-2.0622085797	-2.8147345551	-0.0595861992	-0.220741
H	 0.6294287094	 1.8113797056	 0.0096212866	 0.258673
H	 0.86267782	-0.4742838288	-0.2958278399	 0.169327
