18
gdb 118792	4.81983	0.7546	0.71531	3.0977	73.83	-0.2767	-0.004	0.2727	1557.4005	0.145068	-439.073672	-439.063745	-439.062801	-439.109039	35.025	
C	-0.0929641485	 1.7193793365	 0.2555536047	-0.471291
C	-0.1742792166	 0.2131131252	 0.1484274163	 0.384018
C	-1.4363751273	-0.377718596	-0.4536235385	-0.275211
C	-1.6469702455	 0.0139353385	-1.9241197767	-0.065739
O	-2.8161218813	-0.5734492919	-2.4657596167	-0.413531
O	 1.0390257017	-0.4351413476	-0.272290636	-0.268454
C	 0.611932356	-0.6439582474	 1.0743357955	-0.16567
C	 1.4433468376	-0.0819215789	 2.117103718	 0.307093
N	 2.0903987702	 0.3538376465	 2.9701594104	-0.329822
H	 0.8175523062	 2.0297130693	 0.77092864	 0.15524
H	-0.0918277321	 2.171287417	-0.740586806	 0.141401
H	-0.9558486126	 2.1103667914	 0.8036310134	 0.135431
H	-1.3811518083	-1.4710113439	-0.3882338159	 0.098145
H	-2.308526385	-0.0602463518	 0.1291517289	 0.120614
H	-1.7933448468	 1.094479423	-2.0151973074	 0.119048
H	-0.7505400204	-0.2468765711	-2.5058905927	 0.110148
H	-2.6689976037	-1.522189028	-2.5342949771	 0.285208
H	 0.2494187365	-1.6464165407	 1.2965982097	 0.13337
