18
gdb 35432	3.27465	1.39661	1.33722	4.1885	74.66	-0.2675	0.0208	0.2883	1020.9191	0.150316	-401.94553	-401.938285	-401.93734	-401.977204	28.803	
N	 0.7809468843	-0.7858610331	 0.9097393405	-0.337306
C	 0.3640687034	 0.192122771	 0.4559842908	 0.287862
C	-0.1903662137	 1.4293187775	-0.1400155574	-0.026691
C	-1.0975311947	 2.1832106116	 0.8805515517	-0.251957
C	-0.3160244123	 3.3390111621	 1.5228774871	-0.01871
C	 0.1568652134	 4.2986701045	 0.3925590855	-0.228521
C	 1.3065765341	 3.2833471946	 0.1829419723	 0.131516
C	 1.1790226475	 2.9310834604	 1.6886467661	-0.26989
O	 0.8643519316	 2.2220524198	-0.6698326626	-0.272173
H	-0.7875158386	 1.11038326	-1.0007432026	 0.135619
H	-1.9772760212	 2.5757644014	 0.3604983021	 0.115274
H	-1.4522736328	 1.4735211695	 1.6334029563	 0.129946
H	-0.8502482923	 3.7555423091	 2.3787398165	 0.073336
H	-0.5091196148	 4.4745701214	-0.4563119637	 0.09835
H	 0.5210573525	 5.2510134812	 0.7861053477	 0.104874
H	 2.2628802276	 3.6081729849	-0.2280470376	 0.086759
H	 1.7261462583	 3.654926934	 2.2967925162	 0.109874
H	 1.4300250277	 1.9209864499	 2.0166751111	 0.131839
