19
gdb 6775	7.4246	0.72154	0.67233	4.0499	70.05	-0.245	0.0286	0.2737	1676.3849	0.162959	-402.223806	-402.213673	-402.212729	-402.260531	34.252	
C	-0.0056715325	 1.4940672145	 0.0495196044	-0.383881
C	 0.0977149138	-0.0319815864	-0.0029560207	-0.182333
C	 0.7034705695	-0.5281046091	-1.3081209914	-0.028329
O	 0.7573699877	-1.9398888529	-1.2726987617	-0.221709
C	 1.2848709717	-2.5005137758	-2.4351164752	-0.155898
C	 1.1762276981	-4.0281991609	-2.3529834987	 0.370761
N	 2.0071510066	-4.6778618536	-3.2280575154	-0.524036
O	 0.3903757983	-4.6035595312	-1.6363624209	-0.328261
H	 0.978937968	 1.9659413363	-0.0434273612	 0.114606
H	-0.6356278598	 1.8806854219	-0.7593499047	 0.11601
H	-0.4428105608	 1.8247901271	 0.9958681693	 0.119044
H	 0.7106532541	-0.401906497	 0.8266394663	 0.109842
H	-0.8920292099	-0.4870652929	 0.1136319085	 0.114759
H	 0.097130443	-0.1916157964	-2.1677446745	 0.083926
H	 1.7155556135	-0.1074578714	-1.4469289372	 0.08037
H	 0.7297716638	-2.1720350732	-3.3327341432	 0.112068
H	 2.3375297367	-2.2001391551	-2.5891228161	 0.085337
H	 2.7907142972	-4.2144011504	-3.6551619644	 0.255689
H	 2.0215222711	-5.6843650736	-3.1878881733	 0.262033
