18
gdb 31621	2.5125	1.34616	0.88646	2.2535	76.56	-0.1677	0.063	0.2308	1286.0815	0.146384	-439.09974	-439.089942	-439.088998	-439.134859	34.64	
C	-0.0523561259	 0.4510242038	-0.8579879474	-0.243285
O	 0.2957969873	 0.8152670123	 0.4652186218	-0.265561
C	 0.9139106573	-0.1512525547	 1.1820247404	 0.441433
C	 1.2495828021	-1.4586852782	 0.8905688792	-0.472671
C	 1.8787221152	-1.9654554601	 2.0694449248	 0.32301
O	 2.3901984413	-3.2191006184	 2.2559557314	-0.450957
C	 1.9031617519	-0.975023287	 3.0142943082	-0.20366
N	 1.3078371717	 0.1536066886	 2.4497887271	-0.083222
C	 1.0643303423	 1.4035859343	 3.1344827856	-0.344073
H	-0.7533744038	-0.3934783413	-0.8632994303	 0.125776
H	-0.5295092055	 1.3240442493	-1.3055089872	 0.134216
H	 0.8372131642	 0.1786225763	-1.4402261639	 0.125595
H	 1.083424203	-1.981769715	-0.0373067456	 0.089146
H	 2.2482865747	-3.7247271157	 1.4513069996	 0.293094
H	 2.289820254	-0.9600339608	 4.0182947247	 0.111393
H	 1.957095585	 1.7026271091	 3.6914686465	 0.134435
H	 0.8336512103	 2.1738613722	 2.398435938	 0.153512
H	 0.2245570548	 1.3258719653	 3.835840407	 0.13182
