23
gdb 91416	2.46678	1.60305	1.25233	1.3698	84.16	-0.2526	0.0723	0.325	1115.5553	0.208482	-388.288849	-388.280489	-388.279545	-388.321192	34.263	
C	-0.357506751	 1.4874488714	 0.0375086134	-0.389735
C	 0.0055240653	-0.0033162285	 0.0222508539	 0.010527
C	 0.6856706177	-0.4310514388	-1.2976395363	-0.012628
C	 1.4935978167	-1.7521782616	-1.1127206799	-0.242591
C	 2.6446159907	-0.8461565328	-0.5758909189	-0.005642
C	 2.0631209112	 0.2682342203	-1.4832957622	-0.213654
C	 2.3989953748	-0.4584571518	 0.8923132139	-0.245313
C	 0.8876917324	-0.4486740898	 1.2221149258	 0.125968
O	 0.5854323808	 0.3692495564	 2.3466629365	-0.44324
H	 0.525679407	 2.1321617503	 0.0281593037	 0.114691
H	-0.9623296696	 1.7354885836	-0.8417476874	 0.099894
H	-0.9304753522	 1.7349376536	 0.9326998319	 0.129217
H	-0.9368895234	-0.5617616816	 0.1007589584	 0.068777
H	-0.0234748463	-0.3770992393	-2.1281950996	 0.056798
H	 1.0863913885	-2.5392282466	-0.4719298236	 0.088845
H	 1.7599356867	-2.1881910144	-2.0793561641	 0.093293
H	 3.6760613784	-1.1650147917	-0.745537456	 0.056284
H	 2.414588313	 0.1761335027	-2.5149134128	 0.090247
H	 2.1808498298	 1.3049755	-1.1578149997	 0.090081
H	 2.9065854559	-1.155265203	 1.572254047	 0.080487
H	 2.8169861436	 0.5368698957	 1.0868164861	 0.101338
H	 0.6031812175	-1.4853108632	 1.4539228023	 0.068267
H	 1.1076811426	 0.0506448694	 3.0896122876	 0.278087
