19
gdb 32468	4.78994	0.88723	0.78901	3.6098	82.09	-0.1826	0.035	0.2175	1503.2528	0.158287	-419.234471	-419.224585	-419.223641	-419.270441	34.59	
C	-0.1958785062	 1.5523597597	-0.0696130153	-0.370915
C	 0.0693050829	 0.0380822838	 0.0008320929	-0.305824
C	 0.8031715174	-0.495753887	-1.1820782935	 0.317232
C	 2.0184418751	-1.0480935161	-1.2919915824	-0.150077
O	 2.282103286	-1.3806888532	-2.6131031651	-0.223781
C	 1.1737967091	-1.0364087858	-3.3658760259	 0.514415
N	 0.2827280645	-0.4613847165	-2.4793216381	-0.427438
N	 1.0052549419	-1.210742308	-4.6048917627	-0.389189
C	 2.0780906909	-1.8430000921	-5.3531725451	-0.316161
H	 0.7438687853	 2.1083878545	-0.1319506783	 0.130583
H	-0.7955166358	 1.8144485427	-0.9468400201	 0.12028
H	-0.7379964757	 1.8890109342	 0.8186710381	 0.121385
H	 0.6545707669	-0.1957974675	 0.8956856419	 0.121299
H	-0.8860085108	-0.4934854367	 0.110040814	 0.115067
H	 2.7919109901	-1.2581913834	-0.5748354221	 0.142684
H	-0.6523367993	-0.2173815987	-2.7510005904	 0.268095
H	 1.7166334178	-2.085238944	-6.3563009193	 0.112344
H	 2.9494780719	-1.1815327703	-5.4655807133	 0.110459
H	 2.4373379579	-2.7714089258	-4.8865877253	 0.109542
