19
gdb 58706	1.94143	1.77651	1.14839	1.2501	77.16	-0.2564	0.0186	0.2751	1131.736	0.15676	-422.973912	-422.964406	-422.963462	-423.008045	35.705	
C	-0.0217672366	 1.5546974198	 0.1842393911	-0.413709
C	-0.0481722672	 0.0329403953	 0.0364620967	 0.068394
O	 0.6046213417	-0.6013198121	 1.1232918498	-0.441132
C	-1.4868037015	-0.5214612222	-0.0759518808	 0.206721
C	-1.621236707	-2.0708834037	 0.0010187889	-0.328452
C	-2.4251505673	-1.8050426223	 1.284082455	-0.074889
O	-2.1468211764	-0.3841846727	 1.2241746159	-0.330863
C	-2.2461342152	 0.0972616382	-1.1543627452	 0.302637
C	-2.8633078295	 0.5850699623	-2.0638848396	-0.42435
H	 1.0072413772	 1.8860937695	 0.3432770029	 0.122237
H	-0.4221488636	 2.048525516	-0.704357406	 0.130207
H	-0.624371189	 1.8619044317	 1.0457493277	 0.127945
H	 0.4999127391	-0.2706027288	-0.8631490336	 0.097418
H	 0.055562904	-0.4136584889	 1.8961881519	 0.28499
H	-2.1595447406	-2.5355441678	-0.8236184877	 0.118814
H	-0.6628558074	-2.5614020703	 0.1659103739	 0.134372
H	-3.5006344577	-2.0018665692	 1.2081580222	 0.112583
H	-2.0401984994	-2.2532949623	 2.2058734337	 0.108751
H	-3.4117650833	 1.0226205475	-2.8615484169	 0.198327
