15
gdb 125075	3.10459	1.37681	0.97676	1.7565	70.52	-0.2306	-0.0066	0.224	1133.5117	0.114223	-450.157941	-450.149779	-450.148835	-450.191806	28.982	
C	-0.9497441927	 1.0183093278	-0.5003546173	-0.531808
C	-0.1833940452	-0.2315930714	-0.2256664569	 0.256372
C	 0.4639896627	-1.1914898371	-0.9836504207	 0.313781
N	 0.6383383485	-1.379718063	-2.359158493	-0.388548
C	-0.1380570732	-0.9431880631	-3.3905837638	 0.142709
O	-1.1066323211	-0.2188380532	-3.3063382193	-0.310237
N	 1.068823152	-2.0943670137	-0.1618018758	-0.26264
N	 0.8362471694	-1.7666535424	 1.0758917804	-0.119007
N	 0.0850218211	-0.6587429256	 1.0404777114	-0.205747
H	-0.304336572	 1.9022130728	-0.4307312461	 0.138889
H	-1.3690999759	 0.9761593673	-1.5045862141	 0.200387
H	-1.7630406444	 1.1435991828	 0.2223445037	 0.126278
H	 1.3519161757	-2.0618416207	-2.5755185727	 0.268183
H	 0.2377115125	-1.3323122424	-4.3554902189	 0.089806
H	-0.2185566975	-0.2407908382	 1.9063524131	 0.281581
