18
gdb 98320	4.23581	0.7457	0.70859	1.6268	73.25	-0.281	-0.0452	0.2358	1579.8442	0.145007	-439.119143	-439.108986	-439.108042	-439.155391	35.207	
C	-0.0465307123	 1.5406848874	 0.0910067386	-0.406945
C	-0.0133518467	-0.001370052	 0.0464303146	-0.096734
C	 0.6898072222	-0.5286233495	-1.2256649434	-0.341021
C	 0.0261101385	-0.0913840299	-2.4501005339	 0.261009
N	-0.5162769926	 0.262564667	-3.4072550097	-0.308652
C	 0.7197012422	-0.5182523562	 1.2765449949	 0.356952
O	 1.9198040002	-0.6974728068	 1.2904882615	-0.332102
C	-0.0917681127	-0.8043977361	 2.5298910719	-0.134391
O	 0.7250239557	-1.1404371683	 3.6076660665	-0.415438
H	 0.9698561816	 1.9462165198	 0.0933406131	 0.142687
H	-0.57432825	 1.9301104584	-0.7831635805	 0.158318
H	-0.5604354507	 1.9002690696	 0.9864471014	 0.132949
H	-1.0444463194	-0.3729012214	 0.0699528902	 0.109468
H	 1.7300165956	-0.1890033107	-1.2301999502	 0.174463
H	 0.7209030201	-1.6233508785	-1.2161656301	 0.158521
H	-0.7160493118	 0.0728187329	 2.7629178231	 0.123626
H	-0.7961014988	-1.6187060621	 2.2788739453	 0.1203
H	 1.6224909089	-1.1937958735	 3.2425118965	 0.296989
