17
gdb 55589	2.51042	1.0886	0.82204	3.5766	73.72	-0.2514	-0.034	0.2174	1383.8324	0.133746	-455.196533	-455.186561	-455.185617	-455.233501	33.696	
C	 0.1696374297	 1.0168581582	-0.6237825792	-0.492206
C	-0.6585530352	-0.2493802732	-0.4928552321	 0.411788
O	-1.4487182312	-0.6122677242	-1.3416406586	-0.354493
N	-0.4179891501	-0.9400708324	 0.6799841687	-0.329686
C	-1.0264688468	-2.0900514627	 1.2045052592	 0.340469
N	-0.615709608	-2.4459357985	 2.3565590338	-0.497275
C	-2.0792400269	-2.8047148576	 0.3806570443	-0.352823
C	-1.4737791114	-3.6513236033	-0.7371870173	 0.160572
O	-1.6365611842	-4.839894237	-0.8218082184	-0.232137
H	 1.2389614235	 0.7975316245	-0.5392406121	 0.147578
H	-0.0332419117	 1.4671122017	-1.59438584	 0.159483
H	-0.0878371108	 1.7291220428	 0.1671574313	 0.150703
H	 0.2643376323	-0.5567087085	 1.3204687285	 0.261496
H	-1.0938898872	-3.2890925208	 2.6678620698	 0.232495
H	-2.647097545	-3.4685722777	 1.0350411419	 0.122999
H	-2.7427528409	-2.0754810575	-0.0919934388	 0.164853
H	-0.8808281961	-3.0848741537	-1.4809446711	 0.106185
