20
gdb 17795	5.31936	1.186	1.04154	1.9168	74.68	-0.2414	0.0814	0.3228	1161.0256	0.178305	-348.969708	-348.961802	-348.960858	-349.003389	28.844	
C	-0.0517077628	 1.5721040679	-0.0119398601	-0.207588
C	 1.4995073228	 1.530901009	 0.030422228	-0.236007
C	 1.4072845852	 0.0702469373	 0.5634923736	 0.049969
C	-0.0549089463	 0.0203085244	 0.0290088929	-0.236018
C	 2.4065739169	-0.9575260582	 0.0777255889	-0.045834
C	 3.8167307309	-0.9223098872	 0.7155648477	-0.084348
O	 3.6378475393	-2.2251883591	 1.3062193568	-0.272322
C	 2.3308580895	-2.3665758957	 0.7144868984	-0.084356
H	-0.4697186126	 2.0013866373	 0.9031110998	 0.103465
H	-0.5236841602	 2.0585753953	-0.8684903483	 0.097183
H	 1.9291576487	 1.5564998096	-0.9768922443	 0.097443
H	 2.0178901914	 2.2696137725	 0.6465748955	 0.096999
H	 1.3983784853	 0.0783873089	 1.6608441517	 0.071947
H	-0.8087193666	-0.4773004733	 0.6440025411	 0.096998
H	-0.0918370608	-0.4075203947	-0.9787291905	 0.097443
H	 2.4232367856	-0.9738579151	-1.0165293235	 0.0693
H	 4.6594801574	-0.903010892	 0.0128237492	 0.096177
H	 3.9724451959	-0.1440169216	 1.4746972498	 0.096687
H	 1.5478903804	-2.5006864782	 1.472936532	 0.096685
H	 2.28816398	-3.2079243971	 0.0110987714	 0.096177
