23
gdb 83868	1.99885	1.79525	1.2998	1.1776	85.05	-0.2409	0.0773	0.3182	1129.0826	0.207382	-388.293205	-388.284406	-388.283462	-388.326029	34.945	
C	-0.2349646157	 1.5390914692	-0.1597257722	-0.422438
C	-0.0195870539	 0.0441848001	-0.0439726256	-0.009644
C	 1.3103034634	-0.6214614309	-0.350830837	-0.070946
C	 2.5560129903	 0.2139989908	-0.6422070791	-0.230911
C	 3.2778665439	 0.615701656	 0.6480313625	-0.068833
O	 2.3756567806	 1.1342783432	 1.6111569533	-0.254448
C	 1.5223737634	 0.1253830646	 2.1467911664	 0.116324
C	 0.6258059079	 0.7888432478	 3.1855442136	-0.403592
C	 0.7598574639	-0.626145547	 1.0646268872	-0.056416
H	 0.607332929	 2.1064435482	 0.2383839122	 0.140739
H	-0.3831599048	 1.8288664762	-1.2070219081	 0.107339
H	-1.1318821038	 1.8434676568	 0.3910283022	 0.112037
H	-0.8799853735	-0.5328012591	-0.3765080103	 0.077284
H	 1.2524526124	-1.5585854884	-0.8954781853	 0.079471
H	 3.2460881615	-0.3577689158	-1.2718003696	 0.095901
H	 2.2953165145	 1.1163455248	-1.2069876335	 0.105845
H	 3.8099736664	-0.2535244496	 1.0701505252	 0.084576
H	 4.0150047172	 1.4023963668	 0.4608703597	 0.100696
H	 2.1621896538	-0.6167654464	 2.6595323922	 0.061826
H	-0.0229385323	 1.5359974371	 2.7219939664	 0.127036
H	-0.0050565496	 0.0397983348	 3.673874753	 0.111411
H	 1.2337750544	 1.2830913549	 3.9485978862	 0.119097
H	 0.354699831	-1.5683530938	 1.4253293606	 0.077647
