17
gdb 64722	4.06111	1.0906	1.03935	2.8932	73.28	-0.2531	0.036	0.2891	1173.4555	0.13324	-421.745082	-421.736552	-421.735607	-421.778167	32.805	
O	-0.066240533	 1.4338731195	-0.0591711912	-0.477116
C	-0.0038679461	 0.0389201355	 0.0223873032	 0.392726
C	 0.9099985235	-0.5453203366	-1.0781998951	-0.411369
C	 2.2645988529	-0.0167527555	-0.9731958517	 0.264274
C	 3.3551200379	 0.4736510097	-0.8416492929	-0.41902
C	 0.2603549749	-0.6216327621	 1.4384995016	-0.325021
C	-1.1013114627	-1.3097987434	 1.2965924477	 0.035278
O	-2.0751388512	-0.266737437	 1.2042061937	-0.241997
C	-1.3833842048	-0.6380179741	 0.0147736658	-0.011094
H	 0.8406218288	 1.7656785201	-0.0815516498	 0.284599
H	 0.9209282774	-1.6398960938	-1.0181857444	 0.133128
H	 0.4865010779	-0.2801306123	-2.055217525	 0.139506
H	 4.331347917	 0.8811820758	-0.7464153319	 0.20328
H	 1.1234763669	-1.2907202411	 1.4493688909	 0.109362
H	 0.3155808376	 0.0833489971	 2.269617685	 0.117418
H	-1.4314809056	-2.2743952033	 1.6625201931	 0.1059
H	-1.9792727314	-0.9340881587	-0.8423590689	 0.100144
