16
gdb 25671	5.84665	0.8197	0.72214	3.1108	92.88	-0.2432	-0.0426	0.2006	1532.2834	0.125867	-363.655094	-363.646862	-363.645918	-363.689847	29.304	
C	-0.0175644188	 1.4840690682	 0.0104207122	-0.508036
C	 0.0032844325	 0.030322316	 0.0026456385	 0.229336
C	 0.01914593	-1.1762038381	-0.0037983015	-0.13177
C	 0.0379422161	-2.5989340121	-0.0116775278	 0.174141
C	 1.2440436029	-3.3150662391	-0.0223173796	-0.209714
C	 1.2033450212	-4.7035703319	-0.0296289143	 0.015787
N	 0.0750519947	-5.4204408093	-0.0272079256	-0.269785
C	-1.0716931201	-4.7335734065	-0.0170498212	 0.015747
C	-1.1488962574	-3.346605137	-0.0090806104	-0.209685
H	 0.9969093484	 1.8965669285	 0.0029699923	 0.154685
H	-0.5446342808	 1.8761888482	-0.8665463118	 0.15586
H	-0.5278485245	 1.8669319874	 0.901300981	 0.155869
H	 2.191635792	-2.7896176541	-0.0247635231	 0.104729
H	 2.130756966	-5.2717369988	-0.0379107947	 0.109043
H	-1.983837107	-5.3259968905	-0.0151454241	 0.109033
H	-2.1099400153	-2.8462451008	-0.0009649902	 0.104761
