19
gdb 60981	3.27458	0.93568	0.85898	3.4102	73.57	-0.2545	-0.0363	0.2182	1390.0228	0.155539	-460.152612	-460.142704	-460.14176	-460.18766	36.404	
C	-0.0412297655	 1.5592974634	-0.217418744	-0.447395
C	-0.0015759101	 0.0595648815	-0.0367232113	 0.399929
O	-1.1517131663	-0.5999275867	-0.5022942907	-0.464716
C	 1.298330895	-0.7077469368	-0.1250146524	-0.367962
C	 0.556278017	-0.5860126685	 1.1986067269	-0.055521
C	 1.1253026014	 0.2262622854	 2.3476396459	 0.027176
O	 0.1169820966	 0.8105383404	 3.1259064672	-0.435062
C	 2.0093047846	-0.6571286942	 3.2098173992	 0.139301
O	 1.8188857088	-0.7833817676	 4.3953677854	-0.26267
H	 0.8608338472	 2.0442264635	 0.1639613498	 0.118112
H	-0.121537264	 1.8116449764	-1.2819471906	 0.105401
H	-0.9059452463	 1.9798610587	 0.3033561519	 0.144584
H	-1.1903804678	-0.4832266478	-1.4584082015	 0.280691
H	 1.280536378	-1.6720113524	-0.61949617	 0.117514
H	 2.2200553421	-0.1467094633	-0.2488549351	 0.109008
H	 0.0010040679	-1.4661221448	 1.5103874881	 0.108823
H	 1.7926234826	 1.0041527992	 1.9320553666	 0.086105
H	 0.2752949985	 0.5036794054	 4.0330409289	 0.293747
H	 2.8332605001	-1.1837783618	 2.6884446256	 0.102937
