18
gdb 78981	3.00726	1.76559	1.46057	0.234	73.17	-0.2328	0.0648	0.2976	944.0539	0.148537	-401.868267	-401.861057	-401.860112	-401.899478	29.388	
C	-0.1772211318	 1.5335269567	 0.0457150721	-0.529944
C	-0.0092845091	 0.0503077853	 0.0066331433	 0.405667
C	 0.752682628	-0.8070615255	-1.0676038407	-0.181191
C	-0.3780152492	-1.8146490623	-0.7927661307	-0.066564
C	-0.3808930831	-1.8545101545	 0.7042624806	-0.066583
C	 0.7486422183	-0.8631159403	 1.036623817	-0.181173
C	 1.8592297112	-1.1008378236	-0.0204467515	 0.158905
O	 2.5734959206	-2.3046036533	-0.0511752425	-0.446129
N	-1.2487080224	-0.8699301798	-0.0202577917	-0.200472
H	 0.7944208768	 2.0392272792	 0.0565137632	 0.124412
H	-0.7355600215	 1.881077628	-0.8302082673	 0.131582
H	-0.7314681193	 1.8353700559	 0.9409597233	 0.131474
H	 0.9605463158	-0.4915726618	-2.0878436392	 0.073869
H	-0.8000489968	-2.5776887961	-1.4354445886	 0.097523
H	-0.8053126491	-2.6506105089	 1.3038197288	 0.097525
H	 0.9525777916	-0.6023300627	 2.0729795813	 0.07386
H	 2.5996190611	-0.2946028539	 0.0024629574	 0.092676
H	 1.928889689	-3.0214731424	-0.0714009449	 0.284561
