25
gdb 58216	1.93755	1.19847	0.93828	2.5195	89.04	-0.2452	-0.0224	0.2228	1441.5746	0.22563	-389.512398	-389.500833	-389.499889	-389.549304	42.072	
C	 0.3470685549	 1.6651383901	 0.5150916972	-0.402265
C	 0.030654272	 0.1648993716	 0.3938857518	 0.048393
C	 0.4214283631	-0.547913599	 1.6996574137	-0.412319
C	-1.4522071345	-0.0717230318	-0.0105999322	 0.0232
C	-1.7782231933	 0.5631104798	-1.3747991512	-0.416206
C	-1.8689093407	-1.5772475691	 0.0610800141	-0.073138
C	-3.3650549372	-1.8022665634	-0.2173573802	-0.427033
C	-1.0400687729	-2.4279334717	-0.8821640064	 0.170527
O	-0.1236979252	-3.1376473546	-0.5486528856	-0.257696
H	 1.3889063211	 1.810929323	 0.8172195084	 0.113192
H	 0.2023330629	 2.2060309691	-0.4232464224	 0.113456
H	-0.2852664093	 2.1379405075	 1.2768608833	 0.110095
H	 0.6627594464	-0.245335105	-0.4068772302	 0.080043
H	-0.2608687246	-0.2818179099	 2.5168966439	 0.104685
H	 0.4240944351	-1.6340141141	 1.5887988098	 0.141293
H	 1.4286820023	-0.2470146063	 2.0050337688	 0.107533
H	-2.0758444747	 0.4285812497	 0.7458386517	 0.07358
H	-1.6558855177	 1.6477766629	-1.3443785324	 0.123298
H	-1.1219722302	 0.1822463596	-2.1654557964	 0.1173
H	-2.8108646829	 0.3693391791	-1.6756669271	 0.115604
H	-1.6489398659	-1.9345710116	 1.0697174777	 0.099561
H	-3.6183053887	-1.6481925077	-1.2708076692	 0.125021
H	-3.6577036916	-2.8238600018	 0.0441999017	 0.12526
H	-3.9757317079	-1.1155784549	 0.3773336557	 0.123213
H	-1.3388151607	-2.3635578814	-1.9553645945	 0.073403
