21
gdb 90025	2.65791	1.38448	1.09951	0.6969	78.15	-0.2445	0.0643	0.3087	1184.2747	0.181911	-424.199984	-424.191063	-424.190119	-424.233495	34.478	
C	 0.8095082882	 1.3570176913	 0.1945502104	-0.402878
C	-0.0134256491	 0.0967441635	-0.0595469623	 0.03079
C	 0.6560819569	-0.9121402707	-1.0413643356	-0.312264
C	 1.1102114841	-1.7474028252	 0.1813210705	 0.42464
C	 0.0977772092	-0.988143432	 1.0560102283	-0.312814
O	 1.0384760833	-3.1840206224	 0.1062817977	-0.315107
C	 2.4702042681	-3.3248744726	 0.1890806654	-0.122561
C	 2.6179506508	-1.8326580426	 0.5489603399	 0.015098
O	 3.5590275522	-1.0352362475	-0.1144736864	-0.41724
H	 1.858216698	 1.112079038	 0.3961322195	 0.13388
H	 0.7881319465	 2.020398454	-0.6773033926	 0.111299
H	 0.4196369469	 1.9178080556	 1.0510117783	 0.111765
H	-1.0390552183	 0.3685495135	-0.321742447	 0.070149
H	-0.0695002438	-1.4791700637	-1.6304741393	 0.112198
H	 1.4252614354	-0.5142859166	-1.7117986929	 0.079779
H	 0.4373736217	-0.6680845677	 2.0462091091	 0.094402
H	-0.8223603445	-1.5688420923	 1.1661958893	 0.111515
H	 2.7752680058	-4.0647252079	 0.9368179946	 0.109067
H	 2.9210190885	-3.5875245171	-0.7799006876	 0.089473
H	 2.7855011952	-1.6679911193	 1.6163850591	 0.103779
H	 3.449807705	-1.1632650984	-1.0633299182	 0.28503
