20
gdb 96050	2.7017	1.19719	0.95488	2.6937	76.56	-0.2453	0.0303	0.2757	1276.6112	0.171642	-440.322182	-440.312953	-440.312009	-440.35741	33.295	
C	-0.2100747539	 1.4407967418	 0.2409319025	-0.406219
C	 0.0764747581	-0.0437583496	 0.131316866	 0.118831
O	 0.8830514662	-0.2951908994	-1.019328575	-0.269507
C	 1.3089330046	-1.6534558217	-0.9345104005	-0.077477
C	 1.3518692596	-2.0078211217	 0.5776025706	-0.264822
C	 0.8868413812	-0.7033963194	 1.2678298665	 0.02065
N	 2.0084265391	 0.1255134163	 1.6795890737	-0.271925
C	 2.1910514124	 0.5587683259	 2.9557087975	 0.151436
O	 1.4779431173	 0.2880048264	 3.8990625988	-0.325931
H	 0.7149144427	 2.0153453879	 0.3304897958	 0.115192
H	-0.7462815158	 1.7859794308	-0.6467513253	 0.128754
H	-0.8276374198	 1.6423216057	 1.121007435	 0.130109
H	-0.8773228646	-0.5940427439	 0.0412321101	 0.068036
H	 0.605065627	-2.3060470843	-1.4708135969	 0.09813
H	 2.2819251586	-1.728623342	-1.4281798238	 0.108939
H	 0.6657033168	-2.8264222281	 0.8081975643	 0.116063
H	 2.3458434867	-2.3021180896	 0.9191714174	 0.114847
H	 0.2960124179	-0.8831824037	 2.1658143166	 0.120012
H	 2.6423830801	 0.4498036533	 0.9654858351	 0.251022
H	 3.0921561459	 1.1979501253	 3.0445207916	 0.073857
