14
gdb 15541	3.27278	2.07001	1.43208	2.7881	61.77	-0.2768	-0.0078	0.269	843.5182	0.108053	-378.745125	-378.737891	-378.736947	-378.777289	25.774	
C	 0.0587380058	 1.5440796196	-0.1354636695	-0.393587
C	 0.0207445286	 0.0276723748	 0.0259595545	 0.002198
N	 0.5845594096	-0.655234728	-1.1507333675	-0.250745
C	 1.4780510992	-1.4411020097	-0.7305528284	 0.122741
O	 1.7375586416	-1.5257763889	 0.6046904776	-0.218162
C	 0.8601491361	-0.5609568234	 1.2275900042	-0.056214
C	 1.6678362995	 0.4146031004	 1.9661612077	 0.288594
N	 2.2804207251	 1.192827202	 2.5607078809	-0.318074
H	 1.0848251212	 1.900790006	-0.2571066121	 0.142696
H	-0.511897855	 1.8240330661	-1.0238682061	 0.137781
H	-0.3790098981	 2.0431965437	 0.7336517821	 0.130811
H	-1.0202682407	-0.2937312719	 0.1393412906	 0.108753
H	 2.0927866891	-2.0952174861	-1.3378094702	 0.157719
H	 0.2278783079	-1.0948860848	 1.9419850864	 0.145489
