19
gdb 60881	1.90308	1.45474	1.4226	3.8898	76.47	-0.2486	-0.021	0.2276	1111.4426	0.155852	-423.038742	-423.02905	-423.028106	-423.073494	34.785	
C	 0.0385504435	 1.5287590011	-0.3018644389	-0.424729
C	-0.0094210501	 0.0311287321	 0.0446620327	-0.18514
C	 0.7114901724	-0.2620001383	 1.3579697884	 0.176366
O	 0.4119309718	-1.1341844579	 2.1297646716	-0.254845
C	-1.4039804647	-0.5693175245	 0.0298389935	 0.299252
C	-2.020537802	-1.0140478652	-1.296537719	-0.329339
C	-1.5814943467	-2.0423093146	-0.3130967228	-0.296361
C	-2.3706091845	-0.044394154	 1.0267641945	 0.126532
O	-2.1425185574	 0.8316133334	 1.8249415354	-0.279259
H	 1.0714962825	 1.8919038474	-0.2997596075	 0.117375
H	-0.3741778452	 1.7043457739	-1.2991923184	 0.120178
H	-0.5354895542	 2.1116276897	 0.4199342379	 0.159998
H	 0.5923147766	-0.5009744534	-0.7106882246	 0.100065
H	 1.5969960218	 0.3898455973	 1.5416246246	 0.077011
H	-3.0840130866	-0.8522050069	-1.4378956358	 0.127648
H	-1.4219732596	-0.8442456137	-2.1846104588	 0.128197
H	-0.6716137116	-2.5994660909	-0.5019323643	 0.13318
H	-2.3373277148	-2.5972063366	 0.2319133826	 0.130856
H	-3.3716109211	-0.5348881489	 0.9845674691	 0.073013
