23
gdb 77896	1.99274	1.47849	1.32999	1.681	85.93	-0.2448	0.0735	0.3183	1184.7546	0.204229	-388.266875	-388.256585	-388.255641	-388.301327	38.72	
C	-0.2064003789	 1.3171988325	-0.6952663733	-0.446782
C	 0.1782818627	-0.1450165273	-0.5302946512	-0.043179
C	 1.5454616623	-0.7751363702	-0.5890208671	-0.14517
C	 2.6470002011	 0.0033414293	 0.1427251033	-0.006197
C	 3.2094386613	 1.3140043897	-0.3964220397	-0.417201
C	 1.7582232127	-0.0388693058	 1.4458527077	 0.054105
O	 1.3989262323	 1.1502470243	 2.1197466764	-0.436647
C	 0.6901475454	-0.8527299719	 0.7022786705	 0.275878
C	-0.0306698779	-2.0184676569	 1.3241497979	-0.499129
H	-0.2195090719	 1.594081587	-1.755487628	 0.12147
H	-1.2141130563	 1.4942667863	-0.3005446297	 0.116167
H	 0.4746014212	 2.0099066085	-0.1987018405	 0.118427
H	-0.543443366	-0.7866921521	-1.0371140529	 0.085098
H	 1.7444425115	-1.5824821281	-1.2865119006	 0.078843
H	 3.4924824426	-0.6737962578	 0.3101482839	 0.072842
H	 2.4436518255	 2.0590500615	-0.6169472593	 0.116118
H	 3.8999771463	 1.7567892273	 0.3290910967	 0.120775
H	 3.7668886545	 1.1358661746	-1.3228419793	 0.111106
H	 2.250909137	-0.6557029894	 2.2038641069	 0.083725
H	 0.6557114525	 1.5473561647	 1.6595073432	 0.286502
H	-0.7665314254	-1.6818966253	 2.0648711615	 0.122084
H	-0.5675510593	-2.6045932231	 0.5708864638	 0.11498
H	 0.6660488267	-2.6911556475	 1.8378202099	 0.116186
