16
gdb 84603	2.61163	1.60569	1.22687	4.2369	74.07	-0.2708	-0.0262	0.2445	1033.2727	0.124273	-400.74977	-400.74196	-400.741016	-400.781999	29.695	
C	-0.1034585982	 1.543952246	 0.0861391903	-0.40414
C	 0.0121146351	 0.0168639287	-0.0217227234	-0.116761
C	 0.8452202995	-0.4657815736	-1.1957839699	-0.082641
C	 1.8414824082	-1.2781476464	-0.836655435	-0.091323
C	 1.8747073337	-1.4270502964	 0.6473417217	-0.065902
O	 2.09300293	-0.1811714287	 1.3460001734	-0.281275
C	 0.7439376785	-0.6224025564	 1.1691735427	 0.277122
C	 0.0149552678	-0.9449029502	 2.3701463625	 0.231627
N	-0.607119777	-1.1891314675	 3.3135155314	-0.336321
H	 0.8855999346	 1.9886933323	 0.2203665051	 0.143661
H	-0.5531423978	 1.9609223047	-0.8195496111	 0.122542
H	-0.7314917389	 1.8265280915	 0.9360784686	 0.136316
H	-0.9967523992	-0.4135452346	-0.0807584666	 0.108595
H	 0.6388105185	-0.1332486087	-2.2070703589	 0.115574
H	 2.5582160465	-1.7508485377	-1.4954349767	 0.118302
H	 2.2599090587	-2.3072009029	 1.1517663661	 0.124623
