21
gdb 107807	3.29122	1.44386	1.25638	0.4205	86.03	-0.2175	0.021	0.2385	1096.9966	0.183881	-349.932354	-349.924601	-349.923656	-349.964249	31.95	
C	 0.072686745	 1.5301146485	 0.1636492784	-0.385689
C	 0.003892653	 0.0147499684	-0.0587560692	-0.291472
C	-1.4098863458	-0.5412383966	-0.0932240085	 0.306702
C	-2.2626257413	-0.4668441326	 1.2458538166	-0.259587
C	-2.7056317477	-1.9007806286	 0.9994470418	-0.079313
C	-3.0544923353	-2.1614226905	-0.4925214856	-0.082944
C	-3.3091038296	-0.9890674044	-1.3754966331	-0.091092
C	-2.3423835015	-0.0825292282	-1.2005241236	-0.143014
C	-1.6248336555	-2.0982529993	-0.0339603021	-0.128428
H	 1.1110068325	 1.8711736652	 0.2176865191	 0.111768
H	-0.4130395358	 2.0803593231	-0.6485738275	 0.118494
H	-0.4210054584	 1.8162155968	 1.0985085364	 0.120017
H	 0.5115798059	-0.2433251354	-0.9976289203	 0.096832
H	 0.5613659542	-0.4928562989	 0.7393936068	 0.092552
H	-1.596994468	-0.4244051586	 2.1135243186	 0.098408
H	-3.0174885237	 0.3230853449	 1.3211376408	 0.088129
H	-3.0628553307	-2.593359158	 1.7525911118	 0.083305
H	-3.5107755329	-3.1252910286	-0.6872789815	 0.081232
H	-4.1789944532	-0.891067503	-2.0133817193	 0.092896
H	-2.3032455541	 0.9053255067	-1.6435908783	 0.091656
H	-0.877574947	-2.8748609307	-0.1526404413	 0.07955
