18
gdb 73530	2.6504	2.06878	1.38233	3.8066	75.64	-0.2276	-0.0256	0.202	948.4258	0.148179	-401.867888	-401.860729	-401.859785	-401.898904	29.501	
C	 0.0590347822	 1.4623478728	 0.0969167147	-0.48062
C	 0.0007626265	-0.0504193845	-0.0111349759	 0.310383
C	 1.0434569339	-0.6851651806	-0.9707133582	-0.28562
C	 0.3458547189	-1.761368306	-1.8747007934	-0.168428
N	-0.1435848167	-2.7493483636	-0.8964430966	-0.218936
C	-0.8833219369	-2.1374989257	-0.0837536129	 0.301116
O	-0.6823716413	-2.1722699046	 1.3013394907	-0.268985
C	-0.7264840861	-0.7139274476	 1.2253149674	 0.040274
C	-1.3681123678	-0.6873633176	-0.1062787798	-0.279874
H	 1.0150913582	 1.7881785851	 0.5204266067	 0.130794
H	-0.043850399	 1.9269237245	-0.8904281647	 0.125794
H	-0.7421604765	 1.853792934	 0.7324235097	 0.11921
H	 1.483114195	 0.1095308272	-1.5861234354	 0.097845
H	 1.8610048979	-1.1701380086	-0.4292279606	 0.128646
H	-0.4407839371	-1.2837688173	-2.4765884704	 0.104101
H	 1.0525750857	-2.2425938825	-2.5536584463	 0.112149
H	-0.9253432222	-0.1906221441	 2.1518456494	 0.119666
H	-2.2928535748	-0.2689512908	-0.4801418446	 0.112485
