17
gdb 43879	4.86564	1.08353	1.03447	4.6637	73.37	-0.2413	0.0376	0.2789	1159.9801	0.136737	-417.979167	-417.971611	-417.970666	-418.011492	29.577	
O	 0.0357361266	-0.0357202776	-0.0035919256	-0.360618
C	-0.0417026179	 1.1621952891	 0.0166074648	 0.434585
C	-1.1673680279	 2.2201832597	 0.108655946	-0.467002
C	-0.0317569527	 3.2744678408	 0.0284706597	 0.4379
C	 0.0623468451	 4.4037597405	-1.0583540727	-0.303021
C	 0.2501106426	 5.4188217328	 0.0752321546	-0.03819
N	-0.9543425308	 5.2960783697	 0.9291676055	-0.330225
C	 0.1754376859	 4.3470080692	 1.10567821	-0.142769
N	 0.9088213042	 2.1591475994	-0.0452127165	-0.396067
H	-1.8598068562	 2.2126118435	-0.7345766396	 0.13359
H	-1.7287031421	 2.2140303823	 1.044182525	 0.136055
H	 0.9551560298	 4.2770608354	-1.6759506914	 0.108395
H	-0.8124173304	 4.5558028145	-1.6949384581	 0.114468
H	 0.8324077516	 6.3312360808	 0.0606239632	 0.098715
H	-0.8744750431	 5.9917501694	 1.6709869141	 0.232571
H	 0.6766941358	 4.2353916176	 2.0599580164	 0.097052
H	 1.9133222394	 2.1248676528	-0.1446067954	 0.244563
