20
gdb 10957	4.96448	1.23318	1.1188	1.1211	74.94	-0.2454	0.0828	0.3282	1130.7101	0.176495	-348.976321	-348.967932	-348.966987	-349.008835	32.253	
C	-0.0030455711	 1.5336177596	 0.0791344333	-0.377708
C	-0.1369724074	 0.0134263823	-0.059211583	-0.189834
C	 0.6920532329	-0.5551001676	-1.2072121871	 0.051078
C	 2.2617950267	-0.5565044978	-1.094915311	-0.323239
C	 2.2454586693	-2.0714806409	-1.3369874849	 0.409108
O	 3.1310924226	-2.7339734628	-2.1707201679	-0.46503
C	 1.445543335	-2.7748058489	-0.2800381473	-0.342123
C	 0.7287226927	-2.0774519131	-1.4219994485	-0.136898
H	 1.0358267868	 1.8260008015	 0.2675254731	 0.117104
H	-0.3277051931	 2.0441477921	-0.8345668617	 0.112701
H	-0.6101691942	 1.9144547677	 0.906327727	 0.11035
H	 0.1532443177	-0.4666142686	 0.8837019763	 0.092351
H	-1.1910411125	-0.2489108973	-0.2203720467	 0.09436
H	 0.3988720671	-0.0576305103	-2.1383245278	 0.072644
H	 2.739958996	-0.011619721	-1.9115358281	 0.107185
H	 2.6917713457	-0.2225002028	-0.1434151161	 0.085692
H	 3.8779307505	-3.0338450669	-1.6409030418	 0.283068
H	 1.4535520143	-3.8568265953	-0.3678702053	 0.110472
H	 1.3921644682	-2.4040968361	 0.7411396383	 0.101231
H	 0.0830514629	-2.6330562439	-2.0916127409	 0.08749
