19
gdb 90248	3.74841	1.38702	1.33609	2.5618	75.43	-0.2449	0.0513	0.2962	1022.6533	0.160621	-422.915793	-422.908743	-422.907799	-422.946813	29.979	
O	-0.0702689111	 1.5242031346	 0.0916729057	-0.447319
C	 0.0414736208	 0.1242055567	-0.0370283007	 0.180838
C	 0.5451034541	-0.6080363751	 1.2418628953	-0.298289
C	-0.7267436838	-1.426688648	 1.5520146633	 0.40265
C	-0.498385958	-2.8238684822	 2.1828365463	-0.331416
C	-0.2250066221	-3.2725403882	 0.6611315794	-0.304131
C	-1.1623457703	-2.0621590986	 0.2844400696	 0.005127
C	-1.3346808893	-0.5507252754	-0.0914391029	-0.054351
O	-1.7650064175	-0.3521233448	 1.342892481	-0.393401
H	-0.6961140555	 1.6632284664	 0.8155384768	 0.280642
H	 0.6552514326	-0.0595859122	-0.9221197941	 0.086601
H	 1.4392978654	-1.2141533746	 1.0798396892	 0.102545
H	 0.7565962311	 0.1035105421	 2.0440312316	 0.108411
H	 0.3073859836	-2.9401696234	 2.9120352479	 0.108614
H	-1.4121057072	-3.2909411853	 2.5549278268	 0.125711
H	 0.8250451494	-3.1741274192	 0.3874127194	 0.123769
H	-0.5847555305	-4.2617895736	 0.3748901613	 0.114457
H	-2.1831830267	-2.4251094504	 0.4326239159	 0.100564
H	-2.074066825	-0.1855245688	-0.8046183218	 0.08898
