20
gdb 10527	2.91985	1.34898	1.073	0.4191	71.27	-0.2472	0.0809	0.3281	1168.8598	0.174941	-386.10854	-386.099068	-386.098123	-386.142947	34.117	
C	 0.7014778719	 0.2015929787	-1.0952007129	-0.249622
O	-0.0505282694	 0.0180644302	 0.0891683637	-0.286077
C	 0.610901794	-0.7093317066	 1.0943692352	 0.44411
C	 1.7337446771	 0.0294229347	 1.795727959	-0.254421
C	 1.2613563312	 1.3189346442	 2.4597660257	-0.069627
O	 2.3918463702	 1.9300395957	 3.0661344447	-0.424393
C	-0.3034597954	-1.599229997	 1.8831979124	-0.312893
C	 0.6863603379	-2.2050278912	 0.9066665707	-0.33196
H	 1.0468729281	-0.756569984	-1.5081953942	 0.10713
H	 0.0384732661	 0.682731953	-1.818408948	 0.124694
H	 1.5766332198	 0.8478863189	-0.9403412557	 0.110895
H	 2.17716013	-0.621961955	 2.5563877563	 0.105142
H	 2.5386919564	 0.2727095843	 1.0919213304	 0.105004
H	 0.8034313129	 1.9741143051	 1.704740208	 0.098048
H	 0.4833550941	 1.0861037978	 3.2040112621	 0.086916
H	 2.1071740603	 2.7595051285	 3.460181434	 0.284366
H	-0.1219987405	-1.71446066	 2.9462971949	 0.11157
H	-1.3475643558	-1.5990619049	 1.5932472005	 0.122144
H	 0.2812158386	-2.6074742924	-0.0149986743	 0.116472
H	 1.5458566124	-2.7392464799	 1.2970305175	 0.112502
