19
gdb 36406	4.41775	1.01928	0.96751	1.6896	80.13	-0.246	0.0571	0.3031	1261.3472	0.159851	-385.836373	-385.828449	-385.827505	-385.869079	31.238	
C	-0.0196217994	-1.1686805553	-0.1649430958	-0.447716
C	-0.0157770456	 0.0256070113	-0.026411334	 0.299307
C	 0.0215327038	 1.4734831124	 0.1397598542	-0.378514
C	 1.4420642418	 2.0576978967	 0.0546956314	 0.028928
C	 2.1233001151	 1.8946496134	-1.3458168688	-0.233717
C	 2.2752725778	 3.3944628626	-1.6696393159	 0.083339
C	 2.8624334374	 3.9920090912	-0.371655176	-0.238892
C	 1.438527664	 3.6062202468	 0.0776289441	 0.061213
O	 0.9691510592	 3.9285412661	-1.2701544144	-0.299744
H	-0.0382834693	-2.2231266373	-0.2866310316	 0.192399
H	-0.5924846564	 1.9544246005	-0.63122562	 0.145577
H	-0.4255852458	 1.7389861867	 1.107248549	 0.122911
H	 2.0553808177	 1.6452064843	 0.8610042092	 0.08096
H	 3.0792797499	 1.3668311892	-1.3055845499	 0.102008
H	 1.4774890386	 1.3862301678	-2.0649318798	 0.117073
H	 2.5906463105	 3.6948983482	-2.6685237566	 0.080468
H	 3.7228125468	 3.5085426714	 0.0989284427	 0.094885
H	 2.991138365	 5.0725766644	-0.4373469612	 0.112411
H	 0.8946233588	 4.1176963796	 0.8729823732	 0.077102
