17
gdb 127544	3.05907	1.45889	1.00018	2.3757	85.13	-0.212	-0.0367	0.1753	1166.6813	0.136477	-414.17945	-414.170831	-414.169887	-414.213322	31.218	
C	 0.0388461837	 1.4639827201	 0.0170441401	-0.303012
N	-0.0003691154	 0.0105225183	-0.0044845058	 0.119031
N	 0.0202097976	-0.5912624456	-1.1914420252	-0.204203
C	 0.0504195667	-1.8908937751	-1.1993456222	-0.038148
C	 0.0728074946	-2.7152732899	-0.004505152	 0.164077
N	 0.0978088308	-4.0031230514	 0.0668782789	-0.542567
C	 0.0663933422	-1.9048306197	 1.2178003253	 0.346968
C	 0.0954383477	-2.5840868794	 2.5481895475	-0.460311
N	 0.0349882942	-0.6038503253	 1.1902111181	-0.290088
H	 1.0354196375	 1.8217718205	 0.2970293697	 0.144407
H	-0.2098870562	 1.8176813619	-0.9820707828	 0.158383
H	-0.6867003206	 1.8341769113	 0.7436794123	 0.151993
H	 0.0576676763	-2.3558408372	-2.1820818225	 0.120674
H	 0.0990380885	-4.4097756827	-0.8718610231	 0.206531
H	 0.9832867894	-3.2205627715	 2.6241919467	 0.149173
H	 0.0886252777	-1.849211717	 3.3540722224	 0.127768
H	-0.7629481547	-3.2574120774	 2.6434401826	 0.149324
