18
gdb 69747	3.07802	1.50281	1.28692	2.8832	76.56	-0.2514	0.0238	0.2752	1039.3764	0.148164	-401.909767	-401.902209	-401.901265	-401.941542	30.136	
C	-0.0057152125	 1.5592388841	 0.0670202272	-0.499065
C	 0.0233893755	 0.059777894	 0.0090134746	 0.351864
C	-0.8819014185	-0.8266482848	 0.8074908019	-0.349367
C	 0.6056941997	-0.9754789291	 0.9967171746	-0.11719
C	 1.2373249332	-1.7336151292	-0.1799047028	 0.104386
O	 0.4284609208	-2.8025130423	-0.7892557791	-0.278566
C	-0.0772923067	-1.9205550899	-1.7392678129	 0.420767
N	-0.8543549223	-2.1286490681	-2.7010485249	-0.554323
C	 0.667019677	-0.7226412858	-1.1821444982	-0.219961
H	 0.9686838129	 1.9915087031	-0.1873106202	 0.119447
H	-0.7437290066	 1.9649145645	-0.6350508527	 0.133582
H	-0.2758161568	 1.9061673749	 1.0695864179	 0.122145
H	-1.3835608447	-0.328543692	 1.6314885642	 0.114902
H	-1.4651344202	-1.6191388858	 0.3500889962	 0.136796
H	 1.0818215586	-0.8264162586	 1.9583575136	 0.090301
H	 2.2873337667	-2.0126455285	-0.1142194662	 0.097779
H	-1.1332098435	-3.1108094733	-2.7468008871	 0.226757
H	 1.2841630374	-0.1364368031	-1.8595594061	 0.099744
