20
gdb 108353	2.5397	1.63495	1.28466	2.0915	77.23	-0.2235	0.0644	0.2879	1058.2199	0.171702	-403.068515	-403.06051	-403.059566	-403.100747	32.027	
O	 0.1097007981	 1.3743214715	-0.0121527577	-0.413799
C	-0.0053012509	-0.0306797708	 0.1447719836	-0.171613
C	-1.4303044345	-0.5324560613	 0.059229019	 0.325565
C	-1.6566424665	-2.0753060523	 0.0335880764	-0.312001
C	-2.525942813	-1.9177039839	-1.2571751735	-0.238387
C	-2.3102771865	-0.3820429067	-1.2101805218	-0.030278
N	-3.3055904625	 0.5206072306	-0.4987335731	-0.150865
C	-3.8633787248	-0.1939933654	 0.6663996402	-0.25906
C	-2.4911778125	 0.3251755125	 0.7796492032	-0.073591
H	-0.2998160041	 1.613570714	-0.850473917	 0.289484
H	 0.6174691976	-0.5696202743	-0.5888253115	 0.085224
H	 0.4075272365	-0.2506211976	 1.137673585	 0.111392
H	-0.7351722951	-2.6410988521	-0.1303822943	 0.103106
H	-2.1591868938	-2.4910855168	 0.9104152963	 0.104296
H	-2.0688663381	-2.3703409418	-2.1405838486	 0.105625
H	-3.5610853877	-2.2636756052	-1.2030564431	 0.111787
H	-1.9692602931	 0.1046099275	-2.1266936335	 0.070078
H	-4.6491350511	 0.3795832757	 1.1500841135	 0.122302
H	-4.0683409034	-1.2584407335	 0.6190594723	 0.115182
H	-2.2357384545	 1.17258818	 1.4074986945	 0.105554
