15
gdb 29895	3.34122	1.45424	1.01967	4.2408	71.54	-0.2544	-0.0411	0.2133	1095.2841	0.115456	-450.198337	-450.190583	-450.189638	-450.230899	28.553	
C	-0.4372142371	 1.3909054643	 0.0276635603	-0.326734
N	 0.0104019418	 0.001919759	 0.0211107377	-0.098249
C	 0.3048969158	-0.6569503059	-1.1333263445	 0.115925
N	 0.7058596578	-1.87307648	-1.2640407935	-0.342919
C	 0.8663649779	-2.6286782569	-0.1028628814	 0.442134
O	 1.2345366031	-3.776771654	-0.0795007948	-0.360488
N	 0.5658461217	-1.9619727186	 1.1023114778	-0.425853
C	 0.1349092923	-0.6569261069	 1.2528058631	 0.485181
N	-0.143979708	-0.0275399255	 2.3242448538	-0.575983
H	 0.2541052773	 2.0071603304	 0.6058926859	 0.16307
H	-0.4790031783	 1.7452194389	-1.0031644317	 0.135411
H	-1.4242041056	 1.4667169548	 0.4882109696	 0.163146
H	 0.1740389963	-0.0521982814	-2.0297272195	 0.139517
H	 0.6852518867	-2.517324924	 1.9371512259	 0.264657
H	-0.0148906218	-0.6105792241	 3.1481356911	 0.221185
