19
gdb 89684	2.76382	1.29345	1.04954	3.0148	78.36	-0.2545	-0.0369	0.2176	1205.2965	0.156298	-423.015061	-423.0058	-423.004856	-423.048864	34.223	
C	-0.0771955246	 1.5812508965	 0.0996808948	-0.410775
C	 0.0198019217	 0.0686511702	-0.0414906178	-0.028416
C	 1.1125824991	-0.5241251612	-1.0041462642	-0.325931
C	 1.7144920847	-1.2625928673	 0.1878607067	 0.254786
O	 2.0378612198	-0.2844585236	 1.1964146364	-0.3073
C	 0.68231417	-0.702306121	 1.1257347512	 0.325672
C	 0.0317537852	-1.2405403238	 2.3598455634	-0.500293
C	 2.3940635891	-2.5659216732	 0.2483923143	 0.061747
O	 2.5008386639	-3.3098863748	-0.6976657108	-0.262623
H	 0.894308542	 2.0009914762	 0.3755099767	 0.134808
H	-0.3929954153	 2.0400732614	-0.8428475416	 0.120494
H	-0.8047623428	 1.8656510862	 0.8677003345	 0.115648
H	-0.9584816966	-0.3665247222	-0.2693127623	 0.082484
H	 0.7075423947	-1.2010204578	-1.7575665412	 0.129526
H	 1.784283776	 0.1960773652	-1.477016373	 0.114127
H	-0.288225251	-0.415748381	 3.007128307	 0.139002
H	-0.8541345946	-1.8302345053	 2.1056645534	 0.134336
H	 0.7239688572	-1.8663840413	 2.9277081298	 0.139788
H	 2.7930194615	-2.8206235432	 1.2540570426	 0.082919
