17
gdb 17743	3.81004	2.62439	2.14315	1.6468	70.3	-0.2237	0.0817	0.3054	712.3974	0.143584	-326.645276	-326.639259	-326.638315	-326.674862	25.205	
C	 0.0167313536	 1.4965141746	 0.0051621723	-0.497922
C	-0.0269692689	 0.0008561189	 0.124041326	 0.371999
C	-1.3131377482	-0.8263364859	 0.324166365	-0.280066
C	-0.3334768352	-1.95755953	 0.7106221859	-0.072019
C	 0.5855995553	-2.1380873681	-0.5143660174	-0.045536
C	 1.6932853557	-1.3305755007	 0.0476633937	-0.0615
C	 0.7315914102	-0.8817956573	 1.1739536741	-0.124404
N	 0.7784300875	-0.7192882587	-0.9660956048	-0.178659
H	 1.0509709465	 1.8544000833	-0.0298568756	 0.123574
H	-0.4787061575	 1.8202312068	-0.9170008723	 0.127151
H	-0.4847988388	 1.9745904678	 0.8527147599	 0.112877
H	-1.8805371043	-0.4664789371	 1.1889274509	 0.098541
H	-1.9785478149	-0.9713439787	-0.5321374749	 0.100331
H	-0.6140505354	-2.8271770127	 1.3012982059	 0.072051
H	 0.5857931532	-2.9129684178	-1.2708781212	 0.09268
H	 2.7691581075	-1.3750023361	-0.071034918	 0.091606
H	 0.9396540737	-0.6235839483	 2.2092635104	 0.069293
