17
gdb 84628	2.32064	1.83408	1.49239	2.7795	72.8	-0.2338	-0.0176	0.2162	951.4286	0.13733	-421.832388	-421.82503	-421.824086	-421.86402	29.327	
O	 0.0951345125	 1.3974616012	-0.1506900952	-0.435042
C	 0.0257734987	-0.0176080882	-0.0343271159	 0.101701
C	 0.7225861911	-0.5131031512	 1.2183011469	-0.118527
C	 0.0445062186	-1.208897301	 2.13366306	-0.064544
C	-1.4081328089	-1.5651947693	 1.8542367158	-0.180507
C	-1.5082651668	-2.0226445728	 0.3614191657	-0.247672
C	-1.4440406098	-0.5130068853	-0.036859636	-0.169875
C	-2.0445214296	-0.2488968264	 1.3558742376	 0.424117
O	-2.7738872874	 0.5755784967	 1.8233086804	-0.325277
H	-0.3255959799	 1.7797628235	 0.6289745811	 0.290307
H	 0.5339372182	-0.3854319804	-0.9345022116	 0.098651
H	 1.7645124644	-0.2390857471	 1.3500583455	 0.105904
H	 0.4924095462	-1.5280889278	 3.0690615856	 0.108367
H	-1.8877554262	-2.1379818392	 2.6465858046	 0.088148
H	-0.6935170278	-2.6572490585	 0.007932657	 0.112282
H	-2.4745522704	-2.4706738255	 0.1186401936	 0.115821
H	-1.976551613	-0.1491339587	-0.9164616051	 0.096146
