15
gdb 19412	3.25839	2.16149	1.64693	2.7679	60.62	-0.2398	0.0584	0.2982	798.9256	0.118928	-399.71688	-399.710097	-399.709153	-399.747729	26.328	
O	 0.2060782167	 1.4001710632	-0.0246649215	-0.433387
C	 0.0112755497	 0.0173875302	-0.0277713708	 0.05301
C	 0.3058883661	-0.7477840672	 1.2795965062	-0.083115
N	-0.6489903612	-0.171328573	 2.2569139737	-0.360995
C	-1.0912006188	-1.2655351782	 1.3426558021	-0.173428
C	-1.4397044739	-0.5487462695	 0.0550915761	 0.451876
C	-2.6990118937	-0.0243201321	-0.4576418296	-0.265786
O	-2.0601817635	-1.1760925067	-1.0468329678	-0.284384
H	-0.1611921836	 1.7112507787	 0.8140030378	 0.291959
H	 0.5282051722	-0.3984566299	-0.8965583278	 0.107973
H	 1.2349544462	-1.2009805137	 1.6007313934	 0.102157
H	-0.453185642	-0.5893360244	 3.1653290076	 0.238535
H	-1.4727070131	-2.2057576127	 1.7184252261	 0.110442
H	-3.6292376595	-0.2278113032	 0.0702126895	 0.117614
H	-2.6899401418	 0.8733449186	-1.0732277248	 0.127529
