24
gdb 118185	2.1206	0.87774	0.71934	3.3524	87.65	-0.2386	0.0387	0.2772	1743.4729	0.214913	-405.603008	-405.591258	-405.590314	-405.641705	41.127	
C	-0.0774083487	 1.453057441	-0.0846161092	-0.380146
C	-0.0016942648	-0.0735093726	 0.0036474584	-0.165342
C	 0.7208777193	-0.5626655004	 1.2630816644	-0.171098
C	 0.8137503053	-2.090932149	 1.390691727	 0.034404
C	 1.6920825391	-2.5138071396	 2.5758882666	-0.396184
N	-0.5162458542	-2.6863144409	 1.4911114785	-0.309322
C	-0.9156584548	-3.7596275235	 0.7451698395	 0.410155
C	-2.3080925649	-4.2855437699	 1.0653363031	-0.485213
O	-0.2168205191	-4.2695908647	-0.1128457232	-0.376653
H	 0.922350523	 1.9015593027	-0.0963929497	 0.113695
H	-0.5959430432	 1.7739324685	-0.9933643391	 0.113487
H	-0.616176026	 1.8744282998	 0.7718354767	 0.11018
H	-1.0131603778	-0.4953983171	-0.0210181837	 0.097998
H	 0.5123659554	-0.469569335	-0.881305134	 0.104775
H	 1.7406071762	-0.1572270456	 1.2798092073	 0.097881
H	 0.2240719487	-0.1559609814	 2.1575474715	 0.081246
H	 1.235200951	-2.5086440801	 0.4716445271	 0.122876
H	 1.7621248132	-3.603398306	 2.633152379	 0.128362
H	 2.704135563	-2.1095303622	 2.4731347496	 0.117432
H	 1.2801568841	-2.1465085849	 3.5236362748	 0.104825
H	-1.1231935227	-2.3568029344	 2.2250874562	 0.236068
H	-2.8489341115	-4.4338273769	 0.128239211	 0.151992
H	-2.2145427103	-5.2635290055	 1.5471611082	 0.149946
H	-2.8892934604	-3.6274432222	 1.7169740902	 0.108634
