17
gdb 101979	1.68808	1.47816	1.2508	1.5336	69.79	-0.2608	-0.0588	0.2019	1147.4673	0.13088	-458.983522	-458.973289	-458.972345	-459.019432	34.558	
C	-0.3677334916	 1.467204303	 0.2467758928	-0.411013
C	-0.0925034241	-0.0259261198	 0.0549130384	-0.203572
C	 0.6570688162	-0.3881751458	-1.2832344853	-0.032755
C	 1.9843832279	 0.3646655724	-1.326727089	 0.123055
O	 2.9008300251	 0.0836141242	-0.5954890711	-0.266091
C	 0.9085820057	-1.8976672944	-1.2071447133	 0.124454
O	 0.1049165214	-2.7162291999	-1.570099626	-0.255067
C	-0.2409483172	-0.0367205601	-2.4594980997	 0.122272
O	-0.2189360156	 1.0403228094	-3.0019951096	-0.259892
H	 0.5611691521	 2.0391230273	 0.3306399131	 0.137428
H	-0.9472744044	 1.8859883393	-0.5795262305	 0.146011
H	-0.9335416743	 1.6173671302	 1.1707648907	 0.129925
H	 0.5310479277	-0.4007171472	 0.8742680188	 0.135273
H	-1.0257608256	-0.5993371074	 0.0704767336	 0.130007
H	 2.0490630669	 1.1773231708	-2.074504192	 0.127877
H	 1.8824545833	-2.1750777344	-0.7573153585	 0.125317
H	-0.9336206837	-0.8417177376	-2.7720578124	 0.126771
