21
gdb 57303	2.8222	1.10474	1.0314	1.4884	79.97	-0.2331	-0.0173	0.2157	1304.552	0.179488	-424.24105	-424.230735	-424.229791	-424.276725	38.118	
C	-0.0153194857	 1.4646168863	 0.0216395255	-0.397144
C	 0.0024793137	-0.069881316	 0.0223980345	 0.243843
C	 0.6953374642	-0.6226146024	 1.2695639793	-0.419812
O	-1.370059347	-0.4688869157	-0.0197736257	-0.449883
C	 0.7490484135	-0.5277428217	-1.2559493267	 0.337148
O	 1.9421840108	-0.7569062531	-1.2323381935	-0.351401
C	-0.0517778001	-0.6401667043	-2.506694599	-0.105625
C	 0.6631327491	-0.3196491715	-3.8131343815	-0.250274
C	 0.3532754682	-1.7371772128	-3.4866070745	-0.255477
H	 1.003525735	 1.8590518818	 0.0436104441	 0.132155
H	-0.5211750709	 1.8459618688	-0.8697540049	 0.127688
H	-0.5579223729	 1.8215787022	 0.9016719499	 0.126183
H	 0.2036682715	-0.2405771306	 2.1682191194	 0.116669
H	 0.6493095536	-1.7177902677	 1.2853334231	 0.106951
H	 1.7499628611	-0.3434121728	 1.2803668168	 0.142959
H	-1.4068194433	-1.4219303265	 0.1159917102	 0.280391
H	-1.1029953289	-0.4024942659	-2.4263467689	 0.108445
H	 0.0832370538	 0.1841830348	-4.5778095804	 0.117682
H	 1.6943650595	-0.0003022521	-3.7151780663	 0.13663
H	 1.1773483755	-2.366222673	-3.1694768331	 0.135323
H	-0.4457760705	-2.2399908875	-4.0191329184	 0.11755
