16
gdb 42509	3.58465	1.13749	0.97631	2.0011	78.42	-0.2432	-0.0388	0.2044	1206.559	0.122841	-400.69134	-400.682902	-400.681957	-400.724798	31.33	
O	 0.1084402612	 0.0574594957	 0.2061583105	-0.304101
C	 0.0156251573	 1.2467807851	 0.1362262612	 0.34374
C	-1.177963305	 2.2567962036	 0.0049829823	-0.304805
C	-0.1073192614	 3.3608156182	-0.3411287575	-0.338945
C	 1.0069513529	 2.3726403992	 0.0264179119	 0.244834
C	 2.2091069956	 2.5113064992	 0.8995325237	-0.287102
N	 2.3497580433	 2.2859334318	-0.5364457282	-0.352412
C	-2.2114737143	 1.9585807227	-0.9577526625	 0.320024
C	-3.0501464185	 1.6989019065	-1.7790135099	-0.436126
H	-1.6074334502	 2.4210752981	 1.000796988	 0.134318
H	-0.1078546865	 3.6175407711	-1.4013999125	 0.137224
H	-0.1691614696	 4.2695530194	 0.2583813856	 0.120103
H	 2.4903814272	 3.5046690967	 1.2385881104	 0.134138
H	 2.4247573203	 1.6998065167	 1.590074347	 0.135558
H	 2.5676825714	 1.3080229134	-0.724546438	 0.252489
H	-3.7957697936	 1.4671416926	-2.4985912021	 0.201061
