21
gdb 118889	3.35934	1.03854	0.95762	1.8771	79.22	-0.2399	0.0794	0.3193	1339.4275	0.18149	-424.181919	-424.17273	-424.171785	-424.215921	34.969	
C	-0.1308876031	 1.3679536457	-0.0200540391	-0.225089
O	 0.078437557	-0.0249050925	-0.033173163	-0.254361
C	 0.6432256683	-0.5242122935	 1.1679463835	-0.123036
C	 0.6995283446	-2.0390605103	 1.0241867636	 0.414067
O	-0.6033656395	-2.5246275249	 0.7621229711	-0.494499
C	 1.7709132979	-2.6517199248	 0.046323754	-0.291157
C	 2.3126908168	-3.4943514942	 1.2096036629	-0.036131
C	 2.785099911	-2.5963373756	 2.3138396609	-0.293252
C	 1.3077030892	-2.8528420318	 2.168281343	-0.090582
H	 0.814093748	 1.9179186767	 0.107225955	 0.10835
H	-0.5725982785	 1.64293993	-0.9810209169	 0.128972
H	-0.8154712552	 1.6688260939	 0.7879405514	 0.108978
H	 1.6417435727	-0.0928062442	 1.3318769511	 0.086723
H	 0.0089707336	-0.2584972054	 2.0297174487	 0.091561
H	-0.9705303874	-1.9298335181	 0.0951151104	 0.28203
H	 1.2657185862	-3.2406591805	-0.7201862507	 0.109858
H	 2.4817811364	-1.9655374441	-0.4262388322	 0.086682
H	 2.6156647504	-4.5319809525	 1.1470859865	 0.085171
H	 3.2459048715	-3.0945879831	 3.1609632374	 0.112621
H	 3.2173809054	-1.6239891306	 2.0900556678	 0.103005
H	 0.7125392847	-3.3055175203	 2.9517391947	 0.09009
