21
gdb 118695	2.27386	1.11446	0.9943	1.3316	76.04	-0.232	0.0546	0.2866	1347.9644	0.179398	-461.322411	-461.311815	-461.31087	-461.358065	38.369	
C	-0.0975049034	 1.3728853925	 0.214806582	-0.221912
O	-0.0822920131	-0.0304167823	 0.2937014482	-0.239157
C	-1.291479846	-0.6148999279	-0.1530690383	-0.102962
C	-1.1632463014	-2.1161253965	-0.0598328254	 0.21381
C	-0.0231336641	-2.7062094503	-0.8675402069	-0.459544
C	-1.4944479888	-2.8078987116	 1.2451011191	 0.000435
O	-1.9772772067	-1.9976632215	 2.2908704486	-0.42685
C	-2.4323159626	-2.9491432324	 0.0659603644	 0.043431
O	-3.6835201828	-2.340781023	 0.1728889007	-0.435658
H	 0.8685084544	 1.7331757318	 0.5775597417	 0.12358
H	-0.2418064376	 1.7248671471	-0.8198409222	 0.100295
H	-0.8954935823	 1.8096549316	 0.8365505985	 0.103217
H	-2.13661654	-0.2480465261	 0.4433563668	 0.09029
H	-1.4856004635	-0.3298245658	-1.2022533433	 0.085057
H	 0.9346054509	-2.2930333213	-0.5395793747	 0.138183
H	 0.0184649692	-3.7956487919	-0.7663549589	 0.106661
H	-0.1463638818	-2.4774267918	-1.9326661102	 0.116431
H	-0.8641279018	-3.6358123681	 1.5634554567	 0.088921
H	-2.3648341781	-2.5787912582	 2.9545758631	 0.29666
H	-2.4800563892	-3.8850136567	-0.4845420663	 0.096072
H	-3.6978628613	-1.9179431875	 1.0435198862	 0.283039
