15
gdb 6077	5.11121	1.04877	0.9006	2.2868	58.93	-0.2456	0.0201	0.2657	1216.0295	0.118951	-433.194491	-433.185566	-433.184622	-433.229089	31.296	
N	-0.113664664	 1.2309730368	-0.1659828532	-0.520791
C	-0.0237595491	-0.1231740426	-0.1053859609	 0.406438
O	 0.9831406986	-0.7366388898	-0.4116286639	-0.363514
C	-1.2786318102	-0.8276264932	 0.4135371333	-0.249964
N	-1.0520623825	-2.2520007183	 0.4172108414	-0.344639
C	-2.0753514086	-3.0910731634	 0.0288443785	 0.449172
N	-1.671118721	-4.3999465386	-0.189312565	-0.561748
O	-3.2257357518	-2.7197373227	-0.1239556154	-0.393637
H	 0.6644010175	 1.7464895562	-0.5431236879	 0.267567
H	-0.9785875419	 1.7154029441	 0.000812038	 0.267357
H	-1.5029684781	-0.4455252534	 1.419765503	 0.127783
H	-2.1464065399	-0.5913597697	-0.213424486	 0.151975
H	-0.1025875644	-2.4874867646	 0.1508955076	 0.253866
H	-0.8741124574	-4.7367098106	 0.329191515	 0.250683
H	-2.4437062371	-5.0463210303	-0.2326141942	 0.259453
