18
gdb 56597	3.58281	0.98235	0.90961	5.7045	72.01	-0.251	0.0304	0.2814	1304.1063	0.147893	-435.232909	-435.223392	-435.222448	-435.267609	34.513	
N	-0.1502303492	 1.5628554298	-0.0383134713	-0.510502
C	-0.0053794713	 0.1089783478	-0.0565367427	-0.123369
C	-1.3084134696	-0.5160984237	 0.2212549923	 0.308044
N	-2.3149507219	-1.0428556821	 0.4297282802	-0.324178
C	 0.5796668866	-0.4867719797	-1.3816311598	-0.026866
N	-0.1761528895	 0.0385159734	-2.5104910978	-0.517499
C	 2.0760220508	-0.1940735971	-1.4400287851	 0.071546
C	 2.8261772098	-0.1069896666	-2.6958689832	-0.194729
O	 2.4448690758	 1.0794161565	-1.987488128	-0.23866
H	 0.755744312	 1.9916164677	-0.2055033628	 0.248546
H	-0.7543074994	 1.8343866106	-0.809774723	 0.246729
H	 0.6600410253	-0.17203648	 0.7705997883	 0.124341
H	 0.4536594213	-1.5751026483	-1.3390639058	 0.107
H	 0.2804582404	 0.8711788615	-2.8700954581	 0.243808
H	-0.2482554847	-0.6347366393	-3.2624347384	 0.24319
H	 2.6346078472	-0.4630703279	-0.5412777845	 0.10158
H	 3.8929161087	-0.3212954105	-2.7002176753	 0.129055
H	 2.3110076376	-0.2633497022	-3.641274415	 0.111964
