16
gdb 98506	2.40416	1.34598	0.92978	3.3346	71.11	-0.2803	-0.0482	0.2322	1218.309	0.122558	-437.902127	-437.893145	-437.892201	-437.936339	32.314	
O	 0.1027588571	 1.3809937613	-0.182847588	-0.417365
C	 0.0046964429	 0.0020753633	-0.3611445221	-0.155285
C	-1.3178601976	-0.5294386611	 0.1582282171	 0.29736
O	-2.1266844194	 0.2304087219	 0.6511751268	-0.339425
C	-1.6073052422	-1.9992423883	 0.0530756049	 0.084383
C	-2.4764351433	-2.5931798882	 1.1768976683	-0.271895
C	-3.0853867277	-2.3780430054	-0.1542859507	-0.271882
C	-0.6060790686	-2.8421304378	-0.5412091082	 0.214945
N	 0.2041873595	-3.5146556295	-1.0206181711	-0.341582
H	-0.7269474836	 1.6506791112	 0.2404818569	 0.297278
H	 0.0936378587	-0.2782968915	-1.424079852	 0.13754
H	 0.8174447458	-0.5340829116	 0.156790755	 0.137556
H	-2.2287561063	-3.6008326824	 1.4869791183	 0.153957
H	-2.7183926983	-1.891577507	 1.966090616	 0.160229
H	-3.7458978425	-1.5286290573	-0.2800573244	 0.160228
H	-3.2716141444	-3.2324228877	-0.7932003766	 0.153958
