15
gdb 132615	3.11677	1.31288	0.92475	1.1594	73.25	-0.1894	0.0021	0.1914	1166.2382	0.113117	-461.975283	-461.967455	-461.966511	-462.007207	30.737	
N	-0.0011288661	 1.4381688063	-0.0837682749	-0.599795
C	-0.0277575306	 0.0369093757	-0.0340444913	 0.15823
C	-1.2125934851	-0.7055820286	-0.0141805608	-0.169948
C	-1.2044749867	-2.0959889012	-0.0274567205	-0.188603
C	 0.0035245579	-2.7900323159	-0.066417447	 0.396645
O	-0.0419344555	-4.1564232578	-0.0818757946	-0.449569
C	 1.2025427153	-2.0761258672	-0.0851744466	-0.406644
C	 1.1616473453	-0.6924891592	-0.066737719	 0.271929
F	 2.3191633331	-0.0026760899	-0.0704628783	-0.097786
H	 0.8857847501	 1.8222664489	 0.2118045213	 0.250204
H	-0.7650436853	 1.8753158822	 0.4127920415	 0.245792
H	-2.1607203458	-0.1770694735	 0.008570268	 0.093124
H	-2.1313679638	-2.6566389084	-0.0102410872	 0.103343
H	 0.8558590294	-4.5011515555	-0.1116431856	 0.295965
H	 2.1672690479	-2.5725762958	-0.1085621351	 0.097114
