16
gdb 49296	2.63007	1.47507	0.97296	4.4122	75.44	-0.2501	-0.0719	0.1782	1156.0676	0.125228	-437.919631	-437.91174	-437.910796	-437.952406	29.12	
N	 0.2616357039	 1.2004779777	 0.7242700666	-0.519961
C	 0.1729992814	 0.0357129372	 0.224695417	 0.341679
O	 1.2838986742	-0.7151451617	-0.0314252392	-0.256029
C	 1.1525229325	-1.825790259	-0.9279888935	-0.089386
C	-0.0204823738	-2.7264360274	-0.5536740871	-0.279507
C	-1.2398660179	-1.8853864059	-0.3521037138	-0.125338
C	-1.1421574767	-0.5867898597	-0.0260913565	 0.102341
C	-2.3761106708	 0.2351482594	 0.1532234419	 0.099025
O	-3.4905892507	-0.2112198899	 0.002437787	-0.273586
H	 1.2424875311	 1.4595838956	 0.8438745251	 0.226372
H	 1.019858967	-1.4475327746	-1.9501678976	 0.118866
H	 2.1072285809	-2.3527631669	-0.8766317092	 0.126261
H	-0.1816785717	-3.4725017851	-1.3399690627	 0.127984
H	 0.1997447623	-3.2885938815	 0.3651729237	 0.140744
H	-2.2312340116	-2.3165845765	-0.461653519	 0.138459
H	-2.1961016302	 1.2871126985	 0.4341852876	 0.122077
