15
gdb 129764	3.47584	1.57567	1.09256	3.5617	76.48	-0.1962	-0.0032	0.1929	1039.4278	0.114907	-416.81013	-416.803122	-416.802178	-416.841264	27.846	
N	 0.0749904831	 1.398379653	 0.1572018219	-0.59619
C	-0.0831740105	 0.0369313128	 0.0558036881	 0.293479
C	-1.1555310896	-0.8085716894	 0.0345745465	 0.130646
C	-2.5993233377	-0.983934731	 0.0371001177	-0.234096
C	-2.8788864113	-2.3024414243	 0.0010379034	-0.090425
C	-1.6159284096	-3.1584413942	-0.0285146503	-0.40499
C	-0.550044941	-2.094590686	-0.0039333588	 0.376947
N	 0.7517043887	-2.0805587161	-0.0060479116	-0.265308
O	 1.0589515439	-0.6841125196	 0.0309896397	-0.22441
H	 0.9781075552	 1.7300155083	-0.1520480463	 0.267734
H	-0.6879787233	 1.9412566687	-0.2184376458	 0.264862
H	-3.3326250048	-0.1882718963	 0.0667562185	 0.098779
H	-3.8709981741	-2.734659905	-0.0053872114	 0.100781
H	-1.5503813893	-3.8341848253	 0.8327636313	 0.141804
H	-1.5586113095	-3.7879592656	-0.9247460129	 0.140388
