20
gdb 115775	2.10744	1.34995	0.91171	4.0842	78.49	-0.249	0.0326	0.2815	1327.784	0.16967	-440.255846	-440.246265	-440.245321	-440.291034	34.13	
C	-0.2282129307	 1.2858077385	 0.3918006409	-0.240646
O	-0.4777595492	-0.0050349684	 0.9065875359	-0.241885
C	-1.3403087541	-0.7659189966	 0.1182163158	 0.15462
C	-0.8742795943	-1.348931156	-1.2467692519	-0.266346
C	-1.6287699851	-2.6542716203	-0.8623782499	-0.246974
C	-1.5790743692	-2.2161386977	 0.6188123225	 0.061762
O	-0.421116226	-2.7989387366	 1.2040411517	-0.197782
C	-0.1417427231	-2.4455102157	 2.477477109	 0.146077
N	 0.8822469734	-2.9181014479	 3.0439210522	-0.451508
H	 0.4418377817	 1.7891391213	 1.0920110874	 0.133479
H	 0.2544303937	 1.2451135183	-0.594992996	 0.116047
H	-1.1568450948	 1.8705995634	 0.300806177	 0.105845
H	-2.3124751917	-0.2586302791	-0.0016234121	 0.067602
H	-1.1741875019	-0.829279636	-2.1584164681	 0.098729
H	 0.2068577454	-1.5043318641	-1.2468115227	 0.130112
H	-2.6519552343	-2.6803264722	-1.2437051104	 0.109431
H	-1.136259466	-3.6032088786	-1.0746998031	 0.127476
H	-2.4541881206	-2.3943809128	 1.2530679384	 0.078582
H	-0.8750947864	-1.7581324545	 2.9145990362	 0.090432
H	 0.9385525532	-2.566918515	 3.9976743072	 0.224946
