17
gdb 13258	5.34026	1.04676	0.99512	2.5825	65.09	-0.2496	0.0229	0.2725	1176.3815	0.142456	-400.997281	-400.988914	-400.98797	-401.031927	28.484	
O	 0.3503223864	 1.1182322419	-1.2656778307	-0.324306
C	 0.192222798	 1.4831568599	-0.1192660106	 0.153064
N	 1.1388657585	 1.4047327435	 0.8522883767	-0.269711
C	 2.4682505646	 0.867116677	 0.593913048	-0.187782
C	 3.4076138716	 1.8757081083	-0.0639797449	-0.021658
C	 3.917063908	 3.0181660541	 0.8416611653	-0.077342
O	 5.248002194	 2.4643340983	 0.8690718814	-0.27011
C	 4.8931809757	 1.4540111251	-0.0981355084	-0.088335
H	-0.7564465433	 1.9160497621	 0.2560895825	 0.077767
H	 0.9193638468	 1.7624962982	 1.7672894267	 0.252039
H	 2.8877685051	 0.5256624886	 1.546198593	 0.112858
H	 2.3550622215	-0.004127159	-0.0587400625	 0.139696
H	 2.9868864423	 2.1889103968	-1.0201861803	 0.108785
H	 3.8982004751	 4.0180695668	 0.389488857	 0.103368
H	 3.4749986189	 3.0785901007	 1.8457087611	 0.086799
H	 5.1178580348	 0.4413551903	 0.2619997505	 0.100525
H	 5.4003013419	 1.6082292576	-1.0587620349	 0.104343
