14
gdb 132784	2.39105	1.85134	1.04418	2.7155	68.94	-0.2246	-0.0006	0.224	1044.1346	0.102346	-478.037519	-478.030088	-478.029144	-478.069105	29.105	
N	-0.0041617829	 1.3993290091	 0.2157927151	-0.592872
C	 0.0250100658	 0.0284962486	 0.0765823093	 0.244377
C	-1.1659407267	-0.6913268127	 0.0205667272	 0.109444
F	-2.331618302	-0.0208215183	 0.0423746789	-0.084786
C	-1.142047207	-2.0797880311	-0.066836364	 0.328298
O	-2.3132276967	-2.7459116452	-0.1222888969	-0.412988
N	-0.0147604916	-2.780062342	-0.1024937508	-0.386583
C	 1.1356271911	-2.0947134902	-0.0530982439	-0.000457
C	 1.2172523327	-0.7176211457	 0.0347957332	-0.224079
H	 0.8120509903	 1.9002640952	-0.0970401249	 0.257651
H	-0.8768365599	 1.8427751911	-0.0260740863	 0.263588
H	-2.0722579874	-3.6810636259	-0.1816453144	 0.298672
H	 2.0433022878	-2.6910805502	-0.0864577846	 0.109374
H	 2.1783064066	-0.2176178128	 0.0767771621	 0.090362
