21
gdb 101655	2.86164	0.80293	0.79107	2.2747	76.02	-0.2565	-0.0326	0.2239	1577.2439	0.178028	-461.363529	-461.352453	-461.351509	-461.401074	38.606	
C	-0.177922387	 1.5033404656	-0.1448319665	-0.394728
C	-0.0323900122	-0.0174042017	-0.1204082208	 0.112736
C	 0.8347096204	-0.543035295	-1.2673426056	-0.064136
O	 2.1589089932	-0.0535264227	-1.1894488197	-0.418946
O	 0.6394276057	-0.4528265944	 1.070104913	-0.29946
C	-0.147765405	-0.5808929536	 2.2395153545	 0.036614
C	-0.833869202	-1.9397569121	 2.3578889306	-0.395989
C	 0.7844138581	-0.2991570091	 3.4158068237	 0.147873
O	 0.6163441928	-0.7154345066	 4.5309085936	-0.240454
H	 0.8101359144	 1.9671665538	-0.1902208638	 0.139264
H	-0.7497075977	 1.8157315131	-1.0245606696	 0.119029
H	-0.7034642879	 1.8731506241	 0.7405189834	 0.113383
H	-1.020514741	-0.4964707233	-0.1842378968	 0.071959
H	 0.8120544437	-1.6433232858	-1.2503796181	 0.091217
H	 0.4265029344	-0.209622231	-2.2270073799	 0.107769
H	 2.4715358025	-0.2788700176	-0.305342036	 0.290726
H	-0.9074142118	 0.2201238057	 2.2753425146	 0.100773
H	-1.318524982	-2.0211050355	 3.3336667317	 0.142999
H	-1.5871893875	-2.0712642641	 1.5768288013	 0.118646
H	-0.094673677	-2.7406233865	 2.2700423269	 0.13186
H	 1.6445750359	 0.3519126166	 3.1440972936	 0.088867
