18
gdb 58005	4.07357	0.72363	0.64132	1.2537	70.75	-0.2631	-0.0501	0.213	1687.4495	0.143716	-476.229536	-476.219211	-476.218267	-476.266521	35.405	
C	 0.0758078356	 0.6094626312	-0.9881364189	-0.391028
C	-0.029379232	 0.0279383778	 0.4287795525	 0.087872
O	 0.2774729494	 1.0060861363	 1.3886254321	-0.439642
C	-1.4121497966	-0.5477928685	 0.6861212436	 0.406261
N	-2.1447544633	-0.045629051	 1.5884689926	-0.556065
O	-1.6750931418	-1.5841406417	-0.1468921393	-0.240794
C	-2.9342304507	-2.2279040639	-0.0455732675	-0.184646
C	-2.9683050899	-3.3399373928	-1.0836788693	 0.138933
O	-3.9236998354	-4.0478192339	-1.2453914901	-0.225495
H	 1.0761168029	 1.026305226	-1.1271214004	 0.132222
H	-0.0969326684	-0.1587429525	-1.7463342119	 0.117562
H	-0.6528051083	 1.415114979	-1.1196001701	 0.123305
H	 0.6824718286	-0.8087389339	 0.5155017905	 0.094312
H	-0.5221436366	 1.1060258266	 1.9289636987	 0.295274
H	-3.0567357237	-0.4793225488	 1.7024210758	 0.231775
H	-3.082142165	-2.6639728271	 0.9519862053	 0.150537
H	-3.7599793182	-1.5297745663	-0.2384475332	 0.150557
H	-2.0330260966	-3.4378369766	-1.6750326307	 0.109061
