14
gdb 9870	5.51762	0.91583	0.83757	2.8674	71.25	-0.2712	-0.0693	0.2018	1315.9548	0.104039	-382.494553	-382.486062	-382.485117	-382.528577	28.77	
C	-0.3109524251	 1.4509126331	-0.2755104703	-0.468815
C	-0.0071235096	-0.0155249127	-0.0513720448	 0.203772
C	 0.9878237278	-0.7192479815	-0.8945555896	-0.203862
O	 1.3202089013	-0.3118600031	 0.4244270729	-0.247647
C	-1.060316667	-0.7966194104	 0.5483035941	 0.088606
C	-1.9777362047	-1.4094457328	 1.0416686187	 0.057495
C	-3.0367412789	-2.1732257057	 1.6493978767	 0.015626
O	-4.2151374764	-1.9365727981	 1.5125907084	-0.227816
H	 0.5503441534	 1.9426284442	-0.7335197015	 0.134945
H	-1.1808696754	 1.5668094954	-0.9282206986	 0.142075
H	-0.530103238	 1.9435064827	 0.6758628953	 0.145378
H	 0.8995759086	-1.7926553044	-1.0496053208	 0.129483
H	 1.4641075603	-0.1608307323	-1.6997210299	 0.125782
H	-2.6823180564	-3.0200475544	 2.2710800995	 0.104979
