16
gdb 35890	2.09074	1.669	1.0124	6.6917	73.11	-0.2681	0.0032	0.2713	1132.3248	0.126967	-396.952267	-396.944053	-396.943109	-396.987768	29.511	
N	-0.2848442373	-1.1808441442	-0.253132547	-0.314836
C	-0.1359231538	-0.0460766886	-0.0930236876	 0.291253
C	-0.0042723918	 1.3849122355	 0.1431716508	-0.179789
C	-0.5518293939	 1.8225860626	 1.5505250007	-0.189158
N	 0.2450303262	 2.9678889766	 1.9652387806	-0.271115
C	 1.5990444337	 2.65445581	 1.5326346907	-0.189186
C	 1.468474037	 1.9529962198	 0.1314307179	-0.179872
C	 2.5236846501	 0.9792258174	-0.1118433362	 0.291278
N	 3.3938283926	 0.2371286763	-0.2781212267	-0.314849
H	-0.5703414674	 1.8993312067	-0.638789697	 0.137339
H	-1.6163561436	 2.0594816233	 1.5214641309	 0.132012
H	-0.4040764486	 1.0021947549	 2.2604066095	 0.143999
H	-0.0842991203	 3.8093206265	 1.5012870515	 0.229548
H	 2.226333351	 3.5459459337	 1.4886741096	 0.131989
H	 2.0523313356	 1.9528897185	 2.2405338636	 0.144018
H	 1.5322613707	 2.7087833312	-0.6567412112	 0.137369
