21
gdb 62676	2.41485	1.68526	1.27588	1.1106	82.03	-0.2036	0.0754	0.279	1088.6641	0.180752	-387.007079	-386.998056	-386.997111	-387.039916	36.032	
C	-0.2151281602	 1.5987498245	-0.0001815228	-0.492593
C	 0.0293011216	 0.0841933929	 0.0212111554	 0.242938
C	-1.1889890058	-0.6786175457	-0.502271514	-0.446567
C	 1.314229567	-0.6689037815	-0.3488263121	-0.169628
C	 2.6715703361	-0.1292491161	 0.1776339408	-0.058958
C	 2.6241664932	 1.1406920319	 0.9790415845	-0.317601
C	 2.1285590946	-0.1399644539	 1.5999220895	-0.122648
C	 0.7781411621	-0.7159935574	 1.0646003008	 0.330887
O	 0.2366989336	-1.8188061452	 1.7118057065	-0.452418
H	 0.4111529424	 2.1090041391	-0.7376697992	 0.129547
H	-1.2564550514	 1.7992842917	-0.2719611367	 0.108153
H	-0.0470483113	 2.0656506173	 0.9734877104	 0.12654
H	-1.4224791945	-0.3574690837	-1.5233903719	 0.112818
H	-1.0314756267	-1.7583786413	-0.5024785207	 0.130141
H	-2.0684009833	-0.4713980386	 0.1189608539	 0.10616
H	 1.2762742815	-1.4417540036	-1.1070175295	 0.088976
H	 3.6081992224	-0.5449662532	-0.1719880009	 0.089097
H	 3.5981505568	 1.4408686236	 1.3592293966	 0.109486
H	 1.991359309	 1.9791958282	 0.7325070672	 0.112102
H	 2.587258757	-0.5753979767	 2.4787170873	 0.090701
H	-0.3378929444	-1.4993832523	 2.4176830249	 0.282865
