15
gdb 116736	6.03765	0.69265	0.65486	5.1513	71.55	-0.2823	-0.0771	0.2053	1672.0889	0.109719	-453.964654	-453.955115	-453.954171	-454.000547	31.975	
C	-0.1805512386	 1.1739545989	 0.090724708	-0.402921
C	 0.1287193218	-0.3232551942	 0.0569611373	-0.117802
N	 0.3574823884	-1.0139040714	 1.3175195054	-0.165656
C	 0.2912072413	-0.4138233838	 2.406326381	 0.101517
O	 0.5595826078	-1.0678112863	 3.6141272969	-0.231951
C	-0.0137755716	-2.2606003162	 3.8891530825	 0.378546
O	-0.9012911704	-2.8038554488	 3.3067396267	-0.293463
C	 0.6052380939	-2.8099053204	 5.1025547404	 0.251636
N	 1.0537051287	-3.2893298501	 6.0525651173	-0.303669
H	 0.6373805288	 1.7491750834	 0.5371903171	 0.127626
H	-0.3224845645	 1.5388738814	-0.9303872354	 0.128331
H	-1.097704441	 1.3881244692	 0.6493586055	 0.128823
H	-0.6848041626	-0.8646037681	-0.4413299256	 0.136852
H	 1.0181849276	-0.5102046948	-0.5571971763	 0.131876
H	 0.0978946005	 0.6393615113	 2.6099427893	 0.130254
