15
gdb 127165	4.40299	1.14825	0.916	1.4234	72.41	-0.2422	-0.0221	0.2201	1198.267	0.114044	-450.131198	-450.123103	-450.122159	-450.164589	28.379	
C	 0.0057893956	 1.4605622185	-0.0706723898	-0.355751
N	 0.0014325654	-0.001964205	 0.0016052519	-0.198992
C	-0.0222425111	-0.6622714244	 1.2309393881	 0.092483
N	-0.0407092627	-0.0171602784	 2.3232675319	-0.468312
C	 0.0207995454	-0.7351824919	-1.1449485864	 0.598017
N	 0.0205030787	-2.0385019097	-1.2766019932	-0.3786
C	 0.0449821035	-2.163554611	-2.6382957626	 0.04949
N	 0.0597531536	-1.0547438135	-3.3238289604	-0.131096
O	 0.0432586772	-0.0668245518	-2.3022557112	-0.229493
H	 0.9046236653	 1.8135301999	-0.5823021022	 0.149841
H	-0.8728346057	 1.8173171496	-0.6138282379	 0.14983
H	-0.0115973852	 1.828590769	 0.9529669583	 0.18267
H	-0.0222672501	-1.7459029912	 1.1055288505	 0.152368
H	-0.0563681813	-0.6600540682	 3.111472228	 0.238499
H	 0.0522369414	-3.120834552	-3.1403365252	 0.149047
