27
gdb 57350	2.14817	1.38155	1.24804	0.0442	94.34	-0.2745	0.0708	0.3453	1260.4926	0.25057	-353.556359	-353.545662	-353.544718	-353.590954	42.38	
C	 0.3421696325	 1.5128394174	 0.0685452448	-0.422241
C	 0.0291199437	 0.002934079	-0.0287085797	 0.21031
C	 0.6440955201	-0.6831555294	 1.209469727	-0.415109
C	-1.5046361799	-0.1612190445	 0.0227220612	-0.415109
C	 0.6028058761	-0.6269711588	-1.3444626606	 0.382912
C	 0.3046204051	-2.1264518613	-1.464036499	-0.470453
C	 0.2387742632	 0.1552732971	-2.6578742486	-0.273615
C	 1.7086236775	 0.6330038905	-2.7925311519	-0.203922
C	 2.114731728	-0.3003999503	-1.6217836202	-0.273614
H	 1.4171470038	 1.713642722	 0.082078691	 0.111968
H	-0.0984516626	 2.0817900761	-0.7550016537	 0.111968
H	-0.0732921001	 1.9161481412	 0.9981460287	 0.107241
H	 0.3045275483	-0.1869932874	 2.1251277482	 0.106002
H	 0.3547412323	-1.734888988	 1.2840777894	 0.111462
H	 1.7380260811	-0.6348492033	 1.1964927912	 0.110575
H	-1.9869502467	 0.2699679097	-0.8608144852	 0.110575
H	-1.8047271819	-1.2103447891	 0.0913957572	 0.111462
H	-1.9111096717	 0.3511910448	 0.9014302847	 0.106002
H	-0.7695438641	-2.335292372	-1.4838586125	 0.112529
H	 0.7256807404	-2.515015466	-2.3973055581	 0.106422
H	 0.747110608	-2.7036894925	-0.6462130053	 0.112529
H	-0.0747878963	-0.5147690017	-3.4632275298	 0.09028
H	-0.5157808678	 0.9401889762	-2.5714255633	 0.094319
H	 2.1910181618	 0.4356408303	-3.7527605581	 0.093343
H	 1.8389872191	 1.6932816664	-2.5622582861	 0.099565
H	 2.6760757168	 0.1648815343	-0.8085644541	 0.094319
H	 2.6744660531	-1.1825674805	-1.9448156674	 0.09028
