23
gdb 106463	3.07722	1.34439	1.16825	0.2624	89.56	-0.2294	0.0246	0.2539	1181.6083	0.207766	-351.162207	-351.153928	-351.152983	-351.194649	33.933	
C	-0.2041543971	 1.5394378278	-0.0241287735	-0.387973
C	 0.1152757139	 0.0390973625	-0.047983885	-0.26707
C	 0.7697738693	-0.4979536239	 1.2207555797	 0.34318
C	-0.0560427913	-0.492473583	 2.5490920056	-0.246515
C	 0.7251003056	-1.7880574617	 2.9268410522	-0.070224
C	 0.8460534911	-2.0482819526	 1.3951479026	-0.258531
C	 2.0884075953	-1.3864094798	 3.4462359828	-0.05826
C	 2.7767429904	-0.4821707698	 2.7501437358	-0.069005
C	 2.169336613	 0.1001188923	 1.4940792198	-0.290329
H	 0.7011520951	 2.1518298688	 0.0293073428	 0.117785
H	-0.7460813355	 1.8354864651	-0.9276612903	 0.111251
H	-0.8304061923	 1.7963441112	 0.8371900051	 0.118506
H	-0.8151429795	-0.5191408435	-0.2151167112	 0.087171
H	 0.7624721967	-0.1842743473	-0.9079949003	 0.089689
H	 0.0371505621	 0.3644524267	 3.2213240477	 0.090712
H	-1.1134549866	-0.6960851322	 2.3513695649	 0.087903
H	 0.2295827578	-2.5354930735	 3.5479899932	 0.05535
H	-0.0493566075	-2.52937195	 0.989255724	 0.0873
H	 1.7399504119	-2.5690244352	 1.0410655973	 0.089913
H	 2.4745712659	-1.83297241	 4.3573283709	 0.082772
H	 3.7620120363	-0.1416853206	 3.0556093228	 0.08364
H	 2.8256223896	-0.0873212861	 0.6307052888	 0.099192
H	 2.1063203958	 1.1931393846	 1.5861203644	 0.103542
