15
gdb 47259	2.48796	1.71175	1.08387	3.3153	69.48	-0.2512	-0.0777	0.1734	1052.7212	0.114232	-453.988939	-453.981205	-453.980261	-454.02206	28.228	
O	-0.0425765222	-0.0777955514	-0.0071332277	-0.266285
C	-0.0353634667	 1.1247752145	 0.0441238193	 0.305711
C	-1.2781086136	 1.9717979187	 0.1523500659	-0.334331
C	-1.5912321655	 2.6880459004	-1.1805047944	-0.168179
N	-0.7469089827	 3.7958364627	-1.5661106722	-0.223031
C	 0.4726218996	 3.9250852323	-1.2670533112	 0.099306
N	 1.3757588223	 3.1286358977	-0.5427465073	-0.347659
C	 1.3239809396	 1.8561794531	 0.0120229058	 0.321752
O	 2.3141123969	 1.3528218471	 0.4873566301	-0.312511
H	-2.1071340742	 1.3082503681	 0.4098511356	 0.137542
H	-1.1646985557	 2.7216306729	 0.9446158779	 0.129301
H	-1.5994797113	 1.9541893988	-1.9991604585	 0.135884
H	-2.6146175274	 3.0728140516	-1.1176078107	 0.131138
H	 0.984780049	 4.8201771988	-1.6245286079	 0.12736
H	 2.3150080419	 3.5041318448	-0.4896840547	 0.264003
