20
gdb 99084	3.97787	0.71237	0.69199	3.17	78.58	-0.2491	-0.0309	0.2181	1716.6603	0.167698	-440.337639	-440.32676	-440.325816	-440.375502	37.229	
C	 0.2596905621	 1.5244753986	 0.3223066431	-0.368119
C	 0.1364622975	 0.0243361775	 0.053793787	-0.304289
C	 0.6641566778	-0.3591674368	-1.3262897377	 0.429004
O	 0.6565243547	 0.4071630388	-2.2724452135	-0.36829
N	 1.1202796671	-1.6486051571	-1.4314563516	-0.339979
C	 1.6706674861	-2.1879900115	-2.6647830386	-0.052095
C	 3.1252691509	-2.6342665341	-2.5335116872	-0.395715
C	 0.7569638723	-3.2970078989	-3.1787795724	 0.149009
O	 1.1373369329	-4.343206214	-3.6346757805	-0.238555
H	 1.308628985	 1.8296665821	 0.380134973	 0.124059
H	-0.2044994518	 2.0900227425	-0.4878776247	 0.147018
H	-0.225754603	 1.7896490221	 1.265371694	 0.111459
H	 0.6446910915	-0.5599569985	 0.8301312285	 0.101501
H	-0.9191557768	-0.276822111	 0.085936382	 0.133507
H	 1.1604502279	-2.2191395435	-0.6016121642	 0.246468
H	 1.5859180658	-1.361420872	-3.3843619839	 0.15005
H	 3.7602834234	-1.7869594455	-2.2648099476	 0.126482
H	 3.2313057228	-3.4100088054	-1.7679656542	 0.119164
H	 3.4735118564	-3.0597395062	-3.4769904138	 0.143992
H	-0.3262558725	-3.0543514573	-3.089129948	 0.085328
