16
gdb 96754	3.31388	0.80674	0.65404	3.4598	76.87	-0.2607	-0.0356	0.2251	1630.246	0.11934	-437.851084	-437.840845	-437.839901	-437.888205	34.226	
C	-0.093692184	 1.4743357361	-0.0651773608	-0.333307
N	-0.0949975095	 0.028447375	 0.0026418262	-0.314124
C	 0.5348591562	-0.5815800517	 0.9165372479	 0.280611
O	 0.5411186021	-1.9356236651	 0.9895477118	-0.253386
C	-0.1968991708	-2.6241310989	-0.0137353933	-0.153025
C	-0.0508116827	-4.1082077996	 0.2631986197	 0.139568
O	-0.5648820039	-4.9534173798	-0.4191776746	-0.237163
C	 1.312699408	-0.0066344287	 1.9803377545	 0.28239
C	 1.9547058066	 0.5089797447	 2.856278867	-0.417805
H	 0.4874813214	 1.964689102	 0.7255843594	 0.121327
H	 0.3033343994	 1.7848339311	-1.038229727	 0.134222
H	-1.127707295	 1.8340226454	-0.0168991424	 0.134221
H	-1.2547417016	-2.3363587596	 0.0052075854	 0.151712
H	 0.1790685261	-2.3856962444	-1.0157273642	 0.151695
H	 0.572355703	-4.350287375	 1.1515292013	 0.100087
H	 2.5247434247	 0.9557933986	 3.6340158791	 0.212977
