18
gdb 128652	3.49519	1.18126	0.89782	3.4287	75.85	-0.2207	0.0186	0.2393	1304.0516	0.147558	-435.298754	-435.289217	-435.288273	-435.333863	32.721	
C	-0.0136483283	 1.3724659783	 0.1145684237	-0.231079
O	 0.0635384446	-0.0482067935	 0.0455671	-0.2489
C	 0.671463799	-0.6413256441	 1.0749305918	 0.438948
N	 1.1825301211	 0.0073019025	 2.1098222177	-0.370347
N	 1.6750542795	-1.026419255	 2.8618061734	-0.01181
C	 2.3348109157	-0.7463054866	 4.1151824601	-0.324877
C	 1.4328014255	-2.2026491347	 2.2427569903	 0.358612
C	 1.8273924336	-3.5421610181	 2.7695980286	-0.504268
N	 0.7940309303	-1.9922288516	 1.100268642	-0.382788
H	 0.985887036	 1.8181598179	 0.1527239477	 0.13183
H	-0.5326343393	 1.6884001829	-0.7911188728	 0.12964
H	-0.5711728469	 1.6923544367	 1.0011283486	 0.131855
H	 1.6508236105	-0.2340877423	 4.7979899215	 0.149719
H	 2.6568226717	-1.6847858267	 4.5680932337	 0.141386
H	 3.2082490751	-0.1088602855	 3.9502203444	 0.149717
H	 1.3616388868	-3.7537847579	 3.7380520343	 0.13931
H	 1.5005970058	-4.2996179414	 2.0568538136	 0.163747
H	 2.9120639994	-3.6288612108	 2.8944284114	 0.139305
