23
gdb 100753	2.77498	0.95724	0.74636	1.5212	78.27	-0.2545	0.0557	0.3102	1553.3853	0.203813	-462.559833	-462.54898	-462.548035	-462.595601	40.643	
C	 0.0973314335	 1.5428695935	 0.0220066332	-0.395737
C	-0.0116596535	 0.0201142552	 0.0450954386	 0.151312
O	 0.6728984495	-0.3916622341	 1.2194669327	-0.455064
C	-1.4744326467	-0.502483201	 0.0091512726	-0.032284
C	-2.2491920411	 0.0651139068	-1.1928613144	-0.418374
C	-1.5216319725	-2.0441990176	 0.0066689908	 0.082014
O	-0.9007245809	-2.6160846151	 1.183428118	-0.449503
C	-2.9221139998	-2.6611056927	-0.1055961496	-0.070953
O	-2.8604970919	-4.0655821478	 0.0013114754	-0.423525
H	 1.137603382	 1.8198849445	 0.2106426755	 0.128308
H	-0.2003441833	 1.9666223754	-0.9394393007	 0.11345
H	-0.5179247362	 1.9882357222	 0.8113378934	 0.115277
H	 0.4997692172	-0.3794372433	-0.8504705163	 0.059232
H	 0.5567255284	-1.3478727057	 1.2949324513	 0.283554
H	-1.9608097239	-0.152578477	 0.9336668595	 0.069503
H	-2.2402265318	 1.1564561447	-1.1844924712	 0.127567
H	-1.8083274928	-0.2656791727	-2.1406575688	 0.121811
H	-3.2962957725	-0.2460890279	-1.1856132507	 0.126096
H	-0.913166233	-2.4290059567	-0.8211545223	 0.103583
H	-1.3133824453	-2.2046141867	 1.9540491161	 0.289465
H	-3.5722535596	-2.2211308501	 0.6744844268	 0.074864
H	-3.3729029228	-2.4330444444	-1.0747013349	 0.114092
H	-2.2078767228	-4.2446393095	 0.6906755249	 0.285311
