22
gdb 98661	4.08995	0.83728	0.74364	3.9016	85.12	-0.2311	0.0374	0.2685	1620.7014	0.192905	-404.378362	-404.36791	-404.366965	-404.415611	36.46	
C	 0.0244412414	 1.435245861	 0.3500699152	-0.369301
C	-0.0680865547	-0.0602751905	 0.054944218	-0.297274
C	-1.5140115446	-0.5451065317	-0.0300308088	 0.381902
O	-2.4781351295	 0.1670686454	 0.2005784578	-0.378493
N	-1.6649451692	-1.8458819166	-0.3905188348	-0.067163
C	-0.7550743882	-2.9753611553	-0.5826625638	-0.195638
C	-2.0048560054	-3.9007807743	-0.7216742075	 0.011553
C	-2.1198407121	-5.0456329511	 0.2724344047	-0.402341
C	-2.8878464284	-2.642032693	-0.4483324496	-0.181744
H	 1.0688880087	 1.7481463241	 0.4379200268	 0.102273
H	-0.4478737179	 2.0188191085	-0.4441344868	 0.12973
H	-0.4947744289	 1.6776901824	 1.2799874446	 0.134255
H	 0.4457810777	-0.3088641015	-0.8825767941	 0.114305
H	 0.4453790257	-0.641152005	 0.8334832298	 0.115958
H	-0.1147703822	-2.8980805169	-1.4693163444	 0.110599
H	-0.1217726077	-3.1964894192	 0.2869252754	 0.107156
H	-2.1237657908	-4.2704217283	-1.7428662104	 0.085593
H	-1.9991469816	-4.6879577488	 1.3010670849	 0.121941
H	-3.0989573525	-5.5308695262	 0.2006174412	 0.123572
H	-1.3550474615	-5.8082684544	 0.0901554145	 0.119873
H	-3.4417111717	-2.6600561317	 0.4977997831	 0.115564
H	-3.5744398367	-2.3465363368	-1.2480996258	 0.117681
