16
gdb 107376	3.19257	1.30708	1.05057	3.8561	64.6	-0.256	0.0413	0.2973	1118.0953	0.124845	-475.047439	-475.039504	-475.03856	-475.080215	30.007	
O	 0.0211353839	 1.4160846335	 0.3848983161	-0.409688
C	 0.0086240506	 0.0887191605	-0.1027833868	-0.144641
C	-1.3573757104	-0.5324458244	-0.0298126316	 0.398248
C	-1.951700715	-1.1381789916	 1.2148533932	-0.357532
C	-1.6885273287	-1.9984256255	-0.0135396916	-0.082911
N	-2.7386329268	-2.0965739348	-0.9785965475	-0.363865
C	-3.1458583049	-0.8559143366	-1.4297942115	 0.456581
O	-4.0768370368	-0.585900332	-2.1314091732	-0.378806
O	-2.2742507666	 0.0855651571	-0.9231266762	-0.287405
H	-0.5893019755	 1.925823722	-0.1594803403	 0.298143
H	 0.369928341	 0.0346891871	-1.1411503111	 0.105419
H	 0.7002666078	-0.4825956022	 0.5242318208	 0.1139
H	-1.2778343869	-1.2602771115	 2.0558588338	 0.132183
H	-2.9798832851	-0.9049881115	 1.4691573531	 0.13299
H	-0.9372067009	-2.7799457318	-0.0136612662	 0.119574
H	-3.4082304356	-2.8483714683	-0.9975918809	 0.267809
