17
gdb 6025	2.71731	1.81097	1.41341	4.7354	64.24	-0.285	0.0178	0.3028	941.0401	0.139114	-401.013005	-401.003652	-401.002708	-401.046243	34.24	
C	 0.0480489652	 1.5601879242	-0.1044509852	-0.436062
C	 0.0021983607	 0.0418204561	 0.0211743618	 0.112103
O	 0.5340955852	-0.3970536444	 1.2734744973	-0.45511
C	-1.4467955878	-0.5352828702	 0.0263265143	 0.221191
C	-1.4256106272	-2.0746520511	-0.0163142316	-0.424387
O	-2.1290937528	-0.0686705074	 1.1786996012	-0.460414
C	-2.1786764669	-0.0304044	-1.1519173927	 0.289901
N	-2.7204322183	 0.3358282021	-2.1038646327	-0.344288
H	 1.0789551528	 1.9170060349	 0.0008866672	 0.110472
H	-0.3163333113	 1.8832490011	-1.0826143611	 0.155732
H	-0.5704167881	 2.0237594261	 0.6684651833	 0.141055
H	 0.5563922036	-0.423954244	-0.8061817314	 0.089253
H	 1.2811369631	 0.164835693	 1.4993257412	 0.295939
H	-0.8321551138	-2.4449063938	 0.8222337075	 0.140842
H	-2.4452171337	-2.455593665	 0.0670441671	 0.141915
H	-0.9854926014	-2.438740871	-0.9491112043	 0.129315
H	-1.4850362194	-0.1662609906	 1.894868388	 0.292542
