21
gdb 92178	2.6672	1.88545	1.66655	0.1311	80.84	-0.1901	0.0875	0.2776	945.2574	0.186106	-383.198541	-383.191489	-383.190545	-383.229438	29.942	
C	-0.3693516112	 1.5172420368	 0.0896592892	-0.41417
C	 0.0364434501	 0.0463116599	-0.0217156892	 0.054828
C	 0.7617966986	-0.382901561	-1.3503048932	-0.200946
N	 2.2026489377	-0.6027829963	-1.1300310963	-0.126547
C	 2.7155324709	 0.6111936456	-0.4054593092	-0.190543
C	 2.3601704954	-0.0628599054	 0.9119201877	-0.002906
C	 2.444916469	-1.4111315274	 0.1557631526	 0.008532
C	 1.186162904	-1.8360968762	 0.8881431576	-0.192927
N	 0.8671999825	-0.3820363001	 1.1265433119	-0.135777
H	 0.4845017194	 2.1982202092	 0.1065927165	 0.119854
H	-1.0074236131	 1.8015297035	-0.7538850214	 0.111895
H	-0.9319347281	 1.6732617214	 1.0147470753	 0.12456
H	-0.8899490477	-0.53585119	 0.0603319113	 0.078039
H	 0.3279182	-1.3056523894	-1.7475805494	 0.103528
H	 0.6540764441	 0.3782650001	-2.1309782566	 0.103907
H	 3.8036504725	 0.6867547888	-0.518811249	 0.105042
H	 2.2663258485	 1.5604371107	-0.7038934455	 0.104173
H	 2.8573195606	 0.184223779	 1.8527865119	 0.07102
H	 3.3265409742	-2.0506200268	 0.0710519823	 0.07124
H	 0.4115156676	-2.4073315059	 0.3666714905	 0.102185
H	 1.420168535	-2.3384527364	 1.8336110428	 0.105013
