19
gdb 84598	2.46011	1.57955	1.20918	0.6943	87.3	-0.2295	0.012	0.2415	1100.3935	0.158818	-348.723852	-348.715466	-348.714522	-348.75632	33.386	
C	-0.1755294964	 1.5548644807	 0.0598853427	-0.400637
C	 0.0308216978	 0.0360027803	-0.0089051125	-0.095505
C	 0.8588202962	-0.445536686	-1.1837859185	-0.090725
C	 1.8429629237	-1.2701432074	-0.8209151755	-0.08612
C	 1.9179767037	-1.4298970269	 0.6594060409	-0.127746
C	 2.2252153712	-0.1640749306	 1.420648833	-0.316237
C	 0.7730333184	-0.563251943	 1.2070612353	 0.161239
C	-0.0024005486	-0.9585043629	 2.3426322584	 0.190439
C	-0.6820790307	-1.2728096512	 3.2852401444	-0.403
H	 0.7792187985	 2.0865189998	 0.1177530881	 0.116508
H	-0.7071601299	 1.9155383278	-0.8267548122	 0.112955
H	-0.7686409404	 1.8214636146	 0.9399838423	 0.127051
H	-0.9636307675	-0.4302963357	-0.0552989671	 0.091336
H	 0.6489313819	-0.1265225472	-2.1989986315	 0.09531
H	 2.5441289429	-1.7507187826	-1.4938030498	 0.099945
H	 2.1607431507	-2.3865616568	 1.1074066439	 0.101868
H	 2.5936219051	-0.2610025727	 2.4356919454	 0.123434
H	 2.6194176958	 0.678169542	 0.8624092727	 0.116102
H	-1.2742999325	-1.5565887321	 4.1190896601	 0.183782
