9
gdb 141	18.6968	3.40509	3.26056	1.7013	41.39	-0.265	0.0189	0.2839	397.8388	0.066467	-229.879598	-229.87469	-229.873746	-229.907107	16.924	
C	 0.0172494265	-1.1863973557	-0.0328792108	-0.436292
C	 0.0192685813	 0.0140484544	 0.0226989053	 0.329878
C	-0.0106977409	 1.4510801859	 0.0703490806	-0.099981
C	 0.5219731603	 2.1992195643	 1.2265478926	-0.15838
O	 1.2466606766	 2.1420974463	 0.0055683506	-0.213429
H	 0.0228731533	-2.2475799493	-0.0787438088	 0.206066
H	-0.8009894725	 1.9193639951	-0.5151192469	 0.121604
H	 0.0866399781	 3.1662435153	 1.4751608867	 0.122293
H	 0.9541532273	 1.6446770737	 2.0570240008	 0.128241
