14
gdb 10572	2.59785	1.95853	1.31536	3.2046	69.72	-0.269	-0.0095	0.2595	936.3432	0.105423	-341.534879	-341.526726	-341.525782	-341.567232	29.547	
C	-0.0911291639	 1.5173936366	-0.0691512296	-0.405053
C	-0.0075251752	 0.0172521508	 0.0288913222	-0.022609
N	 1.2937577691	-0.6002102659	-0.1852372967	-0.340183
C	 0.7063219421	-0.6640177304	 1.1838301982	-0.021678
C	 1.3686958139	 0.0876616728	 2.2178737617	 0.30671
C	 1.8964657544	 0.7147887038	 3.0953822651	-0.41156
C	 0.1527863333	-1.9344353656	 1.6056941383	 0.231343
N	-0.2863755882	-2.9584823734	 1.9156209676	-0.335807
H	 0.8027620753	 1.9837380848	 0.3485801256	 0.147702
H	-0.1796527553	 1.8154836864	-1.1187367039	 0.133806
H	-0.9688072184	 1.8893841968	 0.4679526854	 0.133618
H	-0.8814393335	-0.526315484	-0.3263522495	 0.117089
H	 1.2081819697	-1.5111260634	-0.6311548095	 0.257188
H	 2.3736581669	 1.2644823907	 3.8691671653	 0.209434
