27
gdb 62507	1.53197	1.53059	1.47566	0.0008	96.53	-0.2449	0.0731	0.318	1268.8744	0.2479	-353.559996	-353.547793	-353.546849	-353.596303	45.568	
C	-0.1267987949	 1.5161928831	 0.0437824358	-0.446583
C	-0.014406488	-0.0039239044	 0.0352976721	 0.231904
C	-1.2980882885	-0.5997992502	-0.53093143	-0.446567
C	 1.3351242258	-0.6739822542	-0.2482993403	 0.232745
C	 1.3975365746	-1.9372456983	-1.0989860065	-0.446737
C	 2.5687941663	 0.1777835161	-0.5238891393	-0.446733
C	 0.7351669705	-0.7249081435	 1.1617355911	 0.232105
C	 1.3693789228	 0.0766310745	 2.2928091674	-0.446638
C	 0.1983206279	-2.0386760363	 1.7182952336	-0.446657
H	 0.7511085413	 2.0285140751	 0.4355535514	 0.110057
H	-0.2959843188	 1.8912254368	-0.9729940651	 0.110185
H	-0.9851002315	 1.8307432806	 0.6499451362	 0.110234
H	-1.4706332847	-0.2337283839	-1.5504061668	 0.110191
H	-1.3070274528	-1.6883322286	-0.5722558252	 0.11005
H	-2.1598195657	-0.2897018141	 0.0726523397	 0.110226
H	 1.4424184208	-1.6771119811	-2.1635727171	 0.110263
H	 2.3062350324	-2.5064927387	-0.8682418046	 0.110232
H	 0.5515733717	-2.6105369167	-0.9661182553	 0.110055
H	 2.6096295762	 1.1063159417	 0.0442561087	 0.110054
H	 3.4800747357	-0.3866035608	-0.2913984215	 0.110243
H	 2.6176048856	 0.4440830048	-1.5867796923	 0.110249
H	 1.7827065769	 1.0368607837	 1.9862902633	 0.110063
H	 0.6297934419	 0.2763495601	 3.0777954499	 0.110282
H	 2.1827142732	-0.4958573194	 2.7551786695	 0.110211
H	 1.0086352947	-2.6150644758	 2.1811183919	 0.110202
H	-0.545554077	-1.8440666963	 2.5005050948	 0.110294
H	-0.2735541763	-2.6816524142	 0.9761782186	 0.11007
