18
gdb 71346	3.40627	1.50768	1.22309	1.6896	76.05	-0.2275	0.0776	0.3051	1041.2158	0.146952	-401.825316	-401.817816	-401.816872	-401.856958	30.199	
C	 0.0330044108	 1.4553812879	-0.0662982537	-0.527588
C	 0.016544776	-0.0371174672	-0.0152124912	 0.500195
O	 0.5768706942	-0.8030462117	-1.1304477495	-0.369688
C	 0.1102212508	-1.8135209274	-0.1934709773	 0.105248
C	 0.556503061	-1.0325301899	 1.0831684596	-0.28609
C	-0.8325910052	-1.1661393334	 1.6951941758	 0.413065
C	-1.3678244491	-1.9506533069	 2.8164205525	-0.336285
N	-1.4496625511	-0.4606158493	 2.8056219908	-0.386082
C	-1.1795327145	-1.0357994005	 0.2173334345	-0.258131
H	 1.0600703422	 1.8291965217	-0.1207979707	 0.133244
H	-0.5121550843	 1.8120295762	-0.9454999315	 0.13762
H	-0.445712164	 1.8636706342	 0.8286315631	 0.140541
H	 0.2405953023	-2.8651546869	-0.4431835474	 0.099057
H	 1.5443807867	-1.0317838802	 1.5448119891	 0.082558
H	-2.3273330642	-2.4546080693	 2.7354488475	 0.121734
H	-0.6666377209	-2.4240265713	 3.4996766901	 0.113138
H	-0.7393193608	-0.0754601518	 3.4245989163	 0.228989
H	-2.1430626899	-1.0361343442	-0.2898784181	 0.088474
