17
gdb 17008	3.872	2.18347	1.93095	2.8975	67.09	-0.2346	0.0728	0.3075	762.2953	0.14487	-363.806855	-363.80057	-363.799625	-363.836914	25.372	
C	-0.0391710784	 1.5625993586	-0.1345900626	-0.289492
C	 1.5266989775	 1.5917499765	-0.149326796	-0.289492
C	 1.5251315012	 0.071030524	 0.1177123343	 0.193092
C	 1.9812771448	-0.7448124865	 1.299925175	-0.126196
O	 0.8180582706	-1.4728938671	 1.7196316848	-0.258305
C	-0.3791408948	-0.7887607513	 1.3221269334	-0.126196
C	 0.0240129967	 0.0430840339	 0.1318339381	 0.193091
N	 0.7788812064	-0.6836851041	-0.8831435433	-0.363599
H	-0.4568383083	 2.1239991957	 0.7042232638	 0.113521
H	-0.5631434322	 1.8627161132	-1.0473118641	 0.102764
H	 2.0218753451	 1.9108383584	-1.0716400058	 0.102765
H	 1.9388901329	 2.168599309	 0.6816764675	 0.113521
H	 2.7541654373	-1.4887573066	 1.0854378863	 0.114492
H	 2.3467675302	-0.0736954292	 2.0940009099	 0.087451
H	-1.1277000772	-1.5610321545	 1.1219488475	 0.114492
H	-0.7543606087	-0.1314357951	 2.1231707505	 0.08745
H	 0.7616295169	-0.2126503748	-1.7845934293	 0.23064
