12
gdb 191	8.84271	3.54533	2.57115	0.5222	51.86	-0.2124	0.0239	0.2363	501.9826	0.097415	-269.267574	-269.262222	-269.261277	-269.2962	19.38	
C	 0.0576320116	 1.4794255377	 0.0313054108	-0.488196
C	-0.0773455176	-0.0007654909	 0.007787447	 0.365365
C	-1.1210435502	-0.8452209389	-0.2154661926	-0.263076
C	-0.6040937178	-2.1783669651	-0.098114749	-0.168965
C	 0.7147947951	-2.0423264804	 0.1876191485	-0.019149
O	 1.0530631596	-0.7250748692	 0.2559100062	-0.174208
H	 0.7774743646	 1.8305686536	-0.7168748625	 0.137506
H	-0.9085383323	 1.9424110137	-0.1809804332	 0.134576
H	 0.4016949846	 1.8374616365	 1.0083881514	 0.137499
H	-2.1363092026	-0.554783559	-0.4369136994	 0.102961
H	-1.1450627285	-3.104630331	-0.2119008245	 0.107191
H	 1.5165154234	-2.739985187	 0.3643811874	 0.128495
