18
gdb 12203	3.17844	1.62254	1.38429	1.8543	73.39	-0.2498	0.0251	0.275	982.3027	0.15161	-347.757343	-347.7486	-347.747656	-347.791633	32.041	
C	 0.340224932	 1.5036440578	-0.2569891776	-0.400077
C	 0.0657897807	 0.0464064807	 0.0571013645	 0.157482
O	 0.8038409484	-0.8467471891	-0.8156675432	-0.30227
C	 1.3534187102	-1.5864463965	 0.2996115805	-0.048474
C	 2.8046931257	-1.6730198348	 0.2758233618	 0.345405
C	 4.0042767469	-1.7551431705	 0.2683090686	-0.464391
C	 0.6795689946	-0.6161902159	 1.3239105951	-0.076032
C	 1.5835851987	 0.2056652251	 2.2295052981	-0.410006
H	 1.4053683252	 1.7368815939	-0.1858261482	 0.126198
H	 0.0129337519	 1.7251082223	-1.2777362317	 0.128703
H	-0.2125602584	 2.1585933278	 0.4253089901	 0.114648
H	-1.0121681823	-0.1499972742	-0.0309038463	 0.07297
H	 0.9341151819	-2.601432591	 0.3343078108	 0.100297
H	 5.0637226672	-1.829069669	 0.2528361891	 0.200911
H	-0.0728566304	-1.1316619496	 1.9257286395	 0.082095
H	 2.3906565391	 0.6895634628	 1.6745286749	 0.133784
H	 1.0095514217	 0.979714818	 2.7493838608	 0.115066
H	 2.046726957	-0.4333207177	 2.9878236331	 0.12369
