21
gdb 40698	3.24127	1.15959	0.99268	1.0433	82.5	-0.2161	0.0681	0.2842	1268.7593	0.183237	-383.181284	-383.172559	-383.171615	-383.215732	33.204	
C	-0.5591484097	 1.2865055875	-0.3320005542	-0.265629
C	 0.4380332048	 1.7024291731	 0.7288776821	-0.280014
C	 0.4460262911	 0.2949946829	 0.2104600145	 0.066533
N	 0.1778901059	-0.807822313	 1.1029478809	-0.100865
C	-1.160218914	-1.0430167493	 1.6250760765	-0.274126
C	-0.5720205033	-1.9741270303	 0.6183236737	-0.009186
C	-1.0863822965	-2.0895114439	-0.7889818397	-0.008681
C	-2.2832889498	-2.9256465962	-1.0659616843	-0.24655
N	-2.3285675701	-1.4680215118	-1.2716528056	-0.30527
H	-1.5987773462	 1.2128822238	-0.0363107473	 0.107183
H	-0.4230087443	 1.6349037948	-1.3498279367	 0.115968
H	 1.2548711612	 2.3635134818	 0.4614828826	 0.113414
H	 0.0537918689	 1.8521994215	 1.7326876757	 0.115688
H	 1.2616821091	 0.0430928763	-0.4616233857	 0.096151
H	-1.2159045717	-1.3270576028	 2.673002405	 0.117678
H	-1.9706830647	-0.3939580439	 1.2994077971	 0.105379
H	-0.151702147	-2.9099285638	 0.9875287988	 0.097176
H	-0.3006854281	-2.0847765853	-1.543172622	 0.099752
H	-2.3386093266	-3.5232201099	-1.9713696954	 0.118493
H	-2.8104188493	-3.3444010833	-0.2120428754	 0.112074
H	-2.8250163395	-1.0383019182	-0.4959965806	 0.224831
