18
gdb 48712	3.55708	1.35581	1.15642	3.6622	76.31	-0.2283	-0.0219	0.2064	1075.72	0.148859	-401.92232	-401.914953	-401.914008	-401.954078	29.233	
O	-0.1547008715	 0.0501714828	 0.1558809585	-0.267836
C	 0.0125658693	 1.2240317682	-0.070380023	 0.088166
C	 1.3120215834	 1.9241451714	-0.0130869418	 0.24932
C	 1.294824691	 3.4222773385	 0.2495337202	-0.352756
C	 1.6661025424	 2.9467192067	-1.1134154314	-0.083154
C	 3.1035283322	 2.668165743	-1.4849446862	-0.024059
C	 4.1926036911	 2.8771959242	-0.4964240784	-0.253239
N	 3.6358483011	 1.5343237898	-0.6960505599	-0.090511
C	 2.5840643469	 1.1242630169	 0.2664976979	-0.269004
H	-0.8415353511	 1.8833122045	-0.3564347183	 0.065328
H	 0.3160426951	 3.8814988619	 0.3593011308	 0.124181
H	 2.0454593959	 3.8284170733	 0.9163813164	 0.12965
H	 0.9719258524	 3.1276043598	-1.9264722492	 0.10407
H	 3.3287629761	 2.6679379389	-2.5476439571	 0.097882
H	 5.2173995553	 2.9965989893	-0.839193244	 0.119229
H	 3.9743958636	 3.4108828519	 0.4246630748	 0.110393
H	 2.9435296754	 1.2378881995	 1.2948456826	 0.111518
H	 2.3608580813	 0.0658332895	 0.1100501581	 0.140824
