24
gdb 116772	2.89178	0.70373	0.63418	2.7173	91.09	-0.2406	0.0329	0.2734	1935.9745	0.214405	-405.55961	-405.548191	-405.547247	-405.597226	40.589	
C	 0.3981011558	 0.6261308724	-0.6912993783	-0.395677
C	-0.424969977	 0.2550353673	 0.5476235346	-0.108928
N	-1.6292755834	-0.5410188907	 0.382965937	-0.233906
C	-2.0051510942	-0.9075869417	-0.7589387846	 0.125474
O	-3.1472988406	-1.6138930356	-0.9024683685	-0.215069
C	-3.429938606	-2.1444572255	-2.208604204	 0.126579
C	-2.7291745705	-3.489731463	-2.3844426584	-0.394265
C	-4.9498579261	-2.2443709039	-2.3295001514	-0.173934
C	-5.6611514181	-0.8936104937	-2.2269275285	-0.390419
H	 1.2668399191	 1.2186966668	-0.3888387421	 0.114488
H	 0.7692230691	-0.2607439644	-1.2164915825	 0.116804
H	-0.1799141545	 1.2256240516	-1.402940387	 0.117901
H	 0.2183034834	-0.282850725	 1.2570765327	 0.110697
H	-0.7184877828	 1.1747111074	 1.071803509	 0.110966
H	-1.4958111841	-0.6946014539	-1.7081733237	 0.073668
H	-3.0567549379	-1.4331744248	-2.9618929932	 0.076567
H	-3.0776402023	-4.2003406949	-1.6287653192	 0.132261
H	-2.9353855304	-3.9051091164	-3.3758725386	 0.117204
H	-1.6452313416	-3.3845895051	-2.2778120118	 0.118386
H	-5.1807101413	-2.7228911673	-3.2887254627	 0.096758
H	-5.311251332	-2.9206177233	-1.5453658151	 0.11091
H	-6.7451410604	-1.0143703732	-2.3108686163	 0.113407
H	-5.4442418533	-0.4144516089	-1.2689858081	 0.14111
H	-5.3396041409	-0.2144929739	-3.0249771791	 0.109018
