17
gdb 58749	2.62485	1.49042	1.15521	1.6368	68.83	-0.2556	-0.0158	0.2397	1083.3299	0.133456	-458.905043	-458.896359	-458.895415	-458.938591	32.263	
C	 0.0123937405	 1.5407923522	 0.0238701862	-0.417327
C	 0.045500982	 0.0108946723	 0.0098909252	-0.018223
O	 0.7072634053	-0.5315136694	 1.1454201612	-0.424863
C	-1.3390359565	-0.5640280803	-0.105780845	 0.273221
C	-1.8306919812	-2.0328594767	-0.0519020715	-0.273099
C	-3.0914641996	-1.1619730048	 0.1436182824	-0.074368
O	-2.2920087255	-0.2669836017	 1.0231430259	-0.347935
C	-2.5788920806	-0.2400263132	-0.994845741	 0.440929
O	-2.9316805287	 0.4352387748	-1.9036274275	-0.316489
H	 1.0267159602	 1.9310545603	 0.1334567835	 0.126917
H	-0.4224449184	 1.9273641783	-0.9031407741	 0.139754
H	-0.5974279707	 1.9014594276	 0.8584998148	 0.130292
H	 0.6221747023	-0.3383259306	-0.8552340302	 0.107948
H	 0.1653007622	-0.3186408188	 1.914666914	 0.28915
H	-1.7463395538	-2.6466389896	-0.9522412104	 0.116255
H	-1.5192183776	-2.5488140844	 0.8566815846	 0.128683
H	-4.0897725099	-1.432600756	 0.478801272	 0.119155
