21
gdb 63907	2.90988	1.35795	1.22726	2.053	82.89	-0.2443	0.0032	0.2475	1134.2656	0.182721	-387.088748	-387.080249	-387.079304	-387.121358	33.958	
C	 0.1401186028	 1.5096798007	-0.0115983129	-0.424005
C	-0.073769987	-0.0145949875	 0.0014308003	 0.222119
C	-1.5897172535	-0.3137761532	 0.0670114842	-0.406579
C	 0.5361440347	-0.6209660605	-1.2890960816	-0.256291
C	 0.7820316938	-2.1222157265	-1.2122535483	 0.021228
O	 2.1247039653	-2.5222216517	-0.9064503991	-0.259451
C	 1.1021664369	-2.7199044109	 0.0909086059	 0.015471
C	 1.1201190294	-1.8299863341	 1.2796820651	-0.107654
C	 0.587084291	-0.6091499508	 1.232743936	-0.058375
H	 1.2058623013	 1.7599872192	-0.0023388726	 0.119442
H	-0.3037365799	 1.95563593	-0.9084733232	 0.112237
H	-0.3253050795	 1.9814152676	 0.860959176	 0.110411
H	-2.1160968339	 0.1732387565	-0.7619191924	 0.109994
H	-1.7806745163	-1.3897940519	 0.0119724862	 0.118319
H	-2.0237512534	 0.0531261963	 1.0030554347	 0.113071
H	-0.1159190521	-0.3891874586	-2.1386932474	 0.093421
H	 1.5023999909	-0.1453555594	-1.4877119063	 0.115053
H	 0.3037950965	-2.7436660275	-1.968510173	 0.090335
H	 0.8695837602	-3.769393257	 0.2711114156	 0.089174
H	 1.5660525387	-2.2096947613	 2.1947355013	 0.093182
H	 0.5839911441	 0.0132710406	 2.1258251116	 0.088899
