17
gdb 18448	2.82974	2.18587	1.67165	2.1167	69.24	-0.2424	-0.0392	0.2032	845.094	0.141863	-363.818745	-363.811066	-363.810122	-363.850869	28.24	
C	-0.1811928297	 1.5924279998	-0.1350426839	-0.428253
C	 0.047193081	 0.0908194613	-0.0178413284	 0.023936
C	 1.1184508977	-0.6523169978	-0.8663751031	-0.191761
N	 1.6605893495	-1.3643177305	 0.3597512113	-0.147546
C	 2.228906316	-0.3525015953	 1.2799962366	-0.087788
C	 3.0299767632	 0.8547372387	 0.9329464632	 0.14725
O	 3.0813465703	 1.4383854237	-0.1246357308	-0.26584
C	 0.7396226056	-0.5247721127	 1.1993249448	-0.067106
H	 0.7521550979	 2.1547188248	-0.0895197277	 0.146294
H	-0.6660482861	 1.828201271	-1.0885782582	 0.118154
H	-0.8408676619	 1.9467196308	 0.6650251083	 0.11318
H	-0.911530573	-0.4252705791	-0.1360503872	 0.090955
H	 0.7094310827	-1.396944646	-1.5510676337	 0.110802
H	 1.856218543	-0.0358096924	-1.3752184718	 0.146054
H	 2.6447673734	-0.8466585558	 2.1571837558	 0.106177
H	 3.6471284595	 1.2020874878	 1.7932346433	 0.084644
H	 0.2253723712	-0.9313540181	 2.0667750516	 0.100845
