16
gdb 52037	2.64242	0.86487	0.6693	2.4594	69.55	-0.2662	-0.0586	0.2076	1582.1626	0.120204	-475.024889	-475.014886	-475.013942	-475.062076	32.49	
N	 0.0032791865	 1.268530251	-0.1191311901	-0.429975
C	-0.0563045863	 0.0167742199	-0.2501756683	 0.128669
O	-1.2332727841	-0.6210818357	-0.0656702539	-0.197282
C	-1.2013180954	-2.0442933929	-0.1680264195	-0.101313
C	-2.6319625984	-2.5272347788	 0.0021809779	-0.197292
C	-2.7695040803	-4.027069399	-0.2413873814	 0.141787
O	-1.8642651752	-4.7219062778	-0.6217443879	-0.235377
C	-3.2335107483	-2.1867726532	 1.3684185789	 0.149142
O	-4.3626717918	-2.4700291436	 1.6687110765	-0.24237
H	 0.9501161556	 1.595061433	-0.3001658984	 0.234828
H	 0.7699399525	-0.6572639376	-0.5149359535	 0.093837
H	-0.8046282018	-2.3638263717	-1.1372336395	 0.136721
H	-0.558099138	-2.4706945923	 0.613474061	 0.124819
H	-3.2834305726	-2.0342593918	-0.7343123825	 0.155275
H	-3.7809701881	-4.4263521262	-0.0297406081	 0.124809
H	-2.5451954342	-1.6768962732	 2.0741238886	 0.113722
