21
gdb 117088	3.0536	0.8233	0.65956	1.7983	83.59	-0.2391	-0.0476	0.1915	1749.5652	0.179974	-420.443158	-420.432151	-420.431207	-420.480183	38.759	
C	-0.0420954635	 1.5523961689	 0.0531076663	-0.386141
C	-0.013459528	 0.023178229	-0.0007907208	-0.166872
C	-1.4102075407	-0.5896869205	 0.0957394191	-0.278695
C	-1.4085751503	-2.100590024	 0.0757889597	 0.346311
O	-0.3920603023	-2.7658658337	 0.0517177289	-0.331829
C	-2.7523082385	-2.8097458855	 0.08482207	 0.275117
N	-2.633333615	-4.1676762828	 0.2051632997	-0.549599
N	-3.8198068695	-2.1076721198	 0.0070994566	-0.278846
C	-5.083524131	-2.8199092619	 0.0170914552	-0.3414
H	 0.9671801214	 1.9692066189	-0.0187970176	 0.112762
H	-0.6341916766	 1.9702684567	-0.7689114795	 0.113949
H	-0.4837533456	 1.9098292887	 0.9901650507	 0.113696
H	 0.4635678985	-0.3110380475	-0.9290606527	 0.106408
H	 0.6098810717	-0.3713258444	 0.8090346568	 0.109557
H	-1.9247492639	-0.2742086076	 1.0134352604	 0.134196
H	-2.0698558677	-0.2419643027	-0.7079168961	 0.13973
H	-1.6969412425	-4.5242622163	 0.0809313679	 0.269376
H	-3.3985050293	-4.7609235163	-0.0650162749	 0.257514
H	-5.9096237179	-2.1056708909	-0.0119979201	 0.126668
H	-5.1918463493	-3.4865095398	-0.8548423309	 0.109894
H	-5.2005360701	-3.4427033385	 0.9180102015	 0.118202
