17
gdb 96614	2.54335	0.97074	0.70928	1.5786	84.9	-0.2382	-0.0673	0.1709	1583.1878	0.132913	-418.005207	-417.994568	-417.993624	-418.042723	36.049	
C	 0.031261208	 1.4539255457	 0.0040800537	-0.342921
N	 0.055167833	 0.0042073821	-0.0099577826	-0.286201
C	-1.0702993764	-0.5968543948	-0.0989994835	 0.302426
N	-2.3229220651	-0.0593805788	-0.2126953784	-0.561564
C	-1.0851681755	-2.1098588603	-0.1137482004	 0.144134
O	-2.1475633682	-2.7082775665	-0.1262466613	-0.326741
C	 0.1860269792	-2.7803437857	-0.1042699535	 0.07905
C	 1.2121159297	-3.4151039846	-0.1055910259	 0.128082
C	 2.4600599175	-4.1556638889	-0.1029382318	-0.507143
H	 1.0531546771	 1.8388735738	 0.0340421528	 0.127409
H	-0.4656023969	 1.8682820552	-0.8874594943	 0.118829
H	-0.4983671855	 1.8515790713	 0.8859556874	 0.110652
H	-2.4835407005	 0.8896477938	 0.0772860324	 0.257728
H	-3.0816230652	-0.7168249317	-0.1049951871	 0.270518
H	 2.302572043	-5.2111693147	-0.3474488465	 0.158798
H	 3.164633322	-3.7351858657	-0.8285205715	 0.163153
H	 2.9332264438	-4.1041545802	 0.8840641605	 0.16379
