11
gdb 132933	3.13612	1.37061	0.95377	2.5454	57.55	-0.2487	-0.0702	0.1785	1059.2843	0.064157	-541.791814	-541.784967	-541.784022	-541.823438	25.43	
F	 0.0238821201	-0.0020142979	 0.0032011377	-0.051689
C	-0.0205341047	 1.3264183829	 0.0108354757	 0.055136
C	-1.1817241218	 2.0067958114	 0.0292649583	-0.016851
O	-1.229112819	 3.3460938971	 0.0369916406	-0.219066
C	-0.0650548362	 4.1547766227	 0.0264512293	 0.456022
O	-0.2205517416	 5.3425288601	 0.034711008	-0.33404
C	 1.1843125459	 3.4241904853	 0.0066119221	-0.423223
C	 1.200477595	 2.0730898148	-0.0007741232	 0.249953
F	 2.3281887449	 1.3867158595	-0.0188216206	-0.036798
H	-2.1548905149	 1.5327287283	 0.0391560809	 0.167443
H	 2.0986965923	 4.0010255158	-0.0019977287	 0.153112
