17
gdb 52660	3.50999	0.83086	0.69562	3.2443	78.66	-0.2507	0.0031	0.2538	1584.0816	0.133372	-417.977936	-417.96714	-417.966196	-418.015855	36.665	
C	-0.001061461	 1.4814170327	 0.0049772692	-0.500719
C	-0.0180343847	 0.0263231098	-0.0021669149	 0.109981
C	-0.0302000888	-1.1769234382	 0.0055872494	 0.08483
C	-0.0544496711	-2.6363380054	-0.0299424294	-0.204138
N	-1.4277624258	-3.1312137326	-0.077783773	-0.505304
C	 0.8513047855	-3.1338629795	-1.2129327954	-0.010724
O	 2.1837563698	-2.6873159695	-1.1344332666	-0.39767
C	 0.780575028	-4.6092789807	-1.2926438026	 0.243519
N	 0.7317655305	-5.7643767456	-1.3047212093	-0.319948
H	 0.7368446567	 1.8717471339	-0.7040917707	 0.15463
H	-0.978982572	 1.8894943377	-0.2721665927	 0.153469
H	 0.2516972374	 1.8692882906	 0.997629509	 0.153956
H	 0.3986303025	-3.0293471471	 0.8927586716	 0.114335
H	-1.9075463488	-2.7642040972	-0.8939361863	 0.236339
H	-1.4378952859	-4.1455712681	-0.1365185056	 0.248268
H	 0.4487480382	-2.7189372427	-2.1428824878	 0.142039
H	 2.5723103296	-3.0213408581	-0.317257045	 0.297136
