17
gdb 19263	3.43547	1.77914	1.3457	3.7753	67.73	-0.244	-0.0117	0.2323	945.7127	0.142161	-363.846682	-363.839032	-363.838088	-363.87879	28.337	
C	-0.1350437322	 1.536922289	 0.0170363837	-0.383018
C	 0.0889327527	 0.0237265489	 0.1215110834	-0.207229
C	 0.6872946464	-0.557736589	-1.1587638591	-0.11788
C	 0.8489937726	-2.0677841634	-1.3650821135	-0.056958
C	-0.4408988747	-2.749113408	-1.5384092155	-0.245752
N	 0.1278200847	-2.0252843417	-2.7189458459	-0.172056
C	-0.1497998251	-0.6193864759	-2.4538015278	 0.390965
O	-0.7674010036	 0.1588045783	-3.1113952219	-0.299014
H	 0.8125093226	 2.0656565535	-0.1337676339	 0.116655
H	-0.7864660368	 1.7763952607	-0.827980139	 0.148674
H	-0.5945976307	 1.9283201053	 0.9291745171	 0.114855
H	 0.761014938	-0.2022375278	 0.9587561268	 0.104722
H	-0.8609820188	-0.4745861622	 0.3469420116	 0.102173
H	 1.62684214	-0.0429284939	-1.3972493483	 0.114836
H	 1.7839502854	-2.6085188805	-1.2815283599	 0.11276
H	-0.4408011041	-3.8246815993	-1.6810098723	 0.141135
H	-1.3429212864	-2.3571849742	-1.0761672955	 0.135134
