23
gdb 104437	2.81206	1.217	1.09114	2.5221	81.08	-0.2513	0.0751	0.3263	1244.5056	0.206826	-425.44262	-425.433454	-425.43251	-425.475843	36.339	
C	-0.1855173984	 1.6467563196	-0.0642825102	-0.426634
C	-0.0373018759	 0.1182944401	-0.0749940188	 0.333558
C	-1.4236939484	-0.5437655954	-0.0018546619	-0.072224
O	-2.1158771304	-0.1950284615	 1.1791301657	-0.428962
C	 0.7391019751	-0.3971603736	-1.3002058779	-0.22348
C	 2.2428090643	-0.0971035524	-1.2065900933	-0.216281
C	 2.7959819663	-0.6112065779	 0.1284071151	-0.193086
C	 1.9709240957	-0.0502420181	 1.2863950236	-0.072364
O	 0.5899560207	-0.3448369929	 1.1398007994	-0.310145
H	 0.7768913743	 2.1620317948	-0.0186268212	 0.111042
H	-0.6951344869	 1.9807355257	-0.9737774769	 0.113805
H	-0.7879055803	 1.9488960053	 0.7948279736	 0.132542
H	-2.0403910731	-0.2180615771	-0.8462936257	 0.100885
H	-1.2894974908	-1.6343519703	-0.0765189207	 0.083726
H	-1.4912966708	-0.3630718562	 1.8959116818	 0.288584
H	 0.5998135098	-1.4839956361	-1.3648623147	 0.096542
H	 0.3124189293	 0.0349920252	-2.2122392173	 0.095187
H	 2.7693334357	-0.5595547308	-2.0480392364	 0.096895
H	 2.41885581	 0.983093912	-1.2862628588	 0.099723
H	 2.7426695503	-1.7068621075	 0.1526966594	 0.101978
H	 3.8478691563	-0.3315626215	 0.256136618	 0.093622
H	 2.2667029439	-0.4990028406	 2.2396897824	 0.1048
H	 2.1324479832	 1.0359789793	 1.371326035	 0.090285
