18
gdb 106446	2.70169	1.29773	1.03629	2.9438	79.04	-0.2294	0.0242	0.2536	1184.3436	0.146667	-401.82179	-401.813153	-401.812209	-401.855247	32.768	
O	-0.0582223381	 1.4326037442	 0.0566298342	-0.420375
C	-0.01493731	 0.0187922731	-0.0731300453	-0.22763
C	-1.4339858252	-0.4806818429	-0.0395401901	 0.329481
C	-2.4934054255	-0.3688595923	 1.0775227037	-0.200825
N	-3.2622988573	-1.1489090692	-0.0067616603	-0.156113
C	-2.6124316005	-0.1437515088	-0.9811420503	-0.215734
C	-1.9336031844	-1.9519631098	-0.1526082337	-0.227106
C	-1.7388922997	-2.714730421	-1.3671268573	 0.332692
C	-1.5443678101	-3.3709972074	-2.3562480735	-0.428084
H	 0.8418135875	 1.7673569412	 0.0067783859	 0.291961
H	 0.4542865711	-0.2899337022	-1.0209189617	 0.099212
H	 0.5583708928	-0.4463355583	 0.7458703095	 0.088695
H	-2.3387063093	-0.9364822257	 1.9999879454	 0.097369
H	-2.9155615915	 0.6172333884	 1.2771856209	 0.112882
H	-3.0406458623	 0.8578790078	-0.9134826469	 0.11036
H	-2.5702959465	-0.4991533422	-2.0118756579	 0.117274
H	-1.7544822521	-2.5814612374	 0.7253617793	 0.098664
H	-1.3852567588	-3.9497897976	-3.2324339319	 0.197277
