20
gdb 119587	3.05466	1.01917	0.8869	1.4708	75.08	-0.2345	0.0696	0.3041	1361.2843	0.170789	-440.233249	-440.224038	-440.223094	-440.267648	34.473	
O	-0.0670753228	 1.4380897125	-0.1454044162	-0.420498
C	-0.0126529914	 0.0206126376	-0.1774038456	-0.071295
C	-1.405335519	-0.5000521996	 0.1796868471	-0.338376
C	-1.4521198692	-1.995175471	 0.2429820923	 0.337942
N	-1.4253750033	-2.8460516537	-0.981202789	-0.398044
C	-2.5284518322	-2.9972489494	 0.008616656	-0.120581
C	-1.9854032507	-3.9390169213	 1.0812514325	-0.259765
C	-0.8085246006	-2.9108719709	 1.3064607291	 0.099554
O	 0.5056899229	-3.3237424807	 1.0519117973	-0.439927
H	 0.8137377699	 1.7768233176	-0.3293940647	 0.2873
H	 0.2748782414	-0.3486069777	-1.174750299	 0.088965
H	 0.7226953842	-0.375835715	 0.5385837161	 0.109359
H	-1.6928965679	-0.0762733216	 1.1495633364	 0.114497
H	-2.1279895852	-0.122974327	-0.555258225	 0.102032
H	-1.7760868617	-2.2755613254	-1.7502269159	 0.228199
H	-3.5569596563	-2.8401111146	-0.2932485041	 0.096037
H	-2.6327401194	-4.0329772683	 1.9561997233	 0.103406
H	-1.6839135161	-4.930011458	 0.7328529832	 0.104729
H	-0.8235328903	-2.477696459	 2.3096379062	 0.088743
H	 0.5121588276	-3.5756223744	 0.1176400498	 0.287724
