20
gdb 107788	2.58408	1.58325	1.28041	2.7087	77.87	-0.2292	0.0594	0.2887	1067.0214	0.170854	-403.076794	-403.068288	-403.067344	-403.109744	32.848	
C	-0.0560106895	 1.5763970559	 0.032331855	-0.421559
C	 0.0933920083	 0.0674417136	 0.083783829	 0.066168
N	 1.1072942619	-0.5688906855	-0.8298046889	-0.161474
C	 2.3806241858	-0.6288942035	-0.0186304185	-0.041591
C	 2.1540131707	-0.0353249779	 1.3701962424	-0.284628
C	 0.7376530169	-0.6703757957	 1.2833499481	 0.313478
C	-0.0415802525	-1.0298055442	 2.5153934913	-0.222017
O	-0.3722325835	 0.1855169784	 3.1787088901	-0.420689
C	 1.3183855266	-1.64185713	 0.1776567592	-0.126231
H	 0.8986786399	 2.0930735568	 0.157187397	 0.119037
H	-0.4733583247	 1.8798893282	-0.9332544636	 0.119149
H	-0.7315036927	 1.909655797	 0.8262049002	 0.130294
H	-0.865825554	-0.4078617791	-0.1554032716	 0.072739
H	 3.2975287943	-0.7026021347	-0.5882868935	 0.095508
H	 2.7687744595	-0.5573543567	 2.109281695	 0.100425
H	 2.2328443801	 1.0433943297	 1.5256965275	 0.103625
H	-0.9490123004	-1.5877232612	 2.2300302403	 0.087036
H	 0.5579564098	-1.6894079385	 3.164096898	 0.087073
H	-0.8852211456	-0.02873315	 3.9634764351	 0.290573
H	 1.2407778792	-2.7019480225	-0.0266216319	 0.093084
