25
gdb 122873	3.12521	0.73889	0.70487	2.0898	86.44	-0.261	0.0678	0.3288	1777.4247	0.225649	-426.627407	-426.615759	-426.614815	-426.66484	42.294	
C	-0.0138733727	 1.5412595683	-0.0125889395	-0.398248
C	 0.0759122949	 0.0050556575	 0.0156498911	 0.234019
C	 0.8438486441	-0.4531378055	 1.2683295295	-0.398906
C	-1.3380381988	-0.6011393555	 0.0237424379	-0.410718
C	 0.7924872591	-0.4926028768	-1.2487902941	-0.047944
O	 2.1078092259	 0.0262458399	-1.3022302304	-0.26967
C	 2.8202702025	-0.3394181904	-2.4688851752	-0.067809
C	 4.2447143738	 0.1619265068	-2.294043409	-0.060164
O	 4.8648333729	-0.4245637572	-1.1671476062	-0.422062
H	 0.9817662952	 1.9882946941	-0.0682302627	 0.124979
H	-0.5871443599	 1.8859485272	-0.8807250097	 0.104519
H	-0.5116472626	 1.9177786481	 0.8872128423	 0.106912
H	 0.3316564807	-0.1218911068	 2.1778321169	 0.108874
H	 0.9216746985	-1.5454964141	 1.3077690227	 0.10671
H	 1.8562678811	-0.0416020719	 1.2811773804	 0.118784
H	-1.9097477718	-0.2962595685	-0.8599700814	 0.110043
H	-1.305039405	-1.6962231192	 0.0426349854	 0.110505
H	-1.8927919254	-0.2704127574	 0.9078174218	 0.114235
H	 0.8244252808	-1.5954758918	-1.2571606954	 0.083828
H	 0.2305867511	-0.1751362708	-2.1436732117	 0.082143
H	 2.8215541972	-1.4349687779	-2.5876871746	 0.09458
H	 2.3566943883	 0.1022532494	-3.3666208272	 0.0866
H	 4.8419033205	-0.1084182574	-3.1711148137	 0.107196
H	 4.2301558712	 1.2613131501	-2.2204991266	 0.092275
H	 4.2370245684	-0.3228319702	-0.4423511905	 0.28932
