18
gdb 44909	2.75917	1.72101	1.48382	2.3025	76.28	-0.2177	-0.018	0.1997	952.3796	0.151178	-401.978718	-401.971836	-401.970892	-402.00986	28.271	
O	 0.0268121905	 0.0037995719	 0.0057940391	-0.318878
C	-0.0030546475	 1.2042758035	 0.0008887111	 0.414022
C	-1.2552178708	 2.1054570786	-0.00796712	-0.337034
C	-0.6733628078	 3.538102837	-0.0695012202	-0.025572
C	-0.4422984985	 4.1466828393	 1.3234975416	-0.231465
C	 0.6778171811	 3.4384391485	 2.0414165774	-0.056222
C	 1.4458228101	 2.5350698445	 1.429833753	-0.04206
C	 1.1919526161	 2.190094646	-0.0203239291	-0.171484
N	 0.6629352154	 3.3824090812	-0.7031980721	-0.296603
H	-1.8377688337	 1.8742684923	-0.906488214	 0.12752
H	-1.8918230497	 1.8894529364	 0.8547204759	 0.130065
H	-1.290388359	 4.2073081685	-0.6728100442	 0.077369
H	-0.2082151763	 5.2147525785	 1.2278211529	 0.118141
H	-1.3671728616	 4.0868865595	 1.9131326823	 0.104951
H	 0.8472215145	 3.6901414161	 3.0850704606	 0.094378
H	 2.220000692	 1.9874996584	 1.9561411211	 0.103312
H	 2.0699228389	 1.7764528318	-0.5168796525	 0.089815
H	 0.5358430764	 3.1634965279	-1.6891232728	 0.219745
