18
gdb 114477	3.49625	1.2856	1.19751	1.6142	70.44	-0.2358	0.0418	0.2777	1080.4942	0.148505	-438.986221	-438.978622	-438.977678	-439.018618	29.703	
O	-0.0240026185	 1.4428856765	-0.2447524517	-0.419837
C	 0.1125136903	 0.0742249463	 0.0982625666	-0.097459
C	-1.2481965228	-0.5982922003	 0.1010578012	 0.116828
O	-1.952262196	-0.5020348466	-1.1832653312	-0.335406
C	-2.4295044322	-1.8691663378	-1.050252758	 0.102677
C	-1.6409276618	-2.9360666117	-1.822637487	-0.039937
C	-0.2266598297	-2.5664679939	-1.9399417891	-0.243176
N	-0.6767355651	-3.1237237394	-0.6433979506	-0.164571
C	-1.5063920303	-2.1144895297	 0.1415330755	-0.067628
H	-0.5030121947	 1.4702195807	-1.0813917737	 0.295743
H	 0.8260701089	-0.4359763608	-0.5602278099	 0.10144
H	 0.5242170711	 0.0392844724	 1.1132292817	 0.116409
H	-1.8620561561	-0.1028559433	 0.8683598714	 0.090287
H	-3.5181893313	-1.9410242711	-1.037822945	 0.089271
H	-2.0877001969	-3.7864399635	-2.3277396035	 0.099511
H	 0.4269508615	-3.2623239042	-2.457107341	 0.127134
H	 0.0328726572	-1.5229366345	-2.0527582326	 0.131532
H	-1.8181530236	-2.5602398891	 1.0841387967	 0.097181
