23
gdb 92146	2.75665	1.44425	1.39038	0.4137	88.54	-0.238	0.086	0.324	1116.7781	0.207611	-351.14989	-351.141524	-351.14058	-351.182175	33.937	
C	-0.2400254812	 1.5665071761	 0.0684300978	-0.397088
C	 0.0229306463	 0.0577927224	-0.0146216428	 0.014814
C	 0.7204073588	-0.4222986248	-1.3281085203	-0.23105
C	 2.1158704625	-0.8889805181	-0.8884705223	-0.086641
C	 2.9345955036	 0.2872565818	-0.269680971	-0.233473
C	 2.4264191857	-0.1383225497	 1.1067597356	-0.116582
C	 0.9395631412	-0.4886627523	 1.0819157372	-0.088009
C	 1.9384996868	-1.4733532651	 0.5531404073	 0.344566
C	 2.1642588012	-2.8851251885	 1.002384088	-0.518285
H	 0.6860405106	 2.1440477078	-0.0063479133	 0.119992
H	-0.9077188631	 1.895432252	-0.7353706687	 0.107413
H	-0.7143389493	 1.8276562037	 1.0209950411	 0.107936
H	-0.9468375499	-0.4474916655	 0.0753385045	 0.065538
H	 0.1637999468	-1.2557557607	-1.7714900206	 0.089882
H	 0.7730453008	 0.3689388473	-2.0845262424	 0.090627
H	 2.6412488951	-1.5002504454	-1.6238664703	 0.059077
H	 4.011395674	 0.1151067989	-0.357218619	 0.095072
H	 2.7136911272	 1.2983600051	-0.6305268646	 0.08452
H	 2.9229549031	 0.0549360576	 2.0520863416	 0.073006
H	 0.5145690225	-0.6764974634	 2.0640337899	 0.071072
H	 1.4470814275	-3.5747937849	 0.5397763333	 0.115678
H	 3.1706393952	-3.2369124517	 0.7456689605	 0.115066
H	 2.0508119245	-2.9737822526	 2.0882882283	 0.116868
