20
gdb 112459	2.51896	1.28593	0.90845	3.7714	82.49	-0.2375	0.0134	0.2509	1316.1576	0.172184	-403.204743	-403.195834	-403.19489	-403.23903	33.354	
C	 0.1127282454	 1.6493220587	-0.069660697	-0.4021
C	 0.0941420788	 0.1186874503	-0.0993667561	-0.159707
C	 0.6329032666	-0.5423496482	 1.1913074841	-0.010092
N	-0.1498684184	-0.1619178388	 2.3595168352	-0.317693
C	-0.8483380696	-0.950411477	 3.2289350392	 0.397838
O	-1.4535676845	-0.4780905492	 4.1739821476	-0.381858
C	-0.8353281833	-2.4487789982	 2.9593998244	-0.380331
C	 0.0340721881	-2.8857385672	 1.8198382898	-0.074882
C	 0.6923808671	-2.0340310575	 1.0418090682	-0.054185
H	 1.1216372225	 2.0325673555	 0.122221429	 0.117389
H	-0.2209377071	 2.0604783456	-1.026741123	 0.123606
H	-0.5539555174	 2.0491762044	 0.7014663615	 0.122338
H	-0.924369785	-0.2464551748	-0.2743400057	 0.107839
H	 0.7076864443	-0.2364715919	-0.9363375756	 0.099735
H	 1.6623674507	-0.1711001533	 1.3345382567	 0.091266
H	-0.1839000456	 0.818100957	 2.6009280624	 0.243866
H	-0.5395875248	-2.9380288936	 3.8958463337	 0.141628
H	-1.8776010311	-2.7562074122	 2.8002169107	 0.141966
H	 0.1166243687	-3.9553734529	 1.6440608555	 0.097242
H	 1.3109717846	-2.3924032169	 0.2241500793	 0.096136
