17
gdb 33784	3.63462	1.4099	1.22231	1.5894	74.06	-0.2493	0.0333	0.2827	1030.0949	0.13622	-421.762501	-421.755125	-421.754181	-421.793976	29.873	
C	-0.0438483774	-1.1868000546	-0.0838547295	-0.348886
C	-0.040759395	 0.0141956367	-0.0480626608	 0.186419
C	 0.010436737	 1.4577236605	 0.0387440083	 0.248908
C	-0.2119785576	 2.1772425252	 1.41154218	-0.310285
C	 0.6435185298	 3.3131025822	 0.785914789	 0.089319
C	 1.3754312785	 2.2164490182	-0.0335893526	-0.254792
O	-0.1316357169	 4.1083707419	-0.1112696476	-0.273193
C	-1.1937304841	 3.3656455666	-0.6702535219	 0.017822
O	-0.8421091486	 2.029241766	-0.9688911235	-0.313138
H	-0.0546654129	-2.248028469	-0.1240671095	 0.189378
H	-1.2302245502	 2.3770618622	 1.7471759855	 0.117931
H	 0.3383182564	 1.6609811293	 2.1989542862	 0.122051
H	 1.2053261492	 3.9956685242	 1.4233692117	 0.088209
H	 2.159845512	 1.7124528311	 0.5349880418	 0.109324
H	 1.7172544655	 2.487226567	-1.0329696938	 0.114534
H	-2.0572076913	 3.3785776299	 0.0128084385	 0.092561
H	-1.4713919346	 3.8432398426	-1.6131002818	 0.123838
