17
gdb 56689	2.54568	1.27715	1.14874	2.5527	68.06	-0.2612	0.0001	0.2613	1125.8141	0.13513	-455.113456	-455.104195	-455.103251	-455.147661	33.447	
N	-0.113093456	 1.5749466426	-0.0858384004	-0.575338
C	-0.0468982095	 0.1313004798	-0.0024056475	 0.233742
C	 0.183715558	-0.4650822008	 1.4060702783	-0.098741
O	-0.968480323	-1.3221369069	 1.2624388801	-0.273759
C	-1.4077992197	-0.5918289891	 0.0987066342	-0.112968
C	 0.8518410253	-0.5432193174	-1.07067917	-0.058321
O	 0.4025060682	-0.293041965	-2.3875911901	-0.415355
C	 2.252939138	-0.1092568334	-0.8913313464	 0.243157
N	 3.3243027931	 0.2976843822	-0.7397514793	-0.317488
H	 0.8117841356	 1.9970312686	-0.0674446864	 0.246611
H	-0.5838561923	 1.8775337584	-0.9330196876	 0.231702
H	 1.1051008101	-1.0336369272	 1.5749560541	 0.114928
H	 0.0541845665	 0.2801410138	 2.1995134444	 0.114876
H	-2.2315441053	 0.0953961308	 0.3276570251	 0.108522
H	-1.6873496486	-1.2497075716	-0.7300620606	 0.120046
H	 0.8041141074	-1.6291694518	-0.9380769144	 0.151058
H	 0.531141002	 0.6444668768	-2.5740268933	 0.287328
