18
gdb 24676	3.62179	1.59508	1.14281	1.3178	86.65	-0.1977	0.0005	0.1982	1052.8264	0.15173	-364.870249	-364.863371	-364.862426	-364.90132	28.213	
C	-0.046204018	 1.4974730531	 0.0611614024	-0.262052
C	 1.3885947293	 2.0633574307	 0.0046696201	-0.323858
C	 2.2103819086	 1.3607934951	-1.0326784542	 0.328979
C	 3.2747849921	 1.722062381	-1.8216656459	-0.286911
C	 3.7058625012	 0.5589675464	-2.5304910989	-0.16537
C	 2.8945856488	-0.4786056647	-2.1494787199	-0.108243
N	 1.9809970923	 0.0108364752	-1.2379150733	-0.048626
C	 0.9237667016	-0.6728959887	-0.6281261389	 0.036515
C	-0.0429912058	-0.0115056449	 0.0109354051	-0.135043
H	-0.5491771248	 1.8512075587	 0.9668926875	 0.104789
H	-0.6318971639	 1.8857375717	-0.7856451774	 0.117131
H	 1.3740571727	 3.1393464143	-0.190609759	 0.11254
H	 1.853893278	 1.9308317557	 0.9928955462	 0.113887
H	 3.7080803725	 2.7094559974	-1.878675851	 0.092848
H	 4.517544021	 0.4990425139	-3.2390169463	 0.096028
H	 2.859299929	-1.5113183134	-2.4579835175	 0.116346
H	 0.9591151583	-1.7514849097	-0.724162124	 0.113703
H	-0.853995083	-0.5661000517	 0.4677214051	 0.097337
