18
gdb 16930	3.42993	2.0943	1.87694	3.02	70.12	-0.2303	-0.0075	0.2228	799.721	0.157235	-347.850696	-347.844374	-347.84343	-347.880997	25.875	
O	 0.0018326018	 0.0067784398	 0.0491414953	-0.333609
C	-0.016433314	 1.2093344925	 0.0125949222	 0.426164
C	-1.2647140202	 2.1143673265	-0.0035391624	-0.324854
C	-0.6458717239	 3.5261053411	 0.0506777542	-0.01193
C	-0.0166058637	 3.7302157306	 1.4489072182	-0.207492
C	 1.2284704398	 2.7858499855	 1.4200684149	-0.221481
C	 1.1783516746	 2.1623368644	-0.007670907	-0.107232
C	 0.6106209207	 3.3376816962	-0.8335464003	-0.235067
H	-1.8126342656	 1.9440987561	-0.9379855088	 0.124932
H	-1.940343789	 1.8720384796	 0.8218875763	 0.121465
H	-1.326436396	 4.3226968173	-0.2535327051	 0.065929
H	 0.2832758967	 4.7721701528	 1.5923233148	 0.100162
H	-0.7143305256	 3.4801063277	 2.2531330384	 0.101048
H	 2.1585500374	 3.3484509483	 1.5398535374	 0.107224
H	 1.2064751214	 2.0233525571	 2.2027078955	 0.115764
H	 2.1047900309	 1.6912413414	-0.3328724802	 0.0782
H	 0.3756762405	 3.0688052957	-1.8682696169	 0.101171
H	 1.2698682541	 4.2108616973	-0.8374786865	 0.099607
