15
gdb 4881	5.03551	1.34547	1.13166	5.2215	63.25	-0.2132	0.0266	0.2398	1036.0259	0.119436	-399.862269	-399.854707	-399.853763	-399.894467	27.492	
C	 0.0158224337	 1.5553033782	 0.1920101509	-0.373423
C	-0.0133777546	 0.0437868504	-0.0959968308	-0.303482
C	-1.3854253457	-0.5391080344	-0.0998627068	 0.305012
C	-2.1069273352	-1.1100441201	-1.0745442776	-0.122168
O	-3.3459472486	-1.4937365799	-0.6008668537	-0.208176
C	-3.4244641386	-1.1541641813	 0.7365899866	 0.485151
O	-4.3751296037	-1.3554881029	 1.4408681506	-0.402108
N	-2.2126814065	-0.5665971088	 1.0303728593	-0.421994
H	 1.0440181447	 1.927699757	 0.1816076763	 0.124834
H	-0.5582317258	 2.1055110095	-0.5588557086	 0.132623
H	-0.4113088843	 1.787035644	 1.1730406226	 0.118209
H	 0.4394578422	-0.1567842976	-1.0721385203	 0.124031
H	 0.6062014758	-0.4801822374	 0.644386318	 0.118398
H	-1.8960235131	-1.3141368822	-2.1094950508	 0.149698
H	-1.9955372406	-0.2266826546	 1.9503827643	 0.273394
