17
gdb 117871	2.27182	0.80401	0.61392	1.9119	87.28	-0.2477	-0.0244	0.2234	1772.1586	0.131876	-421.748643	-421.738116	-421.737172	-421.785141	36.447	
C	 0.9900896857	 1.1971612993	-0.2870003202	-0.226137
O	 0.9676887104	-0.2052867288	-0.4196625003	-0.226923
C	-0.1881916742	-0.6800541358	-1.0580274569	-0.065819
C	-0.0802831932	-2.2095433343	-1.1853815693	-0.089852
O	-1.3163811434	-2.7538961676	-1.634479003	-0.412189
C	 1.038222738	-2.6086516238	-2.0371150596	 0.458487
C	 1.9287451085	-2.9407555265	-2.7868328924	-0.338631
C	 2.932980523	-3.3140420329	-3.6252846689	 0.294299
C	 3.822110564	-3.6462349533	-4.3716984547	-0.547466
H	 0.9621987461	 1.698600831	-1.2668880413	 0.108514
H	 0.1417367051	 1.5636432527	 0.311926919	 0.107016
H	 1.9213193517	 1.4608649084	 0.2193231994	 0.132484
H	-1.0967139864	-0.4545250582	-0.4774487073	 0.101027
H	-0.3066668029	-0.2327899586	-2.0599871025	 0.08537
H	 0.073892011	-2.6130866108	-0.177612066	 0.135724
H	-1.3647535684	-2.6246183033	-2.5882093415	 0.290036
H	 4.606400355	-3.9384946574	-5.0249210546	 0.194061
