15
gdb 51153	3.16972	1.16091	0.94127	4.0052	66.61	-0.2545	-0.0396	0.2148	1204.8428	0.109428	-457.742756	-457.73437	-457.733426	-457.777045	29.603	
O	 0.2116691252	-0.2407891792	-0.1833187978	-0.228888
C	 0.1111327951	 0.9542249803	-0.2522418778	 0.158948
C	 1.2734386914	 1.9149698786	-0.0193482321	-0.417119
C	 1.281337261	 3.041488546	-1.0023567248	 0.281996
O	 1.7467427476	 2.7985114313	-2.3535804462	-0.27024
C	 2.3452699971	 3.8704841683	-1.6324539063	-0.051184
C	 1.4283783225	 5.0836762533	-1.8412278776	-0.37012
C	 0.3228121868	 4.2283758332	-1.149143149	 0.385329
O	-0.7735200523	 4.4563021797	-0.7338024432	-0.29598
H	-0.8593712492	 1.4499877965	-0.4710830434	 0.107956
H	 1.1448070929	 2.3315340768	 0.9902050373	 0.144408
H	 2.2106885579	 1.35368233	-0.0450743127	 0.142662
H	 3.4124841495	 3.8355285285	-1.4518910643	 0.128607
H	 1.6665157073	 5.9632821901	-1.2355339332	 0.138624
H	 1.2661667073	 5.3737253766	-2.8806467088	 0.145002
