19
gdb 106994	2.97731	1.30979	1.04037	2.5999	76.86	-0.227	-0.0128	0.2142	1206.0262	0.157185	-423.005588	-422.99632	-422.995375	-423.03972	33.853	
C	 0.1244621855	 1.3575583961	-0.2058304081	-0.264906
O	-0.1769775186	-0.0105261629	 0.0563702475	-0.279872
C	 0.4915736218	-0.5142001447	 1.1393903045	 0.345685
C	 1.9431052101	-0.9883735042	 1.0501595239	-0.349149
C	 0.8869120744	-1.9748398546	 1.4375854299	-0.168245
C	 0.5244824863	-1.8099997522	 2.9287220785	-0.099938
C	 1.5472679719	-2.0895054883	 4.0221894199	-0.414626
C	 0.1134613333	-0.3455980201	 2.5871176975	 0.327662
O	-0.4575595937	 0.5103084251	 3.2036729381	-0.330045
H	 1.1920198534	 1.4927658402	-0.4279053475	 0.11129
H	-0.4649436114	 1.6457547086	-1.078284881	 0.130887
H	-0.1488007608	 1.9910660887	 0.6455351708	 0.142384
H	 2.2824215026	-1.0522298973	 0.020785982	 0.129909
H	 2.701224361	-0.6598720322	 1.7544413214	 0.121413
H	 0.6462613581	-2.8373672247	 0.8302703438	 0.112221
H	-0.4116458584	-2.3395602264	 3.1483867772	 0.108218
H	 2.5113116879	-1.6168252673	 3.8123339989	 0.119167
H	 1.1873198159	-1.70180431	 4.9801845203	 0.136462
H	 1.7197474205	-3.164536494	 4.1363141425	 0.121482
