19
gdb 73569	2.19233	2.08991	1.55755	2.2396	73.2	-0.2313	0.0762	0.3075	952.247	0.160085	-422.990499	-422.982979	-422.982034	-423.022102	30.123	
C	 0.1208179961	 1.5955391406	-0.0939684064	-0.485332
C	-0.0053556784	 0.0821033927	-0.0038240399	 0.276483
C	-1.3888222383	-0.4909109004	-0.3603347327	-0.293802
C	-1.6369626374	-1.6004490585	 0.6900066627	-0.071775
O	-0.8128310521	-1.2962464646	 1.8246512398	-0.263996
C	 0.2991832927	-0.5627231535	 1.3967521435	 0.047326
C	 1.5040387261	-1.3015980273	 0.761446126	-0.010573
O	 1.0163358862	-2.0768838323	-0.3433952251	-0.245267
C	 1.2288989715	-0.6792766418	-0.5471149484	-0.026125
H	 1.1154131972	 1.9336962967	 0.2180149871	 0.116449
H	-0.0396960964	 1.9451078898	-1.1203152752	 0.120527
H	-0.6175828381	 2.0880619042	 0.5471867022	 0.124795
H	-2.1439551758	 0.2966468255	-0.2725259149	 0.102095
H	-1.4342866988	-0.8874638294	-1.3778444235	 0.109794
H	-2.672612002	-1.6277102242	 1.0435253662	 0.097388
H	-1.3736517874	-2.5828233758	 0.2876875479	 0.117181
H	 0.6020421053	 0.1343414413	 2.1841886039	 0.080557
H	 2.4346144433	-1.6261462613	 1.21338025	 0.103967
H	 1.9057019761	-0.3865017319	-1.3427376934	 0.100307
