17
gdb 54736	4.27864	1.15899	1.05689	3.1771	73.05	-0.2198	0.0364	0.2562	1150.154	0.1363	-417.955086	-417.947376	-417.946432	-417.98755	30.419	
N	-0.0854334807	 1.3243949226	 0.0972353204	-0.536843
C	-0.0035141893	-0.0492947587	 0.0303144039	 0.393194
O	 0.9048711944	-0.6928489331	 0.5116510398	-0.366938
N	-1.0795569366	-0.616252521	-0.6837827493	-0.147731
C	-2.4228217353	-0.6664722888	-0.0641736834	-0.059913
C	-3.4525400672	-1.1935346532	-1.1069689845	-0.085452
C	-2.8090719182	-1.535579367	-2.4249431802	-0.284399
C	-2.6144401702	-2.4611497054	-1.2556161204	-0.084404
C	-1.6057571236	-1.8944883644	-0.2107598843	-0.024879
H	 0.7710638776	 1.7853747619	 0.3606935695	 0.262436
H	-0.6533330603	 1.7963622304	-0.5881576646	 0.25942
H	-2.6373432626	-0.0778272531	 0.8182197748	 0.113558
H	-4.5225432704	-1.1009459778	-0.9765502245	 0.095429
H	-3.5005044106	-1.903019306	-3.1767722307	 0.111654
H	-1.9828703865	-0.9474529229	-2.804774633	 0.132623
H	-2.9454338427	-3.4909058404	-1.2543020128	 0.09736
H	-1.0488677478	-2.4525872133	 0.5287318194	 0.124885
