17
gdb 54703	3.54628	1.44351	1.23962	4.6204	71.16	-0.2265	0.0254	0.2519	1019.5639	0.136826	-417.953007	-417.945154	-417.94421	-417.986329	29.721	
N	-0.0471410381	 1.3251194112	-0.1374050974	-0.522603
C	 0.131174035	-0.0139699608	 0.0688171639	 0.386773
O	 1.2136135552	-0.4946452195	 0.3392252028	-0.35704
C	-1.1657232852	-0.814275497	-0.036953658	-0.072742
C	-1.9397778619	-0.9406062532	-1.3463608935	-0.116444
C	-1.347717413	-2.1703664321	-2.068025976	-0.084122
C	-0.2412429637	-2.6885330906	-1.1653017637	-0.181224
N	-1.1007282953	-2.3253388771	 0.0385197245	-0.174477
C	-2.3087570235	-2.3329700387	-0.9316194838	-0.027882
H	 0.7631789903	 1.922694047	-0.1237976207	 0.262119
H	-0.9276861949	 1.7114649512	-0.4294631744	 0.258876
H	-1.8329847179	-0.4798913362	 0.766685984	 0.105773
H	-2.548756765	-0.2144044277	-1.871884106	 0.086669
H	-1.5270033061	-2.3275550556	-3.1246637061	 0.09123
H	-0.1585504047	-3.7776048471	-1.2036601312	 0.107562
H	 0.7485610985	-2.2325082947	-1.1719854196	 0.135694
H	-3.2419491696	-2.8537943791	-0.7738722049	 0.101838
