13
gdb 7707	3.72247	1.95039	1.37812	3.5746	55.64	-0.282	-0.0146	0.2674	836.6061	0.096797	-435.78112	-435.774593	-435.773649	-435.812172	24.034	
N	-0.1042806083	 1.0377961511	-0.7842213248	-0.501997
C	 0.01815233	 0.0596378044	-0.0005407159	 0.40499
C	-1.1458681313	-0.519719018	 0.7675548324	-0.442195
C	-1.0999170276	-2.0390424726	 0.819277634	 0.430272
O	-2.0407541472	-2.7678397534	 0.7286103087	-0.30494
O	 0.1602967952	-2.5468750278	 0.9741731586	-0.212173
C	 1.1894884423	-1.5987093982	 1.1900407935	 0.006808
O	 1.2098022351	-0.5912792638	 0.2024009039	-0.229554
H	 0.795495733	 1.2827474952	-1.2016946743	 0.232389
H	-1.109724989	-0.1529319851	 1.8037572327	 0.161632
H	-2.0868415714	-0.1906941022	 0.3328864338	 0.176978
H	 1.0862086341	-1.1541397337	 2.1892038056	 0.123084
H	 2.1327329852	-2.1371902559	 1.1114769916	 0.154706
