19
gdb 106077	2.66121	1.67068	1.41862	1.136	82.33	-0.2085	-0.035	0.1735	1014.8303	0.158807	-385.771876	-385.764	-385.763056	-385.804193	30.854	
C	 0.2860081606	 1.3179592873	-0.2856618521	-0.261078
O	 0.1058710527	-0.0599994117	 0.0042158015	-0.289956
C	-1.2128561231	-0.4403556247	 0.021843659	 0.420857
C	-1.7752900782	-1.8122473528	 0.0365727051	-0.157866
C	-2.3086240275	-1.6508132312	 1.5095668276	-0.267194
C	-2.2658584266	-0.1600998229	 1.127367251	-0.025455
C	-3.3919243099	 0.3654185596	 0.6044449989	-0.097863
C	-3.352858394	 0.2637900845	-0.9199744627	-0.265454
C	-2.1714947241	-0.7095779519	-1.0753916313	-0.126209
H	 1.3587990517	 1.5159234306	-0.2355265864	 0.126679
H	-0.0791011419	 1.5673250147	-1.2917985068	 0.109989
H	-0.2329187321	 1.9518680443	 0.4456014534	 0.120608
H	-1.2874513035	-2.708839174	-0.3384755366	 0.098252
H	-3.2868573986	-2.0569427229	 1.7817430715	 0.100334
H	-1.5414347166	-2.0091082268	 2.2045473021	 0.114048
H	-4.348454485	 0.3082571738	 1.11850726	 0.096356
H	-4.3191981576	-0.1398215018	-1.2472988836	 0.112599
H	-3.1838930082	 1.1819706764	-1.5014291568	 0.108287
H	-1.8072473381	-0.9938801406	-2.0609304039	 0.083068
