21
gdb 75570	2.38527	1.64638	1.10075	1.1987	85.77	-0.2222	0.0244	0.2466	1164.1455	0.184201	-387.082803	-387.074505	-387.073561	-387.11559	32.678	
C	 0.3764124389	 1.4700804384	 0.0696746959	-0.472436
C	 0.0037952053	 0.0095553342	-0.0567419012	 0.310237
C	-0.2015803586	-0.5210724209	-1.2673605268	-0.163047
C	-0.56707216	-1.9280345727	-1.6562153504	-0.142321
O	-0.2074446425	-2.9544374299	-0.7517011192	-0.234135
C	-1.0029195539	-3.0257675172	 0.4105946428	-0.114261
C	-0.546763318	-2.0960368249	 1.5158010957	-0.037937
C	 0.9101328966	-1.7708416607	 1.6773412764	-0.289307
C	-0.0774732242	-0.6825590998	 1.261853893	-0.095785
H	 1.3372842075	 1.5863228321	 0.5867367456	 0.125941
H	 0.4522323234	 1.9573911869	-0.9052500548	 0.117103
H	-0.3660319307	 2.015018757	 0.667078918	 0.120613
H	-0.0971825948	 0.1408523521	-2.1265149723	 0.075068
H	-1.6508831961	-1.988322378	-1.8700881073	 0.095562
H	-0.0552016505	-2.1753532953	-2.5940782669	 0.111535
H	-2.0607712675	-2.836679585	 0.1628702337	 0.088138
H	-0.9296310112	-4.0614021488	 0.7655861302	 0.105936
H	-1.1186327489	-2.2292732792	 2.4320459584	 0.081139
H	 1.3415758681	-1.7288749226	 2.6715547774	 0.106632
H	 1.5700571382	-2.1322536025	 0.8974052355	 0.131696
H	-0.3193926812	 0.0086719869	 2.0658637663	 0.07963
