16
gdb 10282	2.5531	1.7643	1.0952	0.5797	65.73	-0.2667	0.0102	0.2769	1056.9535	0.129717	-379.979288	-379.970294	-379.96935	-380.013519	31.566	
C	 0.0167405316	 1.5159361187	 0.1737018568	-0.403132
C	 0.110860672	-0.0038535802	 0.0432204622	-0.172617
C	 0.6317136329	-0.4688181044	-1.3389647087	-0.269066
C	 2.0025008899	-0.0267815188	-1.5870610207	 0.292766
N	 3.1006562422	 0.2806545684	-1.7819949134	-0.340586
C	 0.4422783349	-2.0032220702	-1.4953387112	 0.433436
N	 1.5141435867	-2.7028036455	-1.9369317727	-0.539805
O	-0.6343278251	-2.5004572153	-1.2389279594	-0.358813
H	 0.9941180725	 1.993154213	 0.0502456903	 0.138799
H	-0.6607740245	 1.9372627126	-0.5770518956	 0.121707
H	-0.3671489938	 1.7905450653	 1.160210544	 0.12661
H	 0.7650085373	-0.4134509401	 0.8207988197	 0.117625
H	-0.8681029474	-0.4727184324	 0.1668580939	 0.142604
H	-0.0057352425	-0.0212927945	-2.1128529889	 0.155374
H	 2.4055899965	-2.2714366698	-2.1148234393	 0.285246
H	 1.4154196666	-3.6987294068	-2.0477170771	 0.269853
