17
gdb 2922	6.0273	1.73637	1.48851	1.8437	66.81	-0.2246	0.0237	0.2483	862.0048	0.148609	-309.726295	-309.718904	-309.717959	-309.758276	26.168	
C	 0.1579293453	 1.5392174313	-0.1337921296	-0.374759
C	-0.0863929973	 0.0373219648	 0.1002145719	-0.292231
C	 0.6532198033	-0.5142881575	 1.2811908438	 0.320608
C	 0.161221206	-1.0325559624	 2.4040405269	-0.211655
C	 1.2727858274	-1.473467206	 3.3107704533	-0.10179
O	 2.4734634429	-1.1516390183	 2.6119144644	-0.264771
C	 2.161379004	-0.5723861111	 1.3507045877	-0.147448
H	 1.2146446703	 1.7505205239	-0.3244183542	 0.122411
H	-0.4127005858	 1.8930021337	-0.997671236	 0.11607
H	-0.1474990659	 2.1244555043	 0.7390382716	 0.123226
H	-1.1588170544	-0.1424192303	 0.2320937299	 0.105989
H	 0.2116516861	-0.5129526476	-0.803485325	 0.106739
H	-0.8869030823	-1.1436349374	 2.6545659016	 0.095232
H	 1.2594927533	-0.9562639347	 4.2838111019	 0.101771
H	 1.2405292399	-2.5548652715	 3.522714468	 0.101021
H	 2.5840903955	-1.1852926792	 0.536302938	 0.097754
H	 2.6281550718	 0.422578308	 1.2754608258	 0.101833
