16
gdb 31273	2.45564	1.35006	0.94403	2.9181	67.99	-0.2265	0.0033	0.2298	1224.4838	0.123983	-475.032676	-475.02381	-475.022866	-475.067653	30.655	
C	 0.0494357969	 1.439770844	-0.0436064074	-0.258557
O	 0.7132449219	 0.1857082807	 0.1715836812	-0.265694
C	 0.8799104336	-0.5778185013	-0.9059762002	 0.344055
C	 0.6600348913	-1.8945293703	-1.1403781645	 0.112497
C	 0.0365372675	-2.9515192678	-0.2895858573	-0.17122
O	-1.0675997833	-3.569349878	-0.9343217573	-0.415299
N	 1.1127084654	-2.1855208122	-2.430344303	-0.317112
C	 1.5553115078	-1.0654381429	-2.888541014	 0.068711
O	 1.4643569781	-0.0248896807	-2.0194676086	-0.187597
H	 0.6355201183	 2.0823477634	-0.7066959033	 0.143762
H	-0.9466806416	 1.2785053504	-0.4702190975	 0.135091
H	-0.0383665296	 1.9045981028	 0.9385719466	 0.145367
H	 0.7956608433	-3.7010624921	-0.0137793023	 0.10112
H	-0.3379029237	-2.5062834851	 0.6366105277	 0.119144
H	-0.7627901892	-3.8162232726	-1.8152305485	 0.293579
H	 1.9728681932	-0.8485001782	-3.8589275317	 0.152153
