16
gdb 53633	4.26783	0.61876	0.54408	3.7179	82.78	-0.2513	-0.0408	0.2105	1947.0872	0.122245	-396.917638	-396.906981	-396.906036	-396.957107	34.653	
C	-0.1198622826	 1.431789598	-0.1420918181	-0.499437
C	-0.0671727626	-0.0207770374	-0.0660406763	 0.151755
C	-0.0091414045	-1.2211643878	-0.0043724404	-0.033176
C	 0.0452228303	-2.6740462633	 0.074283591	-0.275308
N	-1.2905125087	-3.2494024105	-0.0534858149	-0.32222
C	-1.4739893163	-4.5947418778	 0.008585327	 0.31352
N	-0.4939164305	-5.4144926968	 0.1143371646	-0.530624
C	-2.8677667921	-5.0085542076	-0.068249851	 0.228643
N	-3.9621651355	-5.3777949152	-0.1215756473	-0.320354
H	 0.8746167249	 1.8487093347	-0.3339636067	 0.157187
H	-0.7795115058	 1.7630570479	-0.9512102236	 0.154173
H	-0.4894601527	 1.8682502892	 0.7919131896	 0.153496
H	 0.6844487014	-3.0881527861	-0.7159493779	 0.157863
H	 0.4974660606	-2.9991554079	 1.0217923306	 0.152574
H	-2.0831382381	-2.6317969565	-0.0283862967	 0.271299
H	-0.818136648	-6.3776284429	 0.1232387401	 0.24061
