14
gdb 97703	3.1323	0.78157	0.6803	2.8609	73.23	-0.283	-0.0312	0.2518	1599.1628	0.098459	-436.622252	-436.612995	-436.61205	-436.658178	31.561	
O	 0.3475077322	 0.9133526587	-0.7739084093	-0.394008
C	-0.0356334746	 0.1217218551	 0.3373885394	-0.209135
C	-1.385022085	-0.4339530094	 0.2220029211	 0.163218
C	-2.5055982833	-0.8602948966	 0.1096479098	-0.037385
C	-3.8462138897	-1.3655770275	-0.0152959239	 0.132701
C	-4.3542177337	-1.8700526198	-1.320540305	-0.197676
O	-4.0035446394	-2.7698961374	-0.2849320156	-0.236678
C	-4.8147001554	-0.8229422231	 0.925870083	 0.229493
N	-5.5801102128	-0.3756680895	 1.6664549982	-0.324834
H	-0.2828126037	 1.6374218228	-0.851209769	 0.292867
H	 0.6916102757	-0.6956628839	 0.3913523519	 0.155479
H	 0.0410676756	 0.6784411421	 1.2841907498	 0.133709
H	-5.4171906386	-1.7821619619	-1.5361975427	 0.14715
H	-3.6772144274	-1.8359926796	-2.1713081678	 0.145101
