18
gdb 94476	3.95511	0.8905	0.79154	0.6473	78.46	-0.2368	0.015	0.2517	1468.823	0.146901	-439.054459	-439.045541	-439.044597	-439.089067	32.075	
O	 0.0362750797	 1.2051533174	-0.4248230583	-0.428102
C	 0.0697338942	-0.112495378	 0.0627476227	-0.026124
C	-0.0089531889	-0.2280705418	 1.5984157909	-0.091151
O	-1.2467868582	-1.0031205886	 1.4873657851	-0.27084
C	-1.2555046089	-0.8487309315	 0.1116385029	 0.428607
N	-2.1040889174	-1.160466345	-0.7533666928	-0.34179
C	-3.324713109	-1.7919745595	-0.3675583753	 0.045073
C	-4.5444240627	-1.4859153555	-1.206646306	-0.270802
C	-3.8829873105	-2.8319617604	-1.3127236252	-0.26785
H	-0.4665258486	 1.1900281279	-1.2472797934	 0.299424
H	 0.8839349844	-0.6962392588	-0.387676194	 0.098508
H	 0.77178594	-0.8050306757	 2.0976322267	 0.122357
H	-0.1827669967	 0.7263186392	 2.0995253368	 0.132594
H	-3.48265416	-1.954386934	 0.6956607198	 0.101914
H	-5.4993172462	-1.4100997835	-0.6988911716	 0.113922
H	-4.4041848933	-0.7904710074	-2.0255968048	 0.11913
H	-3.2997080497	-3.0373767671	-2.202337473	 0.121168
H	-4.3765939082	-3.6939984276	-0.8783678807	 0.113961
