23
gdb 123095	4.59037	0.52419	0.49415	2.9839	84.15	-0.2425	-0.0101	0.2324	2290.4635	0.201824	-425.443839	-425.432247	-425.431302	-425.483164	39.487	
C	 0.1367193536	 1.4282821846	-0.2576485279	-0.378192
C	-0.0300855962	-0.0909159253	-0.1661336244	-0.166704
C	 0.5586436235	-0.8321562118	-1.3718881398	-0.180492
C	 0.3768918163	-2.3476137728	-1.2669021522	-0.063945
O	 0.8198968633	-3.0609224304	-2.4107112271	-0.247232
C	 2.2142399927	-3.2018399342	-2.5201845936	-0.164049
C	 2.5827741742	-4.1800610987	-3.6386027413	 0.351257
C	 1.4582241841	-4.9537936407	-4.2869332697	-0.465142
O	 3.7436024593	-4.3069652802	-3.9501518501	-0.297407
H	 1.1944977226	 1.7073313924	-0.3164251083	 0.116392
H	-0.3598492776	 1.827625511	-1.1487032043	 0.116953
H	-0.2919479305	 1.9292722729	 0.6157237681	 0.11408
H	 0.4456267118	-0.4558732709	 0.7538993858	 0.098223
H	-1.0961692951	-0.3373883943	-0.0736369196	 0.098476
H	 0.0788608428	-0.4879890974	-2.2967632944	 0.104868
H	 1.6245343145	-0.5872768712	-1.4617113149	 0.09956
H	 0.8849378464	-2.7305661904	-0.3659781818	 0.088067
H	-0.688063575	-2.5862132143	-1.1693342945	 0.107356
H	 2.7244996495	-2.2509573804	-2.732753121	 0.12343
H	 2.6502042518	-3.5950998661	-1.5850539063	 0.115927
H	 0.7343425751	-4.261027353	-4.7275014766	 0.150357
H	 1.8649400664	-5.6203829346	-5.0479095063	 0.133872
H	 0.9083942964	-5.5237369241	-3.5307993998	 0.144346
