21
gdb 63003	2.38238	1.74641	1.5127	2.4195	81.15	-0.221	0.0694	0.2904	1017.4844	0.18392	-383.22427	-383.216162	-383.215218	-383.256129	33.311	
C	 0.0877954111	 1.5255939826	 0.0120436696	-0.414837
C	-0.0070686191	-0.005103589	 0.0018207849	 0.290142
C	-1.4717618438	-0.4745199502	-0.0004830569	-0.435388
C	 0.7027496724	-0.6293155619	-1.2180033651	-0.077869
N	 2.1304867227	-0.3018186784	-1.3735491357	-0.321569
C	 1.7428328578	-1.5928539246	-0.7676184148	-0.044586
C	 1.7437106478	-1.6030301352	 0.747840871	-0.044586
N	 2.1320769659	-0.3202451724	 1.370604288	-0.321569
C	 0.7041577931	-0.6456345106	 1.2123293564	-0.077869
H	 1.1354974662	 1.8307791394	 0.0134963834	 0.154592
H	-0.4017795339	 1.9545403765	-0.869576635	 0.099179
H	-0.4007735156	 1.9426609882	 0.8998999266	 0.099178
H	-2.0021798976	-0.09818903	-0.8817276182	 0.111674
H	-1.5403743278	-1.5681666737	-0.0077901414	 0.112257
H	-2.0011548254	-0.1100668815	 0.8863524677	 0.111674
H	 0.1103740009	-0.7980427117	-2.1141035273	 0.073688
H	 2.4006492515	-0.460988768	-2.3417529553	 0.226093
H	 1.9536194893	-2.5150789169	-1.2985095362	 0.080008
H	 1.9551053721	-2.5322996905	 1.2660547771	 0.080008
H	 2.403359311	-0.4924014227	 2.3362697619	 0.226093
H	 0.1128196213	-0.8263839595	 2.1067688892	 0.073688
