19
gdb 61852	2.50495	1.1558	0.92004	3.7837	72.96	-0.255	0.0048	0.2598	1313.0316	0.157517	-460.167734	-460.158284	-460.157339	-460.203398	32.941	
C	-0.1057747153	 1.605569722	 0.1672072513	-0.395776
C	-0.0098011801	 0.0899080026	 0.0341499934	 0.080469
O	 0.599941047	-0.4565558972	 1.2225530091	-0.190326
C	 1.9181419776	-0.7185284027	 1.1957145515	 0.171641
O	 2.5146307851	-1.145710747	 2.1382449111	-0.276545
C	-1.3812984866	-0.5566818619	-0.1311370415	 0.150882
C	-1.5109166387	-2.0719554706	 0.1390295269	-0.302469
C	-2.3807167614	-1.6344757618	 1.3343685704	-0.055197
O	-2.266471798	-0.2409244609	 0.9615888194	-0.290197
H	 0.8849574312	 2.047309472	 0.304688876	 0.122197
H	-0.554813833	 2.0393007419	-0.7316296189	 0.12288
H	-0.7304233606	 1.8565572357	 1.0271932893	 0.1594
H	 0.6040035843	-0.1852057678	-0.8363532604	 0.085362
H	 2.3798646257	-0.5041266513	 0.2110574619	 0.075405
H	-1.7969682235	-0.2159166974	-1.0899908059	 0.079717
H	-2.0386039025	-2.6248564347	-0.6388126103	 0.113144
H	-0.5847162261	-2.5868342608	 0.3929723219	 0.123368
H	-3.4231693088	-1.9712314324	 1.3213554794	 0.105227
H	-1.9476734762	-1.8232232278	 2.3223356555	 0.120818
