25
gdb 119904	2.53699	0.85919	0.79066	1.3544	89.96	-0.2376	0.075	0.3126	1656.1314	0.226084	-389.488919	-389.477507	-389.476563	-389.52537	42.102	
C	-0.821735923	 0.5414904689	 3.3878045144	-0.382665
C	-0.7766731098	-0.7993521838	 2.6509890582	-0.155184
C	-1.8240756347	-0.9060888667	 1.5328836621	-0.203008
C	-1.748864331	-2.2210474951	 0.7838046841	-0.055016
C	-2.5068159303	-3.4833859759	 1.1962772329	-0.080656
C	-3.4289533506	-3.5556000619	 2.3949884856	-0.415905
C	-2.8483837233	-2.7575564614	-0.0903697906	 0.35314
C	-4.1597933333	-2.0304967287	-0.2899978222	-0.449273
O	-2.3606620787	-3.340020787	-1.2804295473	-0.466006
H	-0.0633186153	 0.5919226938	 4.175364323	 0.110305
H	-0.6443863701	 1.3768391843	 2.7010173786	 0.113452
H	-1.7988862271	 0.7040936828	 3.8568830781	 0.111465
H	 0.2223331901	-0.9500449828	 2.221409631	 0.095684
H	-0.9253682606	-1.6200297726	 3.3640501725	 0.098687
H	-2.8198776331	-0.7527277732	 1.9643742395	 0.088967
H	-1.6764482456	-0.0792688555	 0.8239449386	 0.096517
H	-0.7618217422	-2.424857936	 0.3746382554	 0.090003
H	-1.9443557891	-4.3980663371	 1.0241074092	 0.081826
H	-3.971572364	-2.6230535517	 2.5687312802	 0.115529
H	-4.1764239733	-4.3474468891	 2.2690329104	 0.113313
H	-2.8664049558	-3.7798011005	 3.3083914286	 0.11841
H	-4.511567414	-1.5356471674	 0.6175372896	 0.116977
H	-4.0520889957	-1.2733671238	-1.0732366878	 0.125863
H	-4.9434959022	-2.7304155679	-0.6070919982	 0.103695
H	-2.9614942973	-4.0537532017	-1.5234914461	 0.273885
