21
gdb 72792	2.5792	1.64178	1.2587	1.6803	84.35	-0.2332	0.0204	0.2536	1088.5655	0.183896	-387.086817	-387.078687	-387.077743	-387.118946	32.665	
C	-0.0489200352	 1.5397521151	-0.0717287561	-0.435537
C	 0.0572867771	 0.0201513557	 0.0358479754	 0.400518
C	 0.8196409666	-0.6195757811	-1.122019227	-0.271066
C	 2.3301059862	-0.458578693	-0.8295902633	-0.215266
C	 2.7861205324	-1.101752828	 0.5055478607	-0.234632
C	 1.7155173255	-1.1205615297	 1.5712191333	-0.207182
C	 0.5392809653	-0.5580196591	 1.3427655597	 0.201715
C	-0.9035773672	-0.752406571	 1.7315782849	-0.16978
O	-1.2769027175	-0.5222697507	 0.343229527	-0.350047
H	 0.9247834053	 2.0047116372	-0.2519858749	 0.116633
H	-0.7128438553	 1.795284863	-0.9043134544	 0.124051
H	-0.4668789432	 1.9709645999	 0.8419576356	 0.117011
H	 0.5483742347	-1.6793178462	-1.1725478313	 0.105201
H	 0.5711248296	-0.1626440873	-2.0865391649	 0.092276
H	 2.9131074221	-0.8869650445	-1.6509029807	 0.099486
H	 2.5720401141	 0.6101357482	-0.8165414674	 0.106226
H	 3.0803028327	-2.1465154802	 0.3292333742	 0.110639
H	 3.6987139319	-0.6053261413	 0.860665509	 0.107648
H	 1.9013678317	-1.7105953554	 2.4660538665	 0.086435
H	-1.1924871984	-1.7485183281	 2.0851856696	 0.11389
H	-1.3419165485	 0.0053024364	 2.3965281741	 0.101783
