22
gdb 116789	5.06587	0.62354	0.59925	2.7032	88.33	-0.2401	0.0323	0.2724	1966.2129	0.193115	-404.336311	-404.326411	-404.325467	-404.372578	35.738	
C	-0.9885090929	 0.556965112	 0.1058073424	-0.396126
C	 0.5369932434	 0.4110134445	 0.0674060507	-0.108765
N	 1.2032924617	-0.3192737559	 1.1322919913	-0.231662
C	 0.5451743922	-0.8125698623	 2.081573328	 0.114931
O	 1.1831697207	-1.4601837679	 3.0835629273	-0.2109
C	 0.380897722	-2.1259651191	 4.0416733713	 0.158404
C	 0.1854844307	-3.6560041858	 3.8933325314	-0.246192
C	 0.3914218646	-3.7698668649	 5.4299111174	-0.216792
C	 1.0653749778	-2.3684759781	 5.4005719558	-0.247651
H	-1.3265343393	 1.0908269102	 1.000573113	 0.117984
H	-1.3227042366	 1.1279826175	-0.7657268696	 0.114795
H	-1.4932673401	-0.4148536488	 0.0780579922	 0.117776
H	 0.8280051625	-0.0675382761	-0.8773983526	 0.111374
H	 0.9924110236	 1.4099332499	 0.03170403	 0.111719
H	-0.5441278458	-0.7676767475	 2.2104914264	 0.074152
H	-0.5787901201	-1.6055553616	 4.1561814081	 0.080172
H	-0.750326443	-4.0170861105	 3.4604602745	 0.097679
H	 1.0267059001	-4.0844019611	 3.3417936912	 0.120299
H	-0.5570811461	-3.7576149899	 5.9732840826	 0.106247
H	 0.9901773438	-4.6056695182	 5.7947094124	 0.107409
H	 2.1463835519	-2.4468179502	 5.258530022	 0.123302
H	 0.8600013189	-1.6662829662	 6.2111277543	 0.101845
