19
gdb 71958	2.86627	1.94348	1.68618	2.0854	73.29	-0.2467	0.091	0.3377	898.1935	0.161611	-423.035485	-423.028768	-423.027824	-423.066069	28.6	
C	-0.013326609	 1.5309246639	-0.0578183818	-0.482376
C	-0.0050934062	 0.028290493	 0.057653707	 0.420399
C	-1.2848666448	-0.7680214267	 0.4233633185	-0.268006
C	-0.3311371195	-1.85726246	 0.9595572259	 0.089029
O	 0.1962365566	-2.6167032904	-0.1437930083	-0.275979
C	 1.1722121755	-1.7546886847	-0.7123568923	 0.184782
C	 2.0059629043	-1.3110069769	 0.4968421204	-0.253639
C	 0.7694950626	-0.759028164	 1.1869942711	-0.133477
O	 0.553506165	-0.5531736031	-1.1467424095	-0.311171
H	 1.002622594	 1.9199306528	-0.1767200567	 0.122258
H	-0.5975821589	 1.8402489798	-0.9306048296	 0.131197
H	-0.4607673432	 1.9834016587	 0.8322431648	 0.113763
H	-1.8448050087	-0.2855886732	 1.2311999549	 0.093114
H	-1.950291028	-1.0466791329	-0.3958908503	 0.107561
H	-0.6447971053	-2.5418701603	 1.7481924442	 0.077106
H	 1.645663223	-2.2489471041	-1.5586128132	 0.090377
H	 2.4729669009	-2.1490015931	 1.0183615633	 0.10882
H	 2.7503539409	-0.5546062887	 0.2400069979	 0.108527
H	 0.8375308408	-0.2980141603	 2.1690418838	 0.077716
