19
gdb 79776	2.87574	1.93561	1.72946	1.7656	76.56	-0.2472	0.063	0.3103	880.3789	0.161893	-385.815389	-385.808752	-385.807808	-385.846228	28.068	
O	 0.2365067728	 1.3918318873	-0.2514515128	-0.450425
C	-0.0093016477	 0.0328647265	 0.009654407	 0.180639
C	 0.2303924117	-0.6324772656	 1.3820121663	-0.119895
C	-0.7513589392	-0.1411986261	 2.521535928	-0.048875
C	-1.7733163221	 0.93121842	 2.0657018174	-0.262925
C	-2.3860248475	-0.1462013894	 1.1435860297	-0.035459
C	-1.4161194605	-0.6224445281	-0.0076664254	-0.115134
C	-0.8287370739	-1.7183591747	 0.9606868109	-0.041695
C	-1.7800820587	-1.2482654507	 2.0857689222	-0.037007
H	-0.0621192537	 1.9094649534	 0.4990210028	 0.283177
H	 0.595041056	-0.5124408492	-0.7256999508	 0.087137
H	 1.2493848502	-0.8582524232	 1.6977376075	 0.062948
H	-0.3167943048	-0.0762170041	 3.5191141703	 0.065762
H	-2.4631169791	 1.1384441238	 2.8914189228	 0.102565
H	-1.4577795182	 1.8959423897	 1.6562060767	 0.076615
H	-3.4412608823	-0.0888842959	 0.8764518195	 0.064295
H	-1.8855650184	-0.8416177301	-0.9666827977	 0.063065
H	-0.5863133828	-2.7383118363	 0.6704010671	 0.0632
H	-2.3548107217	-1.8676558771	 2.7723324385	 0.062013
