18
gdb 84389	2.10206	1.83513	1.11202	3.3042	77.45	-0.231	0.0021	0.2331	1113.4487	0.148121	-398.152981	-398.143952	-398.143008	-398.186969	32.419	
C	-0.2353566633	 1.5692194605	-0.0770648604	-0.398666
C	 0.1039031042	 0.0847703956	-0.0557954403	 0.036946
N	 0.9983478469	-0.3027410788	-1.1610482049	-0.269446
C	 1.8591382388	-1.1014428096	-0.6665049256	 0.068071
N	 1.7662789649	-1.403059427	 0.6816068477	-0.046106
C	 2.8490726731	-1.9716324066	 1.4591196958	-0.346536
C	 0.8207963813	-0.4405734632	 1.2514331442	-0.178016
C	 1.5164457428	 0.61058009	 2.0217809123	 0.28833
N	 2.0796272696	 1.4122313527	 2.635518557	-0.334329
H	 0.6659833368	 2.1794550138	 0.0220920448	 0.142804
H	-0.7122126932	 1.8136638096	-1.0292050643	 0.133837
H	-0.9219018087	 1.8319647881	 0.7339281008	 0.118865
H	-0.8233745785	-0.4941587951	-0.1632173916	 0.100048
H	 2.6364823785	-1.5890377086	-1.2485808689	 0.130707
H	 3.4601123802	-2.5975670872	 0.8043802046	 0.140179
H	 3.4915393247	-1.2041651388	 1.912129587	 0.14659
H	 2.4523014204	-2.6059142951	 2.2584888004	 0.135929
H	 0.1134638415	-0.9292716801	 1.9288648514	 0.130796
