20
gdb 120116	2.85455	1.04228	0.90534	2.309	80.22	-0.2287	-0.0207	0.208	1384.0117	0.169743	-403.119974	-403.110942	-403.109998	-403.154802	33.395	
C	 0.0583149342	 1.4968756082	 0.1415595403	-0.383768
C	 0.3587000417	 0.0029701982	-0.0005622647	-0.164146
C	 0.4728751136	-0.4343910655	-1.4609610721	-0.136025
N	 0.7022323277	-1.8795989586	-1.5373201073	-0.077802
C	 1.2085121882	-2.5580639815	-2.6929084864	-0.039972
C	 2.2353811782	-1.7219040991	-3.4786475242	-0.37927
C	 3.0678204473	-1.6775246848	-2.1667405511	 0.405458
O	 4.1793536133	-1.3113237793	-1.9151832095	-0.305012
C	 2.0288314616	-2.476826212	-1.401821639	-0.177636
H	 0.8457085003	 2.1077287563	-0.3137181583	 0.119273
H	-0.8881539905	 1.7614643951	-0.3431916012	 0.115091
H	-0.0166786912	 1.7847416132	 1.194197107	 0.117931
H	 1.296489303	-0.2377236497	 0.5154013157	 0.108002
H	-0.4237064603	-0.5924578443	 0.482988003	 0.10859
H	-0.4712997961	-0.2388313588	-1.9840496227	 0.106257
H	 1.2471095806	 0.1663949249	-1.9612924173	 0.100337
H	 0.6774296801	-3.4251605638	-3.0689407404	 0.110762
H	 2.7816708476	-2.2947416864	-4.2342727172	 0.134418
H	 1.8947374286	-0.7826516204	-3.9200343521	 0.126292
H	 2.2048908321	-3.1977775417	-0.6111188725	 0.111221
