20
gdb 99991	2.74565	1.10774	0.96921	3.84	75.3	-0.276	0.0124	0.2884	1301.8434	0.16736	-440.297407	-440.286584	-440.285639	-440.332811	39.395	
C	-0.0061714052	 1.5743813442	 0.16939362	-0.401552
C	-0.014218403	 0.055360883	-0.021516651	-0.211163
C	 0.6704012165	-0.4325561197	-1.3127206793	 0.331189
C	 0.0660477215	 0.1763818533	-2.5782357675	-0.434783
O	 2.0496803206	-0.0772443185	-1.3312575244	-0.449156
C	 0.5770516896	-1.993066706	-1.3528035721	-0.051543
O	-0.7497345691	-2.4855881312	-1.378289529	-0.413647
C	 1.3692805917	-2.5467281623	-2.4691907961	 0.271884
N	 1.9338074084	-3.0016124439	-3.3689614492	-0.326023
H	 1.0042754727	 1.9770618536	 0.0544649337	 0.127927
H	-0.6533650294	 2.0789443177	-0.5536767535	 0.123382
H	-0.3662918437	 1.8349778827	 1.1687443819	 0.117467
H	 0.5043964808	-0.4183638059	 0.8257269164	 0.084838
H	-1.0370022802	-0.3337810553	 0.0004475006	 0.120318
H	 0.21699794	 1.2570822501	-2.5820021008	 0.140212
H	 0.5515234308	-0.2322386063	-3.4686616745	 0.147856
H	-1.0092388224	-0.0181804112	-2.6329534206	 0.114236
H	 2.4463364464	-0.3369735761	-0.4917605308	 0.283391
H	 1.0091808751	-2.3751557104	-0.4193779523	 0.124627
H	-1.1080789512	-2.3461709976	-2.2620119913	 0.300543
