17
gdb 74741	2.50798	1.80757	1.38644	4.3215	72.42	-0.2422	-0.0162	0.226	980.0718	0.137777	-421.872227	-421.86508	-421.864135	-421.903718	28.347	
C	 0.0031309678	 1.4895450542	 0.0521201615	-0.512403
C	-0.0584534945	 0.0027106744	-0.0259946106	 0.333633
C	-0.0702569514	-0.810965889	-1.0889383663	-0.192811
C	 0.0027287806	-2.2298301103	-0.5439744342	 0.064275
C	-0.8583001639	-2.107922125	 0.7229034335	-0.234049
C	-0.0068566459	-0.9067949665	 1.2143806502	-0.251216
C	 1.382015289	-1.5745958034	 1.1340089731	 0.452891
O	 2.3413746165	-1.4351820125	 1.8347327388	-0.355841
O	 1.3434153098	-2.4062154226	 0.0527766011	-0.246392
H	 0.9204494886	 1.8160824402	 0.5568715242	 0.149772
H	-0.0208306194	 1.9434249307	-0.9419126263	 0.13254
H	-0.835133239	 1.8897989299	 0.6356985087	 0.133327
H	-0.0312688551	-0.5391784354	-2.134959552	 0.108902
H	-0.1592366224	-3.0618874427	-1.2242422336	 0.092597
H	-1.8967841956	-1.8409330814	 0.5230386536	 0.115027
H	-0.8005839531	-2.9922170327	 1.3641114876	 0.117931
H	-0.2149739719	-0.4499466977	 2.1788553407	 0.091816
