21
gdb 106465	3.15959	1.40517	1.22673	1.5289	82.15	-0.2309	0.0097	0.2406	1119.6212	0.183623	-387.086535	-387.078441	-387.077497	-387.118909	32.612	
C	-0.230857665	 1.5430399248	-0.0439607666	-0.389768
C	 0.07910241	 0.0431759365	 0.0392579639	-0.262195
C	 0.7859591252	-0.5131228789	-1.1831867946	 0.418377
C	 0.7769789742	-2.0456601313	-1.4219295302	-0.291076
C	 0.5867148391	-1.596343579	-2.8883882804	 0.042628
O	-0.0063016999	-0.3504012834	-2.4073159815	-0.329674
C	 1.9388154427	-1.2800052811	-3.4935467621	-0.05661
C	 2.7111571067	-0.4608541492	-2.781489043	-0.064991
C	 2.1902838206	 0.0689433202	-1.4614693838	-0.297731
H	 0.676748685	 2.1538821549	-0.0337349518	 0.11573
H	-0.7803401358	 1.7679250781	-0.962419903	 0.140679
H	-0.8451326404	 1.8551960368	 0.8057341858	 0.111368
H	 0.6915061753	-0.1729536825	 0.9248574742	 0.094116
H	-0.8585928198	-0.511032786	 0.160525184	 0.099152
H	 1.6638301372	-2.6309864587	-1.1727281274	 0.097282
H	-0.1236049704	-2.500971897	-1.004166303	 0.10013
H	-0.0892994955	-2.1478347179	-3.5444900806	 0.071966
H	 2.2379921697	-1.7078122443	-4.444258009	 0.089417
H	 3.6953392251	-0.146030223	-3.1161964077	 0.092478
H	 2.145517039	 1.1646928472	-1.4909741312	 0.114808
H	 2.8744727769	-0.190328246	-0.6414891421	 0.103915
