21
gdb 118989	3.59128	0.96707	0.93038	2.0202	81.32	-0.2398	0.0253	0.2651	1387.266	0.181757	-424.227364	-424.217855	-424.216911	-424.262138	35.257	
C	 0.1207797633	 1.4008738641	-0.0745589582	-0.226782
O	 0.0589435014	-0.0057691585	-0.0327473988	-0.25635
C	 0.5657995764	-0.5602377052	 1.1682125176	-0.118455
C	 0.5437666231	-2.0809027571	 1.0068104625	 0.366012
O	 1.2875545146	-2.4143307709	-0.169860571	-0.484092
C	 1.1726815397	-2.8163057972	 2.2142083543	-0.265574
C	 0.251116839	-4.0226204726	 2.524287284	-0.261484
C	-1.0046407954	-3.7088113384	 1.7492317831	-0.07092
C	-0.859398043	-2.6578769862	 0.9467302938	-0.108839
H	 1.1553893386	 1.7647072708	 0.0212872879	 0.109367
H	-0.279701195	 1.7186545031	-1.0402803851	 0.129186
H	-0.4801660861	 1.8565071499	 0.7271266648	 0.109314
H	 1.6006048279	-0.2196787057	 1.3379840997	 0.090979
H	-0.0472532262	-0.2498213629	 2.0291505603	 0.089786
H	 0.9904685294	-1.7962932834	-0.8499265928	 0.28031
H	 2.1968476174	-3.1054574448	 1.9716919263	 0.116782
H	 1.2127399677	-2.1444077711	 3.0779958847	 0.097228
H	 0.6871209447	-4.9729468603	 2.1895691556	 0.114301
H	 0.06391153	-4.1349531263	 3.598563288	 0.101385
H	-1.9041627826	-4.309883463	 1.8352017253	 0.09189
H	-1.6075941647	-2.2567012544	 0.273040668	 0.095954
