14
gdb 25490	5.48855	1.04345	0.87677	4.5963	74.86	-0.2623	-0.0532	0.2091	1239.5345	0.103159	-432.921176	-432.913869	-432.912925	-432.95401	26.112	
N	-0.1790790751	 1.3031295817	 0.0118632121	-0.418672
C	-0.0161673659	 0.055176058	 0.0027566444	 0.114738
O	-1.1397125257	-0.7286874189	 0.0082179896	-0.209308
C	-1.0373710969	-2.0806469121	 0.0008220007	 0.49647
N	 0.1654798297	-2.6474061219	-0.0094184963	-0.333558
C	 0.1779105465	-3.9824882527	-0.0161049968	 0.020178
C	-0.9853022741	-4.7381839967	-0.0125011649	-0.14427
C	-2.1785042346	-4.0200422773	-0.0015256265	 0.014912
N	-2.2206428801	-2.6898384491	 0.0051816753	-0.294849
H	 0.7290928627	 1.7647344067	 0.0060435035	 0.236678
H	 0.9108079587	-0.5162164208	-0.0092858522	 0.143631
H	 1.1587862261	-4.4518187589	-0.0245308696	 0.127622
H	-0.9664185373	-5.8201490303	-0.0178731824	 0.116885
H	-3.1399105441	-4.5285067678	 0.0020282032	 0.129543
