15
gdb 4259	3.99433	1.85033	1.27459	6.3168	73.33	-0.2053	-0.0129	0.1923	920.2499	0.121384	-358.889991	-358.882866	-358.881922	-358.921272	26.74	
C	 0.0116074626	 1.5043468943	-0.0330449552	-0.495807
C	-0.0479776653	 0.0090307104	 0.0112689668	 0.364294
C	-1.1561137787	-0.7413429007	-0.1319501666	-0.201292
C	-1.1021727211	-2.2008379603	-0.07130092	 0.329046
N	-2.1663182475	-2.9017366854	-0.2094891737	-0.541529
N	 0.1720849677	-2.7876708267	 0.1454402366	-0.316974
C	 1.1882272174	-2.018610873	 0.2738537619	 0.090306
N	 1.159292523	-0.6507713232	 0.2203060033	-0.361854
H	 0.6704062231	 1.8512209221	-0.8386206869	 0.138318
H	-0.9827796264	 1.9194482421	-0.2018352749	 0.152222
H	 0.400077035	 1.9137232942	 0.9075922016	 0.138393
H	-2.119540773	-0.2761657104	-0.2965745337	 0.110234
H	-1.9137727102	-3.8896517679	-0.135229577	 0.208889
H	 2.1759735277	-2.4468274109	 0.4408729087	 0.125136
H	 2.0113344156	-0.1265190645	 0.3322756192	 0.260619
