23
gdb 73273	2.2386	1.66273	1.29789	1.6869	84.34	-0.2388	0.0786	0.3174	1121.7584	0.208065	-388.299077	-388.290696	-388.289752	-388.331618	33.668	
C	-0.044637818	 1.5496969942	-0.0210113917	-0.478064
C	-0.0478222961	 0.0265089402	-0.021605175	 0.279619
C	-1.2903727452	-0.6958868849	 0.5538095022	-0.118578
O	-0.4550057208	-1.5959062606	 1.3108967686	-0.303345
C	 0.6631842295	-0.6836011447	 1.171423387	 0.133154
C	 2.0120545459	-1.3571871929	 0.9880639713	-0.232967
C	 2.2130196988	-1.9530700497	-0.4101325261	-0.18955
C	 1.8547383291	-0.9214684091	-1.4867525169	-0.196562
C	 0.3664207921	-0.5578677405	-1.3946757278	-0.248316
H	 0.9382641983	 1.9442031993	-0.3035985564	 0.117971
H	-0.772476538	 1.9434089221	-0.7397555553	 0.116446
H	-0.2951889648	 1.9527970573	 0.9657775779	 0.112923
H	-1.9019742033	-0.0631365096	 1.2148598414	 0.085484
H	-1.9454926501	-1.2260307018	-0.1464292096	 0.098404
H	 0.7007480984	-0.019944861	 2.050740798	 0.05593
H	 2.7875731156	-0.6013171815	 1.1729425649	 0.095038
H	 2.1272111122	-2.1193384504	 1.768051546	 0.107158
H	 3.2484779349	-2.2915676828	-0.5223110612	 0.088132
H	 1.5740464898	-2.8365289387	-0.5312295813	 0.106294
H	 2.4791240097	-0.0251576963	-1.3633259986	 0.089768
H	 2.0725391731	-1.3156754576	-2.4854156169	 0.091808
H	-0.2068932444	-1.4721501642	-1.5882140593	 0.100996
H	 0.0922738831	 0.150577773	-2.1850686011	 0.088259
