19
gdb 57770	3.02148	0.68603	0.59042	1.4587	82.65	-0.2496	-0.0316	0.218	1877.4408	0.155033	-423.007318	-422.996254	-422.995309	-423.045789	37.779	
C	-0.0312927989	 1.5502583031	 0.5067350894	-0.385669
C	-0.0332719001	 0.1424745838	-0.1059346263	-0.021647
O	 0.9280997115	-0.7047284813	 0.5189677674	-0.411134
C	-1.3760416166	-0.4506707312	-0.0890293928	 0.067832
C	-2.4748877768	-0.9454509954	-0.0523561558	 0.036953
C	-3.8127859716	-1.5234427021	 0.0180949231	-0.217853
C	-3.7844891615	-2.9960055798	 0.4946600479	-0.397181
C	-4.6744079517	-0.7096904596	 0.9886190162	 0.175088
O	-5.7825180369	-0.3182771063	 0.7434651681	-0.240547
H	 0.9829765472	 1.9565891226	 0.4785189671	 0.127709
H	-0.7008368652	 2.2167970604	-0.0444326132	 0.128527
H	-0.368582207	 1.5153142493	 1.5478759801	 0.115959
H	 0.3045626838	 0.2124850296	-1.1470398419	 0.122051
H	 0.6132299348	-0.889215821	 1.4109614215	 0.281539
H	-4.3032219557	-1.4693643731	-0.9602463539	 0.127288
H	-3.3745883498	-3.0694632277	 1.5064561821	 0.130177
H	-4.7955250293	-3.4122658791	 0.4936550368	 0.13501
H	-3.1544186399	-3.591513846	-0.1697470793	 0.142274
H	-4.1872189264	-0.524063976	 1.9725282534	 0.083622
