18
gdb 62501	1.88824	1.5619	1.11689	4.2211	83.8	-0.2599	0.0111	0.271	1178.0641	0.144917	-364.792137	-364.782433	-364.781489	-364.826251	35.858	
C	-0.0874916368	 1.5483469252	 0.0291086388	-0.4551
C	 0.0047294919	 0.037475611	-0.0144372301	 0.280489
C	-1.1911012046	-0.6904717755	 0.56798186	-0.448924
C	 0.7016166452	-0.6234616586	-1.192965154	-0.272808
C	 1.2612600224	 0.1326098504	-2.2717086565	 0.343316
C	 1.7240299666	 0.7565485554	-3.1892900952	-0.425479
C	 1.3612427994	-0.6228634171	 0.2017694471	-0.239985
C	 2.5387579632	 0.1583294473	 0.4466488908	 0.311545
N	 3.4878087058	 0.7834364072	 0.6635679042	-0.343176
H	 0.7938053315	 2.0260783027	-0.4015916719	 0.153975
H	-0.9644900329	 1.886989126	-0.5323973013	 0.125563
H	-0.1931872122	 1.8931857647	 1.0628975833	 0.127561
H	-2.1044443201	-0.42259261	 0.0260432611	 0.130985
H	-1.0731724628	-1.7770139889	 0.5117660997	 0.119727
H	-1.3337850953	-0.4202931873	 1.6197917003	 0.13078
H	 0.3102309404	-1.5959503623	-1.4798965736	 0.123571
H	 2.1429027853	 1.3090446929	-3.9937702956	 0.204476
H	 1.3609180028	-1.5803375931	 0.712887413	 0.133482
