16
gdb 17490	3.45387	2.48434	1.95812	1.1562	62.71	-0.2307	0.0645	0.2952	727.6721	0.131672	-383.700647	-383.694352	-383.693407	-383.730592	25.749	
O	-0.0476449314	 1.3773812123	 0.0278442539	-0.490394
C	-0.0001545674	-0.0183925666	 0.012940343	 0.364565
C	 0.2651391371	-0.7527915917	-1.3452181343	-0.293228
C	-0.9168320869	-1.6707183938	-1.0264161385	-0.100706
C	-0.8344158351	-2.0955663389	 0.4257201975	 0.115435
O	 0.4202515784	-2.0566071308	 1.081770084	-0.267441
C	 0.8167799438	-0.6846770668	 1.1299271349	-0.127457
C	-1.3687267371	-0.7454629641	 0.1119115147	-0.163737
H	 0.8334894694	 1.7133086824	-0.1700701475	 0.281531
H	 0.0342957653	-0.0823056923	-2.1767610733	 0.107701
H	 1.248992166	-1.2125163172	-1.4916882976	 0.093624
H	-1.5239159127	-2.2066680244	-1.7472492455	 0.086158
H	-1.472241173	-2.9005494603	 0.7697511283	 0.104305
H	 1.8996885781	-0.6306666363	 0.9667684364	 0.097058
H	 0.5745647937	-0.233995479	 2.1043984031	 0.096024
H	-2.3239018883	-0.3157606524	 0.3807358608	 0.096561
