18
gdb 126862	4.0699	1.01718	0.8719	3.2494	88.5	-0.1989	-0.0305	0.1684	1348.4741	0.149543	-398.132987	-398.124593	-398.123649	-398.166689	31.314	
C	-0.0180732741	 1.2599219923	 0.2684637058	-0.36373
C	-0.2050100971	-0.2228060353	-0.0826539256	-0.13884
N	 0.5841688798	-0.5992683949	-1.2419426824	-0.321705
C	 1.7684368329	-1.0865497804	-1.0978343911	 0.276249
C	 2.5538837093	-1.4552264203	-2.2655285597	-0.181873
C	 3.7856210906	-1.9844551541	-2.1180790298	 0.032681
N	 4.3161160057	-2.1779669392	-0.8704811658	-0.231188
N	 3.6836001835	-1.8455433065	 0.2685905517	-0.185396
C	 2.4953408983	-1.3368134376	 0.1615930498	-0.056826
H	 1.0083166852	 1.4619359089	 0.5930139147	 0.110771
H	-0.2196646679	 1.8832263617	-0.6075202538	 0.126028
H	-0.6971228806	 1.5596042679	 1.0736130989	 0.106462
H	-0.0097264611	-0.8397506588	 0.8091507551	 0.080883
H	-1.2582045927	-0.3897744598	-0.3398220917	 0.097167
H	 2.1258259139	-1.299132726	-3.2471302993	 0.116055
H	 4.4199426691	-2.2838524599	-2.944128904	 0.132412
H	 5.2378009109	-2.557141203	-0.7384350709	 0.276419
H	 2.0413434645	-1.0804621549	 1.1115253481	 0.124432
