21
gdb 115645	2.96124	1.15239	0.97562	2.3404	78.68	-0.2453	0.0678	0.313	1309.4967	0.181772	-424.194498	-424.185335	-424.184391	-424.229105	33.548	
C	-0.0500462736	 1.5463029661	-0.0916698872	-0.383472
C	 0.0260279377	 0.0219679091	 0.0471129481	-0.201022
C	-1.3481450207	-0.6131642332	 0.135172224	 0.108925
O	-2.1337792075	-0.4128855241	-1.0686954052	-0.302251
C	-2.488272406	-1.8082564795	-1.126181864	-0.125044
C	-1.5189860515	-2.1464980387	 0.018773416	 0.345025
C	-0.3551801516	-3.1470746252	-0.1241808564	-0.353638
C	-0.9898407703	-3.8402775473	 1.0957649974	-0.074266
O	-2.0366115511	-2.8460972981	 1.1593064471	-0.308529
H	 0.9474785945	 1.9849158865	-0.1880273227	 0.110391
H	-0.6317221631	 1.8190822569	-0.9764618231	 0.140005
H	-0.5337394998	 1.9980852584	 0.7811373174	 0.115898
H	 0.5604446405	-0.4031865601	-0.811332184	 0.097533
H	 0.5930236816	-0.2497923322	 0.9475476357	 0.097086
H	-1.8912600589	-0.242357857	 1.0181257622	 0.079155
H	-3.5375359049	-1.9886388339	-0.8576424669	 0.108306
H	-2.2781274695	-2.2495427101	-2.108325894	 0.099536
H	-0.3570401292	-3.7243003838	-1.0506249587	 0.114477
H	 0.6410148149	-2.7322349991	 0.0359822733	 0.118492
H	-1.391934215	-4.8447249748	 0.9202108711	 0.10659
H	-0.3854308867	-3.8532512198	 2.0099844198	 0.106803
