20
gdb 84950	2.77172	1.4643	1.08803	1.9272	82.24	-0.2415	0.0051	0.2466	1167.5548	0.171806	-403.144238	-403.135738	-403.134794	-403.177411	32.695	
C	-0.6490109416	 1.4021967305	 0.0626431159	-0.397536
C	 0.1798417098	 0.1104392201	 0.0160504155	 0.003525
C	 0.9675688631	 0.0413445142	-1.2796090714	 0.007232
C	 2.1734833016	-0.443122097	-1.5893411829	-0.095793
C	 3.2118442016	-1.1046254675	-0.7104731554	-0.278498
C	 2.7345017118	-2.3749250245	 0.0095181423	-0.070957
O	 1.5240995942	-2.1530531936	 0.7406155176	-0.221017
C	 1.5625765501	-1.0334157058	 1.5254028021	 0.076918
N	 0.9676430548	 0.0408644348	 1.2581869633	-0.214087
H	 0.0071309683	 2.2778164769	 0.0669271867	 0.12332
H	-1.3181284477	 1.4709251043	-0.8008945524	 0.105764
H	-1.2529653164	 1.4271043916	 0.9730378357	 0.119276
H	-0.5196089591	-0.7397150515	 0.0007438831	 0.105252
H	 0.4049554383	 0.4704799865	-2.1087066697	 0.086265
H	 2.4614570271	-0.352322176	-2.6345628992	 0.088083
H	 4.0791606787	-1.3828993744	-1.3187716368	 0.101987
H	 3.5855712453	-0.3955546118	 0.0373508808	 0.130386
H	 2.4933162727	-3.1676452122	-0.7026250806	 0.122374
H	 3.5245674245	-2.7412727327	 0.6826964079	 0.09881
H	 2.158390793	-1.127307542	 2.4380773476	 0.108696
