20
gdb 90865	3.3288	1.52048	1.29032	1.0464	77.29	-0.2341	0.0823	0.3164	1045.9698	0.173478	-403.106673	-403.099313	-403.098368	-403.138175	30.109	
C	 0.1955945636	 1.6302266675	 0.0541488829	-0.406103
C	-0.0490836694	 0.1292594739	-0.0040942352	 0.144294
C	 0.5162693422	-0.5015584734	-1.3018047521	-0.262679
C	 1.0562260667	-1.9184841122	-1.1780120803	-0.012037
C	 1.5212895651	-2.4333967897	 0.1200460873	-0.06381
C	 0.5890998911	-1.8353537649	 1.1783098781	 0.086183
C	-0.5463712068	-2.6415521786	 0.4810137677	-0.198214
N	 0.3680749278	-3.1069293459	-0.6132991178	-0.160476
O	 0.5221595606	-0.425382923	 1.1797421919	-0.279091
H	 1.2696782793	 1.8406742543	 0.0540985396	 0.123296
H	-0.2584162218	 2.1258494341	-0.8096817242	 0.11433
H	-0.2376869734	 2.0520939569	 0.9649977451	 0.124584
H	-1.135178349	-0.0412895578	 0.0244629772	 0.073889
H	-0.2459210837	-0.4446819533	-2.0881519185	 0.108936
H	 1.3617272775	 0.1067682534	-1.6487911853	 0.109633
H	 1.642516667	-2.2259950713	-2.0405834622	 0.098305
H	 2.4758537506	-2.920030367	 0.2883416368	 0.089904
H	 0.789888187	-2.1341559845	 2.2078224563	 0.089555
H	-0.8480426901	-3.5071307388	 1.0752304143	 0.112817
H	-1.4444701343	-2.1185096395	 0.1444845286	 0.106682
