21
gdb 3974	3.89225	1.03771	0.96495	0.677	78.35	-0.2384	0.0166	0.255	1314.0318	0.185482	-366.240676	-366.230361	-366.229416	-366.276382	36.801	
C	-1.4294173722	-0.8679766329	-0.0770529587	-0.387013
C	 0.0744250215	-0.6793955552	 0.159925445	 0.038255
C	 0.6078605568	-1.7093458948	 1.1637053952	-0.377315
C	 0.8398958648	-0.7469493297	-1.183092002	-0.265659
C	 2.2946221269	-0.3700124121	-1.084519512	 0.359818
C	 2.6837625364	 1.0453019123	-0.7456212086	-0.468863
N	 3.1424737355	-1.3018424539	-1.3079249258	-0.170108
O	 4.4658972191	-0.8383305681	-1.181999784	-0.402523
H	-1.8277959301	-0.1067430371	-0.7562806879	 0.108468
H	-1.6343023378	-1.8498906967	-0.5199911608	 0.114561
H	-1.9878277735	-0.8055944201	 0.8626663526	 0.110637
H	 0.2238917853	 0.3226714351	 0.5860576829	 0.074454
H	 0.4482145833	-2.7289952219	 0.7934541563	 0.114821
H	 1.680983119	-1.5888425815	 1.3368169872	 0.122083
H	 0.0949346178	-1.6196574977	 2.126873615	 0.10748
H	 0.7698967016	-1.7601858636	-1.5923559194	 0.109832
H	 0.3529669557	-0.0694010598	-1.898458851	 0.097614
H	 3.1724999238	 1.0902694661	 0.2337976506	 0.145054
H	 3.4124462455	 1.4192414061	-1.4708516706	 0.147174
H	 1.8150070822	 1.7064946	-0.7324856527	 0.117184
H	 4.9743421484	-1.6260201446	-1.4005932913	 0.304045
