16
gdb 115262	3.36546	1.02417	0.81688	4.4376	73.35	-0.2518	-0.0565	0.1952	1337.0075	0.125929	-434.081091	-434.072713	-434.071769	-434.114637	30.38	
O	 0.0695998846	 1.4258962201	-0.0169735251	-0.418875
C	 0.0794402006	 0.021834118	-0.1056072228	-0.057237
C	-1.3300254456	-0.5545684938	 0.0445558653	 0.014167
C	-1.4145148127	-2.1061444929	 0.0216999855	-0.212293
N	-2.3795936405	-2.3567495274	 1.1034560383	-0.35286
C	-2.4155891502	-1.1945637777	 1.8543115851	 0.288365
N	-1.8897870055	-0.1422542839	 1.3509055506	-0.323914
C	-3.0728241906	-1.2112421397	 3.1343583309	 0.263732
N	-3.5943353495	-1.2651959779	 4.1639058429	-0.31225
H	-0.4291124784	 1.6418714615	 0.7812262154	 0.299866
H	 0.4885451777	-0.2378443466	-1.0886517008	 0.110154
H	 0.7304247046	-0.4358141358	 0.6589598598	 0.085943
H	-1.963535578	-0.1146213236	-0.7363058486	 0.109725
H	-1.7773407903	-2.5004314763	-0.9295812146	 0.130083
H	-0.4403570671	-2.5659112578	 0.2429410901	 0.114212
H	-2.375846129	-3.2451196161	 1.5832832181	 0.261182
