17
gdb 62767	3.60547	1.21125	1.18083	3.2102	67.82	-0.2545	0.0075	0.262	1089.2411	0.135033	-458.990248	-458.982071	-458.981127	-459.022795	31.394	
C	 0.1230006903	 1.5938534586	 0.0229223454	-0.46923
C	 0.0645110484	 0.0870097563	-0.0466893368	 0.341281
O	-1.1301992255	-0.4766262729	 0.4297760657	-0.457135
C	 0.6031808634	-0.7289225865	-1.2041144855	-0.120122
C	 1.6330627536	-0.1170644858	-2.1251117311	-0.391589
C	 2.8259153228	 0.2120381628	-1.2181368088	 0.420269
O	 3.8472438966	 0.7590838728	-1.5060628444	-0.325698
O	 2.5546762961	-0.1979662395	 0.0622614049	-0.211388
C	 1.2773100528	-0.7944223186	 0.1509550323	 0.00383
H	 1.0769587093	 1.9981703619	-0.3213534838	 0.144017
H	-0.6788368815	 2.0300045447	-0.5806534111	 0.134016
H	-0.0121734288	 1.9269090789	 1.0588215654	 0.1193
H	-1.2003779727	-0.2712127958	 1.3694793867	 0.28606
H	-0.0174926838	-1.5465852853	-1.5470552336	 0.115261
H	 1.9630209619	-0.8212463445	-2.8947641977	 0.147557
H	 1.3186519716	 0.7962130163	-2.6378795971	 0.146059
H	 1.2481404555	-1.6541965935	 0.8085621694	 0.117513
