17
gdb 31793	3.38656	1.28884	0.94467	1.6396	71.53	-0.1793	0.0632	0.2425	1208.4609	0.13552	-455.170543	-455.160973	-455.160029	-455.206007	32.959	
C	 0.0028965599	 1.3535283238	-0.0655206587	-0.233577
O	-0.0123122771	-0.0728987502	-0.0364942067	-0.276445
C	-1.2411982671	-0.6145012522	-0.0297167713	 0.481189
N	-2.3889892134	-0.004706421	-0.026434972	-0.376486
C	-3.3384299284	-1.0297222929	-0.0163800777	-0.247158
C	-2.7059472491	-2.2352865876	-0.0155204568	 0.330213
O	-3.094499517	-3.5365891279	-0.0090239115	-0.441766
N	-1.3450149427	-1.9820366715	-0.0278946978	-0.144536
C	-0.2765385789	-2.9600748065	-0.0171746224	-0.344178
H	 1.0552020083	 1.6401741649	-0.0687683118	 0.126006
H	-0.4993226921	 1.728502549	-0.9624613089	 0.137728
H	-0.5034516059	 1.7639168442	 0.8132586452	 0.138887
H	-4.3965810616	-0.8218290127	-0.0123268805	 0.096546
H	-4.055447118	-3.5643527697	-0.0430944866	 0.309452
H	 0.6533168497	-2.4537076066	-0.275635554	 0.157247
H	-0.1688534666	-3.4235974444	 0.9691912586	 0.139976
H	-0.4803024401	-3.7445093288	-0.7499494571	 0.146904
