19
gdb 114716	2.6695	1.42702	1.10941	3.9781	76.38	-0.2311	0.0225	0.2536	1155.9715	0.16112	-419.224902	-419.216509	-419.215565	-419.258483	31.329	
C	 0.1647649767	 1.5997277584	-0.0071754083	-0.377125
C	-0.0216773865	 0.0863007192	 0.138149459	-0.155904
N	 0.7016085131	-0.4837837565	 1.258118404	-0.08786
C	 2.1464808876	-0.667731937	 1.2554248201	-0.170939
C	 2.4444874005	-1.1913546858	 2.6522988859	-0.050238
N	 2.0572355213	-0.2316668466	 3.6982399483	-0.330491
C	 1.1506151054	-1.3607316656	 3.3519306328	-0.178913
C	 0.0669781265	-0.9248901111	 2.394241911	 0.463693
O	-1.1333397087	-0.9651318603	 2.573586763	-0.405705
H	 1.2120721604	 1.8653605537	-0.1829692949	 0.116329
H	-0.4192945255	 1.9706973414	-0.8552355179	 0.118047
H	-0.1711309498	 2.1164437006	 0.896065246	 0.138361
H	-1.0745769734	-0.1513816495	 0.3113534352	 0.144434
H	 0.2901863469	-0.4235376813	-0.783634013	 0.098609
H	 2.4465189042	-1.3942485789	 0.4863219054	 0.105414
H	 2.6741222604	 0.2738013731	 1.060982612	 0.120781
H	 3.2868349375	-1.8548199176	 2.8080619951	 0.102
H	 2.5428360453	-0.4696586282	 4.5613328453	 0.237882
H	 0.9323605481	-2.1312262578	 4.0800967811	 0.111625
