18
gdb 27152	2.92389	1.34729	0.99402	1.8026	80.99	-0.2058	0.0128	0.2186	1203.9533	0.148828	-401.955291	-401.946984	-401.94604	-401.9888	30.807	
C	-0.3427237831	 1.548382127	 0.1806642414	-0.510233
C	-0.0737193745	 0.0803675883	 0.0527996204	 0.138988
C	 0.1961129282	-0.6307181186	-1.0815233126	 0.300805
O	 0.3797403924	-1.9540120205	-0.7777211789	-0.20189
C	 0.2277022877	-2.0812777767	 0.568703344	-0.022722
C	-0.0461659563	-0.8782048114	 1.1270315911	-0.253355
C	 0.3068426485	-0.2631690557	-2.4986613809	-0.104375
C	 1.2213634859	-1.0022710848	-3.4143155645	-0.23775
N	-0.2339412909	-1.1525976368	-3.552139037	-0.324036
H	 0.4415188214	 2.0522912005	 0.7576905463	 0.131694
H	-0.3984520452	 2.037089848	-0.7953105729	 0.12947
H	-1.2907924628	 1.7341879122	 0.6977033742	 0.131497
H	 0.3413799449	-3.0788302306	 0.9596627643	 0.133697
H	-0.2152999943	-0.6794733776	 2.1745118887	 0.110263
H	 0.1308882481	 0.7911416376	-2.6890593262	 0.095309
H	 1.7085365462	-0.4725666857	-4.2284347942	 0.119009
H	 1.7916862419	-1.8231143181	-2.9899203334	 0.124066
H	-0.5196718578	-2.0275492671	-3.1171841597	 0.239563
