20
gdb 13106	3.96481	1.16329	0.95793	2.5388	76.05	-0.2364	-0.0171	0.2193	1268.0249	0.175892	-349.024534	-349.015622	-349.014678	-349.058693	32.167	
C	-0.0249807459	 1.5141429044	-0.2918150645	-0.382012
C	-0.0534127597	 0.0050631481	-0.0373846026	-0.168547
C	 0.8144013883	-0.4133712888	 1.1570075992	-0.192795
C	 0.7661973467	-1.913556288	 1.437444948	-0.084821
C	 1.5181334265	-2.5082341827	 2.673127893	-0.260811
C	 0.2550677381	-3.3325016257	 3.0659748267	-0.331684
C	-0.5273474188	-2.4996725063	 2.0374120659	 0.393089
O	-1.6924873488	-2.2878972298	 1.8540940069	-0.298567
H	 0.9936518682	 1.8655221008	-0.4925364702	 0.109856
H	-0.645759435	 1.7843657349	-1.1515985712	 0.113038
H	-0.4003185179	 2.0683649457	 0.5756686329	 0.115185
H	-1.081654569	-0.3277015534	 0.1398618159	 0.129281
H	 0.2920293282	-0.5257209124	-0.9348158605	 0.090185
H	 1.8574783978	-0.1157717192	 0.9827670567	 0.09576
H	 0.4874116309	 0.1298338799	 2.0542788151	 0.095543
H	 1.0203210916	-2.4746567066	 0.5275909367	 0.098202
H	 2.421154757	-3.0803695899	 2.4571486657	 0.107316
H	 1.7559865218	-1.7393784917	 3.412670795	 0.112332
H	 0.3121049083	-4.3853518858	 2.7703780071	 0.131247
H	-0.1009954684	-3.2821337935	 4.0978177042	 0.128203
