16
gdb 51340	4.90478	1.00973	0.96672	2.2347	69.65	-0.2648	0.0018	0.2666	1209.6657	0.125054	-437.843453	-437.836199	-437.835255	-437.876107	26.976	
O	-0.0815694659	-0.0154920641	 0.1096973412	-0.271137
C	 0.0136795386	 1.1699839261	 0.202277233	 0.166924
O	 1.1094583612	 1.8482025344	-0.1958678396	-0.203776
C	 1.119637636	 3.2663697267	-0.0611774727	 0.163571
C	 2.3261735067	 3.9179300663	 0.5660382142	-0.095754
C	 3.3435930277	 4.1432225583	-0.5016110041	-0.029231
C	 2.8221425097	 3.5777903385	-1.811421388	-0.23789
C	 1.4649863597	 4.0972609312	-1.3055680153	-0.063619
N	 2.1994005997	 5.108907526	-0.362936513	-0.165032
H	-0.7714743967	 1.8309625176	 0.6194057776	 0.081082
H	 0.1932750445	 3.6138276821	 0.4082716008	 0.104385
H	 2.5412112562	 4.0454983577	 1.6199518073	 0.106235
H	 4.3555290649	 4.4406433451	-0.2523811213	 0.106317
H	 3.1752767333	 4.1705202492	-2.6581804034	 0.118968
H	 2.9247246773	 2.5101213942	-2.0197719365	 0.125445
H	 0.6880289372	 4.4496820707	-1.9799221602	 0.093513
