21
gdb 85629	3.24835	1.0461	0.86644	0.8211	95.1	-0.2235	-0.0148	0.2087	1398.9726	0.181608	-349.950003	-349.940571	-349.939627	-349.983817	36.337	
C	-0.8313526613	 1.2212411527	 0.0141019348	-0.414686
C	 0.100992823	 0.0134123345	-0.0591011483	 0.024097
C	 1.2751839262	 0.1680259195	-1.0562143372	-0.328155
C	 2.3376466257	-0.7563891217	-0.4803097255	 0.196028
C	 2.040172424	-1.0946496242	 0.784170407	-0.17557
C	 0.7753239401	-0.4345890882	 1.2784986356	-0.036142
C	 1.0984612485	 0.6987096372	 2.2717113533	-0.389183
C	 3.4835259812	-1.1450386983	-1.2145982855	 0.184958
C	 4.4396506535	-1.4517805564	-1.8817152429	-0.407414
H	-0.3003914973	 2.1267666342	 0.3250062412	 0.117629
H	-1.2788084778	 1.4223860342	-0.9650937582	 0.113731
H	-1.6506836099	 1.0534489395	 0.7215664994	 0.112701
H	-0.4859017447	-0.848103115	-0.4010865284	 0.079608
H	 0.9956121443	-0.1000093171	-2.0800748223	 0.110357
H	 1.6506492191	 1.2002416151	-1.0956935152	 0.108612
H	 2.6656169933	-1.7166534686	 1.4149333662	 0.095256
H	 0.1307242785	-1.1542934188	 1.7996998241	 0.071771
H	 1.7207187208	 1.4714220951	 1.8086529516	 0.119084
H	 0.186305539	 1.1724882366	 2.6473935772	 0.11551
H	 1.6487205904	 0.3061055237	 3.1329817815	 0.113843
H	 5.2884645333	-1.730498854	-2.4550896287	 0.187966
