13
gdb 127772	3.69256	1.68893	1.16749	6.9447	66.45	-0.2608	-0.0435	0.2173	956.5084	0.091657	-445.054762	-445.04789	-445.046946	-445.086221	25.208	
C	-0.0141555687	 1.4647171627	-0.0561096133	-0.352629
N	-0.0072369834	 0.0246969374	 0.068941936	-0.125541
N	-0.0452581072	-0.7765844431	-1.0787313593	-0.135885
N	-0.0304555476	-2.0228385827	-0.7449216204	-0.258047
C	 0.0166764892	-2.081266117	 0.6166760259	 0.354751
C	 0.031592598	-0.7959909448	 1.130839122	 0.474739
N	 0.0781160488	-0.9539959523	 2.4648942135	-0.37163
N	 0.0910196912	-2.3227741848	 2.7465522857	-0.101793
N	 0.0538957838	-2.9838466607	 1.6399070192	-0.252547
H	 0.895027467	 1.8990037595	 0.3706221489	 0.149933
H	-0.054567439	 1.689333202	-1.1223093865	 0.180888
H	-0.8902027254	 1.8959960053	 0.4376701041	 0.149859
H	 0.1032156035	-0.3014726116	 3.2292354244	 0.287903
