21
gdb 76901	2.23259	1.7943	1.41247	2.0727	76.33	-0.2487	0.064	0.3127	1034.5641	0.1844	-424.222838	-424.214565	-424.213621	-424.255582	32.564	
C	-0.7219267997	 1.332347262	-0.1236571458	-0.407213
C	-0.0970811648	-0.0526030427	-0.0388476271	-0.017945
C	 1.1227311873	-0.3621742594	-0.9739389036	 0.103721
O	 1.6699818301	 0.7297854767	-1.6703555803	-0.43811
C	 1.9624536561	-0.7811525817	 0.2787120687	 0.064486
O	 3.0244854286	 0.1200643919	 0.5593350512	-0.276109
C	 2.5294342447	 1.2096553389	 1.3538544501	-0.09492
C	 1.3171637423	 0.6665741065	 2.1235427779	-0.23931
C	 0.7684119726	-0.4414504947	 1.2121843967	-0.0611
H	 0.0248197826	 2.1273157317	-0.0556686249	 0.122701
H	-1.2371506718	 1.4597441345	-1.0808839919	 0.122302
H	-1.4573427882	 1.4805478693	 0.6746628382	 0.107853
H	-0.8794240711	-0.803238725	-0.1910309492	 0.069364
H	 0.9280579577	-1.1846608059	-1.6737573614	 0.065022
H	 2.5510334259	 0.8614719947	-1.2913100529	 0.294164
H	 2.3716062492	-1.793684298	 0.2756401885	 0.077599
H	 3.3466232796	 1.540373237	 2.0006861979	 0.112226
H	 2.2424570161	 2.0458723754	 0.7029136105	 0.105652
H	 1.6372857692	 0.2318518367	 3.0752349113	 0.107792
H	 0.5870407461	 1.4496959123	 2.3428113653	 0.110378
H	 0.3582207375	-1.27058464	 1.7907403408	 0.071448
