14
gdb 130984	4.56282	0.94215	0.81523	3.7033	63.84	-0.241	-0.0311	0.2099	1312.2548	0.100655	-470.003151	-469.995029	-469.994084	-470.037516	27.942	
O	 0.414770874	 0.9317152293	 1.2112964573	-0.232358
C	 0.5081112228	 1.7139738891	 0.3060967975	 0.175781
C	 1.2908366696	 1.4157955005	-0.9746643413	-0.263152
N	 1.4331346951	 2.5820254708	-1.8212189712	-0.385074
C	 2.346561979	 3.5427860937	-1.514711389	 0.463805
N	 2.9701911214	 3.6021368696	-0.356500462	-0.2183
O	 3.7623709217	 4.7651331071	-0.4964213728	-0.15902
C	 3.5165934441	 5.2356801256	-1.7127808363	 0.123011
N	 2.663496267	 4.551287804	-2.4048976363	-0.336163
H	 0.0072403373	 2.7072772554	 0.3153481037	 0.095504
H	 2.2586480466	 0.9823861745	-0.690622134	 0.156866
H	 0.7338444025	 0.6513937519	-1.5256943991	 0.143569
H	 1.2134443324	 2.5065414132	-2.8000777472	 0.267138
H	 4.0425891565	 6.1314044652	-2.0106053194	 0.168393
