20
gdb 60926	2.64859	1.12737	0.90653	2.8061	77.42	-0.2267	-0.0404	0.1863	1332.1812	0.167717	-440.254456	-440.244247	-440.243303	-440.29003	36.475	
C	 0.3282140698	 1.4487089601	-0.2820359086	-0.423544
C	-0.009382741	-0.0161330131	-0.4833036771	-0.006686
C	 0.5190920663	-0.8590880941	-1.6086193456	-0.038701
C	 1.4839272345	-0.3352962573	-2.6671186534	 0.027253
O	 2.2680856906	-1.378876204	-3.1828354545	-0.438058
C	 0.6893957091	 0.3264369558	-3.7768329994	 0.132246
O	 0.7285292216	-0.0787804368	-4.913648967	-0.259478
N	 0.9242972545	-1.1113153334	-0.228876706	-0.102
C	 2.2909225491	-0.8622161569	 0.2035681162	-0.318196
H	 1.3219328211	 1.7278707216	-0.6358952114	 0.122622
H	-0.4009167268	 2.0759408404	-0.8064649872	 0.125691
H	 0.272257953	 1.7057215297	 0.7813877718	 0.130721
H	-1.0201494613	-0.2527689488	-0.1492294133	 0.094038
H	-0.1227630086	-1.6397770024	-2.0175882524	 0.099544
H	 2.1302349797	 0.4459900061	-2.2379621556	 0.091308
H	 2.0646154814	-1.4139125568	-4.131196203	 0.294685
H	 0.0626659247	 1.1924574869	-3.4846642419	 0.102515
H	 2.748757886	 0.0690722639	-0.1596245856	 0.099026
H	 2.3096127049	-0.8366149253	 1.2975978868	 0.122925
H	 2.9159467814	-1.6942542257	-0.1321461228	 0.14409
