14
gdb 33441	2.22438	2.04104	1.21253	5.222	71.45	-0.2797	-0.0442	0.2356	977.4134	0.101916	-395.655003	-395.647756	-395.646811	-395.686729	27.378	
N	-0.0620373532	-1.1573023598	-0.0906866046	-0.320628
C	-0.0492196838	-0.0030858989	-0.0477372025	 0.257813
C	-0.053939582	 1.4573056228	 0.0257531707	 0.084601
C	-1.0086581901	 1.9859962601	-0.9474757941	 0.257857
N	-1.7790584301	 2.4025675917	-1.700591403	-0.320648
C	 0.0368006022	 2.1382897699	 1.4343771497	-0.084624
C	 1.4809013913	 1.599363277	 1.4551214194	-0.196248
N	 1.3611510856	 2.1307881405	 0.0055801071	-0.149569
C	 0.6449128349	 3.3315938867	 0.671156749	-0.196256
H	-0.7361659793	 2.1144945616	 2.2060692447	 0.109633
H	 2.2112410829	 2.1575457281	 2.0408717377	 0.128664
H	 1.6459857097	 0.5238154174	 1.5231153001	 0.150367
H	 0.0137884265	 3.9058370553	-0.0075345187	 0.150406
H	 1.3353877554	 3.9723752476	 1.2195235444	 0.128632
