19
gdb 88904	5.99594	0.53976	0.51818	4.248	88.53	-0.2616	-0.0562	0.2054	2096.6063	0.156786	-385.85849	-385.848326	-385.847382	-385.896037	34.918	
C	 0.228303275	 1.5568695931	-0.2700753721	-0.406032
C	 0.0986394444	 0.0650879161	-0.0466342557	-0.008177
C	 1.3192648987	-0.8175024245	 0.0684882872	-0.284488
C	 0.4254541123	-0.6113425525	 1.2663970625	 0.013421
C	 0.9142288861	 0.1649158117	 2.4822564883	-0.394352
C	 1.6687137559	-0.6560515944	 3.4208039207	 0.108247
C	 2.2904082154	-1.3367101643	 4.2020739441	 0.03087
C	 3.028546954	-2.1783010703	 5.1055165362	 0.019259
O	 3.5489432429	-1.8007028227	 6.1309454008	-0.231748
H	 1.1165772039	 1.9721048829	 0.2149915168	 0.116279
H	 0.3148133138	 1.7767377994	-1.339504445	 0.122604
H	-0.6448147004	 2.099131353	 0.1099025769	 0.119839
H	-0.7445575282	-0.3769532848	-0.5716324608	 0.08918
H	 1.3252671424	-1.7856416075	-0.4196136357	 0.11484
H	 2.286770458	-0.3236410652	 0.0808178973	 0.113243
H	-0.2115860279	-1.4499168107	 1.5326480485	 0.095476
H	 1.5446299762	 1.0080949127	 2.1763301386	 0.141643
H	 0.0629193532	 0.6098712487	 3.0161296855	 0.144492
H	 3.091418994	-3.2388825708	 4.7854680759	 0.095405
