17
gdb 127979	3.35583	1.29757	0.94857	4.3931	74.29	-0.2031	0.0326	0.2357	1217.4995	0.135528	-451.316959	-451.307375	-451.306431	-451.352467	33.115	
C	 0.0419205012	 1.3760991723	-0.092161631	-0.319767
N	 0.0211891106	-0.0790222116	-0.0804596699	-0.403762
C	-1.1015725277	-0.6517486455	-0.0267274599	 0.539702
O	-2.343003083	-0.0887238945	 0.0125174467	-0.262356
N	-3.3452278068	-1.1207639514	 0.0650031634	-0.231136
C	-2.6590541599	-2.2208512404	 0.0850883766	 0.445756
N	-3.2087825195	-3.4754504489	 0.239786771	-0.597239
N	-1.3070201309	-2.0284844955	 0.0185749283	-0.168521
C	-0.2474165159	-3.0086284735	 0.1040545163	-0.355523
H	 1.0806540549	 1.7154102381	-0.0777917745	 0.115314
H	-0.4364792829	 1.7891295248	-0.9909439889	 0.118573
H	-0.471870805	 1.8105545387	 0.7764167872	 0.119162
H	-4.219830071	-3.4430606351	 0.2062991572	 0.274671
H	-2.8400458408	-4.1738860853	-0.393031016	 0.263891
H	-0.0571660815	-3.4896029442	-0.8624612484	 0.13483
H	 0.6559511738	-2.4778571504	 0.409521224	 0.180449
H	-0.5022630155	-3.7706055675	 0.8454817079	 0.145956
