19
gdb 115027	2.0058	1.6827	1.01222	1.6767	83.13	-0.2427	0.0194	0.2621	1207.4265	0.157793	-385.850589	-385.841501	-385.840556	-385.884599	33.842	
C	 0.1527869626	 1.3934904257	 0.0992510243	-0.234573
O	-0.0354102348	 0.004110939	-0.0219840896	-0.231337
C	 0.6174623981	-0.5715045257	-1.1329314893	 0.119646
C	 2.1041819878	-0.8903951166	-0.8172610825	-0.285057
C	 2.0660298814	-2.329520204	-0.3649190831	-0.068936
C	 0.9144641864	-2.9188253211	-0.670120064	-0.056624
C	-0.0216193324	-1.9718943653	-1.4072890356	-0.251239
C	-1.4308066033	-2.0899169321	-1.0557783175	 0.355334
C	-2.5958044943	-2.2356447736	-0.8002781159	-0.474881
H	 1.2065469483	 1.6668130918	 0.2631748452	 0.102251
H	-0.2049468507	 1.929630625	-0.7939751478	 0.105524
H	-0.4281150649	 1.7213569379	 0.9646008474	 0.130455
H	 0.5089451423	 0.0865796147	-2.0067176101	 0.065427
H	 2.7371418968	-0.7703232523	-1.7076107382	 0.105905
H	 2.4987407463	-0.2075744897	-0.057201871	 0.112614
H	 2.9032249182	-2.8119410896	 0.1266026029	 0.09675
H	 0.6428462843	-3.9485578645	-0.4746665237	 0.105571
H	 0.0667510802	-2.168837915	-2.4875221826	 0.112541
H	-3.6231158523	-2.3477643345	-0.5573812289	 0.190628
