21
gdb 107279	3.252	1.29467	1.13976	1.7585	81.77	-0.2382	0.0675	0.3057	1176.7543	0.183051	-387.033724	-387.025516	-387.024572	-387.066514	32.328	
C	 0.0773872522	 1.5165964329	 0.2256901068	-0.370867
C	 0.0081200337	 0.0254588954	-0.1330586303	-0.310504
C	-1.3938299408	-0.5195421309	-0.0848476193	 0.388656
C	-2.07873919	-0.960990783	 1.1750589855	-0.343784
C	-1.9244297555	-1.9619745379	 0.0592501031	-0.152181
C	-2.9377210107	-1.7365847391	-1.0848770972	-0.064056
C	-4.3129226542	-1.1196801376	-0.7557648239	-0.109458
O	-3.7546013178	 0.2222525207	-0.772560216	-0.299664
C	-2.4590428595	-0.2800151757	-1.1883545733	 0.045461
H	 1.103344208	 1.8920234137	 0.1602208918	 0.109349
H	-0.5415659311	 2.114522396	-0.4517340192	 0.12234
H	-0.285646324	 1.6914757361	 1.2433716161	 0.12106
H	 0.4305542827	-0.1296724045	-1.1352898402	 0.094134
H	 0.6403500932	-0.5503189669	 0.5547216422	 0.095994
H	-1.4122606729	-1.1262512752	 2.0165648913	 0.1074
H	-3.045265246	-0.5515158551	 1.4476146379	 0.127705
H	-1.3622394096	-2.8776792864	 0.2024872556	 0.085575
H	-2.8687166847	-2.4327865493	-1.9189846506	 0.078101
H	-5.0621661081	-1.2423176117	-1.5477327676	 0.100316
H	-4.7643705681	-1.372743399	 0.2105872774	 0.102561
H	-2.0984872467	 0.1873596475	-2.1091877499	 0.071864
