16
gdb 79316	4.08754	1.2356	1.15301	2.9943	77.22	-0.2373	0.0195	0.2568	1077.2215	0.123935	-400.642302	-400.634688	-400.633744	-400.674137	30.027	
O	-0.1808084122	 1.5075560002	-0.133225063	-0.437272
C	-0.0096764703	 0.1135061369	-0.0929819092	 0.140393
C	-1.2827191775	-0.7135531566	-0.0810176813	-0.129035
N	-1.7550231578	-0.9657966811	-1.4766761759	-0.182361
C	-0.7626521033	-0.2457871651	-2.3492628851	-0.15366
C	 0.3656258829	-0.6552472776	-1.3972462781	-0.205553
C	-0.6292760672	-1.7826627939	-0.9021257668	 0.352326
C	-0.5570564441	-3.1871101452	-0.7876870564	-0.016132
C	-0.4570907466	-4.3831043463	-0.6959196855	-0.350544
H	 0.6800885773	 1.9266168347	-0.0350708345	 0.287008
H	 0.638364582	-0.1986354223	 0.7362784541	 0.084043
H	-2.0160880345	-0.8223121297	 0.7065586324	 0.114625
H	-0.726419416	-0.754185336	-3.31462171	 0.114609
H	-0.954595648	 0.8233148876	-2.4743880312	 0.117022
H	 1.4020141649	-0.7790887643	-1.7041570965	 0.082364
H	-0.3812006495	-5.4390085213	-0.614640193	 0.182167
