22
gdb 57383	2.7753	1.28568	1.27391	2.9961	81.47	-0.2223	0.0579	0.2802	1153.8506	0.193032	-404.272804	-404.263494	-404.26255	-404.306616	36.347	
C	-0.0635706511	 1.5404197683	 0.0109517483	-0.425565
C	 0.0266100074	 0.0079559317	 0.0141378904	 0.177951
C	 0.7506890699	-0.5009605935	 1.2684112772	-0.425771
O	-1.2867323704	-0.5620093518	-0.0608852644	-0.469341
C	 0.7185228198	-0.4909245876	-1.2437578599	 0.389866
C	 2.1529927206	-0.2386930662	-1.7642473431	-0.229081
N	 1.5733233418	-1.1473924344	-2.863021431	-0.152871
C	 0.9784618366	-1.9496941367	-1.6905564882	-0.21945
C	 0.3103974941	-0.2772400468	-2.7212475121	-0.219428
H	 0.9294643947	 2.0011457546	 0.0082112271	 0.118108
H	-0.6123835896	 1.8882768862	-0.8683024134	 0.126293
H	-0.5906002179	 1.8945054647	 0.9047110153	 0.103319
H	 0.2308180195	-0.1647552337	 2.1732212879	 0.103331
H	 0.7767568189	-1.5939157011	 1.2767129079	 0.126301
H	 1.7780551705	-0.1263074917	 1.3187911301	 0.118179
H	-1.7744453593	-0.2787923057	 0.7199504157	 0.275721
H	 2.4076233487	 0.7638670554	-2.1204335069	 0.097833
H	 2.9890801645	-0.6917369279	-1.2233675139	 0.09782
H	 1.7252105328	-2.534495754	-1.1457529153	 0.094743
H	 0.1162857895	-2.5595483392	-1.9692019288	 0.108636
H	-0.6004241211	-0.7653152193	-3.0749335076	 0.10865
H	 0.4245690301	 0.7215249687	-3.1523684854	 0.094758
