17
gdb 102794	2.67192	1.20828	0.86047	9.807	68.68	-0.2004	-0.0111	0.1893	1271.8033	0.135132	-492.309996	-492.301442	-492.300498	-492.343646	31.353	
N	-0.8278136266	 1.1169929854	-0.4503133294	-0.462249
H	-1.3547198567	 0.150946832	-0.6935256965	 0.392355
H	 0.1505553711	 1.1085481166	-0.7363330073	 0.295695
H	-1.2924577845	 1.883644479	-0.9355624683	 0.298443
C	-0.9921267253	 1.2621897258	 1.048485411	-0.205573
C	-2.4231665498	 1.0011708513	 1.459176116	-0.150109
N	-2.8470705742	-0.3886439876	 1.4161372083	-0.231426
C	-2.7046148521	-1.2592970748	 0.4405585273	 0.163418
O	-2.1064649571	-1.0652742344	-0.6453075737	-0.426122
C	-2.6308879872	 1.4708789618	 2.9932532828	 0.401121
O	-2.1197870329	 2.5620345006	 3.2484506678	-0.45292
O	-3.2800254088	 0.6410353222	 3.6589572557	-0.472966
H	-0.3067588839	 0.5462048279	 1.5078914425	 0.150927
H	-0.7349347548	 2.2732481189	 1.3659337105	 0.178909
H	-3.0989786204	 1.6173906607	 0.8486324004	 0.10308
H	-3.2971351398	-0.5803730195	 2.3328429664	 0.287076
H	-3.1584232769	-2.2402437259	 0.6306675467	 0.13034
