21
gdb 126716	4.80397	0.83088	0.77801	2.16	87.14	-0.2245	0.0279	0.2524	1582.6743	0.18346	-383.306018	-383.296414	-383.29547	-383.342187	34.406	
C	-0.0643962981	 1.5837071842	-0.2305139205	-0.371394
C	-0.0212684491	 0.0911113038	 0.0993812453	-0.140172
N	-1.3330529135	-0.5319455452	 0.0467518859	 0.062964
C	-1.8467622016	-1.3237930609	-0.9288907226	-0.134384
C	-3.1520445307	-1.6200436297	-0.5810388414	 0.183347
C	-4.1323433065	-2.4926572666	-1.3098859729	-0.302388
C	-4.2417252486	-3.9111065513	-0.7233912331	-0.360694
C	-3.325202779	-0.9374400815	 0.6450450013	-0.076001
N	-2.2298039477	-0.2803734265	 1.0194152928	-0.272933
H	 0.9370315097	 2.0175467505	-0.1498999925	 0.117191
H	-0.4325584906	 1.749706195	-1.247356665	 0.123381
H	-0.727413458	 2.1021835708	 0.4659818296	 0.148686
H	 0.6219750724	-0.4474212484	-0.6025775252	 0.11612
H	 0.3779622117	-0.0648042921	 1.1057768181	 0.131115
H	-1.256273763	-1.614623325	-1.7845223213	 0.12371
H	-5.1230406341	-2.0220580539	-1.2939268817	 0.105481
H	-3.8464525446	-2.5597770916	-2.366022345	 0.098647
H	-3.2763971804	-4.4254921431	-0.7638380642	 0.115992
H	-4.5540595577	-3.8784623361	 0.3251209916	 0.119914
H	-4.9721237862	-4.51061288	-1.2766933584	 0.107728
H	-4.2075038743	-0.9028827922	 1.2692430592	 0.10369
