17
gdb 66516	4.43228	1.60589	1.48728	4.0292	76.71	-0.2033	-0.0484	0.1549	919.3903	0.136202	-380.733682	-380.726953	-380.726009	-380.764262	27.851	
C	-0.1916495252	 1.4741999716	-0.0292097075	-0.531054
C	 0.045914871	 0.0063416199	 0.0580126708	 0.362745
C	 0.648316061	-0.9957114115	-0.8711736716	-0.091198
C	 1.479185975	-1.7080440645	 0.27248128	-0.059888
C	 1.1323290175	-3.196205855	 0.6548535776	-0.183187
N	-0.3616707362	-3.1593216246	 0.5263643281	-0.223831
C	-0.5723682446	-1.9106213312	 0.6591376182	 0.211817
C	 0.5003951193	-0.9364139964	 1.2036849947	-0.204424
N	-0.8779116676	-1.0304794571	-0.466391852	-0.202644
H	 0.7322287467	 2.0335815192	 0.1515494554	 0.128217
H	-0.569309843	 1.740355477	-1.0206927034	 0.141044
H	-0.9322233602	 1.7931283085	 0.7121824241	 0.134155
H	 0.8412152926	-0.957926898	-1.9359731361	 0.11202
H	 2.5334270307	-1.4176442941	 0.2518515413	 0.08201
H	 1.4925871465	-3.9603153191	-0.0407716794	 0.123774
H	 1.5360623416	-3.4302603985	 1.6520944559	 0.109676
H	 0.699630365	-0.719825016	 2.2490059839	 0.090766
