16
gdb 22006	4.3451	1.02729	0.8352	3.7004	79.	-0.2072	-0.0243	0.1829	1303.7628	0.124968	-434.068077	-434.059539	-434.058595	-434.102079	30.953	
C	-0.0257305797	 1.4985902173	-0.0284842351	-0.5295
C	-0.0153567249	-0.0083132982	 0.047516357	 0.26885
N	-0.0203823357	-0.6932989667	 1.1360313998	-0.184876
O	-0.0369055941	 0.1076995485	 2.2815046059	-0.390968
C	 0.0017909975	-0.7747045254	-1.1915235681	 0.290939
C	 0.0137944206	-2.128742716	-1.4626687138	-0.15493
N	 0.0283174348	-2.3626115238	-2.8113056052	-0.253557
C	 0.0254018	-1.1716886705	-3.3711081573	 0.011755
N	 0.0096401671	-0.178123293	-2.4418861315	-0.328241
H	 0.8619550512	 1.8644246744	-0.5575708633	 0.134245
H	-0.9085627275	 1.8513877324	-0.5742751899	 0.134245
H	-0.0383258354	 1.9358674083	 0.9673502909	 0.169467
H	-0.0385184424	-0.5504718773	 2.9842306239	 0.310423
H	 0.0125430958	-2.9326801952	-0.74412401	 0.124518
H	 0.0341766519	-0.96785912	-4.4313828347	 0.132355
H	 0.0040879106	 0.8104332852	-2.6274129485	 0.265274
