19
gdb 114689	3.29241	1.26717	1.17409	2.3348	71.28	-0.2415	0.0901	0.3316	1136.2734	0.15821	-460.142556	-460.133923	-460.132979	-460.175975	32.828	
C	-0.1167522686	 1.4715257075	 0.1004368564	-0.467524
C	 0.047641921	-0.0157196182	-0.0219569833	 0.406248
C	-0.8835873551	-1.03114423	 0.612478113	-0.371874
C	 0.5785753291	-0.950689816	 1.009800283	 0.015916
O	 1.4515426205	-1.8471274835	 0.3616283324	-0.293867
C	 1.6627843472	-1.3493952737	-0.9609834837	 0.207621
C	 1.6451882518	-2.5331894851	-1.9239254352	-0.088675
O	 0.5371010964	-3.3731444434	-1.7003644556	-0.415622
O	 0.6081111062	-0.4501695417	-1.2475311824	-0.306877
H	 0.8416988678	 1.9833046471	-0.032726453	 0.125555
H	-0.8122468729	 1.8448307138	-0.6581855746	 0.135164
H	-0.517759347	 1.7334061991	 1.0837520471	 0.12061
H	-1.6189230871	-0.6769558788	 1.3281840171	 0.113178
H	-1.1824829737	-1.8677705017	-0.0086564469	 0.132933
H	 0.8943387743	-0.6594763687	 2.0056155082	 0.108052
H	 2.6312799565	-0.8207755256	-1.0065052096	 0.072765
H	 1.576774579	-2.1533923367	-2.9473541476	 0.124026
H	 2.6004226794	-3.072668227	-1.8221151798	 0.092947
H	 0.5476697351	-3.5669347773	-0.7547174653	 0.289424
