10
gdb 132142	3.09778	1.46517	0.9947	0.9854	55.71	-0.2552	-0.1018	0.1533	1012.3046	0.052025	-557.838652	-557.831945	-557.831001	-557.870209	24.494	
F	 0.0941650634	 0.0507624279	 0.0021255902	 0.000435
C	-0.0478200047	 1.3486239972	 0.0108452933	 0.253245
C	-1.2372757704	 1.9983390282	 0.0307623979	 0.095204
F	-2.3835383486	 1.3314637418	 0.0432392033	-0.044734
N	-1.2858535186	 3.3390077264	 0.0384099203	-0.223596
C	-0.1867344174	 4.0258966652	 0.0267128481	-0.134914
C	 1.1455686988	 3.4319662918	 0.0051294637	 0.408506
O	 2.2137024877	 3.96193801	-0.0069739637	-0.302027
O	 1.0994765877	 2.0008207213	-0.0016995076	-0.214462
H	-0.2329294579	 5.1096395504	 0.0329680344	 0.162343
