23
gdb 104060	2.81033	1.30335	1.17239	1.0257	85.36	-0.2397	0.082	0.3217	1208.5061	0.205243	-388.260076	-388.250873	-388.249929	-388.293695	35.79	
C	 0.0761695133	 1.2792256948	-0.2544909253	-0.250239
O	-0.0489243493	-0.0991291762	 0.0151799812	-0.282469
C	-1.3718623851	-0.5974139651	 0.0830692409	 0.443417
C	-2.1491144043	-0.0114725904	 1.2619343137	-0.453547
C	-2.1998440516	-0.5960465695	-1.249066635	-0.306922
C	-2.4462366137	-2.1239704005	-1.0899653235	-0.008332
C	-1.5057247858	-3.0135794331	-1.9346782725	-0.22154
C	-0.3929289207	-2.8479477192	-0.8554567873	-0.24079
C	-1.4066791175	-2.1441954131	 0.0906394636	-0.069398
H	 1.1379988441	 1.4745110569	-0.4255164395	 0.124412
H	-0.483358677	 1.5761870596	-1.1539972793	 0.105709
H	-0.2606323693	 1.9063386712	 0.5830735287	 0.106764
H	-2.3477229754	 1.0569340116	 1.1290832701	 0.112164
H	-3.1156620365	-0.5139927509	 1.3670297916	 0.118843
H	-1.5860456268	-0.1504971052	 2.1905809569	 0.119753
H	-3.0913205496	 0.0361684703	-1.2429807656	 0.093419
H	-1.6018201312	-0.346849171	-2.1305214828	 0.098311
H	-3.486834345	-2.4308591138	-0.9785910682	 0.058963
H	-1.8620389816	-4.0452012568	-2.0061899524	 0.095389
H	-1.2809531501	-2.6594824096	-2.945888179	 0.090782
H	 0.0100771976	-3.7861380209	-0.4686990682	 0.095566
H	 0.4413110278	-2.2050752145	-1.1401532842	 0.115877
H	-1.5874475925	-2.6235670444	 1.054568096	 0.053867
