21
gdb 88562	3.41165	1.11543	1.0792	1.3647	82.78	-0.2296	0.0712	0.3008	1236.3988	0.182837	-387.039765	-387.031205	-387.03026	-387.073346	33.581	
O	 0.03991339	 1.2622160078	 1.0271318603	-0.418207
C	 0.0492435882	 0.042067405	 0.3456639515	 0.113564
C	-0.570128825	-1.1107924939	 1.0704412183	-0.322986
C	-1.2532804397	-0.552567939	-0.1642939555	-0.189433
C	-2.5311345871	 0.2061057624	-0.1243587582	 0.400687
C	-3.2135836671	 0.7104069275	 1.115176853	-0.319947
C	-3.9647297374	-0.2399677258	 0.2250351747	-0.106514
C	-4.5256824837	 0.5124357543	-0.9844319936	-0.216995
C	-3.0774601759	 0.9814642782	-1.3404708714	-0.294467
H	-0.1586858172	 1.9572131653	 0.3911190252	 0.287415
H	 0.9487769498	-0.1459587709	-0.2411292603	 0.081723
H	-0.1045225837	-2.0876514079	 1.0048746457	 0.110954
H	-1.0011475965	-0.8784253427	 2.0373509787	 0.124569
H	-1.1424616484	-1.1615440223	-1.0601902988	 0.079063
H	-2.8611955294	 0.2917953615	 2.0508742497	 0.113754
H	-3.5180109487	 1.7532816433	 1.1889194285	 0.096002
H	-4.3029704004	-1.2042739136	 0.5860529731	 0.082614
H	-4.9457306789	-0.1442741148	-1.7496139608	 0.10046
H	-5.2572448718	 1.2966706797	-0.7612286952	 0.09356
H	-2.8919294986	 2.061912226	-1.3466441641	 0.084983
H	-2.7327291285	 0.5680136501	-2.2921169509	 0.099202
