19
gdb 82746	2.25835	2.17897	1.55184	1.7313	73.87	-0.2341	0.0661	0.3002	935.2878	0.160011	-422.986516	-422.978998	-422.978054	-423.017876	30.834	
C	-0.001644772	 1.4650858559	 0.0322471761	-0.516921
C	 0.0104430095	-0.0315837732	 0.0982963692	 0.405125
O	 0.7865639668	-0.7066268702	-0.9498353181	-0.331251
C	 0.8177986812	-1.8004347754	-0.026480802	 0.118311
C	-0.6764981598	-2.1663166396	 0.419896117	-0.157653
C	-0.2545903765	-1.8464325358	 1.8783792272	-0.249036
C	 0.7483581336	-0.8898534461	 1.2116549791	-0.116902
C	-1.3117335421	-0.8267268894	-0.0272565912	 0.118906
O	-2.3166713063	-0.2931894198	 0.8125371642	-0.44363
H	 1.0042804677	 1.874062646	 0.1602203872	 0.122934
H	-0.3900733598	 1.7985879597	-0.9359404162	 0.128322
H	-0.652142403	 1.8623840006	 0.8164966788	 0.140096
H	 1.5438151937	-2.5843157119	-0.2367651622	 0.083796
H	-1.1698343994	-3.0973804806	 0.1424949842	 0.061139
H	-1.0168609269	-1.4440925509	 2.5459592218	 0.109157
H	 0.2655460468	-2.6835487709	 2.352473876	 0.095969
H	 1.6175339907	-0.4478074594	 1.6962353911	 0.071813
H	-1.6321159768	-0.8372608741	-1.0760255807	 0.073396
H	-3.0857725674	-0.8699230651	 0.7705368484	 0.286431
