15
gdb 16472	3.31845	2.82231	1.86851	1.4142	59.84	-0.2461	0.0634	0.3095	709.5081	0.120928	-399.72449	-399.718679	-399.717735	-399.754032	24.098	
O	 0.135138788	 1.3538006278	 0.1070822532	-0.486969
C	 0.0651257877	-0.0183157064	 0.0673923141	 0.434019
C	 0.9164744812	-0.7849969545	 1.0649919431	-0.13478
O	 0.5815945165	-2.1431229212	 0.7215650727	-0.278666
C	-0.3384294961	-1.9757156385	-0.3369988571	 0.129713
C	-1.3000538831	-0.7864596108	-0.062463859	-0.148619
N	-1.328323006	-0.3856876531	-1.5175612041	-0.369601
C	 0.0974440575	-0.8224706858	-1.2827593753	-0.14862
H	-0.462902772	 1.666915047	-0.5870685651	 0.296409
H	 1.990171765	-0.6106380208	 0.9322860062	 0.1148
H	 0.6458901217	-0.5759959119	 2.1061164065	 0.1148
H	-0.6992390769	-2.928340972	-0.7220915633	 0.093468
H	-2.1767455745	-0.7301295228	 0.5838822389	 0.084383
H	-1.8283925634	-1.0882498958	-2.0695150027	 0.215279
H	 0.8570724224	-0.8083079412	-2.0652484364	 0.084383
