22
gdb 9543	3.04621	1.49233	1.32785	1.3737	77.88	-0.2612	0.0738	0.3349	1069.4504	0.199047	-350.198271	-350.188868	-350.187924	-350.231712	35.454	
C	-0.0847995397	 1.5658439408	-0.0989474046	-0.415169
C	 0.0493730338	 0.0546766341	 0.0252058339	 0.004627
C	 1.0470563212	-0.6966753158	-0.8977003625	-0.237717
C	 1.3960091328	-1.6333438898	 0.2877669084	-0.243981
C	 0.7610876872	-0.5965253941	 1.2672081827	 0.340809
C	 1.8159172215	 0.2926492444	 1.9294224467	-0.448543
C	-0.1921427506	-1.1689011588	 2.3069695056	-0.137057
O	 0.5552336377	-1.951097531	 3.230161251	-0.426294
H	 0.8849826721	 2.067360089	-0.0205994718	 0.114743
H	-0.5159312705	 1.8337641649	-1.0703092328	 0.112149
H	-0.7391225339	 1.9810484092	 0.6761145892	 0.110551
H	-0.9441392157	-0.4002374094	-0.078571913	 0.061905
H	 0.6441082056	-1.1534372367	-1.8052019203	 0.090957
H	 1.891051184	-0.0605608611	-1.1831803673	 0.096919
H	 0.8290646878	-2.5683385382	 0.2607213217	 0.094546
H	 2.449687263	-1.875196024	 0.4459635116	 0.095389
H	 2.5434348795	 0.6681625413	 1.2030427692	 0.106819
H	 1.3584097756	 1.1582793641	 2.4221931362	 0.104989
H	 2.3564405202	-0.2790566581	 2.6880796796	 0.133204
H	-0.7192947311	-0.345803508	 2.8199365245	 0.07878
H	-0.95488929	-1.7838617362	 1.8022578094	 0.07589
H	-0.0502677203	-2.2993368565	 3.8905860626	 0.286485
