13
gdb 3478	4.72574	3.00347	2.66568	0.9524	52.63	-0.2291	0.0671	0.2962	561.6168	0.10224	-344.370966	-344.365594	-344.36465	-344.39975	21.518	
O	-0.1314270001	 1.4470479404	 0.0070646854	-0.445135
C	 0.0156436741	 0.0898100715	-0.0113699722	 0.314906
C	-1.0409192393	-0.9892568968	-0.0641708206	-0.150789
C	-0.416548519	-1.6374306171	-1.2971181049	-0.223265
C	 0.902009016	-0.9683028472	-0.8331597345	-0.010248
O	 1.2267604657	-1.6572825588	 0.4029256775	-0.282418
C	 0.1085425834	-1.0074899657	 0.9955360204	-0.006523
H	 0.6385329026	 1.8337488776	 0.4410813207	 0.29571
H	-2.0795464213	-0.9214956151	 0.2324018923	 0.096957
H	-0.3947832095	-2.7286236487	-1.373284748	 0.102643
H	-0.7969495191	-1.1906476165	-2.2189439981	 0.108952
H	 1.7597041129	-0.8126399407	-1.4842734126	 0.087515
H	-0.0445523564	-1.0681349329	 2.0646299645	 0.111696
