15
gdb 17185	4.06191	1.86584	1.59094	1.4437	60.7	-0.2349	0.054	0.2889	815.8114	0.118424	-399.667496	-399.660655	-399.659711	-399.698666	25.879	
O	-0.1164733665	 1.4259037499	 0.098821461	-0.424963
C	-0.0525607966	 0.0189904942	-0.0984595527	-0.24169
C	-1.4515406834	-0.5013484864	-0.0582174155	 0.341653
N	-2.5009584953	-0.2059270422	-1.0886356758	-0.380214
C	-3.2250908617	-1.0696588083	-0.0996939662	-0.079691
C	-1.9693949955	-1.9605459034	 0.130885202	 0.049475
O	-2.0206689784	-1.8877669283	 1.583643997	-0.331406
C	-2.4463103738	-0.5594325695	 1.1556099355	 0.044093
H	 0.7713135937	 1.7833478603	 0.005161356	 0.293177
H	 0.4008150347	-0.2339570803	-1.0687374138	 0.103419
H	 0.5263594905	-0.4811354876	 0.6936938926	 0.107181
H	-2.8035984506	 0.76698026	-1.0020558785	 0.219994
H	-4.2690397594	-1.3663806635	-0.1979865585	 0.093121
H	-1.6598191482	-2.8882736812	-0.3482620288	 0.103765
H	-2.6978735994	 0.1867054063	 1.9098178059	 0.102085
