17
gdb 115138	3.00111	1.30304	0.94271	5.6063	71.65	-0.246	-0.0649	0.181	1199.1294	0.137319	-455.167225	-455.158824	-455.15788	-455.200642	31.23	
O	-0.0558959667	 1.4826190796	-0.1814436588	-0.422025
C	 0.031644823	 0.0796001291	-0.1648850637	-0.06704
C	-1.3429593654	-0.5721409059	 0.0552519524	-0.126058
C	-1.3765583573	-2.1105141146	 0.0141607686	-0.207499
N	-2.342736267	-2.4638914016	 1.0527870779	-0.340884
C	-2.584915901	-1.478252583	 1.9824204492	 0.285258
N	-3.2199123895	-1.482969347	 3.0864615889	-0.514413
C	-1.9158987292	-0.231104278	 1.4269183202	 0.374135
O	-1.8194076387	 0.830979332	 1.990193223	-0.313717
H	-0.4961987383	 1.7386242034	 0.6418279055	 0.300376
H	 0.4386094806	-0.2304592764	-1.1338963428	 0.110841
H	 0.7274411372	-0.283258285	 0.6112858671	 0.091189
H	-2.0359211425	-0.1597756091	-0.6893149424	 0.130627
H	-1.6941882056	-2.4952235722	-0.9592720187	 0.124419
H	-0.3806883837	-2.5256994364	 0.2293590589	 0.116566
H	-2.5368320448	-3.4293929953	 1.2654621854	 0.24909
H	-3.5898130711	-2.4102542796	 3.3082326192	 0.209137
