17
gdb 27349	1.96294	1.77608	0.94334	4.7503	79.79	-0.2257	-0.0279	0.1978	1220.2635	0.135441	-421.895976	-421.887458	-421.886514	-421.929113	31.535	
C	 0.1331059259	 1.4650897235	-0.0841127927	-0.470729
C	-0.0333997614	-0.0190265463	-0.0480786196	 0.384434
C	-1.1937306835	-0.6993651584	-0.0647479707	-0.337557
C	-1.2316544986	-2.1636748139	-0.0253837227	 0.396157
O	-2.2676313958	-2.8151473972	-0.0390702605	-0.382954
C	 0.1036093195	-2.7645201209	 0.0321697896	-0.337552
C	 1.2195481822	-2.0135479272	 0.0455323833	 0.384432
C	 2.6284137264	-2.5069668802	 0.1022988821	-0.470724
O	 1.1731528944	-0.6514993912	 0.006344733	-0.266469
H	 0.7224236267	 1.7656369229	-0.9571433808	 0.146588
H	-0.8390610904	 1.9575679619	-0.1273905085	 0.143511
H	 0.6685877722	 1.8144053174	 0.8053030941	 0.146585
H	-2.1338088395	-0.1632318193	-0.1083572551	 0.113792
H	 0.1786945242	-3.8445233189	 0.064371078	 0.113796
H	 3.1919126029	-2.1651028681	-0.7725742536	 0.146589
H	 3.1378860691	-2.1166268936	 0.9899212661	 0.14659
H	 2.6503660758	-3.5969740504	 0.1328971181	 0.14351
