12
gdb 21904	5.61924	1.64832	1.27447	2.6342	61.8	-0.2343	-0.0733	0.161	864.723	0.084574	-414.645534	-414.63915	-414.638206	-414.676137	24.231	
O	-0.0665419014	 1.2914734838	-0.3327192542	-0.405336
C	 0.0116959412	-0.0163060301	-0.0195267587	 0.438711
N	 1.178825959	-0.5347093748	 0.1347669216	-0.194919
O	 1.2256155977	-1.8986047605	 0.4604466497	-0.289869
C	 0.0937202767	-2.6774960979	 0.6156503318	 0.413224
N	 0.1886243339	-3.9101358065	 0.9113999277	-0.527537
C	-1.1898368697	-2.0214083027	 0.4255403327	-0.109476
C	-1.2439969243	-0.7200670846	 0.1145489682	-0.154803
H	 0.8391611153	 1.6300265564	-0.3892129153	 0.312688
H	 1.1682652072	-4.1851880703	 1.0028301404	 0.230066
H	-2.0675492375	-2.6426957347	 0.5500372619	 0.147295
H	-2.1675430981	-0.1760957382	-0.0393592858	 0.139956
