19
gdb 86949	3.23065	0.92101	0.81218	3.2152	72.99	-0.2481	-0.0243	0.2238	1437.0329	0.156312	-460.151506	-460.141621	-460.140677	-460.188048	34.6	
C	 0.1640447135	 1.4562600599	-0.1700130448	-0.406511
C	 0.0089796147	-0.0217499418	 0.1209021744	 0.115641
O	 0.807776459	-0.8571906593	-0.7557286244	-0.317165
C	 1.3729551787	-1.5902801036	 0.3555198957	 0.08409
C	 2.8968767677	-1.6580343271	 0.3058080405	-0.291029
C	 3.3736132355	-2.3923855579	-0.9312665036	 0.155092
O	 4.0866094863	-3.3629741435	-0.9122702574	-0.238752
C	 0.6987459434	-0.6295439897	 1.3774409201	 0.051823
O	 1.5178901179	 0.1989736025	 2.1571523645	-0.416672
H	 1.2087969286	 1.7786680253	-0.110812515	 0.104042
H	-0.1888070729	 1.6729107489	-1.1826047945	 0.137266
H	-0.4238015534	 2.0503302739	 0.5363786247	 0.132625
H	-1.0502193797	-0.3062432307	 0.0548688065	 0.081803
H	 0.9591523534	-2.607527264	 0.3996520284	 0.088343
H	 3.3044021811	-0.6389191769	 0.266537723	 0.099076
H	 3.2896051541	-2.1594377399	 1.1946024273	 0.131892
H	 3.0050907693	-1.9639055301	-1.8878432743	 0.098078
H	 0.0244556872	-1.1201592064	 2.0812376347	 0.102358
H	 2.0758149357	 0.7296896804	 1.5794854341	 0.288002
