25
gdb 115299	3.81274	0.8837	0.75901	0.2352	96.01	-0.225	0.0364	0.2614	1623.1067	0.229837	-352.393765	-352.383937	-352.382993	-352.428186	37.849	
C	-0.1155432448	 1.5573509103	-0.102978469	-0.390236
C	-0.0156262192	 0.0311377965	-0.0107134232	-0.181715
C	 0.7465431489	-0.491306735	 1.216634113	 0.043942
C	 0.6916935202	-2.0233580768	 1.302702005	-0.207965
C	 1.3324261774	-2.5419084195	 2.5954929032	-0.302682
C	 2.6598057304	-1.8832272178	 2.8995859748	 0.330173
C	 3.5089216183	-2.5525597193	 3.9457053913	-0.473952
C	 3.0407036937	-0.7671294029	 2.2734832261	-0.152402
C	 2.2159173675	-0.0337893334	 1.2473828763	-0.246172
H	 0.8676405906	 2.0253046147	-0.212138507	 0.118334
H	-0.7193155381	 1.8591743869	-0.9646656634	 0.109886
H	-0.5847687444	 1.9775890911	 0.7939926434	 0.112053
H	-1.0286636322	-0.3919616819	 0.0035468144	 0.088444
H	 0.461778976	-0.3604002708	-0.920085791	 0.090307
H	 0.2548420562	-0.0905136864	 2.1166529363	 0.065803
H	-0.3456337952	-2.3712779774	 1.2317904284	 0.085826
H	 1.2228968172	-2.4463002587	 0.4388289654	 0.093357
H	 0.6500634379	-2.3851548207	 3.4453686208	 0.101787
H	 1.4703330512	-3.6301985856	 2.5367741394	 0.094753
H	 3.7741445973	-3.5757923597	 3.6484633858	 0.118035
H	 4.4347578063	-2.0012414766	 4.1319082479	 0.116222
H	 2.9684409251	-2.6393206355	 4.8978449727	 0.118251
H	 4.0113422022	-0.334238908	 2.5107691282	 0.069702
H	 2.6624451544	-0.1683653972	 0.2484362497	 0.098007
H	 2.2738115031	 1.0440322738	 1.4444201214	 0.100245
