18
gdb 89338	1.92929	1.83627	1.14988	5.6121	78.82	-0.2226	0.0114	0.234	1114.5717	0.147477	-398.089897	-398.081043	-398.080099	-398.123055	33.506	
C	-0.211479336	 1.4308891797	 0.0417653246	-0.34083
N	 0.143656821	 0.0225615625	-0.0039099635	-0.121952
C	 1.2828748293	-0.4088123636	-0.8613409435	-0.232105
C	 1.9325532459	-1.1181724149	 0.3396662332	 0.239889
N	 2.5186185225	-2.4022201609	 0.3997239668	-0.583325
C	 2.1760058175	-0.1192307731	 1.432386568	-0.358173
C	 0.7504554025	-0.5822246359	 1.1798420173	 0.188739
C	-0.0454675393	-1.217178044	 2.1815026208	 0.239879
N	-0.6938626544	-1.7296285733	 2.9919890668	-0.35697
H	 0.6255801355	 2.103001698	 0.2991016077	 0.097727
H	-0.6019930402	 1.7330211467	-0.9346735912	 0.127744
H	-1.0052297804	 1.5756398395	 0.7806088174	 0.139731
H	 0.9554894863	-1.0846305249	-1.6596566702	 0.111267
H	 1.8732046532	 0.4066961018	-1.3001951305	 0.100689
H	 2.0623571755	-3.0610062288	-0.2217486132	 0.241874
H	 3.5072797507	-2.3774645175	 0.174195365	 0.241035
H	 2.6323127981	-0.538095648	 2.3225158237	 0.145581
H	 2.4537310521	 0.9062113666	 1.2052539807	 0.119199
