16
gdb 125156	2.9447	1.48891	1.03845	4.7923	73.62	-0.2282	-0.0217	0.2065	1117.4465	0.123481	-434.019581	-434.01125	-434.010306	-434.053758	29.513	
C	 0.3348974046	 1.3963463815	-0.053353219	-0.502459
C	 0.0552108226	-0.0682345054	-0.0295061041	 0.167836
C	-0.1467562795	-0.9604271406	-1.0534716221	 0.372534
O	-0.3862739086	-2.1658680865	-0.5460322774	-0.223564
N	-0.3301038652	-2.0049914571	 0.9010976524	-0.036034
N	-0.0745907062	-0.7968291315	 1.1254782287	-0.158838
N	-0.2215844134	-0.7880298978	-2.4193131348	-0.15196
C	 0.9628699565	-0.396883946	-3.1893650109	-0.22816
C	 0.3847987846	-1.7643230705	-3.3192302097	-0.222617
H	 1.3855330385	 1.6214821843	 0.1630061699	 0.13678
H	 0.0941039179	 1.8151162107	-1.0338455148	 0.134662
H	-0.2714662561	 1.9143636027	 0.694928347	 0.14941
H	 0.7845188295	 0.3495648087	-3.9564831474	 0.137234
H	 1.8998706841	-0.2972473787	-2.648271051	 0.138959
H	 0.9275011758	-2.5894471404	-2.8679141094	 0.147836
H	-0.2168932051	-2.0214696033	-4.1847609574	 0.138381
