13
gdb 25118	3.21391	1.44034	1.06976	4.6406	70.05	-0.2568	-0.0872	0.1696	1043.1689	0.090909	-452.795179	-452.788038	-452.787094	-452.827207	26.502	
O	 0.0906191078	 0.0169889171	-0.5161509241	-0.337277
C	 0.0235112032	 1.1822664875	-0.1861579854	 0.375068
N	-1.2021339468	 1.8250700281	-0.0983700989	-0.349295
C	-1.5268428661	 3.1358832834	 0.1978435154	 0.036625
C	-0.7173465947	 4.2065615827	 0.2245346553	-0.201912
C	 0.6966535163	 4.2078900678	-0.1908217471	 0.342948
O	 1.1788152491	 5.1058430968	-0.840540966	-0.306173
N	 1.5285509986	 3.158959482	 0.2714555296	-0.207344
C	 1.2536844053	 1.9223660539	 0.265358604	-0.053761
H	-1.9700129676	 1.189197573	-0.2707875463	 0.271365
H	-2.5887161285	 3.265647602	 0.379182462	 0.140216
H	-1.1581422847	 5.179873575	 0.4023911819	 0.13416
H	 2.010386878	 1.2226027307	 0.6277107998	 0.15538
