22
gdb 98287	2.58836	1.04988	0.89623	2.4277	83.14	-0.2359	-0.0082	0.2276	1434.0391	0.191402	-404.341973	-404.331473	-404.330529	-404.378415	37.58	
C	-0.4268832867	 1.5170022656	-0.2369294071	-0.382115
C	-1.2298438579	 0.2492359981	-0.5162353543	-0.270859
C	-1.0458968537	-0.8211761866	 0.5452897994	 0.374215
O	-0.2365572713	-0.7172131716	 1.439594863	-0.316631
C	-1.9620576889	-2.05509442	 0.4963694686	-0.047746
C	-3.151245468	-1.8216955154	 1.4403291876	-0.398539
N	-2.4446803363	-2.3162730293	-0.8564009927	-0.066035
C	-1.5974181785	-3.1537303941	-1.7031074465	-0.228685
C	-2.8668143975	-3.6843083207	-1.1358914587	-0.222643
H	-0.5616469097	 2.2450488468	-1.0418146939	 0.107105
H	-0.7393407538	 1.9808205329	 0.7028231038	 0.125385
H	 0.6384518628	 1.2914898113	-0.1458174393	 0.131111
H	-2.3029353445	 0.4525666175	-0.6189311151	 0.12765
H	-0.9500811511	-0.1962561233	-1.4801300372	 0.131616
H	-1.3621130374	-2.8928746914	 0.8919617456	 0.078426
H	-2.7927289431	-1.6110991239	 2.4506616986	 0.137913
H	-3.7614829339	-0.9813399736	 1.095882015	 0.127234
H	-3.7883940859	-2.7103824489	 1.4730975984	 0.120501
H	-1.5381973481	-2.8630801628	-2.7479987884	 0.11891
H	-0.6682816462	-3.5329558865	-1.28032558	 0.118968
H	-2.7816123438	-4.4178946054	-0.3354684452	 0.11408
H	-3.7501399266	-3.7909407588	-1.7587799216	 0.120141
