16
gdb 131513	3.02032	1.59883	1.14444	5.2267	70.16	-0.2508	-0.0072	0.2436	1030.9391	0.127358	-434.063411	-434.056052	-434.055107	-434.095493	27.917	
O	-0.1851000438	 1.4933461641	-0.2074873667	-0.425946
C	 0.0837105851	 0.1115481186	 0.0026721661	 0.016931
C	-1.2150704172	-0.7620191255	 0.1697998277	-0.232638
C	-1.4433237105	-1.5935506378	-1.1430915456	-0.362367
C	-0.101954615	-1.4561785575	-1.7844168805	 0.347941
C	 0.7326665105	-0.5643364261	-1.1679153734	 0.238216
N	 1.912892514	-0.4999961223	-1.8416029267	-0.282069
N	 1.8488537446	-1.320142208	-2.8511897896	-0.119499
N	 0.6146072398	-1.910757972	-2.8285838154	-0.328965
H	-0.3856863619	 1.6174662593	-1.1411882036	 0.279044
H	 0.68329061	 0.0813467435	 0.9165572132	 0.103068
H	-1.0787606216	-1.4519593997	 1.0072798908	 0.11659
H	-2.0618925142	-0.1156222383	 0.4088480088	 0.119097
H	-1.722287589	-2.6286322019	-0.9232061394	 0.125117
H	-2.2407900255	-1.1771717343	-1.7699001757	 0.1263
H	 0.3908838747	-2.5865930321	-3.54103282	 0.279182
