23
gdb 109578	2.01677	1.43785	1.05599	2.8721	80.31	-0.2527	0.0497	0.3023	1260.6681	0.20518	-425.412915	-425.402817	-425.401873	-425.447285	38.574	
C	 0.8772068799	 1.5162376145	 0.1928864008	-0.436741
C	 0.1950303146	 0.163284461	-0.0064260658	-0.04006
C	 0.6041825588	-0.6677290491	-1.2732768427	 0.003474
C	 1.2400909294	 0.0275825855	-2.4728850646	-0.413211
C	 1.4606462733	-1.6188514685	-0.3718862044	-0.073104
C	 2.9773520953	-1.4324875458	-0.3627762655	-0.081966
O	 3.5808013405	-2.2266802629	 0.6427821484	-0.431081
C	 0.744513541	-1.0052064737	 0.8707518394	 0.121756
O	 1.52347301	-0.7083308631	 2.0225571088	-0.438174
H	 1.9669011145	 1.4713407359	 0.0859370809	 0.118114
H	 0.5189759591	 2.2432470729	-0.5423290265	 0.126974
H	 0.651640533	 1.9197599076	 1.1862991887	 0.125801
H	-0.8846906314	 0.3103927461	 0.0941635303	 0.071932
H	-0.273616364	-1.2189775603	-1.6260313879	 0.076249
H	 2.1272073227	 0.6079859936	-2.2039567825	 0.116846
H	 1.5433858482	-0.7049418227	-3.2286441964	 0.119621
H	 0.5294789742	 0.7124893391	-2.948554337	 0.11422
H	 1.2673673067	-2.6860290497	-0.5163011932	 0.074177
H	 3.4055845998	-1.7550685226	-1.3179673484	 0.10764
H	 3.2504228488	-0.3701106145	-0.2438222637	 0.068944
H	 3.1381958596	-1.9848026158	 1.4673795828	 0.287495
H	-0.0604563185	-1.6518359708	 1.2290051895	 0.091171
H	 2.0146862344	 0.1028026931	 1.8558443388	 0.289923
