12
gdb 132835	3.07503	1.58097	1.04415	1.0334	74.64	-0.2574	-0.0737	0.1837	1028.8597	0.077565	-439.647772	-439.640809	-439.639865	-439.679386	26.074	
F	-0.0008317032	 0.0577775381	 0.0032252744	-0.039895
C	-0.0220842601	 1.3801854505	 0.0105980454	 0.28091
N	-1.1951286686	 1.9575508461	 0.0291997696	-0.287482
C	-1.1923305821	 3.2958255694	 0.0363988247	-0.012666
C	-0.0043191313	 4.0187542523	 0.0246290209	-0.032005
N	 1.1868187273	 3.4203285661	 0.0056943369	-0.290664
C	 1.2014204592	 2.0815233492	-0.0017310318	 0.020965
C	 2.444649424	 1.3882490024	-0.0218257368	 0.261694
C	 3.486576393	 0.7874500257	-0.038761807	-0.365725
H	-2.1585474945	 3.7911918554	 0.0518165191	 0.132508
H	-0.0099726047	 5.1045808338	 0.0305577568	 0.125049
H	 4.4090744209	 0.261029811	-0.0536871322	 0.207309
