15
gdb 13243	7.62487	0.90558	0.86766	3.6301	62.5	-0.2633	0.0018	0.2651	1264.3768	0.117966	-399.76494	-399.75695	-399.756006	-399.798797	26.91	
N	-0.1999556176	-1.082454957	-0.2028433416	-0.287649
C	-0.0761523	 0.0506998866	-0.021382837	 0.267623
C	 0.0429825261	 1.4898442489	 0.2275640109	-0.198097
O	 1.2757886981	 1.9456296001	-0.2793400568	-0.241884
C	 1.4484301754	 3.3351925185	-0.132815195	 0.09097
C	 1.9383917647	 3.8624248957	 1.2385568742	-0.094353
O	 3.120114025	 4.4201772123	 0.6314034049	-0.267667
C	 2.8112817908	 3.8201332397	-0.6441953152	-0.099576
H	-0.8045345127	 2.0027971114	-0.2555833345	 0.144358
H	-0.0445285181	 1.6646691937	 1.31146357	 0.146367
H	 0.5826552776	 3.8750259482	-0.5394121578	 0.086015
H	 1.3284022445	 4.6279964547	 1.7310489464	 0.108954
H	 2.1741337559	 3.0604439019	 1.9511836471	 0.10892
H	 3.4852058222	 2.9920161781	-0.894756487	 0.122513
H	 2.8054401679	 4.5535592072	-1.4570315287	 0.113506
