16
gdb 75079	2.2878	1.79869	1.01974	4.1439	74.33	-0.2454	-0.0267	0.2187	1116.5525	0.124538	-434.118582	-434.110212	-434.109268	-434.151981	30.271	
C	 0.0006622938	 1.4714769966	 0.0621409357	-0.498341
C	-0.0158121648	-0.0219612727	 0.0100879545	 0.399296
N	-0.0598203101	-0.6842845617	-1.080986211	-0.294548
C	-0.0614636076	-2.0973918573	-0.7281636496	-0.297626
C	-0.0096710922	-2.1760875549	 0.7964645854	 0.399551
O	 0.0057922832	-3.1363415558	 1.510301594	-0.312283
N	 0.0174120068	-0.8035443574	 1.1907590742	-0.173751
C	 0.0664222967	-0.2919414018	 2.4899151499	 0.078408
N	 0.0948062795	-1.0255409907	 3.5217371804	-0.409695
H	 0.9063736309	 1.8478087285	 0.5495703574	 0.147374
H	-0.0310101889	 1.8427463504	-0.9620233498	 0.162919
H	-0.861519942	 1.8655198687	 0.6106451566	 0.147364
H	-0.9596902195	-2.5993443409	-1.1046658598	 0.154501
H	 0.7988958704	-2.6163416901	-1.1652187788	 0.154506
H	 0.0768003308	 0.8020474675	 2.4920435902	 0.107688
H	 0.1287517432	-0.4409487584	 4.3558452906	 0.234638
