19
gdb 69002	2.89376	1.43034	1.14782	1.8496	76.21	-0.2421	0.0627	0.3048	1125.5665	0.157755	-422.973832	-422.965325	-422.964381	-423.006963	32.317	
C	 0.569845264	 1.3131957266	 0.0086293482	-0.50307
C	 0.0498755776	-0.0733271152	 0.2005294473	 0.339945
C	-1.368791986	-0.6223183503	-0.0417150813	-0.279934
C	-1.0907504814	-1.7128927823	 1.0507217904	-0.305025
C	 0.3167974557	-1.1144050792	 1.2209175563	 0.368682
O	 0.9444134367	-1.1732290656	-0.0648877276	-0.3246
C	 1.1792602557	-1.1310899578	 2.4289430642	-0.063847
C	 2.5603919062	-1.6362658426	 2.3865230842	-0.175224
O	 2.291228958	-0.2340651867	 2.4429011911	-0.23096
H	 1.5650109535	 1.400254091	 0.4481419706	 0.156847
H	 0.6301079426	 1.5572909672	-1.0584101627	 0.126249
H	-0.0937892368	 2.043722464	 0.4825461608	 0.120698
H	-2.1580077694	 0.0742944625	 0.2516734656	 0.105134
H	-1.5559777785	-0.9792672808	-1.0572522064	 0.109102
H	-1.7230376673	-1.59257621	 1.934200791	 0.105498
H	-1.11107298	-2.7555658015	 0.7253456791	 0.109571
H	 0.6337788432	-1.1876733582	 3.37185278	 0.093229
H	 3.0074090026	-2.0619466414	 3.2835558187	 0.114106
H	 2.9519625335	-1.9912414596	 1.4364047205	 0.133599
