17
gdb 95897	3.13449	1.12404	0.86653	3.4749	73.83	-0.2523	-0.0629	0.1894	1282.4004	0.135412	-458.971656	-458.963131	-458.962186	-459.005065	31.188	
O	-0.0644444669	 1.437007852	 0.0003457553	-0.422047
C	 0.0209225257	 0.0176406087	-0.0132850028	 0.053991
C	-1.4159810591	-0.5182456407	-0.0133644579	-0.096697
O	-1.4241764446	-1.9094385001	-0.2557707671	-0.247156
C	-0.9896885118	-2.2473452185	-1.5597603322	-0.163459
C	 0.2675608478	-1.5179155593	-1.9609645772	 0.177214
C	 0.9622435011	-1.9429539664	-3.1866548355	 0.100843
O	 0.5865825866	-2.8453857255	-3.900837235	-0.273655
C	 0.7336139721	-0.4912641395	-1.2389254982	-0.167235
H	 0.7990687325	 1.7954461833	 0.227510628	 0.290851
H	 0.536949642	-0.3509099154	 0.8879129941	 0.094418
H	-1.8885809665	-0.3590902636	 0.9581610952	 0.11871
H	-1.9904754129	 0.0332415576	-0.7740505096	 0.106536
H	-0.8195399025	-3.3276745445	-1.5697207674	 0.138398
H	-1.7801553135	-2.0434238693	-2.3018114029	 0.118194
H	 1.8835643804	-1.3627393564	-3.4198056794	 0.071974
H	 1.6421577597	 0.0260062077	-1.5464769774	 0.099118
