19
gdb 105770	2.27448	1.40251	1.15198	3.9937	75.26	-0.2339	0.0314	0.2653	1154.4816	0.160898	-419.218737	-419.209838	-419.208893	-419.252476	33.248	
O	 0.0901634994	 1.1450023228	 0.4806459019	-0.419297
C	-0.1144197225	-0.222587238	 0.1925198239	-0.101697
C	-1.6003864999	-0.5282853799	-0.1363454254	 0.11282
C	-1.874899484	-2.0550697526	-0.1272922351	-0.2544
C	-2.2732527958	-2.3218144157	 1.3328069659	-0.222688
C	-3.0689869832	-1.0583539361	 1.6981347798	-0.151444
N	-2.5059468319	 0.0261549076	 0.8753738729	-0.32058
C	-1.8823345897	 0.0773338901	-1.4572160232	 0.263529
N	-2.041281741	 0.5779482247	-2.4874523183	-0.352339
H	-0.0420072814	 1.6456813506	-0.3335905466	 0.302041
H	 0.5267535944	-0.5710173098	-0.6296401419	 0.111334
H	 0.1603604047	-0.7687587124	 1.0998179272	 0.1153
H	-2.7036336319	-2.2862580857	-0.8019251917	 0.129857
H	-1.0042809493	-2.6246518846	-0.462512791	 0.11562
H	-2.8526700663	-3.2412801984	 1.4459762838	 0.108764
H	-1.3820264299	-2.4123096199	 1.9627795152	 0.108271
H	-4.131784709	-1.1951466875	 1.4573777483	 0.110645
H	-3.009894371	-0.8120589398	 2.7624020765	 0.107944
H	-2.0298600616	 0.7464212545	 1.4035900777	 0.236318
