17
gdb 29201	3.00411	1.36608	0.95008	5.2728	79.73	-0.2267	-0.049	0.1777	1205.7494	0.13573	-421.9015	-421.89317	-421.892226	-421.934265	31.373	
C	-0.0336854931	 1.5405927801	-0.0243711963	-0.498308
C	-0.0087232464	 0.03593529	 0.0091667522	 0.119924
C	-0.0297502645	-0.6821908057	-1.1346115456	 0.027102
O	-0.0102111081	-2.0211725909	-1.1970671722	-0.223612
C	 0.0351084428	-2.8167284357	-0.0366045945	 0.427467
O	 0.0512172919	-4.0098386855	-0.1803429353	-0.349664
C	 0.058970894	-2.0693154893	 1.200512948	-0.350688
C	 0.0386128576	-0.7111603285	 1.2483321481	 0.271411
C	 0.0645299296	 0.0200421558	 2.5623458836	-0.491296
H	 0.854440559	 1.9732825904	 0.4503549208	 0.133821
H	-0.0690641061	 1.9046738051	-1.0544708048	 0.129899
H	-0.9064470807	 1.945200641	 0.5009167918	 0.133815
H	-0.0649377873	-0.2363241744	-2.1231508013	 0.133299
H	 0.0946038441	-2.6697439231	 2.1016891824	 0.117104
H	 0.1000735731	-0.6771319223	 3.4015447219	 0.136531
H	 0.9351384427	 0.6827227335	 2.6265084086	 0.141586
H	-0.8221190286	 0.6540154596	 2.6771261525	 0.141609
