17
gdb 95144	2.18321	1.94244	1.51552	3.0263	67.47	-0.2335	-0.034	0.1995	940.1192	0.136783	-458.949971	-458.942364	-458.94142	-458.981985	29.549	
O	 0.052641712	 1.4106448786	-0.2573359071	-0.435154
C	 0.0255784393	 0.025932848	 0.0218641118	 0.120343
C	 0.6383070133	-0.3541581507	 1.3925506373	-0.111987
O	-0.3141228437	-0.439403052	 2.4565411116	-0.279635
C	-1.5911917009	-0.9396862205	 2.0545949315	 0.012107
C	-1.5076797901	-1.8512242043	 0.7958614979	-0.285546
C	-1.4178089093	-0.542681851	-0.0537827005	-0.181968
C	-2.1791607009	 0.1293434122	 1.1038595327	 0.414374
O	-2.9011393512	 1.0792799594	 1.2028583095	-0.322298
H	-0.6308272865	 1.8508948856	 0.2623894173	 0.297159
H	 0.6411032984	-0.4320477008	-0.7612743183	 0.09787
H	 1.1718438854	-1.3100895586	 1.2998494443	 0.101278
H	 1.3633803016	 0.4092214422	 1.6842330882	 0.129693
H	-2.1186783285	-1.2637256277	 2.9519522916	 0.10206
H	-0.6777895046	-2.5561661036	 0.7369271099	 0.119057
H	-2.4493326804	-2.3809276148	 0.6355625512	 0.12277
H	-1.8243893038	-0.4909451018	-1.0640559988	 0.099876
