19
gdb 66583	2.92803	1.90674	1.59886	1.5435	77.28	-0.2309	0.1018	0.3328	920.0155	0.16141	-385.849386	-385.842532	-385.841588	-385.880252	28.441	
C	 0.0136413823	 1.483599555	 0.0611290105	-0.521516
C	 0.0079513654	-0.0126196659	-0.0151046669	 0.340041
C	-0.9420531836	-0.8962989167	 0.8115227184	-0.122487
C	 0.5555917798	-1.0465587274	 0.9484095025	-0.169888
C	 0.4491213449	-2.078580755	-0.2259738646	-0.099447
C	-1.0943655303	-2.1828175984	-0.0174106185	-0.065977
C	-1.7181034225	-1.9597527141	-1.3963879611	-0.086865
O	-0.7634123515	-1.1549950277	-2.1136198835	-0.282861
C	 0.3143658822	-0.9054632428	-1.2297597528	 0.066064
H	 0.9817697115	 1.8962087455	-0.2451691901	 0.117933
H	-0.7539198664	 1.9133056933	-0.5929821171	 0.127629
H	-0.1864695259	 1.8307894441	 1.0807599039	 0.117545
H	-1.6451279855	-0.45586127	 1.5077655043	 0.082203
H	 1.2157246655	-0.9566119051	 1.7976040719	 0.091462
H	 1.0772597668	-2.944781158	-0.4173607178	 0.06964
H	-1.4586452101	-3.0511177365	 0.5328728427	 0.07055
H	-1.8767989299	-2.8970632276	-1.947081968	 0.094973
H	-2.6779857555	-1.4304567258	-1.3362705492	 0.098048
H	 1.1956322927	-0.623271857	-1.8087493347	 0.072953
