16
gdb 126475	1.97636	1.73413	0.98613	2.406	78.86	-0.2445	-0.0254	0.2191	1175.8671	0.123309	-400.723077	-400.714554	-400.71361	-400.756648	31.304	
C	-0.2688164779	 1.4859952601	 0.1077116452	-0.384494
C	 0.1127698084	 0.0011127895	-0.0181654728	-0.305456
C	 0.7763700653	-0.530664077	 1.2138707751	 0.310682
N	 2.0536794603	-0.815416397	 1.2209548614	-0.195991
O	 2.3456708863	-1.2657204738	 2.5126818208	-0.163439
C	 1.2307210399	-1.2393349505	 3.2422626545	-0.015717
C	 0.1787041941	-0.7848769415	 2.5006021936	-0.041983
C	-1.1683097227	-0.6125437471	 2.8843339772	 0.246703
C	-2.323539319	-0.4601940997	 3.1882676631	-0.449133
H	 0.6186645498	 2.1022088031	 0.2782645902	 0.13081
H	-0.7542258659	 1.8317566296	-0.8094281217	 0.120099
H	-0.9607802891	 1.645110766	 0.9393998772	 0.13576
H	-0.7875975007	-0.5921829621	-0.2148023522	 0.122819
H	 0.7933009104	-0.1462314715	-0.8612798085	 0.130868
H	 1.3145716796	-1.5690899296	 4.2660144001	 0.16301
H	-3.3406636388	-0.3288953385	 3.4636297469	 0.195461
