16
gdb 43337	2.85987	2.02061	1.51048	4.4372	73.28	-0.2426	-0.0508	0.1918	881.4716	0.126782	-400.735684	-400.729282	-400.728337	-400.766346	26.162	
O	-0.0337860464	 0.0618280133	 0.391094204	-0.317758
C	-0.0734100964	 1.2308755231	 0.0898519495	 0.354881
C	-1.3394894386	 1.9682010376	-0.148787089	-0.151702
C	-1.3854250848	 3.2778334168	 0.1216205426	-0.06502
C	-0.1276869012	 3.9795768575	 0.5535953064	-0.102991
C	 0.548116382	 3.4488976106	 1.8840938405	-0.26043
C	 1.6658448079	 2.817064895	 1.0400743926	-0.050691
C	 1.0992504908	 3.4307223081	-0.2062845977	-0.052349
N	 1.1281134365	 1.9904669505	-0.0448236412	-0.122601
H	-2.2065513818	 1.3804347329	-0.4265367576	 0.118818
H	-2.3176185721	 3.8331805546	 0.0630779066	 0.111844
H	-0.2275600786	 5.0646779901	 0.5412423479	 0.085885
H	 0.9256853417	 4.2796825048	 2.48435548	 0.116517
H	-0.0443964815	 2.7824158345	 2.5160721272	 0.12047
H	 2.6916043214	 2.6491630699	 1.3438243339	 0.111029
H	 1.586190081	 3.8657460807	-1.0719383858	 0.104098
