16
gdb 124154	6.22362	0.7714	0.69229	2.3953	86.05	-0.2274	-0.0072	0.2202	1620.8019	0.124593	-396.936606	-396.927496	-396.926551	-396.973063	30.704	
C	 0.0244704954	 1.4096253226	 0.0372135145	-0.510974
C	 0.0236842289	-0.0436924871	 0.0249812045	 0.257967
C	 0.0226537078	-1.2483670583	 0.0148683076	-0.064941
C	 0.0076528566	-2.6656846474	 0.003862901	 0.164713
N	 1.1249370748	-3.3928936237	-0.0742584942	-0.306954
N	 0.65470483	-4.6580435506	-0.0546454936	 0.056084
C	 1.5615528037	-5.7833605928	-0.1225745822	-0.32111
C	-0.6924158119	-4.6433869904	 0.0322644922	-0.027095
N	-1.1440339716	-3.4078559593	 0.0717919074	-0.30927
H	 0.6059119801	 1.7987070694	 0.8805038429	 0.152965
H	 0.4620046411	 1.8137003247	-0.8825258566	 0.152944
H	-0.9941225274	 1.8028403072	 0.1236463731	 0.154895
H	 2.2515110496	-5.7618941375	 0.7245154296	 0.158388
H	 0.9786002709	-6.7055609496	-0.0928030651	 0.14406
H	 2.1371381845	-5.7469041902	-1.050711116	 0.158388
H	-1.2862554326	-5.5451100171	 0.0629068349	 0.139941
