18
gdb 71366	2.992	1.98404	1.5964	3.0767	74.28	-0.2399	0.0762	0.3161	881.9239	0.15076	-401.877876	-401.871626	-401.870682	-401.907985	27.548	
O	 0.1088443696	 1.3484403245	 0.1020104496	-0.483765
C	 0.0656021687	-0.0210834717	 0.0499605263	 0.436998
C	 0.6822296157	-0.9720822064	 1.0855166191	-0.294925
C	 0.0314009168	-1.8899672526	 0.0200375256	-0.079736
C	-1.2158716267	-0.9352397075	-0.0308326218	-0.092958
C	-1.7186806108	-0.8800416486	-1.4639573153	-0.062287
N	-1.2749189021	 0.3555360244	-2.1770810895	-0.367161
C	-0.4528701872	-0.8909753608	-2.2277330832	-0.062287
C	 0.5798595535	-0.9507530525	-1.1143575775	-0.092957
H	-0.3691908324	 1.6315290451	-0.6942837299	 0.289653
H	 1.7736934171	-0.986706801	 1.1469006302	 0.093094
H	 0.227604216	-0.973350053	 2.0797948994	 0.093094
H	 0.0138533472	-2.9781719552	 0.0065408139	 0.076347
H	-1.9246798327	-0.9306359775	 0.7976890965	 0.066446
H	-2.6231159151	-1.3803044925	-1.7898837723	 0.092094
H	-1.7985683711	 0.4416010215	-3.0461633913	 0.229813
H	-0.3259638628	-1.4001454977	-3.1759604905	 0.092093
H	 1.6432401564	-0.9614609286	-1.3551588494	 0.066446
