21
gdb 66830	2.61002	1.87409	1.4172	0.3201	86.27	-0.2244	0.0955	0.3199	1021.2251	0.182952	-349.896545	-349.888658	-349.887714	-349.928304	32.12	
C	-0.0557339287	 1.4156593351	-0.0156781496	-0.519718
C	 0.0147213331	-0.0794350042	 0.0596459619	 0.314855
C	 0.2110774369	-0.990860416	-1.1637517534	-0.173748
C	 0.9599079801	-2.1776613036	-0.5181978779	-0.052325
C	 1.9614937887	-1.5815899767	 0.502198235	-0.24899
C	 0.6986574206	-0.9535178612	 1.1425415594	-0.108781
C	-0.1828143844	-2.1256202435	 0.5676465494	-0.10972
C	-1.0249130097	-1.1288642337	-0.2924922102	 0.292521
C	-2.4836686812	-1.0399390449	-0.6042446217	-0.528271
H	 0.944764191	 1.8599632866	-0.0867930955	 0.118146
H	-0.6210509556	 1.7408758464	-0.8961355667	 0.11614
H	-0.5461266622	 1.8431144437	 0.8669122147	 0.115293
H	 0.2945810183	-0.5927399924	-2.1680813628	 0.074203
H	 1.184102977	-3.0543178613	-1.1254047582	 0.059317
H	 2.39568017	-2.3565936412	 1.1428054866	 0.092181
H	 2.7519428008	-0.9178443551	 0.1359784134	 0.087029
H	 0.664394272	-0.6177369409	 2.1793785878	 0.056429
H	-0.5350248551	-2.9788155115	 1.1434516259	 0.061718
H	-3.0849630076	-0.9246842915	 0.3058475991	 0.116665
H	-2.6948306186	-0.1800575231	-1.2499010642	 0.118511
H	-2.8398850155	-1.936924481	-1.1251698929	 0.118544
