17
gdb 22276	3.72921	0.92026	0.81802	3.9374	72.91	-0.2478	-0.0035	0.2443	1387.5372	0.133929	-455.126411	-455.116975	-455.116031	-455.162001	33.49	
C	-0.24197204	 1.4719395719	 0.0254216685	-0.484179
C	 0.0209428872	-0.0076312699	 0.1084254175	 0.364261
N	 0.2670034541	-0.6394274679	 1.1903161877	-0.157974
O	 0.2516588807	 0.2054449822	 2.3060703888	-0.39357
C	 0.0069065109	-0.8131014373	-1.1661818618	-0.04596
C	-0.0691173069	-2.3630416731	-1.0755765512	-0.397341
C	-1.3939349019	-2.2364468704	-1.8629081087	 0.42951
O	-2.1981461711	-2.9881678459	-2.34077964	-0.35429
N	-1.3035905825	-0.8602788718	-1.844927479	-0.328766
H	 0.4361653093	 2.0181718143	 0.6853194727	 0.157361
H	-0.1258627023	 1.838485329	-0.9976617571	 0.118267
H	-1.2615579309	 1.6990064326	 0.3569158156	 0.153345
H	 0.4779443591	-0.3976295906	 3.0222863535	 0.310032
H	 0.804118348	-0.4517844462	-1.8301478397	 0.096072
H	 0.7156921635	-2.9013899771	-1.6085162235	 0.130732
H	-0.1706049732	-2.7489498459	-0.0625327828	 0.15302
H	-1.826417314	-0.1581686939	-2.3480983705	 0.249481
