23
gdb 121935	5.1167	0.59636	0.57286	1.4847	83.07	-0.2629	0.0853	0.3482	2025.089	0.204105	-425.411279	-425.400799	-425.399855	-425.447669	37.93	
C	 0.0823580507	 1.5305204902	-0.0970093467	-0.379153
C	 0.0133641894	 0.0015639558	-0.0565132018	-0.166493
C	-1.4201938292	-0.532830806	 0.0269833033	-0.162074
C	-1.4963356318	-2.0610132301	 0.0749978645	-0.199473
C	-2.9369863505	-2.5941178561	 0.1090609005	 0.083644
O	-3.68839418	-2.1660348501	-1.0147439522	-0.435238
C	-2.9553400292	-4.1137283422	 0.1976075103	 0.066033
C	-4.0973112843	-4.8997804226	-0.2755467783	-0.187975
O	-2.9074625534	-4.777162681	-1.0741885931	-0.251505
H	 1.1164170617	 1.883755821	-0.1607391897	 0.109545
H	-0.459701561	 1.9278082852	-0.9623540439	 0.115028
H	-0.3650334024	 1.970781093	 0.8011973691	 0.112483
H	 0.5015469895	-0.4113560071	-0.9493819553	 0.094122
H	 0.5912992738	-0.3687700046	 0.801056779	 0.090708
H	-1.9113207761	-0.1176787668	 0.9187641389	 0.087455
H	-2.0017285592	-0.1784207879	-0.8316878903	 0.111446
H	-0.9874698919	-2.4906882585	-0.7992972679	 0.100144
H	-0.9608510584	-2.43512446	 0.9588270989	 0.088734
H	-3.4499604554	-2.1857192355	 0.9906300526	 0.090315
H	-3.421401319	-2.749276229	-1.7395203935	 0.288491
H	-2.3027945398	-4.5512387744	 0.953992191	 0.095322
H	-4.2749431474	-5.8929643357	 0.1321932042	 0.118854
H	-4.9670438964	-4.3801890677	-0.6691377897	 0.129589
