21
gdb 41239	2.83059	2.02843	1.64402	0.0632	85.63	-0.256	0.0962	0.3522	922.7306	0.186562	-349.892397	-349.886073	-349.885129	-349.92253	28.409	
C	-0.0216335037	 1.4942324721	-0.255630518	-0.271755
C	 1.4985069282	 1.5974716211	 0.1271208696	-0.35271
C	 1.3223840937	 0.2856323611	 0.9144195374	 0.338122
C	 1.9498789695	-1.1057004083	 1.1192936692	-0.330848
C	 0.6820717036	-1.3040456639	 1.9973137269	-0.027425
C	-0.6720595166	-0.7850379159	 1.2661630368	-0.079218
C	-0.7914016512	 0.2674076983	 2.3934414574	-0.248522
C	 0.7416387786	 0.2027901209	 2.3917832938	-0.060533
C	 0.0322163169	-0.0207817126	 0.1367151885	 0.026358
H	-0.6560017532	 2.1054213755	 0.3889181804	 0.106727
H	-0.2792665967	 1.7089303041	-1.294971722	 0.094593
H	 2.1463479889	 1.4793454324	-0.7472014974	 0.102149
H	 1.8238041867	 2.4801512749	 0.684532508	 0.094886
H	 2.1186617915	-1.7203731048	 0.2292430267	 0.088015
H	 2.8377433684	-1.1269859497	 1.7604763354	 0.092469
H	 0.5815263613	-2.1013372841	 2.7333711368	 0.066749
H	-1.4928675056	-1.4640006541	 1.0333098765	 0.054428
H	-1.3180900886	 1.2028271772	 2.1852468178	 0.089482
H	-1.1858294806	-0.1676036305	 3.3171463897	 0.093517
H	 1.3754296565	 0.5780674327	 3.1961242034	 0.060614
H	 0.2085085724	-0.6422931266	-0.746165467	 0.062902
