20
gdb 58555	2.21502	1.43434	1.36641	3.4318	74.59	-0.2191	0.0098	0.2289	1110.3342	0.169712	-440.291254	-440.281715	-440.280771	-440.325445	35.168	
C	 0.0832211358	 1.4974717344	-0.1686746153	-0.337107
N	 0.0082075459	 0.048343939	 0.018084717	-0.103113
C	 0.7493937355	-0.338384353	 1.2182339754	-0.348018
C	-1.3284655122	-0.5169388503	-0.0570401821	 0.146491
C	-2.1665738748	 0.061400525	-1.198836511	-0.468676
C	-1.4246653488	-2.0673907388	 0.0178894145	-0.120878
O	-2.2518969595	-1.9785597027	 1.2188059355	-0.246064
C	-2.1581079025	-0.6072034172	 1.2607596149	 0.415208
O	-2.5918094398	 0.1251111687	 2.0918472901	-0.336485
H	 1.1359119958	 1.7925745101	-0.1346258483	 0.122077
H	-0.3053831213	 1.7876525256	-1.145634963	 0.125454
H	-0.4531525693	 2.0675484285	 0.6084002699	 0.12131
H	 0.3325321477	 0.0961016795	 2.1423565668	 0.124872
H	 0.7708290833	-1.4239845141	 1.3340265719	 0.125252
H	 1.7845217824	-0.0000912962	 1.1193477285	 0.123736
H	-1.6163255218	-0.0016584281	-2.1427724469	 0.132851
H	-3.0962695387	-0.5046651568	-1.3010820009	 0.131391
H	-2.4366044834	 1.1029533058	-1.0137861594	 0.144036
H	-1.9708532208	-2.5482529159	-0.7960449941	 0.121001
H	-0.4974391534	-2.6035944235	 0.2195809566	 0.126663
