21
gdb 81587	3.46418	1.13689	0.98968	2.0375	82.39	-0.2328	0.0815	0.3143	1281.6147	0.182375	-387.00246	-386.994096	-386.993151	-387.035623	32.806	
C	-0.1215485956	 1.5201826458	 0.36417755	-0.430402
C	-0.034056589	 0.0204051164	 0.1538079824	 0.035155
C	 1.1015136071	-0.554052456	-0.737629443	 0.008119
O	 2.087275586	-0.1770085673	 0.3035301127	-0.312367
C	 0.9577370848	-0.8088184692	 1.0242074204	 0.005318
C	 0.9752974651	-1.9420263232	-0.0450142992	 0.02032
C	-0.171837872	-2.8932186319	-0.2939887637	-0.042706
C	-0.349640581	-4.1003085622	 0.596491933	-0.270258
C	-1.3770104799	-3.0000978406	 0.6127820704	-0.257527
H	 0.8726264812	 1.9453656962	 0.5147322508	 0.137769
H	-0.583049055	 2.0078656113	-0.5015944023	 0.11252
H	-0.7390208405	 1.7556033449	 1.2380737798	 0.111616
H	-1.0131239706	-0.4389151406	 0.0024532854	 0.082358
H	 1.3574210316	-0.3232466627	-1.7737016003	 0.085344
H	 1.03925078	-0.8767024477	 2.1108911845	 0.086715
H	 1.9406845277	-2.4560831528	-0.0513421137	 0.085822
H	-0.3676001395	-3.0719591376	-1.3488527762	 0.088301
H	-0.6077756037	-5.0484500358	 0.1381712586	 0.111772
H	 0.3063211374	-4.1866995016	 1.4570601467	 0.113626
H	-1.4162375982	-2.3614622051	 1.488721708	 0.115868
H	-2.3453776758	-3.1867037803	 0.1611723656	 0.112637
