17
gdb 106398	3.5032	1.45052	1.28151	2.5557	66.4	-0.2536	0.0641	0.3177	1000.2412	0.136243	-458.890747	-458.883572	-458.882627	-458.922291	28.792	
O	 0.0790820993	 1.3859930418	-0.1210432314	-0.416042
C	 0.0290517939	-0.018085557	 0.034390992	-0.180034
C	-1.3867171337	-0.5200241603	 0.1123485338	 0.345699
C	-2.5038434747	 0.0875075925	 1.0177934285	-0.268554
C	-3.3213498841	-0.45131964	-0.1872203773	 0.011892
O	-2.1941078301	-0.1334492862	-1.0442305775	-0.305428
C	-3.156769933	-1.9896369413	 0.0033487553	 0.025479
O	-2.2873975368	-2.5923613727	-0.9565361356	-0.225038
C	-1.7130529488	-2.0414545758	 0.2299230367	-0.033439
H	-0.5119499215	 1.5950892038	-0.8543928543	 0.293758
H	 0.5408779837	-0.5389627003	-0.7910664964	 0.109161
H	 0.5617169496	-0.2599727166	 0.9608441529	 0.113844
H	-2.6717512199	-0.3492213784	 2.0065013519	 0.098724
H	-2.457640319	 1.1761589671	 1.0558230909	 0.121647
H	-4.2735801516	-0.0413944748	-0.5197120118	 0.091749
H	-3.9037905999	-2.6184292444	 0.4744022276	 0.108769
H	-1.1884276234	-2.7148942074	 0.8985351745	 0.107813
