18
gdb 72711	2.7157	2.06993	1.61102	1.1091	76.62	-0.2247	-0.0014	0.2233	893.6079	0.147073	-401.784772	-401.777571	-401.776627	-401.815626	30.358	
C	-0.0117783309	 1.5195016843	 0.0037589906	-0.455119
C	-0.018728404	-0.0011226736	 0.0324741788	 0.438787
O	-1.3476557734	-0.3904317968	 0.6195308194	-0.352233
C	-0.639674109	-0.5906256897	 1.9070730765	-0.20821
C	 0.6255925347	-0.8657710027	 1.0578143255	 0.159075
N	 2.0273243269	-0.4796753331	 0.4675864394	-0.403081
C	 1.1885296524	-0.6389487285	-0.8491621118	-0.176864
C	 0.9109010488	-2.120493608	-0.8038640407	-0.046096
C	 0.5252253647	-2.2771567915	 0.4595903702	-0.068754
H	 0.9129787797	 1.9401327589	-0.4012384687	 0.114443
H	-0.8298655738	 1.8294058507	-0.6560201698	 0.141546
H	-0.2038729443	 1.9673151127	 0.9834514165	 0.123293
H	-0.6531860888	 0.3227096979	 2.5096915809	 0.111725
H	-1.0540309052	-1.4323087747	 2.4678556145	 0.11859
H	 2.176945328	 0.5218043947	 0.6222557122	 0.215707
H	 1.596044588	-0.1640881482	-1.7431009028	 0.074589
H	 1.0131424305	-2.824438649	-1.615486776	 0.110811
H	 0.2097900656	-3.1533466934	 1.0076556251	 0.10179
