23
gdb 118057	3.5892	0.6878	0.60555	1.3644	78.9	-0.251	0.0663	0.3174	1882.162	0.202394	-462.556036	-462.544329	-462.543384	-462.593394	41.662	
C	 0.0102704172	 1.5792178027	 0.0174208951	-0.384327
C	-0.0091195612	 0.0491535215	 0.029708829	-0.188362
C	-1.4242170379	-0.5347229407	-0.0084093075	 0.108846
O	-2.1266505366	-0.1428609686	-1.1859659348	-0.425599
C	-1.4313651196	-2.0714959427	 0.1505667241	 0.084791
O	-0.730038431	-2.4651026468	 1.330722629	-0.428451
C	-2.8451053323	-2.6526612369	 0.1110982557	-0.188865
C	-2.8634035262	-4.175494989	 0.1087536273	-0.079226
O	-4.221470771	-4.5923168453	 0.1226449482	-0.422593
H	 1.034666742	 1.9618120165	-0.0180384973	 0.109926
H	-0.5331929622	 1.9692243171	-0.8476532987	 0.124014
H	-0.4660330718	 1.9855937277	 0.9167219356	 0.113036
H	 0.546259119	-0.3405468985	-0.8376031816	 0.080343
H	 0.5025418098	-0.3413265228	 0.9142989175	 0.114699
H	-2.0134069401	-0.1069304186	 0.8167054563	 0.074899
H	-1.5865831859	-0.3965612063	-1.9434129722	 0.278857
H	-0.8382558162	-2.4976888568	-0.6727123446	 0.07419
H	-1.2675732971	-2.2014883731	 2.0866775843	 0.279939
H	-3.4096017247	-2.2937188948	 0.9840134435	 0.091121
H	-3.3671575513	-2.2741993933	-0.7718747714	 0.123829
H	-2.3409868106	-4.5490315625	-0.7880560706	 0.080643
H	-2.315693758	-4.5535438556	 0.9840009598	 0.093782
H	-4.2387823044	-5.5529340733	 0.1601149734	 0.284505
