16
gdb 96968	3.34472	1.18231	0.95333	1.9842	74.42	-0.2572	-0.0414	0.2159	1222.5477	0.122285	-437.859399	-437.850787	-437.849843	-437.893156	30.581	
C	 0.0081908914	 1.5135779093	-0.1766091848	-0.343865
N	-0.0339762009	 0.0625054321	-0.062127215	-0.339492
C	 0.5885034984	-0.6418494006	-0.8806654955	 0.433115
O	 1.3624611403	-0.2760514534	-2.0022125075	-0.279652
C	 1.4765215192	-1.6577004162	-2.3862909805	 0.069625
C	 2.2075994541	-2.4331455895	-1.3764732874	-0.332933
C	 0.7230627379	-2.1086582501	-1.1154168041	 0.045883
C	-0.2975803626	-3.159325001	-0.9612840419	 0.068079
O	-0.1264994521	-4.3133636605	-1.2796850203	-0.274937
H	 0.5569419458	 1.8765619651	-1.0527776864	 0.132184
H	-1.0171265418	 1.8954964238	-0.214779695	 0.134085
H	 0.4704809664	 1.9268261924	 0.7262051715	 0.135653
H	 1.2810514262	-1.9143790983	-3.4184493326	 0.145487
H	 2.3515588286	-3.4869380089	-1.5942603306	 0.162301
H	 2.9645088263	-1.9497757582	-0.7679232186	 0.142163
H	-1.2587693272	-2.8041099558	-0.5371166812	 0.102304
