18
gdb 128151	2.08124	1.60432	0.95179	2.5856	75.6	-0.1878	0.035	0.2228	1235.122	0.148764	-435.255776	-435.246579	-435.245635	-435.290305	32.865	
C	-0.3719779086	 1.0142913701	 0.0354685424	-0.322757
N	-0.0607983552	-0.4073342754	 0.0374109581	-0.405438
C	 0.7614145411	-0.8621856849	 1.0856182549	 0.121194
C	 1.2174979346	-2.1602766723	 1.2598878695	 0.328854
N	 1.9497784142	-2.1667010445	 2.4047316168	-0.247809
N	 2.0063399468	-0.9616495948	 2.9993951608	-0.246066
C	 1.2826799504	-0.1702603064	 2.2049018375	-0.068147
O	 1.0912149299	-3.2758093526	 0.5056736855	-0.275145
C	-0.2613644969	-3.7236102451	 0.3390820345	-0.260308
H	 0.5157963946	 1.6673394198	 0.010002313	 0.109946
H	-0.9943007095	 1.2426235138	-0.83346214	 0.120499
H	-0.9454791505	 1.2633566839	 0.9342604344	 0.134189
H	 0.2960279301	-0.706032786	-0.8622786471	 0.234524
H	 2.4527342639	-2.9484646613	 2.7891312754	 0.273011
H	 1.1579176087	 0.8705736058	 2.4631485286	 0.104576
H	-0.6793236167	-4.0544235826	 1.2971120025	 0.123379
H	-0.8890401874	-2.9263087315	-0.0716069847	 0.143878
H	-0.2220722294	-4.5654245759	-0.3544040922	 0.131618
