13
gdb 52601	2.09382	1.11675	0.92577	5.9014	72.41	-0.3024	-0.0481	0.2543	1318.3755	0.085502	-415.575703	-415.565718	-415.564774	-415.612172	33.155	
C	-0.0218556718	 1.4817629925	 0.0227476256	-0.503312
C	 0.001972823	 0.0292821526	 0.0020952927	 0.083078
C	 0.032075923	-1.173023158	-0.021854631	 0.097462
C	 0.0227761548	-2.6392036181	-0.0312243395	-0.110117
O	-1.2761635658	-3.1826702803	-0.1872785199	-0.400578
C	 0.8229876841	-3.1440956665	-1.175584659	 0.346216
N	 1.4586139055	-3.5159074452	-2.063419398	-0.314749
C	 0.6402951198	-3.139096961	 1.2331417251	 0.303484
N	 1.0727808379	-3.5166152973	 2.2347816136	-0.319639
H	 0.7773683557	 1.8888465752	-0.604919948	 0.173379
H	-0.9758298791	 1.8617871581	-0.3566969126	 0.167669
H	 0.1170530475	 1.8615093439	 1.0398900499	 0.169431
H	-1.8583067846	-2.7144893862	 0.4248323114	 0.307677
