21
gdb 67099	2.51787	1.99054	1.70057	0.2464	86.28	-0.2568	0.0905	0.3473	945.9414	0.184619	-349.886639	-349.879456	-349.878511	-349.917612	30.378	
C	-0.0604385961	 1.5271117656	-0.1014666828	-0.527652
C	-0.0711582058	 0.0230556489	-0.0742191626	 0.369496
C	 0.8427998611	-0.9527949858	-0.8873829496	-0.13521
C	 1.9623777911	-0.9126513088	 0.2030873288	-0.366118
C	 0.634250958	-0.892857678	 0.9935495666	 0.311524
C	-0.1403152402	-0.8482131253	 2.2959569635	-0.354901
C	-1.5841092079	-0.8876146075	 1.6539191537	-0.223148
C	-1.2723886066	-0.9323407262	 0.1290645645	-0.127806
C	-0.0587422454	-1.8690010065	-0.0109154809	-0.047323
H	 0.9629451344	 1.9190434618	-0.0807167798	 0.118888
H	-0.5431515809	 1.9112570318	-1.0072831746	 0.119373
H	-0.5951491406	 1.9450504749	 0.759635318	 0.117306
H	 0.9730075419	-0.9921862422	-1.9702417845	 0.063034
H	 2.583087329	-1.8091576042	 0.3017282669	 0.091775
H	 2.5856443967	-0.0133962822	 0.2453674267	 0.092086
H	 0.0471280931	-1.7043703676	 2.9506868753	 0.098539
H	 0.0309721393	 0.0638645083	 2.8763990893	 0.097521
H	-2.145959702	-1.7697822952	 1.9771500422	 0.097145
H	-2.17629216	-0.0079271412	 1.9265843262	 0.096552
H	-2.1296997806	-0.9620299891	-0.5485427987	 0.048729
H	-0.0152671184	-2.9579050016	 0.0589739119	 0.060189
