19
gdb 112297	2.8001	1.36751	1.02174	3.6374	77.63	-0.2464	0.0181	0.2645	1203.7869	0.160732	-419.205088	-419.196828	-419.195883	-419.238121	31.542	
C	 0.0194549149	 1.4940959343	-0.1444974067	-0.385838
C	-0.0193155024	-0.0355310496	-0.1065478518	-0.186882
C	-1.4097986112	-0.5952415804	 0.1669349227	 0.123514
O	-2.3273909788	-0.1474391884	-0.8652047877	-0.264898
C	-3.1405072424	-1.156984636	-1.3012793603	 0.461263
N	-4.1720572916	-1.0098126091	-2.0139913034	-0.554244
C	-2.6237315815	-2.4507328972	-0.7758491214	-0.13522
N	-1.2039874691	-2.6684017874	-1.1728908719	-0.331012
C	-1.5202589912	-2.111848058	 0.1508040095	-0.081425
H	 1.0330479304	 1.8532063449	-0.3449444069	 0.114218
H	-0.6395557215	 1.8783567769	-0.9271426733	 0.137552
H	-0.304893539	 1.9253133393	 0.8094188366	 0.110944
H	 0.3319347794	-0.457987868	-1.0527559166	 0.128596
H	 0.6486178998	-0.4096625593	 0.6804227139	 0.094127
H	-1.7907477877	-0.2151470792	 1.1256374508	 0.085708
H	-4.3353606119	-0.0196693224	-2.2058808513	 0.222237
H	-3.2962308657	-3.290021532	-0.6620936605	 0.11806
H	-0.9994156122	-3.6609202657	-1.0777163866	 0.240721
H	-1.3120331685	-2.6767701926	 1.0522668749	 0.102578
