15
gdb 43141	2.57751	2.01203	1.6403	2.7697	64.72	-0.2412	-0.0311	0.2101	857.139	0.113318	-457.676821	-457.670231	-457.669287	-457.707662	26.056	
O	 0.1765919324	 0.0364586611	 0.1102782406	-0.31226
C	 0.0370285392	 1.2157219265	 0.0671579233	 0.453655
C	-1.0542216491	 2.2703303439	-0.0679995582	-0.093492
O	-0.8437272965	 2.9905541274	 1.1885546193	-0.296745
C	 0.6286862829	 3.0922727123	 1.3670116787	-0.180931
C	 1.0082149746	 2.4656874445	 0.0476706759	 0.09287
C	 1.9356312285	 2.3790644885	-1.1607312272	-0.187888
O	 0.748501287	 2.4774703371	-2.0229421361	-0.301128
C	-0.0246561846	 3.0492778936	-0.9345594449	 0.111535
H	-2.1216025577	 2.1348920299	-0.2253452954	 0.104348
H	 0.8946790312	 4.1467444487	 1.4794236187	 0.123576
H	 0.9205641615	 2.5352509764	 2.2626679854	 0.126373
H	 2.6018016187	 3.2357629857	-1.3138379831	 0.119782
H	 2.4715951655	 1.4387238662	-1.3105562904	 0.137884
H	-0.1969258737	 4.1232356181	-1.0342314166	 0.102422
