16
gdb 27111	3.16819	1.25077	0.90892	2.8985	72.75	-0.1881	-0.0368	0.1513	1213.9662	0.125267	-434.114888	-434.106424	-434.10548	-434.148637	30.592	
N	 0.2860912339	 1.4220310951	 0.5327132159	-0.601795
C	 0.1193210382	 0.0606260007	 0.2277811581	 0.186182
C	-1.0267607201	-0.5696258164	-0.2056298868	 0.270592
C	-2.3972767019	-0.0376262137	-0.4464846891	-0.440628
C	-3.3355068979	-0.8806870804	-1.276844021	 0.170977
O	-3.1434722393	-2.0197819409	-1.6306879585	-0.25594
N	-0.6448307495	-1.8883141478	-0.4031746401	-0.297137
C	 0.6753307312	-1.9744780017	-0.1209116145	 0.000179
N	 1.1699626287	-0.8177819288	 0.2777390742	-0.310223
H	 1.237049545	 1.579189115	 0.8458268262	 0.247092
H	-0.3493453611	 1.746592294	 1.2523749469	 0.237163
H	-2.9592644101	 0.1432798455	 0.4898865857	 0.140206
H	-2.342883342	 0.9566953363	-0.9142236254	 0.153229
H	-4.2883269022	-0.3675733247	-1.5310625045	 0.09545
H	-1.2564494759	-2.5832790954	-0.80266497	 0.277964
H	 1.2300209929	-2.8953337368	-0.217788227	 0.126689
