13
gdb 21564	3.96952	1.89689	1.28578	6.4501	64.76	-0.2187	-0.0318	0.1869	868.6108	0.098105	-394.807898	-394.80117	-394.800226	-394.838588	25.675	
N	 0.0907628224	 1.3790445568	 0.1511137853	-0.585654
C	-0.0310853644	-0.0000272668	 0.0503714313	 0.467395
C	-1.2104097408	-0.6886745559	 0.0210334823	-0.347686
C	-1.2082640787	-2.1335836582	-0.0091655424	 0.369884
O	-2.2024878318	-2.8510961213	-0.0356301391	-0.401409
C	 0.1596156131	-2.7032635233	-0.0250638893	-0.083536
N	 1.2635215272	-2.0308521441	 0.0006704782	-0.176412
N	 1.1517359415	-0.6853501617	 0.0338677805	-0.278288
H	 0.8204722233	 1.7890313524	-0.4173847461	 0.257379
H	-0.7847285628	 1.866465842	 0.0243303	 0.26782
H	-2.1556846489	-0.1593983865	 0.0074703037	 0.102302
H	 0.2573306573	-3.7842722771	-0.0571473522	 0.135538
H	 2.0263247925	-0.2021848762	 0.1603298877	 0.272667
