15
gdb 55505	3.53567	0.98716	0.86803	2.2696	64.49	-0.2525	-0.0514	0.2011	1334.0826	0.110035	-491.145114	-491.135424	-491.13448	-491.181816	33.106	
C	 0.4252117692	 1.2405795571	-0.1141943181	-0.462339
C	-0.2789402423	-0.047318624	 0.1944652185	 0.387336
N	-0.7673277443	-0.485945629	 1.2651325584	-0.435804
O	-0.4357005011	-0.8069950664	-0.9700772054	-0.227001
C	 0.0556100591	-2.0586660968	-1.0303292607	 0.38929
O	 0.7966827428	-2.5705830161	-0.236087675	-0.34459
C	-0.4305240175	-2.7625445018	-2.3200846524	 0.296129
N	 0.0755675223	-4.0152786883	-2.3888766557	-0.514189
O	-1.1572101954	-2.2345892271	-3.1304081336	-0.333699
H	 0.4421941806	 1.8968019171	 0.7574453213	 0.134547
H	 1.4538536322	 1.0362303965	-0.4300709794	 0.156189
H	-0.0735272905	 1.7499209697	-0.9442276099	 0.162757
H	-0.6226144633	 0.1776625362	 2.0250686099	 0.235433
H	 0.6609519354	-4.3542096705	-1.6434095634	 0.283509
H	-0.1695143474	-4.6062859765	-3.1646860046	 0.272433
