25
gdb 120259	2.7688	0.97	0.83727	0.2922	92.55	-0.2483	0.0864	0.3347	1546.7355	0.228941	-352.337003	-352.327079	-352.326135	-352.371983	37.872	
C	 1.4994004372	 1.5077430184	-0.5015744566	-0.380624
C	 1.5778217775	 0.0121463854	-0.1837756362	-0.16232
C	 0.4571879083	-0.4678274626	 0.7471585533	-0.184513
C	 0.5438590257	-1.9602776307	 1.0582980491	-0.005504
C	 1.6964499617	-2.4697065333	 1.9411483726	-0.051358
C	 1.5666479066	-1.9672258695	 3.3525262141	-0.283062
C	 0.7036516061	-3.1152194605	 2.9092507338	-0.056036
C	-0.4821106217	-2.6351160692	 2.0576906023	-0.011189
C	-1.5764155493	-1.8074140616	 2.7240242868	-0.405013
H	 1.569829534	 2.110362384	 0.4109570103	 0.112616
H	 2.3095254597	 1.8193104625	-1.1686668385	 0.108827
H	 0.5509673127	 1.7599391121	-0.9893183131	 0.111612
H	 1.5427338788	-0.5640571875	-1.1182686313	 0.090704
H	 2.5484867602	-0.2145852556	 0.275705204	 0.100624
H	 0.4875094229	 0.1184600201	 1.6741406539	 0.089307
H	-0.51592472	-0.2507841765	 0.2848188072	 0.0882
H	 0.5287460359	-2.5121161031	 0.1117356563	 0.065415
H	 2.6320490482	-2.8726488957	 1.5714245637	 0.078778
H	 2.3851326694	-2.2383606489	 4.0121059911	 0.107336
H	 1.1420003258	-0.9904278499	 3.5682468	 0.103833
H	 0.7655869089	-4.0837229075	 3.392184178	 0.078036
H	-0.9470284364	-3.489689318	 1.5557210487	 0.069346
H	-1.1739283524	-0.9506846942	 3.2726189669	 0.113096
H	-2.2900354081	-1.4237826461	 1.9865033383	 0.111285
H	-2.1373184816	-2.420242542	 3.4386193451	 0.110602
