16
gdb 75458	2.11355	1.6398	1.37599	3.3058	70.61	-0.2433	-0.0125	0.2308	1020.3209	0.125121	-434.094154	-434.085602	-434.084658	-434.127093	32.191	
N	-0.0944154172	 1.3329120951	 0.1467038916	-0.564559
C	-0.116837291	-0.0243674219	 0.0197403196	 0.36688
N	-1.1511824858	-0.7649286518	-0.0594495726	-0.280111
C	-0.7272740285	-2.1667716171	-0.0900252749	-0.166072
C	 0.7841675244	-2.1628697272	-0.4301539728	-0.288659
C	 1.234808526	-0.7620277177	 0.0394320171	 0.17281
O	 2.1308407207	-0.0752353449	-0.8228488009	-0.46639
C	 1.7883216983	-0.7909402326	 1.4086431508	 0.242247
N	 2.2586665564	-0.8358711681	 2.4637921982	-0.332914
H	 0.7353129493	 1.7893713268	-0.2006629013	 0.269984
H	-0.9653312077	 1.8059185098	-0.0413024651	 0.26485
H	-0.9165755851	-2.6343672247	 0.8850316021	 0.120761
H	-1.3136049093	-2.7229053737	-0.8277499978	 0.114963
H	 1.3468497675	-2.9781015126	 0.0280484451	 0.119357
H	 0.9354945664	-2.1916876652	-1.5130691492	 0.126439
H	 3.0186415757	-0.4280277841	-0.6961420597	 0.300414
