15
gdb 19856	4.12102	2.39283	2.10366	1.8026	62.66	-0.2469	0.0198	0.2667	690.2728	0.121979	-362.640089	-362.634532	-362.633588	-362.669534	22.637	
C	 0.0128679283	 1.4690271809	-0.0772776956	-0.294995
C	 1.3381643539	 0.769828033	 0.0324930977	-0.066292
C	 0.0072059534	-0.0219295868	 0.0482094544	-0.042318
C	 0.3903410289	-0.6953360959	-1.2887023265	-0.029033
N	-0.3032374943	-0.2643743349	-2.5075311512	-0.262584
C	 0.4785870116	 0.5762649451	-3.0528923678	 0.10592
O	 1.6831565142	 0.8796221514	-2.4911527127	-0.232009
C	 1.7291359706	 0.089189941	-1.278731586	 0.070005
H	-0.2834036036	 2.0003779794	 0.8212736084	 0.118305
H	-0.2941030648	 1.9569045587	-0.9967120263	 0.131097
H	 2.0234170717	 0.9676131076	 0.8472433324	 0.091052
H	-0.4652885881	-0.5303663909	 0.8790354068	 0.093588
H	 0.4477456343	-1.7836454487	-1.2290734447	 0.086259
H	 0.2810361787	 1.1061046934	-3.9790690433	 0.137558
H	 2.6682655351	-0.4639005631	-1.2587915558	 0.093447
