19
gdb 50663	2.18443	1.59214	1.04961	3.2848	76.02	-0.2503	-0.0238	0.2265	1162.2432	0.158965	-423.029597	-423.021196	-423.020252	-423.06357	31.392	
O	 0.2891867583	-0.2172329268	 0.1077997856	-0.254918
C	 0.1364856882	 0.9762562816	 0.0760748947	 0.15175
C	 1.2447417562	 2.0003333609	 0.0085527931	-0.124817
C	 1.0593695635	 2.9893145741	-1.1715098494	-0.24306
C	 1.5547557906	 4.346177174	-0.6358807786	-0.216003
C	 1.0605276104	 4.3478531809	 0.8183209796	-0.283109
C	 1.2683739288	 2.9053871806	 1.2658048245	 0.40057
C	 0.9884855278	 2.420081095	 2.6236824288	-0.253737
O	 2.3300978648	 2.6510279061	 2.1871748548	-0.263485
H	-0.886870405	 1.4241341027	 0.101805283	 0.068169
H	 2.1982458318	 1.4694252899	-0.046654602	 0.111637
H	 1.5822161898	 2.6559158703	-2.0705671497	 0.116563
H	-0.0064721548	 3.0638227317	-1.4259632718	 0.10356
H	 2.6498431543	 4.3814864253	-0.658177683	 0.115433
H	 1.1837526732	 5.1914876659	-1.2208618872	 0.103383
H	 1.5891916669	 5.0404438925	 1.4768349458	 0.117745
H	-0.0081321335	 4.5959767618	 0.85072133	 0.105742
H	 0.6131233701	 3.1137402734	 3.3757691906	 0.114377
H	 0.7258480987	 1.3753070102	 2.7861279814	 0.130199
