20
gdb 99675	2.56024	1.13435	0.82892	3.3337	80.29	-0.2841	0.0168	0.3009	1410.4056	0.170124	-403.139592	-403.12996	-403.129016	-403.174843	34.266	
C	-0.176847767	 1.3890695568	 0.0960951779	-0.248747
O	 0.2510221684	 0.0468656544	-0.0580464137	-0.233949
C	 0.7228308211	-0.5519490427	 1.125616936	-0.038855
C	-0.3669946856	-0.7248647695	 2.1179550237	 0.270573
N	-1.2205063813	-0.859334615	 2.8855525052	-0.329841
C	 1.3427746524	-1.8962867518	 0.7629106137	 0.040763
C	 2.6468879146	-1.8807374323	-0.0781924997	-0.234416
C	 3.1752208823	-3.0472897697	 0.8014253101	-0.216361
C	 2.0992397912	-2.6881183724	 1.8639818565	-0.239498
H	 0.6355651081	 2.0272865338	 0.4743377387	 0.111542
H	-0.4747645669	 1.7390072172	-0.8939493556	 0.138416
H	-1.033724839	 1.4661034105	 0.77865497	 0.134847
H	 1.4898032804	 0.0856251887	 1.5990014891	 0.103355
H	 0.5746199124	-2.5127136018	 0.2876420808	 0.097999
H	 2.5527779552	-2.0446104781	-1.1528221558	 0.110236
H	 3.2148240267	-0.9588980939	 0.0839194114	 0.101172
H	 2.9826909212	-4.0213451232	 0.3437149151	 0.109673
H	 4.2211761596	-3.0119083735	 1.1125039333	 0.102885
H	 2.4990662042	-2.0217243887	 2.6354850596	 0.105416
H	 1.564824652	-3.5029329488	 2.3553980338	 0.114791
