21
gdb 37046	2.68995	1.69485	1.40497	1.842	80.7	-0.2206	0.0766	0.2971	1024.144	0.185253	-387.065201	-387.057798	-387.056854	-387.096623	30.86	
C	 0.0136227679	 1.4789024756	 0.1395232171	-0.385288
C	 1.3619297389	 0.8035116881	-0.0496251497	 0.200288
C	 1.6930995634	 0.0423050884	 1.2334004821	-0.14613
O	 0.4090127507	-0.6465044216	 1.2145108415	-0.332561
C	 0.0891580769	-0.0081985212	-0.0325816378	 0.436543
C	-0.4226946546	-0.7927408924	-1.2117240539	-0.308718
C	 0.6862533128	-0.9017708102	-2.2874084549	-0.189897
C	 1.4038321136	 0.4395618779	-2.5347860732	-0.200244
C	 2.2021538418	 0.9194221503	-1.2964282295	-0.30051
H	-0.2536817637	 1.8903860612	 1.1091389429	 0.109444
H	-0.3534541372	 2.0396527079	-0.7145248026	 0.11222
H	 2.5157958618	-0.67346953	 1.112038557	 0.10052
H	 1.839304259	 0.6183850743	 2.1555438369	 0.099751
H	-0.7306666557	-1.7867154083	-0.8733919275	 0.11817
H	-1.3093476329	-0.3111378863	-1.6400529219	 0.102445
H	 1.4279340825	-1.6450536876	-1.9659622649	 0.099905
H	 0.2553712039	-1.2730427957	-3.2232727103	 0.094835
H	 2.0873502196	 0.3447056737	-3.3849884482	 0.097808
H	 0.664892417	 1.1997693752	-2.8230968331	 0.097188
H	 2.5800425011	 1.9361205231	-1.4589920934	 0.096854
H	 3.0831931631	 0.2739205176	-1.1823564166	 0.097377
