17
gdb 66526	2.87837	1.66138	1.25044	0.9071	84.33	-0.2117	0.0326	0.2443	1026.0063	0.133929	-347.418425	-347.410596	-347.409651	-347.450358	31.232	
C	 0.0470332676	 1.5188904301	 0.0106001453	-0.523009
C	 0.0107021183	 0.02817137	 0.0024245273	 0.272855
C	 0.8435064233	-0.9900084711	-0.7639673489	-0.151756
C	 0.8399287238	-0.9982245308	 0.761702831	-0.15174
C	-0.3487791547	-2.0003853308	 0.7466251977	-0.15913
C	-0.3452849056	-1.9921820452	-0.7653024586	-0.15911
C	-1.2067197155	-0.9687942862	-0.005756145	 0.296675
C	-2.603260159	-0.7703230855	-0.0079423859	 0.035941
C	-3.7935436665	-0.579444456	-0.009643826	-0.392999
H	 1.0823360095	 1.8775434151	 0.01322605	 0.122026
H	-0.4498300937	 1.9355375353	-0.8729223175	 0.128296
H	-0.4510283152	 1.9259782391	 0.8978984998	 0.128262
H	 1.65991913	-0.8282630506	-1.4549224625	 0.089748
H	 1.6530906614	-0.843949423	 1.4581753566	 0.089752
H	-0.6878112867	-2.757481317	 1.4405515535	 0.100084
H	-0.6811028562	-2.7416842989	-1.4689667116	 0.100085
H	-4.8423335808	-0.4164499947	-0.0111789454	 0.174021
