13
gdb 129898	5.41366	1.07693	0.8985	6.9393	74.14	-0.2402	-0.0769	0.1633	1189.928	0.089627	-448.94482	-448.937224	-448.936279	-448.977145	27.664	
N	-0.0230355156	 1.3575013841	 0.1113297145	-0.561086
C	-0.0266678672	 0.0016912747	 0.0404411313	 0.422123
C	-1.2140173042	-0.7649321001	 0.0270040472	-0.066877
N	-1.1543770471	-2.0755568653	-0.0000636282	-0.248115
C	 0.0821857913	-2.6116027677	-0.0120501527	 0.257008
C	 0.1398172407	-4.1044678691	-0.0370440194	 0.122641
O	 1.1480169427	-4.7607956085	-0.0520116959	-0.240868
N	 1.2244989686	-1.9216419993	-0.0083177809	-0.195889
N	 1.1750601291	-0.6045997821	 0.0139184046	-0.250142
H	 0.8631494919	 1.8142124276	-0.0392288515	 0.276692
H	-0.8548273327	 1.8758323699	-0.112974297	 0.270829
H	-2.1947788034	-0.291601	 0.0379384551	 0.123176
H	-0.874174524	-4.5577037642	-0.0401090672	 0.090508
