21
gdb 53662	4.76012	0.58384	0.56147	1.2968	88.5	-0.2406	0.0574	0.2979	2041.4621	0.179607	-387.054659	-387.043873	-387.042929	-387.092262	38.23	
C	-0.0036904571	 1.5119559562	-0.0371937595	-0.497467
C	 0.0007228092	 0.0587810627	 0.0571621293	 0.116378
C	 0.0154106988	-1.142599708	 0.1379701115	 0.018901
C	-0.0043323831	-2.5979267264	 0.2231492577	-0.373667
C	-1.3510189182	-3.2130581865	-0.2164027736	-0.232233
C	-1.3725613108	-4.7237541083	-0.0922087319	 0.436517
O	-0.4386429584	-5.3919452768	-0.9067967699	-0.47499
C	-1.7216773024	-5.3709957149	 1.2272279388	-0.322871
C	-2.6780495292	-5.4422680881	 0.0503730791	-0.313416
H	 0.877570151	 1.8801288861	-0.5744059689	 0.145842
H	-0.8895768062	 1.8742072641	-0.5708008045	 0.145929
H	-0.0035370518	 1.9773190871	 0.9548818216	 0.144982
H	 0.7966368898	-3.0102172034	-0.404946433	 0.120085
H	 0.2166537255	-2.9127929701	 1.2523481372	 0.123031
H	-2.1558324195	-2.7845354711	 0.3898441795	 0.10402
H	-1.5478830262	-2.9337342774	-1.257480122	 0.114628
H	 0.4258617455	-5.3238079617	-0.4881624214	 0.283395
H	-1.1922474627	-6.2806437079	 1.488325989	 0.112474
H	-1.9820861002	-4.7369652019	 2.0683522206	 0.111763
H	-3.5906921515	-4.8575975615	 0.0875575054	 0.113249
H	-2.7620092523	-6.3929947722	-0.4627082451	 0.123449
