18
gdb 19176	3.41221	1.79192	1.38262	1.4236	68.2	-0.247	0.0697	0.3167	928.2743	0.153238	-384.874804	-384.866875	-384.865931	-384.906399	30.876	
C	-0.3794185865	 1.5436701776	-0.0693475637	-0.450545
C	-0.0432593609	 0.0586578433	-0.0090490024	 0.049864
C	 1.1474494477	-0.6044493734	-0.791422214	-0.147504
C	 2.1230292233	-0.0969448992	 0.2978094644	 0.163598
O	 2.4931497766	 1.2578467817	 0.2519078216	-0.433957
C	 0.8676634345	-0.587983774	 1.0935497847	-0.178798
C	 0.9684799738	-1.8396134042	 0.1587752994	 0.18954
O	-0.0785460908	-2.750349968	 0.0119634144	-0.447309
H	 0.4943752926	 2.1797960008	 0.0453465996	 0.146298
H	-0.8560754568	 1.7772781641	-1.0285733758	 0.1107
H	-1.1028260598	 1.791894215	 0.7164966175	 0.10697
H	-0.9898901783	-0.4818494938	-0.1450648754	 0.035323
H	 1.3173298358	-0.6148753223	-1.8691579828	 0.073123
H	 3.0150416528	-0.7249382042	 0.4364464954	 0.064586
H	 2.972684339	 1.4594830429	 1.0614696926	 0.285145
H	 0.7179108707	-0.5802868944	 2.175261899	 0.065824
H	 1.8648738068	-2.4496733195	 0.2947473466	 0.081243
H	-0.9067416206	-2.2748790125	-0.1079441811	 0.285898
