21
gdb 103377	2.97166	1.47219	1.29676	0.8927	77.74	-0.2293	0.0861	0.3153	1080.9899	0.18238	-424.189821	-424.181167	-424.180223	-424.223259	33.501	
C	-0.1416286497	 1.3429645318	 0.0322121863	-0.253634
O	 0.1793854638	-0.0327194201	 0.0158994482	-0.301579
C	 0.7668149418	-0.5264396723	-1.1760778616	 0.451757
C	 2.1857607574	-0.0087272225	-1.360678894	-0.485064
C	 0.4678955922	-2.0698122299	-1.2469742018	-0.123925
C	-0.9800644516	-1.6810028201	-1.6886724276	-0.245198
C	-0.1966401725	-0.5700078709	-2.4206386856	 0.039278
O	 0.5832725579	-1.2891402866	-3.3900799774	-0.279694
C	 1.0654065987	-2.4159886317	-2.6102506712	-0.096296
H	 0.7470033884	 1.9870295591	-0.014053883	 0.111835
H	-0.8144702486	 1.6227793823	-0.7906488678	 0.108053
H	-0.6525846245	 1.531741197	 0.9796484961	 0.127828
H	 2.8373160458	-0.3936585839	-0.5694731817	 0.120323
H	 2.5907744423	-0.2949214275	-2.3315648358	 0.141734
H	 2.2117063665	 1.0838351521	-1.3114031175	 0.116002
H	 0.6785099774	-2.7251082718	-0.4027731185	 0.075345
H	-1.5234766386	-2.3863425991	-2.3210067047	 0.09464
H	-1.5908353219	-1.3241703265	-0.8641016298	 0.120147
H	-0.6447670941	 0.3031297185	-2.8929305349	 0.074967
H	 2.159789346	-2.4457160328	-2.6306681955	 0.101057
H	 0.6788361535	-3.3536660251	-3.0260956322	 0.102424
