21
gdb 81799	2.04801	1.7658	1.28738	2.512	82.45	-0.2337	0.0719	0.3056	1109.8432	0.182691	-383.209216	-383.200341	-383.199396	-383.242228	34.554	
C	-0.1001184193	 1.5536449378	-0.0337649134	-0.401146
C	 0.0114590421	 0.0335075552	-0.0017581092	-0.106229
C	 1.132527041	-0.5587886421	-0.8808909667	-0.097564
N	 1.2775854953	-1.9959192501	-0.6785186584	-0.373787
C	 1.8689264841	-1.100185384	 0.3175071848	 0.312479
C	 3.3241302279	-1.218770493	 0.6509163479	-0.507098
C	 0.7683392945	-0.5572197968	 1.217325778	 0.285944
C	 0.8760641713	 0.0201104642	 2.5712432378	-0.311898
N	 0.2300598024	-1.2963258381	 2.3619662385	-0.376479
H	 0.8736972386	 2.0236407379	 0.1383993067	 0.120837
H	-0.4727998242	 1.8957427188	-1.0053985985	 0.117919
H	-0.7906580829	 1.9208494173	 0.7327863854	 0.114242
H	-0.971000254	-0.4216714077	-0.1896794816	 0.067492
H	 1.5163416591	-0.1220908159	-1.7968747303	 0.09137
H	 0.4202881589	-2.4371520386	-0.3478874825	 0.226607
H	 3.8933697154	-1.5021965265	-0.237935188	 0.13228
H	 3.7218233653	-0.2743685077	 1.037234693	 0.115165
H	 3.4846730237	-1.9900702316	 1.4131752351	 0.130846
H	 1.8196640711	-0.0204094889	 3.1093666371	 0.119728
H	 0.2540615812	 0.8762509141	 2.8211736288	 0.11105
H	-0.7813687916	-1.1874999142	 2.3995031055	 0.228245
