16
gdb 51420	4.99482	1.06615	1.0484	5.2709	70.54	-0.2406	-0.0162	0.2244	1144.5058	0.125354	-437.845165	-437.837868	-437.836924	-437.877455	27.727	
O	 0.4332366969	 0.0482395675	-0.0149957419	-0.276566
C	 0.6662057594	 1.1789563252	 0.2908412203	 0.170491
O	 0.4371827316	 2.2001033525	-0.570960749	-0.230214
C	 0.8166417509	 3.5315403908	-0.3045143946	 0.203526
C	 1.3774966139	 3.9736156075	 1.1089648974	-0.117085
N	 2.6572604476	 3.3223618507	 0.6704319319	-0.304853
C	 2.3068598382	 3.9270692932	-0.6562837797	-0.087504
C	 2.2198121124	 5.4306213497	-0.3726030974	-0.093001
C	 1.589679191	 5.4628637568	 0.8088753048	-0.096529
H	 1.0529767301	 1.4991407668	 1.2660508561	 0.10558
H	 0.0375914531	 4.1616108592	-0.7309197434	 0.105711
H	 0.9350574621	 3.6751508182	 2.0589656197	 0.08478
H	 3.477235163	 3.7628428661	 1.0898683688	 0.211507
H	 2.814089977	 3.55711504	-1.5457735099	 0.089217
H	 2.5256144121	 6.2349631113	-1.025976007	 0.118008
H	 1.2340991506	 6.2983194147	 1.3942143139	 0.11693
