19
gdb 95665	3.02484	1.24449	0.95412	3.1907	80.75	-0.2412	-0.0532	0.1879	1246.7137	0.159451	-423.051073	-423.042545	-423.041601	-423.084663	32.171	
C	 0.5999896328	 1.5675835453	-0.0562333427	-0.396699
C	-0.1252506652	 0.2195335584	-0.1296991753	 0.071655
O	 0.3809477413	-0.4410552049	-1.2667116938	-0.252793
C	-0.1560790666	-1.7260759358	-1.5272272352	-0.110624
C	 0.7148798595	-2.8180600332	-0.9179477543	-0.2974
C	 0.7323956937	-2.9158473865	 0.6024557336	 0.358129
O	 1.052171672	-3.9647339849	 1.1306975288	-0.325703
C	 0.35344965	-1.7737395776	 1.471405119	-0.1746
C	-0.0137552913	-0.5195196352	 1.1769088206	-0.036485
H	 1.6684947077	 1.4122244319	 0.1155449891	 0.134011
H	 0.4724704889	 2.099761919	-1.0016865216	 0.131625
H	 0.1986164828	 2.183620888	 0.7526985302	 0.11898
H	-1.2054245445	 0.4221416796	-0.2755002101	 0.085252
H	-1.1955853333	-1.7954873294	-1.1743989115	 0.100312
H	-0.1711748633	-1.841442229	-2.6163574469	 0.113622
H	 0.4284114262	-3.805519518	-1.2944889021	 0.123819
H	 1.7488596046	-2.6469582485	-1.2440214282	 0.138995
H	 0.365071336	-2.0675398273	 2.5181010482	 0.108438
H	-0.3013775212	 0.1089104582	 2.0201902822	 0.109468
