22
gdb 14303	3.36049	1.54393	1.50147	0.1618	81.03	-0.254	0.0767	0.3307	1014.4169	0.201904	-313.077716	-313.069599	-313.068655	-313.109955	32.031	
C	-0.130393324	 1.5590903431	-0.0108101571	-0.415218
C	 0.0403211937	 0.0568320256	 0.0317373296	 0.005588
C	 1.3171481613	-0.6700498091	-0.332410339	-0.058451
C	 2.6379492585	 0.0996037675	-0.3545783937	-0.246865
C	 3.1177084189	 0.1448621234	 1.1210664177	 0.077633
C	 4.0324247605	 1.3209038004	 1.4585202788	-0.407862
C	 1.8173804454	 0.0720237581	 1.9658064572	-0.246866
C	 0.8098554974	-0.6870885898	 1.1020879773	-0.05845
H	 0.7618167061	 2.1012198796	 0.3112775511	 0.118526
H	-0.3647641869	 1.8942611049	-1.0276059304	 0.114355
H	-0.9544666173	 1.8744541105	 0.6392593416	 0.114353
H	-0.8558235669	-0.4697306738	-0.2914231633	 0.076804
H	 1.2312291911	-1.5506831878	-0.9599929862	 0.074985
H	 3.3727388604	-0.3939202948	-0.9978881303	 0.093727
H	 2.5149860674	 1.1152655129	-0.7515870074	 0.093911
H	 3.668999449	-0.7870678391	 1.3049440941	 0.069586
H	 3.5217287969	 2.276736694	 1.2892699806	 0.110939
H	 4.3477099834	 1.295562644	 2.5073549746	 0.11034
H	 4.9370957965	 1.3153614632	 0.8407494554	 0.11034
H	 1.9881556193	-0.4404704351	 2.9173919632	 0.093727
H	 1.4646222919	 1.0799609061	 2.2186482944	 0.093912
H	 0.3551169274	-1.5801082438	 1.5174024317	 0.074985
