12
gdb 132878	3.08854	1.47256	0.99818	4.9776	62.84	-0.2207	-0.0779	0.1428	1058.2383	0.07715	-513.946974	-513.939633	-513.938689	-513.978909	27.425	
N	 0.0482801891	 1.4088706127	 0.1609920356	-0.574141
C	-0.0249724829	 0.0244458428	 0.0435895618	 0.275293
C	-1.1711979324	-0.6921771389	-0.0087841407	-0.01451
O	-1.1542166164	-2.0578440475	-0.0368789788	-0.195991
C	 0.010719636	-2.772361617	-0.0239789453	 0.325992
O	 0.0118699732	-3.9715096504	-0.0455609052	-0.327704
C	 1.2005013796	-1.8933861611	 0.0123140196	 0.195773
F	 2.3482384711	-2.5364340294	 0.0024662983	-0.029824
N	 1.19812038	-0.6222927605	 0.045092485	-0.31198
H	 0.9166572502	 1.7781922117	-0.2008220799	 0.263332
H	-0.7541959114	 1.9132985248	-0.1869540506	 0.254976
H	-2.1748738961	-0.2926958772	-0.0231416599	 0.138784
