18
gdb 83031	2.6227	1.34918	0.95896	3.0484	81.07	-0.2314	-0.0627	0.1687	1231.006	0.147451	-401.947787	-401.939579	-401.938635	-401.980661	30.868	
C	-0.0337219526	 1.499313831	 0.0234313394	-0.415321
C	-0.0049915831	-0.002651595	-0.1058103951	 0.028743
C	 0.7391813049	-0.6962909361	-1.1974604395	-0.163148
N	 1.2754146284	-0.6550848475	 0.1929854509	-0.128257
C	 1.1583560174	-2.0292756584	 0.728472489	-0.205884
C	 0.5286209545	-2.8540046881	-0.3663469326	-0.181732
C	 0.3271166194	-2.1047998446	-1.4620008122	 0.266411
C	-0.2105429765	-2.5870376319	-2.7361233319	 0.063086
O	-0.3640063696	-1.8915538055	-3.7156250525	-0.26777
H	 0.8985880282	 1.9350278053	-0.3448637136	 0.129896
H	-0.8665732051	 1.9216649561	-0.5483472514	 0.122482
H	-0.1537355018	 1.7958448569	 1.0711267644	 0.121234
H	-0.905241438	-0.5163926049	 0.2349095278	 0.081792
H	 1.2560676699	-0.1313705544	-1.9667225683	 0.109451
H	 2.1559310309	-2.4104458799	 0.9880465731	 0.126139
H	 0.5708054518	-2.0365757266	 1.6561813831	 0.123834
H	 0.2742020041	-3.9036292457	-0.2638092058	 0.117707
H	-0.4691364729	-3.6689741608	-2.7493054948	 0.071337
