19
gdb 89241	3.1138	1.62595	1.27207	1.9017	75.15	-0.2093	0.0732	0.2825	1023.8114	0.161008	-419.129136	-419.12171	-419.120765	-419.160588	30.423	
C	 0.034078484	 1.5045759353	-0.0910946694	-0.327368
N	-0.0419793997	 0.0601764581	 0.046399857	-0.079381
C	-1.4101290576	-0.4801917687	 0.2366363011	-0.23501
C	-1.181576384	-1.3733595455	 1.4452171453	 0.466496
O	-2.2519878531	-2.1292151866	 1.8671661039	-0.494367
C	-0.2604825542	-0.6085769322	 2.4622889599	-0.135409
N	 0.3318307907	-1.9436698598	 2.8465396266	-0.371648
C	 0.2632596197	-1.9809982205	 1.3382230088	-0.128104
C	 0.6579740469	-0.4924106985	 1.1930224107	 0.016501
H	 1.0816800394	 1.8077933458	-0.1890944017	 0.118723
H	-0.4886484006	 1.8167142463	-1.0006115779	 0.123652
H	-0.4046164021	 2.0597131669	 0.7588182217	 0.093986
H	-2.1433230954	 0.3076331582	 0.4557204326	 0.101343
H	-1.7589963103	-1.0388091438	-0.6388794857	 0.112717
H	-1.927486922	-2.6346537535	 2.6268979557	 0.293051
H	-0.5444369935	 0.1362556975	 3.2075196671	 0.077174
H	 1.3015622373	-1.8265780679	 3.1530201002	 0.211416
H	 0.5978414455	-2.8370993568	 0.7508187854	 0.080575
H	 1.700296199	-0.1890249945	 1.2995512486	 0.075653
