21
gdb 76442	2.7529	0.99228	0.9226	4.3508	80.24	-0.2641	0.0091	0.2732	1400.2433	0.179299	-424.244881	-424.234452	-424.233508	-424.280013	37.682	
C	-0.6857024561	 1.2003512498	-1.5159418986	-0.421584
C	-0.3391984964	-0.0679235031	-0.7667419107	-0.068698
C	 1.0793529785	-0.6036551765	-0.618251546	-0.084337
C	 2.3005700579	 0.082825708	-1.1931276462	-0.413781
C	 0.3226189707	-0.0768276771	 0.584263027	 0.369838
C	 0.6941955112	 1.1823009829	 1.3302977235	-0.450296
O	-0.2367886607	-1.0602601993	 1.4629505284	-0.222738
C	 0.6270832097	-1.8147838326	 2.1696121585	 0.158373
O	 0.2685339043	-2.6248579777	 2.9719566627	-0.278997
H	 0.0853061817	 1.9700453368	-1.431534542	 0.117194
H	-0.8186759613	 0.989258501	-2.5822059656	 0.125504
H	-1.6222149386	 1.6295004951	-1.1441457954	 0.127815
H	-1.0885935191	-0.8486649877	-0.8658570579	 0.104877
H	 1.1376468464	-1.6885069162	-0.6568345606	 0.099093
H	 2.2326166179	 1.1721782171	-1.1497484904	 0.119432
H	 3.2066886613	-0.2117369964	-0.6525670792	 0.123199
H	 2.4378280263	-0.1947804243	-2.2437086303	 0.126868
H	 1.021090528	 1.9752084772	 0.6559071251	 0.125773
H	-0.1701109016	 1.5490553079	 1.8927400734	 0.138691
H	 1.5046366297	 0.9948219931	 2.0431502763	 0.123563
H	 1.6846926003	-1.6094269978	 1.9184813178	 0.080213
