18
gdb 35285	3.84743	0.86821	0.76593	1.5887	78.32	-0.2511	0.0072	0.2583	1469.4808	0.148172	-398.074449	-398.065745	-398.064801	-398.108971	31.489	
N	-0.4535425328	-1.1120389414	 0.4992561469	-0.334979
C	-0.2473159839	-0.0016049248	 0.2482360599	 0.285841
C	 0.0014951144	 1.3764232786	-0.1027090339	-0.147915
C	 0.7114303175	 2.2591652479	 0.8826919682	-0.235605
N	 1.365441387	 1.8621030175	-0.3481037363	-0.070612
C	 2.4770549569	 0.9090869433	-0.2463727947	-0.19789
C	 3.772342487	 1.6435606537	-0.001361764	 0.036581
C	 5.0163905586	 1.1819137679	-0.6664245429	-0.245066
N	 4.3828930101	 2.4478421625	-1.0667726063	-0.304352
H	-0.7540549117	 1.8039707518	-0.7556700557	 0.142408
H	 0.420147835	 3.3022875613	 0.9611537141	 0.139077
H	 1.0280122736	 1.7907030014	 1.8131748144	 0.13509
H	 2.3151958012	 0.1633225354	 0.5490452926	 0.117904
H	 2.5285207301	 0.3644891379	-1.1964430018	 0.112029
H	 3.8538737333	 2.1015935506	 0.9831175053	 0.094575
H	 5.9732615248	 1.2861203268	-0.163354198	 0.123325
H	 4.9480188008	 0.3242906058	-1.331446738	 0.114437
H	 3.8583381883	 2.3261136339	-1.9301773497	 0.235153
