16
gdb 133047	4.92206	0.97081	0.81508	2.1461	76.01	-0.2142	-0.0083	0.2058	1321.3447	0.124565	-445.909974	-445.902275	-445.901331	-445.942398	29.319	
C	-0.0690744491	 1.3921623465	-0.0754652449	-0.246277
O	 0.0060056491	-0.0169811963	 0.0037151628	-0.267266
C	 0.6453026639	-0.5662052376	 1.0740684116	 0.398634
C	 1.2367138834	 0.1629524109	 2.1078109462	-0.246262
C	 1.8673412118	-0.505055651	 3.1592379648	-0.240736
C	 1.9008966216	-1.8878943401	 3.1677948939	 0.288672
F	 2.506804055	-2.5284101299	 4.1780494327	-0.08861
C	 1.3169347563	-2.628762983	 2.1463610826	-0.233143
C	 0.6906947054	-1.9653884095	 1.1022403415	-0.183062
H	 0.9276331762	 1.8501386951	-0.1260305589	 0.123974
H	-0.6126806146	 1.6169232052	-0.9946169403	 0.13622
H	-0.6131685669	 1.8188264895	 0.7775609357	 0.12397
H	 1.2163624379	 1.2446466015	 2.1112135205	 0.103577
H	 2.3310835104	 0.0459257121	 3.9690952006	 0.109449
H	 1.3587911093	-3.7112063991	 2.1796345819	 0.110904
H	 0.2260287703	-2.5134887342	 0.2909166191	 0.109955
