16
gdb 51679	3.44108	1.17673	0.92139	4.5112	74.44	-0.2404	-0.0641	0.1763	1226.3534	0.124358	-437.91056	-437.902375	-437.901431	-437.944318	29.442	
N	-0.0108906379	 1.2583326957	-0.0470520661	-0.44441
C	-0.0091429614	-0.0012915255	-0.0973922938	 0.138063
O	-1.1465258411	-0.6751652598	 0.2044949872	-0.192253
C	-1.1219934643	-2.0818829447	 0.0349983055	-0.000394
C	-2.3763381743	-2.7182581098	 0.6492051506	-0.304951
C	-2.8930809914	-3.6234128511	-0.4412734957	-0.053102
C	-2.2281540046	-3.5029997993	-1.5983211123	-0.163571
C	-1.1567723033	-2.4989747752	-1.4613653428	 0.372117
O	-0.4251572009	-2.0500168939	-2.3115924826	-0.328005
H	 0.9155928086	 1.6136509251	-0.2739263613	 0.230386
H	 0.8328977912	-0.6519778719	-0.3551374122	 0.103029
H	-0.2089913535	-2.5035222119	 0.4784875559	 0.10855
H	-2.175165519	-3.2650460535	 1.576120173	 0.12675
H	-3.105503909	-1.937272644	 0.8929976391	 0.155122
H	-3.7342555413	-4.2877283694	-0.2741541556	 0.126329
H	-2.4323187377	-4.0202092808	-2.5266138489	 0.126339
