21
gdb 40809	3.92367	1.03018	0.86384	1.2517	85.09	-0.2426	0.022	0.2645	1374.5229	0.184113	-387.07939	-387.071097	-387.070153	-387.112598	32.238	
C	-0.2240830863	 1.4166636661	-0.1426522572	-0.277334
C	 1.2264705029	 1.0729958017	 0.0933735952	-0.275854
C	 0.1913626638	-0.0223311352	 0.0386178751	 0.029938
C	-0.1936097377	-0.7824816082	 1.2948678988	-0.061225
C	-1.6202510971	-1.3422879865	 1.1932034014	-0.093301
O	-1.9203826912	-2.2067494599	 2.2748638002	-0.250708
C	-1.1292503703	-3.3785501369	 2.271970863	-0.114547
C	 0.3240785711	-3.112274368	 1.9923579982	-0.091612
C	 0.7555853338	-1.9243734717	 1.5759099132	-0.056476
H	-0.7674614961	 1.8917534604	 0.6680219133	 0.112259
H	-0.5218399048	 1.7500390755	-1.1304384487	 0.111699
H	 1.9205066136	 1.1706179478	-0.7339537273	 0.111353
H	 1.6523310576	 1.3193057129	 1.0607691613	 0.112257
H	 0.197829293	-0.6327370079	-0.8617512366	 0.082948
H	-0.1617997019	-0.0746957624	 2.137506953	 0.08142
H	-2.3619488003	-0.5395748599	 1.2253927515	 0.107047
H	-1.7362277129	-1.8725737952	 0.2322720282	 0.08331
H	-1.2515321069	-3.8305327095	 3.2639261963	 0.115433
H	-1.5226526255	-4.110862513	 1.5413558551	 0.094585
H	 1.010073845	-3.9405950703	 2.150942715	 0.090202
H	 1.8137976003	-1.7460718097	 1.4009681909	 0.088605
