14
gdb 129196	3.6544	1.22109	0.91526	1.7611	85.05	-0.217	-0.0714	0.1456	1187.1301	0.102269	-395.70855	-395.701012	-395.700068	-395.740603	28.891	
N	-0.016815654	 1.3552063139	 0.0108264286	-0.562008
C	 0.0000347589	 0.0715306604	 0.0032003975	 0.412747
N	 1.1536342676	-0.7284094941	-0.0072427912	-0.302265
N	 1.2289503117	-2.0696044339	-0.0154948384	-0.178987
C	 0.1116103251	-2.7224120859	-0.0137631907	-0.068307
C	-1.1843533319	-2.0705938778	-0.0034797829	 0.151138
C	-1.2214081936	-0.7110527628	 0.0046901444	-0.232367
C	-2.3593935223	-2.8706918778	-0.0023299861	 0.220093
C	-3.3357992218	-3.5748191213	-0.0015919325	-0.384109
H	 0.9260488553	 1.7480420955	 0.0084377162	 0.199633
H	 2.0540597628	-0.2720575454	-0.0090486514	 0.265854
H	 0.1826317247	-3.8030932493	-0.0204633278	 0.134311
H	-2.1516189843	-0.1580720569	 0.0125720438	 0.138513
H	-4.2037789283	-4.1871427745	-0.0008226496	 0.205753
