14
gdb 61331	7.28306	0.56766	0.53929	5.23	77.96	-0.2845	-0.0652	0.2193	1874.9027	0.098475	-436.675874	-436.666658	-436.665714	-436.711134	31.499	
O	 0.071411649	 1.5127623599	-0.0163095132	-0.41947
C	 0.0204314701	 0.1213659926	 0.0078061448	 0.055273
C	 0.654640863	-0.4848081678	-1.2747747036	-0.395838
C	-0.0701876895	-0.1120189154	-2.4750135821	 0.076188
C	-0.6837787179	 0.1924720718	-3.4693560151	 0.08384
C	-1.3761982218	 0.5324386589	-4.5957296102	 0.210539
N	-1.9657773137	 0.8175219586	-5.5551757342	-0.334798
C	 0.7308466248	-0.423211138	 1.2366140582	 0.13066
O	 1.23788215	 0.3136637514	 2.044398328	-0.243715
H	 0.5508032702	 1.7766528574	 0.7855579389	 0.301609
H	-1.0239515123	-0.2335791557	 0.0623315147	 0.116633
H	 1.6914963475	-0.1347280582	-1.3473929608	 0.16294
H	 0.6812215208	-1.5795776656	-1.1924044801	 0.147875
H	 0.7517815397	-1.5260310899	 1.3517640147	 0.108265
