19
gdb 26944	2.96358	1.30328	0.9808	3.4927	84.15	-0.1982	0.0364	0.2345	1237.704	0.160994	-382.108106	-382.099564	-382.09862	-382.141841	31.923	
C	 0.2073112309	 1.5449852418	 0.1513977918	-0.511517
C	 0.0357139384	 0.0728116284	-0.0145080904	 0.201345
C	-0.1575480275	-0.7338695021	-1.1132865327	 0.24284
N	-0.2587128193	-2.0579073342	-0.7252931476	-0.327891
C	-0.1302357003	-2.0576261858	 0.578398099	 0.001198
N	 0.050616358	-0.7984943074	 1.0631199315	-0.293668
C	-0.2567509133	-0.3478959554	-2.5343970756	-0.105819
C	 0.3003194212	-1.2641602233	-3.6053159626	-0.260286
C	-1.1863915561	-1.1079255449	-3.4589743634	-0.260286
H	 1.1726677909	 1.8014486546	 0.6060737797	 0.127596
H	 0.163461099	 2.0404689835	-0.8207259856	 0.143649
H	-0.5775882399	 1.9860152238	 0.7789941972	 0.127514
H	-0.1581672111	-2.9258941308	 1.2201944328	 0.124776
H	 0.1700774037	-0.5406521957	 2.0283925816	 0.259455
H	-0.1631758853	 0.7170078776	-2.7212488196	 0.06918
H	 0.7907593688	-0.8097925985	-4.4594758304	 0.101969
H	 0.7388384174	-2.1932258622	-3.2602203624	 0.12898
H	-1.731714437	-1.9336239484	-3.016922472	 0.128995
H	-1.7282430587	-0.545199231	-4.2115005515	 0.10197
