18
gdb 46535	4.09093	1.17881	1.09016	4.3161	73.38	-0.2508	0.055	0.3057	1153.7146	0.149056	-439.101222	-439.093537	-439.092593	-439.13383	29.496	
N	-0.1512946776	 1.2844271947	 0.0607909976	-0.579881
C	 0.0032237	 0.0383814894	 0.1101696676	 0.473304
O	 0.9996535901	-0.6426377947	 0.7503803266	-0.250725
C	 0.9044234875	-2.0245575739	 0.3989086185	-0.162042
C	-0.5397408388	-2.1649550998	-0.0935809672	 0.403643
C	-0.8326904634	-3.2629692981	-1.1345943277	-0.294297
C	-1.4475003379	-4.1246785681	 0.0052788613	-0.218252
C	-1.5510913784	-2.8382390117	 0.871454996	-0.283585
O	-0.8455440653	-0.8277674415	-0.4921554874	-0.25896
H	 0.6146141848	 1.7484721728	 0.5433378777	 0.230213
H	 1.6285036165	-2.2494970781	-0.3944088886	 0.117161
H	 1.1311289333	-2.6291951736	 1.2794674548	 0.128738
H	-1.5898819938	-2.9165552266	-1.8416792597	 0.131035
H	 0.0180948732	-3.663452407	-1.6919343235	 0.104899
H	-2.3782640621	-4.6477337921	-0.2170281723	 0.114172
H	-0.7329823312	-4.8451816985	 0.4114214587	 0.109507
H	-1.2805841301	-2.8952957528	 1.9285742937	 0.107337
H	-2.5284700867	-2.3595384805	 0.7770682438	 0.127734
