19
gdb 125918	4.23627	1.15966	0.96091	2.583	84.7	-0.2243	0.0379	0.2622	1270.5709	0.160329	-382.073389	-382.064853	-382.063909	-382.107032	31.591	
C	-0.4676437895	 1.5865865399	-0.2104336907	-0.401627
C	 0.0596713667	 0.183785372	 0.024190502	 0.057424
C	 0.8021627698	-0.5552590586	-1.1706901729	-0.401124
C	 2.0102471888	-0.5838887939	-0.244105848	 0.393132
C	 3.2400426267	-0.9325492871	 0.2775792279	-0.476358
C	 3.1906725058	-0.3909019754	 1.5999890944	 0.361768
C	 4.2721067796	-0.4314830678	 2.6356893884	-0.485909
N	 2.0212829723	 0.2185583595	 1.8767304394	-0.369456
N	 1.3621744619	 0.0893248681	 0.7156880393	 0.085081
H	 0.2861928579	 2.2097651663	-0.7006758342	 0.129563
H	-1.3599733774	 1.552238004	-0.8437704019	 0.124767
H	-0.7414233623	 2.0594224848	 0.7373735587	 0.141368
H	-0.6974489849	-0.4483557758	 0.5003609687	 0.105371
H	 0.3797724951	-1.5280323895	-1.433135044	 0.127336
H	 0.9040020239	 0.0503591934	-2.0751371856	 0.123786
H	 4.0558122703	-1.4712068086	-0.1754832678	 0.097953
H	 5.1399538158	 0.1681747083	 2.3378235433	 0.126003
H	 3.8946382823	-0.0368220772	 3.5813970019	 0.137489
H	 4.6270823373	-1.4541683727	 2.8027643112	 0.123431
