10
gdb 21397	5.84856	2.45084	1.7271	3.0172	52.99	-0.2741	-0.0506	0.2235	649.6559	0.064656	-405.781165	-405.776232	-405.775287	-405.810142	18.544	
N	 0.002857387	 1.326229854	 0.0095510333	-0.367842
N	 1.311714025	 1.7281643812	-0.0005860864	-0.060315
N	 2.0749554059	 0.6961921359	-0.01400811	-0.114867
N	 1.2538330102	-0.3788618525	-0.0121062346	 0.124466
N	 1.388158353	-1.7240306232	-0.0215800547	-0.261875
C	 0.1007871184	-2.0805244021	-0.0108779864	 0.049342
N	-0.8428035392	-1.0823940633	 0.0044050585	-0.383505
C	-0.0544759048	-0.025396669	 0.0028756047	 0.560782
H	-0.7277535933	 2.0170974843	 0.0222676209	 0.309025
H	-0.1765356822	-3.1244974554	-0.0143259952	 0.144789
