23
gdb 121286	2.87359	1.03171	0.80777	0.9981	89.77	-0.2295	0.0301	0.2595	1512.2522	0.204913	-388.30832	-388.298251	-388.297307	-388.344026	36.787	
C	 0.1300521315	 1.5774967644	 0.0217965565	-0.38382
C	 0.0530946357	 0.060500173	-0.0312867539	-0.039654
O	 0.5571116129	-0.4515602311	 1.187637294	-0.262113
C	 0.6385371351	-1.8713599539	 1.2689379539	 0.051383
C	 1.9283569886	-2.2835783774	 2.00839099	-0.236728
C	 1.5431262674	-3.5133258995	 2.8627110544	-0.256673
C	 0.0418665607	-3.3930698109	 2.9590367759	-0.171017
C	-0.4660650915	-2.5030060064	 2.104842644	 0.332591
C	-1.9029662129	-2.1372748869	 1.910318443	-0.502267
H	 1.1638255188	 1.9029095934	 0.1689037723	 0.125464
H	-0.2442864351	 2.012301795	-0.9099807668	 0.111978
H	-0.4698910661	 1.964029092	 0.850788206	 0.125114
H	-0.987633551	-0.2612223453	-0.1959730688	 0.084813
H	 0.6456986934	-0.3247920583	-0.8779412939	 0.085891
H	 0.6148768746	-2.2815466708	 0.2449493292	 0.062844
H	 2.7666260604	-2.4658817477	 1.331524313	 0.092561
H	 2.2002539241	-1.4447486662	 2.6560862703	 0.118021
H	 1.8306740493	-4.4530293306	 2.3702718887	 0.103218
H	 2.0353304217	-3.520553282	 3.842123549	 0.101423
H	-0.5495353122	-4.0000567624	 3.6378752716	 0.083035
H	-2.5505344715	-2.6589031166	 2.6204396934	 0.119018
H	-2.0476682578	-1.0587239708	 2.0414362082	 0.135496
H	-2.246525106	-2.3819283209	 0.89643205	 0.119422
