18
gdb 93037	2.88885	1.61582	1.13637	1.8097	73.88	-0.2313	0.0204	0.2517	1079.8592	0.148368	-439.074965	-439.067157	-439.066212	-439.10722	30.324	
C	-0.650258835	 1.2665067265	 0.1631333685	-0.405762
C	 0.3178612887	 0.1210111308	-0.0433351386	 0.213987
O	 1.2384893697	 0.5496822657	-1.0587202152	-0.229902
C	 2.2810063913	-0.2347890094	-1.4280355964	 0.125187
N	 2.7755842389	-1.2995833824	-0.9643697301	-0.262333
C	 2.343046163	-2.0118840278	 0.1917768976	-0.00046
C	 2.89774607	-1.6428015827	 1.5547438224	-0.315748
C	 1.434917817	-1.4652806663	 1.2701165295	 0.063427
O	 0.9727296173	-0.1475357326	 1.1586841101	-0.24404
H	-0.1115600665	 2.1310551635	 0.5587189976	 0.141379
H	-1.1188003801	 1.5409537469	-0.784234925	 0.130893
H	-1.4228173668	 0.9719495582	 0.8768332202	 0.127944
H	-0.1878398728	-0.7833250724	-0.4112279596	 0.083688
H	 2.7486734294	 0.2189625671	-2.3015223892	 0.12311
H	 2.2647577297	-3.0789758243	 0.0003238077	 0.104418
H	 3.2158527418	-2.4330703199	 2.2248274477	 0.117223
H	 3.4790440104	-0.7289127997	 1.6030869026	 0.134005
H	 0.717274264	-2.1398258212	 1.7356070801	 0.092987
