21
gdb 94448	2.95511	1.398	1.19701	1.2891	84.77	-0.2234	0.0182	0.2417	1141.2991	0.18277	-387.090455	-387.081956	-387.081012	-387.123567	32.998	
C	-0.1106955255	 1.5056147815	 0.1994606809	-0.38736
C	 0.0234166077	-0.0055797801	 0.0471138279	-0.045823
C	 1.1031284517	-0.4598543993	-0.9786465457	-0.228126
C	 2.0854648984	-0.7216381052	 0.1937540529	-0.282521
C	 0.8803716831	-0.6896308144	 1.1779268975	 0.418316
O	 1.0792402816	 0.0622360585	 2.3699676084	-0.314631
C	 0.678293386	-0.684183685	 3.5161253173	-0.13715
C	 0.2478071584	-2.0185257169	 2.9764863764	-0.11406
C	 0.3695647192	-2.0171521342	 1.6543583479	-0.13578
H	 0.8640709941	 1.9851625462	 0.3325566991	 0.119355
H	-0.5829933444	 1.9378247894	-0.6894935626	 0.105465
H	-0.7198038684	 1.7608459409	 1.0712132977	 0.118406
H	-0.9671137257	-0.4514779814	-0.0914412198	 0.061536
H	 0.8245403658	-1.3755881709	-1.5070598538	 0.096091
H	 1.4086601773	 0.28421408	-1.7183624337	 0.097221
H	 2.6896705739	-1.6321535005	 0.1716291324	 0.093641
H	 2.7404035976	 0.1317183357	 0.3850007519	 0.113715
H	 1.5210005564	-0.7628238174	 4.2203534036	 0.106246
H	-0.13521325	-0.1613286107	 4.0439537798	 0.104282
H	-0.1033590746	-2.8294007762	 3.6017926234	 0.105192
H	 0.1354619974	-2.8291412099	 0.9771328588	 0.105985
