13
gdb 4716	6.67247	1.28136	1.07494	5.1245	67.67	-0.2087	-0.034	0.1746	1003.4623	0.096217	-398.650243	-398.643209	-398.642265	-398.681402	26.008	
O	 0.0786345949	 1.3253489106	 0.2390824976	-0.423403
C	 0.0675924553	-0.0023460781	 0.0030853539	 0.392725
C	 0.0709997742	-0.7511053787	-1.1671813067	-0.284705
C	 0.053778913	-2.1043349528	-0.7727724812	-0.173659
C	 0.0408329116	-2.1579430369	 0.6131433516	 0.207557
N	 0.0496928162	-0.8377286698	 1.0646446841	-0.355275
C	 0.0216024732	-3.2780157955	 1.5202018188	 0.068939
O	 0.0130802835	-4.4482964506	 1.1918717482	-0.294874
H	 0.0901936982	 1.7905928728	-0.603314807	 0.316054
H	 0.0841607993	-0.3558945599	-2.171254507	 0.10279
H	 0.050927683	-2.9725645304	-1.4128437972	 0.129959
H	 0.0439969094	-0.5384475791	 2.0257836543	 0.273719
H	 0.0148237982	-2.9860013915	 2.5992862604	 0.040173
