16
gdb 78417	3.19175	1.43206	1.23415	2.2883	68.28	-0.2382	-0.0077	0.2305	1018.6415	0.12446	-437.831918	-437.824678	-437.823734	-437.8635	28.57	
O	 0.0230954322	 1.2976682802	 0.0613722942	-0.42983
C	 0.035810415	-0.0931407725	-0.0446528873	 0.070697
C	-1.3507043056	-0.6697781155	 0.0438986476	-0.091958
C	-0.5909355724	-0.6607982206	-1.2926687812	-0.088067
N	-0.557147914	-2.1470677469	-1.2936293927	-0.146529
C	-1.3658697699	-2.2056224364	-0.0307299975	 0.007129
C	-0.2901825109	-3.1087669838	 0.6250431141	-0.397972
C	 0.5325172735	-2.8317377937	-0.661392316	 0.380447
O	 1.6568730496	-3.0169627075	-1.0187333154	-0.310313
H	 0.7523056672	 1.6420655549	-0.4658102205	 0.295747
H	 0.8936908958	-0.5855605451	 0.4144504432	 0.107198
H	-2.1742870813	-0.0418043764	 0.356737752	 0.11177
H	-0.7444558645	-0.0882835294	-2.1988729185	 0.113562
H	-2.3651721733	-2.6319913519	-0.1392293255	 0.096199
H	 0.1917821146	-2.7437001074	 1.5339370584	 0.142994
H	-0.590392186	-4.1490519177	 0.7715368653	 0.138926
