21
gdb 121545	7.17857	0.43554	0.4253	1.3007	91.24	-0.2265	0.0544	0.2808	2567.1323	0.181064	-387.047227	-387.036629	-387.035685	-387.085075	36.951	
O	-0.0513492365	 1.4540493141	-0.0535109783	-0.42201
C	 0.0291750021	 0.0386155202	 0.001000143	-0.073999
C	-1.3911920927	-0.5103919127	-0.0052703469	-0.153048
C	-1.421375793	-2.049710649	 0.054908542	-0.35858
C	-2.7743679475	-2.5949551125	 0.0479142452	 0.007348
C	-3.9019033589	-3.0220931741	 0.040150431	 0.138477
C	-5.2430021077	-3.5325410309	 0.0381747589	-0.154701
C	-5.8232617508	-4.1713608517	-1.2138079744	-0.252135
C	-5.4962006693	-5.0306452033	-0.0282572277	-0.251886
H	 0.8429173348	 1.8072124653	-0.0464943075	 0.285337
H	 0.5875943454	-0.363414014	-0.8611463656	 0.083342
H	 0.5544053954	-0.2969200619	 0.9110231982	 0.083655
H	-1.9377018566	-0.0956737609	 0.8479443016	 0.11707
H	-1.9043829024	-0.1649429522	-0.9084708073	 0.117263
H	-0.8595325568	-2.4583888213	-0.7965362587	 0.123564
H	-0.8897257072	-2.3898981283	 0.9546762366	 0.123105
H	-5.9471703328	-2.967381281	 0.6424346132	 0.107125
H	-6.8647012456	-3.9699194384	-1.438271721	 0.116047
H	-5.1756434597	-4.230398811	-2.0803185763	 0.124043
H	-4.6264696699	-5.6737879782	-0.0891947267	 0.124038
H	-6.3109297304	-5.4245040783	 0.5689610508	 0.115945
