20
gdb 109561	1.77558	1.57309	1.18149	3.8815	76.73	-0.2429	-0.0265	0.2163	1192.2419	0.168646	-440.27848	-440.268634	-440.267689	-440.313387	35.641	
C	 0.3311466319	 1.6020223974	 0.0378247056	-0.402122
C	 0.1536793807	 0.0928516362	 0.07432177	-0.061179
N	 0.753938577	-0.6806161906	-1.0492881408	-0.112542
C	-0.1359104968	-1.1957571252	-2.0719942474	-0.337686
C	 1.4292847088	-1.6528297835	-0.1469614854	-0.117684
C	 2.9149983428	-1.8294970316	-0.4535295417	-0.071236
O	 3.5226144957	-0.5825353756	-0.704425597	-0.422408
C	 1.0375343319	-0.7328202655	 1.0236302474	 0.392498
O	 1.3168887489	-0.6754550919	 2.1821819352	-0.294754
H	 1.3870108664	 1.859558117	-0.0818461825	 0.133196
H	-0.2313277768	 2.0436968642	-0.7908532995	 0.121913
H	-0.0303727459	 2.0441258461	 0.9711378469	 0.136282
H	-0.9062374894	-0.1709410551	 0.2369802467	 0.092128
H	-0.5897285763	-0.3663467796	-2.6233604281	 0.12967
H	 0.4289329194	-1.8006458009	-2.7880080317	 0.130086
H	-0.9490412623	-1.8205360145	-1.6597168787	 0.101674
H	 0.9199587217	-2.6279681002	-0.0723210189	 0.089579
H	 3.4119931459	-2.2803887227	 0.4121184746	 0.125729
H	 3.0352711007	-2.5195056472	-1.306111304	 0.087658
H	 2.892104926	-0.1129121969	-1.2704139609	 0.279197
