18
gdb 17813	4.1182	1.41922	1.29878	1.5142	67.66	-0.2349	0.0677	0.3026	1000.4965	0.15289	-384.86118	-384.853398	-384.852454	-384.89345	29.681	
C	 0.0575629319	 1.5248836748	 0.1504048387	-0.400919
C	 0.1090844551	-0.0040189131	 0.117281717	 0.082094
O	 0.7868069326	-0.5304720544	 1.2587670835	-0.429339
C	-1.283325755	-0.6126277259	 0.0120152035	 0.041218
C	-2.1065092351	-0.7197878823	-1.3058207521	 0.024688
C	-1.182537708	-1.8516109436	-1.8173659849	-0.232044
C	-1.5324918385	-2.1068063521	-0.33172918	 0.031935
O	-2.9400695618	-1.7515940261	-0.6460605854	-0.312008
H	 1.0636070999	 1.9339692886	 0.2753142499	 0.126271
H	-0.3711284089	 1.9275622258	-0.7733999287	 0.118816
H	-0.5623799259	 1.8750059522	 0.9850548492	 0.109333
H	 0.7313504153	-0.3161959566	-0.7271287636	 0.088979
H	 0.2886309301	-0.2676975999	 2.0411305714	 0.277328
H	-1.9158076729	-0.2855757962	 0.8459577506	 0.071498
H	-2.6256544271	 0.0595260751	-1.8651680554	 0.092517
H	-1.657061449	-2.5389219465	-2.5182090131	 0.110541
H	-0.151329626	-1.6198676477	-2.0896679565	 0.101495
H	-1.3610372466	-2.9920294021	 0.2800046059	 0.097598
