17
gdb 133771	2.04442	1.62649	1.23002	1.366	61.2	-0.2349	0.0936	0.3285	1064.6621	0.131833	-549.496924	-549.48794	-549.486996	-549.53087	33.187	
C	-1.6281167418	-0.7341895948	-0.4116645749	-0.332188
N	-0.2395234349	-0.376086125	-0.1174770271	-0.35158
C	 0.7410043271	-0.6759716346	-1.1172436213	 0.177389
C	 2.1175067113	-1.0622527649	-0.6273890532	-0.30752
C	 1.2105629982	-2.1043419947	-1.2267504368	-0.292901
C	 0.680343761	 0.1358211499	-2.3933595431	 0.241979
F	 0.7216625768	 1.4541613081	-2.1210845378	-0.083727
F	 1.6986234405	-0.134510757	-3.2279839373	-0.079782
F	-0.457620315	-0.0810928832	-3.0787867718	-0.078384
H	-2.082856728	-0.1810120885	-1.2442797374	 0.117278
H	-1.6781249838	-1.8007507008	-0.6515892935	 0.12631
H	-2.2291562319	-0.5659438099	 0.4868907878	 0.118667
H	-0.1685348282	 0.5968922378	 0.158421638	 0.226892
H	 2.9763157808	-0.7420594626	-1.2039122515	 0.130727
H	 2.2428156967	-1.0595536403	 0.4480293996	 0.126803
H	 0.7353467498	-2.810631238	-0.5570968854	 0.128178
H	 1.4548161414	-2.4881310715	-2.2098469045	 0.131859
