19
gdb 93601	2.81637	1.24118	0.90611	0.9105	88.44	-0.2245	-0.0187	0.2058	1285.1356	0.157865	-385.884397	-385.874956	-385.874012	-385.918526	35.319	
C	-0.1316607951	 1.5327689997	 0.0982433348	-0.510087
C	-0.0176590714	 0.0474583432	 0.0138356427	 0.168799
C	 0.0401105186	-0.7150797065	-1.094356137	 0.099764
C	 0.0800682256	-2.1998122863	-0.7643018733	-0.325245
C	 0.3825021953	-2.2151933957	 0.7488760688	-0.252791
C	-0.0111474693	-0.8108540643	 1.2658982561	 0.07642
O	 0.8198630731	-0.3138814396	 2.3074168064	-0.430133
C	 0.0147619633	-0.2534241321	-2.4324885419	 0.19587
C	 0.0012936654	 0.0998536005	-3.5854560949	-0.415639
H	 0.6239665735	 1.9417106532	 0.7774346441	 0.131237
H	-0.0265744043	 2.0003038176	-0.8830903573	 0.134596
H	-1.1054793648	 1.821776006	 0.5160020418	 0.13167
H	-0.8899048462	-2.6611815735	-0.9893428991	 0.117298
H	 0.8243293314	-2.7377912894	-1.3599321333	 0.113181
H	-0.1236145418	-3.0208252621	 1.2853248136	 0.106569
H	 1.4587947527	-2.3447928618	 0.9135792196	 0.097931
H	-1.0139137983	-0.8178468025	 1.7160338484	 0.096019
H	 1.7234749284	-0.2963880258	 1.9712732142	 0.274933
H	-0.0144810361	 0.4211487394	-4.5972329139	 0.189608
