20
gdb 102112	2.20281	1.26123	0.91486	2.3986	76.94	-0.2318	-0.037	0.1948	1335.1265	0.16736	-440.237491	-440.227193	-440.226249	-440.273573	35.883	
C	-0.6648392087	 1.2053430535	-0.3924797021	-0.245529
O	-0.1516701152	-0.1129438281	-0.3974140154	-0.242835
C	 0.6040853847	-0.4281733415	 0.7546102634	 0.012122
C	-0.3237680077	-0.6325857844	 1.9562868958	 0.131574
O	-0.0166653308	-0.4356938383	 3.102324747	-0.235522
C	 1.3304001016	-1.7323133835	 0.4652558862	-0.008356
C	 2.6483413999	-1.718586173	-0.2314585448	-0.255816
N	 2.5465514308	-2.1486126456	 1.1552679819	-0.080281
C	 3.1491271004	-1.3079842782	 2.1842611105	-0.320524
H	 0.1439171168	 1.9506295237	-0.3575588585	 0.114321
H	-1.2279673129	 1.3329998228	-1.3193231025	 0.136672
H	-1.3383955151	 1.3900679676	 0.4578486767	 0.11559
H	 1.3158729525	 0.3721494226	 0.9988512202	 0.087353
H	-1.3298416229	-1.0177276362	 1.6682419485	 0.090982
H	 0.6443976869	-2.5525367277	 0.2560143274	 0.100882
H	 2.8952213309	-2.4842108491	-0.9622836471	 0.119853
H	 3.0844726065	-0.7395897891	-0.4310622422	 0.107669
H	 3.2424531546	-0.2462491909	 1.9074458245	 0.100153
H	 2.5580329264	-1.369141098	 3.1010606981	 0.148199
H	 4.1549380217	-1.6883271565	 2.3878522325	 0.123495
