15
gdb 124225	4.82811	0.95669	0.91983	2.4435	68.09	-0.2675	-0.0274	0.24	1274.0425	0.111903	-453.933777	-453.92562	-453.924676	-453.968195	28.895	
C	 0.0155704362	 1.4771829045	-0.0923368848	-0.44705
C	-0.0111715816	 0.0017994702	 0.1616274253	 0.381895
N	-0.0750294263	-0.5116195115	 1.3103245777	-0.498511
O	 0.052661428	-0.6706634003	-1.0573164821	-0.276636
C	-0.0490068044	-2.0303055934	-1.0569128803	 0.162264
C	 0.9339787809	-2.9390126212	-1.2982813148	 0.003323
O	 0.4139445642	-4.1730697828	-1.3085492141	-0.156377
N	-0.9543653359	-4.1016239856	-1.059189995	-0.116887
C	-1.2204991334	-2.8285704396	-0.9129216193	-0.043551
H	 0.9242623357	 1.7492399307	-0.6380804933	 0.145752
H	-0.8356272996	 1.7694599175	-0.7148923807	 0.145543
H	-0.0194198803	 2.0100069492	 0.856400585	 0.154859
H	-0.0694852227	-1.5322638211	 1.2858873277	 0.227848
H	 1.9919663367	-2.8520276503	-1.4856701017	 0.166744
H	-2.2332486376	-2.5099627965	-0.7124223497	 0.150784
