21
gdb 92165	2.20949	2.01803	1.475	1.7154	80.51	-0.2188	0.0868	0.3056	1009.0843	0.18328	-387.067085	-387.059066	-387.058122	-387.098992	32.512	
C	-0.1572368137	 1.5438155563	 0.0097423071	-0.402416
C	 0.0217433746	 0.0211226034	-0.027523212	-0.036005
C	 0.8636477295	-0.4813170021	-1.2430572225	-0.231612
C	 2.1815940184	-0.9020015199	-0.6072438098	 0.084152
O	 2.7581465938	 0.282142554	 0.0479524673	-0.312623
C	 2.2470312665	-0.191647716	 1.2942492519	 0.056915
C	 1.8328039314	-1.5277417483	 0.7610090987	-0.209326
C	 0.7683929248	-0.5352811094	 1.1987296067	 0.313483
C	 0.0178548876	-0.7580368007	 2.4888349686	-0.497638
H	 0.8158323653	 2.0412357038	-0.0094501086	 0.1373
H	-0.7383040475	 1.892891097	-0.8505761107	 0.106267
H	-0.688912491	 1.8594275808	 0.9143031568	 0.105873
H	-0.9714377913	-0.4441087514	-0.0552328211	 0.064125
H	 0.3905315638	-1.3419117876	-1.7303035019	 0.094233
H	 1.013790517	 0.2951093978	-1.9992676393	 0.105181
H	 2.9125975537	-1.3922380429	-1.2527611792	 0.076907
H	 2.7547061695	 0.1141205156	 2.2027602355	 0.09692
H	 1.9791156159	-2.5406442722	 1.1108894343	 0.091333
H	 0.6764924833	-1.1475574084	 3.2726280236	 0.116004
H	-0.4199076332	 0.1750428026	 2.860935605	 0.123089
H	-0.7976200183	-1.478307912	 2.3537945796	 0.117837
