19
gdb 83091	2.4034	1.65519	1.45935	2.5234	75.08	-0.2369	0.0065	0.2434	999.2803	0.161132	-423.016893	-423.009269	-423.008325	-423.048334	31.464	
O	 0.1580877288	 1.4033093912	 0.1683918196	-0.441813
C	 0.0295310636	 0.023261006	-0.0011736125	 0.166816
C	-1.3823728441	-0.6482576695	-0.079169404	-0.089362
C	-2.325087449	 0.2045650062	-0.9449651425	-0.277579
C	-1.6341405698	 0.5974068823	-2.2337699332	-0.084407
C	-0.3767024057	 0.197953355	-2.4538796443	-0.083929
C	 0.3068229246	-0.6365397298	-1.3960277434	-0.166399
C	-0.7056426985	-1.742509077	-0.9409239558	 0.150811
O	-0.1577931081	-2.7290720008	-0.0915131969	-0.447693
H	-0.2061939371	 1.8242702058	-0.6207230598	 0.278876
H	 0.632116022	-0.4520514188	 0.7720441164	 0.103904
H	-1.8518652272	-0.9787453942	 0.8494377491	 0.073037
H	-3.249414803	-0.3472693814	-1.1618146229	 0.1122
H	-2.634799427	 1.1009763089	-0.3897651886	 0.11567
H	-2.1783413956	 1.1997870326	-2.9557577104	 0.093925
H	 0.1553208376	 0.4588907342	-3.3634790181	 0.09308
H	 1.3256472337	-0.9312107097	-1.6558161542	 0.056269
H	-1.308556005	-2.1847082949	-1.7446148405	 0.064826
H	 0.4394810498	-3.2739952659	-0.614173368	 0.28177
