21
gdb 89026	4.31372	0.69833	0.65365	3.2544	81.95	-0.2382	0.0401	0.2783	1783.7543	0.181681	-420.422229	-420.411691	-420.410746	-420.460122	36.803	
C	 0.2900109312	 1.342719115	-0.5728284473	-0.394081
C	-0.0158796698	 0.0670102785	 0.1756101795	 0.003268
N	 1.0804029982	-0.9055548693	 0.3405482671	-0.351163
C	 0.486633268	-0.2701075258	 1.5358295343	-0.018322
C	 1.4194875924	 0.6005309586	 2.3482134815	-0.172243
N	 2.4413494724	-0.2040364164	 2.9950861942	-0.307912
C	 2.6042153193	-0.2577727705	 4.3489185755	 0.40615
C	 3.7056610264	-1.1922472413	 4.8286103868	-0.480604
O	 1.930222774	 0.3960024846	 5.1261547934	-0.377006
H	 1.3071286198	 1.6889000973	-0.3790317567	 0.128826
H	 0.1981347636	 1.1784833808	-1.6517786772	 0.121706
H	-0.4095498676	 2.1377382627	-0.2929864669	 0.120607
H	-0.9959426525	-0.3495242816	-0.0559795229	 0.085372
H	 0.7353915686	-1.8551959356	 0.2334972951	 0.231329
H	-0.165345684	-0.8929886424	 2.146779384	 0.090939
H	 1.8910595815	 1.3556575404	 1.711200493	 0.106218
H	 0.8787290385	 1.115855181	 3.1453729228	 0.146946
H	 2.9949875721	-0.7969443874	 2.3983847688	 0.249552
H	 4.1942757022	-1.7489581976	 4.0246572094	 0.109353
H	 4.4584240359	-0.6037819644	 5.3603105397	 0.151435
H	 3.2786836596	-1.8980526665	 5.5456086958	 0.149632
