19
gdb 27280	3.01617	1.59908	1.07483	2.6049	83.77	-0.1743	0.0557	0.23	1128.85	0.162532	-382.106216	-382.098196	-382.097252	-382.13882	30.662	
C	-0.0397834937	 1.5282816112	 0.0137215802	-0.510335
C	 0.0364559365	 0.0318381661	 0.0004586622	 0.132432
C	 0.049218705	-0.7895644161	-1.101783673	 0.282412
N	-0.0157787466	-0.685636054	-2.5125596645	-0.411815
C	 0.3100756262	-2.0478487705	-2.9978496354	-0.174417
C	 0.0366438431	-3.019281735	-1.812249648	-0.194985
N	 0.1519560009	-2.0971535469	-0.7006514236	 0.000828
C	 0.1813088824	-2.1551953533	 0.672018512	-0.151721
C	 0.1134940589	-0.8564086354	 1.126249564	-0.229821
H	 0.6885423108	 1.9614664062	 0.7085217551	 0.120504
H	 0.1693646391	 1.9356795967	-0.9803163975	 0.121608
H	-1.028003797	 1.8967390622	 0.3187501153	 0.116174
H	-0.9393801596	-0.399798158	-2.8229873509	 0.234017
H	-0.2652334082	-2.2947737092	-3.8919703217	 0.11178
H	 1.3739462437	-2.0837183838	-3.2556564269	 0.125396
H	-0.9652197333	-3.4690677784	-1.8548945409	 0.110883
H	 0.7741686371	-3.8250799318	-1.7630691617	 0.121076
H	 0.2897851457	-3.089094258	 1.198903506	 0.110121
H	 0.1500119588	-0.5545436022	 2.1632815493	 0.085862
