23
gdb 104866	1.97598	1.54333	1.16225	1.3301	86.92	-0.2298	0.0184	0.2481	1232.2391	0.20452	-388.306341	-388.296399	-388.295455	-388.341165	37.208	
C	-0.6591184754	 1.7676832627	 0.3717141479	-0.391009
C	-0.38004248	 0.2696959499	 0.2337602214	-0.201059
C	-1.645918733	-0.6043782209	 0.1233383145	 0.340129
C	-1.2962729084	-2.1079769109	 0.0048147688	-0.192409
C	-0.5583285206	-2.6949920514	 1.2122196535	-0.391386
O	-2.4519193275	-0.3984110023	 1.3051292042	-0.307176
C	-3.7847347138	-0.04036216	 0.9565032148	-0.128846
C	-3.7691664636	 0.1175152421	-0.5380797333	-0.104186
C	-2.5647467299	-0.1872657501	-1.0035142526	-0.113239
H	 0.2743889409	 2.3256037275	 0.4929075561	 0.106154
H	-1.1780727464	 2.167205511	-0.5050107905	 0.112639
H	-1.2846026625	 1.9585072213	 1.2480000444	 0.127681
H	 0.2453094236	 0.0785342056	-0.6480356324	 0.088863
H	 0.1947700201	-0.0691611247	 1.1017539008	 0.106556
H	-2.2379732625	-2.6499045585	-0.140275064	 0.094645
H	-0.7082247654	-2.259690791	-0.9098386448	 0.087218
H	 0.4558963338	-2.2971800594	 1.3117255792	 0.114525
H	-1.1027860304	-2.4730533246	 2.1339323389	 0.133585
H	-0.4744348553	-3.7820695646	 1.1172674703	 0.106642
H	-4.4921461605	-0.8206963888	 1.2829029148	 0.101641
H	-4.0654122292	 0.8865692231	 1.4794040093	 0.105113
H	-4.6346977982	 0.4236073562	-1.1123630354	 0.104107
H	-2.2465770356	-0.1805558022	-2.0388468962	 0.099812
