20
gdb 67242	2.96044	1.62253	1.3307	1.6587	83.44	-0.2321	0.0938	0.3259	1046.7993	0.171238	-365.937407	-365.929628	-365.928683	-365.969192	31.575	
C	-0.1353249415	 1.5129074809	-0.0158843574	-0.531343
C	 0.0756351413	 0.0389245607	 0.0207994309	 0.364069
C	 0.3731308174	-1.0041069393	-0.9897187825	-0.093236
C	 1.4169578155	-1.6749220075	-0.0989524296	-0.242223
C	 0.6876221786	-0.9752076245	 1.0818911982	-0.229581
C	-0.6835972324	-1.6269424674	 1.0280424339	 0.455625
C	-1.1762698182	-2.9687044594	 1.4536208415	-0.350454
C	-1.7395002336	-1.6952552431	 2.0755631532	-0.355976
N	-0.9682255268	-0.9896105136	-0.2788722482	-0.226453
H	 0.8186722115	 2.0516405262	-0.0253080465	 0.121834
H	-0.6934757457	 1.787269738	-0.9164425626	 0.13508
H	-0.7080674005	 1.854059556	 0.8535955647	 0.127751
H	 0.3327267661	-0.9450194562	-2.0699973594	 0.093917
H	 1.4734156174	-2.7680178156	-0.0746298126	 0.097182
H	 2.4084515767	-1.2514961875	-0.2808654672	 0.100681
H	 1.1999968229	-0.7466932467	 2.0150885081	 0.071565
H	-1.8132548146	-3.5116425574	 0.7636402243	 0.120499
H	-0.5284078262	-3.593699991	 2.0605354424	 0.109408
H	-1.4707131862	-1.4651284369	 3.1016200845	 0.109784
H	-2.7439765516	-1.4006587058	 1.7911698844	 0.121872
