15
gdb 25480	5.42872	1.00038	0.84472	2.9814	82.45	-0.2309	-0.0429	0.188	1293.244	0.116489	-413.05879	-413.05149	-413.050546	-413.090983	27.089	
N	 1.0965056328	-0.1151471707	 0.2862912039	-0.46987
C	-0.021498051	 0.4533814454	 0.0711831096	 0.098834
N	-1.1985493853	-0.2297969113	 0.2994400147	-0.349287
C	-2.4746890542	 0.2471855493	 0.1141972367	 0.493705
N	-2.6220637037	 1.5015038363	-0.3327163757	-0.312913
C	-3.8776752503	 1.913875121	-0.4945486093	 0.018329
C	-4.9784312746	 1.1097525345	-0.2227632295	-0.149302
C	-4.6946600958	-0.1734152107	 0.2361267538	 0.015231
N	-3.4548657806	-0.6212622582	 0.4103375393	-0.328196
H	 1.8595746355	 0.5226542655	 0.0688633489	 0.228756
H	-0.1908699786	 1.4684437835	-0.2913429496	 0.135266
H	-1.1238524248	-1.1793510786	 0.6372254768	 0.268472
H	-4.0025439039	 2.9319458025	-0.8573942553	 0.120529
H	-5.9930968277	 1.4597465398	-0.3594962041	 0.109524
H	-5.4933785979	-0.8726375983	 0.4744100498	 0.120921
