19
gdb 86058	2.41546	1.5351	0.95622	5.2112	82.04	-0.2065	0.0027	0.2092	1231.6914	0.159107	-419.271317	-419.26146	-419.260516	-419.306377	35.093	
C	-0.0632634242	 1.3920474622	-0.0461656354	-0.340049
N	-0.019387344	-0.0448610075	-0.0870531687	-0.103831
C	-1.1821480194	-0.8937474425	-0.09459135	-0.255837
C	-0.5820062564	-2.2817874656	-0.0732381665	 0.22467
N	-1.3975367914	-3.3894452418	-0.1448887473	-0.584342
C	 0.7636918404	-2.2112247363	-0.0587178577	 0.099524
C	 1.7791284246	-3.3079470731	-0.043047514	-0.52523
C	 1.1540764207	-0.7831049028	-0.0549097151	 0.380944
O	 2.2774068814	-0.3124722791	-0.0200436827	-0.418609
H	 0.9707292725	 1.743026705	-0.0292418256	 0.163959
H	-0.5673287153	 1.8111538836	-0.9273019071	 0.114371
H	-0.5787973878	 1.7620912829	 0.8509857316	 0.112079
H	-1.8276063107	-0.7181271674	 0.7820217169	 0.109282
H	-1.8052970138	-0.7432356534	-0.9895702241	 0.123144
H	-2.3212006858	-3.2930339629	 0.250907836	 0.252212
H	-0.9630788854	-4.2680252374	 0.0975284846	 0.257963
H	 1.8524026051	-3.8235523107	-1.0088673184	 0.126273
H	 2.7598980648	-2.8785105397	 0.1780654331	 0.155314
H	 1.5588784848	-4.0690728335	 0.7166741803	 0.108162
