19
gdb 88296	3.87832	0.98144	0.91447	3.2287	79.51	-0.2391	-0.0246	0.2145	1340.9061	0.158841	-423.022066	-423.013463	-423.012519	-423.055944	32.779	
O	-0.0011097921	 1.346238137	-0.2346966119	-0.418715
C	-0.0324359942	-0.0216997036	-0.0840479914	 0.157198
C	-0.3530535039	-0.6794237846	 1.2037891806	-0.324863
C	-1.3854270307	-0.774477704	 0.0699876157	-0.206656
C	-2.5879315337	 0.0747040974	 0.1555037153	 0.426836
O	-2.5458877039	 1.1880755708	 0.6800345561	-0.409097
C	-3.8455980239	-0.4351347737	-0.449942611	-0.111701
C	-5.1592549709	 0.0332204815	 0.161855615	-0.250379
C	-4.7408758391	 0.5781012904	-1.157226373	-0.245932
H	-0.7882476275	 1.6968166541	 0.2208434057	 0.305458
H	 0.682809741	-0.5026680806	-0.7437072256	 0.115229
H	 0.1515707183	-1.5994675609	 1.4771815502	 0.121004
H	-0.6356269235	-0.0343344238	 2.0292239068	 0.137299
H	-1.490869756	-1.7274173416	-0.4349784522	 0.092367
H	-3.8135105599	-1.4383285698	-0.8580484231	 0.090444
H	-5.9656809336	-0.6897308898	 0.2026869531	 0.119628
H	-5.0638649806	 0.683311352	 1.0235986122	 0.140864
H	-4.3645732801	 1.5939485451	-1.1829692941	 0.140482
H	-5.2479251757	 0.2406995843	-2.0536697284	 0.120532
