16
gdb 16693	4.40844	1.66479	1.53819	1.6859	65.85	-0.2365	0.0052	0.2417	874.527	0.130622	-383.696308	-383.689413	-383.688469	-383.72712	27.144	
C	-0.0476130556	 1.4384917664	 0.0858480762	-0.516676
C	-0.0254066184	-0.047632156	 0.0021803385	 0.356787
C	-0.0319466269	-0.8985289473	-1.0350075698	-0.199512
C	 0.0543879224	-2.2481388452	-0.3423520075	-0.03492
O	-0.8758942348	-2.0891750778	 0.7934094396	-0.312347
C	 0.061388653	-1.0217026297	 1.1768310908	-0.09581
C	 1.2124498855	-1.9889511234	 0.6964911886	 0.199237
O	 1.5200748745	-3.039034461	 1.5493894735	-0.44468
H	 0.8337291187	 1.8223470605	 0.6149015679	 0.132321
H	-0.0682307216	 1.8931603488	-0.9083097198	 0.130582
H	-0.9245954689	 1.7934392084	 0.6414395914	 0.135636
H	-0.0496840769	-0.7054120835	-2.0978268034	 0.107838
H	-0.06037513	-3.1800135721	-0.8942246413	 0.083261
H	-0.0415288006	-0.67408831	 2.2048670919	 0.080103
H	 2.1445927756	-1.5508781988	 0.3342653231	 0.091205
H	 0.6694203241	-3.3961425594	 1.8417691403	 0.286976
