16
gdb 16405	3.49119	2.23831	1.74748	2.506	64.01	-0.2438	-0.0162	0.2276	776.3334	0.132111	-383.742024	-383.735544	-383.7346	-383.772917	25.153	
O	-0.0220241092	 0.0341523305	-0.3462589878	-0.32608
C	 0.017739013	 1.1993106393	-0.0366645059	 0.380969
C	-1.2671603379	 1.9667505382	 0.3170391233	-0.177048
O	-1.0963228998	 3.3368600735	 0.6670061971	-0.273407
C	 0.2419678648	 3.8004594109	 0.6390071959	 0.136147
C	 0.9631621037	 3.3928828124	-0.6716099653	-0.25777
C	 1.2692348758	 2.0365043952	 0.0459873754	-0.126512
C	 1.1986354009	 2.8374963868	 1.3883047737	-0.257763
H	-1.9442981716	 1.8936246695	-0.543732797	 0.136976
H	-1.7511039368	 1.437441738	 1.1479508154	 0.136979
H	 0.199278618	 4.8513751052	 0.9272307557	 0.08578
H	 0.3749891948	 3.3806480612	-1.5924613915	 0.112751
H	 1.8797050107	 3.9666349408	-0.8265686311	 0.114809
H	 2.1567170163	 1.4589971455	-0.211167055	 0.08661
H	 2.1583229469	 3.309487082	 1.6107449515	 0.114807
H	 0.8178141603	 2.336177731	 2.2814559354	 0.112751
