18
gdb 38521	2.98867	2.09745	1.49134	2.2415	76.35	-0.2087	-0.0043	0.2044	894.2256	0.151157	-398.062258	-398.055781	-398.054837	-398.092752	27.317	
C	 0.0004681904	 1.5286769125	-0.1585091469	-0.174226
C	 1.5482140163	 1.561317965	 0.0557184752	-0.035421
N	 1.8926764807	 1.9365489717	 1.4720439106	-0.361181
C	 1.4811365827	 0.592970555	 1.8430635231	 0.257169
N	 0.7660146786	 0.2283228547	 2.8211658411	-0.219761
C	-0.0329705307	-0.9297035453	 2.4025494779	-0.176812
C	-0.8832211908	-0.5090256698	 1.1587451577	-0.169827
N	-0.0408432786	 0.0467277639	 0.0866334642	-0.079649
C	 1.4006664894	 0.0687737046	 0.4209406426	-0.110235
H	-0.5477076393	 2.1368054459	 0.5703850655	 0.120409
H	-0.3303210619	 1.7805476119	-1.1702542859	 0.111091
H	 2.1876878685	 1.9659516129	-0.7259246856	 0.085719
H	 2.8832223242	 2.1350040067	 1.5871975704	 0.237024
H	 0.5885225174	-1.7939448754	 2.1242582998	 0.10516
H	-0.6880673497	-1.2461025227	 3.217633629	 0.108158
H	-1.4352818416	-1.3846310068	 0.7956693316	 0.10472
H	-1.6206520723	 0.2414038384	 1.4688461959	 0.112019
H	 2.0267858767	-0.7557925435	 0.0736390537	 0.085641
