17
gdb 44359	3.49809	1.6528	1.37772	3.4356	72.66	-0.2411	0.0224	0.2634	944.2325	0.138896	-417.973224	-417.966611	-417.965667	-418.004285	26.972	
N	-0.0059555912	 1.0776856653	 0.991323587	-0.519293
C	 0.0376947513	 0.1335024175	 0.1499016332	 0.388647
C	-1.248719441	-0.5033019276	-0.3492701987	-0.254961
N	-1.1598957602	-1.9218075003	-0.7276380059	-0.088474
C	-0.6481694822	-2.3123552779	-2.0315392414	-0.039087
C	 0.3867172966	-1.3118215863	-2.5602244326	-0.285723
C	 1.1569723697	-1.4740861874	-1.2084540192	 0.089889
O	 1.2169252152	-0.3392016705	-0.3453481035	-0.2482
C	 0.1487558971	-2.5433580052	-0.7744921594	-0.083355
H	 0.9389718327	 1.4050330429	 1.2034562667	 0.219007
H	-1.9819927124	-0.3970858588	 0.4520793209	 0.149833
H	-1.6249514561	 0.0783618771	-1.1991419564	 0.133438
H	-1.2268927399	-3.017769428	-2.6156622628	 0.104168
H	 0.9675065509	-1.7030698668	-3.3986030578	 0.11669
H	 0.0359702625	-0.3067676755	-2.8116197516	 0.112564
H	 2.1880564978	-1.8054481266	-1.3269481256	 0.103009
H	 0.3432397492	-3.4360029817	-0.1913219128	 0.101848
