23
gdb 115799	3.80055	1.03209	0.92444	1.3638	85.39	-0.2233	0.0854	0.3087	1389.6845	0.205669	-388.29329	-388.283978	-388.283034	-388.327062	36.036	
C	 0.0182213672	 1.5602699694	-0.0429066588	-0.385191
C	 0.021808447	 0.0279819412	 0.0049572643	-0.184512
C	-1.3809900037	-0.5890180451	 0.0376987587	 0.009427
C	-2.2239867268	-0.3009458255	-1.2305651378	-0.109689
O	-3.118493982	-1.3955000986	-1.4015789596	-0.297492
C	-2.5587134263	-2.5372094199	-0.78597908	 0.452663
C	-3.5979169697	-3.5750893742	-0.4746038901	-0.466067
C	-1.1396100103	-2.8885169015	-1.1638972922	-0.361721
C	-1.4352691042	-2.1089213516	 0.1131959675	-0.135671
H	 1.0373723515	 1.9587208235	-0.0314379408	 0.113545
H	-0.4709597584	 1.9356819004	-0.9481974046	 0.119589
H	-0.5129975403	 1.9812586747	 0.818246257	 0.114481
H	 0.5670711902	-0.3691354294	-0.8610217274	 0.095892
H	 0.5757214524	-0.3050632925	 0.8912931968	 0.095822
H	-1.9141938697	-0.1966387241	 0.9147416217	 0.072462
H	-2.8220949691	 0.6117346682	-1.1623122632	 0.108417
H	-1.5647491584	-0.2030704484	-2.1074306225	 0.090206
H	-4.0798795649	-3.9272706135	-1.3926981205	 0.126871
H	-3.1443827173	-4.4363150301	 0.0234213263	 0.115047
H	-4.3736604526	-3.1620231036	 0.1782572117	 0.121808
H	-0.8352724571	-3.9233701308	-1.0468482256	 0.10876
H	-0.6725987813	-2.3837160598	-2.0029339413	 0.112314
H	-1.258986886	-2.5884456689	 1.0699866804	 0.083039
