18
gdb 88813	3.17688	1.08773	0.90016	2.6897	73.55	-0.257	0.0329	0.2898	1292.4199	0.147541	-439.058932	-439.05032	-439.049376	-439.093167	31.836	
O	-0.0159789675	 1.4877813392	 0.5693234339	-0.417696
C	 0.0521910725	 0.1168857398	 0.2978316183	 0.083432
C	-0.6493592994	-0.8577797784	 1.2063780958	-0.326095
C	-1.2202585954	-0.5425467918	-0.1629160708	-0.027953
C	-2.4869254527	 0.2616304615	-0.2729055167	-0.133515
C	-2.9486114363	 0.7241342173	-1.675064762	-0.102402
O	-4.1926753164	-0.0294968157	-1.5218874011	-0.256527
C	-3.8022066653	-0.5030261603	-0.2851030493	 0.424093
N	-4.3719797118	-1.2952479837	 0.5015129002	-0.544938
H	 0.4987590344	 1.6600244544	 1.3643170578	 0.291994
H	 0.9784255309	-0.205556933	-0.1772798768	 0.090345
H	-0.2104619872	-1.834403771	 1.3758540272	 0.117947
H	-1.1768391744	-0.4429972783	 2.0588087484	 0.126714
H	-1.1097662911	-1.3158450623	-0.9183419947	 0.092429
H	-2.4819566484	 1.0721094825	 0.4578597228	 0.116222
H	-3.1469949025	 1.7906170461	-1.8007918664	 0.122836
H	-2.3642651314	 0.3428950528	-2.516941804	 0.117487
H	-5.2667486182	-1.6130122791	 0.1243192475	 0.225627
