12
gdb 27514	2.17076	1.90065	1.01337	2.8283	61.85	-0.2515	-0.0335	0.218	1049.2032	0.077339	-509.823717	-509.816433	-509.815489	-509.855867	26.895	
O	 0.0515611314	 1.3178428157	 0.1153947286	-0.391501
C	-0.0892266585	 0.0036938933	-0.022932488	 0.496249
C	-1.2334095153	-0.6683121406	 0.151173723	-0.339186
C	-1.237430335	-2.0932999269	-0.0327546921	 0.417266
N	-2.2319216439	-2.8565435419	 0.0953100489	-0.519259
O	 0.0207924496	-2.6525126659	-0.3925759748	-0.265491
C	 1.1551638932	-1.962897477	-0.5621977548	 0.483736
O	 2.1892588982	-2.459323665	-0.862652796	-0.328215
O	 1.0836323253	-0.5953385358	-0.3684754873	-0.266967
H	 0.97181076	 1.553093591	-0.0642199806	 0.323753
H	-2.1469539118	-0.165517298	 0.4250098506	 0.150175
H	-1.9824141131	-3.8278043689	-0.0876451275	 0.23944
