21
gdb 114976	3.18234	1.04088	0.8252	3.7319	85.79	-0.2341	-0.0458	0.1883	1424.0082	0.183138	-387.139373	-387.130422	-387.129477	-387.173236	33.912	
C	-0.0645304352	 1.5645959137	 0.1437645971	-0.395242
C	-0.0187119084	 0.0402633135	-0.0069214657	-0.179362
C	 0.7290412506	-0.4595236645	-1.2527834816	 0.010424
C	 2.2157040807	-0.0637588553	-1.263309259	-0.256304
C	 2.9834764775	-0.7245167162	-2.3742244325	-0.057183
C	 2.56525791	-1.8236015858	-3.0145331529	-0.137776
C	 1.317101554	-2.5224132935	-2.6407501044	 0.36235
O	 0.9118637631	-3.4884057568	-3.2562917617	-0.33235
C	 0.5983913379	-1.9832354063	-1.409263575	-0.321406
H	 0.9316333167	 1.9942012076	 0.2890814697	 0.118278
H	-0.504328471	 2.0364397728	-0.7421206399	 0.117056
H	-0.6716163052	 1.8519683152	 1.0075840142	 0.117166
H	 0.4388356487	-0.405496614	 0.8872850144	 0.094113
H	-1.0448864571	-0.3463027078	-0.0448843567	 0.099352
H	 0.264833638	 0.0050574057	-2.1355713475	 0.081761
H	 2.3281887369	 1.0229735274	-1.3462421382	 0.114607
H	 2.680368864	-0.3321042258	-0.3000990352	 0.116694
H	 3.9287118399	-0.2658548088	-2.6580524597	 0.106415
H	 3.1297757938	-2.2653746596	-3.8297620664	 0.105168
H	 1.0424249028	-2.4792882157	-0.5323069799	 0.117466
H	-0.4466467478	-2.3020442559	-1.4573093793	 0.118769
