20
gdb 124483	2.48724	1.27344	1.03865	4.7113	81.28	-0.2366	0.0066	0.2432	1262.2195	0.170741	-399.349707	-399.339951	-399.339007	-399.386123	34.689	
C	 0.0303722664	 1.5738782516	 0.0594715	-0.383621
C	 0.0290060848	 0.0331473083	 0.0775149121	-0.095583
C	 0.7843787775	-0.5108817186	 1.3054583849	-0.383302
C	-1.3603263786	-0.5265127264	-0.017401754	 0.289475
C	-1.9855424674	-1.3231201921	-0.9571814548	 0.201739
C	-1.4565587411	-1.9048274906	-2.2290204772	-0.504131
N	-3.2725950282	-1.5425929496	-0.5520990761	-0.247174
N	-3.4859451839	-0.9342456902	 0.5779056472	-0.129181
N	-2.3347255241	-0.3184422007	 0.9071321181	-0.238886
H	 1.0557778213	 1.9563662633	 0.0585442124	 0.120084
H	-0.4825542159	 1.9611653857	-0.8251259648	 0.128996
H	-0.4728045252	 1.9823446703	 0.9434347618	 0.109667
H	 0.5565015277	-0.3120906518	-0.8191597769	 0.096036
H	 0.3108479832	-0.1863627481	 2.2391795863	 0.109835
H	 0.8071414226	-1.6040785993	 1.3053896751	 0.128947
H	 1.8156437614	-0.1445645639	 1.3145544092	 0.11997
H	-0.626002142	-2.5971451684	-2.0520577953	 0.127278
H	-2.2564734167	-2.4576533954	-2.7259899636	 0.14941
H	-1.0987129199	-1.132207939	-2.9182716414	 0.126573
H	-2.2939901321	 0.215139485	 1.7606514171	 0.273866
