14
gdb 20315	5.88046	1.26944	1.11514	2.4792	67.91	-0.2399	0.0201	0.26	1021.8909	0.108411	-341.568303	-341.56106	-341.560116	-341.601067	26.415	
C	-0.1736975102	-1.1836317113	-0.5077565747	-0.456569
C	-0.0837450095	-0.0409946238	-0.1474849647	 0.312847
C	 0.02703713	 1.3544332762	 0.2742564256	-0.477431
C	 1.4207969616	 1.9159047423	 0.1492193807	 0.222359
C	 2.1227665207	 2.6394320837	 1.0913776056	-0.13283
N	 3.3126592807	 2.9571670856	 0.5249616174	-0.178686
N	 3.4441851346	 2.4863189472	-0.7288336662	-0.222024
C	 2.2979075241	 1.8545841659	-0.9594526509	-0.070218
H	-0.251087647	-2.1954617721	-0.8198137688	 0.197161
H	-0.67693018	 1.9560094692	-0.3179203657	 0.143822
H	-0.3097761064	 1.4463559533	 1.3140415531	 0.134847
H	 1.8696816486	 2.9412876743	 2.0958150987	 0.133093
H	 4.0714810668	 3.4753917603	 0.9334127883	 0.275231
H	 2.1343773061	 1.3641209793	-1.9077997283	 0.118399
