19
gdb 75245	3.74133	1.22246	1.07419	1.6416	77.3	-0.2415	0.0307	0.2722	1180.0168	0.160659	-419.201922	-419.193605	-419.192661	-419.234872	31.554	
C	 0.087652903	 1.4596217801	 0.0583640144	-0.451544
C	-0.0303125808	-0.0308916175	-0.0705772062	 0.407939
N	-0.0682467765	-0.6029475137	-1.2032181653	-0.313969
C	-0.1361606458	-2.0587919153	-1.2584943303	-0.230108
C	 0.2813016875	-2.7211362997	 0.0376909357	 0.275091
C	 0.6183182859	-4.1603373297	 0.0913773359	-0.295986
N	 1.6782017805	-3.1446516912	 0.2419081434	-0.342917
C	-0.3383355348	-2.0180868088	 1.216027027	-0.116909
O	-0.0778640846	-0.6074321151	 1.1630445433	-0.259949
H	 0.9763079827	 1.7164492887	 0.6435811245	 0.140303
H	 0.1543444153	 1.9082114658	-0.9317087312	 0.142811
H	-0.778155093	 1.8644628722	 0.5921105822	 0.135736
H	-1.1618664751	-2.354053899	-1.5239965538	 0.11342
H	 0.4998376284	-2.4049897811	-2.0837650591	 0.100209
H	 0.4115732715	-4.7433857809	 0.9855683292	 0.117204
H	 0.5595088552	-4.7260442017	-0.8358978556	 0.114158
H	 2.1970946963	-3.0557951171	-0.6291461882	 0.231923
H	-1.4260149518	-2.1715220512	 1.2319311498	 0.107042
H	 0.0876194561	-2.3708389949	 2.1569118344	 0.125545
