15
gdb 5248	7.31248	1.08849	0.95869	0.5629	62.66	-0.2386	0.0072	0.2458	1149.0164	0.119495	-399.826979	-399.819326	-399.818382	-399.860594	26.626	
O	-0.1117642294	 1.4472096782	 0.034200325	-0.422193
C	-0.1280968535	 0.0855719893	 0.4346530929	-0.071151
C	-1.0990947788	-0.631686492	-0.4966659953	-0.30632
C	-1.2125295622	-2.0831836696	-0.1845056452	 0.406915
N	-0.6049794412	-2.7651915999	 0.7353500925	-0.312832
C	-1.0772738508	-4.0648316315	 0.5805675485	-0.115997
C	-1.9587992549	-4.0938249023	-0.4427173223	-0.042355
O	-2.0581391375	-2.8261878278	-0.9468418253	-0.179771
H	 0.4961320261	 1.9199284511	 0.6096735122	 0.28869
H	 0.8662942226	-0.3761478667	 0.358358456	 0.106644
H	-0.460055939	-0.0315548231	 1.4757981764	 0.106339
H	-2.0859429428	-0.1585400564	-0.4271047709	 0.136965
H	-0.7711850561	-0.499277034	-1.5347620699	 0.137033
H	-0.7458793322	-4.8708168863	 1.2153841384	 0.123388
H	-2.5602266903	-4.8509165392	-0.9149437733	 0.144644
