19
gdb 75451	1.99859	1.58951	1.32323	1.1888	83.39	-0.2379	0.0138	0.2517	1110.2277	0.157111	-385.872956	-385.863462	-385.862518	-385.906854	35.822	
C	-0.125149256	 1.4808039527	 0.0313374113	-0.513411
C	-0.0112944863	-0.0063792485	-0.0513415025	 0.302119
C	 0.0507033367	-0.7807057156	-1.1340635213	-0.170174
C	 0.1322911363	-2.2506352087	-0.808514912	-0.259308
C	 0.4521390782	-2.2510370521	 0.7020368632	-0.258077
C	 0.0254385147	-0.8536955785	 1.2257499829	 0.166009
O	 1.0182788816	-0.4053454011	 2.1577715923	-0.465079
C	-1.2945307217	-0.8570684161	 1.8702543898	 0.304127
C	-2.371227812	-0.819095877	 2.4060883957	-0.516743
H	 0.7155305258	 1.9020978701	 0.595068414	 0.130908
H	-0.1355520304	 1.9388676692	-0.9607869067	 0.12459
H	-1.0436209196	 1.775521177	 0.5546682173	 0.131714
H	 0.0188485405	-0.4095199083	-2.1536805958	 0.08942
H	-0.8211974683	-2.753055465	-1.0208211244	 0.112724
H	 0.8938983522	-2.7755003302	-1.3959963389	 0.105483
H	-0.0209287161	-3.0638946472	 1.2550230038	 0.108335
H	 1.5318369261	-2.3136122844	 0.8623033331	 0.123065
H	 0.6102888497	 0.2505882904	 2.7325095447	 0.28409
H	-3.3236473312	-0.8012489766	 2.8759978835	 0.200209
