21
gdb 88008	2.81812	1.31906	1.1078	1.6889	83.49	-0.2517	0.0734	0.3251	1209.0983	0.181284	-387.054381	-387.045474	-387.04453	-387.087924	34.341	
C	-0.0239797467	 1.440287667	-0.1903682501	-0.417486
C	 0.0063187946	-0.0478631892	 0.0385722396	-0.028365
O	 1.2998744312	-0.6849709329	-0.0014942046	-0.298163
C	 0.5971030598	-0.6661187287	 1.2303102659	 0.388583
C	 1.1037575908	-0.0156926274	 2.5250251349	-0.322649
C	 0.4193835954	-1.1739398932	 3.322125248	-0.322684
C	 0.1833376699	-1.9087012626	 1.9918473305	 0.295225
C	-0.8285849869	-2.9528581036	 1.6268017467	-0.341354
C	 0.641874689	-3.2961553975	 1.6410639654	-0.30815
H	 0.7551594542	 1.9424376991	 0.388712763	 0.126989
H	 0.1354659433	 1.6703455745	-1.2491432789	 0.12904
H	-0.996937945	 1.8527446205	 0.0991752044	 0.119899
H	-0.7680987404	-0.6123843623	-0.4851122479	 0.0848
H	 2.1944663124	-0.0402149558	 2.5889609836	 0.118341
H	 0.7589402785	 0.9990900744	 2.7370440197	 0.104184
H	 1.049008459	-1.6884516314	 4.0516808173	 0.104117
H	-0.5058470285	-0.8610316544	 3.8141664573	 0.10426
H	-1.4557287513	-3.3471450709	 2.4202958611	 0.111964
H	-1.3260823883	-2.8734707044	 0.665077812	 0.1134
H	 1.1456596679	-3.4180171669	 0.6880421713	 0.127967
H	 1.0150904309	-3.9274843644	 2.4411047307	 0.110081
