18
gdb 37899	3.14863	2.11486	1.70433	1.2389	74.35	-0.2273	0.0836	0.3109	842.0265	0.151616	-401.860624	-401.85475	-401.853806	-401.890466	25.658	
C	-0.0406597441	 1.5146659744	 0.039036684	-0.262462
N	 1.4877729419	 1.2769573399	 0.0487800842	-0.180268
C	 1.1932318144	 0.0402321979	 0.9212787398	-0.002148
C	 2.2090649068	-1.0403264807	 0.5669715255	-0.249311
C	 1.8163740024	-1.1370789206	-0.9175168161	 0.072885
O	 0.6547740423	-2.0044074841	-1.063475538	-0.300178
C	-0.535546476	-1.3500985372	-0.5366502651	-0.200616
C	 0.0458654774	-0.0136128163	-0.134069414	 0.243666
C	 1.2138043557	 0.2517265488	-1.0924315311	-0.000043
H	-0.419380519	 1.9114961229	 0.9848070101	 0.105244
H	-0.3847248144	 2.1123224222	-0.8091229306	 0.108163
H	 0.974671019	 0.2641633673	 1.966605646	 0.072417
H	 3.2387295158	-0.7005258452	 0.7214659465	 0.110578
H	 2.0528876616	-1.9850385573	 1.0926620536	 0.110353
H	 2.5671943598	-1.5017348443	-1.6166646204	 0.079751
H	-1.2924506785	-1.2907457153	-1.327771838	 0.107773
H	-0.9356114265	-1.9400923375	 0.2960063239	 0.104112
H	 1.0536555115	 0.6712194652	-2.0849294903	 0.080081
