18
gdb 112068	2.04245	1.54909	0.9605	2.8366	77.07	-0.2566	0.0075	0.2641	1209.3342	0.148409	-401.968545	-401.959778	-401.958834	-402.002501	32.069	
O	-0.0193734443	 1.4006714708	-0.3336193416	-0.426041
C	 0.0372498236	-0.0168849905	-0.3663168734	-0.089743
C	-1.3371683218	-0.5212737815	 0.0911500665	-0.048762
C	-2.4396846128	-0.0830445638	-0.8467864712	-0.057575
C	-2.9393804954	-1.0882425836	-1.5612216712	-0.076233
C	-2.2903622829	-2.4100902604	-1.2347344248	-0.266142
C	-1.5029756793	-2.0803668988	 0.072335425	-0.174928
C	-0.2627266378	-2.8368570072	 0.212658228	 0.275954
N	 0.7194208443	-3.4380678566	 0.3183742078	-0.341014
H	 0.8406315632	 1.7423840419	-0.5944310968	 0.291553
H	 0.2519015589	-0.3885911624	-1.3805884857	 0.09611
H	 0.8179085772	-0.404728892	 0.3035817153	 0.110502
H	-1.4904368812	-0.138292454	 1.1062370213	 0.098548
H	-2.7181250826	 0.9592051242	-0.935057163	 0.117029
H	-3.7024033357	-0.9966925296	-2.3258311927	 0.103021
H	-3.005023564	-3.2232236469	-1.0726886209	 0.121989
H	-1.6208502444	-2.7389736728	-2.0393490919	 0.130473
H	-2.1395602549	-2.3475581869	 0.9219580194	 0.13526
