21
gdb 111289	3.21751	1.18082	1.02242	1.9072	78.44	-0.2452	0.0786	0.3238	1269.0717	0.180837	-424.200542	-424.191042	-424.190098	-424.234543	35.911	
C	-0.0607934701	 1.56533845	 0.0603701507	-0.385322
C	 0.1140337772	 0.043304201	 0.1014964075	-0.189278
C	 0.7285319015	-0.518022076	-1.1756170669	-0.046827
C	 0.8130608911	-2.0387578014	-1.3396059203	-0.066121
O	-0.5402153367	-2.5358939079	-1.4219324669	-0.306163
C	 0.0851809379	-2.0265162622	-2.6203053369	 0.379281
C	 0.1192877018	-2.8995095779	-3.8306332046	-0.512817
C	-0.1267272126	-0.5013631896	-2.5186678179	 0.061624
O	-1.4642413575	-0.0824933618	-2.4584547361	-0.431462
H	 0.9003564888	 2.0708101861	-0.0882594797	 0.106786
H	-0.7254983186	 1.852229207	-0.7588098879	 0.138733
H	-0.4901426005	 1.9384858421	 0.9953987454	 0.108867
H	 0.7508834371	-0.2374212863	 0.9508016981	 0.093124
H	-0.8539391966	-0.4386936944	 0.2770054609	 0.098494
H	 1.7059642978	-0.0583380584	-1.3648532574	 0.071298
H	 1.560944497	-2.7333244988	-0.9721471969	 0.101099
H	 0.376377186	-3.926567311	-3.5581268417	 0.134626
H	-0.8579185521	-2.9095022438	-4.3259588098	 0.137206
H	 0.8562987559	-2.5310395906	-4.5514699114	 0.12686
H	 0.3548656286	 0.0705989617	-3.315312911	 0.088771
H	-1.910984686	-0.7166780777	-1.8824443971	 0.291222
