21
gdb 115601	3.25973	0.99315	0.91055	3.0949	74.99	-0.2427	0.053	0.2956	1385.0954	0.180398	-461.341805	-461.331666	-461.330721	-461.377025	37.071	
C	-0.0475539086	 1.5190993709	-0.333219573	-0.389703
C	 0.0281140826	 0.0051649759	-0.1164901132	-0.178743
C	-1.3176740936	-0.5727597104	 0.291433313	 0.085015
O	-2.3374358357	-0.4124309461	-0.7291030605	-0.296714
C	-2.3812901259	-1.8320773865	-0.9859146357	-0.126306
C	-1.4737081458	-2.1126965685	 0.2382782402	 0.353869
O	-0.2814164716	-2.8158306708	 0.0019511538	-0.480428
C	-2.1935667197	-2.6978314275	 1.4439204609	-0.148666
O	-2.3572363002	-4.0882945573	 1.1763418547	-0.437305
H	 0.9151654384	 1.9184898023	-0.6655362199	 0.109956
H	-0.7981930551	 1.7578683709	-1.0919298083	 0.135285
H	-0.3259182769	 2.0408648225	 0.5896233807	 0.108301
H	 0.3706943811	-0.4952916028	-1.0276948102	 0.110744
H	 0.7582463418	-0.2398868926	 0.6644654878	 0.099593
H	-1.6520813068	-0.1154142602	 1.2355138156	 0.06225
H	-3.4024299938	-2.2284732143	-0.9583679569	 0.101039
H	-1.9054915035	-2.0993700976	-1.937153203	 0.102224
H	-0.4810776891	-3.7433883994	 0.1855317443	 0.288917
H	-1.5768693456	-2.5373303143	 2.3410387456	 0.097801
H	-3.1604923996	-2.1963243209	 1.591188216	 0.105279
H	-2.6419878522	-4.5297466433	 1.9811269681	 0.297593
