13
gdb 20527	5.00405	1.744	1.30361	1.1199	61.11	-0.2761	-0.0641	0.212	869.3625	0.095934	-394.80756	-394.800634	-394.799689	-394.839182	24.407	
C	-0.0218107546	 1.496619229	-0.0571637992	-0.4863
C	-0.0256201143	-0.0016022255	 0.0714515491	 0.434033
O	-0.0476749307	-0.6216729492	 1.1016037272	-0.296144
N	-0.0020936633	-0.7165860008	-1.1641582703	-0.013384
C	-0.0007651711	-2.0710216233	-1.3342297815	-0.067409
C	 0.0259929603	-2.235565232	-2.6883846655	-0.069576
N	 0.0397019135	-0.9980812797	-3.2857963883	-0.17662
N	 0.0227425623	-0.0850012229	-2.3746229799	-0.133494
H	 0.8657615321	 1.8310609339	-0.6004304935	 0.170914
H	-0.8869676879	 1.8325391923	-0.6346406075	 0.170959
H	-0.0410808412	 1.9243016243	 0.9444943118	 0.151262
H	-0.0184472795	-2.7433347763	-0.4950533578	 0.176046
H	 0.0363225343	-3.1415917798	-3.2715009144	 0.139714
