16
gdb 132498	3.10268	1.31824	0.9315	4.4139	75.65	-0.2114	-0.0199	0.1915	1180.1176	0.125037	-442.104207	-442.096235	-442.095291	-442.136461	30.659	
C	-0.0009042857	 1.5250083264	-0.0046059464	-0.514039
C	 0.0054282252	 0.0212133812	-0.0140240404	 0.292035
C	-0.0417170741	-0.702764324	-1.1987319804	-0.353856
C	-0.0130035889	-2.0917491903	-1.1325893557	 0.33163
F	-0.0561797792	-2.7858780708	-2.2729650702	-0.082242
N	 0.0522660279	-2.7863914911	-0.0240220833	-0.325211
C	 0.0888775815	-2.0958896093	 1.1196166702	-0.056705
C	 0.0719896579	-0.7024206972	 1.1952624259	 0.189408
N	 0.1896643545	-0.0407503238	 2.4242054471	-0.593936
H	 0.8563268426	 1.9162326191	 0.5553781572	 0.146623
H	 0.0347031585	 1.9285435765	-1.0186722472	 0.134014
H	-0.9050974803	 1.9225199519	 0.4763126877	 0.129733
H	-0.0936297962	-0.2056836548	-2.1604240806	 0.106958
H	 0.139696883	-2.6844352893	 2.0342226738	 0.099556
H	 0.0029471922	-0.6326199696	 3.2222282092	 0.248178
H	-0.3374034591	 0.818738275	 2.492546443	 0.247853
