12
gdb 131021	5.36361	1.11412	0.9225	1.7315	70.66	-0.2591	-0.0988	0.1602	1136.6298	0.078147	-468.808901	-468.80194	-468.800996	-468.840739	25.191	
O	-0.1457232445	-0.0433646887	-0.0006065546	-0.235582
C	-0.0650123571	 1.1448446548	 0.0081235128	 0.209507
N	 1.1719999387	 1.8607112849	 0.0000730587	 0.03774
N	 2.317860277	 1.1593490219	-0.0185123634	-0.143901
C	 3.4206215966	 1.8375048002	-0.0253821998	-0.04664
C	 3.4848631374	 3.3049039993	-0.014249068	 0.291025
O	 4.5199581554	 3.948156259	-0.0204716625	-0.342195
C	 2.1422439568	 3.8979948912	 0.005792131	-0.051371
N	 1.0508888504	 3.2020572192	 0.0124031116	-0.17035
H	-0.8943989683	 1.8678996643	 0.023285421	 0.135621
H	 4.3439186274	 1.2652453518	-0.0404058154	 0.159118
H	 2.0350610001	 4.9787855021	 0.0158472587	 0.157026
