23
gdb 57464	2.3733	1.32995	1.07407	2.5331	85.69	-0.2362	-0.018	0.2182	1261.9997	0.203138	-388.313866	-388.303714	-388.30277	-388.348536	38.661	
C	-0.1885353209	 1.5976962557	 0.0922273599	-0.42763
C	-0.0519965435	 0.0639915431	 0.0398325266	 0.243779
C	 0.7793008801	-0.4112286603	 1.2475592203	-0.413392
C	-1.4490753223	-0.5808520072	 0.0836160477	-0.405304
C	 0.6687305761	-0.3887772769	-1.2477240455	-0.084812
C	 0.1386249863	-0.0356312269	-2.6783299579	-0.27097
C	 1.5821779427	 0.3322812095	-3.1356756297	-0.333486
C	 1.9999169756	 0.2714562822	-1.6582444773	 0.38852
O	 2.9481052974	 0.6795430054	-1.0482712237	-0.307183
H	 0.7909459774	 2.0842892541	 0.0699018294	 0.131995
H	-0.7828296927	 1.9845700848	-0.7423869223	 0.107645
H	-0.6919484954	 1.9014992093	 1.0160002846	 0.11188
H	 0.3108643934	-0.0968334001	 2.1865975385	 0.105095
H	 0.8588913279	-1.5042035577	 1.2648835905	 0.103266
H	 1.7909525699	 0.001243082	 1.2099282184	 0.143315
H	-2.0661866793	-0.2617415013	-0.7631888739	 0.111138
H	-1.3823059154	-1.6742487661	 0.0576920945	 0.107035
H	-1.9749503409	-0.3003342913	 1.0028849646	 0.111313
H	 0.8413206527	-1.4728496538	-1.1868371535	 0.095784
H	-0.3456050182	-0.8487981822	-3.2199350601	 0.107386
H	-0.525474325	 0.8309274457	-2.6802180324	 0.115111
H	 2.0696036196	-0.4495061357	-3.7272191573	 0.131126
H	 1.7375048647	 1.2914191277	-3.6360270417	 0.128389
