16
gdb 26692	2.30704	1.61138	0.95929	1.9525	69.8	-0.1873	0.0329	0.2203	1175.4841	0.1231	-475.044136	-475.034776	-475.033832	-475.077778	34.23	
C	 0.1634027869	 1.4757816272	 0.1475065993	-0.496511
C	-0.0258847541	 0.0085590018	 0.0343277831	 0.260053
C	-1.1292948046	-0.7636111799	-0.1716748346	 0.15949
O	-2.410437036	-0.3298179677	-0.333631622	-0.457361
C	-0.683270354	-2.1230614966	-0.1851046572	 0.168465
O	-1.5178550716	-3.1808010715	-0.3686363578	-0.463647
C	 0.6601303713	-2.1050551388	 0.0125397958	 0.151617
N	 1.5511955746	-3.1765762742	 0.0802681632	-0.611942
O	 1.0787939784	-0.8000276015	 0.1492414369	-0.217337
H	 0.8389968594	 1.8619538907	-0.6252947299	 0.130314
H	-0.8033861786	 1.9718694502	 0.0337349275	 0.144854
H	 0.5813281717	 1.7607937599	 1.1206452682	 0.130324
H	-2.96587453	-1.1063274726	-0.4632159525	 0.306269
H	-0.9746252045	-3.9786882102	-0.3369366241	 0.301791
H	 2.0245755069	-3.2417584048	 0.9768986765	 0.246814
H	 2.262214274	-3.146522132	-0.6448735923	 0.246806
