18
gdb 64733	3.14434	1.17816	1.08251	3.233	76.35	-0.2546	0.0104	0.265	1166.9397	0.147649	-401.977836	-401.969324	-401.968379	-402.011146	32.388	
O	 0.1085687924	 1.535918929	-0.2788056634	-0.47959
C	-0.0040428165	 0.169532393	 0.0679244245	 0.400686
C	 0.7315945644	-0.7049675653	-0.9874330208	-0.372416
C	 2.147802731	-0.3600297441	-1.0755320341	 0.243987
N	 3.2566755887	-0.0341355818	-1.1128744064	-0.311678
C	 0.5010497125	-0.1633413434	 1.5046434451	-0.325486
C	-0.5316997533	-1.1306876273	 2.0255726376	-0.05798
C	-1.6195709288	-1.1577096838	 1.2564443664	-0.066433
C	-1.5058702255	-0.2159311972	 0.084640045	-0.305473
H	 1.0419790282	 1.780431829	-0.264760601	 0.292403
H	 0.6283251874	-1.7656497475	-0.7344311545	 0.155706
H	 0.2710647656	-0.5442941483	-1.9674099664	 0.156022
H	 1.5222677148	-0.5616555584	 1.512420708	 0.117724
H	 0.5177223533	 0.7588148593	 2.1001909662	 0.12115
H	-0.3929240862	-1.6976582283	 2.9391182148	 0.099878
H	-2.5081285342	-1.7494989776	 1.4442684435	 0.099064
H	-2.1019492671	 0.6928535168	 0.2337651097	 0.129745
H	-1.8359442567	-0.6548479941	-0.864137154	 0.102694
