21
gdb 65569	3.10741	1.01069	0.92268	0.8448	78.25	-0.2497	0.0626	0.3123	1365.5443	0.181615	-424.186209	-424.177023	-424.176079	-424.220598	34.629	
O	-0.0694183474	 1.4949194214	-0.042193656	-0.474369
C	 0.0023436827	 0.0896661241	-0.0040446844	 0.340969
C	-1.4318910384	-0.4321996688	 0.0371207492	-0.245321
C	-2.2650146501	-0.0283220518	-1.161248501	 0.031697
C	-2.3879790936	-0.929209398	-2.3681973486	-0.25889
C	-3.5672510165	-0.7290808793	-1.4486962416	-0.28185
C	 0.9424342378	-0.6171907399	-1.0181417089	-0.128122
O	 1.5594848487	-1.3761338777	 0.0402850714	-0.271569
C	 0.9390656285	-0.5572146989	 1.0503090134	-0.131009
H	 0.825032554	 1.8465355869	-0.1032074058	 0.280021
H	-1.4026372317	-1.5248612527	 0.1257253436	 0.102492
H	-1.8934250908	-0.0487653703	 0.9567817825	 0.106265
H	-2.2437604959	 1.0370695992	-1.3655194395	 0.100916
H	-2.4162095864	-0.4761357887	-3.3531062124	 0.111055
H	-1.8909434506	-1.8937283094	-2.3396153902	 0.109775
H	-3.8504985006	-1.5569064413	-0.8061590585	 0.10876
H	-4.4046324385	-0.1374436268	-1.8016989848	 0.111097
H	 0.4923112921	-1.2558447359	-1.7837164937	 0.114079
H	 1.6518213076	 0.0745879228	-1.4992671583	 0.083786
H	 1.6451546546	 0.1594444832	 1.4975598958	 0.084823
H	 0.4784239746	-1.1525302881	 1.8470730979	 0.105394
