19
gdb 39541	3.37402	1.52993	1.10732	0.8576	86.22	-0.2106	-0.013	0.1976	1096.8374	0.162436	-385.913475	-385.906361	-385.905417	-385.944849	28.922	
C	-0.0510602148	 1.5400889964	 0.0553093989	-0.314955
C	 1.4220476839	 1.8896732259	-0.0025643508	-0.082005
C	 2.2003283786	 0.8416845851	 0.3133285727	-0.157711
C	 1.3754032941	-0.3267868862	 0.6016529213	 0.315056
C	 1.6047314526	-1.4325632357	 1.3123656084	-0.224082
C	 0.4732414447	-2.3713006682	 1.6496759994	-0.254806
C	-0.8241645717	-2.0018818912	 0.9076255794	-0.081691
O	-1.0379894067	-0.5981494013	 0.8326000467	-0.259007
C	-0.0116974448	-0.0004827225	 0.0715010378	 0.06248
H	-0.5069087718	 1.9096166811	 0.9838158134	 0.125363
H	-0.6340436178	 1.9468088962	-0.7764355786	 0.106749
H	 1.7779061578	 2.8885635919	-0.226547049	 0.099672
H	 3.2804838897	 0.8597228883	 0.4015605794	 0.098086
H	 2.5828446548	-1.6356353321	 1.7418791526	 0.081437
H	 0.7334087695	-3.4111676129	 1.4100429869	 0.104197
H	 0.3062928434	-2.3485756235	 2.7364157341	 0.113628
H	-0.7966442815	-2.4223413667	-0.1115959681	 0.08866
H	-1.6960363655	-2.4194197881	 1.4181740834	 0.105288
H	-0.0799267346	-0.3578259165	-0.9729669377	 0.073639
