21
gdb 77670	2.19218	1.58285	1.33603	1.5738	78.25	-0.2382	0.066	0.3043	1098.3273	0.181619	-424.221023	-424.211649	-424.210705	-424.254346	35.714	
C	-0.0516508566	 1.5912898055	-0.0695318642	-0.487386
C	 0.0742794032	 0.0893143155	-0.0159230755	 0.227832
C	 0.4829019011	-0.6477119872	-1.2827197275	-0.138518
O	 0.9171907087	-1.9407532324	-0.8745351169	-0.256976
C	 1.4799614628	-1.8260763047	 0.4277327329	-0.137641
C	 0.7362747483	-0.6924826253	 1.11718481	 0.209233
C	 1.3446790711	-0.0685297857	 2.3471435962	-0.497797
C	-0.769533702	-0.7403511221	 0.9169942524	 0.017552
O	-1.5942091819	-0.0212156739	 1.7907125065	-0.432269
H	 0.9037100869	 2.0592253065	-0.3328632582	 0.112844
H	-0.7872141509	 1.8921952131	-0.8246588278	 0.120708
H	-0.3857555477	 1.9952633613	 0.8872623703	 0.138983
H	-0.3343831089	-0.7904593227	-1.9988839256	 0.106032
H	 1.2922515228	-0.094033814	-1.7886985289	 0.086322
H	 1.3650651679	-2.8005125618	 0.9174359593	 0.100946
H	 2.5577034147	-1.5918314144	 0.3808334417	 0.085637
H	 2.3145681989	 0.3906427614	 2.1248923	 0.119852
H	 0.6911412562	 0.7014797821	 2.7629751081	 0.131409
H	 1.5112790043	-0.8199542942	 3.1291154316	 0.114208
H	-1.2057434017	-1.6620594444	 0.5277222212	 0.090642
H	-1.6792299271	-0.5280258127	 2.6050332146	 0.288388
