27
gdb 59988	2.23231	0.97297	0.81105	0.1304	96.1	-0.2702	0.0825	0.3527	1628.59	0.250434	-353.558447	-353.547225	-353.546281	-353.594806	42.17	
C	-2.1997170176	 1.6875487419	-1.1546585115	-0.386662
C	-1.8127568927	 0.2219736464	-1.4003217012	 0.036115
C	-0.6154771076	 0.142012748	-2.3583569272	-0.383191
C	-1.5387070497	-0.4848934705	-0.0593470567	-0.167509
C	-1.3467247893	-2.0154423894	-0.0921821041	-0.008463
C	-0.9179218476	-2.5175714834	 1.2965525068	-0.391949
C	-2.5987389676	-2.7445390513	-0.5545341263	 0.058313
C	-2.8515393001	-3.0685783063	-2.0068950279	-0.272596
C	-2.5243592672	-4.1729576098	-1.0330161839	-0.283505
H	-2.4213677998	 2.2036983042	-2.0949161738	 0.10596
H	-3.0836148587	 1.7652397358	-0.5126699765	 0.106825
H	-1.3837485293	 2.2315698088	-0.6631273229	 0.108777
H	-2.6662195809	-0.2736131622	-1.8795581627	 0.082122
H	-0.3451650817	-0.889971829	-2.600799562	 0.111488
H	-0.833026695	 0.6542249288	-3.301667584	 0.107745
H	 0.2680682972	 0.621057716	-1.9184005539	 0.108153
H	-0.646939866	-0.0301329988	 0.3958770302	 0.081468
H	-2.3674619947	-0.2648499635	 0.628996762	 0.082692
H	-0.5387076647	-2.2567355936	-0.7968865349	 0.065745
H	-0.7546883144	-3.5994510188	 1.2934626549	 0.111474
H	 0.0077002116	-2.0336053279	 1.6257320416	 0.106403
H	-1.689373038	-2.3005750182	 2.04523519	 0.109127
H	-3.4845230811	-2.4966421234	 0.0284976157	 0.074992
H	-3.8652046543	-2.9968176391	-2.3864129015	 0.10808
H	-2.0903300811	-2.7953482544	-2.730261646	 0.112335
H	-1.5426489079	-4.6311428245	-1.1046264725	 0.10835
H	-3.3119676817	-4.8608395361	-0.7457328317	 0.107713
