15
gdb 4354	3.79223	1.96544	1.30571	3.132	71.21	-0.2321	-0.0153	0.2168	905.9927	0.120918	-358.920358	-358.913004	-358.91206	-358.952538	27.235	
C	-0.0180131926	 1.4734480332	 0.0300484152	-0.457841
C	-0.0024158608	-0.0306474501	-0.0071629235	 0.353687
N	-0.0867356476	-0.6171353405	-1.2050157373	-0.303975
C	-0.0656911498	-1.9585424219	-1.1947313875	 0.01441
C	 0.0374375055	-2.7108349048	-0.0443301044	-0.20177
C	 0.1191966489	-1.9903469236	 1.1615560814	 0.389556
N	 0.2661887843	-2.6119032104	 2.3715998565	-0.56644
N	 0.0943945525	-0.6533411714	 1.1736281693	-0.346705
H	 0.9227028177	 1.8507328352	 0.4446973686	 0.135929
H	-0.1571607515	 1.874473613	-0.9738886641	 0.13429
H	-0.8189804566	 1.8294272083	 0.6852441635	 0.133677
H	-0.136267426	-2.4461127584	-2.1650105114	 0.108449
H	 0.0572359666	-3.7941788761	-0.0675035169	 0.090656
H	-0.0023270543	-3.5778151724	 2.4553755374	 0.256323
H	 0.1088862037	-2.0302710601	 3.1795945532	 0.259754
