17
gdb 84337	2.68121	1.34984	1.07553	2.6074	79.99	-0.2404	-0.0252	0.2153	1163.6609	0.13408	-384.685077	-384.676305	-384.675361	-384.719166	32.62	
C	-0.2874550043	 1.5725068606	-0.0421745698	-0.393892
C	-0.0149318837	 0.0603361375	-0.0345899964	-0.147232
C	 0.7806227793	-0.4714886529	-1.1976553237	-0.078949
C	 1.8552307827	-1.1689022331	-0.8324080084	-0.079725
C	 2.0056669606	-1.2684629332	 0.6720963648	-0.332742
C	 3.3053333944	-0.8670408785	 1.1889452386	 0.341246
C	 4.3808038702	-0.5232355675	 1.5996194859	-0.461864
C	 0.832691705	-0.3665190736	 1.1779466519	 0.391303
O	 0.6369758709	-0.0532650114	 2.3179055358	-0.299777
H	 0.6438267538	 2.135910885	-0.1537033581	 0.128318
H	-0.951858194	 1.8438034798	-0.8677552565	 0.117993
H	-0.7578507236	 1.8696830085	 0.8984699703	 0.142317
H	-0.9813812848	-0.4601237712	 0.0498097276	 0.113709
H	 0.4865228816	-0.2891284868	-2.225523392	 0.106179
H	 2.5684033494	-1.6320218745	-1.5030015062	 0.115118
H	 1.7879778207	-2.2907298702	 1.0207646305	 0.137793
H	 5.3280705317	-0.2208842686	 1.9722123357	 0.200204
