20
gdb 83745	2.80995	1.55663	1.3764	0.6324	79.32	-0.2148	0.0877	0.3024	1042.2395	0.171417	-403.103022	-403.094957	-403.094013	-403.135305	31.888	
C	-0.3082076565	 1.4752455972	-0.0009426263	-0.327841
N	 0.0386785254	 0.0587472729	 0.0633256962	-0.101613
C	 1.3521454693	-0.4424189477	-0.3076605144	-0.053027
C	 2.539047166	 0.5056538235	-0.3141325069	-0.122884
O	 2.5098461963	 1.1981404979	 0.9351495565	-0.29852
C	 1.8030960612	 0.4123679269	 1.8741784839	 0.461053
C	 2.5204212006	-0.0563192856	 3.1142661625	-0.33927
C	 1.495604042	 1.064067991	 3.1839355541	-0.331974
C	 0.8835859038	-0.4961303895	 1.1116062221	-0.134335
H	 0.4946999639	 2.1636138333	 0.2872145286	 0.132895
H	-0.6215712332	 1.7049943362	-1.024479102	 0.118315
H	-1.167500648	 1.6479925714	 0.6546015576	 0.121234
H	 1.3780232504	-1.303607535	-0.970360138	 0.093577
H	 3.4684837059	-0.0737075885	-0.4292041873	 0.10089
H	 2.507446529	 1.2626853535	-1.105658395	 0.110833
H	 2.2662023368	-1.0235801392	 3.535762136	 0.112085
H	 3.564003078	 0.2233469436	 3.202776781	 0.121844
H	 1.8698058637	 2.0717271628	 3.3260371559	 0.125885
H	 0.5358580715	 0.8649661684	 3.6482794957	 0.117966
H	 0.5263819239	-1.398508723	 1.6003688799	 0.092886
