16
gdb 112385	2.84294	1.33871	1.03111	2.6994	67.42	-0.2707	-0.0199	0.2507	1150.4056	0.123858	-475.064521	-475.056158	-475.055213	-475.09822	30.065	
C	-0.2560507241	 1.2495385092	 0.0382188181	-0.246539
O	 0.1385310483	-0.1147366078	 0.0222629751	-0.251527
C	 0.803000474	-0.5151070587	-1.1597317431	 0.032207
C	 1.3335079882	-1.9276967332	-0.9360364493	-0.385119
C	 0.266368877	-2.8283246642	-1.5344711313	 0.432973
O	 0.0983025335	-3.9990078401	-1.4153662347	-0.302453
O	-0.5544443001	-2.0559572804	-2.3486594173	-0.218416
C	-0.2006837446	-0.7206062292	-2.2911076353	 0.406043
N	-0.6788849036	 0.1757886195	-3.0319427457	-0.513089
H	 0.6169698565	 1.9121193872	-0.0554146498	 0.111429
H	-0.9599571257	 1.482201626	-0.7682462741	 0.144204
H	-0.7339943242	 1.4199016664	 1.0049610356	 0.133133
H	 1.5665828755	 0.2163373586	-1.4502276862	 0.10178
H	 2.2691580395	-2.1055757847	-1.4753674074	 0.153863
H	 1.4915308698	-2.1533370236	 0.1185444995	 0.162553
H	-1.3701090802	-0.208253445	-3.679715344	 0.238958
