16
gdb 47199	2.67965	1.77684	1.161	3.8446	73.73	-0.2531	-0.0111	0.2421	1026.5809	0.124816	-437.872444	-437.864794	-437.86385	-437.90545	28.717	
N	-0.0114350476	 1.1192044333	 0.6718214894	-0.511191
C	 0.0011202966	 0.0135057187	 0.0588835438	 0.338476
O	 1.0843252695	-0.3787044519	-0.6677638519	-0.269006
C	 1.2856033392	-1.7201491202	-1.1168165341	-0.122948
C	 0.0626067317	-2.5738974069	-1.1455062382	-0.122545
C	-1.08756494	-2.1814182051	-0.6099772804	-0.099445
C	-1.2163772173	-0.8760494416	 0.0611716366	 0.300331
C	-2.2195984271	-0.676152615	 1.1285361825	-0.21407
O	-2.4643634196	-0.1911066235	-0.1819590225	-0.264654
H	 0.8768109425	 1.6061680201	 0.5440681565	 0.22393
H	 1.7165287104	-1.6364484355	-2.1221664331	 0.134033
H	 2.0592556959	-2.1778585398	-0.4812773326	 0.127838
H	 0.1665739972	-3.5417015716	-1.6267553664	 0.111387
H	-1.9803559728	-2.7969230077	-0.6487661118	 0.110473
H	-2.8303588731	-1.5232353948	 1.4415460151	 0.109448
H	-2.0156230755	 0.0863461015	 1.875827947	 0.147943
