22
gdb 118258	3.05762	0.76444	0.67291	2.3685	84.44	-0.2464	0.0256	0.2721	1769.6966	0.190581	-441.470385	-441.459109	-441.458165	-441.507958	38.719	
C	 0.1417145135	 0.6379286992	 0.8246814805	-0.240976
O	-0.3941175406	 0.2376329288	-0.4263495894	-0.237
C	-1.4918188413	-0.6408511872	-0.3505710558	-0.080906
C	-1.1151246863	-2.1205818895	-0.2195975189	 0.101624
C	-0.0770113182	-2.5623206299	-1.2463509601	-0.387229
O	-0.6214375551	-2.3249699234	 1.1165958246	-0.218494
C	-0.7520137105	-3.560906683	 1.6363583676	 0.133679
N	-0.2212830799	-3.8587581362	 2.7366739961	-0.211003
C	-0.4489404984	-5.1949831612	 3.2447786728	-0.314462
H	 0.8993151637	 1.3959491664	 0.6104310189	 0.122013
H	-0.6356728117	 1.0846655847	 1.4628109275	 0.104681
H	 0.5989790048	-0.1955285174	 1.3677737333	 0.139705
H	-2.1605356266	-0.3696525402	 0.4804168022	 0.097531
H	-2.0471892679	-0.5213260833	-1.2886517865	 0.106116
H	-2.0412405325	-2.7032853974	-0.3422512364	 0.079794
H	-0.46946054	-2.4380042296	-2.2606339567	 0.120199
H	 0.8255392178	-1.9556010989	-1.1507471783	 0.147291
H	 0.1848317049	-3.615031927	-1.1072549831	 0.11726
H	-1.3662933234	-4.2455690224	 1.0282091415	 0.071458
H	-0.9393177602	-5.1395059221	 4.2235806305	 0.127299
H	-1.0671120878	-5.8274176153	 2.585906259	 0.094147
H	 0.5122056058	-5.6983220149	 3.4002161306	 0.127272
