21
gdb 102583	2.47425	1.03677	0.82654	3.5265	74.8	-0.2432	0.0654	0.3086	1431.1131	0.181536	-461.331367	-461.321314	-461.32037	-461.366579	37.311	
O	 0.0275516303	 1.4242627395	 0.2483321899	-0.43763
C	-0.0482104013	 0.0160054319	 0.160219914	-0.05552
C	-1.465618435	-0.5017074943	-0.1409287134	-0.051258
C	-1.9488051478	-0.0758836249	-1.5367250219	-0.085161
O	-1.9389086032	 1.3436771936	-1.7361186496	-0.424393
C	-1.5266012575	-2.0140266599	-0.0248869748	-0.023029
C	-1.7610222159	-2.6740895932	 1.3217966785	-0.342113
C	-2.8284885241	-2.7084592945	 0.2576009413	 0.085377
O	-3.95758669	-1.8893312824	 0.380907435	-0.418731
H	-0.403993579	 1.7618041161	-0.5491450638	 0.282234
H	 0.6456321448	-0.3791778635	-0.6047686169	 0.073053
H	 0.2863066685	-0.3793102276	 1.12585088	 0.101198
H	-2.1482927588	-0.0663342261	 0.5991586583	 0.079164
H	-1.2756814069	-0.4765565863	-2.3038390984	 0.10908
H	-2.9504816573	-0.4825564676	-1.7224519295	 0.118334
H	-2.6288391347	 1.7181116339	-1.1775576003	 0.291013
H	-0.8571832659	-2.5417477513	-0.7010657712	 0.088049
H	-1.2307700006	-3.5885563256	 1.564465038	 0.113095
H	-1.9357211577	-2.0114301677	 2.1636199506	 0.118606
H	-3.0128525755	-3.6580349097	-0.244490428	 0.0879
H	-4.5159578122	-2.2518155204	 1.0763665521	 0.290731
