20
gdb 83793	2.59672	1.71011	1.45362	2.66	78.47	-0.2285	0.0682	0.2967	1006.6671	0.173305	-403.106091	-403.098408	-403.097464	-403.137896	30.922	
C	-0.2680356648	 1.5107481032	-0.2344091081	-0.406508
C	-0.0143178706	 0.0360656328	-0.0156600125	-0.051026
C	 1.3503574807	-0.5812924749	-0.1850266484	 0.060388
O	 2.4209698882	 0.2981082167	-0.374175899	-0.245587
C	 3.4241619283	 0.2329540569	 0.6296508664	-0.078752
C	 2.8758633828	 0.5197018524	 2.0143677952	-0.043419
N	 1.8592843071	 1.5780498288	 2.0783043551	-0.327085
C	 1.4519430441	 0.1688505909	 2.2658571728	-0.047071
C	 0.7060293454	-0.5639424859	 1.1837131735	-0.067225
H	 0.6085894625	 2.1032159668	 0.0196729353	 0.160566
H	-0.5288327538	 1.6910902153	-1.2834213888	 0.105142
H	-1.1057628136	 1.8563884754	 0.3810832379	 0.103585
H	-0.8201670082	-0.6040595411	-0.369310229	 0.080238
H	 1.4567331407	-1.5226910953	-0.724151593	 0.078644
H	 3.9144316376	-0.7550459444	 0.6354711161	 0.08721
H	 4.1707923127	 0.9806700965	 0.3438476088	 0.112881
H	 3.5941983378	 0.426730194	 2.8259989592	 0.083009
H	 1.8906944587	 2.042246123	 2.9818122921	 0.231197
H	 1.1820101754	-0.1275524621	 3.2761158134	 0.082135
H	 0.3040887489	-1.509425559	 1.537104213	 0.081677
