16
gdb 61360	3.49145	0.80335	0.77404	1.3399	74.55	-0.2518	-0.0541	0.1977	1485.0153	0.122049	-434.088153	-434.078173	-434.077229	-434.124847	33.852	
C	 0.0802277042	 1.6446238511	-0.4955213958	-0.406106
C	-0.074467188	 0.2344124161	 0.065818574	-0.055856
N	-1.4714241643	-0.1631632469	 0.1698601987	-0.328763
C	-1.976964001	-0.8187712724	 1.2555947798	 0.308461
N	-1.2560995894	-1.1716383539	 2.2531364971	-0.523916
C	-3.4085832956	-1.0689739469	 1.1731585468	 0.222906
N	-4.5436430916	-1.2865562283	 1.1408255065	-0.314147
C	 0.6929389458	-0.8113945445	-0.749630846	 0.151149
O	 1.543617646	-0.54858914	-1.5571121655	-0.231773
H	 1.1393476656	 1.8766894175	-0.6194157461	 0.152518
H	-0.3877055924	 1.7287310274	-1.4822078535	 0.125691
H	-0.3753168146	 2.3778815714	 0.1735477098	 0.130304
H	 0.3274091729	 0.1764059483	 1.085904804	 0.158249
H	-2.0939927371	 0.0569430476	-0.5900666529	 0.268806
H	-1.8138891681	-1.618947109	 2.9749175902	 0.245362
H	 0.3884999176	-1.8586460574	-0.5323303771	 0.097114
