17
gdb 70992	3.15967	1.64071	1.50159	2.573	73.1	-0.2272	0.0006	0.2278	930.0515	0.135146	-421.689502	-421.682304	-421.68136	-421.720555	29.759	
O	-0.0816256588	 1.4634380336	-0.0969848025	-0.481438
C	 0.0075927538	 0.0855401762	-0.0337110078	 0.299903
C	 0.2900206072	-0.7241062269	 1.3804727007	-0.36941
C	-0.3567705085	-1.8681952934	 0.5060075902	 0.158085
C	-1.5646267078	-2.7906132942	 0.1936827983	-0.189572
O	-2.025726544	-1.790105943	-0.7935379976	-0.313601
C	-1.2922260385	-0.8019569161	 0.0043206619	 0.121612
C	 0.6729255261	-1.9552215536	-0.6389174686	-0.092338
C	 0.9200336248	-0.6926412844	-0.9758072563	-0.156828
H	 0.7920742017	 1.8282846818	-0.2719037613	 0.28734
H	 1.3403290877	-0.8330605255	 1.6583906016	 0.104403
H	-0.3151318969	-0.3623913544	 2.2149271659	 0.113513
H	-1.3524231808	-3.7511171103	-0.2846586791	 0.113673
H	-2.2976314855	-2.907341775	 1.0001574713	 0.109705
H	-1.9879948073	-0.3929510374	 0.7477343741	 0.088534
H	 1.0741704991	-2.8795481729	-1.0316690702	 0.102109
H	 1.5708007278	-0.2668162046	-1.7271648307	 0.104311
