25
gdb 122015	4.6169	0.54526	0.50825	0.2177	88.07	-0.2476	0.0881	0.3357	2285.6585	0.225351	-426.617136	-426.605048	-426.604104	-426.65616	41.442	
C	-0.0303883082	 1.8194094386	-0.4425327443	-0.382725
C	-0.2003219502	 0.3020156621	-0.3384710265	-0.17923
C	 0.8179646967	-0.4573846686	-1.1793063208	-0.038239
O	 0.5905004174	-1.8421275898	-1.0154434107	-0.266327
C	 1.3581949813	-2.6882213525	-1.8572846061	 0.120512
C	 2.818467587	-2.79924355	-1.4182814522	-0.401388
C	 0.6443020435	-4.0386544522	-1.8195457138	-0.06909
O	 1.2829814403	-4.9099010281	-2.7255174713	-0.234155
C	 0.707152825	-6.1928927136	-2.751091426	-0.223671
H	 0.9620326037	 2.1350322306	-0.1018121257	 0.115893
H	-0.1506533502	 2.165572467	-1.4751549805	 0.11566
H	-0.7716430815	 2.34110264	 0.1696543797	 0.116591
H	-0.0990784493	-0.0212662822	 0.7039859394	 0.105861
H	-1.2058968768	 0.0071902563	-0.6597236595	 0.103937
H	 0.719509556	-0.1792820569	-2.2432489387	 0.081263
H	 1.8388873297	-0.1820036747	-0.8688353747	 0.08632
H	 1.3176377371	-2.3150331448	-2.8942709459	 0.071494
H	 3.3275293373	-3.5504102152	-2.0270351423	 0.134757
H	 3.3488945351	-1.8495326611	-1.5296771034	 0.112105
H	 2.8715778192	-3.1037894554	-0.3675257133	 0.115947
H	 0.6744138852	-4.4437332158	-0.7937167543	 0.089799
H	-0.4142693235	-3.8944237054	-2.087160737	 0.090847
H	 0.7630772708	-6.6859656553	-1.7675250877	 0.104236
H	-0.350880858	-6.1599965031	-3.0561525214	 0.104131
H	 1.2652099925	-6.7890626499	-3.4773603927	 0.12547
