17
gdb 54797	2.60534	1.63171	1.09228	1.2306	76.09	-0.2412	-0.0126	0.2286	1098.238	0.135797	-418.013553	-418.00514	-418.004196	-418.047226	30.831	
C	-0.0816087328	 1.4292882118	-0.0128235361	-0.457273
C	-0.0232531132	-0.078246255	 0.0259729346	 0.314487
N	-0.1523867232	-0.843830489	 1.0373176058	-0.496561
N	 0.245097214	-0.6780250073	-1.2012729575	-0.117092
C	 0.2082634813	-2.1027257996	-1.5411592881	 0.021418
C	-1.0827489295	-2.4353242767	-2.206588617	-0.283795
C	 0.0190334941	-1.727394211	-3.0031479422	-0.228851
C	 0.0861682535	-0.2791922943	-2.5483671841	 0.426892
O	 0.0425481425	 0.8034732872	-3.0603608764	-0.358661
H	 0.8862592536	 1.8416644438	-0.3139459243	 0.153889
H	-0.8079484872	 1.7765857767	-0.7524713257	 0.159582
H	-0.3460966091	 1.8179642293	 0.9722956964	 0.121418
H	-0.317820982	-0.2930568705	 1.8782536154	 0.218686
H	 0.9022901689	-2.7975715399	-1.0928225669	 0.133702
H	-1.2318644595	-3.4755589643	-2.4814914275	 0.132116
H	-1.9867474114	-1.9020254447	-1.9302691116	 0.134897
H	 0.4662246501	-2.1453335466	-3.8924989047	 0.125146
