21
gdb 61231	2.86919	0.96065	0.79161	2.1759	84.99	-0.2498	0.0587	0.3085	1486.4692	0.179704	-387.041897	-387.031608	-387.030664	-387.077274	38.319	
C	-0.2643647176	 1.4260409162	 0.0962272394	-0.399186
C	 0.0272733979	-0.0690238398	-0.0767716283	 0.021177
C	 0.7932796216	-0.3656663909	-1.3930122951	-0.360851
C	 0.0844758144	 0.0588663474	-2.5941131536	 0.299617
C	-0.5181351821	 0.408007077	-3.5745582166	-0.448903
C	 0.8154470497	-0.6113546941	 1.1023936159	-0.007704
C	 0.0982791626	-1.0853214806	 2.3523603307	-0.34922
C	 0.7888910472	-2.0728537784	 1.4442502863	 0.084993
O	 0.0269537341	-2.8973352054	 0.6079722332	-0.416647
H	 0.6665290675	 2.0025061809	 0.161136427	 0.107054
H	-0.838676659	 1.8125260076	-0.7498508056	 0.128713
H	-0.8327963342	 1.6079491748	 1.0134633973	 0.111764
H	-0.9218933267	-0.6116365892	-0.1323854464	 0.092041
H	 1.7759383636	 0.1254718551	-1.3575241696	 0.117684
H	 0.9832095411	-1.4435511492	-1.4452471869	 0.147819
H	-1.0402705899	 0.712207434	-4.4473134667	 0.189217
H	 1.7702570955	-0.1135612497	 1.2614822604	 0.082781
H	 0.5269943663	-0.8758824191	 3.326441663	 0.110058
H	-0.986974777	-1.0772260052	 2.3210724788	 0.114802
H	 1.7145564785	-2.5243200267	 1.8015055368	 0.084998
H	-0.4037781637	-3.5632994446	 1.1534529399	 0.289792
