18
gdb 69069	2.58727	1.64358	1.21503	1.2616	84.2	-0.2251	0.0098	0.2348	1065.6903	0.146909	-364.769084	-364.760743	-364.759798	-364.801416	32.991	
C	-0.0454175162	 1.5622890032	-0.0079742138	-0.494947
C	 0.0922219673	 0.0636262306	-0.0185042559	 0.239042
N	-0.7243197917	-0.7713029301	 0.8996245368	-0.403105
C	 0.7600425641	-0.7466313073	 1.0681699293	 0.129873
C	 1.4529045923	-1.943573763	 0.4086181836	-0.329785
C	 1.1103605371	-1.7745360534	-1.0553038846	-0.082977
C	 0.3949001582	-0.6742425861	-1.2873255288	-0.09554
C	 1.3135596443	-0.1530797228	 2.245034652	 0.193121
C	 1.7826954635	 0.330514889	 3.2428956491	-0.402903
H	 0.7834874502	 2.0337057552	-0.5458577677	 0.130209
H	-0.9783586453	 1.8702913382	-0.4936764263	 0.126284
H	-0.0458184008	 1.9484615398	 1.015354102	 0.129382
H	-1.118232154	-0.1676491177	 1.6221468159	 0.227554
H	 2.5351335963	-1.9171093702	 0.5840029907	 0.118165
H	 1.0803844609	-2.8903372189	 0.8160885547	 0.126735
H	 1.4083250817	-2.4994663915	-1.8041262524	 0.100098
H	 0.0345471038	-0.3396110834	-2.2531627074	 0.099257
H	 2.1960720283	 0.7572896584	 4.1228991628	 0.189536
