16
gdb 126877	5.43351	0.87935	0.8085	2.8972	70.49	-0.2158	0.0302	0.246	1408.6489	0.123804	-471.197137	-471.188322	-471.187378	-471.231986	31.614	
C	-0.8430055287	 0.7507262905	-0.3483059581	-0.362827
C	 0.4756611099	 0.2958702085	 0.2854116032	-0.14016
N	 0.3748501529	-1.0586783115	 0.8209273708	-0.391109
C	 0.0857714929	-1.2139926342	 2.0339019892	 0.550976
N	-0.0529760311	-2.4308067997	 2.6987821134	-0.424485
C	-0.3345005631	-2.1501412467	 3.9972581403	 0.512585
O	-0.5023176295	-3.1399258968	 4.8710328403	-0.407877
N	-0.4165883477	-0.8901626917	 4.2617947974	-0.255981
O	-0.1567110021	-0.2594223797	 2.9950504134	-0.25979
H	-1.6319241295	 0.8227163946	 0.406835815	 0.121254
H	-0.7268065038	 1.7340246991	-0.8157854841	 0.108644
H	-1.1672773845	 0.0393423009	-1.1136226336	 0.120713
H	 1.2580113857	 0.283849857	-0.4816102023	 0.099837
H	 0.7848780362	 1.019296747	 1.0519042617	 0.107805
H	 0.0937830376	-3.3325327324	 2.2813424079	 0.292392
H	-0.6943860253	-2.7418430548	 5.7314352954	 0.328023
