18
gdb 79070	2.1921	2.01802	1.71265	2.1986	75.22	-0.2264	-0.0053	0.2211	920.777	0.147739	-401.900822	-401.893268	-401.892324	-401.932161	30.912	
C	-0.1085684563	 1.6065975899	-0.0801114216	-0.419857
C	 0.0816092466	 0.1080086702	 0.0402379942	 0.068233
N	 1.0315630324	-0.5525821512	-0.9047549911	-0.174266
C	 2.4571069026	-0.5716065253	-0.2951873632	-0.071946
C	 2.8125877933	 0.3448554876	 0.8147868319	-0.077384
C	 1.8687926105	 0.2873405841	 1.7644765523	-0.197182
C	 0.7531470501	-0.5983488895	 1.2796330594	 0.333762
O	-0.1542536021	-1.1036582455	 2.209852115	-0.496934
C	 1.4111071563	-1.5016719973	 0.1771509016	-0.119591
H	 0.8267731038	 2.1508510971	 0.0664974093	 0.11965
H	-0.4863935752	 1.8442848047	-1.0798920186	 0.125743
H	-0.8398928016	 1.9632383197	 0.6529898096	 0.120207
H	-0.8713254791	-0.4110901626	-0.1072436742	 0.101926
H	 3.1776591706	-0.8589549373	-1.0507722687	 0.099241
H	 3.6738657932	 1.0006355404	 0.794717459	 0.106015
H	 1.7781927448	 0.9236613629	 2.6370823737	 0.105451
H	 0.341992005	-1.4466758133	 2.9608484147	 0.281181
H	 1.3759601951	-2.5821504146	 0.0730579668	 0.09575
