21
gdb 91483	2.39407	1.59036	1.18779	2.8359	82.63	-0.2434	-0.0216	0.2218	1120.7343	0.183577	-387.096711	-387.088411	-387.087467	-387.129595	32.548	
C	-0.1464720495	 1.5191654411	-0.0020698797	-0.426567
C	 0.0501678534	 0.0035325712	 0.0250246651	-0.008161
C	 1.0107147775	-0.5544507754	-1.0837180444	-0.229699
C	 2.0134684041	-1.3202618543	-0.2014231577	-0.02198
C	 1.0746625052	-2.0398118947	 0.8090905854	-0.263785
C	 0.7870508393	-0.5864959163	 1.2699720071	 0.267794
C	 2.2921659137	-0.2930805971	 0.9318700078	-0.277304
C	 0.2420818745	-0.2790418208	 2.6230429077	 0.033027
O	-0.1419746046	-1.1080667843	 3.4127858106	-0.252804
H	 0.7980229486	 2.058866363	 0.1239702386	 0.11816
H	-0.571360308	 1.826849422	-0.9634487616	 0.120658
H	-0.8329080121	 1.8560576026	 0.7815951906	 0.119187
H	-0.9332478752	-0.4731835956	-0.0514276544	 0.082164
H	 0.4929671532	-1.2060047593	-1.7933333066	 0.099785
H	 1.4875016041	 0.2509852376	-1.6517962858	 0.096301
H	 2.8283769056	-1.8433251833	-0.7021920957	 0.064472
H	 0.2386073316	-2.6232093047	 0.4136734924	 0.094785
H	 1.6098508108	-2.6135943438	 1.5675840046	 0.109615
H	 2.9649901086	-0.680636544	 1.6998902188	 0.109478
H	 2.5794975281	 0.7248715926	 0.6563861075	 0.096625
H	 0.2200679411	 0.8047378636	 2.8856045498	 0.06825
