14
gdb 2422	4.44562	3.39205	2.48428	1.4736	56.94	-0.2351	0.0602	0.2954	581.4334	0.113398	-324.460752	-324.455096	-324.454152	-324.489828	22.282	
C	 0.0094173107	 1.4766360615	-0.0600565629	-0.53266
C	 0.0146685558	-0.0192923963	-0.0570201601	 0.309564
N	 0.604091798	-0.8784441671	-1.1428180768	-0.377163
C	 0.0828682368	-1.8851130186	-0.1625069901	-0.073817
C	 0.5039047436	-1.0112505885	 1.0502596601	 0.070291
O	-0.7858443158	-1.0897838408	 1.7229358239	-0.329479
C	-1.135471432	-1.0300110691	 0.3099367854	 0.039221
H	 1.0262439503	 1.8668901178	-0.1656518899	 0.136453
H	-0.594636732	 1.8706090059	-0.8845290425	 0.12341
H	-0.4129277929	 1.8445510185	 0.880331162	 0.140337
H	 0.0067624813	-0.854731255	-1.9738384859	 0.207436
H	 0.1653209254	-2.9637440591	-0.2939004652	 0.091599
H	 1.4167374739	-1.0148430631	 1.644119808	 0.102532
H	-2.1888074732	-1.0565765061	 0.0240965941	 0.092276
