17
gdb 85795	2.14686	1.40175	1.28736	0.8766	75.77	-0.2487	-0.0376	0.2112	1124.367	0.131486	-421.795974	-421.78633	-421.785386	-421.830505	34.826	
C	-0.6155983912	 1.310459308	-0.1241851521	-0.407347
C	 0.0138569418	-0.0701857068	-0.0359837482	 0.031511
O	 1.2353740496	-0.2055661019	-0.8060446316	-0.329256
C	 2.0801014491	-0.4997061893	 0.3473899262	 0.085421
C	 2.6967610586	-1.8943676141	 0.2729636501	-0.432828
C	 3.0623290375	 0.5432613221	 0.5949422215	 0.342792
C	 3.8646595327	 1.4085717847	 0.8245498447	-0.457443
C	 0.8010941983	-0.3957665275	 1.2366421137	 0.300679
O	 0.5599199184	-0.5331918054	 2.3932155041	-0.275165
H	 0.0992896649	 2.0836511949	 0.1688987302	 0.138166
H	-0.9398799706	 1.5071018711	-1.1500243588	 0.137376
H	-1.4882413305	 1.365486841	 0.5339402613	 0.135273
H	-0.7122631007	-0.8503166477	-0.303804336	 0.109073
H	 3.4096359426	-1.9384674485	-0.5544823095	 0.143816
H	 3.2222526577	-2.120927766	 1.2043405659	 0.145272
H	 1.9181066629	-2.6439877806	 0.1092047445	 0.126539
H	 4.5754120289	 2.1733102061	 1.0209448939	 0.206122
