19
gdb 104382	2.19359	1.50324	1.30953	2.9228	70.61	-0.2528	-0.0312	0.2216	1088.1265	0.159009	-460.192506	-460.183646	-460.182701	-460.226014	33.697	
O	 0.3153217291	 1.1818683111	 0.3872248049	-0.416319
C	 0.0078155294	-0.1845545678	 0.2749409356	-0.084506
C	-1.4795169581	-0.4018504781	-0.0955492821	 0.266685
O	-1.7415229252	 0.3598195149	-1.2558840155	-0.498321
C	-1.8237595737	-1.8963111869	-0.1881606228	-0.27202
C	-2.0183105422	-2.3368690007	 1.2882696854	-0.227222
C	-2.5921749675	-1.0972572272	 2.0214207951	-0.321567
C	-2.4039754045	 0.0498859185	 1.0394347302	 0.370237
O	-2.978798751	 1.1110087654	 1.0234264802	-0.336147
H	-0.0377359356	 1.5888932089	-0.4145637131	 0.284789
H	 0.6095823156	-0.6800928305	-0.5050594919	 0.09815
H	 0.2547793025	-0.652409371	 1.2332417471	 0.107469
H	-2.3718818205	 1.0433816642	-0.9747835579	 0.292171
H	-2.7552370755	-2.002855519	-0.7545951242	 0.115279
H	-1.0545740108	-2.4762017407	-0.7054810387	 0.108899
H	-2.6792049082	-3.2023821849	 1.3674891177	 0.114206
H	-1.0596247558	-2.6312607152	 1.724209289	 0.116018
H	-3.6589610637	-1.1833237468	 2.2479837219	 0.140912
H	-2.0888806044	-0.8781011641	 2.9685164792	 0.141288
