19
gdb 110125	2.237	1.20812	0.9499	0.9251	77.6	-0.2565	0.0316	0.2882	1290.902	0.157333	-422.965712	-422.955698	-422.954754	-423.001125	36.506	
O	 0.0005876092	 1.343020924	 0.5889442705	-0.4214
C	 0.0475811164	 0.1426225587	-0.1650849278	-0.088825
C	-1.3010256973	-0.546767174	-0.1932504278	-0.067368
C	-1.4935753457	-2.0344052018	-0.3161222493	-0.067367
C	-0.3641254348	-3.0376846366	-0.4279540484	-0.088836
O	-0.7294458082	-4.2929896456	 0.1220623661	-0.421388
C	-1.7801800786	-1.346310069	 1.020010296	-0.218052
C	-0.9096201458	-1.5515204878	 2.1415474964	 0.311743
C	-0.1818495358	-1.7235920756	 3.0865101121	-0.479461
H	-0.1607847585	 1.090148109	 1.5049159842	 0.288587
H	 0.3334352994	 0.4351032484	-1.1809771883	 0.114336
H	 0.8267762296	-0.5299673501	 0.2142869848	 0.100597
H	-2.0758440882	 0.066870383	-0.6447353111	 0.104242
H	-2.3887999603	-2.3509532713	-0.8444297623	 0.104249
H	-0.1397802589	-3.2242332769	-1.4834939339	 0.114347
H	 0.5515117858	-2.6548998415	 0.0395155555	 0.100617
H	-0.8412475811	-4.1595522402	 1.0700471155	 0.288583
H	-2.8273071328	-1.2325407679	 1.2836953588	 0.119864
H	 0.4541242757	-1.8748434448	 3.923676099	 0.205533
