14
gdb 42275	2.73897	1.46073	1.19345	5.0462	66.34	-0.2774	-0.0884	0.189	1026.7703	0.099777	-436.654168	-436.646332	-436.645388	-436.68761	27.942	
O	 0.5763294077	 1.288922077	 1.7677276735	-0.27192
C	-0.0204514862	 1.4000572385	 0.7245672008	 0.314787
C	 0.7026423776	 1.1993232312	-0.5497005076	 0.241241
N	 1.313462775	 1.0820172708	-1.5245156863	-0.318503
C	-1.486700758	 1.731254219	 0.6280888681	-0.131722
C	-2.0509219342	 2.5783831502	-0.5722319489	-0.300805
C	-2.9631343832	 1.3948284651	-0.9235173123	 0.044986
O	-2.1128321322	 0.2732091219	-1.1860063609	-0.219449
C	-2.4203098408	 0.574106092	 0.1700313574	-0.00136
H	-1.7945816433	 2.1257843336	 1.5979619743	 0.121346
H	-2.5816383749	 3.4640600288	-0.2187768417	 0.127115
H	-1.3430984221	 2.8574306569	-1.3552610254	 0.143743
H	-3.9409312601	 1.3935303904	-1.3881473758	 0.123048
H	-2.8477151853	-0.2096523355	 0.7834370347	 0.127493
