21
gdb 109913	2.20679	1.49512	1.06488	2.9746	79.02	-0.2512	0.0036	0.2547	1197.6966	0.183346	-424.231015	-424.221884	-424.22094	-424.264786	35.284	
C	-0.3130223499	 1.5523332184	-0.1525919179	-0.393186
C	-0.0157678414	 0.0447234246	-0.0375786041	-0.060899
C	 0.895483074	-0.423291746	-1.1487834446	-0.054341
C	 2.0652067561	-0.8905391676	-0.714512626	-0.120634
C	 2.1815042114	-0.8219043929	 0.7836758692	 0.070601
O	 3.2121624333	 0.0886145716	 1.2099158283	-0.440967
C	 0.7389404	-0.4383115294	 1.2471543381	-0.056614
C	 0.7358853755	 0.5141720027	 2.4490783587	-0.07892
O	 1.5094666366	 0.0094621948	 3.5224152533	-0.431003
H	 0.6026240992	 2.151931818	-0.1193549456	 0.108636
H	-0.8084694269	 1.7675652073	-1.105336574	 0.113933
H	-0.9739596508	 1.8968733036	 0.6483393576	 0.123721
H	-0.9806794743	-0.4747840142	-0.1025363094	 0.084881
H	 0.6046522377	-0.3459877799	-2.192443936	 0.098094
H	 2.8774126382	-1.2489905536	-1.3372632248	 0.099376
H	 2.489649554	-1.7731608992	 1.2272102646	 0.098766
H	 3.1226036063	 0.8944939271	 0.6891132453	 0.279852
H	 0.26675557	-1.3693612643	 1.5776952782	 0.087485
H	 1.0880347216	 1.5123515599	 2.151274218	 0.075846
H	-0.2850266695	 0.6364191306	 2.8269945655	 0.104238
H	 2.4227791188	 0.0400127786	 3.2092752555	 0.291136
