24
gdb 58251	2.46873	1.09573	0.92049	1.7278	85.51	-0.2233	0.0687	0.2919	1414.7968	0.215075	-405.516604	-405.505698	-405.504754	-405.552359	40.527	
C	-3.1815577595	 3.5005949765	-1.0076025297	-0.419338
C	-2.007113596	 2.5278324999	-0.9044461003	 0.143016
O	-0.9699283213	 3.0617114696	-0.0810474644	-0.436805
C	-2.40004611	 1.0905889791	-0.4704576112	-0.013085
C	-1.1971906953	 0.1499818718	-0.6492553805	-0.406159
C	-2.8967793312	 1.0511561932	 0.9674911703	 0.01547
C	-4.3242925578	 1.2887474753	 1.3398977172	-0.266378
N	-3.724629638	-0.0242824042	 1.5270014458	-0.092056
C	-4.2102832697	-1.1052486051	 0.6826046348	-0.314299
H	-2.8301791024	 4.469286755	-1.3738502773	 0.123287
H	-3.946820307	 3.1283498402	-1.6966436951	 0.114248
H	-3.658089089	 3.655455377	-0.0335106934	 0.118239
H	-1.5435306224	 2.4424140153	-1.8954894638	 0.082199
H	-1.373142223	 3.365626363	 0.7388395005	 0.282059
H	-3.2061525787	 0.7716525292	-1.1419031441	 0.067789
H	-0.3521906007	 0.5034978895	-0.051442582	 0.134228
H	-1.4343310284	-0.8712841945	-0.3397997586	 0.114193
H	-0.8765211109	 0.1206511346	-1.6961100218	 0.108147
H	-2.1370537086	 1.3736406515	 1.6802591124	 0.085423
H	-4.5917353149	 1.8325050478	 2.2433160328	 0.109463
H	-5.0320141486	 1.406507927	 0.5188924408	 0.102116
H	-4.4929057157	-0.8061428977	-0.3389983331	 0.100269
H	-3.4487608416	-1.8883423932	 0.6138194974	 0.125178
H	-5.0957823995	-1.5400140208	 1.1576812732	 0.122798
