21
gdb 52765	2.03682	1.06961	0.97631	1.6522	88.92	-0.2228	0.0425	0.2652	1430.4908	0.178585	-387.059127	-387.047846	-387.046902	-387.096817	39.715	
C	 0.1278532585	 1.5274624329	-0.0540244555	-0.500992
C	 0.0662537873	 0.0736903613	-0.009420611	 0.005724
C	 0.0095826458	-1.130831902	 0.0149772595	 0.08791
C	 0.0057107206	-2.5704373973	 0.0409230769	 0.192819
O	 1.0391028736	-3.1794827338	-0.6987880792	-0.450313
C	-0.4811504642	-3.3094017787	 1.2881981112	-0.084676
C	-0.9335093689	-2.5899950979	 2.5385366674	-0.415504
C	-1.2935976723	-3.3462189934	 0.0082049409	-0.058098
C	-2.6367872873	-2.670457982	-0.146902245	-0.415119
H	 0.7269940722	 1.8690335966	-0.9054399548	 0.15131
H	-0.8716450579	 1.9636366509	-0.1606472084	 0.149833
H	 0.5762882385	 1.9427069887	 0.8555517258	 0.146268
H	 1.8756283886	-2.8697038687	-0.3332899794	 0.27953
H	 0.0918900893	-4.2153965663	 1.4685298772	 0.089874
H	-1.387921414	-1.6230875529	 2.3115779583	 0.126874
H	-1.6662283716	-3.1876975771	 3.0923831316	 0.115551
H	-0.0854284955	-2.402346751	 3.2060113854	 0.116013
H	-1.189282006	-4.271773805	-0.5516616375	 0.099835
H	-2.6612996912	-1.690818993	 0.3355185918	 0.125522
H	-2.870813531	-2.5193430917	-1.2059258218	 0.12255
H	-3.4341012247	-3.2833318996	 0.2877012468	 0.115089
