20
gdb 111635	2.51981	1.45933	1.17772	1.3545	78.5	-0.2378	0.0175	0.2553	1156.4613	0.170918	-403.15503	-403.146221	-403.145276	-403.188779	33.125	
C	 0.2608873639	 1.422117193	 0.2349778466	-0.372352
C	-0.2500121161	 0.033374045	-0.1679237688	-0.211697
C	 0.5500973976	-0.5715563473	-1.3021740202	-0.086928
C	 1.928903139	-1.1558823043	-1.1379458713	 0.005869
O	 2.2943127607	-1.5728417586	 0.1743964093	-0.208871
C	 1.4228066307	-2.5696465186	 0.4799109438	 0.080756
N	 0.5625444147	-2.9235581665	-0.3859224144	-0.291583
C	 0.7675631169	-2.0635268908	-1.538689457	 0.283165
C	 0.5394999622	-2.6974751583	-2.885065348	-0.472312
H	 1.2956853441	 1.3686476483	 0.5877004427	 0.125686
H	 0.2314950358	 2.1193897802	-0.6095750335	 0.111105
H	-0.3486626567	 1.8472130948	 1.0384460107	 0.111978
H	-0.2362392991	-0.6295775948	 0.7017507707	 0.113858
H	-1.3002220829	 0.0975945752	-0.478317396	 0.10186
H	 0.4625004315	-0.0254888776	-2.2403318017	 0.08948
H	 2.7845021039	-0.8654801422	-1.7351690086	 0.107155
H	 1.5440132149	-2.9898183303	 1.4711253543	 0.141853
H	-0.5122126541	-2.9778277818	-3.0026178552	 0.132402
H	 0.800218904	-2.0063394877	-3.6920713578	 0.113107
H	 1.143886099	-3.6032056178	-2.9972125655	 0.12547
