18
gdb 23063	3.45346	1.07705	0.96048	1.6148	75.69	-0.2333	0.0024	0.2357	1258.3555	0.145343	-438.997757	-438.988632	-438.987688	-439.032996	33.112	
C	 0.1622463667	 1.4895233449	 0.0406714285	-0.482218
C	 0.0773721734	-0.0148985274	 0.0572213145	 0.236499
N	 0.0151593282	-0.7183722782	 1.1257031875	-0.186705
O	-0.0054710952	 0.0904767837	 2.2740856839	-0.39987
C	 0.0228800291	-0.7473524804	-1.2211293096	 0.217749
C	-1.2052653673	-1.5262899616	-1.7017700637	-0.332347
C	 0.1045429081	-2.2212647685	-1.5491999769	 0.059351
O	 0.9319126311	-1.9977708078	-2.6936659138	-0.2861
C	 0.9677743329	-0.5733286913	-2.4118518403	-0.135679
H	 0.9166352633	 1.837066919	 0.7512611174	 0.151217
H	 0.3985693519	 1.8644811029	-0.9572496025	 0.121906
H	-0.7919979177	 1.9265574882	 0.3558748548	 0.150194
H	-0.0092316418	-0.5635067574	 2.9807582021	 0.306487
H	-1.9287604719	-1.7106085638	-0.9146836028	 0.129376
H	-1.6102804585	-1.3586675011	-2.696559313	 0.114714
H	 0.3033738096	-3.086382336	-0.9290327549	 0.118599
H	 0.6221014855	 0.029542432	-3.260159298	 0.104769
H	 1.9793270026	-0.2653340372	-2.1227379933	 0.112058
