17
gdb 70564	2.6607	1.56875	1.17468	2.7769	68.1	-0.2298	-0.0189	0.2109	1049.6965	0.135176	-458.958367	-458.950463	-458.949519	-458.990733	30.904	
O	 0.0708765342	 1.215464724	 0.4780718606	-0.46478
C	 0.0329598667	-0.0633837261	-0.0842895583	 0.34888
C	-0.7458492554	-0.2743260867	-1.3675450454	-0.374557
C	-1.300883437	-0.7467461753	-0.0486322644	 0.055828
O	-1.2531229604	-2.1227183663	 0.1976195752	-0.247599
C	-0.5924682717	-2.4034619552	 1.4225143475	-0.175728
C	 0.838992158	-1.8554734131	 1.4594437331	 0.366169
O	 1.5875165084	-2.1092571043	 2.3698087439	-0.301395
C	 1.2046123435	-0.9824157291	 0.2636441737	-0.371255
H	 0.69279599	 1.7492928516	-0.029249285	 0.286635
H	-1.214798944	 0.5998546607	-1.8048996475	 0.121171
H	-0.4052776826	-1.0296620753	-2.0672668433	 0.124168
H	-2.1468062472	-0.2171194964	 0.387925635	 0.103337
H	-1.1434725606	-2.0001942145	 2.2865271023	 0.127514
H	-0.5577312696	-3.4913151638	 1.5293884997	 0.142598
H	 1.441153012	-1.6472157368	-0.575505348	 0.133087
H	 2.1024271757	-0.4095559634	 0.5044961708	 0.125927
