20
gdb 54194	2.86293	1.30057	1.2466	3.1839	78.23	-0.241	0.0317	0.2727	1126.4114	0.170326	-403.15626	-403.147031	-403.146086	-403.190317	35.118	
C	-0.1207373027	 1.5726280857	 0.1868963628	-0.451201
C	 0.0182955335	 0.0495338188	 0.064926907	 0.206599
C	 1.0888999634	-0.5093902155	-0.9506209055	-0.307498
C	 1.7664213161	-1.2584953766	 0.2024533375	-0.030497
C	 2.2032981496	-0.2946195042	 1.2663310285	-0.308373
C	 0.7545575373	-0.6869682865	 1.1973016115	-0.054997
C	-1.3758071102	-0.5556702764	-0.1419490803	 0.351686
N	-1.9143596081	-0.3628799846	-1.3842882495	-0.523252
O	-1.9890483733	-1.1200515109	 0.7436177138	-0.364871
H	 0.8472855347	 2.04100828	 0.3841079116	 0.118505
H	-0.5255878586	 2.0139280654	-0.7299885635	 0.109237
H	-0.7961463471	 1.8313598604	 1.0089511586	 0.133823
H	 0.6525034001	-1.1748461001	-1.6993644744	 0.10229
H	 1.7029074982	 0.2407041795	-1.4624974463	 0.091916
H	 2.1590743622	-2.2655853568	 0.1395510956	 0.086056
H	 2.7504158292	-0.7329151393	 2.0950782948	 0.113742
H	 2.5367408007	 0.7065753966	 1.0031883358	 0.101449
H	 0.2382902203	-1.1792435197	 2.0096894959	 0.107862
H	-1.3777524298	 0.0015421353	-2.1513487459	 0.25835
H	-2.8157628955	-0.768045751	-1.576177058	 0.259174
