19
gdb 73512	2.92097	1.7682	1.36092	3.8931	79.95	-0.2315	0.002	0.2336	992.734	0.160812	-382.013182	-382.005672	-382.004728	-382.044614	30.398	
C	-0.0382869323	 1.6227962691	-0.2121969538	-0.46133
C	-0.0559549295	 0.0989328282	-0.0700246667	 0.23164
C	 1.0828988781	-0.5464303564	-0.8982745977	-0.296939
C	 2.1748169522	-0.7301447948	 0.2065466805	-0.163984
N	 1.4043909	-1.1291511843	 1.421308536	-0.293348
C	 0.2624520261	-0.6173490152	 1.2357823973	 0.321643
N	-1.0373180324	-1.1251328048	 1.5828668965	-0.181971
C	-2.0388906054	-0.0513637256	 1.4029491978	-0.234358
C	-1.4381410109	-0.5600737349	 0.160517056	-0.106337
H	 0.9818430609	 2.0039174813	-0.1050276991	 0.130052
H	-0.3938046924	 1.9096097155	-1.2083118746	 0.123732
H	-0.6578393665	 2.1396070826	 0.5230908552	 0.11874
H	 0.7920228063	-1.5334830536	-1.2728052303	 0.112866
H	 1.4045146313	 0.0631908595	-1.7476799766	 0.096781
H	 2.8814733879	-1.5270078985	-0.0384010736	 0.114946
H	 2.7605889465	 0.1833711829	 0.3764143111	 0.105023
H	-3.0371145238	-0.3949399443	 1.6567012601	 0.135375
H	-1.8140964957	 0.9492312743	 1.758155419	 0.128719
H	-1.9576473703	-1.224745041	-0.520520687	 0.118751
