18
gdb 54634	3.90349	1.1327	0.94831	3.6725	80.6	-0.2303	-0.0465	0.1839	1242.7487	0.147639	-401.952941	-401.944698	-401.943754	-401.986192	30.909	
C	-0.0699982219	 1.5049687266	 0.0252784113	-0.488154
C	-0.0017683788	-0.0127719825	 0.0510094025	 0.290426
O	 0.0221149323	-0.628214895	 1.1009148164	-0.319411
C	 0.0313027801	-0.7053037666	-1.2550890904	 0.2022
C	 0.0223613436	-2.0436669591	-1.3883125934	-0.108749
N	 0.0736575328	-2.5197584799	-2.7216089611	-0.106252
C	-1.1797037673	-2.2017084082	-3.4611327032	-0.238895
C	-0.0175480536	-1.2841691645	-3.5494490891	-0.010498
C	 0.063068901	-0.062175215	-2.6353309648	-0.368139
H	 0.7934126422	 1.9214421112	-0.5066072481	 0.135884
H	-0.9649542941	 1.8434366759	-0.5098157758	 0.134134
H	-0.0891644948	 1.8853209203	 1.0468973065	 0.140324
H	-0.0140759619	-2.7621412962	-0.5794905146	 0.139426
H	-1.3986838097	-2.8708046185	-4.2873457321	 0.128518
H	-2.0354931751	-1.8998976023	-2.863644829	 0.12631
H	 0.576455841	-1.2947684589	-4.4573475957	 0.104808
H	-0.7554362447	 0.6493686541	-2.7972209419	 0.118559
H	 0.9953530391	 0.4882527286	-2.8136405672	 0.11951
