16
gdb 27345	2.06244	1.85012	0.98168	5.128	77.97	-0.219	-0.01	0.209	1159.7001	0.125667	-434.122077	-434.113856	-434.112912	-434.154704	31.186	
C	 0.096411773	 1.4579254745	-0.0012757948	-0.476741
C	-0.0517607542	-0.0242114837	-0.0244149784	 0.360302
C	-1.1763520956	-0.7406979721	-0.092786169	-0.216913
C	-1.1311511053	-2.2021172155	-0.1015378021	 0.328287
N	-2.2128576506	-2.8836937118	-0.165749868	-0.542713
N	 0.1467443039	-2.7840349063	-0.0299383469	-0.396369
C	 1.1702627488	-2.0182638188	 0.0190099966	 0.472219
N	 2.4461180282	-2.4954207925	 0.0245386657	-0.564238
O	 1.1785412463	-0.6538734064	 0.0333220069	-0.265336
H	 0.7003381302	 1.8005058457	-0.8489411938	 0.144767
H	-0.8825988198	 1.9370552084	-0.04888404	 0.14426
H	 0.6056425801	 1.7832618657	 0.9128871739	 0.142388
H	-2.1399694136	-0.2517536785	-0.1394427461	 0.117517
H	-1.9719764298	-3.8773822182	-0.1593477898	 0.208871
H	 2.5360749945	-3.4772347843	 0.2278266496	 0.275994
H	 3.1688590338	-1.8847894762	 0.3680964161	 0.267705
