20
gdb 102328	1.63949	1.50249	1.13402	3.8918	84.88	-0.2818	0.0147	0.2965	1250.8753	0.16804	-365.998676	-365.988102	-365.987157	-366.033823	38.555	
C	 0.1403048644	 1.5435902131	-0.0135205727	-0.409571
C	 0.0322040774	 0.0192094951	-0.0683534372	-0.191528
C	-1.4342014224	-0.5241837901	-0.0009675757	-0.117131
C	-2.1924317227	-0.0938204944	 1.2979250468	-0.192894
C	-1.5238379448	-0.5231718542	 2.6047642274	-0.41498
C	-2.1957505756	-0.0673362302	-1.1707669972	 0.340743
C	-2.8208721617	 0.3364535692	-2.1133521812	-0.442263
C	-1.3631414524	-2.0001881499	-0.0369336877	 0.294537
N	-1.2865999099	-3.153187046	-0.0348801554	-0.349939
H	 1.1821035657	 1.8455876945	-0.153766409	 0.124727
H	-0.4558169689	 2.0111286099	-0.802291085	 0.136926
H	-0.1911531638	 1.9454592383	 0.9484171087	 0.12413
H	 0.4744576026	-0.3521537118	-0.9974914413	 0.127049
H	 0.597939096	-0.4349445087	 0.7504987735	 0.121493
H	-2.3057099941	 0.9932128352	 1.2599238684	 0.119728
H	-3.201138227	-0.5132373446	 1.2392208434	 0.1274
H	-1.3699218521	-1.605970006	 2.6369233973	 0.146584
H	-0.554856373	-0.0372104281	 2.7522088764	 0.124511
H	-2.15954557	-0.250687237	 3.4520348751	 0.124488
H	-3.3754821177	 0.6779023757	-2.9526759746	 0.205991
