19
gdb 101410	3.05025	1.07464	0.94828	3.2014	71.16	-0.2757	0.0039	0.2796	1308.4136	0.158341	-460.191849	-460.182523	-460.181579	-460.226462	33.763	
C	-0.0487619939	 1.5345038358	 0.1453015417	-0.384487
C	-0.0081751253	 0.0104611379	 0.0125649842	-0.203995
C	 0.7140689884	-0.4610259537	-1.2560020762	 0.105304
O	 2.0506575671	 0.0244662721	-1.3321601079	-0.434733
C	 0.6912501122	-1.9894237082	-1.3877008823	-0.204377
C	 1.5054062331	-2.6432855356	-2.5199690857	-0.108173
O	 2.3438078324	-3.3319049026	-1.5295157232	-0.232826
C	 1.6907340664	-2.7323718557	-0.4908531143	 0.445055
O	 1.9471343724	-2.7986615825	 0.6710239851	-0.334701
H	 0.9599663339	 1.9552070614	 0.1271822977	 0.12783
H	-0.609730168	 1.9876647584	-0.6795992093	 0.115404
H	-0.5290352267	 1.833336317	 1.081283864	 0.11658
H	 0.4892650896	-0.4402598557	 0.8815334428	 0.124358
H	-1.0282279789	-0.393730926	 0.0039599334	 0.09932
H	 0.2159167322	-0.0329218812	-2.1357270595	 0.094408
H	 2.4907823528	-0.18883408	-0.4998690455	 0.294473
H	-0.3262547393	-2.3768755811	-1.2890380414	 0.114433
H	 0.9858584745	-3.3642401608	-3.1527108359	 0.123798
H	 2.1113003071	-1.9534959395	-3.1083600177	 0.142329
