23
gdb 120562	5.44129	0.56911	0.5536	1.8786	83.14	-0.2615	0.0764	0.3379	2027.8524	0.204653	-425.405546	-425.395009	-425.394065	-425.442067	37.971	
O	-0.0759252761	 1.4606328125	-0.0333237671	-0.42101
C	 0.0044746644	 0.0449243198	 0.0496721493	-0.070216
C	-1.3963133662	-0.520907036	-0.1485166777	-0.196818
C	-1.4447749778	-2.0400777828	-0.0690240781	 0.04081
C	-1.2249364689	-2.7407935387	 1.3056946433	-0.263304
C	-2.3426043643	-3.7502156101	 0.9287983021	 0.056825
C	-3.3145307675	-4.179991298	 2.0064428441	-0.096973
O	-4.3085488039	-4.9957526442	 1.401585788	-0.422594
C	-2.8244507946	-2.7505566556	-0.1571530475	-0.248145
H	 0.8055480065	 1.819958921	 0.1022138472	 0.283739
H	 0.6803318954	-0.36140136	-0.72132143	 0.08162
H	 0.4009322284	-0.2735121199	 1.0277667162	 0.086143
H	-2.0587974573	-0.085569291	 0.6105901161	 0.097316
H	-1.772730499	-0.1831221197	-1.122496727	 0.103172
H	-0.7616844064	-2.4716039352	-0.811302875	 0.066676
H	-0.2325959957	-3.1382707096	 1.5334654629	 0.093484
H	-1.5364618593	-2.0904155343	 2.1322220064	 0.093187
H	-1.9167356689	-4.6445623022	 0.4616703619	 0.077401
H	-2.7752994516	-4.7267963996	 2.7986673666	 0.081414
H	-3.7625483479	-3.2866466253	 2.4735881257	 0.077295
H	-4.9485906927	-5.2418074178	 2.0756580034	 0.285645
H	-3.6273604676	-2.1095510361	 0.2245793353	 0.09436
H	-3.1337200291	-3.1538685873	-1.1235782761	 0.099971
