17
gdb 40329	4.68076	1.35176	1.28571	1.8616	75.01	-0.2028	0.0638	0.2666	1008.0974	0.136079	-380.699721	-380.692834	-380.69189	-380.731272	27.487	
C	-0.2272140855	 1.1961397711	-0.3305683196	-0.235997
C	 1.1924751885	 1.1020829515	 0.1011390095	-0.229405
N	 0.3225740135	-0.0821091144	 0.1230603858	-0.195923
C	-0.0945485077	-0.5451807726	 1.3875181352	 0.39619
C	-1.4783750814	-1.003054109	 1.8528972252	-0.178658
C	-0.7992299998	-2.0475278981	 2.7715088079	-0.044247
C	 0.5474140231	-1.6070341437	 2.3222520525	-0.123502
N	-0.0740723452	-0.9720443101	 3.5384063285	-0.176797
C	-0.7288446595	 0.0663924165	 2.6286356757	-0.093152
H	-0.9119649398	 1.7239340174	 0.3299277209	 0.120455
H	-0.483604652	 1.2419952255	-1.3844877545	 0.123707
H	 1.9884542254	 1.0751114462	-0.6361958538	 0.122697
H	 1.4524141366	 1.5516604917	 1.0562378387	 0.123959
H	-2.4211820863	-0.9657061292	 1.3259550156	 0.098818
H	-1.139222878	-2.9656233396	 3.2366402581	 0.096509
H	 1.5187757036	-2.0861631271	 2.3492319137	 0.097237
H	-1.0058103752	 1.0670689439	 2.9373661507	 0.098108
