20
gdb 100404	2.56437	0.87413	0.82823	2.7726	79.8	-0.2375	-0.0199	0.2176	1524.7877	0.166621	-440.302879	-440.291783	-440.290839	-440.341054	37.543	
C	 0.2244265348	 1.4099050439	 0.0458459815	-0.227488
O	-0.020266737	 0.0050364304	-0.0154107474	-0.239322
C	 0.508474704	-0.6537477206	-1.0681865245	 0.412757
C	 0.1805263373	-2.1268669072	-0.9868560918	-0.49317
N	 1.1743427485	-0.0289120727	-1.9489950729	-0.318468
C	 1.7525438371	-0.7277339514	-3.0773047928	-0.050614
C	 1.0350268362	-0.3188571374	-4.3794402287	-0.389476
C	 3.2148648001	-0.3045193684	-3.1913440748	 0.170211
O	 4.1033123923	-1.0235723105	-3.5660699232	-0.253025
H	 1.2974593566	 1.6164789212	 0.0892639377	 0.133227
H	-0.1869369985	 1.9151213781	-0.8324085485	 0.133015
H	-0.2703644955	 1.7551220776	 0.9545916033	 0.126509
H	-0.4757454431	-2.3141615353	-0.1372576047	 0.145972
H	-0.3130551067	-2.4683849698	-1.9006236016	 0.146516
H	 1.0925303621	-2.718808977	-0.8631732055	 0.154009
H	 1.743204333	-1.8225424517	-2.9930784256	 0.084457
H	-0.0196850332	-0.6042701716	-4.3278555709	 0.121889
H	 1.0836582699	 0.765406044	-4.5185071679	 0.129345
H	 1.4932764796	-0.8108697544	-5.241960045	 0.131428
H	 3.3896170325	 0.7583329027	-2.9100578469	 0.08223
