11
gdb 488	25.27902	1.46993	1.41333	3.4446	52.71	-0.2821	0.0193	0.3014	773.7747	0.083685	-248.137789	-248.131277	-248.130333	-248.167922	22.093	
C	 0.0139641441	-1.209013414	-0.0043664245	-0.420814
C	-0.0231269519	-0.0082737704	 0.0024526212	 0.284768
C	-0.026790251	 1.4476883224	 0.010457537	-0.345809
C	 1.4150843433	 2.0196074202	-0.0010831179	-0.327748
C	 1.4242775406	 3.4802058207	 0.0070710508	 0.256184
N	 1.4102666456	 4.6355193332	 0.0132667559	-0.298876
H	 0.0279696567	-2.2709875859	-0.0101200379	 0.205457
H	-0.5719944186	 1.8302342299	-0.8595268284	 0.156351
H	-0.5541016138	 1.8206362826	 0.8955028078	 0.156353
H	 1.965854229	 1.6530724429	 0.8707455999	 0.167061
H	 1.947906446	 1.6627975984	-0.8879864039	 0.167075
