19
gdb 115526	2.65765	1.06033	1.04615	2.4275	77.63	-0.2509	0.0291	0.2801	1278.4579	0.156126	-422.964321	-422.954343	-422.953399	-422.999707	36.185	
C	-0.2739110607	 1.6218377125	 0.0231858499	-0.438518
C	-0.0132054108	 0.1176856465	 0.0719928145	 0.178439
O	 1.1697072042	-0.2293318662	-0.7030270804	-0.305624
C	 1.763618634	-0.9381865083	 0.4073900256	-0.078612
C	 0.6309425416	-0.5109877607	 1.3573126006	-0.062197
C	 1.0288536796	 0.4161332753	 2.4900979454	-0.110197
O	 1.7339117327	-0.3820442347	 3.4307294851	-0.422249
C	-1.1892262297	-0.6201677442	-0.3913812201	 0.347223
C	-2.1609752727	-1.2239517424	-0.7609086484	-0.48241
H	 0.6096806384	 2.1788966098	 0.3418296056	 0.120353
H	-0.5094130869	 1.9105652433	-1.0046582583	 0.13896
H	-1.1234099954	 1.8920017385	 0.6573000689	 0.126806
H	 1.832701312	-2.0147332416	 0.2144029861	 0.108424
H	 2.7598080586	-0.552685608	 0.6524601192	 0.10628
H	 0.0506497992	-1.3381481738	 1.7679488824	 0.099232
H	 1.6631047871	 1.2329505164	 2.1137586053	 0.092132
H	 0.1325050136	 0.8713047331	 2.9407065923	 0.093229
H	 2.0568226023	 0.1913043586	 4.1320049417	 0.289719
H	-3.0141913172	-1.761201884	-1.0948393154	 0.199012
