14
gdb 7206	4.4377	1.1156	0.90139	1.6456	69.88	-0.2447	-0.0921	0.1526	1251.687	0.102812	-382.546926	-382.537414	-382.536469	-382.58417	30.555	
C	 0.0254649076	 1.460064476	-0.0002502372	-0.506199
C	 0.0340462589	 0.010408803	 0.055350911	 0.150892
C	 0.0420529558	-1.1959802014	 0.101317658	 0.050974
C	 0.0336597368	-2.6322513295	 0.1606923475	 0.072861
O	-0.9442102714	-3.2959218916	 0.4401962519	-0.276547
C	 1.3806837896	-3.3290377026	-0.1601748123	 0.306697
C	 1.3571555698	-4.8355100583	-0.0942426139	-0.482341
O	 2.3522890709	-2.6699424905	-0.4377502196	-0.270251
H	 1.011663209	 1.8549863114	-0.2636726184	 0.166512
H	-0.6961390442	 1.8132970554	-0.7449687545	 0.166584
H	-0.266356313	 1.8818335111	 0.9677409261	 0.16652
H	 0.6090895093	-5.2299250708	-0.7891796038	 0.157141
H	 2.3455664181	-5.2275031102	-0.3343017222	 0.140011
H	 1.0467294528	-5.1626925621	 0.9030953273	 0.157146
