21
gdb 120686	2.42838	0.79806	0.63862	1.0512	89.96	-0.2294	0.0546	0.284	1815.1864	0.179917	-387.043732	-387.032858	-387.031914	-387.082253	37.174	
C	 0.174168925	 1.3361836937	-0.2298291055	-0.224042
O	 0.3011667478	-0.0629202368	-0.1715673366	-0.232441
C	 0.4229762864	-0.5433507995	 1.1529713927	-0.078367
C	 0.5035840303	-2.0444049161	 1.1108222755	-0.015749
C	 1.8136558031	-2.7262606532	 0.8491287174	-0.280788
C	 1.1897398331	-2.8135098679	 2.2346543631	-0.202512
C	 1.7871817627	-2.1432334315	 3.3554068127	 0.093374
C	 2.282286279	-1.6014607412	 4.3118650098	 0.049468
C	 2.8856482467	-0.949895875	 5.4657905102	-0.498231
H	 1.0524705104	 1.8468077658	 0.1975402679	 0.101254
H	 0.083397049	 1.6143885195	-1.2828265034	 0.124603
H	-0.7194927269	 1.6907751059	 0.3092771963	 0.100871
H	 1.3199185067	-0.1271767921	 1.6385314905	 0.093823
H	-0.4449986829	-0.2227281879	 1.7550911478	 0.085997
H	-0.3817745872	-2.521756592	 0.7014273609	 0.095326
H	 1.8251060679	-3.6256784256	 0.244142772	 0.116064
H	 2.6922763019	-2.0992763839	 0.748250413	 0.124913
H	 0.7279192859	-3.7664260534	 2.4783145359	 0.108127
H	 2.992877267	-1.6490488969	 6.302781517	 0.147763
H	 3.8839558401	-0.5635220327	 5.2310099331	 0.145798
H	 2.2787256839	-0.1074366792	 5.8166004196	 0.144748
