16
gdb 71023	4.18798	1.72561	1.436	2.0492	71.41	-0.2355	-0.0237	0.2118	888.4212	0.125779	-396.779445	-396.772977	-396.772033	-396.809745	27.211	
N	 0.0196619133	 1.4171870832	 0.0899274791	-0.622492
C	 0.0226691406	-0.0046191765	 0.0411083768	 0.2857
C	 0.6916899905	-0.9563756	 1.1220536766	-0.376683
C	-0.031026869	-1.8949159437	 0.1335725255	 0.335683
N	-0.4660320449	-3.2235252618	-0.366834386	-0.2854
C	-1.1257200683	-2.8041455026	-1.3796246853	 0.011022
N	-1.1378358585	-1.3103075165	-1.5572731185	-0.250497
C	-1.2104794493	-0.925802272	-0.0636655881	-0.038572
C	 0.3110065422	-1.0375264801	-1.0963587553	-0.067007
H	 0.959340321	 1.7882468973	-0.0137392036	 0.233772
H	-0.5414845125	 1.7968502344	-0.667238385	 0.242077
H	 1.7847480151	-0.9879557154	 1.1356705686	 0.108139
H	 0.286855152	-0.883545322	 2.1343210407	 0.11845
H	-1.6529476818	-3.4364170668	-2.0847023722	 0.129107
H	-2.1500731468	-0.8948092878	 0.490538304	 0.091531
H	 1.1661002764	-1.1408259397	-1.7671883172	 0.08517
