20
gdb 47558	2.55586	1.5621	1.09372	2.9629	79.23	-0.2305	-0.0146	0.2158	1132.0832	0.173	-403.14926	-403.141379	-403.140435	-403.181634	31.167	
O	 0.0253208116	-0.1129443983	 0.0336274323	-0.304168
C	 0.0322189701	 1.0959789259	 0.036578013	 0.392011
C	-1.2552823313	 1.9130703167	 0.0197426953	-0.292256
C	-1.433309169	 2.8599254083	-1.188524169	-0.201691
C	-0.3143714287	 3.8899083444	-1.383900622	-0.151425
N	 0.828374895	 3.3011049579	-2.0833425599	-0.074923
C	 2.1725553674	 3.6991697525	-1.6794516738	-0.265934
C	 1.6664315756	 2.3304068556	-1.3773995054	 0.012935
C	 1.3415822089	 1.8873577442	 0.0423170613	-0.327805
H	-2.088217626	 1.2071646075	 0.0695580883	 0.120511
H	-1.2724190976	 2.5159598001	 0.9391711809	 0.110993
H	-1.5280405113	 2.2760215263	-2.1107540803	 0.123824
H	-2.3813957629	 3.3909676396	-1.0515811737	 0.106215
H	-0.6780764479	 4.7101224751	-2.0128314809	 0.109144
H	-0.0445985813	 4.3393808753	-0.4123967181	 0.080427
H	 2.8847212164	 3.8675485003	-2.4832338156	 0.118369
H	 2.2700327013	 4.3837703274	-0.8368088977	 0.107188
H	 1.9877726056	 1.5085465393	-2.014919818	 0.106633
H	 1.2602520777	 2.750125842	 0.7099734823	 0.106021
H	 2.1360406765	 1.2343928499	 0.4125869311	 0.123931
