17
gdb 48069	3.61194	1.12073	0.99183	4.3703	74.4	-0.243	-0.0948	0.1482	1204.4525	0.134915	-421.783502	-421.775335	-421.774391	-421.817743	29.663	
O	-0.078719625	 0.0406966851	 0.0008277749	-0.207312
C	-0.0091481083	 1.238254717	 0.0074783693	 0.079438
C	 1.3469032215	 1.9897643759	-0.0012958035	 0.151533
O	 2.3826751989	 1.371078913	-0.0148104733	-0.264122
C	 1.2715258434	 3.4811617437	 0.0081152099	 0.258304
C	 0.6052907545	 4.3970702477	 1.0972519072	-0.260191
C	 1.1826367177	 5.3597896463	 0.0203788776	-0.046381
C	 2.4635238723	 4.4727218841	 0.0004949828	-0.255679
C	 0.580709105	 4.4099205374	-1.0544420631	-0.260303
H	-0.9163257351	 1.8818143945	 0.0203990132	 0.087544
H	-0.4833214473	 4.3506510288	 1.1845144419	 0.101001
H	 1.0898736767	 4.3994732188	 2.0767051903	 0.109211
H	 1.1381219817	 6.4485002561	 0.0273942615	 0.085041
H	 3.0872924492	 4.4850543218	 0.8968742964	 0.105887
H	 3.0667525261	 4.4958377719	-0.9096324169	 0.105852
H	 1.0427763314	 4.4241597851	-2.044620436	 0.109177
H	-0.5096225627	 4.3644626428	-1.1173726621	 0.101003
