18
gdb 60869	2.55039	1.32638	1.01611	1.6623	78.8	-0.2525	-0.0483	0.2042	1195.6334	0.144239	-401.888954	-401.879246	-401.878302	-401.923941	35.263	
C	-0.2037500605	 1.6400524229	-0.1460475207	-0.418556
C	 0.0418554891	 0.1329768815	 0.0078460205	-0.136142
C	-1.2749342171	-0.5740522464	 0.3142932776	 0.115183
O	-1.3707686936	-1.6245375654	 0.8956388126	-0.241631
C	 0.7274951668	-0.4782571428	-1.2332239605	 0.080487
C	 0.6423922987	-1.9470456683	-1.4943695796	-0.272279
N	-0.0842791142	-1.010970689	-2.3614971145	-0.340096
C	 1.9322006594	 0.2110962539	-1.6310058428	 0.306448
C	 2.9504344267	 0.7803941278	-1.9222336192	-0.406998
H	 0.7355081038	 2.1673518875	-0.3212773932	 0.147552
H	-0.8675638674	 1.8464357473	-0.9928212864	 0.127282
H	-0.6672590527	 2.0515713873	 0.7560972591	 0.122454
H	 0.7025865303	-0.0553289226	 0.8621619881	 0.120002
H	-2.1860989215	-0.03740274	-0.040418302	 0.085196
H	 1.4869357299	-2.4365030185	-1.9686722912	 0.131918
H	 0.090387308	-2.5510285678	-0.7809253625	 0.147762
H	-1.0723258451	-0.9992522332	-2.1147432149	 0.234809
H	 3.8475386794	 1.2770643356	-2.1987062906	 0.196611
