17
gdb 37661	3.75452	2.1374	2.11799	1.0639	71.67	-0.2166	0.0782	0.2948	750.5435	0.141381	-380.798731	-380.793741	-380.792797	-380.82773	22.888	
C	-0.0352878729	 1.4945093891	 0.0767190007	-0.18871
C	 1.5037771675	 1.3954242805	-0.0270086205	-0.061466
C	 1.8742023536	 0.6062984052	 1.2329670201	-0.005153
C	 0.6551483338	-0.3920400001	 1.233524195	-0.053022
C	 1.6725878937	-1.4819015909	 0.890956051	-0.039068
C	 2.1839610324	-0.9683687496	-0.401140238	-0.063285
C	 1.2248319158	 0.1099474036	-0.8619453373	-0.014784
N	-0.0559934646	-0.0175606675	-0.0212348265	-0.13248
N	 2.8300376026	-0.5241733973	 0.8729333101	-0.164384
H	-0.4847879576	 1.9073397247	 0.9848860257	 0.102889
H	-0.5088599778	 1.9345405119	-0.8038295586	 0.110807
H	 2.1557214477	 2.205205368	-0.3555648873	 0.074307
H	 2.1683070448	 1.1449530863	 2.1309376158	 0.079257
H	 0.0017636638	-0.4878963236	 2.0977163302	 0.077474
H	 1.7505901188	-2.4966865812	 1.2619419178	 0.097668
H	 2.7964598305	-1.5579758771	-1.0708888018	 0.099598
H	 1.0232106777	 0.2105140682	-1.9264960864	 0.080351
