19
gdb 94663	3.61465	0.82671	0.74029	5.2512	73.07	-0.2713	0.0121	0.2834	1523.3405	0.157894	-460.166988	-460.157497	-460.156552	-460.202842	33.489	
O	 0.3604029341	 1.0747447319	-0.6383301326	-0.430791
C	 0.0543649085	-0.1021815833	 0.0751746932	 0.12727
C	-0.3700753162	 0.0008510796	 1.5659694534	-0.259428
C	-1.5268509952	-0.9895166402	 1.2542395387	-0.231439
C	-1.3389994554	-0.6980739536	-0.2634413581	-0.032929
C	-2.3052927509	 0.3330122665	-0.8285538278	-0.085614
O	-3.5979021834	-0.2723008692	-0.9910029398	-0.180317
C	-4.6465754455	 0.2652948468	-0.3463771975	 0.170437
O	-5.7537755463	-0.1762671287	-0.4248288619	-0.279013
H	 1.2230085539	 1.3923868963	-0.353816658	 0.288457
H	 0.8380299674	-0.8608956791	-0.0584889147	 0.075756
H	 0.3608553211	-0.2868535202	 2.3251273612	 0.099293
H	-0.7364771022	 1.0064315584	 1.7909693878	 0.108759
H	-1.2761012983	-2.0215474469	 1.5085320104	 0.112093
H	-2.5067649626	-0.7629502636	 1.6803663108	 0.108807
H	-1.335496007	-1.5677238101	-0.9250775146	 0.087961
H	-2.3832720216	 1.2136346762	-0.1796474598	 0.112318
H	-1.976274277	 0.6725476853	-1.8135099219	 0.135722
H	-4.3698865833	 1.1538465538	 0.2559363813	 0.072658
