13
gdb 5276	5.01203	1.62583	1.23697	2.8695	62.38	-0.261	-0.0631	0.1978	907.7086	0.095718	-398.652504	-398.645484	-398.64454	-398.684332	24.542	
C	-0.0263721947	 1.512185769	-0.073483052	-0.489313
C	-0.0246208683	 0.0028089041	 0.0528780102	 0.296407
O	-0.0397654253	-0.5738981451	 1.1215740688	-0.303723
C	-0.003049439	-0.7791452713	-1.1920164277	 0.234371
C	 0.0043658337	-2.1189674928	-1.4458748775	-0.153822
N	 0.0263856098	-2.3327205391	-2.8103273543	-0.25252
C	 0.0312778246	-1.1372304801	-3.3143130644	 0.077907
O	 0.0143784686	-0.1397683748	-2.4113729946	-0.170505
H	 0.860526513	 1.8522467861	-0.6186455062	 0.147719
H	-0.8971597005	 1.8478965898	-0.6465882613	 0.147704
H	-0.0432922324	 1.952001205	 0.9237320192	 0.146051
H	-0.0047462261	-2.9274363193	-0.7333229831	 0.157772
H	 0.0469004766	-0.8528628216	-4.355157847	 0.161953
