16
gdb 86480	2.31651	1.30776	0.96436	2.6997	75.41	-0.2781	0.0073	0.2854	1212.2624	0.122539	-400.708418	-400.699554	-400.69861	-400.74202	33.123	
O	 0.7470716249	 0.3904537599	-0.8497072016	-0.424946
C	-0.0210787447	-0.3667450103	 0.0382413163	 0.176808
C	 0.119406696	-0.14112759	 1.5661535788	-0.29797
C	-1.4304518082	-0.4115294927	 1.7024484895	-0.049
C	-1.5449069808	-0.1043914162	 0.1576787254	-0.297962
C	-1.7362708726	-1.7982299776	 2.0276790219	 0.30247
C	-1.9682212218	-2.9509867654	 2.2717854819	-0.432733
C	-2.1513984103	 0.509650352	 2.5783742947	 0.244229
N	-2.7017881667	 1.2736222182	 3.2486688436	-0.340259
H	 0.6072280884	 1.3247375287	-0.6598626934	 0.2832
H	 0.1715538554	-1.4117338575	-0.2166237909	 0.11715
H	 0.7788278414	-0.7907802107	 2.1411130805	 0.132763
H	 0.3365963474	 0.9058408337	 1.7958886901	 0.122
H	-1.7803035722	 0.9525751419	 0.004360222	 0.122
H	-2.2373395714	-0.7241782917	-0.411414477	 0.13276
H	-2.1824710749	-3.9665276221	 2.4985472184	 0.209491
