19
gdb 105539	2.25922	1.48685	1.1187	1.898	71.28	-0.2529	0.0673	0.3203	1154.335	0.157492	-460.092721	-460.083634	-460.08269	-460.127349	32.537	
C	 0.2497840353	 1.3061796187	-0.3828477003	-0.25791
O	 0.3810952663	-0.0779525084	-0.1313472167	-0.296061
C	 0.8490591434	-0.4848904509	 1.1220154804	 0.329522
C	 1.975562366	 0.2952795004	 1.8631315337	-0.141237
O	 1.2058829364	 0.2793534066	 3.0835567054	-0.272925
C	 0.0196559368	-0.1619934289	 2.3958319159	-0.136216
C	 1.1793549444	-1.9603863615	 1.036251258	 0.061398
C	 0.7213594832	-2.8244468677	-0.0557520784	-0.190606
O	 2.0751401471	-2.3608443025	 0.0046087475	-0.245993
H	 1.2235306893	 1.806240567	-0.4634393388	 0.12112
H	-0.265240543	 1.3940894706	-1.3421327071	 0.134477
H	-0.3468484782	 1.8220356862	 0.3813713945	 0.115349
H	 2.9382660241	-0.2154050039	 1.9661025982	 0.121612
H	 2.1453836801	 1.3160818882	 1.5011792103	 0.100898
H	-0.7099669038	 0.6467783904	 2.2597276384	 0.101553
H	-0.4693765544	-1.0028087542	 2.9009090101	 0.107294
H	 1.3872187089	-2.4069037455	 2.0100984127	 0.104459
H	 0.5844016258	-3.8893169339	 0.1274323997	 0.111888
H	 0.1239102923	-2.3929004107	-0.8531425333	 0.131379
