16
gdb 107609	2.73575	1.54681	1.12177	4.6196	64.54	-0.2471	0.0044	0.2515	1059.7889	0.125187	-475.02924	-475.021224	-475.02028	-475.061963	29.549	
O	 0.4179799026	 0.0348536367	 1.0394164677	-0.4284
C	-0.2059822238	 0.4039791751	-0.1814665639	-0.195247
C	-1.5136809594	-0.3345019493	-0.26081631	 0.164485
N	-2.3353324083	-0.5559896624	 0.9587199037	-0.368816
C	-1.7894227048	-1.70607795	 0.2171494709	-0.117851
C	-2.8221561071	-2.2866120345	-0.7274097779	-0.081326
O	-3.186277603	-1.2174458577	-1.6257581579	-0.235128
C	-2.392612202	-0.1256921863	-1.463199529	 0.452384
O	-2.410650846	 0.8140284895	-2.206306612	-0.355993
H	 1.1677668845	 0.6172699977	 1.1881415681	 0.301567
H	-0.4085235151	 1.4832988711	-0.2298993874	 0.125177
H	 0.4183133793	 0.1462333573	-1.0497906242	 0.11338
H	-1.7098588857	-0.3695999124	 1.743552657	 0.250682
H	-1.0250901327	-2.3301421107	 0.6637122235	 0.120312
H	-2.4167557697	-3.1111907582	-1.3231459027	 0.120582
H	-3.7279228986	-2.6162791058	-0.211845126	 0.134193
