19
gdb 53562	3.75818	0.73545	0.68733	2.183	80.56	-0.2281	0.0504	0.2785	1695.966	0.156533	-422.972616	-422.962158	-422.961213	-423.010741	36.575	
C	-0.0057530796	 1.3695788628	-0.2608448515	-0.496046
C	-0.019265753	-0.0659365116	-0.0166172176	 0.070037
C	-0.0198830501	-1.2534408838	 0.1816539965	 0.064802
C	-0.0451080653	-2.6924930218	 0.4297264109	-0.369001
C	-1.4176542393	-3.3068649725	 0.1893008657	-0.080782
C	-1.8151522951	-3.8514080049	-1.1606606209	 0.03196
O	-0.8099675607	-3.8514860675	-2.1467207276	-0.421771
C	-1.5772510483	-4.8040104163	-0.0091211387	 0.065233
O	-0.4468441996	-5.618919282	-0.0815089991	-0.428064
H	 0.7499524201	 1.6408835308	-1.006632028	 0.144867
H	-0.9751641851	 1.7203375551	-0.6326515539	 0.143407
H	 0.2179563493	 1.9298409884	 0.6540483499	 0.143662
H	 0.6988786666	-3.1894942932	-0.1992722767	 0.131968
H	 0.2531079108	-2.8954872289	 1.4665459085	 0.129627
H	-2.2211957183	-2.8153785441	 0.7304748095	 0.09722
H	-2.8191478408	-3.6586769277	-1.5320196097	 0.092002
H	-1.0941937584	-4.4403447672	-2.8543405254	 0.29762
H	-2.4130204781	-5.3098996979	 0.4651729779	 0.099632
H	-0.0071896053	-5.3896730176	-0.9126070599	 0.283626
