20
gdb 40441	3.54313	1.2056	1.09504	1.3664	78.47	-0.247	0.0733	0.3203	1186.7599	0.172842	-403.120342	-403.112392	-403.111448	-403.153167	31.056	
C	-0.0913753184	 1.4955877864	-0.0642583477	-0.241635
N	 1.2235478633	 0.835909435	-0.0287658638	-0.320103
C	 0.0017649146	 0.0169702545	 0.0586529931	-0.126418
C	-0.2315188665	-0.7113305707	 1.3396667885	 0.480753
C	 0.1245443456	-0.1087895587	 2.6883947688	-0.298778
C	-0.0376701315	-1.2840277774	 3.6828845133	-0.219336
C	 0.2258566294	-2.5682173012	 2.8587139909	-0.239159
C	-0.175668367	-2.1778228447	 1.4515987612	-0.01196
O	-1.4407668253	-1.4989768425	 1.3756841808	-0.315694
H	-0.317885522	 2.1025602441	 0.8072384429	 0.122102
H	-0.4523349454	 1.9025449083	-1.0050366594	 0.114346
H	 1.616769799	 0.7780813345	-0.9637806404	 0.235646
H	-0.2919895838	-0.55766592	-0.8175018197	 0.083933
H	 1.1574039482	 0.2515640729	 2.6390875869	 0.125828
H	-0.5119367716	 0.7421333906	 2.9506896474	 0.101871
H	 0.6281670153	-1.1961892303	 4.5445726736	 0.097071
H	-1.0624513215	-1.3012845694	 4.0595483524	 0.117774
H	 1.2898234191	-2.8362685651	 2.8569710496	 0.103411
H	-0.3298241236	-3.4322614072	 3.236387966	 0.10664
H	 0.0554633823	-2.820950969	 0.6047668456	 0.083708
