16
gdb 4147	4.99749	1.58246	1.46314	0.9295	68.	-0.2297	0.0153	0.245	878.3961	0.132615	-379.838071	-379.831577	-379.830633	-379.868585	25.887	
O	-0.1704316095	 1.2951637323	 0.0431481973	-0.398372
N	 0.0133440541	-0.1068018645	 0.0190976279	-0.286769
C	-1.1061251999	-0.6993943803	 0.003510376	 0.456746
C	-2.5470857927	-0.186649679	 0.0060800681	-0.259287
N	-3.3044158384	-1.4764281086	-0.020220074	-0.129046
C	-2.5035658266	-2.2744219997	 0.9953639293	-0.184343
C	-1.326474793	-2.1851494985	-0.0239492331	-0.120662
C	-2.4943668345	-2.2379260228	-1.056314004	-0.184346
H	 0.7371932976	 1.6168784493	 0.0529380031	 0.305353
H	-2.7899306362	 0.391349424	 0.9016441013	 0.131124
H	-2.7819085541	 0.422788491	-0.8705821937	 0.131128
H	-2.3930013877	-1.8039243589	 1.9758299083	 0.112264
H	-2.9195424078	-3.2790103856	 1.0963923235	 0.114875
H	-0.4550719283	-2.8376220792	-0.0316466799	 0.084196
H	-2.909276498	-3.2382127496	-1.1967322177	 0.114876
H	-2.3750869852	-1.7328732999	-2.0183951425	 0.112263
