25
gdb 57423	2.49233	1.11646	1.07039	1.29	89.2	-0.2515	0.0688	0.3204	1359.8656	0.22554	-389.488954	-389.477835	-389.476891	-389.524014	42.944	
C	 1.9659873511	 0.9917540254	 0.765738009	-0.414609
C	 1.5158991997	-0.4711907969	 0.5987317858	 0.349877
C	 2.4154433277	-1.3703844031	 1.4506723212	-0.408657
O	 0.2016936899	-0.6196426825	 1.1634685504	-0.458713
C	 1.5054966583	-0.8044082466	-0.9036787217	-0.089161
C	 2.3142697344	-1.9053773794	-1.5605934226	-0.340412
C	 0.8081566634	-1.9885825704	-1.5576945084	 0.33989
C	 0.1289710231	-3.0700788762	-0.7367103689	-0.445195
C	 0.0928516717	-1.7044226617	-2.8683147568	-0.447541
H	 2.9722095213	 1.1457410578	 0.3617865765	 0.11506
H	 1.2860340092	 1.6670742153	 0.2332806472	 0.100767
H	 1.9642428114	 1.2710397114	 1.8229835991	 0.116142
H	 2.3267735587	-1.0749181978	 2.4998734755	 0.120249
H	 2.1323995735	-2.422365934	 1.3781703475	 0.121531
H	 3.4607205015	-1.2710115637	 1.1468840559	 0.115596
H	-0.4108277892	-0.1389007979	 0.596829931	 0.272549
H	 1.4378440461	 0.0989581067	-1.5072385534	 0.069751
H	 2.8308110175	-1.6806217408	-2.488785913	 0.1014
H	 2.8530534719	-2.5889721122	-0.9134963332	 0.108063
H	 0.6662447817	-3.3061471367	 0.1820049876	 0.124155
H	-0.884508452	-2.7725094526	-0.4490831836	 0.113232
H	 0.0526012828	-3.9911994065	-1.3274113412	 0.104635
H	 0.034167176	-2.6092374429	-3.485317563	 0.11363
H	-0.9336646815	-1.3590892596	-2.6941524755	 0.108502
H	 0.6093342718	-0.936431905	-3.4526868755	 0.109255
