16
gdb 19945	3.59923	1.86128	1.45793	1.2184	65.65	-0.238	0.0165	0.2545	875.391	0.13146	-379.87864	-379.871434	-379.870489	-379.9105	26.603	
N	-0.9144264061	 0.4729925084	-1.196701259	-0.546803
C	-0.3998064127	-0.3241559662	-0.3749821992	 0.420552
O	 0.7391071159	-0.2137167542	 0.3912690356	-0.253298
C	 0.4760020156	-1.4901339775	 1.0591763589	-0.097917
C	-0.7665021346	-1.7092499818	 0.1671226819	-0.094278
N	-2.0144344214	-1.9665735411	 0.8476618225	-0.091404
C	-2.7570866792	-0.8408622724	 1.416790775	-0.232542
C	-3.2486309174	-1.5315247149	 0.19230519	-0.221139
H	-0.368196078	 1.3328842392	-1.2800179501	 0.229457
H	 1.3118126343	-2.1805771915	 0.9318225531	 0.12488
H	 0.2519859539	-1.3393436135	 2.1174641018	 0.128811
H	-0.6211576849	-2.4872041757	-0.5881957991	 0.11668
H	-3.2151902448	-1.0356142318	 2.3818252649	 0.117902
H	-2.3645271943	 0.1642702964	 1.2845278472	 0.129635
H	-3.1595921361	-0.9811960834	-0.7404444899	 0.151813
H	-4.0742602204	-2.23497071	 0.2508300664	 0.117652
