20
gdb 116602	3.72669	0.90395	0.80134	1.6521	79.12	-0.2512	0.0244	0.2756	1511.487	0.16981	-440.306933	-440.297349	-440.296404	-440.342707	34.108	
C	-0.2350929809	 1.5790138868	 0.0338434232	-0.36439
C	 0.2490931831	 0.1308727195	 0.0800756321	-0.134285
N	 1.038556316	-0.1769319691	-1.1084791692	-0.330394
C	 1.9770804978	-1.0069699011	-1.0355422973	 0.398468
C	 2.9057336939	-1.4092882562	-2.1609414166	-0.191887
O	 3.624540226	-2.5176149902	-1.6442577819	-0.257946
C	 3.5303384716	-2.4738238432	-0.2350601281	 0.213208
C	 4.7541267071	-1.8506583771	 0.4172617326	-0.399963
O	 2.3560201552	-1.7155110327	 0.0735308275	-0.249285
H	 0.6120278057	 2.2720427161	 0.0385636803	 0.115029
H	-0.8122183955	 1.7618505818	-0.8770816235	 0.122668
H	-0.8666681488	 1.8042587746	 0.8991515781	 0.105592
H	 0.8101335008	-0.0564083797	 1.0054503613	 0.10282
H	-0.6191299375	-0.5425519063	 0.0987524294	 0.107806
H	 2.3551889703	-1.716987013	-3.0530372761	 0.143196
H	 3.5705693713	-0.5767831434	-2.43147106	 0.125532
H	 3.3662989893	-3.4965524977	 0.1227451886	 0.102407
H	 4.9030641304	-0.8284282834	 0.0569722545	 0.126789
H	 4.6313968415	-1.8256320713	 1.5034967757	 0.131601
H	 5.6404572524	-2.4430262942	 0.1748325494	 0.133033
