20
gdb 77992	2.22059	1.45742	1.04917	1.5817	87.93	-0.2379	0.0331	0.2711	1230.3326	0.16885	-365.935697	-365.926425	-365.925481	-365.969252	35.605	
C	-0.0676233777	 1.5682499478	-0.0096257052	-0.410712
C	-0.0060554182	 0.0451974341	-0.013475329	 0.008598
C	 1.079430244	-0.5570586025	-0.9604062179	-0.322377
C	 1.8316865448	-1.1201616823	 0.270627883	 0.155801
C	 3.2518891403	-1.1791079913	 0.3968072041	 0.216395
C	 4.4532073902	-1.208936587	 0.457906902	-0.38991
C	 0.7564904439	-0.546303237	 1.1924144	-0.110805
N	 0.9901763254	-1.9632268167	 1.1056026656	-0.122142
C	 0.0288906367	-2.9068446486	 0.5557607841	-0.323669
H	 0.9269314825	 2.002729152	 0.1411430433	 0.12237
H	-0.46081813	 1.948947542	-0.9579373451	 0.118203
H	-0.7164400093	 1.9336670439	 0.7939775696	 0.116982
H	-1.0128572635	-0.3650587419	-0.1478154894	 0.073736
H	 0.7603170939	-1.2922711853	-1.7047351405	 0.100757
H	 1.6585768263	 0.220602981	-1.4624008587	 0.116551
H	 5.5120285338	-1.2431624452	 0.5269565479	 0.185531
H	 0.8780973064	-0.0606735621	 2.1565015112	 0.099439
H	-0.5256154539	-2.5561130994	-0.324910238	 0.107728
H	 0.5601095609	-3.8232168081	 0.2826925935	 0.130916
H	-0.6955598064	-3.1550306734	 1.3375372697	 0.126608
