21
gdb 41667	2.65628	1.92026	1.51973	0.2616	85.01	-0.2221	0.0209	0.2429	968.2535	0.187341	-349.966228	-349.959408	-349.958464	-349.997034	29.302	
C	-0.0986079413	 1.5402234137	-0.0988642896	-0.18153
C	 1.2759028184	 2.2318844316	-0.0225573378	-0.230758
C	 2.1935843261	 1.6556478231	-1.0917425771	-0.020155
C	 3.3624055002	 0.7062605596	-0.811970678	-0.101599
C	 3.4540683582	 0.1174944872	 0.5505263919	-0.083716
C	 2.3626738999	-0.5914033298	 0.8466216166	-0.083059
C	 1.352044424	-0.6126564184	-0.2895205468	-0.057415
C	-0.0179476908	 0.0130320296	 0.1269649536	-0.206332
C	 2.0626903641	 0.1839997851	-1.396715783	-0.082146
H	-0.7926949228	 1.9849990018	 0.6224022409	 0.088034
H	-0.5190074514	 1.7373460879	-1.0926614692	 0.093896
H	 1.1587816704	 3.3090836189	-0.1775398028	 0.089753
H	 1.7013044748	 2.1015700986	 0.9778168026	 0.102279
H	 2.346072565	 2.2918290017	-1.9592283931	 0.079448
H	 4.2549544624	 0.8252753141	-1.4163993864	 0.07908
H	 4.293634794	 0.2898390752	 1.2146985289	 0.090322
H	 2.1553511045	-1.0635192695	 1.8015353671	 0.087885
H	 1.1698125496	-1.6464309382	-0.6073379273	 0.07309
H	-0.1957877791	-0.2197898516	 1.1831902985	 0.093381
H	-0.8252083918	-0.4754352876	-0.4286825475	 0.093006
H	 1.9947380558	-0.153029463	-2.4241866214	 0.076537
