15
gdb 45118	2.97425	1.72661	1.16233	2.4463	68.16	-0.2675	-0.0543	0.2132	1003.0089	0.113473	-453.924149	-453.916855	-453.91591	-453.957323	27.716	
N	-0.1557685726	 1.1560917119	 0.7272197673	-0.473208
C	 0.0174178351	 0.1228041903	 0.0213909432	 0.310495
O	-1.0210676987	-0.2707640161	-0.7622474032	-0.215713
C	-1.1178852269	-1.6385356486	-1.0657208539	 0.057206
C	-0.7082438594	-2.0702485413	-2.4487049101	-0.326853
C	 0.1714574514	-2.3639972995	-1.2637709954	 0.055521
O	 1.3392502977	-1.5971613964	-1.1152356766	-0.213688
C	 1.3199175829	-0.6539833908	-0.1340995151	 0.294845
N	 2.4010927503	-0.4342508786	 0.4799479849	-0.469728
H	 0.6967518437	 1.4297591492	 1.2114764747	 0.227103
H	-1.9512371052	-2.1188527047	-0.5628891332	 0.123645
H	-1.2405687015	-2.8924900806	-2.9120532852	 0.131845
H	-0.3710530942	-1.2859961253	-3.1165635199	 0.147726
H	 0.2918775089	-3.3821485081	-0.9068676739	 0.123408
H	 2.3093874385	 0.3357064287	 1.1401913965	 0.227397
