18
gdb 123728	4.96964	0.97056	0.90191	4.9668	78.02	-0.2462	0.0027	0.2489	1306.9076	0.150629	-398.120326	-398.112656	-398.111712	-398.154519	28.561	
C	 0.0145549285	 1.6637373933	 0.0239637966	-0.214451
C	 1.5342320334	 1.5155590634	 0.2953657301	-0.220734
C	 1.2976822226	-0.0141865649	 0.5365603622	-0.103172
C	-0.0495345376	 0.1339680918	-0.2290137396	-0.225365
C	 2.3042037969	-0.9975854481	 0.0583036212	 0.354879
C	 2.5799436895	-1.5592520242	-1.1710016833	-0.159996
N	 3.6527957932	-2.3916385638	-1.0588647695	-0.18536
N	 4.0695276521	-2.3853194455	 0.1735011692	-0.119947
N	 3.2600939202	-1.5470486416	 0.8520131658	-0.249981
H	-0.5328213677	 1.9481254375	 0.9270734259	 0.107003
H	-0.2914571583	 2.3238817977	-0.7896140053	 0.105797
H	 2.1270891455	 1.675005641	-0.6092303502	 0.115152
H	 1.9753820826	 2.0908782121	 1.1126079708	 0.102329
H	 1.0968634668	-0.182473316	 1.6007457551	 0.077512
H	-0.9063027342	-0.423216137	 0.1555963672	 0.107463
H	 0.0713250927	-0.1012866734	-1.2898796491	 0.114712
H	 2.0740314088	-1.420347839	-2.1124358365	 0.118482
H	 3.416488145	-1.4035697834	 1.8373016692	 0.27568
