21
gdb 91343	2.90642	1.33238	1.13259	1.5607	84.89	-0.2328	0.0234	0.2562	1191.877	0.182907	-387.102533	-387.094011	-387.093067	-387.135492	33.114	
C	 0.0817498703	 1.5436633728	-0.1449711794	-0.403791
C	 0.0202720583	 0.0459713495	 0.0625493738	 0.160513
O	 0.8847927634	-0.6815011309	-0.8460227188	-0.315934
C	 1.3994514764	-1.5119538036	 0.2194314905	 0.126204
C	 2.9154894676	-1.3771590264	 0.4027270636	-0.319019
C	 3.0562422775	-0.2688233612	 1.4301234348	 0.329581
C	 4.3996554349	 0.2608026116	 1.8207978207	-0.489832
C	 1.8669166006	 0.1167081458	 1.9067567858	-0.181618
C	 0.7143127957	-0.6209670594	 1.2885986417	-0.143427
H	 1.097872015	 1.916124905	 0.0080281063	 0.122506
H	-0.2294705536	 1.7919394947	-1.1647954934	 0.124247
H	-0.5919587118	 2.0564974742	 0.5504591821	 0.11096
H	-1.0164802016	-0.3072399918	-0.0453802522	 0.065511
H	 1.0533293925	-2.5465702731	 0.117789118	 0.067179
H	 3.3807647286	-2.3091797129	 0.7532114854	 0.097508
H	 3.3880739209	-1.1265123538	-0.5553177815	 0.116821
H	 4.9206938913	 0.690447016	 0.9557710736	 0.128804
H	 4.324139156	 1.0333555514	 2.5908422078	 0.122556
H	 5.0447425747	-0.5411151503	 2.2026126719	 0.124508
H	 1.7333954337	 0.889618409	 2.6570249999	 0.084795
H	 0.0372116398	-1.0800348367	 2.0137936694	 0.071927
