19
gdb 59401	2.83571	1.02021	0.96736	5.1751	76.63	-0.2537	0.0336	0.2873	1321.7313	0.158024	-419.198959	-419.189038	-419.188093	-419.233546	36.839	
C	 0.0447732663	 1.4937201971	-0.0813645138	-0.401577
C	 0.0197738987	-0.0313570879	 0.0138345096	 0.104964
O	 0.7724760968	-0.4991103712	 1.1363918228	-0.425411
C	-1.3990072417	-0.5723332746	 0.0327477115	-0.057453
C	-2.0148000232	-1.1867289289	-1.1899797228	-0.323762
C	-1.6048503657	-2.0898341629	-0.0351541879	 0.145366
N	-0.4874530214	-2.984213384	-0.1427939654	-0.581557
C	-2.6973561496	-2.5965653016	 0.7780745738	 0.278726
N	-3.5701093285	-2.9764790165	 1.4355100155	-0.351559
H	 1.0768728884	 1.8529585009	-0.0894410121	 0.130901
H	-0.4564619232	 1.8385631776	-0.991264658	 0.125844
H	-0.4696306137	 1.9451739324	 0.7754184671	 0.11512
H	 0.5484544891	-0.4516348705	-0.8480606902	 0.087084
H	 0.3287953409	-0.2048674067	 1.9400301676	 0.285729
H	-2.0778447979	-0.0431094314	 0.697363534	 0.107039
H	-3.0726746237	-1.0432611033	-1.3743498688	 0.14089
H	-1.4032340625	-1.2587631905	-2.0841889291	 0.122831
H	-0.2347126188	-3.1879734151	-1.0993039005	 0.238209
H	 0.3130107196	-2.6351741129	 0.3710343165	 0.258616
