19
gdb 54173	2.19233	1.25876	1.05769	4.201	77.91	-0.2414	-0.0359	0.2055	1246.4087	0.155869	-423.051359	-423.041539	-423.040594	-423.086445	35.524	
C	 0.1653616498	 1.2534757119	 0.6362026604	-0.49107
C	-0.0251156111	 0.0715111956	-0.2946385735	 0.32666
O	 0.8284387866	-0.2319429903	-1.1015834785	-0.310999
C	-1.3096537709	-0.7213261007	-0.1701641433	 0.218641
C	-2.4955465634	-0.0575244175	 0.5073315731	-0.483107
C	-1.5671506274	-1.7237624956	-1.2550585191	-0.32439
C	-1.1559842694	-2.2428460398	 0.1031877069	-0.124805
C	 0.1610327728	-2.907997493	 0.2860732914	 0.13698
O	 0.3362994513	-3.7948318286	 1.0881690292	-0.271779
H	 1.1506589908	 1.6866268395	 0.4638871928	 0.147318
H	-0.6042709352	 2.0136389766	 0.4653891033	 0.144417
H	 0.0754488309	 0.9396707976	 1.6820639659	 0.146972
H	-2.7953970123	 0.852813828	-0.0233341711	 0.129637
H	-3.3564656716	-0.7315387354	 0.5119801701	 0.127776
H	-2.2812860106	 0.210751627	 1.546082615	 0.13075
H	-2.5927668204	-1.890499119	-1.5638448284	 0.126158
H	-0.8212841752	-1.7734097313	-2.0406167555	 0.149973
H	-1.9276746372	-2.6600341007	 0.7426408974	 0.109999
H	 0.9736019324	-2.5511576542	-0.3753323759	 0.11087
