19
gdb 72272	2.75269	1.84818	1.62573	1.5111	73.65	-0.2401	0.0747	0.3148	913.4679	0.161295	-422.994598	-422.987616	-422.986672	-423.025364	29.551	
O	-0.0334468307	 1.4129623984	-0.0061038313	-0.491783
C	 0.0086812093	 0.0201771975	-0.0600565955	 0.427357
C	 0.4229108308	-0.7400336272	-1.3331418174	-0.331979
C	-0.4868542205	-1.8817051354	-0.7941920632	 0.099586
O	 0.2264144493	-2.7794333906	 0.042628093	-0.266151
C	 1.0690969859	-2.0662208448	 0.949726159	-0.088435
C	 0.4140107842	-0.7284699336	 1.2848662821	-0.128005
C	-1.0974280589	-0.984050115	 1.5600043387	-0.236896
C	-1.2975286803	-0.8099018892	 0.0492261328	-0.0818
H	 0.8646321205	 1.7421042527	 0.112289446	 0.276234
H	-0.0237423049	-0.2585154834	-2.2081325401	 0.106212
H	 1.4717496282	-0.9747219392	-1.5386229113	 0.093929
H	-1.041317163	-2.4887289619	-1.5092482529	 0.084531
H	 1.1787627536	-2.6947985735	 1.8401362669	 0.106978
H	 2.0696821115	-1.921124702	 0.5147578732	 0.089525
H	 0.9929560331	-0.1492760395	 2.0086605137	 0.063154
H	-1.3618628251	-1.9433757457	 2.012918225	 0.101331
H	-1.5628242684	-0.168175681	 2.1173855761	 0.107606
H	-2.2441590846	-0.4881358668	-0.3869111348	 0.068607
