20
gdb 66095	2.53044	1.54105	1.34412	1.6936	83.69	-0.2341	0.054	0.2881	1071.3049	0.17079	-365.964694	-365.956209	-365.955265	-365.997123	34.02	
C	-0.0470098207	 1.5620332732	-0.0140553535	-0.425468
C	 0.0200651414	 0.0289664038	-0.0279408005	 0.070237
C	 0.7920410397	-0.5490924291	-1.2573914014	-0.269774
C	 1.3787261195	-1.8718935324	-0.7299641472	-0.231128
C	 1.5611989079	-1.6160751912	 0.7592504402	-0.000999
C	 2.1844311916	-0.3286681452	 1.1593324108	-0.258969
N	 0.7200571425	-0.4829259839	 1.1878407004	-0.099916
C	-1.3391665853	-0.5287614228	 0.0010494459	 0.377279
C	-2.4527400835	-0.9806820427	-0.0085291259	-0.484102
H	 0.960892469	 1.9874013038	-0.02468428	 0.112119
H	-0.5877749977	 1.9278983934	-0.890859272	 0.125011
H	-0.5643623694	 1.9099919523	 0.8829292852	 0.136587
H	 0.1366476906	-0.6853538304	-2.1186937508	 0.115559
H	 1.5824962694	 0.1454735024	-1.5561791058	 0.102154
H	 0.6656486777	-2.6905928231	-0.8707700619	 0.118316
H	 2.3085839621	-2.1529080058	-1.2337174242	 0.104316
H	 1.5995075372	-2.4694596083	 1.4300528354	 0.09007
H	 2.6350020366	-0.2229777921	 2.1416557683	 0.116899
H	 2.6475478581	 0.283318733	 0.3899484424	 0.109261
H	-3.4369092667	-1.3794752347	-0.0017540057	 0.192547
