19
gdb 37281	4.27935	1.52813	1.47766	1.753	77.24	-0.2295	0.0953	0.3248	945.7822	0.163289	-385.848863	-385.842811	-385.841867	-385.878848	26.714	
C	-0.0288992058	 1.5163420327	-0.0200341642	-0.306964
C	 1.3054042935	 0.8061133339	-0.0365631754	-0.05227
C	 0.0161264648	 0.0056728076	-0.0503169125	-0.05227
C	 0.146494323	-0.7055985883	-1.3934982788	-0.055241
C	 1.6582252657	-1.1768949258	-1.430254989	-0.0671
C	 1.8868500124	-1.5200069416	-2.8931367015	-0.104744
O	 1.206520128	-0.4134137081	-3.5207307336	-0.290227
C	 0.7350841858	 0.3266770999	-2.4000732262	 0.110477
C	 1.9056876166	 0.3865885996	-1.3747332178	-0.055241
H	-0.3135928217	 1.9585809728	 0.9297821748	 0.107513
H	-0.3719242758	 2.0835877173	-0.8773105833	 0.114136
H	 1.9470104697	 0.8561918295	 0.8357071902	 0.0863
H	-0.3267085465	-0.5554295148	 0.811454728	 0.0863
H	-0.6531708253	-1.3751377263	-1.7139092234	 0.065074
H	 2.0619156386	-1.8402803728	-0.664424719	 0.068323
H	 2.944010484	-1.5279570376	-3.1862784363	 0.099983
H	 1.4296846175	-2.468120743	-3.2024317121	 0.099983
H	 0.1961212959	 1.2009461385	-2.7585645249	 0.080891
H	 2.8652551497	 0.8092584066	-1.6763796647	 0.065074
