18
gdb 84822	3.1185	1.0738	0.85337	1.3156	72.99	-0.2517	-0.0285	0.2232	1325.3264	0.146949	-439.109623	-439.100705	-439.099761	-439.14495	31.486	
C	 0.0681328842	 1.5832317116	-0.1795313911	-0.391986
C	 0.0002725566	 0.0753836408	 0.0527711221	 0.009018
N	 0.449659344	-0.6683933378	-1.1433079524	-0.264268
C	 1.2710063377	-1.5380898655	-0.7346252751	 0.113022
O	 1.5773289874	-1.6168531919	 0.5842456851	-0.233998
C	 0.8744308615	-0.5086332621	 1.2170182796	 0.064371
C	 1.9146846218	 0.4253813374	 1.8463919375	-0.294634
C	 2.7420593941	-0.279580983	 2.9038244404	 0.153644
O	 2.8218191722	 0.0829579637	 4.0495648429	-0.238217
H	 1.089026129	 1.914148957	-0.3892333229	 0.12278
H	-0.5489427673	 1.8387681608	-1.0442058072	 0.135869
H	-0.3079436874	 2.1372738227	 0.685949886	 0.119104
H	-1.048432212	-0.1935794321	 0.2298238402	 0.098767
H	 1.7818275515	-2.2669677553	-1.3542264267	 0.144971
H	 0.2473599193	-0.940515657	 2.0020014353	 0.107906
H	 2.5931854328	 0.7822264775	 1.0607950253	 0.128318
H	 1.4285992982	 1.2877772106	 2.3095293295	 0.129042
H	 3.2823771864	-1.1807301075	 2.5436723815	 0.096292
