19
gdb 65554	3.27907	1.37178	1.26011	2.5054	75.68	-0.2612	-0.0355	0.2257	1057.9226	0.160383	-423.027509	-423.019935	-423.018991	-423.05934	30.703	
O	-0.0160857352	 1.3965903974	 0.0874786007	-0.494583
C	-0.0006175416	-0.0066229249	 0.042419795	 0.354449
C	 0.4749831149	-0.6471632309	 1.4050117212	-0.282752
C	-0.834950134	-1.3346550914	 1.8338562346	-0.014236
C	-1.248251707	-2.0580331624	 0.5212162248	-0.241821
C	-1.4411164155	-0.5979416466	 0.0145101829	-0.066685
C	-1.9063965264	-0.2704881054	 1.4639695757	-0.227109
C	 0.8352465638	-0.4489538296	-1.1352748074	 0.095096
O	 1.3775837905	 0.3443658129	-1.8695923887	-0.279966
H	 0.5227401744	 1.6877359573	-0.6656531266	 0.28935
H	 1.3005948021	-1.3575452743	 1.2905689119	 0.098342
H	 0.7953634312	 0.1570163182	 2.0702516934	 0.122476
H	-0.8332835861	-1.8436772526	 2.7975781382	 0.065972
H	-0.5160748552	-2.7080248814	 0.033309051	 0.089852
H	-2.2020205537	-2.5833537731	 0.6085277732	 0.105537
H	-2.04046495	-0.3492992223	-0.8613235196	 0.071882
H	-2.9244353024	-0.6184505707	 1.6525941213	 0.098318
H	-1.7746791183	 0.7526310006	 1.8195145936	 0.118789
H	 0.9296437785	-1.5398226707	-1.2997724252	 0.097088
