22
gdb 113838	2.53418	1.19393	1.01508	2.6657	83.5	-0.2121	0.0813	0.2933	1307.8642	0.193021	-404.281281	-404.271495	-404.27055	-404.316182	36.096	
C	 1.5237163525	 2.0107010305	 2.7331886219	-0.236381
O	 0.8329641565	 0.7769033293	 2.6825730373	-0.228132
C	-0.0059435168	 0.6740052267	 1.5763438272	 0.123017
C	 0.5428272954	 0.2474988577	 0.2399934915	-0.334473
C	-0.3778695309	-0.67550071	 1.0305300929	-0.077788
C	 0.1104323682	-2.0254907289	 1.472776178	-0.002354
C	 1.1353290683	-2.2716208311	 2.5285327455	-0.266561
N	-0.2568152637	-2.6659997727	 2.740732889	-0.097698
C	-1.0115065973	-1.8941592361	 3.722574244	-0.321638
H	 2.1382456585	 1.9987848162	 3.6359638891	 0.129875
H	 2.1697154032	 2.1474689107	 1.8548540911	 0.113625
H	 0.8257518097	 2.8595929929	 2.7869867887	 0.109337
H	-0.7982400396	 1.4256105367	 1.5695688361	 0.085723
H	 0.1846667194	 0.7201898436	-0.6680417764	 0.110903
H	 1.5892530464	-0.0392637766	 0.2286702618	 0.123681
H	-1.4016427172	-0.7129832671	 0.6622100764	 0.094841
H	 0.0862192284	-2.7344557763	 0.644283537	 0.087944
H	 1.8448421908	-3.0879241672	 2.4123252868	 0.101923
H	 1.5050232	-1.4062441759	 3.0679349052	 0.131231
H	-0.6947385028	-0.8463905621	 3.8152128364	 0.126524
H	-2.0754073946	-1.9201395217	 3.4626448522	 0.110507
H	-0.8956929845	-2.3740568588	 4.7001398485	 0.115893
