19
gdb 109010	3.57533	1.22188	1.15714	1.4888	80.03	-0.2107	0.0048	0.2155	1137.5023	0.160931	-385.872771	-385.865094	-385.864149	-385.905035	30.578	
O	 0.0236897367	 1.4251097244	 0.0263108803	-0.413066
C	-0.0148372423	 0.0095820895	-0.0040731873	-0.205994
C	-1.4255975175	-0.4575742318	 0.0464718515	 0.356568
C	-2.5602743401	 0.2417300369	 0.0571435104	-0.185673
C	-3.7206917428	-0.7742105213	 0.0210522798	-0.107285
C	-3.0818156256	-1.8816415172	 0.9127256423	-0.193919
C	-1.816690433	-1.9537525195	 0.005510761	-0.169784
C	-2.5183057168	-2.2101205089	-1.3442173952	-0.080159
C	-3.6515562658	-1.5086100272	-1.3346656184	-0.066936
H	 0.9447008325	 1.6989136693	-0.0032551764	 0.288324
H	 0.4625242218	-0.3863492113	-0.9201794616	 0.093586
H	 0.5479615667	-0.4257428928	 0.8419198485	 0.09226
H	-2.669909881	 1.3158747536	 0.0292023297	 0.109287
H	-4.6998069535	-0.3914862945	 0.3078187927	 0.056864
H	-2.8668232398	-1.5444896238	 1.9304665246	 0.092213
H	-3.6538686581	-2.8137865888	 0.9256700992	 0.090757
H	-1.0311983011	-2.6599807365	 0.2787878105	 0.052704
H	-2.1075411385	-2.8127068675	-2.1431657074	 0.09458
H	-4.3809146118	-1.4029273026	-2.1266081446	 0.095673
