15
gdb 132007	2.30662	1.8315	1.02746	7.2517	72.71	-0.2159	-0.0179	0.198	1082.7772	0.112802	-461.970576	-461.962583	-461.961639	-462.003205	29.749	
C	-0.0242897593	 1.5309203782	 0.0539957464	-0.501831
C	-0.008062083	 0.0339614232	-0.0164334364	 0.249069
C	-0.1110238074	-0.6780659758	-1.1679383513	 0.072833
F	-0.2357468088	-0.0217918789	-2.3237593394	-0.069981
C	-0.0952383478	-2.1443897718	-1.2399689899	 0.299845
O	-0.190145464	-2.7589023165	-2.2955119117	-0.395231
C	 0.044720117	-2.7616019002	 0.0763693488	-0.259943
C	 0.1451777586	-2.0236387573	 1.2072131702	 0.02431
N	 0.1200926232	-0.6588616813	 1.1686636877	-0.384966
H	 0.903086319	 1.9164191518	 0.4936763587	 0.140624
H	-0.1293083683	 1.9482823623	-0.9465348011	 0.166943
H	-0.8594608504	 1.8892185604	 0.6672462341	 0.14065
H	 0.0662754153	-3.8429991318	 0.1236335361	 0.118003
H	 0.2496542509	-2.4593692218	 2.1936517959	 0.134383
H	 0.1965975251	-0.1348892506	 2.0244789617	 0.265291
