17
gdb 81428	2.44572	2.00876	1.49199	3.6601	66.63	-0.2401	0.05	0.29	922.7577	0.135176	-458.897369	-458.889724	-458.888779	-458.929109	30.03	
C	-0.0728606438	 1.4886591004	 0.0418637198	-0.502516
C	 0.07129373	-0.0000539117	 0.0066677549	 0.435689
O	-0.8055832591	-0.8127959704	 0.7989347701	-0.278625
C	 0.6049134088	-0.8945345745	 1.03419412	-0.032629
C	 1.3100944424	-1.9451379976	 0.1360830243	-0.040476
O	 0.3438302376	-2.1523760932	-0.9240732045	-0.261261
C	 0.5855532741	-0.7613646397	-1.2560868973	-0.056894
C	 2.0719746467	-1.0200759539	-0.8817458475	 0.110245
O	 2.8303071867	 0.0758358155	-0.4539148924	-0.426863
H	 0.8516305358	 1.9608120589	-0.3042662205	 0.141881
H	-0.8927708961	 1.8205020239	-0.6049913843	 0.124909
H	-0.2831540648	 1.8285802349	 1.0590723452	 0.131502
H	 0.9748722197	-0.5943367368	 2.0076428657	 0.102011
H	 1.7132796531	-2.8609597213	 0.5667074281	 0.083506
H	 0.2472360672	-0.4625595831	-2.2477037069	 0.083387
H	 2.5757508905	-1.6159811181	-1.6498153718	 0.091598
H	 3.7599622213	-0.1686723332	-0.4535584929	 0.294535
