16
gdb 56097	4.26601	0.70016	0.61604	4.1951	71.65	-0.2647	-0.088	0.1767	1715.0665	0.120193	-437.930614	-437.920524	-437.91958	-437.968227	33.471	
C	 0.0400024896	 1.4993316054	 0.0337536403	-0.475137
C	-0.1360784346	-0.0057174814	 0.055276071	 0.377995
O	-0.4346976211	-0.6078289309	 1.0609806684	-0.289438
C	 0.0735377878	-0.7236039068	-1.2749901032	-0.320007
C	 0.1186498841	-2.2394265706	-1.1195039786	-0.30409
C	-0.0932939764	-2.9771498593	-2.416666059	 0.282241
O	-0.3729894315	-2.4712059911	-3.474572062	-0.266275
C	 0.0571602944	-4.4476157982	-2.3194914287	 0.233423
N	 0.1814897748	-5.5940681556	-2.2356337311	-0.292904
H	 1.0932461931	 1.7448707782	-0.1467402945	 0.146938
H	-0.5342943241	 1.9486386158	-0.7834157059	 0.142169
H	-0.270343441	 1.9240193976	 0.9888206215	 0.149489
H	-0.7473020021	-0.4388429653	-1.9458274018	 0.154187
H	 0.9785547448	-0.3417598528	-1.7612644599	 0.133212
H	 1.0633806623	-2.5804475052	-0.6777508767	 0.152917
H	-0.64843282	-2.5695248399	-0.4058301197	 0.17528
