13
gdb 133270	3.03348	1.34744	0.93839	0.8252	67.56	-0.2647	-0.0696	0.195	1143.2044	0.087969	-494.007325	-493.999658	-493.998714	-494.040273	27.106	
C	 0.0500593345	 1.4307457739	 0.0809210807	-0.340221
N	-0.014107796	-0.0155384888	 0.1523395484	-0.301117
C	-1.1388079483	-0.6030039117	 0.0575806898	 0.352861
C	-1.1684842043	-2.0680903617	 0.1338282554	 0.036966
N	-2.2049708406	-2.8103673577	 0.0573870854	-0.076131
O	-3.4401676076	-2.1010756479	-0.1202996339	-0.243621
C	-3.380383505	-0.7712281876	-0.18577434	 0.443887
F	-4.5932843671	-0.3090816917	-0.3474840786	-0.031337
N	-2.3911075288	 0.011259795	-0.1168393299	-0.425663
H	 0.7167688311	 1.70799224	-0.7439749015	 0.136496
H	-0.9187776484	 1.9212825793	-0.0544772807	 0.140818
H	 0.5213221607	 1.8027668053	 0.9981509051	 0.136487
H	-0.2328935602	-2.6022935865	 0.2682489399	 0.170576
