19
gdb 38948	3.12664	1.84702	1.58865	2.4223	73.99	-0.2371	0.0839	0.321	907.079	0.163167	-423.005651	-422.999304	-422.99836	-423.036035	26.959	
C	-0.0712202718	 1.597472293	 0.064747419	-0.241992
C	 1.4642435183	 1.4047357202	 0.0064741853	 0.093568
O	 1.7341902862	 0.7755307432	 1.2697835681	-0.278766
C	 0.7812283482	-0.3122394185	 1.2543034222	 0.086204
C	 1.5432711548	-1.6320328957	 1.0978377373	-0.093141
O	 2.5557965783	-1.5327829358	 0.1188698909	-0.237058
C	 2.1392997736	-0.9695884737	-1.1120057352	-0.108377
C	 1.1975822496	 0.2179746576	-0.9741389509	-0.027978
C	-0.0221522395	 0.0466217035	-0.0119615145	-0.084758
H	-0.4640057629	 2.0631952607	 0.9714688368	 0.100541
H	-0.5011124249	 2.0472536244	-0.8324435272	 0.099551
H	 2.1838539533	 2.2019808207	-0.172514188	 0.080597
H	 0.1877554444	-0.3054457771	 2.1753699545	 0.073826
H	 2.0570061666	-1.8930514696	 2.0276002751	 0.114615
H	 0.8248758041	-2.4390768058	 0.8658011248	 0.079672
H	 3.0594736132	-0.6865036657	-1.6349134634	 0.111077
H	 1.6318288139	-1.7328396189	-1.7299629784	 0.084801
H	 0.8917645627	 0.5771686036	-1.9601622621	 0.077256
H	-0.8846683581	-0.5745789759	-0.2519970545	 0.070362
