20
gdb 120452	2.44337	1.22372	1.15847	3.3568	76.46	-0.2415	0.0261	0.2676	1216.8901	0.17062	-440.307716	-440.298041	-440.297096	-440.343447	34.578	
C	 0.1567306817	 1.6374260055	 0.0550183159	-0.403214
C	 0.1016632074	 0.1163405948	-0.0102041905	-0.13375
C	 0.813301816	-0.5840172999	-1.2121392695	-0.192766
N	 1.6542129887	-1.2838631302	-0.2283649774	-0.056058
C	 2.9341973785	-1.9455828011	-0.3297292304	-0.228714
C	 4.0984010037	-0.9630476216	-0.5394882522	-0.044051
O	 4.0333703255	 0.1524749472	 0.3247511645	-0.417746
C	 1.1578465204	-0.6054840731	 0.8551369235	 0.416627
O	 1.5210652865	-0.5750665219	 2.0083648174	-0.408768
H	 1.1780147002	 1.9946604687	-0.1118672766	 0.137014
H	-0.4971281363	 2.0919520067	-0.6958438849	 0.117712
H	-0.1619826537	 1.9851860417	 1.0418949558	 0.138092
H	-0.9126275603	-0.2551628888	 0.1601139457	 0.101113
H	 0.2026221099	-1.2516102011	-1.8279469902	 0.109455
H	 1.3663153141	 0.1095593559	-1.8552707832	 0.116901
H	 3.0780354095	-2.4835348106	 0.6145885133	 0.136193
H	 2.9149299726	-2.6910814425	-1.1325717791	 0.114702
H	 5.042961207	-1.5204884718	-0.4281523154	 0.092315
H	 4.0812377994	-0.5604937866	-1.5594298914	 0.105977
H	 3.7191277591	-0.1391221412	 1.1904463449	 0.298967
