19
gdb 53937	1.99808	1.44908	1.28296	0.5822	72.59	-0.2443	-0.0499	0.1945	1140.0644	0.15408	-460.212086	-460.201527	-460.200583	-460.247695	37.943	
C	-0.4711672334	 0.376693807	 0.7600688926	-0.491771
C	 0.4373588448	 0.2589916407	-0.4340807781	 0.360717
O	 1.4627472388	 0.8976712189	-0.5514281834	-0.331131
C	 0.0556961302	-0.7016756121	-1.5896492544	 0.165101
C	-1.3800096313	-0.4382486573	-2.0772662179	-0.42213
O	 0.9668659308	-0.5127650479	-2.6392877542	-0.462039
C	 0.1546089243	-2.1559734244	-1.0371670615	 0.337077
C	 1.3502977479	-2.9647709482	-1.4800015342	-0.465311
O	-0.6927517473	-2.5875926809	-0.2890107657	-0.309717
H	 0.0616602646	 0.859289324	 1.5803250394	 0.146333
H	-1.3339190117	 0.9968007784	 0.4890558286	 0.155094
H	-0.8593772101	-0.6005460234	 1.0550886335	 0.176258
H	-1.5063419453	 0.6172211956	-2.3332624947	 0.124503
H	-1.5586605698	-1.0292517483	-2.9792860988	 0.137533
H	-2.1088460908	-0.7277126197	-1.3193668673	 0.14294
H	 1.613681729	 0.1312873746	-2.3007564376	 0.292824
H	 2.2753842275	-2.4311251538	-1.2379218426	 0.146411
H	 1.3302767849	-3.9381667635	-0.9891408815	 0.136164
H	 1.3461139771	-3.0790940397	-2.5674907821	 0.161144
