13
gdb 12619	3.68512	2.08431	1.34266	5.7581	62.74	-0.241	-0.093	0.148	850.727	0.095573	-398.649933	-398.642685	-398.641741	-398.681675	25.584	
C	-0.0102275272	 1.468969664	-0.0060980172	-0.355421
N	 0.0107271651	 0.0210934706	-0.0126931185	-0.092938
C	 0.0565746832	-0.7975780828	-1.1361050437	 0.005625
C	 0.069736129	-2.1201319934	-0.854522745	-0.289903
C	 0.0289907916	-2.2521648779	 0.5996736075	 0.306266
O	 0.0243161965	-3.2208322305	 1.3179363588	-0.295908
C	-0.009982789	-0.7691575484	 1.1332423776	 0.309633
O	-0.0477300245	-0.3777009353	 2.2695881802	-0.325114
H	 0.8925077212	 1.8825049722	-0.4680593481	 0.140746
H	-0.8896642285	 1.8563941176	-0.5311801558	 0.140682
H	-0.0516774351	 1.7833590975	 1.0381838321	 0.175657
H	 0.077682228	-0.3265615921	-2.1112471339	 0.148675
H	 0.1036381296	-2.9297996516	-1.565174884	 0.132001
