21
gdb 30919	1.90491	1.82364	1.00638	2.6137	87.76	-0.1847	0.0477	0.2325	1244.09	0.182356	-383.298553	-383.288389	-383.287445	-383.333812	36.483	
C	 0.6668321567	 0.5962693855	 0.7642874865	-0.327464
N	-0.0990491963	 0.0687841056	-0.3665814227	-0.378684
C	-1.3159232601	-0.5690020765	-0.0709215062	 0.160026
C	-1.5552096103	-1.9165762894	 0.1187448766	 0.262675
C	-0.529618146	-3.0035647611	 0.0207786443	-0.506099
C	-2.9410814553	-2.0517397548	 0.4210976943	-0.268116
C	-3.5003000352	-0.797130272	 0.4006919272	-0.101517
N	-2.5130788927	 0.1146800541	 0.1197845065	-0.019253
C	-2.7247377128	 1.5250834206	-0.113353391	-0.349626
H	 1.6125270914	 1.0078738992	 0.3976686753	 0.114963
H	 0.1497921429	 1.3803537012	 1.3418625176	 0.09722
H	 0.8970027181	-0.2226553692	 1.4512967651	 0.135288
H	-0.1794402861	 0.7512356434	-1.1099014781	 0.222144
H	-0.2675186728	-3.4192602527	 1.0020973731	 0.11503
H	-0.8873760602	-3.8386451395	-0.5922510846	 0.115931
H	 0.387179642	-2.6160139479	-0.4325416813	 0.127226
H	-3.4648149928	-2.9729823943	 0.6292338744	 0.08577
H	-4.5190150016	-0.4727078987	 0.5467911677	 0.106777
H	-1.8850080902	 2.1076409462	 0.2741620162	 0.138089
H	-2.8445409438	 1.7573673432	-1.1797480762	 0.129996
H	-3.6297999049	 1.8429238571	 0.4088810553	 0.139624
