19
gdb 91678	4.19376	1.13351	1.07803	4.2475	80.49	-0.2234	0.0305	0.2539	1173.6532	0.1614	-382.055502	-382.047706	-382.046762	-382.087594	30.577	
C	 0.0620225415	 1.4245912439	-0.1220543757	-0.330263
N	 0.004553701	-0.0074718654	 0.1140600655	-0.067453
C	-1.3661656772	-0.5631219474	 0.3189526552	-0.190263
C	-1.1347460271	-1.353925587	 1.6166263508	-0.039851
C	-0.3751899663	-0.301444082	 2.4791881741	-0.259677
C	 0.674730381	-0.4690096155	 1.3420426278	 0.009485
C	 0.2751134294	-1.9837687185	 1.3042283311	-0.148121
C	 0.8305850388	-2.8193932669	 2.3509874755	 0.266853
N	 1.2776708723	-3.4969900402	 3.1749870369	-0.337055
H	 1.1051143411	 1.733980567	-0.2434574188	 0.124258
H	-0.4638515549	 1.6575041455	-1.0531910677	 0.126597
H	-0.3869472141	 2.0384534903	 0.679976625	 0.09618
H	-2.116711975	 0.2246791291	 0.4623373723	 0.102019
H	-1.6761253723	-1.1863503434	-0.5267822655	 0.109011
H	-1.9532754326	-1.958866692	 2.0024863548	 0.08978
H	-0.8367404279	 0.6796400377	 2.6095106998	 0.102394
H	-0.0420250054	-0.6972562668	 3.4391098071	 0.134633
H	 1.7130165614	-0.1504456173	 1.4225543435	 0.089034
H	 0.3941475963	-2.4653450611	 0.3307402886	 0.122438
