20
gdb 38769	3.04309	1.56824	1.16538	1.5963	84.22	-0.2392	0.016	0.2552	1083.8754	0.17453	-365.981982	-365.974761	-365.973817	-366.013237	30.17	
C	-0.0005901331	 1.5437229981	-0.0151893738	-0.306306
C	 1.3023497518	 0.7822415763	-0.0033405659	-0.00271
C	 2.1709562761	 0.7778947782	 1.2423353165	-0.247992
C	 2.688807149	-0.6138457708	 1.549972991	-0.015497
N	 2.6078049655	-1.0537144817	 2.9554145467	-0.345088
C	 1.7315531691	-1.6813611251	 1.9332095181	-0.069879
C	 0.266021802	-1.4439495445	 2.0512384896	-0.048477
C	-0.4795321551	-0.7138526674	 1.2178873783	-0.073821
C	-0.0061133733	 0.0262332487	 0.014475297	-0.05522
H	-0.2763679638	 2.063512633	 0.8971572481	 0.114019
H	-0.314406697	 2.0417965181	-0.9262322718	 0.107485
H	 1.8476325604	 0.7492281805	-0.9433124608	 0.077781
H	 3.0039130923	 1.4825363796	 1.1303520209	 0.093655
H	 1.591358673	 1.1145956099	 2.1054499765	 0.117795
H	 3.5589955696	-0.9313027413	 0.9768243445	 0.076199
H	 3.3796858379	-1.679361751	 3.1732141604	 0.226404
H	 1.9963860395	-2.6994267694	 1.6451402382	 0.086575
H	-0.219821099	-1.9369650855	 2.8920266388	 0.088367
H	-1.5505124202	-0.6523884408	 1.4115175472	 0.086641
H	-0.2996222947	-0.4356801748	-0.9270393593	 0.09007
