22
gdb 93035	2.72714	1.43774	1.09993	1.5643	86.8	-0.2361	0.0131	0.2492	1184.0387	0.196881	-367.199396	-367.191153	-367.190209	-367.23174	33.416	
C	-0.2849004864	 1.4788552855	 0.0625431738	-0.390426
C	 0.0664872101	-0.011538797	-0.0310538297	 0.034839
C	 0.8414424959	-0.338194964	-1.3414914178	-0.260057
C	 2.3288094744	-0.0573135168	-1.2898300019	-0.053901
C	 3.1784448336	-0.7923198907	-0.5698790168	-0.051758
C	 2.7130919623	-1.9464500507	 0.251101616	-0.066708
N	 2.8815031677	-1.8563536024	 1.719129841	-0.343381
C	 1.525068334	-1.7938380376	 1.1351723831	-0.046427
C	 0.8319765823	-0.449176561	 1.2369313385	-0.19107
H	 0.6218822912	 2.0945972502	 0.0503620979	 0.118544
H	-0.9164903244	 1.7936839902	-0.7748999436	 0.106603
H	-0.8224557834	 1.7021748968	 0.9904741532	 0.110705
H	-0.8748712325	-0.5751247919	-0.0824261337	 0.066238
H	 0.693543014	-1.3989933683	-1.5712895037	 0.105005
H	 0.3833322264	 0.2173075435	-2.1666279682	 0.091263
H	 2.7084704458	 0.781507079	-1.8682609542	 0.086898
H	 4.2425544886	-0.5678731538	-0.5619885833	 0.089
H	 2.8779180228	-2.9306693347	-0.189679372	 0.086375
H	 3.0572955766	-2.7847529395	 2.0956150709	 0.226674
H	 0.8916149497	-2.6716372961	 1.2547705501	 0.075428
H	 1.604859321	 0.2915657339	 1.4621989788	 0.116117
H	 0.1456130803	-0.4467969745	 2.0926687318	 0.090039
