15
gdb 11945	3.15166	1.99596	1.54213	2.1469	64.81	-0.215	-0.0282	0.1868	840.1251	0.117721	-399.753392	-399.745829	-399.744885	-399.785127	28.083	
O	-0.1560255398	 1.358009549	-0.0388706264	-0.434895
C	-0.0540608136	-0.0035647347	-0.0094396455	 0.362278
C	-0.2402854538	-0.9235135879	-1.1533150777	-0.373708
C	-1.139409913	-1.1641273638	 0.0450558529	 0.170914
N	-0.3558189952	-1.8604299423	 1.0809034543	-0.372615
C	 0.5854962527	-0.6922533943	 1.1889743627	-0.216997
C	-2.5845782288	-1.0023823462	 0.0029036143	 0.057678
O	-3.186060473	-0.4554990019	-0.8995396957	-0.292837
H	-0.3548288948	 1.6444909807	-0.936817862	 0.303364
H	-0.7827992453	-0.5007347195	-1.9951119468	 0.141989
H	 0.4968288902	-1.6864030362	-1.395224624	 0.126992
H	-0.8946568134	-1.9606557477	 1.9367652825	 0.22557
H	 1.6441101895	-0.9595988271	 1.0999076722	 0.114546
H	 0.4329491195	-0.1024650576	 2.0975809104	 0.124348
H	-3.1179421311	-1.3840895504	 0.9042661189	 0.063373
