16
gdb 123617	4.12817	1.54579	1.22665	1.7805	74.09	-0.2176	0.0172	0.2348	976.6393	0.129173	-396.913763	-396.907452	-396.906508	-396.944307	25.655	
C	 0.0757781032	 1.4894174356	-0.0317909577	-0.233544
C	 1.334994457	 0.6861123401	 0.0031357094	-0.187625
N	-0.0076704051	 0.0291552245	-0.0074022554	-0.095364
C	-0.2150789738	-0.6181626297	-1.3439618199	-0.302897
C	 1.032999039	-0.303497	-2.1263994464	 0.186784
C	 1.9044845085	 0.3972743375	-1.327544054	 0.395807
N	 3.0195082554	 0.6262858468	-2.0504812331	-0.345489
N	 2.9252650435	 0.1065774323	-3.3012363031	-0.226113
C	 1.7134124434	-0.4533752971	-3.3507595384	-0.162089
H	-0.2834321497	 1.97681521	 0.8712774768	 0.119458
H	-0.1455794264	 2.0133955993	-0.9596425861	 0.118402
H	 1.9252870974	 0.5986408103	 0.9104655093	 0.105463
H	-0.3570631334	-1.6929159755	-1.1821411728	 0.122164
H	-1.1380052939	-0.2324027149	-1.7913946771	 0.119853
H	 3.8601615838	 1.1138859068	-1.7926110816	 0.273316
H	 1.4011525411	-0.9442390759	-4.2608709299	 0.111874
