20
gdb 8382	4.59809	1.21239	1.11915	1.5112	75.64	-0.2553	0.079	0.3343	1137.4191	0.176258	-348.981112	-348.972663	-348.971719	-349.013801	32.419	
C	 0.1790755194	 1.5111112725	-0.459888908	-0.404119
C	 0.1662012429	 0.0170824538	-0.2226539476	-0.06342
C	 1.455429148	-0.7366358024	 0.0301090717	-0.348275
C	 0.4512269257	-0.5520956879	 1.1351754083	 0.375933
C	 0.7145148451	 0.1804657486	 2.4592519841	-0.343213
C	 0.4034123289	-1.1621567575	 3.1833745465	 0.176646
O	-0.314980866	-1.1576478962	 4.3896904599	-0.434417
C	-0.2668079792	-1.6855942199	 1.8796803243	-0.347021
H	 0.9504589552	 2.001107336	 0.1432407441	 0.115753
H	 0.3828092842	 1.7448455629	-1.5107620976	 0.116824
H	-0.7831276791	 1.9668425114	-0.1988669476	 0.113239
H	-0.580294235	-0.5226206149	-0.8026036669	 0.07911
H	 1.5718829497	-1.7253710488	-0.403245182	 0.107113
H	 2.3754687702	-0.1603210757	 0.0779660596	 0.106425
H	 1.6967359781	 0.6304890425	 2.6245246979	 0.10092
H	-0.0567465508	 0.9307374765	 2.6767849283	 0.088635
H	 1.3251671181	-1.7114554454	 3.3931586561	 0.096193
H	-1.1373063422	-0.677978571	 4.2432120638	 0.274922
H	-1.3538349783	-1.535659332	 1.910552292	 0.087725
H	-0.0636543149	-2.7172519025	 1.5802062431	 0.101028
