19
gdb 102763	3.23307	0.74615	0.63465	3.1548	82.58	-0.248	-0.0261	0.2219	1753.233	0.155598	-423.00846	-422.997459	-422.996515	-423.047236	36.927	
C	-0.0044184622	 1.47704905	 0.0149318998	-0.499636
C	 0.0006554674	 0.0209871373	 0.0047244615	 0.12095
C	 0.0159478584	-1.1834160037	 0.0073005884	 0.023697
C	-0.0131300213	-2.6426999038	-0.0165027583	-0.202287
C	-1.4712019959	-3.1548549504	 0.0848896947	-0.071791
O	-1.5297351277	-4.5637555841	 0.2063025983	-0.418997
C	 0.6941766538	-3.1938074325	-1.2832474601	-0.271751
C	 0.8920361005	-4.6929906051	-1.250136319	 0.147167
O	 0.439890806	-5.4609946127	-2.0643059066	-0.258085
H	 1.0151501176	 1.8778295504	 0.0083511752	 0.150374
H	-0.5244973979	 1.879879716	-0.8610464338	 0.149975
H	-0.507356719	 1.8660781415	 0.9070178037	 0.15114
H	 0.516641561	-3.0298019246	 0.8655015172	 0.113332
H	-1.9277015697	-2.7358807984	 0.9864845509	 0.121488
H	-2.0463687718	-2.7898344989	-0.7769858015	 0.105637
H	-1.5206737058	-4.9563609754	-0.672358058	 0.301284
H	 0.1355938084	-2.926627028	-2.1853852775	 0.123886
H	 1.6889864252	-2.7346654526	-1.3468527552	 0.130245
H	 1.5230077529	-5.057511115	-0.40839329	 0.083371
