17
gdb 91446	2.5215	1.73141	1.3397	1.3736	68.05	-0.2511	-0.0221	0.229	987.5754	0.135133	-458.957627	-458.949543	-458.948598	-458.99004	31.043	
C	 0.0582770552	 1.4981983468	 0.0035378191	-0.507037
C	-0.0284869407	 0.0053897576	 0.0781665243	 0.229797
O	 0.5285219858	-0.749230253	-1.0759390044	-0.34392
C	-0.2616610469	-1.8940846632	-0.6047362519	-0.046818
C	 0.3976952835	-2.228289029	 0.7438846657	-0.284305
C	 0.6683815766	-0.762872974	 1.2334232781	 0.127341
O	 2.0370427954	-0.4393804453	 1.310494537	-0.436632
C	-1.2999281321	-0.8327266711	-0.1896816795	 0.41675
O	-2.4768489614	-0.6588844623	-0.2321616737	-0.312509
H	 1.0894806891	 1.8310120897	 0.1484881964	 0.140284
H	-0.3095845987	 1.8626088024	-0.958334263	 0.140652
H	-0.5559689281	 1.9366398306	 0.7963551366	 0.140807
H	-0.4263373583	-2.6664736333	-1.3528351209	 0.107927
H	-0.2563143434	-2.797980329	 1.4097908447	 0.121545
H	 1.3384242099	-2.7713142246	 0.6242038281	 0.120133
H	 0.2394563214	-0.5435787256	 2.2138174478	 0.100831
H	 2.3913350827	-0.5631589268	 0.4198661756	 0.285153
