16
gdb 3551	5.0569	2.81896	2.50978	1.773	62.81	-0.2398	0.0815	0.3212	619.0303	0.138772	-288.583563	-288.577776	-288.576832	-288.612808	22.902	
C	-0.035220316	 1.6048120985	 0.0381954788	-0.42794
C	 0.1066183619	 0.0898693231	-0.0119090577	 0.041692
C	 0.8678823831	-0.6144430291	-1.1241556327	-0.057832
C	 2.3066984299	-0.7429152015	-0.7312826518	-0.036776
C	 2.5033160306	-0.1288224043	 0.6416253802	-0.237938
C	 1.0880086595	-0.6753364874	 0.9101635124	-0.025439
N	 1.2976954811	-1.7381619737	-0.2217242986	-0.16461
H	 0.9265570986	 2.1119937863	-0.0784103491	 0.119648
H	-0.6929775795	 1.9579786246	-0.7633514346	 0.119162
H	-0.4742571593	 1.9261863385	 0.9893648817	 0.117147
H	-0.8767799186	-0.3855165784	 0.0788195912	 0.085155
H	 0.536950711	-0.8116303007	-2.1383465937	 0.088803
H	 3.0667322601	-1.0370484458	-1.446636028	 0.092717
H	 3.249345484	-0.6909140368	 1.2094740096	 0.112168
H	 2.6945137247	 0.9438881165	 0.7449234212	 0.095533
H	 0.787280069	-1.0026624398	 1.9037741212	 0.078509
