18
gdb 50843	3.7183	0.90629	0.75196	4.1863	75.07	-0.2512	-0.0232	0.228	1467.9694	0.148923	-435.26783	-435.258945	-435.258001	-435.302256	32.055	
N	 0.4357107137	 0.8560510239	-1.6859672294	-0.495713
C	-0.1296015708	 0.3432665987	-0.6743059229	 0.353644
C	-1.608745079	-0.0121604672	-0.724915319	-0.28215
C	-2.3418232349	 0.1784144211	 0.5827601475	-0.000241
C	-3.5657468193	-0.5802631833	 0.9155390187	-0.249388
N	-2.3006548264	-0.8883962274	 1.6177235078	-0.330101
N	 0.4937505879	 0.0198006751	 0.5561162505	-0.346109
C	 1.8223680482	 0.1762048188	 0.8642475666	 0.164575
O	 2.6837621162	 0.581508562	 0.1162319805	-0.298654
H	 1.4306681388	 1.0012739291	-1.5105954572	 0.252633
H	-2.0440579922	 0.5981519442	-1.5201657714	 0.146925
H	-1.7069832273	-1.0606900809	-1.0412455747	 0.116065
H	-2.2468964772	 1.1725687418	 1.0158230508	 0.11069
H	-4.3333611024	-0.1249055692	 1.533469021	 0.131114
H	-3.9341474057	-1.3020037908	 0.1914989075	 0.122558
H	-1.915871495	-1.7363030959	 1.2027771529	 0.230841
H	-0.1061708747	-0.2893980045	 1.3096802608	 0.276891
H	 2.0306623198	-0.1238126855	 1.9092098301	 0.096418
