10
gdb 128881	7.02778	0.91339	0.80833	1.4839	68.91	-0.3171	-0.1059	0.2112	1248.668	0.055077	-430.471407	-430.464466	-430.463522	-430.503282	24.329	
N	 0.1073821435	-1.1425405789	-0.0049773221	-0.30124
C	 0.0233839611	 0.0109906493	 0.0024534917	 0.253198
C	-0.1025577821	 1.4206364727	 0.0118920683	 0.361487
C	-1.1880456082	 2.2414767261	 0.0312266968	-0.40886
C	-0.6049125937	 3.5384164545	 0.0303104447	 0.288432
N	 0.7161895804	 3.4845597847	 0.0121131156	-0.14941
O	 1.0344772845	 2.1564267563	 0.0005114305	-0.182291
C	-1.2811709086	 4.7921670556	 0.0463794214	 0.259967
N	-1.8682256946	 5.7874060464	 0.0598252271	-0.301449
H	-2.2305160922	 1.9747046534	 0.043986766	 0.180167
