20
gdb 64387	2.27615	1.51764	1.16485	2.9354	78.49	-0.2641	0.0277	0.2918	1137.6838	0.170611	-403.18288	-403.173566	-403.172622	-403.216851	34.628	
C	 0.252635024	 1.5095701867	-0.2137599758	-0.435812
C	 0.0188159101	 0.0088013135	 0.0067717613	 0.359908
C	-1.4666042716	-0.3075670178	 0.1343794662	-0.432407
O	 0.5265400877	-0.7541240166	-1.0883374331	-0.284493
C	 1.9309379651	-0.93944943	-0.9397698944	-0.088312
C	 2.2584396002	-0.764702515	 0.5644292406	-0.269959
C	 0.8596979933	-0.5609899192	 1.196266203	-0.163499
C	 0.8594675762	 0.2571974903	 2.4007772716	 0.277436
N	 0.8486876645	 0.9121645819	 3.3536441671	-0.33801
H	 1.3167950018	 1.7482417776	-0.2996508919	 0.118479
H	-0.2386097339	 1.8172935935	-1.1405684929	 0.127845
H	-0.1563962617	 2.097879307	 0.6118896025	 0.140844
H	-2.0052375074	 0.0439272307	-0.7498395162	 0.129742
H	-1.6209747023	-1.3865370642	 0.2219092599	 0.122353
H	-1.8914579708	 0.1843946899	 1.0141926311	 0.132283
H	 2.1685533829	-1.9412717496	-1.3096066156	 0.115046
H	 2.487624872	-0.2149161571	-1.5487824833	 0.105393
H	 2.7675300292	-1.6310363526	 0.9901071072	 0.126084
H	 2.8915960056	 0.1074822825	 0.7392560268	 0.131049
H	 0.4334802353	-1.5366073612	 1.4532719959	 0.126029
