16
gdb 35074	3.82735	1.34829	1.28724	3.9854	79.46	-0.2337	-0.0567	0.177	1005.4022	0.125527	-363.520065	-363.513289	-363.512345	-363.551285	27.178	
N	-0.1196130078	-1.1695761776	 0.1209679632	-0.322793
C	-0.0916905972	-0.0155265871	 0.059983229	 0.267744
C	-0.0408433911	 1.4449577043	-0.0202264259	-0.188035
C	-0.5774320316	 2.0739814523	 1.2789309883	-0.112968
C	 0.2338905243	 3.0857060762	 1.6374021304	 0.056313
C	 1.3486205177	 2.7548015969	 2.6366698712	-0.259904
C	 2.1503403363	 2.51546114	 1.2992454544	-0.056618
C	 1.3856180565	 2.0546177336	-0.0056291347	-0.049992
C	 1.2427300792	 3.4315526019	 0.5283938335	-0.130182
H	-0.5453026875	 1.7411990794	-0.9513849621	 0.132427
H	-1.0877795856	 1.441044337	 1.9973838461	 0.123416
H	 1.8065142604	 3.5968979452	 3.1667154263	 0.115224
H	 1.1680738274	 1.9225702876	 3.3213131173	 0.116885
H	 3.2365943595	 2.5022343284	 1.2566190926	 0.104394
H	 2.0541833781	 1.8429876403	-0.8371156862	 0.101602
H	 1.4283290015	 4.3860321016	 0.0549693667	 0.102487
