21
gdb 109571	2.518	1.30282	0.99073	2.1734	79.61	-0.2226	-0.0205	0.2021	1284.6241	0.179805	-424.227797	-424.217525	-424.216581	-424.263093	36.742	
C	-0.7768446314	 1.7883218088	-0.0791507199	-0.247816
O	-0.5472124366	 0.532182778	-0.695879704	-0.24257
C	-1.25436746	-0.5116355593	-0.1039471822	 0.048217
C	-1.0145308025	-1.9379299757	-0.6987428467	-0.088946
C	 0.3212982642	-2.0640973418	-1.4253068419	-0.386255
C	-1.0403832031	-2.5275445863	 0.7620158581	-0.095405
C	-0.0996545907	-3.6364946543	 1.2094260799	-0.411114
C	-0.7716636351	-1.0937913734	 1.2452891206	 0.348582
O	-0.2013478301	-0.6323347327	 2.1938460044	-0.311152
H	-0.1881856564	 2.5249455759	-0.63040306	 0.12803
H	-1.8404706565	 2.0690058006	-0.1331014747	 0.103359
H	-0.4640690886	 1.7827454436	 0.9711824821	 0.141232
H	-2.3345347523	-0.2882406706	-0.0461715614	 0.08159
H	-1.8281340766	-2.2920619652	-1.3352691787	 0.07667
H	 1.1524507133	-1.698081641	-0.8143927631	 0.129119
H	 0.5242779701	-3.1065822531	-1.6886557492	 0.113628
H	 0.3114031747	-1.4712449541	-2.3433306648	 0.130642
H	-2.0754797836	-2.7870358623	 1.0199732578	 0.101321
H	 0.9393328586	-3.4084316571	 0.9577817325	 0.128415
H	-0.1563098665	-3.7596167005	 2.2950494499	 0.13373
H	-0.361593891	-4.5927079494	 0.7457743813	 0.118724
