18
gdb 50632	2.58665	1.37668	1.15967	1.9472	73.21	-0.2551	-0.0441	0.2111	1116.4134	0.148266	-439.113028	-439.104677	-439.103733	-439.146839	30.749	
N	-0.0223921723	 1.3990602619	-0.1307460865	-0.515398
C	 0.1565157168	 0.1596748088	-0.3026436776	 0.401968
C	-0.6786536991	-0.892430412	 0.3771350915	-0.299814
C	-1.137206003	-1.9369898863	-0.6534564881	-0.206499
C	 0.0727499096	-2.5738857746	-1.3754035947	-0.233884
C	 1.3418654983	-1.7241622495	-1.205590637	 0.011253
O	 1.1040594735	-0.3124856336	-1.1812226379	-0.259551
C	 2.1802601274	-2.1185784684	 0.0145328013	 0.130804
O	 2.2346816192	-3.2300033315	 0.4696421717	-0.234049
H	 0.6397605406	 1.9342204173	-0.6970878981	 0.219411
H	-0.0934926202	-1.3816957546	 1.1675836253	 0.131434
H	-1.5168814578	-0.391071356	 0.861619632	 0.137703
H	-1.7412996043	-2.7059544155	-0.1653068798	 0.114813
H	-1.7860638816	-1.4415339148	-1.3826373592	 0.120214
H	 0.30411117	-3.561741149	-0.9665504497	 0.139063
H	-0.1424099734	-2.7022764265	-2.4385612753	 0.113335
H	 2.0098405407	-1.8682804039	-2.0646129194	 0.125487
H	 2.7702500255	-1.2738875418	 0.4349073713	 0.103707
