14
gdb 4741	5.19121	1.40984	1.11639	5.7099	70.63	-0.2377	-0.0562	0.1815	1012.5574	0.107755	-378.777177	-378.769832	-378.768888	-378.809143	26.128	
C	 0.0130935901	 1.5176668444	 0.0025684003	-0.490024
C	 0.0035785967	 0.0233716013	-0.0222519876	 0.282724
C	-0.1349448721	-0.8134236732	-1.1172593546	-0.167092
N	-0.0796661937	-2.0832516079	-0.6237474281	-0.269199
C	 0.0882468332	-1.9878197738	 0.7359565194	 0.246771
C	 0.1849400395	-3.1898535274	 1.563237848	 0.090184
O	 0.3323431304	-3.2126606071	 2.7605632142	-0.253598
N	 0.1401958084	-0.7198459459	 1.1129490461	-0.31356
H	 0.9531778334	 1.8941693855	 0.4182039447	 0.143457
H	-0.1086517873	 1.9306414797	-1.0022030746	 0.119331
H	-0.7950940766	 1.9017175029	 0.6331222307	 0.143453
H	-0.2635181126	-0.6105905505	-2.1681143824	 0.140086
H	-0.149123143	-2.934868348	-1.1574329507	 0.273887
H	 0.1076796637	-4.13311024	 0.9693426045	 0.053581
