16
gdb 9078	4.96611	0.87346	0.76846	2.9258	66.88	-0.2589	-0.0399	0.219	1394.8284	0.12839	-379.926544	-379.91742	-379.916476	-379.961405	30.901	
C	 0.1457619369	 1.4994079745	 0.2008578319	-0.395089
C	 0.0194762108	-0.0205938572	-0.0346064043	-0.09818
N	-1.3367740035	-0.5663967617	 0.0118994453	-0.301577
C	-1.9873793464	-0.5280488008	 1.3118093698	-0.234546
C	-3.1764295781	-1.4804979648	 1.3356068792	 0.151512
O	-4.1707616309	-1.2977700544	 1.9851917102	-0.230031
C	 0.6226353445	-0.3781564888	-1.3308817933	 0.278976
N	 1.0946192376	-0.6271565327	-2.3552664674	-0.311867
H	 1.1918880969	 1.8143822	 0.1569501516	 0.144168
H	-0.4109344559	 2.0527112614	-0.5612798501	 0.136016
H	-0.252160995	 1.7598534969	 1.1848607751	 0.132805
H	 0.5973699701	-0.5437442722	 0.7388323523	 0.136094
H	-1.9118702734	-0.1209625092	-0.6959135587	 0.235847
H	-1.2761713593	-0.9088668532	 2.0605588737	 0.137327
H	-2.324615984	 0.4591475653	 1.6611596728	 0.122273
H	-3.0355461005	-2.3801805431	 0.696725332	 0.09627
