19
gdb 84455	2.70016	1.53342	1.24984	2.4655	75.74	-0.2471	0.0018	0.249	1058.4128	0.159371	-423.017866	-423.009515	-423.00857	-423.050388	32.871	
O	 0.0957970986	 1.4512275473	-0.0765503082	-0.431203
C	 0.0594278252	 0.0315082994	-0.0559910753	 0.07182
C	 0.7391121111	-0.5927479047	 1.1516295787	-0.111972
C	 0.0159949689	-1.5648538964	 1.7049973202	-0.160912
C	-1.2829944805	-1.8105887847	 0.966224542	 0.385918
O	-1.3368871292	-3.078064491	 0.3408717698	-0.478423
C	-2.5679196492	-1.313688171	 1.6857411778	-0.291369
C	-2.3984033055	 0.0502325992	 0.9590365876	-0.238291
C	-1.3498359716	-0.5971033558	-0.000036049	-0.068007
H	-0.3203316204	 1.7677164025	 0.7324321548	 0.27825
H	 0.579600403	-0.2571176053	-0.9776363201	 0.099801
H	 1.7130232359	-0.2525136214	 1.488401875	 0.102829
H	 0.3047549387	-2.1527769884	 2.5724359717	 0.092009
H	-1.1704455967	-3.7530656339	 1.0078305978	 0.275006
H	-3.4378128005	-1.8681481207	 1.3238368362	 0.108653
H	-2.572503886	-1.3088092171	 2.77954544	 0.090777
H	-3.2889519902	 0.4647552528	 0.4850537179	 0.109985
H	-1.9739891563	 0.8179450676	 1.612539512	 0.084732
H	-1.7662816653	-0.8347440385	-0.9791129291	 0.080395
