19
gdb 122725	8.89508	0.4329	0.4171	1.5339	96.31	-0.2435	-0.022	0.2215	2564.7658	0.155443	-385.827119	-385.816353	-385.815409	-385.864322	37.082	
C	 0.0141688537	 1.5201781979	 0.0096128353	-0.384169
C	-0.0174385508	-0.0102318632	 0.0019181284	-0.18509
C	-1.4361608451	-0.560536842	 0.0127065105	-0.018498
O	-1.3706180213	-1.9748809672	 0.0046786433	-0.246577
C	-2.6482401928	-2.5751356518	 0.0137918848	-0.23717
C	-2.522348739	-4.024684494	 0.004755969	 0.310846
C	-2.4536998313	-5.2319426493	-0.0023154141	-0.161099
C	-2.3679956102	-6.5897765457	-0.0103369759	 0.290057
C	-2.2934263131	-7.7948496164	-0.0176285224	-0.555125
H	 1.0432105794	 1.8902381305	 0.0016231176	 0.120127
H	-0.494333215	 1.9354939268	-0.8674950396	 0.117151
H	-0.4772818571	 1.92625042	 0.9006577071	 0.117151
H	 0.4982472197	-0.3982047318	-0.8836424513	 0.111498
H	 0.5151687487	-0.4073872164	 0.873279265	 0.111498
H	-1.9800402731	-0.2085013544	 0.9068579719	 0.085899
H	-1.997120296	-0.1992361751	-0.8670823173	 0.085899
H	-3.2203269437	-2.2621913631	 0.9055207421	 0.122548
H	-3.2373908586	-2.2527153492	-0.8633198692	 0.122541
H	-2.2254505043	-8.8542901956	-0.0245146253	 0.192512
