14
gdb 46832	2.72977	1.66353	1.19321	5.0419	68.83	-0.2521	-0.0129	0.2392	1001.4284	0.101039	-436.659041	-436.651573	-436.650629	-436.691016	28.287	
O	-0.0451678186	 0.0177718057	 0.2509189611	-0.327349
C	-0.0133512433	 1.187110131	 0.0189589278	 0.431303
O	-1.131521995	 1.9376593622	-0.1811667516	-0.233397
C	-0.8301397497	 3.2670497701	-0.638527805	-0.077244
C	 0.66923144	 3.4298090357	-0.4993060869	-0.132361
N	 1.1042167472	 3.2082564689	 0.8786025542	-0.357188
C	 1.2004933553	 2.0887727829	-0.1209635262	 0.044797
C	 2.464418928	 1.5594888901	-0.5128502616	 0.185212
C	 3.5339604656	 1.1129047297	-0.830355976	-0.377637
H	-1.1514539804	 3.3588933545	-1.6812373565	 0.127203
H	-1.3872424897	 3.9737289667	-0.0178525976	 0.138228
H	 1.2162401228	 4.0950058489	-1.1567378833	 0.124651
H	 2.045013557	 3.5801210602	 1.0014806389	 0.251007
H	 4.4744577307	 0.7074724534	-1.1123077974	 0.202774
