16
gdb 48814	3.08576	1.44008	1.16332	3.0617	69.99	-0.2535	-0.0316	0.2219	1043.6429	0.124959	-437.88961	-437.882059	-437.881115	-437.922003	28.3	
O	-0.2869272319	 0.1368548739	 0.3933187097	-0.260399
C	-0.0632782242	 1.2703706201	 0.0487395725	 0.109148
C	 1.2881079308	 1.8768105688	-0.0524610587	 0.148735
C	 1.3749057322	 3.3923291759	 0.1534995592	-0.361024
C	 1.4959928824	 2.8339663829	-1.2184263495	 0.087452
O	 2.7273391966	 2.8348845829	-1.8844920075	-0.223236
C	 3.7141677706	 2.0243121559	-1.4005159158	 0.123762
N	 3.6926231331	 1.2131783778	-0.4385563668	-0.258477
C	 2.473195666	 1.0046797843	 0.3284996425	-0.242838
H	-0.8940884856	 1.9617599292	-0.2295147241	 0.071055
H	 0.4669905239	 3.9288270897	 0.4097987902	 0.1321
H	 2.2772382252	 3.7529741566	 0.6352768587	 0.145653
H	 0.6889372482	 2.9853302849	-1.9270182458	 0.122686
H	 4.6128200509	 2.1706159632	-1.9947882021	 0.132944
H	 2.7183955155	 1.1271205834	 1.390676515	 0.122873
H	 2.1703176463	-0.0410491095	 0.2105308124	 0.149566
