22
gdb 16417	3.22522	1.98849	1.60572	0.0552	80.71	-0.2738	0.0824	0.3562	924.1627	0.203822	-313.078375	-313.071178	-313.070234	-313.109232	29.903	
C	-0.724241828	 1.3014969123	 0.1705711968	-0.407938
C	 0.0984070415	 0.0277672364	-0.049309006	 0.051732
C	 0.9667758467	 0.1437486724	-1.3283509906	-0.201118
C	 2.2188908317	-0.7652820792	-1.310079901	-0.213713
C	 2.7330555673	-0.9603216103	 0.1258557833	 0.008184
C	 1.6496328186	-1.6978080556	 0.9585174067	-0.227191
C	 0.9935635485	-0.3062668889	 1.1632327976	 0.006204
C	 2.423427603	 0.2935377618	 0.997839965	-0.231611
H	-0.0719134615	 2.1595390947	 0.3726742265	 0.112765
H	-1.3252761047	 1.5441481272	-0.712706683	 0.108102
H	-1.4061039315	 1.1937772364	 1.0209727023	 0.107704
H	-0.6040216345	-0.8090968502	-0.1702578528	 0.065898
H	 0.3602118713	-0.045409416	-2.2202215481	 0.089106
H	 1.2984861783	 1.1851751344	-1.4131145594	 0.097876
H	 1.9951362893	-1.7492574271	-1.7414657899	 0.092646
H	 2.9968128996	-0.3206481174	-1.9418302187	 0.089375
H	 3.749709078	-1.3615190447	 0.139747772	 0.053641
H	 1.0592136386	-2.4723811266	 0.4567473561	 0.080772
H	 2.053761831	-2.1011912174	 1.8916018011	 0.087839
H	 0.4665428273	-0.1237359937	 2.1043274243	 0.050331
H	 2.9742638275	 0.2665818312	 1.9417594961	 0.092055
H	 2.5346275219	 1.2865723404	 0.5530789716	 0.087339
