19
gdb 68194	3.46004	1.28179	1.16648	1.6623	81.61	-0.2431	0.0354	0.2785	1129.2657	0.158621	-385.841447	-385.833318	-385.832374	-385.873691	32.624	
C	-0.0958635069	 1.5114905681	 0.0086575274	-0.491529
C	 0.0895118785	 0.021078211	 0.0282423332	 0.44764
C	 1.0600467357	-0.7735836618	-0.8887582886	-0.272746
C	 0.7070576537	-1.9051514481	 0.1218759782	-0.072564
C	 0.6788957657	-0.7942500575	 1.2132874251	-0.276994
C	-0.809219428	-2.044854498	-0.1429322515	-0.079253
O	-1.1777229885	-0.6428984244	-0.2024013695	-0.316499
C	-1.1634071256	-2.7524828102	-1.3675434675	 0.335512
C	-1.4508641586	-3.3609838986	-2.3634140438	-0.439675
H	 0.8570230349	 2.0184696696	 0.1844643584	 0.117194
H	-0.4899630097	 1.834965297	-0.9595892989	 0.131391
H	-0.8035978121	 1.8202961835	 0.7841471362	 0.128754
H	 0.7712578653	-0.9037000729	-1.9334628107	 0.112444
H	 2.0973502269	-0.4457107446	-0.8016193131	 0.098985
H	 1.2787982401	-2.8264957627	 0.2147402732	 0.082224
H	 1.678989792	-0.4700883998	 1.5067319439	 0.099992
H	 0.0398522851	-0.9368185392	 2.0887920904	 0.09783
H	-1.3242647509	-2.5125695438	 0.7064086314	 0.101148
H	-1.7096759473	-3.8916133074	-3.2461274037	 0.196146
