13
gdb 129722	3.45396	1.31569	0.9563	5.328	64.5	-0.2308	-0.0644	0.1664	1114.6643	0.089235	-486.062064	-486.05391	-486.052966	-486.094897	29.013	
N	 0.1536584423	 1.4676955986	-0.0971485904	-0.616156
C	-0.0041700174	 0.0810037823	-0.0307847268	 0.241687
C	-1.0907542856	-0.7515902329	-0.0751238526	 0.321034
O	-2.3873739178	-0.3940969453	-0.1502924973	-0.436534
N	-0.6756541334	-2.0474991471	-0.0437940469	-0.248595
N	 0.6177649868	-2.0932655349	 0.0281896104	-0.124457
N	 1.0599445914	-0.8014167374	 0.0191183514	-0.049939
C	 2.4318379297	-0.4717018406	-0.002842861	 0.190397
O	 3.3187890355	-1.2686700564	 0.0772139505	-0.248373
H	 0.3657111398	 1.8913979677	 0.8011237837	 0.26273
H	-0.6833923425	 1.9035943383	-0.4660114715	 0.269642
H	-2.905234593	-1.2070932747	-0.2046593122	 0.313532
H	 2.5614159343	 0.6174580924	-0.1139419772	 0.125034
