17
gdb 73064	2.87799	1.23646	1.13506	4.8614	69.46	-0.2522	0.0102	0.2625	1142.1382	0.134176	-458.93879	-458.930301	-458.929357	-458.972209	30.929	
C	 0.0519971941	 1.4128375883	-0.1553717211	-0.489992
C	 0.2258964269	-0.0616802549	 0.0062445862	 0.404876
O	-0.8199203812	-0.9096285012	-0.4695074453	-0.313448
C	-0.6360950895	-1.8114582662	 0.6593136518	-0.093073
C	 0.5466722752	-1.0008857867	 1.1733836994	-0.232193
C	 1.5212170299	-0.8256739357	 0.0419430794	 0.038552
O	 1.7984118686	-1.9165583109	-0.804518157	-0.196121
C	 1.5835241217	-1.7399842464	-2.1320772891	 0.186073
O	 1.7889927298	-2.6045214067	-2.9270711317	-0.275917
H	 0.9049285253	 1.9512384445	 0.2670890567	 0.130093
H	-0.0244860844	 1.6735196211	-1.2169673921	 0.140435
H	-0.860256223	 1.7530504898	 0.3435888662	 0.137881
H	-1.5098755304	-1.7774345014	 1.3163895925	 0.11875
H	-0.4363406597	-2.8381695806	 0.3391383892	 0.131556
H	 0.7999106623	-0.8146307558	 2.2084176123	 0.109431
H	 2.4035239998	-0.2398708879	 0.2875720715	 0.114804
H	 1.2177211146	-0.7273026394	-2.3734047088	 0.088293
