21
gdb 42066	2.61571	1.46711	1.02561	0.6577	90.91	-0.2185	0.019	0.2376	1210.8684	0.184393	-349.927608	-349.919073	-349.918129	-349.960247	33.647	
C	-0.1265371401	 1.212356164	-0.1405434492	-0.169909
C	 0.9166353132	 2.3256005709	 0.1839346912	-0.251394
C	 1.8932631125	 1.8893940737	 1.2418174449	-0.00808
C	 1.7038190805	 1.8794215841	 2.5623695031	-0.051964
C	 2.4844029365	 0.9400517292	 3.4340034525	-0.241493
C	 1.8007399014	-0.4934768111	 3.4832904174	-0.325938
C	 1.3055942298	-0.8605041568	 2.161290762	-0.059533
C	 0.9153349925	-0.7157875461	 1.0279901417	 0.193034
C	 0.4170414065	-0.2407102132	-0.2621147649	-0.344216
H	-0.8850381632	 1.2097952924	 0.6492211282	 0.110892
H	-0.6385135335	 1.4710113659	-1.0751102521	 0.093909
H	 1.4539086435	 2.594626379	-0.73318503	 0.096438
H	 0.3611741556	 3.2171313487	 0.4978859982	 0.10423
H	 2.7709468076	 1.3663124938	 0.8637559837	 0.082232
H	 0.8245449105	 2.3576873456	 2.9942377127	 0.072742
H	 3.4918105745	 0.8096709026	 3.025791354	 0.110273
H	 2.5874167836	 1.2945861896	 4.4647228985	 0.097056
H	 2.5238975823	-1.2126263174	 3.8841231846	 0.120909
H	 0.9654617267	-0.4680527701	 4.1939990418	 0.125301
H	-0.3932824756	-0.8814778853	-0.6314811994	 0.12392
H	 1.208893245	-0.2885171295	-1.0216664391	 0.121589
