18
gdb 64667	3.95427	1.04092	1.0333	3.269	75.83	-0.2637	0.0264	0.2901	1219.4431	0.147535	-401.932189	-401.923733	-401.922788	-401.965394	32.129	
O	-0.2776299536	 1.423560161	-0.1607493627	-0.470843
C	-0.096518939	 0.042096425	-0.0452476854	 0.424899
C	 1.0460094041	-0.4865715883	-0.9121886365	-0.401555
C	 2.3248508438	 0.1057862688	-0.5153006408	 0.249466
N	 3.30857162	 0.6080356329	-0.1750732612	-0.307712
C	-0.3424915231	-0.692100956	 1.2440255392	-0.126208
C	-1.450367461	-0.0009219422	 2.0477094552	-0.233937
C	-2.4171282505	-0.1452169374	 0.829122682	-0.234887
C	-1.3016099764	-0.834668988	 0.0337098892	-0.119886
H	 0.4567270725	 1.8634867953	 0.2850679165	 0.296236
H	 1.1180546654	-1.5765235831	-0.8388123581	 0.152707
H	 0.855475381	-0.235280043	-1.9614148009	 0.160446
H	 0.3801388329	-1.3968473393	 1.6411443561	 0.091159
H	-1.7738163247	-0.5913923004	 2.9066445854	 0.107635
H	-1.2313878222	 1.0172635798	 2.3794709464	 0.102349
H	-3.2500431293	-0.8180830018	 1.0410026157	 0.106003
H	-2.8014892489	 0.7800635537	 0.3955520131	 0.117246
H	-1.437741321	-1.669352727	-0.6458270934	 0.086882
