21
gdb 67370	2.1738	1.88252	1.87198	0.2384	86.05	-0.2264	0.0224	0.2487	961.4369	0.184853	-349.948189	-349.940814	-349.93987	-349.97937	30.914	
C	-0.0156906022	 1.5178630536	 0.0205026105	-0.521482
C	 0.0063888368	 0.0104346597	-0.0011192997	 0.385013
C	 0.5963416592	-0.8757645751	-1.1543593391	-0.074323
C	 1.5617976302	-1.5409792979	-0.1383777923	-0.23404
C	 0.8558443063	-0.7844300255	 1.0492613501	-0.117277
C	-0.152410769	-1.5974837604	 1.8159744802	-0.080951
C	-1.3442455345	-1.6064199147	 1.2129895665	-0.080956
C	-1.33358687	-0.8006547567	-0.0582826418	-0.1173
C	-0.7862455613	-1.5582336409	-1.3262428155	-0.234027
H	 0.9976395106	 1.9333581726	-0.0283673376	 0.112832
H	-0.58156533	 1.9217130076	-0.8271738192	 0.11283
H	-0.4836917497	 1.889749823	 0.9402962084	 0.119147
H	 1.0490263677	-0.4567578001	-2.0552786074	 0.057836
H	 1.5508077452	-2.6333594715	-0.0859561878	 0.091825
H	 2.5945105837	-1.2099456003	-0.2808585605	 0.095194
H	 1.539304248	-0.2079200405	 1.6794883571	 0.061336
H	 0.0964247783	-2.147674703	 2.7175499579	 0.087996
H	-2.2113996129	-2.1649350515	 1.5499947027	 0.087997
H	-2.2529737978	-0.236022841	-0.2387983848	 0.061339
H	-1.287145176	-1.238400817	-2.2444951679	 0.095193
H	-0.8091660424	-2.6507079701	-1.2799684397	 0.091818
