24
gdb 88969	3.18961	0.9765	0.85651	1.1476	90.06	-0.2204	0.0825	0.3029	1473.8434	0.216367	-368.370031	-368.36009	-368.359146	-368.404844	38.102	
C	-0.5444265212	 1.0015629458	-0.1177785368	-0.314332
N	 0.157962485	-0.2563752008	 0.0787033338	-0.078622
C	 1.5943582644	-0.2534582981	-0.1705610649	-0.265801
C	 1.0737636026	-0.4382118926	 1.2141082643	 0.029685
C	 1.3323599286	 0.5880854956	 2.3057184814	-0.301047
C	 0.529231043	 0.3390897867	 3.5775230029	 0.392737
C	-0.9793445578	 0.4082652085	 3.4315010972	-0.464297
C	 1.0936858077	-0.6566132787	 4.5654436992	-0.295128
C	 1.1285668304	 0.8223810818	 4.8758827714	-0.319548
H	 0.0417554508	 1.9026041795	 0.124268324	 0.098411
H	-0.8352368732	 1.0711002018	-1.1712030585	 0.121883
H	-1.4570562675	 1.0134986819	 0.485757653	 0.12221
H	 1.9916485678	-1.0909120303	-0.7392874667	 0.109044
H	 2.0644685856	 0.7056257255	-0.3924545581	 0.099737
H	 1.0444588491	-1.458698114	 1.5962309537	 0.08931
H	 2.4006281358	 0.5540893716	 2.5556719798	 0.097821
H	 1.1434044786	 1.6030981178	 1.9366831769	 0.09588
H	-1.3451369801	-0.3288183419	 2.7084915092	 0.131444
H	-1.4757369926	 0.2122651991	 4.387068252	 0.109484
H	-1.2991627238	 1.3998937331	 3.0897004232	 0.111922
H	 0.4008377178	-1.279399168	 5.1215821153	 0.108392
H	 2.0312808191	-1.1473972409	 4.3246793843	 0.10729
H	 2.0886811095	 1.3274052928	 4.8436551826	 0.106215
H	 0.4562418906	 1.1993950537	 5.6395418507	 0.107312
