18
gdb 32930	4.1363	0.92881	0.76893	2.2332	77.14	-0.1848	0.0393	0.2242	1480.6523	0.146808	-439.105432	-439.096059	-439.095114	-439.14171	33.434	
C	-0.0099508906	 1.3917955066	 0.0836539592	-0.388596
C	 0.0233412234	-0.1238802605	 0.0353072176	-0.049978
O	 0.675793434	-0.4986767334	-1.1845869487	-0.28028
C	 0.8176708302	-1.8046559119	-1.4386835234	 0.444609
C	 1.3888898045	-2.4276662826	-2.5047269863	-0.316035
C	 1.252690131	-3.8319914853	-2.2362602293	-0.172517
C	 0.6197836832	-3.9692481042	-1.046162997	 0.272288
N	 0.2319331716	-5.0833642791	-0.3070476446	-0.59739
O	 0.341850654	-2.69308076	-0.5371738645	-0.217327
H	 1.003392533	 1.8021373169	 0.0639925838	 0.1323
H	-0.5612760995	 1.7943853415	-0.7705086587	 0.1323
H	-0.5016961965	 1.7241493443	 1.0025784356	 0.120502
H	 0.5733514001	-0.5394903692	 0.8881750089	 0.112664
H	-0.9880940748	-0.5472299388	 0.0554302928	 0.112657
H	 1.8405775172	-1.9488655279	-3.3568956255	 0.104269
H	 1.5864102577	-4.6500596495	-2.855016691	 0.108075
H	 0.676470539	-5.1254257198	 0.6048940505	 0.241233
H	-0.7726326978	-5.1336891471	-0.1679855694	 0.241226
