19
gdb 97921	4.25221	0.55527	0.52075	2.5866	77.3	-0.255	0.0257	0.2807	2086.6264	0.156528	-460.11623	-460.10533	-460.104386	-460.154567	37.616	
O	 0.4089346669	 0.1421761074	-0.827910063	-0.402221
C	-0.2969543269	 0.5146620305	 0.34751268	-0.187855
C	-1.6079491837	-0.1237655313	 0.4634102017	 0.100384
C	-2.663190215	-0.6997169252	 0.536373543	 0.030447
C	-3.939748932	-1.3980830323	 0.6136890067	-0.401683
C	-3.9402267314	-2.7532499728	-0.1165144054	 0.108003
O	-2.9288498134	-3.6357563785	 0.3684884868	-0.43176
C	-5.2999246358	-3.4537787035	-0.0307963262	-0.060389
O	-5.2496288841	-4.717842613	-0.6497601081	-0.423291
H	 0.4020829893	-0.8197709327	-0.8733891238	 0.289612
H	 0.2933241459	 0.3013618341	 1.2534665159	 0.115575
H	-0.4090109231	 1.6034795695	 0.2950261576	 0.138931
H	-4.2127224871	-1.562562443	 1.6670896932	 0.121802
H	-4.7391546617	-0.7752892497	 0.1909224019	 0.138908
H	-3.6886653551	-2.5995008974	-1.1711097131	 0.111873
H	-2.9839335882	-3.6540149755	 1.33146516	 0.284792
H	-5.595449611	-3.5334728845	 1.0327968376	 0.071136
H	-6.0700841416	-2.864143384	-0.5406337653	 0.109613
H	-4.3978706519	-5.0941560782	-0.3907234392	 0.286123
