16
gdb 10624	2.58863	1.8041	1.26399	2.2301	67.71	-0.2612	0.0214	0.2826	995.8855	0.127198	-383.679246	-383.67036	-383.669416	-383.712741	32.035	
C	 0.065042313	 1.4805379031	-0.1513621181	-0.431481
C	 0.0908741724	-0.0034408232	 0.1115365712	 0.05145
O	 1.3567709254	-0.6629291123	 0.1394726551	-0.290588
C	 0.5660297645	-0.6608255176	 1.3566312906	 0.096514
C	 1.2263915676	 0.0973291515	 2.4972727178	-0.130227
O	 2.3964347481	-0.5645301277	 2.9317052503	-0.410512
C	-0.0021606154	-1.9397580238	 1.7168341276	 0.331099
C	-0.4979823254	-2.9860370358	 2.0387595634	-0.427231
H	 0.8575866031	 2.0114229659	 0.3777021191	 0.1339
H	 0.1950591189	 1.6626842706	-1.2233010712	 0.13619
H	-0.9019331665	 1.9011152251	 0.1437124272	 0.132045
H	-0.6699430082	-0.5650569707	-0.43374239	 0.099912
H	 1.4397169202	 1.1267396843	 2.1831087273	 0.091961
H	 0.5505083971	 0.135332579	 3.3567640782	 0.121151
H	 2.9555417764	-0.6788008118	 2.1542592602	 0.295338
H	-0.9240666915	-3.9172353566	 2.3205689714	 0.200479
