14
gdb 128072	4.67373	1.07268	0.87728	4.2451	66.31	-0.2703	-0.0663	0.204	1246.8999	0.1018	-470.031503	-470.023381	-470.022437	-470.065336	27.727	
C	 0.7230069887	 1.4802394625	-0.0531356984	-0.338531
N	 0.8881675831	 0.05446304	-0.2517115748	-0.318596
C	-0.0251815246	-0.6977572525	-0.9122531001	 0.321651
O	-1.0621393374	-0.3052093888	-1.4076781466	-0.360125
C	 0.3883126838	-2.1414552067	-0.9775856172	 0.384172
N	 1.4683114141	-2.6844475633	-0.4897685581	-0.334061
C	 1.3051812946	-3.9969299191	-0.8478912152	 0.036095
N	 0.2076448844	-4.2534587028	-1.5090383505	-0.095306
O	-0.4108252798	-3.0075943038	-1.5975141291	-0.174638
H	 0.6951080036	 1.7285249924	 1.0131241316	 0.136889
H	 1.5379407378	 2.0406943588	-0.523496749	 0.136921
H	-0.2222950909	 1.7703437672	-0.5129096537	 0.175904
H	 1.7050298847	-0.4194913924	 0.1040816522	 0.272248
H	 2.014644618	-4.7768500014	-0.6138098708	 0.157378
