14
gdb 56136	4.47264	0.82332	0.81442	3.7381	59.54	-0.2544	-0.0999	0.1544	1388.9304	0.097689	-511.005144	-510.995747	-510.994803	-511.041073	31.652	
N	-0.1277618615	 1.1652711962	 0.0497514601	-0.561134
C	-0.2000053392	-0.1737572733	 0.2776730048	 0.517576
O	 0.1637851261	-0.7509435365	 1.2731782046	-0.399585
O	-0.6999979747	-0.8018292933	-0.8323239027	-0.242302
C	-0.9097273066	-2.1862057892	-0.6664209005	-0.197083
C	-2.2014300736	-2.4785618212	 0.0861284996	 0.306281
O	-2.9422816527	-1.6280842626	 0.4980957849	-0.256575
C	-2.5107612588	-3.981348697	 0.2909287793	 0.085347
O	-3.5200585835	-4.3613536124	 0.8141342346	-0.19672
H	 0.0468161834	 1.7414092057	 0.8553069837	 0.27566
H	-0.6736666232	 1.5565489888	-0.6993514823	 0.272166
H	-0.9637243066	-2.622496548	-1.6708985753	 0.144278
H	-0.0732536247	-2.652123953	-0.1309731579	 0.159084
H	-1.7343685245	-4.6877101041	-0.0809387628	 0.093009
