17
gdb 33381	3.41884	0.77448	0.65289	0.9412	89.22	-0.2462	-0.0241	0.2221	1668.3377	0.133202	-384.60217	-384.5928	-384.591856	-384.637559	33.882	
C	 0.8413775387	-3.088551062	 0.5818452499	-0.546599
C	 0.5174505501	-1.944206087	 0.3728183726	 0.300449
C	 0.1536334233	-0.6544366985	 0.1378919046	-0.355129
C	-0.168389389	 0.4939394495	-0.0682998956	 0.488753
C	-0.5838863955	 1.8722773162	-0.3302950572	-0.271721
O	 0.4431492873	 2.7220006218	-0.8113915953	-0.2301
C	 1.3906252353	 3.0779844027	 0.1549582578	 0.145645
C	 2.636847873	 2.2498233033	 0.325676939	-0.278671
C	 2.6901275536	 3.5985124993	-0.3646583259	-0.291783
H	 1.124471548	-4.0953042879	 0.7649469361	 0.193657
H	-1.3579102758	 1.8759788701	-1.1059986759	 0.145505
H	-1.0368701894	 2.2926645414	 0.5825139738	 0.125816
H	 0.9585291256	 3.5471145543	 1.0398509436	 0.084505
H	 3.0597160587	 2.1486240552	 1.319083543	 0.11418
H	 2.7277151313	 1.3719285053	-0.3018085146	 0.131732
H	 2.8119890936	 3.5968450596	-1.4418043284	 0.128296
H	 3.1502699011	 4.4372532168	 0.1449859427	 0.115465
