17
gdb 124254	4.3156	1.02121	0.83438	2.0408	79.26	-0.2537	-0.0521	0.2016	1358.9944	0.135706	-418.062312	-418.053292	-418.052348	-418.096738	31.982	
C	-0.0043380313	 1.513716292	-0.051362759	-0.513142
C	-0.047456511	-0.0031733317	 0.0550655099	 0.32217
O	-0.1081459051	-0.5689674964	 1.1274509057	-0.305908
C	-0.0125314503	-0.7738804177	-1.1997407453	 0.300037
C	-0.0385983915	-2.1446085318	-1.400760808	-0.360232
C	 0.017550852	-2.3227643136	-2.7970831418	 0.355489
C	 0.0193744404	-3.5968058756	-3.5815059524	-0.491407
N	 0.0747715481	-1.1401610708	-3.4249157674	-0.272724
N	 0.0554440685	-0.2254899584	-2.4478758883	-0.277905
H	 0.9126646019	 1.8430936157	-0.5537271212	 0.13968
H	-0.8553693632	 1.8880340052	-0.6321896334	 0.139591
H	-0.0379042981	 1.9409179029	 0.9509084258	 0.152828
H	-0.0911985469	-2.8918353679	-0.6261245785	 0.127632
H	-0.886231764	-4.1827068762	-3.3920582858	 0.13371
H	 0.070562849	-3.375968174	-4.649530392	 0.141896
H	 0.8752976792	-4.2265689532	-3.3167413795	 0.133722
H	 0.0909483023	 0.7490408715	-2.6950893388	 0.274564
