18
gdb 108630	3.2105	1.12328	0.84687	3.8993	76.68	-0.2024	0.0064	0.2087	1319.0927	0.146511	-439.134515	-439.125012	-439.124068	-439.169661	34.103	
C	 0.1807481132	 1.577351368	 0.005655254	-0.512234
C	-0.0103497063	 0.0969597581	 0.0221229492	 0.276462
C	-1.1065363477	-0.6799595255	-0.0180223351	 0.154376
C	-2.5562123972	-0.3285779162	-0.1041851981	-0.177462
O	-2.7753979178	 1.0549206157	 0.1263308385	-0.41035
C	-0.6732175117	-2.1278004018	 0.0184852789	-0.447384
C	 0.8595555991	-2.0592388529	 0.0946030134	 0.417209
O	 1.6571412095	-2.9671311844	 0.1487519401	-0.374198
N	 1.1488001349	-0.71228436	 0.0883152208	-0.365807
H	 0.8068364657	 1.8741827517	-0.8453982958	 0.125278
H	-0.7784370774	 2.0840617597	-0.0627365304	 0.170672
H	 0.6954717501	 1.9123708053	 0.9151669685	 0.12791
H	-2.9473986716	-0.6245273222	-1.0949283732	 0.096708
H	-3.1104621193	-0.9379648124	 0.632245215	 0.09496
H	-3.7038383142	 1.2394433104	-0.0408365102	 0.290745
H	-1.0576885851	-2.6793688488	 0.8853268007	 0.139791
H	-0.9672601507	-2.7011488594	-0.8696526875	 0.138733
H	 2.0904790666	-0.3607381656	 0.1472366213	 0.254591
