13
gdb 128380	2.32014	1.56528	0.94096	4.0781	68.05	-0.2571	-0.0786	0.1786	1150.9359	0.089356	-448.88964	-448.881499	-448.880555	-448.922921	28.288	
C	-0.0026456973	 1.392257529	-0.035555498	-0.331201
N	-0.0689614967	-0.0556544419	 0.0884650122	-0.401918
C	 0.6117436736	-0.6984810733	 1.0653575819	 0.344336
N	 1.2196834238	-0.1062028445	 2.0692329156	-0.175454
O	 1.7273783164	-1.1412043749	 2.8441086644	-0.144365
N	 1.4538122421	-2.3473782206	 2.3247800138	-0.136073
C	 0.7689525281	-2.1203844765	 1.2296060896	 0.203042
C	 0.2841879608	-3.1374040064	 0.3712387255	 0.258056
N	-0.1435493317	-3.9001918691	-0.386639829	-0.331375
H	 1.0064497046	 1.745110255	-0.2835017551	 0.141472
H	-0.6961780754	 1.7079371178	-0.8162346556	 0.140004
H	-0.3021464912	 1.8535633701	 0.9089042909	 0.16365
H	-0.2695144071	-0.5909127746	-0.7407005761	 0.269825
