16
gdb 48078	2.81347	1.44741	1.06491	2.1688	71.61	-0.2475	-0.0993	0.1482	1105.986	0.123111	-437.850411	-437.842248	-437.841303	-437.883937	29.579	
O	 0.5390489629	 0.9671182638	-1.46391891	-0.230184
C	 0.6029154075	 0.8805834853	-0.2656456307	 0.090089
C	 0.9438587968	 2.0396278796	 0.6793477204	 0.19367
O	 1.1034671967	 1.7708565639	 1.8518152626	-0.287253
C	 1.110340667	 3.3992684167	 0.1201494467	 0.226669
C	 2.0481669784	 4.3502988873	 0.7915135782	-0.251573
N	 0.6304871906	 4.6308155822	 0.9236046451	-0.136597
C	 0.209820622	 5.2448265515	-0.3908379674	-0.158564
C	 0.6003701571	 3.98075303	-1.1976473646	-0.311981
H	 0.4501101014	-0.0689669721	 0.2895751019	 0.113931
H	 2.5001483296	 3.9926184104	 1.7108971151	 0.147744
H	 2.6705281302	 4.9908992724	 0.1680865092	 0.119302
H	-0.8614944726	 5.4489090899	-0.3759243804	 0.12275
H	 0.7501847096	 6.1690321888	-0.6183017567	 0.113426
H	 1.3418044081	 4.0850019339	-1.9934833636	 0.114568
H	-0.2620903353	 3.4496470264	-1.5965845658	 0.134002
