21
gdb 103640	2.69648	1.12748	1.04506	1.0668	74.21	-0.2483	0.0536	0.3018	1276.2955	0.17991	-461.348083	-461.337805	-461.336861	-461.383047	38.473	
C	 0.1399007093	 1.543921607	 0.1568544548	-0.405911
C	 0.0422737954	 0.0197719351	 0.0295886977	-0.218497
C	 0.7111886816	-0.5188175667	-1.2292933261	 0.394273
O	 0.0566421113	-0.0778514259	-2.4170442444	-0.497972
C	 2.2628563785	-0.4061413531	-1.3643118708	-0.331258
C	 2.2777802362	-1.8431520485	-1.9620801589	 0.136635
O	 3.2550847334	-2.7488131676	-1.5301124331	-0.440991
C	 0.8384293864	-2.0582370975	-1.3903666194	 0.032544
O	 0.8946167605	-2.6989659944	-0.1229908092	-0.440964
H	 1.1826911376	 1.8795670276	 0.1821400068	 0.118925
H	-0.3580958744	 2.0493527158	-0.6782935381	 0.107948
H	-0.3416414399	 1.8915263435	 1.0753191635	 0.119277
H	 0.4957888557	-0.4616133127	 0.9010900407	 0.109834
H	-1.010918463	-0.2849658198	 0.0124607623	 0.101354
H	 0.2531746125	 0.8575468189	-2.5319773754	 0.279339
H	 2.6515818462	 0.4081406224	-1.981317773	 0.092985
H	 2.7576980257	-0.3836760176	-0.3885295912	 0.09998
H	 2.2935417025	-1.8384364078	-3.0532645158	 0.098019
H	 3.0852851646	-2.8821877745	-0.5881211282	 0.273904
H	 0.0835704126	-2.5104687919	-2.0416716127	 0.075139
H	 0.8733509172	-3.6483628524	-0.2783758695	 0.295435
