19
gdb 39618	4.63573	0.96856	0.81751	2.0446	84.77	-0.2225	0.0132	0.2357	1382.7866	0.159571	-385.875568	-385.867424	-385.86648	-385.909103	30.408	
C	-0.0023317925	 1.4875881431	-0.109310212	-0.171088
O	 1.3469380376	 1.5264387337	 0.4139165438	-0.277293
C	 1.4194836413	 0.0816833528	 0.4711377811	-0.171058
C	 0.0141252764	-0.0223609017	-0.0726578228	 0.206205
C	-0.8247352658	-0.9974680512	-0.3790536823	 0.160685
C	-0.5365654073	-2.487905527	-0.2373434357	-0.361008
C	-1.8157452334	-3.1276663175	-0.7217069288	-0.058488
C	-2.72501439	-2.2289573823	-1.0929068774	-0.05847
C	-2.2338593885	-0.8103262233	-0.930245317	-0.361039
H	-0.7200331001	 1.9850957345	 0.5592938493	 0.108626
H	-0.0741643432	 1.9517735862	-1.1038011718	 0.108628
H	 2.221392646	-0.3180722237	-0.1666519106	 0.108628
H	 1.575393821	-0.2846259727	 1.4963948643	 0.108625
H	 0.3329851021	-2.8003462675	-0.833553003	 0.117523
H	-0.3018265757	-2.7677784404	 0.7998524293	 0.117526
H	-1.9489231567	-4.203277231	-0.7520600766	 0.093474
H	-3.7142896534	-2.4584030689	-1.4727569205	 0.093475
H	-2.8713154419	-0.2281570742	-0.2491163531	 0.117527
H	-2.2366681059	-0.2605536389	-1.8825822462	 0.117525
