18
gdb 59920	3.32568	0.85823	0.76658	1.6943	72.08	-0.2731	-0.024	0.249	1526.0244	0.144873	-476.256187	-476.246014	-476.24507	-476.292881	35.162	
C	-0.0984462462	 1.3946081935	 0.5238746457	-0.403392
C	-0.112119081	-0.1158541962	 0.2994092176	 0.143294
O	-0.1926807827	-0.8365975022	 1.5208962526	-0.427976
C	-1.239098934	-0.5389516737	-0.671303059	-0.337924
C	-1.2631773453	-2.0411000012	-0.8011733644	 0.471885
O	-0.5155361144	-2.7001246443	-1.4691835355	-0.346071
O	-2.2564899583	-2.5700083518	-0.0093832842	-0.204203
C	-2.3458202919	-3.9368590484	 0.0852128003	 0.119156
N	-3.2720892092	-4.4165375895	 0.7878776729	-0.421763
H	 0.7042154087	 1.6598558736	 1.2166629048	 0.132701
H	 0.0575128629	 1.9356478979	-0.4149897905	 0.121187
H	-1.0490309666	 1.7331684109	 0.9536313677	 0.112835
H	 0.8415938265	-0.4305688675	-0.1382716204	 0.114255
H	-1.0416072858	-0.6419241822	 1.9348124093	 0.285205
H	-2.2054477065	-0.1805531799	-0.3043203837	 0.121456
H	-1.0516368693	-0.1104745576	-1.6595210929	 0.135338
H	-1.5703483103	-4.4530550451	-0.4806543709	 0.144059
H	-3.2186235466	-5.4342707262	 0.7784391008	 0.239957
