19
gdb 98226	2.73167	1.17592	0.84079	2.7308	75.46	-0.2484	-0.0089	0.2395	1358.1438	0.158146	-456.373928	-456.363827	-456.362883	-456.409844	36.065	
C	-1.4899707072	 0.8612532093	 0.5325467837	-0.325626
N	-0.3711274233	 0.051754719	 0.0368864214	-0.14859
C	 0.6755422617	-0.3479518449	 0.8607900528	 0.404155
C	 0.6840818434	 0.1700050352	 2.2912881019	-0.500993
O	 1.564344687	-1.0848591441	 0.4760637407	-0.35405
C	-0.5141367782	-0.3933387059	-1.2989600985	 0.317616
N	-1.6094594642	-0.1233253528	-1.8894253059	-0.506671
C	 0.6364519436	-1.1326323213	-1.9929709915	-0.1474
O	 0.3482657233	-1.3180168678	-3.3686720189	-0.411669
H	-1.7285468103	 1.6302007692	-0.2025251966	 0.155518
H	-2.3861700681	 0.2476274811	 0.6627568276	 0.144438
H	-1.2261560846	 1.3286082031	 1.4765838877	 0.126954
H	-0.2127662871	-0.1280089564	 2.8419775163	 0.147003
H	 1.5605531006	-0.2600528268	 2.7744719353	 0.151502
H	 0.7546652608	 1.2613233636	 2.3308289195	 0.146985
H	-1.5589831328	-0.5092234073	-2.8334361658	 0.228186
H	 1.5813124075	-0.604812184	-1.8377327718	 0.12863
H	 0.763913171	-2.1238191957	-1.5558048856	 0.155385
H	 0.5234985569	-0.4883723134	-3.8245254123	 0.288627
