19
gdb 89883	4.4127	0.91676	0.85305	3.7635	79.44	-0.2261	-0.0017	0.2244	1396.0921	0.158127	-419.16755	-419.158648	-419.157703	-419.201561	32.485	
C	-0.2873211419	 1.4514081362	 0.0413410395	-0.322261
N	-0.0074784394	 0.0356547714	 0.1238445607	-0.069934
C	-1.1180697698	-0.8786597692	 0.4650519236	-0.237326
C	-0.1402848874	-1.6471140431	 1.3624642757	 0.308541
C	-0.4072774406	-2.6236605335	 2.4578375998	-0.311406
N	 0.2575687156	-3.0280994498	 1.2336281508	-0.106232
C	-0.2515058337	-3.9580707393	 0.3427151616	 0.133192
O	-0.8260490207	-4.9715069801	 0.6560421029	-0.284705
C	 0.8126719166	-0.4557651545	 1.2538483495	-0.233705
H	 0.6412105112	 2.0021491005	-0.1405265614	 0.126144
H	-0.9622859778	 1.6479667472	-0.7980717801	 0.125505
H	-0.7537839526	 1.8578585688	 0.9596013844	 0.091683
H	-1.9224208028	-0.4022354783	 1.0503002987	 0.096143
H	-1.5639740958	-1.4038638278	-0.3865910701	 0.11638
H	 0.2094289998	-2.6165632853	 3.3529714356	 0.128425
H	-1.4277306328	-2.9721892508	 2.6013014408	 0.137433
H	-0.0062697785	-3.6959187488	-0.7039521871	 0.091137
H	 1.8571448966	-0.6728399459	 1.0086665128	 0.118771
H	 0.7731916938	 0.1921125321	 2.1452264621	 0.092214
