19
gdb 76047	2.46352	1.29194	1.08403	1.7703	82.34	-0.242	0.0395	0.2815	1202.0402	0.157229	-385.82041	-385.811194	-385.81025	-385.85445	34.107	
C	-0.1332566405	 1.5514158923	-0.0618934053	-0.415353
C	-0.0060122603	 0.0466041563	-0.007521051	-0.090523
C	 1.3501926199	-0.6471851827	-0.1898580342	-0.291744
C	 2.5553704495	 0.1090784563	-0.3546808148	 0.342482
C	 3.572952724	 0.7408683877	-0.4751658764	-0.465611
C	 0.6373063533	-0.6392461921	 1.14941689	 0.269079
C	 1.148470456	-0.0611100685	 2.4634846991	-0.138403
O	 0.6945689855	-1.2360628664	 3.1753775222	-0.27602
C	 0.1731454734	-1.8365279959	 1.9709740841	-0.140791
H	 0.751459158	 2.039823405	 0.3545881245	 0.133605
H	-0.2459123056	 1.8968632645	-1.0944624115	 0.12607
H	-1.0083712281	 1.8879635601	 0.504126379	 0.121172
H	-0.8310352104	-0.4967598715	-0.4639190729	 0.092911
H	 1.3252781975	-1.5908869777	-0.7296430555	 0.112177
H	 4.4714604979	 1.2942576839	-0.5921866269	 0.19748
H	 2.234754693	 0.0739336814	 2.5312780395	 0.115622
H	 0.6473034889	 0.8497205003	 2.8161226189	 0.102037
H	-0.914329439	-1.9846699345	 2.0221530046	 0.10155
H	 0.6567433669	-2.7957676584	 1.7436366466	 0.104262
