12
gdb 2631	15.68468	0.95707	0.91237	2.8547	52.47	-0.2744	-0.0445	0.2299	1136.8354	0.087246	-360.508895	-360.501149	-360.500205	-360.542098	24.416	
O	-0.1913006201	 0.1879831701	 0.5455641872	-0.228981
C	 0.0607824823	 1.0895080436	-0.2061755468	 0.140077
C	 1.3545655757	 1.886876236	-0.1404980212	-0.145041
O	 1.3170858182	 2.8585033132	-1.1623429126	-0.238008
C	 2.4723161581	 3.6609805819	-1.1962951492	-0.184122
C	 2.3476126503	 4.6366867097	-2.2825797982	 0.26836
N	 2.2783870111	 5.4168484596	-3.130327125	-0.28397
H	-0.6283791043	 1.4181236801	-1.0133771582	 0.110467
H	 1.4414910145	 2.3447693748	 0.8584365483	 0.133253
H	 2.2057746748	 1.1969464272	-0.2610007071	 0.133266
H	 2.6148743885	 4.2041119057	-0.2480716305	 0.147351
H	 3.3786106309	 3.0573679081	-1.3657700766	 0.147348
