20
gdb 63214	2.19808	1.8175	1.40833	1.5222	78.7	-0.2345	0.0254	0.2599	1037.0494	0.170292	-403.157241	-403.148596	-403.147652	-403.190579	33.834	
C	 0.092356043	 1.5251712637	-0.2062283563	-0.408109
C	-0.0253398796	 0.0110456985	 0.0087556829	 0.171902
C	-1.496924726	-0.42150127	 0.0055520476	-0.408095
N	 0.6736749277	-0.6810328583	-1.1068795598	-0.291668
C	 1.5931249557	-1.3749680215	-0.582963879	 0.093661
O	 1.7667675006	-1.3710036597	 0.7581419282	-0.253167
C	 0.7503109453	-0.4862152136	 1.2591599479	 0.411098
C	 1.1399714505	 0.3111634581	 2.4627674005	-0.328682
C	 0.1821756141	-0.8615191518	 2.5905730583	-0.328684
H	 1.138903433	 1.8411935478	-0.1926038989	 0.119681
H	-0.3339869081	 1.7920822647	-1.1768708202	 0.127203
H	-0.4471361821	 2.0790064875	 0.5692292894	 0.108295
H	-1.9470403086	-0.1837728552	-0.9619387565	 0.127201
H	-1.5876026834	-1.4984387807	 0.17078365	 0.11968
H	-2.0646597567	 0.0977867876	 0.7847409873	 0.108295
H	 2.2932624667	-2.005232252	-1.1207314219	 0.137532
H	 2.1498487731	 0.1782520403	 2.8342048465	 0.126389
H	 0.744627523	 1.3151143715	 2.5692775392	 0.120539
H	-0.8644885767	-0.6550254101	 2.784003767	 0.120539
H	 0.5582622783	-1.7704202867	 3.0465794578	 0.126391
