17
gdb 47699	2.1824	1.67874	1.04506	6.1619	70.12	-0.2426	0.0104	0.253	1118.57	0.138648	-455.213465	-455.205308	-455.204364	-455.24687	30.335	
O	 0.0040175629	-0.070571544	-0.0980778761	-0.349946
C	-0.0147236011	 1.1412921535	-0.0375284266	 0.369484
C	-1.3114605511	 1.9415841416	 0.0674543371	-0.412669
C	-1.5625866556	 2.7018909701	 1.3731576047	 0.375996
O	-2.6280354	 2.5928945652	 1.9490881998	-0.353504
N	-0.6055939674	 3.5610640329	 1.8547304164	-0.304983
C	 0.7955233387	 3.7697381914	 1.5165221427	-0.139867
C	 1.1832921881	 3.3285396825	 0.1060486808	-0.182732
N	 1.1276800818	 1.8935328785	-0.0875087832	-0.288632
H	-1.3656233478	 2.6587167472	-0.7608783852	 0.136996
H	-2.1355108371	 1.2391797255	-0.0352782256	 0.159485
H	-0.9092539883	 3.9793433722	 2.7236637728	 0.249439
H	 1.0074984003	 4.8423441936	 1.6094178766	 0.117337
H	 1.4472659061	 3.2464492722	 2.231932347	 0.116117
H	 0.5573525603	 3.8437568249	-0.6329652218	 0.128437
H	 2.2113042165	 3.6502257649	-0.0768636797	 0.126748
H	 1.9856334638	 1.363576828	-0.1131830096	 0.252296
