16
gdb 27236	2.2149	1.97808	1.07788	3.1574	74.7	-0.1866	0.0278	0.2144	1076.5544	0.126054	-434.046983	-434.039172	-434.038228	-434.079304	29.673	
N	-0.0743963113	 1.4338504096	 0.1300765368	-0.596749
C	-0.1363583228	 0.0500841783	 0.087277727	 0.114569
C	-1.1289824403	-0.8373384557	 0.0122180942	 0.271742
C	-2.4927137939	-1.3215879257	-0.4380846528	-0.364951
C	-1.7644516064	-2.6963412448	-0.6993535691	-0.165952
N	-0.5905474955	-2.1261297319	 0.0014732862	-0.093082
C	 0.7851216092	-2.05014	-0.1173288484	 0.427588
N	 1.6018068942	-2.9892497334	-0.3500551014	-0.594673
O	 1.0765375108	-0.7101892093	 0.113811263	-0.258363
H	 0.5854535996	 1.8042946249	-0.5472265185	 0.248403
H	 0.1866716265	 1.7887968192	 1.0455953667	 0.250759
H	-3.2503558838	-1.3691361791	 0.3468665894	 0.134719
H	-2.9077745941	-0.823638783	-1.3146667485	 0.137886
H	-2.1835480976	-3.5809183593	-0.2170540112	 0.131252
H	-1.5719842812	-2.9003454824	-1.756619176	 0.134925
H	 2.5553604167	-2.6357856174	-0.3702774876	 0.221928
