19
gdb 85253	2.81839	1.33649	0.99974	3.6923	76.14	-0.2384	-0.0317	0.2067	1213.7105	0.158615	-423.042176	-423.033716	-423.032772	-423.075331	32.276	
C	-0.0156671833	 1.5391917194	 0.028391882	-0.401709
C	 0.0802360985	 0.0159131419	 0.0185591003	 0.015554
C	 0.8851826188	-0.5686231706	-1.162083624	-0.338917
C	 1.3303191816	-1.9496820578	-0.690510432	 0.342906
O	 1.7207344972	-2.8676262248	-1.3637758515	-0.314594
C	 1.1765506401	-1.9749473396	 0.8241250029	 0.352713
C	 0.7968951656	-3.2380468811	 1.4866344817	-0.234767
O	 2.1242432286	-2.7360541869	 1.5663791513	-0.268406
C	 0.7746135434	-0.5822208467	 1.2673881832	-0.331117
H	 0.9811133191	 1.9930681382	 0.0733236432	 0.117901
H	-0.5126703496	 1.9117517517	-0.8731541453	 0.118998
H	-0.5836861203	 1.894702952	 0.8945862836	 0.117719
H	-0.9355230083	-0.3992840231	-0.0301455061	 0.084408
H	 0.3482684727	-0.6170980581	-2.1120686972	 0.128527
H	 1.7942278148	 0.0271917837	-1.3322002507	 0.131693
H	 0.2156073353	-3.1903466249	 2.4069300546	 0.118015
H	 0.676873328	-4.1340197269	 0.8803549303	 0.135116
H	 1.680062101	-0.007534331	 1.5028459153	 0.116413
H	 0.1380060569	-0.5731722553	 2.1555352983	 0.109548
