16
gdb 37004	4.11359	2.045	1.62109	1.5831	75.87	-0.2107	-0.0193	0.1914	815.7195	0.12676	-363.513792	-363.508218	-363.507274	-363.543172	24.999	
C	-0.0552171735	 1.5293574618	-0.0429314707	-0.077542
C	 1.2349052564	 1.886670774	-0.0085916135	-0.231606
C	 1.9372414729	 0.5604819882	 0.1144368063	 0.350414
C	 3.3476525309	 0.0336110631	 0.0960834087	-0.231606
C	 3.1620181413	-1.2924327446	 0.1164628828	-0.077541
C	 1.6483693549	-1.4546079144	 0.1391764775	-0.079953
C	 1.0833669448	-0.3588444971	 1.0741135096	-0.06662
C	-0.0220398061	 0.0104834663	 0.0564177595	-0.079954
N	 1.1532610511	-0.3891699816	-0.8734861197	-0.155109
H	-0.9333470032	 2.1505537419	-0.1486086738	 0.110993
H	 1.6871416052	 2.8651312494	-0.0744018918	 0.114465
H	 4.2618298064	 0.6069096409	 0.0531609776	 0.114465
H	 3.8961025397	-2.0852877482	 0.0906623316	 0.110993
H	 1.2061689526	-2.4476481889	 0.0620410418	 0.068323
H	 1.0533255037	-0.3310332289	 2.1728429722	 0.061954
H	-0.943950257	-0.5618102919	-0.0444841281	 0.068323
