21
gdb 80854	2.14576	1.71145	1.44932	1.7046	77.81	-0.2541	0.0759	0.33	1045.1653	0.182817	-424.220209	-424.211399	-424.210455	-424.252808	35.031	
C	-0.0154027433	 1.4918845347	 0.070389118	-0.51428
C	-0.0143377597	-0.0175443068	 0.0096328465	 0.316731
C	 0.3622748342	-0.8284318997	-1.2726405419	-0.272344
C	-0.3866746176	-1.9812975494	-0.5473497198	-0.089456
C	 0.5164195677	-2.2428351376	 0.6706906305	-0.248077
C	 0.8117927017	-0.7627000387	 1.0798409726	 0.103346
O	 2.1748774482	-0.3783517429	 0.951033939	-0.448544
C	-1.3183069554	-0.855858918	-0.0034431205	 0.10178
O	-1.9655676467	-0.9944985345	 1.2406946497	-0.445517
H	 1.0080332012	 1.877260991	 0.0433147487	 0.132716
H	-0.5689755661	 1.9259167737	-0.7688622162	 0.104727
H	-0.4821903015	 1.8418177451	 0.9982594045	 0.119533
H	-0.1589013655	-0.4676274159	-2.1628877898	 0.089559
H	 1.4250489759	-0.9621405785	-1.4769388951	 0.111006
H	-0.7780495266	-2.8451979929	-1.086563374	 0.051542
H	 0.0036909019	-2.7989516228	 1.4593029353	 0.094197
H	 1.4397827825	-2.7648227823	 0.403676298	 0.08953
H	 0.4444992492	-0.5364753329	 2.0878813129	 0.074199
H	 2.6730374984	-0.8133232022	 1.6491406887	 0.280936
H	-2.009524365	-0.4924762237	-0.7755089593	 0.064315
H	-2.7504711136	-1.5371705358	 1.1186983221	 0.284103
