21
gdb 101588	4.00159	0.74466	0.7097	2.5501	76.36	-0.2652	0.0159	0.2811	1699.6267	0.179557	-461.401517	-461.390408	-461.389464	-461.439397	38.221	
C	-0.0795101597	 1.4852135089	-0.4973271252	-0.383302
C	-0.0567048445	 0.0439691495	 0.016804504	-0.186752
C	-1.454862118	-0.577931326	 0.1065910552	 0.144093
O	-2.1235924917	-0.5713468346	-1.151303013	-0.429716
C	-1.415455922	-2.0005039182	 0.6972130787	-0.341254
C	-2.8154291966	-2.5708778005	 0.7694882717	 0.450257
O	-3.6620146197	-2.2202858619	 1.5519940742	-0.36929
O	-3.0134813803	-3.5091611256	-0.1792483673	-0.229049
C	-4.3389335302	-4.0529729917	-0.2288076007	-0.240328
H	 0.9338801664	 1.8824607349	-0.6065072801	 0.110466
H	-0.5795829012	 1.5381025793	-1.4677019245	 0.130028
H	-0.6236181799	 2.1391912106	 0.1926897687	 0.117811
H	 0.5621558926	-0.5812529421	-0.6434820934	 0.08603
H	 0.4139768527	 0.0017756571	 1.0070745994	 0.098843
H	-2.0884379589	 0.0395344643	 0.7540261145	 0.110225
H	-1.6541938884	-1.1742774212	-1.7394834344	 0.279489
H	-0.7745009533	-2.6450180718	 0.0871093386	 0.108112
H	-1.0089714594	-1.9637489431	 1.7121891608	 0.129465
H	-4.5976790289	-4.5265476646	 0.7214981402	 0.140231
H	-5.0677553747	-3.2662523737	-0.4387975837	 0.144948
H	-4.3284501142	-4.7894674195	-1.0324584437	 0.129691
