17
gdb 17850	4.76286	1.85689	1.61027	2.4613	67.86	-0.2377	0.0694	0.3071	823.9647	0.143735	-363.752075	-363.745666	-363.744722	-363.782652	25.155	
C	-0.0773174658	 1.5322989296	 0.0525140513	-0.176647
C	 1.4443728332	 1.2751474587	 0.0920025399	-0.135202
C	 1.0746900704	 0.1272585432	 1.0558034125	-0.176647
N	-0.0151039479	-0.0070528917	-0.0278193801	-0.178846
C	 1.1403959971	 0.2416227856	-1.0063459814	 0.364391
C	 0.8802938841	 0.5037504126	-2.4949003193	-0.17461
O	 1.7903518534	-0.5525637319	-2.8648556874	-0.277895
C	 2.0362932803	-0.9061593411	-1.4881365692	-0.17461
H	-0.5593777054	 1.896579666	 0.9634198424	 0.104306
H	-0.5059673496	 2.0026760865	-0.8360189475	 0.107737
H	 2.2702857699	 1.9927076844	 0.1485592377	 0.070918
H	 1.7404118643	-0.737110033	 1.1203645169	 0.107737
H	 0.674602432	 0.3915610346	 2.0380997935	 0.104306
H	-0.1472546252	 0.2996929982	-2.8226561127	 0.113553
H	 1.1999593477	 1.4791552998	-2.8835576358	 0.103977
H	 3.1005445453	-0.8388848434	-1.2283318818	 0.103977
H	 1.664389526	-1.909871038	-1.2448894391	 0.113553
