18
gdb 39063	2.63662	1.98931	1.35592	1.9535	75.98	-0.2414	0.0259	0.2673	962.2158	0.150204	-401.933569	-401.926616	-401.925672	-401.9648	28.165	
C	 0.1957273121	 1.4978758109	 0.0577349577	-0.3987
C	 1.367515496	 0.5624586595	-0.1104643289	 0.054309
O	 2.2392415924	 0.3290569152	 0.9759514034	-0.226706
C	 1.8850882196	-0.6211747944	 1.8848716146	 0.121679
N	 0.7979027236	-1.250844847	 2.0261151211	-0.26903
C	-0.28725049	-0.9560518418	 1.1188219813	-0.019229
C	-0.6351646003	-2.0363190808	 0.0427714527	-0.219469
C	-0.7099234183	-0.9113680443	-1.0337034969	-0.323125
C	-0.0155127493	 0.0142374631	-0.0345364228	 0.292706
H	 0.0600662192	 1.9719238801	 1.0254748599	 0.124588
H	-0.0624595388	 2.1192030053	-0.7943246579	 0.11914
H	 1.9204470802	 0.5707580021	-1.0442171527	 0.107452
H	 2.7201778998	-0.792702924	 2.5609311071	 0.124298
H	-1.1707288075	-0.6882316704	 1.7100690791	 0.08384
H	 0.2089682706	-2.7109144197	-0.1141221686	 0.112914
H	-1.5374377997	-2.6254522192	 0.2135895724	 0.104889
H	-0.2039004356	-1.0935694654	-1.9854000665	 0.102276
H	-1.7380782241	-0.5988378791	-1.239688085	 0.108169
