17
gdb 18840	3.96189	2.18071	1.84103	0.9799	66.11	-0.2295	0.0679	0.2974	762.8925	0.144614	-363.817755	-363.81143	-363.810486	-363.847894	25.765	
O	-0.0437791	 1.4425914794	-0.0660178948	-0.435835
C	 0.0077112885	 0.026905496	-0.0088102289	 0.127621
C	 0.6050231448	-0.5500315795	 1.3079124361	-0.204211
N	-0.217890192	-1.7185247082	 1.6765427983	-0.097749
C	-1.6385302831	-1.4481556377	 1.9599914607	-0.03652
C	-2.1310634638	-0.1353360378	 1.3356296444	-0.247183
C	-1.4055578886	-0.5537259951	 0.0160500789	-0.062446
C	-1.2053582345	-1.9669742343	 0.6265610451	-0.070251
H	 0.8581685299	 1.7763247156	-0.0844697997	 0.285737
H	 0.5567318164	-0.3704284316	-0.8775108738	 0.064588
H	 1.640665587	-0.8824895824	 1.1851876202	 0.10012
H	 0.5832307	 0.2091174861	 2.0966410611	 0.108885
H	-2.076673064	-1.9706732246	 2.8034837337	 0.089139
H	-3.2168813375	-0.1480572215	 1.2161027431	 0.104231
H	-1.8303537202	 0.811590368	 1.7915361064	 0.109554
H	-1.963628532	-0.441156016	-0.9120450489	 0.074941
H	-1.2901178909	-2.9402008565	 0.1583308282	 0.08938
