21
gdb 81222	2.43773	1.86146	1.42544	1.7895	81.74	-0.2374	0.0798	0.3173	1016.3545	0.184921	-387.027559	-387.02016	-387.019216	-387.058877	30.954	
C	-0.1170811607	 1.5543858625	-0.012445529	-0.446625
C	 0.0239855645	 0.0380663109	-0.0631199794	 0.000786
C	 1.2132239519	-0.6006940201	-0.8430414358	-0.040248
C	 2.1127556288	-0.2785868927	 0.4319365557	-0.335965
C	 0.7776377262	-0.652804172	 1.1083790224	 0.465438
O	 0.1641182857	-0.8002246362	 2.3998382736	-0.365841
C	-0.4383414367	-2.0506878738	 1.9103964021	-0.170179
C	 0.6621821421	-2.1341998006	 0.8148079549	-0.023805
C	 0.8008795154	-2.1100967136	-0.7325687335	-0.281147
H	 0.8221156626	 2.0729521661	 0.1952051431	 0.11837
H	-0.5036773561	 1.9382522598	-0.9627257026	 0.112969
H	-0.8266760325	 1.8369541588	 0.7724368536	 0.127856
H	-0.9512880579	-0.3987007818	-0.3062059375	 0.059008
H	 1.5170385236	-0.2240481077	-1.8196311771	 0.069006
H	 2.9717918131	-0.9204869923	 0.6422702344	 0.09605
H	 2.4119879416	 0.7686778466	 0.4509953876	 0.108229
H	-0.4310795657	-2.8236421448	 2.682733732	 0.110207
H	-1.4620082045	-1.8812446805	 1.5576631838	 0.106537
H	 1.5052028734	-2.6694915009	 1.2603849584	 0.086325
H	-0.1152384769	-2.3017415981	-1.2983531559	 0.105961
H	 1.5649523922	-2.8090388596	-1.0825404607	 0.097067
