18
gdb 103054	2.617	1.50384	1.15457	3.8297	76.86	-0.2678	0.0172	0.285	1104.5772	0.147237	-401.918244	-401.909653	-401.908709	-401.951419	31.866	
C	 0.0722103482	 1.1964076241	-0.3040206419	-0.265353
O	-0.0538986423	-0.1194791657	 0.2233661556	-0.284013
C	-1.3222316768	-0.6675477393	 0.0750853815	 0.303876
C	-2.35823513	 0.005028429	 0.8403340458	 0.247384
N	-3.1662069637	 0.5678548482	 1.4471303167	-0.349166
C	-1.7985477314	-1.2762547898	-1.232545753	-0.125919
C	-0.6006789035	-1.8632042148	-1.9906514294	-0.245079
C	-0.2696597536	-2.75958722	-0.7551444244	-0.24054
C	-1.4730671479	-2.1614347444	-0.0171372418	-0.120801
H	 1.1188026698	 1.4800909621	-0.1811473525	 0.13673
H	-0.1932437314	 1.2266976222	-1.3688340614	 0.118534
H	-0.5621131582	 1.9067283964	 0.2412534759	 0.138003
H	-2.7592155188	-1.0065826441	-1.6539055861	 0.1104
H	-0.9154292002	-2.4499747925	-2.8553695787	 0.114996
H	 0.1673906482	-1.1531912485	-2.3058114093	 0.111358
H	-0.4067533458	-3.8216905966	-0.9650641828	 0.113128
H	 0.7006506333	-2.6061461231	-0.2801219857	 0.122788
H	-2.1389168157	-2.6862646333	 0.6566631115	 0.113676
