19
gdb 79465	2.49845	1.82979	1.45414	2.6428	73.49	-0.2353	0.0686	0.3039	975.9416	0.159703	-422.981157	-422.97348	-422.972535	-423.012872	31.005	
C	-0.2209923849	 1.6456631309	 0.0765093325	-0.438635
C	 0.022392494	 0.1445547605	 0.0071488703	-0.03021
C	 0.6427866853	-0.5487092814	-1.2188272686	-0.102578
C	 2.2226853257	-0.3843805541	-1.2014121711	 0.067958
C	 2.4521002452	 0.136159557	 0.2294716457	-0.290965
C	 1.1890995213	-0.5666284148	 0.7734344205	 0.342573
O	 1.1006233499	-0.9125834631	 2.117741707	-0.49091
C	 1.1174862265	-1.7180367692	-0.3348545035	 0.070284
O	 2.3840938415	-1.8222159362	-0.9949322171	-0.296874
H	 0.6364450689	 2.2309611871	-0.2677691968	 0.116802
H	-1.0751454167	 1.9257420383	-0.5493532471	 0.120901
H	-0.4533752679	 1.9605789515	 1.1007718675	 0.113396
H	-0.9041496481	-0.3893017368	 0.2536559874	 0.08002
H	 0.1481183899	-0.6790631735	-2.1787104448	 0.077622
H	 2.8029351472	 0.0101635817	-2.0343824715	 0.081608
H	 3.3778201647	-0.2751315015	 0.6368915195	 0.113069
H	 2.4401248763	 1.2219172806	 0.3449509949	 0.092961
H	 1.3210796471	-0.1423399311	 2.6520695057	 0.281829
H	 0.5971905741	-2.6498812958	-0.1209345204	 0.091148
