18
gdb 12315	3.04054	2.04534	1.28577	3.2407	75.39	-0.2349	-0.0424	0.1925	962.3192	0.154793	-347.857093	-347.849396	-347.848451	-347.889004	29.117	
C	 0.012565441	 1.5103826952	 0.0521859162	-0.476446
C	 0.0046494922	 0.0083443937	-0.0168874386	 0.217327
C	-0.0439773979	-0.6814406304	-1.1686816432	-0.13373
C	-0.0184416644	-2.1806087391	-1.2723168625	-0.248885
C	 0.5443828665	-2.8337647077	-0.0051717455	-0.220315
C	-0.1045246698	-2.2286054143	 1.2431739254	-0.302897
C	 0.0333779049	-0.7116220381	 1.2872048073	 0.325345
O	 0.1208111652	-0.1077643378	 2.3390113098	-0.323995
H	 0.9111223326	 1.8697729763	 0.5639825235	 0.140246
H	-0.0258110725	 1.9535422024	-0.9461781598	 0.111093
H	-0.836534323	 1.8790110552	 0.6370017524	 0.137392
H	-0.1090438082	-0.1306078385	-2.1061718294	 0.09469
H	-1.0412058918	-2.543175304	-1.4629645817	 0.117668
H	 0.5633703693	-2.4777906807	-2.1528838152	 0.11048
H	 0.3943779856	-3.9178641018	-0.0306063349	 0.101176
H	 1.6274150455	-2.6629819862	 0.0325611837	 0.109901
H	-1.1815357499	-2.4537675121	 1.2463236508	 0.120326
H	 0.3069283847	-2.6341368521	 2.1709478718	 0.120625
