13
gdb 25113	3.42019	1.41684	1.05712	2.7903	70.9	-0.2725	-0.0868	0.1856	1050.036	0.090196	-452.774839	-452.767597	-452.766653	-452.807361	26.377	
N	-0.0921941756	 1.2659672815	 0.6358662234	-0.478849
C	-0.0067435253	 0.1797481897	-0.008008057	 0.367168
O	 1.2317785762	-0.1812104419	-0.539671464	-0.235554
C	 1.5653498782	-1.3358037369	-1.1721504319	 0.139229
N	 0.8917050647	-2.1707377182	-1.8324166877	-0.276127
C	-0.4930009688	-2.1433541616	-2.0650838619	 0.358368
O	-0.944700328	-2.5255760664	-3.1184549973	-0.299452
C	-1.4039095881	-1.6957307306	-0.9803772427	-0.185851
C	-1.1843992221	-0.6811146236	-0.1377150934	-0.07593
H	 0.8034513077	 1.7564344552	 0.6454804568	 0.239708
H	 2.6427264215	-1.4654664073	-1.0808899481	 0.153164
H	-2.3797011005	-2.170730653	-0.9974974999	 0.144261
H	-1.98033548	-0.3520645569	 0.5214058838	 0.149867
