19
gdb 86068	2.14821	1.37622	0.94122	3.6374	81.57	-0.2475	-0.0558	0.1917	1271.0754	0.157991	-423.061142	-423.051935	-423.050991	-423.09519	33.965	
C	 0.0371167474	 1.4915279261	 0.0894845417	-0.503348
C	 0.060491866	 0.0002011345	-0.0132677057	 0.222424
C	 0.028483239	-0.7803655159	-1.1168261495	 0.134293
C	 0.0276355774	-2.2530671708	-0.7613571135	-0.333282
C	 0.4866280011	-2.2609006851	 0.7147601734	 0.119443
O	 1.8837839331	-2.4860570307	 0.8392925617	-0.433229
C	 0.0892285772	-0.856546517	 1.2332863885	-0.317718
C	-0.0358505343	-0.3282141705	-2.5053699085	 0.053601
O	-0.0897275403	-1.0816736534	-3.4558187353	-0.272633
H	 0.9233138916	 1.8503083001	 0.6276822929	 0.139207
H	-0.0012987958	 1.9928428522	-0.8787591497	 0.138
H	-0.8301577474	 1.8176560186	 0.6774752534	 0.140964
H	-0.9789270746	-2.6753268857	-0.8755818228	 0.117603
H	 0.6910305562	-2.8522442567	-1.3910350795	 0.127719
H	 0.0217786268	-3.0611182547	 1.2947627466	 0.089169
H	 2.3357714809	-1.8620407109	 0.2599432855	 0.279677
H	 0.7932849467	-0.5009442783	 1.9939169885	 0.116585
H	-0.9060205973	-0.8637409048	 1.701489733	 0.118486
H	-0.0298311037	 0.7720314427	-2.6603510708	 0.06304
