15
gdb 48640	3.39683	1.5627	1.42843	4.185	68.84	-0.2345	-0.0327	0.2018	929.4175	0.111992	-420.593332	-420.586457	-420.585513	-420.624594	27.429	
O	-0.0250273266	-0.0464155256	-0.0262938799	-0.229838
C	 0.0259100642	 1.1519856399	 0.0096754144	 0.053823
C	 1.2874915562	 1.9678714479	-0.0027473934	 0.236715
O	 2.4877707486	 1.2032583547	-0.0636848394	-0.242971
C	 3.3672029665	 2.3393606463	-0.0539832558	-0.058878
C	 2.8004936499	 3.1314693733	-1.260781593	-0.07689
C	 1.4915104109	 2.9130984994	-1.2303223531	-0.128764
C	 2.8762173055	 3.0515883488	 1.2331679745	-0.076923
C	 1.5674282464	 2.8328572116	 1.2684230674	-0.128728
H	-0.8949042192	 1.7805983182	 0.0571213902	 0.076442
H	 4.4113637004	 2.0357449787	-0.095404134	 0.091158
H	 3.3765072851	 3.7646219091	-1.9198059584	 0.120183
H	 0.7003462593	 3.3110265771	-1.8484423703	 0.122236
H	 3.4923920895	 3.6423856127	 1.8951925764	 0.120186
H	 0.8159577934	 3.1886595479	 1.9576612544	 0.122248
