21
gdb 10758	3.38012	1.42632	1.32164	1.0815	74.44	-0.2276	0.0677	0.2953	1051.505	0.18651	-366.226904	-366.217401	-366.216457	-366.260705	35.591	
C	 0.3497679288	 1.3897321407	 0.043217607	-0.413508
C	-0.0466741602	-0.0914236874	 0.1330371797	 0.249907
C	 0.4181112349	-0.6718824054	 1.4803235186	-0.434842
C	-1.5819590233	-0.2388757232	 0.0126661252	-0.072947
O	-2.3032849246	 0.4013114479	 1.0536749561	-0.421411
N	 0.483995512	-0.7329339586	-1.0863110589	-0.082343
C	 1.8512025548	-1.2252286598	-1.1471922054	-0.227128
C	 0.6980389232	-2.1702724679	-1.1671593743	-0.231216
H	 1.4382628827	 1.4986267243	 0.0778091126	 0.116975
H	-0.0013398297	 1.824984955	-0.8973866332	 0.117949
H	-0.0636114329	 1.9603579146	 0.8811208637	 0.106161
H	-0.1627416342	-0.2054662919	 2.2797160204	 0.135224
H	 0.2466398519	-1.7506743719	 1.5472460789	 0.113109
H	 1.4773098351	-0.4760276057	 1.6713718672	 0.10926
H	-1.8895297772	 0.1204863586	-0.9788654154	 0.096914
H	-1.8453551664	-1.3003840806	 0.0747517362	 0.104417
H	-2.2792438305	 1.3486307063	 0.8903948804	 0.286162
H	 2.3953780722	-0.9918857374	-2.0588429765	 0.112888
H	 2.4580354226	-1.2162621371	-0.2443882286	 0.109674
H	 0.5533918364	-2.785320331	-0.2819793554	 0.110829
H	 0.3795035145	-2.6379835394	-2.0952177385	 0.113926
