16
gdb 3224	4.93408	2.7773	2.35281	1.3658	63.88	-0.2164	0.0757	0.2921	639.859	0.137022	-288.555332	-288.549165	-288.548221	-288.584766	24.701	
C	 0.0504407186	 1.5057997599	 0.0310322049	-0.469494
C	-0.0006169236	 0.0110620462	 0.0422788888	 0.373661
C	-0.9399268044	-0.8141124294	 0.8764262742	-0.344946
C	 0.5496358094	-1.0292643716	 0.9943314085	-0.121376
C	 1.1369073775	-1.7365168618	-0.2381782898	-0.024379
C	 0.165265261	-2.0728012275	-1.297465144	-0.251753
N	 0.6253865346	-0.6738269261	-1.1745177523	-0.181757
H	 1.0525463477	 1.8574809054	-0.2337864571	 0.127984
H	-0.650707816	 1.9114124238	-0.7082639188	 0.124289
H	-0.21558446	 1.9137414578	 1.0110076289	 0.114217
H	-1.3587559213	-0.254713906	 1.708118551	 0.114304
H	-1.6204021097	-1.5642929287	 0.4884371848	 0.110964
H	 1.0921916213	-0.9012790384	 1.9219700362	 0.091587
H	 2.175814521	-2.0484873321	-0.2824548913	 0.096916
H	 0.5629720986	-2.5437170389	-2.1925477484	 0.120677
H	-0.8595450646	-2.3491067125	-1.0791168857	 0.119106
