18
gdb 81676	3.57645	1.31004	1.21566	2.7584	72.73	-0.2468	0.022	0.2688	1065.2745	0.1494	-439.082999	-439.075468	-439.074524	-439.11496	30.072	
O	 0.0992971124	 1.2714152714	 0.1589661148	-0.440378
C	 0.0445902206	-0.1267537761	-0.0097789187	 0.116043
C	-1.4328506593	-0.5888214265	-0.1027192914	-0.048161
C	-1.3671514535	-0.2701636323	-1.6266787115	-0.254563
C	 0.1406365845	-0.5824844776	-1.4960311008	 0.071759
O	 0.3817158614	-1.9945647762	-1.5562544142	-0.259571
C	-0.4284789074	-2.8003455625	-0.7978500969	 0.393894
N	-0.3150643392	-4.0592964898	-0.8152295531	-0.5274
C	-1.4685290159	-2.1074095559	 0.0759828721	-0.300216
H	 1.0101066494	 1.5558242023	 0.0287823438	 0.287875
H	 0.6963378941	-0.6575617778	 0.6985285015	 0.073779
H	-2.1593956645	-0.068939409	 0.523547707	 0.08202
H	-1.9462461815	-0.8898879772	-2.3154253529	 0.107161
H	-1.5345584635	 0.7874296641	-1.8292047376	 0.124025
H	 0.8707414861	-0.1192053512	-2.1618216806	 0.08175
H	 0.4317111057	-4.3373705623	-1.4551146511	 0.218648
H	-1.2793460402	-2.391020495	 1.1167575193	 0.13568
H	-2.4518828491	-2.5112550685	-0.1840418196	 0.137656
