22
gdb 96077	2.45859	1.58095	1.13735	1.1757	82.11	-0.2165	0.0795	0.296	1168.2046	0.194691	-404.328108	-404.319278	-404.318334	-404.361032	34.72	
C	-0.0131267191	 1.5499250413	-0.0153976333	-0.396045
C	 0.0360800618	 0.0249761471	 0.0037043293	 0.050814
C	 0.5401853017	-0.5642323276	-1.3187968626	-0.101763
O	 0.6850658363	-1.9666973797	-1.2050514212	-0.23765
C	 1.7449589723	-2.3032849098	-0.327021844	-0.164554
C	 1.6312387762	-1.6398234099	 1.0552590018	 0.322956
C	 1.5705784021	-2.5960855912	 2.2269897882	-0.464314
C	 2.2387222099	-0.2845760829	 1.2197909812	-0.297884
N	 0.7854308386	-0.444008579	 1.1797505954	-0.12223
H	 0.9821907373	 1.9768756769	-0.1802793078	 0.11452
H	-0.6707521368	 1.9080123445	-0.813992613	 0.114253
H	-0.3893518032	 1.9286863393	 0.9386608718	 0.128632
H	-0.9816994834	-0.3615125033	 0.1449784691	 0.088221
H	-0.1915174256	-0.3846803935	-2.1124014722	 0.108846
H	 1.4930311378	-0.1003466056	-1.630761363	 0.08062
H	 1.7052560159	-3.3903607978	-0.217415551	 0.111119
H	 2.709041443	-2.0487198342	-0.7983840402	 0.090363
H	 2.4746138788	-3.2147150948	 2.274664543	 0.113147
H	 1.4757059074	-2.0466149674	 3.1667619985	 0.124622
H	 0.7086532358	-3.26678272	 2.1361557352	 0.123014
H	 2.642396132	 0.0276270596	 2.1803697349	 0.108698
H	 2.7539356312	 0.1404583381	 0.36000557	 0.104613
