20
gdb 62019	3.68508	0.7224	0.64849	3.6322	78.29	-0.2514	-0.0262	0.2252	1742.7951	0.167585	-440.308715	-440.297929	-440.296985	-440.346362	36.798	
C	 0.0347954134	 1.4354447302	 0.1770554515	-0.407225
C	-0.032941122	-0.0929100014	 0.0072282534	-0.084881
C	-1.4779556896	-0.596980653	-0.0525702396	-0.06078
O	-2.114013167	-0.2316507091	 1.1758106489	-0.242843
C	-3.4179231325	-0.5647024237	 1.3040131676	 0.397234
C	-3.9335322598	-0.119943884	 2.648387401	-0.461718
N	-4.0333487377	-1.1655731719	 0.3710593163	-0.518181
C	 0.6757663125	-0.4869323543	-1.276236842	 0.155996
O	 1.6436348682	-1.1981360951	-1.3433268877	-0.242529
H	 1.0693782458	 1.773083581	 0.284122638	 0.129276
H	-0.4025745686	 1.9473593711	-0.688174142	 0.12023
H	-0.5245767221	 1.7367840548	 1.0647426009	 0.140542
H	 0.4874799476	-0.5893043063	 0.8320386965	 0.104102
H	-2.0258520811	-0.1542186172	-0.8928544359	 0.120961
H	-1.5205986718	-1.6845250078	-0.1731402177	 0.129394
H	-4.9855091087	-0.3821947892	 2.7694390225	 0.129105
H	-3.3523571603	-0.5882625	 3.4485127467	 0.148916
H	-3.8191120006	 0.9629202642	 2.7570148458	 0.14666
H	-5.0009556464	-1.3386504496	 0.6327540889	 0.222118
H	 0.2285680704	-0.0393078587	-2.196518423	 0.073624
