21
gdb 92374	2.15531	1.98191	1.54982	1.3004	77.23	-0.2365	0.0824	0.3189	998.8202	0.183388	-424.243404	-424.235285	-424.234341	-424.275368	32.842	
C	-0.1944473418	 1.5251789872	-0.0190915345	-0.412106
C	 0.0063939755	 0.0195562266	-0.0027241056	 0.124954
O	 0.8362662694	-0.3947220354	-1.119061923	-0.305738
C	 1.9180840783	-1.1487381081	-0.5563616032	 0.070872
C	 2.8193625364	-0.1646487266	 0.1965992837	-0.084239
O	 2.0100558565	 0.1962779421	 1.3338033476	-0.314215
C	 0.7784207524	-0.5499622532	 1.2149253561	 0.377015
C	 0.0603404259	-0.5420705104	 2.5431332543	-0.481904
C	 1.2610865364	-1.8851741399	 0.617027818	-0.275644
H	 0.7430872915	 2.0415710563	 0.1981844129	 0.13283
H	-0.5568940715	 1.8414445815	-1.0009492472	 0.122293
H	-0.9377038537	 1.8223592472	 0.7285088718	 0.110776
H	-0.9680005329	-0.4844727678	-0.093340453	 0.06758
H	 2.3963828347	-1.7301435574	-1.3442867761	 0.080768
H	 3.7621346097	-0.6128762337	 0.5379466252	 0.094828
H	 3.0372916367	 0.7199308144	-0.4110157105	 0.106109
H	-0.1755084834	 0.48100916	 2.8503242233	 0.130901
H	-0.8741697845	-1.1075004826	 2.4792881975	 0.118405
H	 0.6886509989	-0.9905399836	 3.3173921514	 0.126965
H	 0.4550804152	-2.5502065734	 0.301184766	 0.105988
H	 1.9594475403	-2.4099207732	 1.2726077053	 0.103559
