18
gdb 14054	4.52252	1.53706	1.43944	1.7878	66.63	-0.2465	0.0615	0.308	922.1207	0.155484	-384.917015	-384.909736	-384.908792	-384.949637	26.673	
C	-0.058475336	 1.504419427	-0.0888611132	-0.117383
O	 1.3515947059	 1.6519977138	 0.1726823996	-0.272385
C	 1.4899651093	 0.243623815	 0.4440555885	-0.13633
C	 0.0414628182	-0.0383208878	-0.0057087472	 0.304621
C	-0.9412862709	-0.7935584399	 0.9106617078	-0.335707
C	-1.8433762762	-1.5798995641	-0.076571372	-0.070605
O	-1.5079715751	-1.1192570014	-1.3816924238	-0.24509
C	-0.1360619251	-0.7753163461	-1.3372074939	-0.147624
H	-0.668863548	 1.9659272363	 0.6998378599	 0.094088
H	-0.3491970007	 1.9259861558	-1.0589182539	 0.105947
H	 2.2834303513	-0.2180589762	-0.1586044152	 0.101072
H	 1.6914542804	 0.0466844615	 1.5061047337	 0.096316
H	-0.4095454574	-1.4720752861	 1.5847007067	 0.107859
H	-1.5155189349	-0.1026093224	 1.5331587312	 0.112337
H	-1.656296876	-2.6615703149	 0.0047011487	 0.092944
H	-2.9123669181	-1.4075161185	 0.0722160341	 0.111653
H	 0.0958739017	-0.167790123	-2.2160359692	 0.116026
H	 0.5026375316	-1.6771632992	-1.358701632	 0.082262
