19
gdb 40759	2.74628	1.33254	1.01054	0.8344	75.74	-0.247	0.0574	0.3044	1206.2889	0.158585	-422.96097	-422.952574	-422.95163	-422.994811	31.242	
C	 0.0826760682	 1.4574651273	 0.021533441	-0.178154
O	 1.0117672662	 0.4411060802	-0.3616601057	-0.240699
C	-0.3095530943	 0.04404143	 0.0233917122	 0.071676
C	-0.39044299	-0.7514299763	 1.2979108109	 0.046922
O	-1.7585766091	-0.9092962962	 1.7469954094	-0.300363
C	-1.6725504794	-2.3539469676	 1.6993374591	-0.139601
C	-0.2385015769	-2.2701902207	 1.1909047412	 0.285359
C	 0.4326738591	-3.0651458314	 0.1123390807	-0.328427
C	 0.9405644201	-3.1220672568	 1.5360793679	-0.324488
H	 0.298263028	 1.9557992352	 0.9657635445	 0.118492
H	-0.255914278	 2.1076790038	-0.7833201738	 0.118671
H	-0.9308656785	-0.3259751214	-0.7926328125	 0.095844
H	 0.2400630313	-0.2799981843	 2.0650523219	 0.07869
H	-1.8031038214	-2.8023067353	 2.6929270565	 0.103188
H	-2.4112787276	-2.7840710252	 1.0106638255	 0.103827
H	-0.0901580989	-3.9312110784	-0.2813789925	 0.114452
H	 1.0279895367	-2.5273579351	-0.618111603	 0.136557
H	 1.8790258339	-2.6259365474	 1.7625500964	 0.123591
H	 0.7624368905	-4.0267349306	 2.1092232704	 0.114463
