16
gdb 34513	5.09015	1.20775	1.09944	1.6771	84.92	-0.2168	-0.0397	0.1772	1096.5281	0.125114	-363.498435	-363.491618	-363.490674	-363.529487	27.893	
C	 0.0837067552	-1.175158397	-0.0076440703	-0.399146
C	-0.0110420363	 0.0268206163	-0.0060527034	 0.175061
C	-0.0674350539	 1.4311383862	-0.0107561065	 0.236319
C	-1.1061972809	 2.2856101005	 0.0015111401	-0.225234
C	-0.4401596192	 3.6364673167	 0.015514554	-0.027146
C	 0.8079570941	 3.5940796472	-0.92510844	-0.061256
C	 1.5216967569	 4.4621962428	 0.115357614	-0.187881
N	 0.7531331441	 3.4927282137	 1.0189615646	-0.14287
C	 1.1278293004	 2.3790517093	-0.0042460903	-0.114461
H	 0.1517469251	-2.2346809751	-0.003385836	 0.191034
H	-2.164988792	 2.0754796577	 0.0273843546	 0.122187
H	-1.0343759752	 4.544196976	 0.1215129124	 0.078137
H	 0.8296775626	 3.6400405613	-2.0210606467	 0.06961
H	 2.6077320212	 4.3730585543	 0.2054915023	 0.102736
H	 1.2044047966	 5.5030566315	 0.2246996198	 0.101892
H	 2.135686781	 1.9732090385	 0.0804050215	 0.081019
