16
gdb 49580	1.98557	1.73642	1.10748	4.0534	74.94	-0.2314	-0.0238	0.2076	1098.6984	0.122806	-400.66604	-400.657726	-400.656782	-400.699556	30.793	
O	 0.0052298425	-0.0927384878	 0.0639632875	-0.257885
C	 0.0197389053	 1.0865090954	-0.1895056261	 0.155109
C	 1.2484540726	 1.9516346321	-0.040947824	-0.112949
C	 1.5488116062	 2.9279108653	-1.1927936543	-0.072618
N	 0.3804015649	 3.8366560518	-1.2837357411	-0.323078
C	 1.4475897199	 4.1132210452	-0.3044612347	-0.054067
C	 1.1645023993	 3.2262347996	 0.9244682421	-0.216993
C	-0.0383979172	 3.4694257641	 1.6953407684	 0.349019
C	-1.0299237453	 3.6644340584	 2.3462482613	-0.449904
H	-0.8771908625	 1.6160320792	-0.5649645651	 0.109049
H	 2.0966078096	 1.3208517347	 0.2276360027	 0.099298
H	 2.1862261009	 2.7439571759	-2.0478381544	 0.10975
H	 0.5322378459	 4.4499461477	-2.0833079294	 0.238068
H	 1.9869187642	 5.0515989884	-0.3102838264	 0.108437
H	 2.036365637	 3.2016752705	 1.5842179753	 0.118211
H	-1.9102996833	 3.8386040995	 2.9139949081	 0.200553
