19
gdb 86750	4.3532	0.98165	0.91184	2.6027	76.62	-0.2528	0.006	0.2588	1307.8312	0.159605	-423.004653	-422.996191	-422.995247	-423.038639	31.746	
O	-0.339549055	 1.5452454893	-0.458855819	-0.436606
C	 0.1281163891	 0.2702727296	-0.0121732822	 0.097984
C	-1.0001346362	-0.7262163555	 0.3553837053	-0.257366
C	-1.1163877721	-1.7167416469	-0.8390919916	-0.084152
C	 0.1944682862	-1.503321079	-1.5678147731	-0.0583
C	 0.8774338709	-0.4588714742	-1.1027800609	-0.120534
C	-1.4007076358	-3.1315275371	-0.3734597684	 0.083732
C	-0.841234684	-4.3450787505	-0.9819440658	-0.18659
O	-0.3354306737	-3.8436567886	 0.2578468586	-0.231211
H	-0.735886501	 1.415955522	-1.3277262657	 0.273534
H	 0.7519329403	 0.5063528817	 0.8553443284	 0.090682
H	-0.7089438488	-1.2877646137	 1.2483148751	 0.121969
H	-1.9288085688	-0.1954181687	 0.5773229435	 0.10479
H	-1.9533085281	-1.4403259692	-1.4996845123	 0.082459
H	 0.5056317904	-2.1256143266	-2.3997797575	 0.099083
H	 1.8204003258	-0.0941671266	-1.4944985149	 0.100618
H	-2.3588732365	-3.2371896	 0.141019214	 0.09201
H	-1.3933956178	-5.2820404809	-0.9179264885	 0.11422
H	-0.158453825	-4.2721631951	-1.826072115	 0.113678
