21
gdb 110942	2.25971	1.5106	1.10057	1.1361	79.4	-0.2416	0.0789	0.3205	1198.8771	0.181492	-424.170842	-424.161532	-424.160588	-424.205014	34.314	
C	 0.178336353	 0.8229852848	-0.4619368668	-0.237495
O	-0.4738613135	-0.0688855867	 0.4245620603	-0.241316
C	 0.3829785772	-0.6548075041	 1.3461550412	 0.143544
C	 0.0935893584	-2.0144573903	 1.8622160732	-0.120248
C	-0.4813649668	-2.8856474574	 0.7367066951	-0.276658
C	 0.8717310354	-2.7078265665	-0.0370556849	 0.163496
O	 0.8753071353	-2.2028914987	-1.349116724	-0.239722
C	 0.4282029183	-3.13676665	-2.3050810298	-0.236658
C	 1.3767432937	-1.7428670262	 1.020273497	-0.176474
H	 0.9104263239	 0.2936223219	-1.0823952055	 0.131072
H	-0.5949573545	 1.255858746	-1.1012721075	 0.119561
H	 0.6812859528	 1.6363183636	 0.0832805075	 0.095894
H	 0.7689108194	 0.0435958531	 2.0934664373	 0.082741
H	 0.014695358	-2.2321247068	 2.9200759354	 0.089792
H	-0.6768156905	-3.918974697	 1.0280372198	 0.097013
H	-1.3591604008	-2.4637716832	 0.2436931042	 0.118591
H	 1.4408476639	-3.6497233911	-0.0033938201	 0.067096
H	-0.6158973499	-3.4370096864	-2.1315245205	 0.110292
H	 0.4975017323	-2.6599626762	-3.2857181256	 0.125324
H	 1.0516156196	-4.0454775209	-2.3072435375	 0.101164
H	 2.409801785	-1.6715485379	 1.3412076612	 0.082992
