17
gdb 32825	3.22318	0.97922	0.79372	2.5023	71.55	-0.2014	0.0175	0.2189	1399.1426	0.136446	-455.167888	-455.158823	-455.157879	-455.202709	32.371	
N	 0.2887768207	 1.4272138113	 0.102547046	-0.598525
C	 0.025122607	 0.068586553	 0.0320808042	 0.26815
C	-1.0971463139	-0.6935260146	-0.0998576611	 0.188099
C	-2.5332493321	-0.2900570396	-0.1512435105	-0.337861
C	-3.1224054233	-0.3446250295	-1.571403271	-0.053239
O	-4.4865347677	 0.0407066443	-1.6099499128	-0.417375
N	-0.6953897733	-2.0291456907	-0.2237447312	-0.300316
C	 0.5879779189	-2.0014005419	-0.1490270774	 0.05172
O	 1.1138774732	-0.7504961111	 0.0044376311	-0.168509
H	 1.0207702838	 1.6562279224	 0.7645083384	 0.259197
H	-0.5427351395	 1.9700230558	 0.2932412474	 0.259696
H	-3.1173101653	-0.9568048644	 0.4971470274	 0.107218
H	-2.665013465	 0.7254283915	 0.2420622028	 0.09311
H	-2.5915502584	 0.3612298603	-2.2187401512	 0.112017
H	-2.968496033	-1.3501159189	-1.9888614105	 0.10883
H	-4.9940436755	-0.6307819303	-1.1431013089	 0.282094
H	 1.2920708032	-2.8167883876	-0.1795558526	 0.145695
