25
gdb 100934	2.42051	0.90881	0.79087	1.3805	86.04	-0.2387	0.0741	0.3128	1626.3905	0.225636	-426.617286	-426.605235	-426.604291	-426.655055	42.522	
C	 0.0449726531	 1.5303103278	 0.1342705553	-0.394386
C	-0.0444895645	 0.0049674307	 0.0271742017	-0.167633
C	-1.4763644508	-0.5509450189	-0.1015398269	 0.018741
C	-2.1612003223	-0.1072757133	-1.4044989824	-0.397206
C	-1.4561870221	-2.0864184194	 0.0443506351	 0.130602
C	-2.8582622909	-2.6965480203	 0.1182541417	-0.096558
O	-2.7539334553	-4.0050150618	 0.6699928235	-0.423949
O	-0.7098262144	-2.6110228999	-1.0447732197	-0.260458
C	-0.0820990004	-3.8578899632	-0.8184737426	-0.232069
H	 1.0794060515	 1.8464317703	 0.3027360665	 0.11072
H	-0.3020237118	 2.0299585716	-0.7751879772	 0.117644
H	-0.5558902987	 1.9076613063	 0.9700659524	 0.108826
H	 0.5462027581	-0.3479862064	-0.8250666838	 0.109327
H	 0.4164126482	-0.4372183055	 0.9202678451	 0.085773
H	-2.0610623589	-0.1670858079	 0.7470799231	 0.064695
H	-3.2059375219	-0.4311261363	-1.4442970154	 0.107263
H	-2.1590283797	 0.9814826708	-1.502436155	 0.110698
H	-1.6443275784	-0.5319359953	-2.2697078119	 0.133776
H	-0.9495369772	-2.3388756782	 0.9909623472	 0.068958
H	-3.5004660004	-2.0589523076	 0.7471032371	 0.083014
H	-3.2887236807	-2.7259376955	-0.8920474218	 0.097582
H	-3.6134271984	-4.4302463988	 0.59834206	 0.286517
H	 0.528100887	-4.0677396288	-1.7015045126	 0.114268
H	 0.5760212968	-3.8203846812	 0.0635179058	 0.099898
H	-0.8061618379	-4.6658637693	-0.6709508552	 0.123958
