14
gdb 34475	1.9168	1.76815	0.93049	3.1841	81.49	-0.2535	-0.0771	0.1764	1168.985	0.100151	-399.535356	-399.526936	-399.525992	-399.570128	29.347	
C	 0.1251184884	-1.1900372988	-0.0356822351	-0.370156
C	 0.0202785197	 0.00945017	-0.0005389686	 0.184746
C	-0.0409990561	 1.4140226289	 0.0412736193	 0.091242
C	-1.1286834814	 2.2095838611	 0.0586770892	 0.075469
C	-0.7010794562	 3.6590300043	 0.1048268639	-0.150951
O	 0.7180048135	 3.6232455004	 0.1118380523	-0.261347
C	 1.1940792302	 2.2876042258	 0.0749557065	-0.161941
C	-2.4839796975	 1.8068434374	 0.0385111387	 0.194098
N	-3.6057962381	 1.5171179564	 0.0231090127	-0.335013
H	 0.1947253788	-2.2498485568	-0.0665995058	 0.21028
H	-1.065931746	 4.2198881261	-0.7680514671	 0.131521
H	-1.076139691	 4.1663470123	 1.0057047058	 0.131495
H	 1.8109454992	 2.073438432	 0.9600263491	 0.130267
H	 1.8219167066	 2.1264308309	-0.8136152009	 0.13029
