21
gdb 40939	3.17504	1.36946	1.21261	1.578	83.13	-0.2333	0.0325	0.2658	1124.7122	0.184423	-387.095489	-387.087471	-387.086527	-387.128172	31.623	
C	 0.0389072138	 1.3314337626	-0.3970551698	-0.064595
C	 1.459847265	 1.5354393775	 0.1594055516	-0.353349
C	 1.2759495606	 0.1296157512	 0.7797377819	 0.442883
C	 2.1114214002	-0.991681319	 0.1670202042	-0.253927
C	 1.5581154349	-2.3629001181	 0.5809803087	-0.250567
C	 1.2952121019	-2.4314340226	 2.06209572	-0.044624
C	 1.1895982241	-1.3496803368	 2.8319124733	-0.049075
C	 1.3074305914	 0.0582427033	 2.306702189	-0.296139
O	-0.0966998966	 0.0651172294	 0.2751467941	-0.324255
H	-0.7171283557	 2.0540881936	-0.0673472249	 0.100562
H	-0.0293323632	 1.2274494574	-1.4875657377	 0.09832
H	 2.2603749115	 1.6218293721	-0.5781008765	 0.105138
H	 1.5556031274	 2.3421555447	 0.8893519167	 0.105096
H	 2.1205413324	-0.8944572784	-0.9239491867	 0.09015
H	 3.147695099	-0.8858424917	 0.5140353256	 0.096771
H	 0.6243304793	-2.5550987138	 0.0351947374	 0.126207
H	 2.2540296249	-3.1556870614	 0.2817220085	 0.096713
H	 1.1752177367	-3.4192057503	 2.5005211347	 0.081741
H	 1.0002165223	-1.4572538703	 3.8973220002	 0.081232
H	 2.2401194499	 0.5191657629	 2.6666192183	 0.103934
H	 0.49322002	 0.6798031676	 2.6995694115	 0.107781
