21
gdb 92507	2.64502	1.44102	1.0301	1.7212	86.83	-0.2207	0.0218	0.2425	1211.0834	0.183019	-387.081172	-387.072445	-387.071501	-387.114347	33.959	
C	-0.0476934668	 1.4883185765	 0.0241346279	-0.488427
C	-0.029702389	-0.0043148092	 0.1074262344	 0.073177
C	-1.0358355759	-0.8740879986	 0.1506238813	 0.231809
C	-2.4513408088	-1.1471569318	-0.3066473921	-0.321373
C	-1.8696968999	-2.4903397828	-0.8954867191	-0.238409
C	-0.6214733085	-2.3136588775	 0.0420659166	-0.032218
C	 0.8560030564	-2.2279957119	-0.3762353021	-0.278505
C	 1.2888004846	-0.8022165962	 0.098444789	 0.07457
O	 2.3026227539	-0.2183668829	-0.7075685653	-0.428574
H	 0.623125947	 1.8520126386	-0.7613235327	 0.121503
H	-1.0554293362	 1.8674371651	-0.167484144	 0.117546
H	 0.3068042141	 1.9394974374	 0.9605958895	 0.12885
H	-3.1486726386	-1.3442186265	 0.5150092874	 0.110743
H	-2.9149131626	-0.4358322518	-0.9952039601	 0.10659
H	-2.475644914	-3.3907368678	-0.7670356538	 0.098342
H	-1.6043835285	-2.3781844047	-1.9501746163	 0.102832
H	-0.758555417	-2.8875624607	 0.9667986745	 0.074364
H	 1.496487712	-3.0185632773	 0.024179076	 0.09844
H	 0.9438402017	-2.2551943877	-1.4705961326	 0.086828
H	 1.7432405085	-0.8409841922	 1.0978718647	 0.089742
H	 1.9726878677	-0.1964255378	-1.6132665732	 0.272169
