15
gdb 20927	5.86592	1.28267	1.1437	3.2776	65.81	-0.2192	0.001	0.2202	1043.5081	0.119125	-395.968129	-395.960386	-395.959442	-396.001563	27.302	
C	 0.7374292408	 0.7996946988	-0.5669410127	-0.360799
C	-0.4468601125	 0.2848354179	 0.2572512589	-0.141463
N	-0.8316833884	-1.0627949837	-0.1500347997	-0.390229
C	-1.8078285865	-1.2123108558	-0.9287803914	 0.544077
N	-2.2982696898	-2.4201347124	-1.4170703404	-0.367029
C	-3.3739342201	-2.142804752	-2.2036211755	 0.082616
N	-3.6315157222	-0.8842489849	-2.2926167303	-0.125718
O	-2.6323975747	-0.2583502964	-1.4862056662	-0.254188
H	 1.0682474158	 1.7762428131	-0.1984005161	 0.108809
H	 1.5787825682	 0.1029982918	-0.5068790577	 0.120823
H	 0.4601465415	 0.9082250471	-1.6202052663	 0.119304
H	-0.1541194649	 0.2350516163	 1.3123552352	 0.100367
H	-1.2821272427	 0.9944788817	 0.1867821408	 0.108282
H	-1.9148662933	-3.3156354263	-1.1735385412	 0.287499
H	-3.9590444511	-2.8961085351	-2.7094152473	 0.167649
