17
gdb 87517	3.52685	1.40557	1.29679	2.9351	72.24	-0.2287	-0.0013	0.2274	1013.7707	0.13555	-421.739427	-421.732071	-421.731127	-421.770972	29.695	
O	-0.0839093054	 1.3876579536	-0.0481124261	-0.419444
C	-0.0031843936	-0.006089069	 0.0183246048	-0.005805
C	-0.4447313326	-0.7205905307	 1.2956291879	-0.421211
C	-1.2891906678	-0.7378717531	 0.0625994215	 0.432687
C	-2.6946627827	-0.191822346	-0.269110646	-0.06041
O	-2.5099466371	-0.7605257683	-1.6107970722	-0.283063
C	-1.8441602697	-1.8377299493	-0.8719050458	-0.087642
C	-3.0090736975	-2.388753288	-0.0227004551	-0.078796
C	-3.5914690854	-1.2607966401	 0.3898858152	-0.078291
H	 0.6508720144	 1.7528690626	 0.4561061463	 0.288796
H	 0.8210660417	-0.4508001016	-0.5416117648	 0.088351
H	 0.0809492683	-1.6222931045	 1.595195307	 0.112035
H	-0.7734303671	-0.0895354482	 2.1158653901	 0.116535
H	-2.9549081941	 0.8638115709	-0.2463126701	 0.093967
H	-1.2290252198	-2.5022275896	-1.4774726436	 0.080751
H	-3.2469748343	-3.4241996478	 0.169895409	 0.110593
H	-4.4513180173	-1.094594601	 1.0214610519	 0.110946
