20
gdb 17327	3.29929	2.08779	1.73422	0.3103	77.33	-0.2369	0.0856	0.3225	866.8211	0.178962	-311.856222	-311.849147	-311.848203	-311.886851	29.32	
C	-0.003541202	 1.5278302719	 0.0101387001	-0.488777
C	 0.0499503603	 0.01743292	 0.0031506814	 0.374082
C	-0.61028123	-0.7585565721	 1.1195060946	-0.343586
C	 0.894815884	-0.7785744672	 0.9834897965	-0.069004
C	 1.5799162468	-1.9270607025	 0.2362327062	-0.249916
C	 1.1335846523	-1.8321922275	-1.2274570033	-0.025293
C	-0.3132839583	-2.0584672905	-1.5863875763	-0.303375
C	 0.1894291789	-0.6528210916	-1.358897076	-0.089562
H	 0.8425983482	 1.9588912662	-0.5383500012	 0.11379
H	-0.9242663338	 1.8983053031	-0.4562222447	 0.116323
H	 0.0291382026	 1.9186377882	 1.0320373478	 0.111547
H	-1.0173907914	-0.1787097315	 1.9427581209	 0.101501
H	-1.1829791308	-1.6533736338	 0.9041859584	 0.106672
H	 1.4668436056	-0.2725054752	 1.7553128042	 0.076621
H	 2.6657974163	-1.7922796358	 0.2892658355	 0.100101
H	 1.3644536593	-2.907332493	 0.6788566266	 0.099528
H	 1.8754284145	-2.0434002521	-1.9905415652	 0.079282
H	-0.5236971624	-2.3432582885	-2.6125569042	 0.104548
H	-0.9812214545	-2.5191738425	-0.8679037637	 0.109639
H	 0.2373173644	 0.0119011445	-2.2148304779	 0.07588
