18
gdb 14976	4.37993	1.54863	1.20846	1.4468	70.01	-0.2454	0.0218	0.2672	1009.921	0.154161	-384.940499	-384.932705	-384.931761	-384.97268	28.871	
C	 0.0208385327	 1.3799674709	-0.0093446167	-0.241203
O	 0.082428702	-0.036270316	-0.0202238333	-0.238083
C	 0.7057409565	-0.5854732953	 1.0874781695	 0.228112
C	 0.5534872569	-2.1017361335	 1.0384201058	-0.278229
C	 1.4838508079	-2.744012639	 2.034027938	-0.066423
C	 2.4887463926	-2.0700927336	 2.5878105692	-0.066226
C	 2.7831261762	-0.6431911364	 2.2143871576	-0.116294
O	 2.0800623304	-0.2245599478	 1.0591720744	-0.264798
H	 1.0201741818	 1.8260731888	-0.0445904247	 0.130228
H	-0.5435171295	 1.6780865571	-0.8953335825	 0.12626
H	-0.5007432464	 1.747481984	 0.8875274658	 0.10294
H	 0.2601171825	-0.1858928889	 2.0222572016	 0.048067
H	-0.488149549	-2.3708303876	 1.2485107664	 0.109462
H	 0.7659757511	-2.4379295596	 0.0156832561	 0.126948
H	 1.3001404154	-3.7809284822	 2.3010739503	 0.091679
H	 3.1369118855	-2.5258887209	 3.3312919413	 0.091547
H	 2.5632398499	 0.0243858718	 3.0688409485	 0.096551
H	 3.8472716433	-0.5156661818	 1.9836119528	 0.119462
