16
gdb 108176	2.78768	1.45927	1.26897	0.9016	64.1	-0.2459	0.0078	0.2537	1024.9656	0.123971	-474.997947	-474.989618	-474.988673	-475.031191	30.459	
O	 0.0432655979	 1.3980928813	-0.449577894	-0.408402
C	 0.0086249273	 0.1164324841	 0.152492321	-0.16034
C	-1.3501582392	-0.5154465082	 0.1050543578	 0.347202
O	-2.2923271253	 0.121126963	 0.9660446698	-0.244132
C	-3.1263457417	-0.8585556308	 1.393246356	 0.110165
N	-2.8943697877	-2.0600433968	 1.0433906023	-0.269909
C	-1.7601536582	-1.9961786348	 0.1537760421	-0.164187
C	-1.9609465357	-1.163368964	-1.1059360663	 0.034957
O	-3.2249270009	-0.7638234998	-1.5141539548	-0.416648
H	-0.6036647993	 1.9476805529	 0.0058238275	 0.294045
H	 0.7115209443	-0.5074144474	-0.4086253559	 0.116882
H	 0.3536304331	 0.1501233298	 1.1975225265	 0.101844
H	-3.934738958	-0.5234234823	 2.0307211401	 0.148282
H	-1.0814881421	-2.8412354929	 0.1535261737	 0.105212
H	-1.2518752345	-1.3731968288	-1.9065332092	 0.106522
H	-3.7951979301	-1.5406576054	-1.5344818167	 0.298508
