19
gdb 59280	3.09688	1.3184	1.0377	3.012	75.74	-0.244	-0.0037	0.2404	1175.9	0.15867	-423.008019	-422.999544	-422.9986	-423.041157	32.657	
C	 0.0978649497	 1.5339308182	 0.0003625202	-0.416709
C	 0.0184387631	 0.0100450597	 0.0739734876	 0.141046
O	 0.6551860146	-0.4789212423	 1.2525840291	-0.431912
C	-1.4220626167	-0.5393798249	-0.0125276399	-0.09105
C	-2.2000441112	-0.1531955125	-1.2612345044	-0.095889
C	-2.6640709298	-1.2148641635	-1.9254574028	-0.093012
C	-2.2274959901	-2.4742384404	-1.2509092023	-0.006131
O	-0.7869495782	-2.6210019374	-1.2079013477	-0.257623
C	-1.4510073874	-2.069861383	-0.0682233863	 0.036099
H	 1.1332733381	 1.8556649166	 0.1411994952	 0.127851
H	-0.2510208172	 1.9131258237	-0.9645006997	 0.122206
H	-0.5144306283	 1.9987232946	 0.7845480525	 0.103698
H	 0.58687414	-0.4302236118	-0.751348883	 0.112788
H	 0.2592878183	-0.0295630101	 2.0079370367	 0.274008
H	-1.9601438311	-0.1948203629	 0.8854311157	 0.070272
H	-2.3268512088	 0.8781200031	-1.5699197259	 0.104401
H	-3.2487608614	-1.1920538136	-2.8366944633	 0.104368
H	-2.7816375772	-3.4043894354	-1.3299768272	 0.096473
H	-1.3798831962	-2.6573829582	 0.8413509856	 0.099116
