17
gdb 36614	5.49688	0.80719	0.77123	1.8517	75.36	-0.2379	0.0256	0.2635	1462.5321	0.133112	-421.719258	-421.710569	-421.709625	-421.753545	31.953	
C	 0.0565434284	-1.2015745757	-0.052911911	-0.41575
C	 0.0664483378	-0.00241835	-0.1108011906	 0.279763
C	 0.0470925926	 1.4499296738	-0.1925851787	-0.23492
O	 1.2858709287	 1.9744136694	 0.2912268076	-0.284321
C	 1.3793298297	 3.3402636873	 0.1694319682	 0.378267
C	 1.6007627562	 4.0574466786	-1.149476924	-0.355521
C	 2.5940726596	 4.2008474974	-0.0245186385	 0.011477
O	 2.1439886466	 5.1739673529	 0.9214053254	-0.282862
C	 0.987815952	 4.3532397321	 1.2489185875	-0.143099
H	 0.0536042248	-2.2624006713	 0.0006249434	 0.203868
H	-0.112470408	 1.7698685055	-1.233032756	 0.130262
H	-0.7921742302	 1.8456144569	 0.3996077255	 0.128019
H	 1.9267819748	 3.3980304898	-1.948735691	 0.124076
H	 0.9958989884	 4.9080894314	-1.4524115808	 0.116968
H	 3.6544716876	 3.9894321314	-0.086087047	 0.119824
H	 0.0437736999	 4.8993985916	 1.1417402887	 0.105443
H	 1.0792287112	 3.9424712988	 2.2605117915	 0.118507
