20
gdb 11405	5.4296	1.17311	1.00966	0.8417	78.11	-0.2278	0.0319	0.2597	1209.9123	0.17653	-349.016152	-349.00748	-349.006536	-349.049529	31.786	
C	 0.1138639191	 1.3240365511	 0.1341940973	-0.235307
O	-0.1956574947	-0.0181608365	-0.1563375342	-0.242339
C	 0.5790064005	-0.5685821685	-1.201778617	 0.148603
C	 2.0682206719	-0.8453759563	-0.8424499936	-0.281372
C	 2.3352697092	-2.1647069802	-1.5214674309	-0.163921
C	 1.219782812	-2.7689726681	-1.9384784758	 0.330602
C	 1.1050738592	-4.1004702521	-2.6096183964	-0.490707
C	-0.001069532	-1.9394080656	-1.6045069586	-0.332861
H	 1.1417370354	 1.4458371989	 0.507825128	 0.105627
H	-0.0070446979	 1.9698235549	-0.7506838867	 0.10102
H	-0.5800162755	 1.6572899573	 0.9101561233	 0.124256
H	 0.5480015545	 0.1102564416	-2.0698889183	 0.064275
H	 2.7419424329	-0.0459846554	-1.1714124787	 0.096926
H	 2.1765503479	-0.9241928472	 0.2491331085	 0.10997
H	 3.3331582404	-2.5804180725	-1.6201265266	 0.081468
H	 2.0843714403	-4.5635263653	-2.75942443	 0.121195
H	 0.489185547	-4.7904659343	-2.0181432306	 0.125188
H	 0.6154106227	-4.0118141318	-3.5880230957	 0.122885
H	-0.5519054769	-2.3657658552	-0.7545551006	 0.116356
H	-0.7137567561	-1.8656685047	-2.4340593436	 0.098135
