18
gdb 79282	2.9391	1.68173	1.51367	3.6985	74.54	-0.211	-0.0075	0.2036	950.0687	0.149924	-401.951153	-401.944156	-401.943212	-401.982275	28.517	
C	-0.1659935636	 1.4784709094	-0.0111819915	-0.328398
N	 0.0247897582	 0.0337458261	 0.0131869525	-0.077101
C	 0.7968220429	-0.4836175979	-1.1138461928	 0.000289
C	 2.2473753991	-0.6095127554	-0.7216457293	-0.084099
C	 2.337674046	-0.1153359646	 0.7244695504	-0.253581
C	 0.8745828367	-0.4884160126	 1.1089960548	-0.154756
C	 0.8904674525	-1.9847673581	 0.7106935351	 0.483282
O	 0.648363315	-2.9568813781	 1.3708918295	-0.344853
C	 1.3262394678	-1.8489360304	-0.7160108669	-0.22128
H	 0.7651965209	 2.0655290411	-0.0721329888	 0.101695
H	-0.7820881044	 1.7381324968	-0.8783137319	 0.12412
H	-0.7091136154	 1.7849341558	 0.8878092467	 0.125414
H	 0.4513358394	-0.2678172055	-2.1161304092	 0.10485
H	 3.0600702732	-0.5312722145	-1.4310170624	 0.099027
H	 3.0641457369	-0.6694277361	 1.3262527762	 0.118214
H	 2.5609453225	 0.951970073	 0.8008587983	 0.107785
H	 0.5145166924	-0.257224395	 2.1075407292	 0.090163
H	 1.4305932299	-2.6789119639	-1.3987817799	 0.109228
