17
gdb 68666	2.42984	1.84283	1.45903	2.295	72.87	-0.2277	-0.0149	0.2129	953.6373	0.136395	-421.837673	-421.830065	-421.829121	-421.869401	30.087	
O	 0.2027670932	 1.4378082945	-0.1942436788	-0.495442
C	 0.0730708977	 0.0588119006	-0.0890078191	 0.277751
C	-1.3246407968	-0.6699259922	-0.047671348	-0.286707
C	-0.6326886471	-1.7792560938	 0.8187336612	-0.159663
C	 0.1318027005	-2.773129167	-0.0851328943	-0.261851
C	 0.9424495709	-2.0115313537	-1.1089450813	-0.083666
C	 0.9333734753	-0.6790328813	-1.1029639103	-0.08953
C	 0.2889451641	-0.6309203926	 1.2618002894	 0.370193
O	 0.740795174	-0.2437214617	 2.3028533512	-0.338368
H	 0.2529739029	 1.790903791	 0.7028351017	 0.293851
H	-2.0646136774	-0.1051930754	 0.5238982937	 0.113193
H	-1.7225981342	-0.9762596303	-1.0161486427	 0.114625
H	-1.2143479168	-2.274031713	 1.596907276	 0.094537
H	 0.7895081595	-3.401359783	 0.5305490047	 0.124769
H	-0.5719879156	-3.461315828	-0.5730911163	 0.115263
H	 1.5314715153	-2.5725882596	-1.8278081809	 0.100354
H	 1.5162002947	-0.0643301542	-1.7803119161	 0.110692
