19
gdb 16611	2.99411	2.09582	1.37631	1.3435	78.3	-0.2145	0.0276	0.242	952.0378	0.165993	-327.923589	-327.915678	-327.914734	-327.955418	30.351	
C	 0.0727269889	 1.5034579501	 0.1316204146	-0.493725
C	-0.0040348953	 0.0143576335	 0.0054585971	 0.20821
C	-0.0583235747	-0.7268555587	-1.113668394	 0.269563
C	-0.0847828507	-0.2790364082	-2.5414322021	-0.509031
C	-0.0296799339	-2.1833157982	-0.76694695	-0.137103
N	 1.2412370818	-2.5858653502	-0.0909346377	-0.337361
C	 0.0374836137	-2.2740471524	 0.7122790507	-0.040967
C	 0.0155465593	-0.8535358855	 1.2566473453	-0.295472
H	 1.0174562512	 1.8112630358	 0.5985497699	 0.127722
H	-0.0007593615	 2.0105688126	-0.8334395753	 0.121186
H	-0.7300934913	 1.8860717621	 0.7756836631	 0.119958
H	-0.1490928162	 0.8072853781	-2.6389685956	 0.121507
H	 0.816115499	-0.6115905984	-3.0732117586	 0.132087
H	-0.9403102417	-0.7129464291	-3.0751780139	 0.11963
H	-0.540435164	-2.9150425914	-1.3859387172	 0.078977
H	 1.3255656036	-3.6005777607	-0.1438301829	 0.222151
H	-0.4407925861	-3.0764507731	 1.2635411883	 0.082903
H	 0.8911415182	-0.642915105	 1.88375162	 0.11257
H	-0.8720155602	-0.6754441815	 1.8803317984	 0.097195
