18
gdb 53354	2.91184	0.94557	0.87421	3.1173	80.24	-0.2344	-0.0171	0.2173	1420.3917	0.147129	-401.943914	-401.934656	-401.933712	-401.979777	32.823	
C	-0.0283133039	 1.5279592102	-0.1343941632	-0.496484
C	 0.0293810887	 0.0753745385	-0.0522175609	 0.00208
C	 0.09078603	-1.1266317871	 0.0144527794	 0.129575
C	 0.1134166415	-2.5939873419	 0.0845479298	-0.183174
C	 0.6449067596	-3.1052349466	 1.4390177063	-0.311015
C	-0.6118038314	-3.1881400474	 2.3083249866	 0.417287
O	-0.6516117142	-3.301235054	 3.5038468343	-0.306439
C	-1.8182497842	-3.0876622143	 1.3705831631	-0.273169
N	-1.2323757257	-3.2158279714	 0.0367131433	-0.297542
H	 0.7890974196	 1.9222259743	-0.7480058704	 0.151714
H	-0.969916101	 1.864392831	-0.5821553606	 0.149467
H	 0.0498159746	 1.9864158477	 0.8574235266	 0.152575
H	 0.7074380551	-2.9845011592	-0.7484159905	 0.10678
H	 1.0436754921	-4.1199330944	 1.3269804733	 0.137859
H	 1.4105202539	-2.4774985068	 1.8943664112	 0.138151
H	-2.5425052643	-3.8806967207	 1.5799372344	 0.13174
H	-2.3094327465	-2.1199861088	 1.5693533128	 0.122106
H	-1.8044293339	-2.7805792591	-0.6772382053	 0.228491
