14
gdb 27859	2.03793	1.99362	1.00839	6.1023	68.58	-0.2342	-0.0065	0.2277	1084.7354	0.103864	-466.2893	-466.281293	-466.280349	-466.321667	30.176	
N	-0.0232680015	 1.3512882271	 0.1441883717	-0.572751
C	-0.040068712	-0.0075375666	 0.0425610586	 0.498421
N	-1.1895423076	-0.634200018	 0.015236166	-0.392313
C	-1.0847159151	-1.999969959	-0.0283589608	 0.435226
N	-2.2717837122	-2.6448118011	-0.0702244907	-0.545886
N	 0.0096765849	-2.7391180958	-0.0521420898	-0.39298
C	 1.2112544245	-2.1042425028	-0.030010357	 0.418528
O	 2.3113657127	-2.6100928702	-0.0389206539	-0.394603
N	 1.1378648757	-0.6671194451	 0.012010353	-0.388538
H	 0.790102668	 1.857159816	-0.165821163	 0.264414
H	-0.9132954214	 1.7946394937	-0.0205954236	 0.274594
H	-3.1178199288	-2.1225398147	 0.0686230236	 0.265348
H	-2.2728811859	-3.6472587862	-0.002895573	 0.271393
H	 2.0265774589	-0.1926703674	 0.0742608288	 0.259146
