16
gdb 48911	3.21984	1.55964	1.31717	2.137	72.98	-0.2179	-0.0468	0.1711	972.2913	0.124886	-400.665725	-400.658774	-400.65783	-400.69741	27.151	
O	-0.0352753327	-0.075588899	 0.07300779	-0.245204
C	 0.00450754	 1.1292677458	 0.0102904965	 0.023514
C	 1.2721160714	 1.922069385	 0.0040032397	 0.223145
C	 2.7251482423	 1.4536506201	 0.0692938217	-0.225006
N	 2.9117661667	 2.9750240377	-0.0065717349	-0.14878
C	 1.7487168077	 2.9939824521	-1.0459406062	-0.079122
C	 1.0143780908	 4.2947294566	-0.7977877443	-0.091717
C	 0.9773666099	 4.3657068622	 0.5336227404	-0.091723
C	 1.6930402931	 3.1008429104	 0.9588136226	-0.079167
H	-0.9274969356	 1.736278995	-0.0482981491	 0.079242
H	 3.0803833854	 1.0159352365	 1.0049604574	 0.110519
H	 3.1303160929	 0.9200822095	-0.7934933052	 0.110537
H	 2.0161228639	 2.6849461833	-2.0567905184	 0.086464
H	 0.6559984923	 4.9844494061	-1.5478092699	 0.120422
H	 0.5800474852	 5.1301322588	 1.185136244	 0.120425
H	 1.9031190265	 2.9017325299	 2.0100287856	 0.086451
