19
gdb 62165	2.27076	1.00705	0.80185	4.8024	76.71	-0.2602	0.0144	0.2746	1475.0234	0.157098	-456.336737	-456.326488	-456.325544	-456.373459	35.136	
C	-0.0768426911	 1.6612119388	 0.0746164758	-0.393486
C	-0.1014533649	 0.1365114593	 0.1036411856	 0.105422
C	-1.4814539772	-0.4406101809	 0.4192152728	-0.100532
O	-2.5040422087	 0.0997717585	-0.4035315784	-0.187347
C	-2.7358300047	-0.5113748883	-1.5909096048	 0.137239
N	-3.5742363597	-0.0115440514	-2.3880379127	-0.443366
O	 0.2776921595	-0.4035441889	-1.1720359179	-0.199935
C	 1.5944417052	-0.5284660496	-1.429068189	 0.128794
N	 1.9818520822	-0.9273587037	-2.5611765339	-0.439487
H	 0.9264478561	 2.0258619228	-0.1624629503	 0.121365
H	-0.7748789393	 2.0350471231	-0.6768530499	 0.1637
H	-0.3657334378	 2.0646501321	 1.0501771146	 0.124081
H	 0.5902981086	-0.2425940112	 0.8710437858	 0.08585
H	-1.4459312813	-1.5336477615	 0.3317486702	 0.118031
H	-1.7529741911	-0.1833218645	 1.4469997241	 0.12414
H	-2.1466518584	-1.4237491404	-1.7360240994	 0.105724
H	-3.6479989747	-0.5938834774	-3.2196298057	 0.231629
H	 2.2334648367	-0.2709484536	-0.5724034918	 0.086854
H	 2.9976760109	-0.986825573	-2.580873575	 0.231323
