20
gdb 13215	4.11329	1.17611	0.99641	2.5498	70.85	-0.2439	0.0628	0.3066	1214.8596	0.17607	-386.117752	-386.108628	-386.107684	-386.152176	32.506	
C	-0.0398342945	 1.5861305691	-0.027663118	-0.38203
C	-0.0356388204	 0.0559063427	-0.0541284183	-0.194773
C	 0.7634968182	-0.5252142445	-1.226422344	 0.124892
O	 2.1228102873	-0.0892693262	-1.2093510533	-0.433619
C	 0.6928622978	-2.0482708545	-1.2875282014	-0.047569
C	-0.6260065216	-2.6686936211	-1.8036750601	-0.085309
O	 0.0199014615	-3.1775854944	-2.9854429167	-0.273095
C	 1.3086816271	-2.6943783202	-2.5462486534	-0.087902
H	 0.9823887073	 1.9730900388	-0.0131788943	 0.12833
H	-0.5347451985	 1.992562638	-0.9164451205	 0.117187
H	-0.5670669258	 1.9665781468	 0.852091155	 0.110681
H	 0.3885973359	-0.3355803672	 0.8827361511	 0.084822
H	-1.0641741611	-0.3239212506	-0.1019921218	 0.101764
H	 0.3637102808	-0.120772886	-2.166576084	 0.090306
H	 2.5153915091	-0.3903317515	-0.3816595956	 0.276494
H	 1.0483694447	-2.4726123933	-0.342096839	 0.065295
H	-1.0474898152	-3.4715749622	-1.1855915207	 0.098103
H	-1.4249438415	-1.9544010334	-2.0453243711	 0.097687
H	 1.7570384717	-1.9922800359	-3.2586513891	 0.112999
H	 2.011970957	-3.5167792643	-2.3652803848	 0.095737
