19
gdb 83808	2.18566	1.81155	1.27284	1.9782	77.15	-0.2215	0.0134	0.2349	1061.6785	0.159566	-423.011125	-423.002864	-423.00192	-423.043723	32.198	
C	-0.1264991647	 1.5375094471	 0.0534575577	-0.481236
C	-0.015851827	 0.0407458999	 0.0023718533	 0.33777
C	 0.0096637764	-0.6660873948	-1.1294238211	-0.189802
C	 0.1899887435	-2.1622912049	-1.1132769231	-0.128208
O	 0.9588975911	-2.6090330276	 0.0086916025	-0.273628
C	 0.5087901867	-2.1313871883	 1.2485969953	 0.007569
C	 1.4419584773	-1.1201812649	 1.8632198326	 0.103767
O	 2.6211224636	-0.8274947743	 1.1966314311	-0.422933
C	 0.085764896	-0.6801527861	 1.3004111532	-0.225845
H	 0.7685061457	 1.970438416	 0.5164578442	 0.14166
H	-0.2412215641	 1.967833724	-0.9450927197	 0.119153
H	-0.9819636211	 1.8522926175	 0.6642042098	 0.12089
H	-0.0823457971	-0.1831792677	-2.0982746708	 0.087588
H	-0.7827732625	-2.6806364173	-1.1251095579	 0.108726
H	 0.7449579635	-2.4982658183	-1.9946956332	 0.117521
H	 0.005116932	-2.880955611	 1.8551521489	 0.092643
H	 1.5581293136	-1.1014504092	 2.9427842521	 0.100996
H	 2.6261640899	-1.3983492153	 0.4141809216	 0.291146
H	-0.6600651729	-0.4137798047	 2.0457897335	 0.092225
