20
gdb 99125	3.82988	0.79492	0.71385	4.103	76.82	-0.2429	-0.0229	0.22	1612.6008	0.168235	-440.264984	-440.255005	-440.254061	-440.301038	35.749	
C	 0.1753069215	 1.1838215112	-0.6103801717	-0.415137
C	-0.282029581	 0.1764001315	 0.4214538391	 0.033546
C	 0.4470897898	-1.1059843338	 0.635522725	-0.25809
N	 0.4441007297	-0.0719400872	 1.6702433133	-0.091108
C	 1.6851298431	 0.6327714525	 1.9392951922	-0.255422
C	 2.3692484267	 0.1182677777	 3.1994576278	 0.348387
O	 3.5458389824	 0.3289079216	 3.4069417018	-0.32321
C	 1.5482934925	-0.6339325164	 4.2325117522	-0.123242
O	 2.3209345904	-0.9487322753	 5.3532507453	-0.426969
H	 1.2489865722	 1.1268025995	-0.8052360001	 0.124241
H	-0.343035005	 1.0027169871	-1.557541292	 0.129411
H	-0.0612302092	 2.2065710974	-0.2967226478	 0.127425
H	-1.3611576681	 0.1634068149	 0.5694325674	 0.097674
H	-0.084185911	-2.0233316408	 0.8743854416	 0.121357
H	 1.3670043449	-1.2490332584	 0.0689628635	 0.113876
H	 2.4300119436	 0.6094035226	 1.1300332832	 0.119926
H	 1.45644575	 1.691239545	 2.1286604795	 0.139748
H	 0.674029876	-0.0181615307	 4.4966604044	 0.122614
H	 1.1368586741	-1.5355466985	 3.7523930782	 0.123643
H	 3.2077387772	-0.6092985398	 5.1514296572	 0.291328
