14
gdb 16308	3.16457	1.9015	1.50994	3.2659	59.16	-0.2594	-0.046	0.2134	846.2603	0.105497	-419.640116	-419.632874	-419.63193	-419.671788	26.537	
O	 0.517235944	 1.0498869527	-0.3237004157	-0.427407
C	 0.0833235404	-0.2451725053	-0.0392574654	 0.080855
C	 0.1504871499	-0.7554806755	 1.4542805334	-0.292044
C	-1.3691879917	-0.918497217	 1.4192994839	-0.02537
O	-1.9392075911	 0.3390954031	 1.0807784297	-0.283242
C	-1.4395634419	-0.4685795838	-0.0031958053	 0.272044
C	-2.3875025915	-0.8919893598	-1.0517594357	 0.056358
O	-2.0448462703	-1.2579264993	-2.1486323142	-0.25362
H	-0.022393007	 1.6489370636	 0.2072615741	 0.290701
H	 0.5807858713	-0.9221711154	-0.7353104225	 0.123731
H	 0.6911211779	-1.6987589005	 1.5553524181	 0.12238
H	 0.520612473	-0.0340879767	 2.1864874993	 0.119251
H	-2.006143399	-1.6276648012	 1.9354734142	 0.125128
H	-3.4521750639	-0.8622443149	-0.7329558039	 0.091236
