16
gdb 10906	3.25525	2.01365	1.43254	2.7236	65.45	-0.2371	-0.0244	0.2127	896.4736	0.128219	-383.726727	-383.718713	-383.717769	-383.75892	29.171	
C	-0.003166552	 1.6309522557	-0.0696037903	-0.411258
C	 0.0189861565	 0.108931419	-0.0438452415	-0.135988
C	 0.7457344719	-0.6438655086	-1.1733388822	-0.052775
O	 2.1129965693	-0.2452111717	-1.1048645965	-0.276036
C	 1.6836577434	-1.342867647	-0.2542291823	 0.283263
C	 2.4221018345	-2.6367336589	-0.3103462038	-0.514367
C	 1.0074432669	-0.6283379111	 0.9195831883	 0.375879
O	 1.0970843458	-0.7076302233	 2.1086127214	-0.302581
H	 0.9819064919	 2.0202903974	-0.3380176659	 0.139129
H	-0.7352070824	 2.0058132792	-0.7921246388	 0.119033
H	-0.2711533329	 2.0223639566	 0.9163545001	 0.134881
H	-0.9818266237	-0.3038395814	 0.1396246649	 0.102504
H	 0.364009971	-0.9894637641	-2.1270633757	 0.113884
H	 2.6267505676	-2.9165423749	-1.3469802561	 0.138779
H	 3.3758050104	-2.5566097821	 0.2208548785	 0.14785
H	 1.8389400617	-3.4314342346	 0.1647056401	 0.137802
