19
gdb 2026	6.69181	1.65791	1.57716	0.2114	72.09	-0.2599	0.0919	0.3518	873.4104	0.171912	-273.764673	-273.757455	-273.756511	-273.795635	28.048	
C	-0.8201336551	 1.2008669283	-0.1358743895	-0.406517
C	 0.1554183423	 0.0474184181	 0.0365544785	 0.069312
C	 1.447982487	 0.0270886787	-0.8373750354	-0.308708
C	 2.2313891957	-0.3885781224	 0.414304302	 0.394659
C	 3.0397058879	-1.6460499126	 0.5555566342	-0.315406
C	 3.700542752	-0.2895756707	 0.6838212467	-0.332184
C	 1.0545509953	 0.0155681928	 1.3114797719	-0.308708
H	-0.3086179677	 2.1654260255	-0.0370499158	 0.110231
H	-1.2964841194	 1.176755657	-1.1226606963	 0.112169
H	-1.6151492298	 1.1674241428	 0.6178299102	 0.112169
H	-0.3732319606	-0.9062259036	-0.0653481967	 0.071151
H	 1.4651482524	-0.6542880518	-1.6931070884	 0.093048
H	 1.7182922152	 1.0309928161	-1.1856032867	 0.092872
H	 2.9142831282	-2.239458894	 1.4562404331	 0.107487
H	 3.2426507624	-2.2298428649	-0.3372454751	 0.107487
H	 4.349077596	 0.0405689998	-0.1220201776	 0.107509
H	 4.0208776677	 0.0309579861	 1.6705416585	 0.107509
H	 1.1820453492	 1.0152903554	 1.7432835592	 0.092872
H	 0.7687191315	-0.6746811504	 2.1106682971	 0.093048
