21
gdb 104079	2.31904	1.48426	1.24426	3.2711	84.1	-0.232	-0.0435	0.1885	1145.5273	0.182092	-387.138193	-387.128919	-387.127975	-387.172235	35.122	
C	-0.0672169191	 1.5401926168	 0.148710822	-0.397604
C	-0.0090627382	 0.0210437112	-0.0409040632	-0.20913
C	 0.7656277631	-0.4922959641	-1.2858176767	 0.186446
C	 2.2080125088	 0.0333179177	-1.3164252037	-0.435764
C	 0.6928932231	-2.042644778	-1.3436118779	-0.323214
C	-0.1443234353	-2.3531933606	-2.5559456659	-0.050793
C	-0.5146953438	-1.2597537741	-3.2313420492	-0.168218
C	 0.0305378122	-0.0512878163	-2.5769613455	 0.367973
O	-0.0611284869	 1.0903527578	-2.9740904489	-0.355499
H	 0.9255503597	 1.9620955477	 0.3323474426	 0.115145
H	-0.4829151975	 2.0380058826	-0.7295580562	 0.149006
H	-0.6916156567	 1.7840723048	 1.014138524	 0.106652
H	 0.4533458327	-0.4378090259	 0.8432165911	 0.094294
H	-1.0313070651	-0.3776168871	-0.0883726829	 0.097052
H	 2.7263658775	-0.1902923948	-0.3775049843	 0.109577
H	 2.7750627418	-0.4264211318	-2.1327976137	 0.113585
H	 2.2188865377	 1.1142060659	-1.4742529964	 0.14143
H	 1.6869832451	-2.4992930287	-1.434695736	 0.116228
H	 0.2468397891	-2.4733891035	-0.4385931415	 0.114019
H	-0.3975192682	-3.3725198132	-2.8298598011	 0.114091
H	-1.1066492799	-1.2143797063	-4.1365097066	 0.114724
