17
gdb 65862	2.48585	1.35402	1.18153	2.8036	68.69	-0.2511	-0.0432	0.2079	1110.9783	0.133005	-458.996259	-458.987418	-458.986474	-459.030468	32.059	
C	-0.2423881331	 1.7400998747	 0.3589542178	-0.447464
C	 0.1207936354	 0.2834691428	 0.0885923134	 0.271893
C	 0.866245688	 0.0199829118	-1.2203844968	-0.402898
C	 1.9101108476	-1.030827856	-0.8401707616	 0.385792
O	 2.6535436334	-1.6205430294	-1.5747793394	-0.291813
C	 1.8295430563	-1.1933414029	 0.68078996	-0.197229
O	 1.0018571803	-0.1444462609	 1.1509986864	-0.290592
C	-1.1528635419	-0.5676202492	 0.2028522286	 0.129235
O	-1.7314910397	-1.0788290929	-0.7188875433	-0.240591
H	 0.6691176786	 2.3436482424	 0.3817401888	 0.135733
H	-0.907146827	 2.1234862071	-0.420424333	 0.138159
H	-0.742171378	 1.8396626711	 1.3273437524	 0.134547
H	 0.2081623209	-0.3570649592	-2.0064212611	 0.165095
H	 1.3766278641	 0.9143177159	-1.5916480256	 0.137622
H	 1.4187567646	-2.1886282703	 0.9148558793	 0.1308
H	 2.8165659444	-1.1137853347	 1.1451773766	 0.144419
H	-1.4995945538	-0.6765555804	 1.2546930175	 0.097292
