14
gdb 42550	2.75703	1.71745	1.28906	2.7714	70.7	-0.2544	-0.0213	0.2331	957.3588	0.1006	-399.464321	-399.457278	-399.456333	-399.495955	27.219	
O	 0.0087365185	 0.0757969637	 0.0470405804	-0.324515
C	-0.0083978186	 1.2692780744	 0.099429879	 0.479976
C	-1.0687270818	 2.3221924363	 0.0364915095	-0.182894
C	-0.4770395004	 3.55479998	 0.6488166049	-0.044706
C	 0.9240551961	 3.2568077266	 1.1968713963	-0.185149
C	 1.1212022595	 2.6679070042	 2.5067893196	 0.293211
C	 1.277793906	 2.1673562104	 3.5880578521	-0.422753
C	 1.0381351829	 2.3751115823	-0.0782707943	-0.156371
N	-0.1021609799	 3.2223035584	-0.7459694688	-0.15742
H	-2.1165559754	 2.2393508199	-0.2206266418	 0.129088
H	-1.1030869895	 4.4090369909	 0.8815279502	 0.120379
H	 1.5375022437	 4.155224201	 1.0724255776	 0.127283
H	 1.4151020632	 1.7208756926	 4.5420806151	 0.206725
H	 1.9820035256	 2.2066028293	-0.5889039599	 0.117145
