13
gdb 132803	2.38268	1.81529	1.03098	1.1545	65.2	-0.2224	-0.0132	0.2092	1028.6025	0.089489	-502.052572	-502.04535	-502.044406	-502.084116	27.826	
N	-0.0274432122	 1.3800743508	-0.1479495576	-0.56756
C	-0.0103953404	 0.0082687408	-0.0627686288	 0.290644
N	-1.1759107004	-0.6426221281	-0.0368195764	-0.345072
C	-1.1519866986	-1.9786727875	-0.0100178229	 0.001031
C	 0.0049889948	-2.7443482352	 0.0002099922	-0.282351
C	 1.2153489997	-2.056378775	-0.0140389741	 0.211718
F	 2.3733515513	-2.7067133985	 0.0047352697	-0.054238
C	 1.2151656609	-0.6765034468	-0.0471999851	 0.062922
F	 2.3609684695	 0.0191134698	-0.0534909426	-0.075117
H	 0.8019221386	 1.8659003576	 0.1531296261	 0.262226
H	-0.904839551	 1.8029430081	 0.1125935229	 0.262491
H	-2.1222295892	-2.4675762016	 0.0075345932	 0.116114
H	-0.0108227229	-3.8258978442	 0.0253118734	 0.117189
