20
gdb 113874	2.59634	1.02258	0.88614	1.5401	83.98	-0.2205	0.0467	0.2672	1423.7309	0.168597	-403.075418	-403.064913	-403.063969	-403.112298	36.646	
C	 0.4234188387	 0.5516911065	-1.0869655745	-0.499534
C	 0.1011920789	-0.5912952763	-0.2430048796	 0.016504
C	-0.149914978	-1.5282270186	 0.4729272055	 0.110658
C	-0.4985255647	-2.632589981	 1.3666963018	-0.294699
N	-1.4941680258	-3.6117045762	 0.8681471588	-0.092113
C	-1.9340859361	-3.5807064675	-0.5226840561	-0.265694
C	-1.1188542202	-4.7160521241	-0.0135620543	 0.011411
C	 0.2896377767	-5.0301735348	-0.4895812575	-0.10342
O	 1.1238317606	-3.9302857417	-0.7842270565	-0.407371
H	 1.3957633528	 0.4296913429	-1.5768914591	 0.149073
H	-0.3287014641	 0.6925280424	-1.8712097462	 0.147163
H	 0.4615622029	 1.476373377	-0.5005549054	 0.151583
H	 0.4115100928	-3.1663523126	 1.65834602	 0.142223
H	-0.9222928597	-2.2079839	 2.2857395751	 0.131343
H	-3.0034274414	-3.6921322135	-0.6884744357	 0.112972
H	-1.4565776568	-2.857929429	-1.1821721094	 0.104844
H	-1.6488153813	-5.6394595994	 0.2296822803	 0.088795
H	 0.8127004098	-5.5873872284	 0.2976513661	 0.11486
H	 0.1992709292	-5.7154603214	-1.3501311902	 0.095857
H	 0.6561599056	-3.3208577544	-1.3639584331	 0.285548
