21
gdb 103160	1.94371	1.55772	1.27643	2.041	79.16	-0.2228	-0.0242	0.1986	1162.0384	0.179161	-424.229853	-424.219616	-424.218672	-424.26482	37.395	
C	 0.1548149206	 1.4863981001	 0.0789825641	-0.262278
O	 0.4055653608	 0.0890371071	 0.1365794522	-0.287251
C	 0.7376478769	-0.5348620604	-1.0799690553	 0.314889
C	 2.0518926971	-0.0285216116	-1.6816980774	-0.457723
C	 0.6711025961	-2.1043185026	-0.982302002	-0.059223
C	-0.0256987728	-2.6414695546	 0.2627107126	-0.389429
C	-0.2080431117	-2.1518087845	-2.2741520402	-0.35657
C	-0.3979020455	-0.635521598	-2.138040957	 0.352756
O	-1.1953366312	 0.147644714	-2.5718357725	-0.309001
H	 1.0710815604	 2.0629555582	-0.1081884509	 0.107776
H	-0.5860641509	 1.7308232574	-0.6892455731	 0.14399
H	-0.2348822811	 1.7670890602	 1.060380819	 0.126741
H	 2.8532793497	-0.1293214901	-0.9423920479	 0.128833
H	 2.3257612619	-0.6095340107	-2.567661192	 0.121631
H	 1.980291866	 1.0200251328	-1.9833980319	 0.131503
H	 1.652609645	-2.5707456444	-1.0982358607	 0.073369
H	-1.0168584792	-2.1956544559	 0.3886750469	 0.123986
H	-0.145781894	-3.7273424938	 0.1894732271	 0.109773
H	 0.5496889581	-2.4160389935	 1.1641364778	 0.127838
H	 0.3351024058	-2.4235105817	-3.1846223484	 0.12863
H	-1.126357432	-2.7434072282	-2.2279796503	 0.129761
