18
gdb 11793	4.14193	1.73113	1.60014	1.4736	67.06	-0.24	0.0768	0.3168	873.2853	0.154611	-384.903601	-384.896447	-384.895503	-384.93497	27.813	
C	 0.0404977392	 1.3635581972	 0.0844472448	-0.263769
O	-0.0968016485	-0.03407506	-0.0922739581	-0.293979
C	 0.6161241415	-0.5589861066	-1.1551882064	 0.392188
C	 2.1848147515	-0.5431084753	-1.2758067145	-0.299616
C	 1.8466150441	-1.6815281895	-2.2675599215	 0.101108
C	 0.708366761	-2.1011723182	-1.3073106366	-0.287382
O	 1.1539481055	-1.0034931242	-3.3342043383	-0.275666
C	 0.2340899251	-0.1693691324	-2.6037435167	-0.132833
H	 1.0941208658	 1.6552092039	 0.1979022604	 0.114938
H	-0.3920669532	 1.9326886666	-0.7500916865	 0.114069
H	-0.4978983491	 1.6211283558	 0.9989952218	 0.13136
H	 2.6795827201	 0.3400673452	-1.6857082247	 0.098578
H	 2.6711485495	-0.8896367441	-0.3625481977	 0.105564
H	 2.5817428586	-2.3677211187	-2.680468407	 0.085378
H	 1.0611536396	-2.5826949289	-0.394304622	 0.106961
H	-0.1443940895	-2.6315316081	-1.7362205308	 0.103015
H	-0.8036355107	-0.4256045648	-2.8480020692	 0.103342
H	 0.4107773794	 0.885469072	-2.8431618971	 0.096742
