18
gdb 50211	3.51352	1.48698	1.27779	1.3657	74.64	-0.2396	-0.0243	0.2153	1002.4559	0.149283	-401.917158	-401.910039	-401.909094	-401.948935	27.982	
O	-0.656753341	 0.8111834348	 0.625899161	-0.24647
C	 0.134781376	 1.0261482088	-0.2586092327	 0.137554
C	 1.3052207818	 1.9709207308	-0.1640246486	-0.087528
C	 1.2508707114	 3.131249252	-1.2171876903	-0.189063
N	 1.8638774661	 4.3026401419	-0.5616286725	-0.093579
C	 1.180296143	 4.826065873	 0.6350575984	-0.038509
C	 0.2825727815	 3.7801856878	 1.3053212586	-0.247715
C	 1.4485249828	 2.7485294719	 1.1450688997	-0.054409
C	 2.3751645097	 3.9352873784	 0.7528846422	-0.0751
H	 0.0358805651	 0.5141115529	-1.2446029725	 0.078018
H	 2.2085558878	 1.3734240631	-0.3573106975	 0.09649
H	 1.8206567561	 2.8932061312	-2.1187911958	 0.115893
H	 0.2258620347	 3.3649720214	-1.5235099372	 0.116049
H	 1.0987610566	 5.9043971848	 0.7182566395	 0.093369
H	 0.1150810071	 4.0284731282	 2.3557301262	 0.111262
H	-0.6785767447	 3.538557842	 0.8442590204	 0.107704
H	 1.6870720699	 2.1463559151	 2.0194313365	 0.083509
H	 3.4067394662	 4.1236920021	 1.0251777046	 0.092527
