22
gdb 110559	3.37739	1.18897	1.05765	1.5408	87.26	-0.2229	0.0908	0.3136	1267.7521	0.193749	-367.129301	-367.12056	-367.119615	-367.162492	34.158	
C	-0.0608323994	 1.5864187228	-0.0261171786	-0.374463
C	 0.1157269373	 0.0695444386	 0.1105987954	-0.218963
C	 0.7592019685	-0.5462842524	-1.1203449176	 0.068157
C	 0.6813288114	-2.0445098622	-1.4078612336	-0.133682
C	-0.7709835894	-1.8668957488	-1.9389681547	-0.009262
C	-0.4877291939	-2.5400600098	-3.2801201398	-0.305788
C	 0.7757069469	-1.7377593255	-2.9434662811	 0.375971
C	 1.9932115933	-1.5086741143	-3.7898805501	-0.51838
N	-0.0871636233	-0.548566436	-2.3999086876	-0.202619
H	 0.9059362804	 2.086221453	-0.1534947096	 0.111038
H	-0.6746181031	 1.8245606237	-0.8996391581	 0.137234
H	-0.5422725802	 2.0124808009	 0.859271392	 0.107735
H	 0.7450280396	-0.1579882867	 0.9814151695	 0.094307
H	-0.8554594391	-0.4006130677	 0.3047202507	 0.09495
H	 1.7380977035	-0.0809380767	-1.2984004003	 0.060924
H	 1.1026605396	-2.9009604611	-0.8673236955	 0.056054
H	-1.6982566709	-1.8412372931	-1.366864312	 0.081129
H	-0.3961026295	-3.6298347403	-3.2794676379	 0.093359
H	-1.0714340328	-2.1824606709	-4.1336889477	 0.102688
H	 1.7130487203	-1.0463290071	-4.7418638251	 0.131609
H	 2.7156863169	-0.8531741511	-3.2935885709	 0.125424
H	 2.4921679438	-2.4595378452	-4.0060631174	 0.122578
