19
gdb 127475	2.37771	1.58663	0.96799	2.7128	81.36	-0.1797	0.0385	0.2182	1221.6767	0.159883	-415.409472	-415.399341	-415.398397	-415.444522	36.142	
C	 0.1031795096	 1.3865255388	-0.0397096579	-0.321682
N	 0.0204934929	-0.0515193167	 0.0185964111	-0.033083
N	 0.0574775416	-0.7644835264	-1.1448266432	-0.367523
C	 0.0506460688	-2.0335127299	-0.758651802	 0.365859
N	 0.1144713895	-3.0962558424	-1.6580535069	-0.59519
C	 0.0283908236	-2.1556616017	 0.6532031096	-0.012342
N	-0.0496610467	-3.3927960213	 1.345492067	-0.627263
C	 0.0233941098	-0.8507360603	 1.1203530937	 0.336132
C	 0.0062518599	-0.3274011754	 2.5177370077	-0.51123
H	 1.132066316	 1.7487168799	 0.0870973776	 0.127687
H	-0.2582836247	 1.7010449856	-1.0193641336	 0.153817
H	-0.5232571507	 1.8367365486	 0.7354858181	 0.128804
H	-0.2155559919	-2.8372032333	-2.578739517	 0.245013
H	-0.3827573618	-3.9053933951	-1.3054016892	 0.246972
H	 0.8598324074	-3.8339827543	 1.4475271538	 0.240601
H	-0.4459803024	-3.2867677627	 2.2717767134	 0.232991
H	 0.8230853868	 0.3797874697	 2.7022426278	 0.134562
H	-0.9316380653	 0.1848432528	 2.7661669758	 0.134123
H	 0.1259221876	-1.1550624358	 3.2227218041	 0.121752
