17
gdb 42473	4.80971	0.68418	0.62415	3.7895	75.23	-0.2499	-0.0865	0.1635	1717.6884	0.13413	-417.991867	-417.982575	-417.981631	-418.027553	32.138	
O	-0.1941770569	-0.0688446666	-0.2989933427	-0.265283
C	-0.0192735123	 1.0993281356	-0.0593684623	 0.289446
C	 1.3195672122	 1.7868161435	 0.0100904125	-0.304537
C	 2.4942650051	 0.843863296	-0.244566687	-0.155614
N	 3.7370896426	 1.6023209414	-0.2354542459	-0.068064
C	 4.4166141424	 1.7184844741	 1.0539594348	-0.22498
C	 4.9561520703	 0.833403374	-0.0143668216	-0.220411
C	-1.1814604206	 1.9842764613	 0.1948403139	 0.22989
N	-2.0792789702	 2.684357847	 0.3967448945	-0.292945
H	 1.3229529319	 2.6115500711	-0.7152426838	 0.160873
H	 1.4016089946	 2.2721487156	 0.9926773119	 0.148498
H	 2.4847761553	 0.028982115	 0.4995282858	 0.100867
H	 2.3802755711	 0.3751209314	-1.227273179	 0.127018
H	 4.8769427269	 2.6796433581	 1.2619893578	 0.123419
H	 3.9629914052	 1.232032038	 1.9167597398	 0.111913
H	 4.861789697	-0.2407189987	 0.1368507035	 0.116181
H	 5.8174639353	 1.1371406331	-0.6018052022	 0.123728
