15
gdb 2450	5.38713	2.4384	2.01258	2.8244	59.9	-0.2394	-0.016	0.2233	665.3529	0.126401	-308.540795	-308.53491	-308.533966	-308.570503	22.989	
O	 0.0093796636	 0.4579955381	 0.9950740253	-0.303817
C	-0.0138760541	 1.3844753141	 0.228780635	 0.377834
C	-1.2834371778	 2.0544939526	-0.3252531176	-0.324572
C	-0.8188650397	 3.363646436	-0.9291763492	-0.032624
C	-0.0581202456	 4.3018063166	-0.0257886571	-0.28653
C	 0.7040466615	 3.3849589698	-0.9496273657	-0.032624
C	 1.2211103762	 2.0895439927	-0.3588847549	-0.324572
H	-1.7090540416	 1.3891167048	-1.0879877977	 0.128993
H	-2.0313024487	 2.1488696844	 0.4680894003	 0.12986
H	-1.3827777236	 3.7872281597	-1.7517326202	 0.088852
H	-0.0761764995	 5.3581662484	-0.2694535212	 0.116007
H	-0.0409014892	 4.0958440262	 1.0417268895	 0.115489
H	 1.233601342	 3.8238417123	-1.7868677843	 0.088852
H	 1.9870699641	 2.2051062039	 0.4141307147	 0.12986
H	 1.6445483126	 1.4360484205	-1.133019447	 0.128993
