14
gdb 5695	4.84092	2.13019	1.5146	2.5241	63.24	-0.1918	0.0164	0.2082	783.6682	0.111105	-378.734622	-378.728675	-378.727731	-378.76473	22.765	
C	 0.0146733582	 1.4134098924	 0.0398947281	-0.168169
C	 1.511421379	 1.9005484376	-0.0430304474	-0.34382
C	 2.2176244438	 0.5824508638	 0.065994818	 0.206181
C	 1.3225620523	-0.4141720927	-0.0543993679	 0.365062
N	 0.0004904109	-0.0617129559	-0.2770891601	-0.410461
O	 1.9497065175	-1.605641767	-0.094422079	-0.203589
C	 3.284283825	-1.2350688486	 0.0158301739	 0.021211
N	 3.4931978288	 0.0396633396	 0.0970507283	-0.32872
H	-0.3682866911	 1.5766071904	 1.0538388133	 0.114246
H	-0.6340297148	 1.942844959	-0.6605597406	 0.121468
H	 1.7095170219	 2.3983667192	-1.0004107885	 0.120919
H	 1.7346623637	 2.6214170575	 0.7492893085	 0.118514
H	-0.6870162861	-0.5728083747	 0.2651957402	 0.242467
H	 3.992709861	-2.0460848307	 0.0460519433	 0.144693
