15
gdb 81	7.57282	3.5255	2.65861	1.3149	49.26	-0.2629	0.0789	0.3418	516.4357	0.136209	-233.551389	-233.544542	-233.543598	-233.581067	23.924	
C	 0.0012130938	 1.5494383795	 0.0195241535	-0.379054
C	-0.0008371243	 0.0169912989	-0.0337470421	 0.053286
C	-1.4246016284	-0.5500306078	 0.006703726	-0.392905
C	 0.7414980048	-0.494638405	-1.2682546061	-0.058665
O	 2.0914759702	-0.0569419007	-1.199748894	-0.423904
H	 1.0207979332	 1.9372446799	-0.0348900499	 0.13155
H	-0.5659313486	 1.9684478038	-0.8212221272	 0.103727
H	-0.4601438127	 1.9119237886	 0.943898841	 0.105087
H	 0.5496530746	-0.3580898289	 0.8397885535	 0.081952
H	-2.0069493847	-0.2164537714	-0.8608423581	 0.111301
H	-1.4244376692	-1.6454424591	 0.0078949397	 0.109441
H	-1.9529544829	-0.215054559	 0.9047398024	 0.114276
H	 0.6857064618	-1.5948877634	-1.302165405	 0.079459
H	 0.2454968011	-0.112888155	-2.1771329998	 0.078977
H	 2.5378802413	-0.3281258906	-2.0066055138	 0.285471
