11
gdb 4242	4.17776	2.05433	1.37714	3.4253	55.3	-0.2771	-0.0621	0.215	795.0793	0.074445	-430.77997	-430.773844	-430.7729	-430.810663	22.298	
N	-0.0604664325	 1.3104736059	 0.3032123183	-0.549668
C	-0.008863447	 0.1032644228	-0.0448300271	 0.4866
N	-1.1187337254	-0.704120326	-0.1465143291	-0.382366
C	-1.1409568188	-2.0475646364	-0.5247171988	 0.458049
O	-2.1687705521	-2.6670238095	-0.582620415	-0.33789
N	 0.1219046375	-2.6041052422	-0.8271421939	-0.306648
C	 1.1358131364	-1.8491966122	-0.7293278776	 0.143234
O	 1.1774405962	-0.5447534737	-0.3643836662	-0.207798
H	 0.8636416185	 1.7342552603	 0.3174578011	 0.24329
H	-2.0054171378	-0.2738104746	 0.0769951025	 0.288651
H	 2.138644205	-2.2075205443	-0.9457618041	 0.164546
