19
gdb 81239	2.93115	1.58476	1.44691	0.8881	74.98	-0.2449	0.074	0.3189	1000.5495	0.160243	-422.940413	-422.932905	-422.931961	-422.972438	29.739	
C	-0.0929295476	 1.5985852859	 0.0381487363	-0.450575
C	 0.0306514697	 0.0856623772	-0.037924076	-0.002964
C	 1.1880682114	-0.6157069834	-0.7925524212	-0.142201
C	 2.1632329054	-0.2301188014	 0.4054929466	-0.322016
C	 0.8371342383	-0.7481834414	 1.0277695526	 0.399161
O	 0.2906534048	-1.2287832074	 2.2165888182	-0.33522
C	-0.5301912368	-2.331601226	 1.7520802226	 0.001252
O	-0.334653288	-2.5444462137	 0.3387392896	-0.292441
C	 0.9000414804	-1.9009782442	 0.0694285332	 0.089424
H	 0.8484341463	 2.1108554699	 0.251192405	 0.116473
H	-0.4769144347	 1.9975557247	-0.9073458239	 0.118754
H	-0.8047434696	 1.8789722264	 0.8221528329	 0.124461
H	-0.9415341425	-0.3596999567	-0.2592140876	 0.086513
H	 1.4324695222	-0.5543533596	-1.8512978672	 0.085505
H	 3.0446276366	-0.8620376793	 0.536238307	 0.106848
H	 2.4121871612	 0.8239787586	 0.5073757188	 0.111856
H	-0.2368534809	-3.2226802305	 2.3220669489	 0.112967
H	-1.5900890393	-2.1045109746	 1.9087745581	 0.119125
H	 1.7387827432	-2.6005319947	 0.153656856	 0.073079
