21
gdb 36517	3.72429	0.97135	0.8207	1.8455	84.77	-0.2462	0.0583	0.3045	1433.3578	0.182946	-387.073247	-387.064354	-387.06341	-387.106966	34.346	
C	-0.024317439	-1.2458268864	-0.0035967826	-0.442906
C	-0.0099513589	-0.0449659234	 0.0350604579	 0.311042
C	 0.0088201662	 1.4122349153	 0.0569642891	-0.379688
C	 1.4232762998	 2.0084953684	 0.016323127	 0.143322
C	 1.4116419403	 3.5332953555	-0.1507165309	-0.200264
C	 2.8391278179	 4.0933915382	-0.0582791726	-0.216818
C	 3.5293350686	 3.5838437368	 1.2141723008	-0.19332
C	 3.4107263397	 2.0609718415	 1.2977755885	-0.063523
O	 2.0584634749	 1.6382145601	 1.2300509483	-0.254736
H	-0.0362622367	-2.3070665136	-0.0255037645	 0.191242
H	-0.5602446386	 1.8014454008	-0.7963895411	 0.125647
H	-0.4875323837	 1.7792123511	 0.9638871672	 0.135898
H	 1.972259735	 1.560895163	-0.8310334249	 0.070815
H	 0.9516660139	 3.7982782524	-1.1098238894	 0.093158
H	 0.7881957424	 3.9669735781	 0.6422195016	 0.099712
H	 3.4120854697	 3.76669248	-0.9369872875	 0.096743
H	 2.8244988647	 5.1880156647	-0.0834467934	 0.096581
H	 4.585430795	 3.8761880733	 1.2326280134	 0.093527
H	 3.052346251	 4.0239750234	 2.0985282223	 0.102754
H	 3.991372575	 1.5944811928	 0.4826648994	 0.084954
H	 3.7999621128	 1.6791078378	 2.2459889115	 0.105862
