21
gdb 94631	3.96096	0.76148	0.67974	4.481	84.28	-0.2229	0.0384	0.2613	1662.8076	0.182379	-383.266047	-383.256391	-383.255447	-383.301384	34.891	
C	-0.1635886585	 1.5647594269	-0.2660390951	-0.404836
C	-0.0014554961	 0.0605732706	-0.0473727447	 0.050411
C	 1.1519313545	-0.580445881	-0.8683206386	-0.241451
C	 1.9647394875	-0.5914508232	 0.4482005731	-0.17215
N	 0.7086543569	-0.3702014933	 1.1881810399	-0.069726
C	 0.6996315185	 0.4339018092	 2.3853221779	-0.149511
C	 1.2875650256	-0.3757719837	 3.5608543759	-0.33955
C	 1.295233419	 0.3806053252	 4.8095796044	 0.256493
N	 1.2896232141	 0.9960481575	 5.7877211277	-0.306749
H	 0.795508794	 2.0904918643	-0.209662278	 0.118833
H	-0.588016673	 1.7477732114	-1.258904706	 0.120373
H	-0.8405406243	 2.0116413657	 0.4691530209	 0.121492
H	-0.9794290693	-0.4261794101	-0.148981384	 0.074915
H	 0.9170243802	-1.5807037513	-1.2348767738	 0.112764
H	 1.5514154544	 0.021608022	-1.6857961093	 0.105619
H	 2.4966858335	-1.5137949422	 0.7060699573	 0.102164
H	 2.6745447342	 0.2496393339	 0.520418857	 0.087645
H	 1.2651943339	 1.3785010301	 2.2889552955	 0.098382
H	-0.3353810686	 0.7010067054	 2.6233898929	 0.123411
H	 0.7079810698	-1.2949697967	 3.6930657403	 0.158329
H	 2.3153989937	-0.6773118407	 3.3292168167	 0.153142
