20
gdb 41261	3.35918	1.86169	1.47409	1.6219	81.62	-0.2182	0.0774	0.2956	943.4197	0.174123	-365.943518	-365.936937	-365.935993	-365.974	28.243	
C	-0.0374394789	 1.4625446603	 0.1996998082	-0.244231
C	 1.4543963272	 1.6133592679	-0.2491857364	-0.322814
C	 1.3878307002	 0.1730616999	-0.7383587363	 0.39427
C	 2.3761277101	-0.942771458	-1.0623674906	-0.354979
C	 1.3238758151	-1.4351524219	-2.0811673731	 0.01602
C	 0.0614430774	-2.1131913881	-1.4982769811	-0.250564
C	-0.5028150756	-0.6999958273	-1.2215315467	-0.00291
C	 0.0730574437	-0.092391202	 0.0527799306	-0.070914
N	 0.6269285676	-0.0690029703	-2.0582361238	-0.194758
H	-0.2685451141	 1.8192850959	 1.204940475	 0.100433
H	-0.7462153337	 1.9090109144	-0.5016228496	 0.114488
H	 1.6927762098	 2.3747008748	-0.9962267547	 0.105562
H	 2.1251915928	 1.7267120631	 0.6092162557	 0.099622
H	 3.2669794479	-0.5683400637	-1.5776325087	 0.109511
H	 2.6853367492	-1.6084081802	-0.2513324553	 0.097678
H	 1.6885456807	-1.8076370692	-3.0405036471	 0.072266
H	-0.5047901292	-2.6317947984	-2.2759598026	 0.108541
H	 0.1819603403	-2.7889641218	-0.6453723188	 0.095603
H	-1.5416287988	-0.4972726064	-1.4984073967	 0.065719
H	 0.0245263784	-0.6598344391	 0.985513382	 0.061457
