14
gdb 2253	3.8015	3.11204	2.02353	3.6385	58.29	-0.2347	-0.0135	0.2212	656.7162	0.112946	-324.551643	-324.545092	-324.544148	-324.581913	24.295	
C	-0.0603650281	 1.5682158251	 0.0412548164	-0.512874
C	 0.1163810686	 0.0837515416	 0.0046436111	 0.206463
N	-0.7912920935	-0.8564678756	 0.7559018652	-0.358123
C	 0.6580227541	-0.9283750699	 0.9865710698	-0.104315
C	 1.1962295963	-1.8440859212	-0.1198247609	-0.341778
C	 0.690467862	-0.7597624841	-1.1182492654	 0.405504
O	 0.8854020285	-0.553489232	-2.2803164749	-0.306102
H	 0.8134339416	 2.0725033772	-0.3825945954	 0.141345
H	-0.9354626747	 1.8721140614	-0.5428483881	 0.144933
H	-0.1972440335	 1.9248894882	 1.0677725816	 0.121109
H	-1.1991641927	-0.2912590514	 1.5027229393	 0.232798
H	 1.0973451639	-0.7354307886	 1.9566946256	 0.109205
H	 2.2860202891	-1.9231099288	-0.1649498895	 0.128672
H	 0.7397104684	-2.8338972021	-0.1806969648	 0.133161
