22
gdb 59304	2.62646	1.17657	1.00832	3.799	83.49	-0.238	0.0385	0.2765	1305.8687	0.192816	-404.383939	-404.373701	-404.372756	-404.419213	37.163	
C	 0.0573383738	 1.5832165952	-0.0044867564	-0.398065
C	 0.0754575106	 0.046763642	 0.0259448162	 0.014503
C	 0.9985482935	-0.4706422789	 1.1368996823	-0.397543
C	-1.3491765411	-0.5251666306	 0.1013009908	 0.051798
C	-1.5403221189	-2.0723045943	 0.063366365	-0.424411
C	-2.2551732061	-1.9051329788	 1.4199055588	 0.413632
O	-2.8440409844	-2.6128095813	 2.1962963052	-0.37774
N	-2.0044351534	-0.5534898209	 1.4244658504	-0.066025
C	-2.5404728015	 0.474724146	 2.280539675	-0.34904
H	 1.0650925514	 1.9822631606	-0.1572762264	 0.116595
H	-0.5777570357	 1.9600913742	-0.8132694504	 0.112637
H	-0.3193034303	 1.9978199779	 0.937024767	 0.118676
H	 0.4747651262	-0.2962790143	-0.9396775094	 0.082906
H	 1.0557440306	-1.5628184796	 1.1542465592	 0.119748
H	 2.0143917597	-0.0893153134	 0.9948187862	 0.11511
H	 0.6536949541	-0.1424110766	 2.1225066865	 0.123883
H	-1.9750983501	-0.0163828834	-0.6456855666	 0.073354
H	-2.187534835	-2.4410250464	-0.7346352923	 0.12863
H	-0.6265740861	-2.6679645453	 0.0942929119	 0.128663
H	-3.1658741607	-0.0183269735	 3.029483528	 0.159807
H	-1.7544603149	 1.0370807993	 2.7971721062	 0.128438
H	-3.1581693817	 1.1832414921	 1.7142163328	 0.124445
