19
gdb 15687	3.11073	1.76901	1.25273	3.6086	72.46	-0.2316	0.0384	0.27	1018.2863	0.167113	-365.120865	-365.11265	-365.111706	-365.154027	29.829	
C	-0.1486064497	 1.4792404951	 0.082283476	-0.381289
C	 0.0598818642	-0.033909845	-0.0419530865	-0.155276
N	 0.7298533675	-0.4319464025	-1.2644613163	-0.063401
C	 0.114528816	-0.3396782485	-2.5780822378	-0.165487
C	 1.0844145492	-1.1321807216	-3.4815226554	-0.221949
C	 2.4332921575	-1.0208347568	-2.75628349	-0.327753
C	 2.0563457405	-0.7831890921	-1.2924509071	 0.407074
O	 2.7850137877	-0.8666783761	-0.3242597374	-0.398127
H	 0.8117164953	 2.0028210971	 0.0656495302	 0.133703
H	-0.7688096863	 1.8718586718	-0.7300099694	 0.116064
H	-0.6496877765	 1.7137650861	 1.0265615475	 0.120098
H	 0.6883822661	-0.3955326425	 0.7758885112	 0.143452
H	-0.9061055065	-0.5526440649	 0.0172077843	 0.09974
H	-0.8942197469	-0.7689194971	-2.5656536301	 0.107543
H	 0.0206929064	 0.7063359585	-2.9059706222	 0.104651
H	 0.7683277408	-2.1786356697	-3.5248230595	 0.116381
H	 1.1012618466	-0.7474814481	-4.5031021549	 0.108247
H	 3.0717748117	-1.9009237724	-2.8487507234	 0.12917
H	 3.0167931963	-0.1576497815	-3.0979720992	 0.127157
