17
gdb 85765	2.99939	1.21701	0.91191	1.6989	72.83	-0.2589	-0.0276	0.2313	1246.8721	0.134726	-455.167419	-455.158143	-455.157199	-455.201978	32.932	
C	 0.0133144548	 1.5041664921	-0.4481380586	-0.50451
C	 0.1053610672	 0.0182123453	-0.1698699844	 0.389233
O	 1.1362112062	-0.6178121525	-0.2150982633	-0.333136
N	-1.0850648744	-0.6111229656	 0.1493012703	-0.140837
C	-1.2957174141	-2.0362364436	 0.4682831825	-0.185414
C	-2.814442327	-1.7228871344	 0.5702344048	 0.034838
O	-3.3613983909	-1.9891204863	 1.833811133	-0.426342
C	-2.440138402	-0.2623291564	 0.3048101476	 0.365027
N	-3.1498939785	 0.7800900575	 0.30771232	-0.552878
H	 0.9977124748	 1.860733714	-0.7501592007	 0.154577
H	-0.712032683	 1.7120003816	-1.2413514872	 0.148139
H	-0.3049960924	 2.0444933935	 0.4499468597	 0.149901
H	-0.9836136816	-2.7124039082	-0.3291740805	 0.132754
H	-0.8513104398	-2.3332076299	 1.4200369448	 0.142315
H	-3.4067149675	-2.1639986292	-0.2427139836	 0.099003
H	-4.0993920405	-1.3808848196	 1.958768087	 0.301805
H	-2.6203749812	 1.6365296217	 0.1521339685	 0.225525
