18
gdb 37745	3.3763	1.96744	1.50501	1.7944	74.41	-0.2375	0.077	0.3145	891.2213	0.150582	-401.847041	-401.840858	-401.839914	-401.877205	26.452	
C	-0.089715135	 1.5205465939	 0.003813943	-0.255772
N	 1.4328565253	 1.2701547276	 0.0106893811	-0.17845
C	 1.2211602757	 0.0335388991	 0.9077254408	-0.048612
C	 1.9405419603	-0.9476180813	-0.0250058998	-0.061797
C	 1.2279032271	-2.316966742	-0.008381546	-0.25543
C	-0.2360718844	-2.2033313995	-0.5093870488	-0.091385
O	-0.934480563	-1.0267738872	-0.0517943903	-0.30975
C	-0.0182022764	 0.0035151882	-0.0268802667	 0.395082
C	 1.2402179654	 0.0714699701	-0.943375134	-0.079065
H	-0.4528750764	 2.0053672214	 0.9148462579	 0.108723
H	-0.4407282447	 2.0454543535	-0.8898546872	 0.10691
H	 1.2411412543	 0.1166869636	 1.9956011361	 0.07897
H	 3.0326048675	-0.9944167179	-0.009508729	 0.074375
H	 1.7383534851	-3.040158347	-0.6540216572	 0.107398
H	 1.2573168267	-2.7252655833	 1.0092364714	 0.110394
H	-0.2294347075	-2.1852455021	-1.6085150463	 0.104282
H	-0.8311813472	-3.0609162496	-0.1883833312	 0.113699
H	 1.2893201472	 0.2163821726	-2.0237462836	 0.080429
