17
gdb 65627	3.36217	1.2698	1.18064	1.6724	72.24	-0.2555	0.017	0.2724	1079.3691	0.136852	-417.973359	-417.96527	-417.964325	-418.006161	30.598	
N	 0.1019470442	 1.5641984349	-0.3418102992	-0.539026
C	-0.0016593157	 0.1314629085	-0.0972727444	 0.127376
C	 0.1472052278	-0.2809624465	 1.412900678	-0.275619
C	-1.2782159438	-0.8810161966	 1.3905819716	 0.13041
O	-2.2838310667	 0.044913628	 1.8302475117	-0.288495
C	-2.5342914141	 0.4887129913	 0.4719822958	-0.089841
C	-1.4600398814	-0.4568759213	-0.0911588947	-0.115548
C	 0.8766432725	-0.6583649051	-0.9744235525	 0.227351
N	 1.5716603189	-1.2494979988	-1.6860931957	-0.342715
H	 1.0328620694	 1.8888182693	-0.0942340456	 0.24616
H	-0.0217186563	 1.7656951009	-1.3309516372	 0.243375
H	 0.951830803	-0.9944993609	 1.5975254885	 0.127312
H	 0.2400719445	 0.5763973176	 2.0817432569	 0.128496
H	-1.4237680375	-1.8876458196	 1.7877419329	 0.088857
H	-3.5540494928	 0.2394099069	 0.1564613156	 0.105878
H	-2.3499907818	 1.5587142759	 0.342103104	 0.126686
H	-1.7273544603	-1.1216823644	-0.9095782757	 0.099342
