13
gdb 24007	1.9951	1.87659	0.96702	6.4388	80.23	-0.2324	-0.0186	0.2138	1116.3586	0.090596	-378.497205	-378.48958	-378.488636	-378.529445	28.661	
C	 0.0543328424	-1.1885605309	-0.0040311231	-0.428445
C	 0.0204435566	 0.0146022726	 0.0027308098	 0.227662
C	-0.0035615448	 1.4264374892	 0.0108024588	 0.07941
C	-1.1221737088	 2.234807182	 0.0292655009	-0.178126
N	-0.7062862392	 3.5392846459	 0.0312136382	-0.239937
C	 0.6546604468	 3.6061853246	 0.0145330622	-0.147618
C	 1.1363715872	 2.3121792187	 0.0013939709	 0.075695
C	 2.5009276627	 1.93718261	-0.0177641475	 0.184446
N	 3.6185644812	 1.6337649178	-0.0334280421	-0.352878
H	 0.0924930979	-2.2495927084	-0.0098925118	 0.192361
H	-2.1664808157	 1.9720819071	 0.0409038482	 0.148521
H	-1.3187470145	 4.3368526267	 0.0432892171	 0.280687
H	 1.1820997981	 4.5452097347	 0.0130766284	 0.158222
