19
gdb 46047	4.51768	0.96556	0.8288	4.0801	76.78	-0.238	0.0362	0.2742	1365.3572	0.161073	-419.221121	-419.212883	-419.211939	-419.254484	31.115	
O	-0.0790185406	-0.0320871907	 0.1913711208	-0.377793
C	-0.0524442994	 1.1771280755	 0.1475597253	 0.404182
C	-1.2436911587	 2.1404466611	 0.1565812266	-0.348235
C	-0.6259946399	 3.5194635456	 0.4296475045	 0.039901
C	 0.8228107269	 3.3757295321	-0.0982185531	-0.180388
N	 1.0738150851	 1.956007546	 0.0646672234	-0.305583
N	-1.3289659827	 4.6007119754	-0.2414265782	-0.062092
C	-2.4541184487	 5.1858319193	 0.4829319698	-0.223468
C	-1.1760130406	 5.9337096497	 0.3405844102	-0.225905
H	-1.7050566464	 2.1273005621	-0.83756418	 0.138738
H	-1.9953786763	 1.8260822445	 0.8819735021	 0.126229
H	-0.5801560849	 3.6811764477	 1.5213772579	 0.066804
H	 0.8646211838	 3.6941170737	-1.1489517822	 0.117018
H	 1.5356172219	 3.9792243263	 0.4724733441	 0.109714
H	 1.9718696818	 1.5276735927	-0.0951181632	 0.250557
H	-3.3180299623	 5.4470661853	-0.1206369461	 0.122074
H	-2.6890900928	 4.7873446132	 1.4685542321	 0.114716
H	-0.5583335098	 6.0351920838	 1.2316537021	 0.112292
H	-1.0890961865	 6.7506846167	-0.369332716	 0.12124
