20
gdb 103139	2.30716	1.43308	1.14052	2.9776	76.12	-0.2635	0.022	0.2856	1169.9622	0.169866	-440.293613	-440.284062	-440.283117	-440.327601	35.678	
C	-0.3100046326	 1.5042181159	-0.0661492507	-0.411673
C	 0.1182497979	 0.0560211991	-0.018218479	 0.093229
O	 1.4042784041	-0.1632188732	-0.7163249561	-0.275836
C	 1.955030713	-0.7313669658	 0.4004454462	 0.433825
N	 3.0672014952	-1.2901860837	 0.5894129683	-0.57006
C	 0.7340560148	-0.5563470023	 1.278457129	 0.10181
C	 0.90744519	 0.346525137	 2.4969324327	-0.452207
C	 0.1858049727	-1.940143449	 1.6797566367	-0.102898
O	 1.0863027159	-2.6188318517	 2.5252912935	-0.42157
H	 0.4536519824	 2.1653965182	 0.3497935791	 0.132227
H	-0.4978896518	 1.8045530266	-1.1012479029	 0.135589
H	-1.2369501542	 1.6421380151	 0.5001302652	 0.129087
H	-0.6370641988	-0.589566893	-0.4793441183	 0.094134
H	 3.6449036767	-1.2950742645	-0.2525818879	 0.229031
H	 1.4607597909	 1.2596622353	 2.265160126	 0.121554
H	-0.0682954846	 0.6279298831	 2.9078778451	 0.116955
H	 1.4549929217	-0.2007344825	 3.2670668592	 0.152276
H	-0.7522414615	-1.8284064594	 2.2364290894	 0.105797
H	-0.0349233956	-2.5223662001	 0.7696561025	 0.087829
H	 1.9486090637	-2.6130136352	 2.0819670221	 0.300902
