21
gdb 103349	2.9366	1.4287	1.10029	1.525	79.51	-0.2344	0.0708	0.3053	1174.8878	0.179855	-424.133638	-424.124062	-424.123118	-424.168319	35.731	
C	-0.5040055928	 0.4656868276	-0.4868098094	-0.217733
O	 0.7883694605	 0.3828692005	 0.0923374243	-0.315949
C	 1.1556972355	-0.6029105485	 1.0190605035	 0.485335
C	 2.6747177815	-0.4474185321	 1.0990946222	-0.468199
C	 0.310833851	-0.8051851803	 2.3246687435	-0.068252
O	-0.7944910999	-1.3174916969	 1.4801503279	-0.312445
C	 0.4241349452	-1.9980368526	 0.9721893693	-0.079815
C	 0.7798997295	-2.2939322935	 2.4545615413	 0.065519
C	 2.1070308526	-2.8463337958	 2.9725101356	-0.454252
H	-1.2727191809	 0.7616362515	 0.2321495597	 0.120191
H	-0.4157313809	 1.2323413922	-1.2631582269	 0.108333
H	-0.8162550348	-0.4749328834	-0.9533416803	 0.109894
H	 3.0924444448	-0.7389288739	 2.060052417	 0.123318
H	 3.1736108581	-1.0179215912	 0.309451571	 0.121823
H	 2.9034859661	 0.6079370086	 0.9367652708	 0.134418
H	 0.0472296192	-0.0942896111	 3.1103740041	 0.088417
H	 0.295078393	-2.6949865762	 0.1414907117	 0.088999
H	-0.0529624565	-2.8451644154	 2.8966186232	 0.095363
H	 2.4132759317	-2.3453883709	 3.8974148784	 0.125268
H	 1.983433658	-3.907702216	 3.2092207331	 0.119815
H	 2.9291660293	-2.7702543228	 2.26129562	 0.129952
