15
gdb 125717	3.19107	1.45566	1.00583	1.5293	74.42	-0.2542	-0.0609	0.1933	1118.1563	0.113069	-450.122367	-450.114326	-450.113382	-450.155222	29.996	
C	-0.2003000082	 1.4779132723	 0.0171286682	-0.452673
C	 0.0151121087	-0.0044734521	 0.0229809663	 0.342461
N	 0.1109737053	-0.5848781422	-1.1153594747	-0.133464
O	 0.3138113226	-1.9783900936	-1.1436191828	-0.280384
C	 0.4136422618	-2.7435150688	-0.0117034504	 0.492202
N	 0.5952411789	-3.9932669014	-0.0430963693	-0.562146
N	 0.3032096239	-2.0673629381	 1.1868724479	-0.409644
C	 0.1043390037	-0.7092203408	 1.3215159003	 0.338655
N	-0.0028551351	-0.0481584175	 2.4075617083	-0.520775
H	 0.608696689	 1.9774135996	 0.5573779847	 0.155641
H	-0.2433298642	 1.8403005136	-1.0102927192	 0.145065
H	-1.1276969637	 1.7250460493	 0.5412203803	 0.155672
H	 0.6532933382	-4.327105731	-1.0023620134	 0.239475
H	 0.3798616663	-2.6527640487	 2.0065201248	 0.271334
H	 0.075917503	-0.6476855606	 3.2311419791	 0.218582
