17
gdb 52038	2.45524	0.7954	0.63445	1.6491	72.17	-0.2608	-0.0669	0.1939	1668.7383	0.130989	-458.980395	-458.970096	-458.969152	-459.018467	33.52	
O	-0.7107812236	 0.9148761231	 0.7001752519	-0.226163
C	 0.0657539176	 1.0666761843	-0.2052694896	 0.156796
C	 1.3325164071	 1.8932182905	-0.1267933642	-0.282089
C	 1.3391569245	 3.0032829109	-1.1929788308	-0.236972
C	 2.6797595046	 3.7848159438	-1.2412385436	-0.159492
C	 2.6175003002	 4.7713632508	-2.399856975	 0.14727
O	 3.2744449747	 4.6754887855	-3.4011734434	-0.232197
C	 2.8899799345	 4.5225183806	 0.0725754252	 0.159225
O	 3.7800588536	 4.2916797575	 0.8460305295	-0.235501
H	-0.1110907342	 0.5929978682	-1.1997477025	 0.078007
H	 1.4258201036	 2.295869036	 0.8851386669	 0.14028
H	 2.1835914902	 1.2211615614	-0.3048955752	 0.134589
H	 1.1605776736	 2.5682067095	-2.1832341795	 0.132269
H	 0.513695339	 3.7015748985	-1.0045243758	 0.126169
H	 3.5190331269	 3.1046477524	-1.4054913005	 0.12227
H	 1.8804687081	 5.596519261	-2.2682351892	 0.088063
H	 2.1265710994	 5.3067734658	 0.2859519959	 0.087477
