18
gdb 102211	3.2895	0.73986	0.64116	3.1222	80.97	-0.2582	0.0247	0.2829	1750.2335	0.145187	-401.937225	-401.926472	-401.925528	-401.975368	36.127	
C	-0.0046762739	 1.496618049	 0.0274522026	-0.498595
C	 0.0125631768	 0.0417300562	-0.0125131462	 0.128628
C	 0.0337634844	-1.1612995493	-0.0384133821	 0.021941
C	 0.0214656731	-2.6171050435	-0.0672659103	-0.372956
C	-1.4070536602	-3.2204376869	-0.019312655	-0.151718
C	-1.3802042099	-4.7604660997	-0.1810421946	-0.068322
O	-2.6661090089	-5.3300310454	-0.1837800868	-0.417296
C	-2.0958423546	-2.8895914984	 1.2306752588	 0.273292
N	-2.6532597807	-2.7055082775	 2.2268385651	-0.327981
H	 0.9074676283	 1.890561329	 0.4886270129	 0.151936
H	-0.0798183934	 1.9228774118	-0.9787961737	 0.149354
H	-0.8563431045	 1.8641817237	 0.6098726761	 0.156811
H	 0.5012871994	-2.9819375462	-0.9843714371	 0.13683
H	 0.605798179	-3.019507405	 0.7695439196	 0.144113
H	-1.9975137939	-2.8031068727	-0.8421879617	 0.144716
H	-0.9343021081	-4.9954882236	-1.1524592079	 0.122794
H	-0.7352837681	-5.1930582902	 0.5991713205	 0.106583
H	-3.0553513646	-5.1995855113	 0.6889156197	 0.29987
