17
gdb 33875	3.39013	1.52976	1.31644	1.9626	78.21	-0.2374	0.0417	0.2791	992.5352	0.136668	-384.601032	-384.593998	-384.593054	-384.63219	29.196	
C	 0.0407964718	-1.1251227059	 0.0358715214	-0.417115
C	 0.0204037116	 0.0779650948	 0.0157010113	 0.228965
C	-0.0437852849	 1.5035579121	-0.0111514615	 0.169258
C	 0.3593186412	 2.2832562573	-1.2530602003	-0.354682
C	 1.1878463631	 2.4229082962	-0.0091731757	-0.090669
C	 0.7338933696	 3.3835799843	 1.1084456883	 0.063914
C	-0.7350817715	 3.743667389	 0.7962086136	-0.250893
C	-0.8375510472	 2.236395619	 1.1087667325	-0.000391
O	 0.2119158935	 2.4437708551	 2.1155251442	-0.295593
H	 0.0704931591	-2.1859467439	 0.0630060351	 0.18711
H	 0.7950855277	 1.677475828	-2.0411033052	 0.130261
H	-0.2556519699	 3.0951797599	-1.6202535174	 0.120737
H	 2.1885397439	 2.0119405513	 0.0288498762	 0.113472
H	 1.4597944471	 4.0938590773	 1.502113154	 0.086919
H	-1.1632948813	 4.3261644973	 1.6107484907	 0.120139
H	-1.0337457919	 4.1512683858	-0.1694527659	 0.100183
H	-1.7321144517	 1.7467767125	 1.4893410887	 0.088384
