21
gdb 103346	2.88268	1.41298	1.13328	2.1205	79.26	-0.2455	0.0758	0.3213	1150.7127	0.180994	-424.156602	-424.14732	-424.146376	-424.190553	35.503	
C	 0.3915502137	 1.1473431988	 0.1547031614	-0.2511
O	 0.0019302865	-0.1775426301	 0.4406489527	-0.294247
C	-1.3622346973	-0.4922876128	 0.1832872634	 0.481853
C	-2.2254656548	 0.1839238481	 1.2416519433	-0.491492
C	-1.7808232897	-0.5371129225	-1.3386524526	-0.186367
C	-0.7599809339	-1.7067745928	-1.4930081105	-0.234595
C	-1.528552787	-2.0109761395	-0.1665646217	-0.143927
C	-2.7993704741	-1.6749273574	-0.9850128835	 0.14347
O	-4.0084430115	-1.4503337738	-0.302513365	-0.435142
H	 1.4723650839	 1.1992048638	 0.310711355	 0.123618
H	 0.1750615231	 1.4244111605	-0.8878741395	 0.103003
H	-0.0873396745	 1.8843022698	 0.8142448125	 0.108632
H	-2.19733002	 1.2726408771	 1.125214081	 0.106471
H	-3.2621639343	-0.1350974215	 1.1923644452	 0.151461
H	-1.8177525438	-0.0521298814	 2.2299489795	 0.117109
H	-1.9383984538	 0.3006727975	-2.0210257855	 0.063139
H	-0.9387281678	-2.3965658759	-2.3212823723	 0.08594
H	 0.2892324105	-1.4543992868	-1.3853015108	 0.122172
H	-1.3823701844	-2.8576612323	 0.5053135449	 0.074057
H	-2.970058497	-2.3651763042	-1.8204617431	 0.071402
H	-4.6671779338	-1.1815990847	-0.9501101945	 0.284545
