15
gdb 55624	2.31761	1.09048	0.86403	3.4759	74.46	-0.2564	0.0167	0.2731	1345.6644	0.109832	-416.765485	-416.755701	-416.754757	-416.800915	35.348	
N	-0.0030079359	 1.357813912	 0.1127131639	-0.568681
C	 0.0368488505	-0.00155219	-0.1485125367	 0.475899
O	 1.0127514967	-0.5603522338	-0.6122136728	-0.385571
N	-1.1316824738	-0.6654061997	 0.1805281726	-0.328927
C	-1.1499574643	-2.1259745832	 0.1601238948	-0.328013
C	-1.0938386561	-2.6968296419	 1.5139692373	 0.329776
C	-1.0523313734	-3.1390239359	 2.6296084647	-0.452374
C	-2.3110021673	-2.6376831697	-0.5808100431	 0.330192
C	-3.2595926875	-3.0557733903	-1.1861402084	-0.429404
H	 0.7500610931	 1.8610068395	-0.3311444094	 0.26538
H	-0.8969159743	 1.8231694548	 0.0666318767	 0.252127
H	-1.7794791252	-0.222050035	 0.8133559783	 0.250186
H	-0.2300275293	-2.3977590492	-0.3750709241	 0.182468
H	-1.0071424836	-3.540401234	 3.6119810718	 0.2048
H	-4.0939038496	-3.4311863834	-1.7256138457	 0.202141
