18
gdb 66105	2.62949	1.50569	1.33824	2.8402	75.76	-0.2351	0.029	0.264	1036.9488	0.14926	-398.117591	-398.109427	-398.108483	-398.150015	31.584	
C	 0.0045358047	 1.4760088643	 0.0075156826	-0.419921
C	 0.0315771437	-0.0578840227	-0.0065188117	 0.140819
N	 0.8385930395	-0.5519920276	-1.1349617193	-0.324197
C	 1.4430835493	-1.8475068642	-0.7933239659	-0.173015
C	 1.6123696877	-1.7656485298	 0.709792566	-0.025373
N	 2.196622581	-0.4844076235	 1.1629543323	-0.334062
C	 0.7384028876	-0.6815915811	 1.2039460625	-0.059801
C	-1.352104521	-0.5955651873	-0.0425732741	 0.238113
N	-2.4222126046	-1.028924383	-0.1153955605	-0.343771
H	 1.0323072839	 1.8294721229	 0.1047902733	 0.151549
H	-0.4202033043	 1.8631134704	-0.9226924257	 0.126785
H	-0.5978838854	 1.8510855516	 0.8400592861	 0.123684
H	 0.3210395669	-0.5666244341	-2.0043650501	 0.23456
H	 0.8047282991	-2.7148221629	-1.0257452672	 0.104961
H	 2.3921720312	-1.9647468559	-1.3280826519	 0.116827
H	 1.7917521575	-2.6699442328	 1.2797493757	 0.099477
H	 2.567229121	-0.6007040029	 2.103299064	 0.236908
H	 0.2113759622	-0.7203660114	 2.1499881538	 0.106458
