21
gdb 120226	3.68584	0.97684	0.95044	2.4782	78.38	-0.2431	0.0786	0.3217	1355.897	0.183584	-424.190327	-424.181841	-424.180897	-424.224178	32.035	
C	 0.6611758248	 1.4195075703	 0.0675460572	-0.224075
O	 0.7683160908	 0.0284130064	-0.1148765457	-0.234188
C	-0.1926163296	-0.4848337103	-1.0155851225	-0.106899
C	 0.0092146306	-1.9830955217	-1.097412984	 0.016605
C	-0.6857702787	-2.8840526715	-2.1486264158	 0.045043
C	-0.3224034182	-2.2636359601	-3.5155732037	-0.219892
C	 1.2026026315	-2.0615730992	-3.2408567642	-0.22242
C	 1.2216778978	-2.6359512306	-1.8091124005	 0.073708
O	 0.4034623606	-3.8413630118	-1.9645868149	-0.30186
H	 0.8066238943	 1.9695658821	-0.8761275003	 0.102464
H	-0.3204498456	 1.7035924022	 0.4794420151	 0.103756
H	 1.4398758119	 1.7186567448	 0.7733674755	 0.128309
H	-1.2140841505	-0.262406282	-0.6586950562	 0.086065
H	-0.0870238502	 0.0004424874	-1.9989393854	 0.086159
H	-0.1019703568	-2.431557237	-0.1080453576	 0.094134
H	-1.6810852761	-3.3062440825	-2.007466179	 0.076235
H	-0.5140608047	-2.9714827631	-4.3242233229	 0.10832
H	-0.8606118483	-1.3367452285	-3.7324757894	 0.096687
H	 1.8323246591	-2.6537023402	-3.9073836496	 0.108154
H	 1.5275782397	-1.0189674959	-3.2926337244	 0.101891
H	 2.1780106378	-2.8049931088	-1.3162998718	 0.081805
