18
gdb 13015	2.53193	2.44334	1.601	1.3775	66.41	-0.2316	0.0679	0.2995	862.2023	0.153934	-384.925548	-384.917849	-384.916905	-384.957062	29.825	
C	-0.3388752336	 1.4381780564	-0.0212178482	-0.489991
C	 0.060928759	-0.0156599793	 0.0067982141	 0.284377
C	-0.6430267695	-1.0014414137	 0.9402650903	-0.39122
C	 0.8173214275	-0.6736284237	 1.1207883966	 0.087159
O	 1.7706678059	-1.5812194678	 0.6258130458	-0.257393
C	 1.4506794782	-1.847235809	-0.7350114422	-0.12156
C	 0.6290652489	-0.6411555045	-1.2626395084	 0.051649
O	-0.3142089615	-0.9937399681	-2.2577588475	-0.433834
H	 0.4991116125	 2.0717619999	-0.3341545343	 0.120547
H	-1.1618052783	 1.6026466393	-0.7257272803	 0.128213
H	-0.6692886231	 1.7814974915	 0.9640695389	 0.114903
H	-1.3434647534	-0.5783887024	 1.6526819974	 0.115856
H	-0.9146979983	-1.9934784484	 0.5915605836	 0.10906
H	 1.1694054781	-0.1539744175	 2.0046078764	 0.102826
H	 2.3842666277	-2.0072396828	-1.2803244088	 0.115647
H	 0.8448499354	-2.7614480789	-0.8314055509	 0.090163
H	 1.2874596866	 0.0874704543	-1.7484723706	 0.093894
H	-1.0180331222	-1.4917903653	-1.8265053319	 0.279705
