17
gdb 19468	3.87939	1.82797	1.75117	3.8059	68.69	-0.2395	0.016	0.2556	824.4635	0.144798	-363.866902	-363.860365	-363.85942	-363.897659	25.509	
O	 0.1164322171	 0.0651207908	 0.4980741807	-0.323011
C	 0.1003000627	 1.2427285093	 0.2096221806	 0.131682
N	 1.142517057	 1.9249634727	-0.3480294875	-0.045387
C	 2.5928047954	 1.6049113604	-0.2255154169	-0.002896
C	 2.8302324752	 2.9640675285	-0.9407493849	-0.223658
C	 1.5635045976	 3.3380869669	-0.1232377548	-0.022241
C	 2.0900663238	 3.3014563989	 1.3350854257	-0.217219
C	 2.8824367617	 1.9510863033	 1.2561846896	-0.219211
H	-0.8034212985	 1.8803157078	 0.3092145508	 0.070001
H	 2.9362823192	 0.6527665551	-0.6225435645	 0.098078
H	 3.7539648555	 3.5016578029	-0.7190768778	 0.101696
H	 2.6371244698	 2.9143959104	-2.0121261004	 0.11665
H	 0.8785254695	 4.1317370708	-0.4192594519	 0.08566
H	 2.7232008596	 4.1618517174	 1.5672992871	 0.105617
H	 1.2748591132	 3.2726677444	 2.0622227408	 0.110522
H	 2.4878194334	 1.1869156017	 1.9280881717	 0.130051
H	 3.9512701179	 2.0687842587	 1.4508537718	 0.103666
