16
gdb 128783	5.02239	0.82918	0.71812	2.1992	68.65	-0.2468	0.0001	0.2469	1517.1512	0.123379	-475.004801	-474.99613	-474.995186	-475.039314	30.574	
C	 0.2854564702	 1.3850589604	-0.0603051168	-0.226785
O	 0.5558723221	 0.001275293	-0.0736975784	-0.229916
C	 0.200302102	-0.632681378	 1.12720774	-0.165669
C	 0.528617772	-2.083438793	 1.0043965572	 0.439171
C	 1.0690970555	-2.8223499352	 0.0036759511	-0.423403
C	 1.0974171717	-4.1294778608	 0.5651647889	 0.468857
O	 1.5558501379	-5.2267332037	-0.0560798113	-0.418021
N	 0.6206159921	-4.1753952999	 1.7858084301	-0.261652
O	 0.2520935827	-2.851226749	 2.0710703823	-0.227865
H	 0.8462925945	 1.9011758038	 0.7341195888	 0.111865
H	 0.5941663575	 1.7831718592	-1.0290133874	 0.135733
H	-0.7867046049	 1.5883565444	 0.0851299023	 0.111863
H	 0.742407318	-0.2012670647	 1.9869475874	 0.118591
H	-0.8758890923	-0.513107879	 1.343253269	 0.118608
H	 1.3935590767	-2.4976607058	-0.9683152295	 0.137066
H	 1.4564039343	-5.9703237219	 0.5536330764	 0.311557
