18
gdb 84264	3.25859	1.4595	1.08141	3.0367	81.2	-0.2011	-0.004	0.1972	1121.6855	0.148944	-401.961143	-401.953167	-401.952223	-401.993666	30.197	
C	 0.2230454877	 1.4077405153	-0.0479115644	-0.348882
N	-0.0007727588	-0.0191747738	-0.0076232903	-0.072627
C	-0.0737140557	-0.87277111	-1.1253515955	-0.108732
C	-0.4970899667	-2.0890593372	-0.7556297198	 0.103238
C	 0.001506409	-3.5090393216	-0.9199449428	-0.286181
C	 0.464027955	-3.3666552899	 0.5750603055	-0.228388
C	-0.5195900427	-2.1450112691	 0.7524303264	-0.177984
C	-0.1473544538	-0.7292085205	 1.1892408948	 0.391356
O	-0.0941552608	-0.2409275485	 2.2968066185	-0.385808
H	 1.1552682732	 1.6512042567	-0.5709297137	 0.126651
H	-0.6034936867	 1.9268806235	-0.546328742	 0.131485
H	 0.2917457226	 1.7521499404	 0.9855937927	 0.167098
H	 0.3263985274	-0.5316297119	-2.0717878292	 0.118437
H	-0.7948117851	-4.2522744536	-1.0273490851	 0.112855
H	 0.7702986008	-3.6967146772	-1.6725234522	 0.108723
H	 0.2805705494	-4.2159182989	 1.2362350016	 0.11449
H	 1.5092149346	-3.0612540316	 0.6459497558	 0.123139
H	-1.4467905394	-2.448556692	 1.2451050594	 0.111129
