19
gdb 52922	4.2926	0.91814	0.88923	0.1762	92.88	-0.2107	0.045	0.2557	1418.1778	0.159731	-348.68771	-348.67933	-348.678386	-348.722519	31.372	
C	 0.0478495535	 1.492162581	 0.0107621319	-0.516282
C	 0.0324725004	 0.0374805454	 0.0061171918	 0.367504
C	 0.022395264	-1.1697285183	 0.0023759508	-0.486125
C	-0.0171764348	-2.5786477529	-0.0041107661	 0.382893
C	 0.7038737525	-3.644272896	 0.8160990313	-0.124937
C	-0.612150202	-4.3293487533	 1.1729850668	-0.230186
C	-1.1942518181	-3.6564747113	-0.0980509946	-0.127463
C	-0.4228072693	-4.3234392455	-1.2673096455	-0.230184
C	 0.822160464	-3.6405826963	-0.7084020783	-0.124939
H	 0.6595372033	 1.8914605251	-0.8066118391	 0.145237
H	-0.9637559594	 1.8966996167	-0.10938914	 0.147282
H	 0.450229396	 1.888953698	 0.9501114222	 0.145042
H	 1.5721041466	-3.4883047962	 1.4431746494	 0.094575
H	-0.6418930617	-5.4245097365	 1.2178905944	 0.088107
H	-1.0401802445	-3.9101956109	 2.087303236	 0.104481
H	-2.2544504825	-3.4289584937	-0.1797589544	 0.077842
H	-0.4448590502	-5.418360068	-1.3215393769	 0.088107
H	-0.7048341935	-3.8997274034	-2.2346804851	 0.104479
H	 1.7766693656	-3.4819300537	-1.1932897546	 0.094568
