17
gdb 53402	2.17396	1.21075	0.85023	1.4734	82.53	-0.2475	0.0223	0.2698	1379.9451	0.133058	-384.605724	-384.595929	-384.594985	-384.642726	33.751	
C	 0.1689329897	 1.5486447269	-0.091287053	-0.499225
C	 0.1117493735	 0.0968494026	-0.0248100537	 0.057776
C	 0.0612529962	-1.1048817444	 0.0326032604	 0.145921
C	 0.0141014303	-2.5516987105	 0.1012139275	-0.099816
O	 0.1208703106	-3.0783761932	 1.4495431762	-0.268153
C	-1.2296555417	-3.5722791376	 1.4352757679	-0.076722
C	-1.3889533179	-3.250974392	-0.0734384231	-0.259837
C	-2.5308055731	-2.47949433	-0.5038726229	 0.353851
C	-3.4913445002	-1.8474592705	-0.854384658	-0.456504
H	 1.198573663	 1.9031616923	-0.2101800066	 0.151121
H	-0.4139061477	 1.925744536	-0.938731126	 0.153026
H	-0.2380616825	 2.0017287244	 0.8191740664	 0.15364
H	 0.7899381566	-2.9878486704	-0.5393440273	 0.105814
H	-1.2864394751	-4.6308627009	 1.7092437085	 0.110367
H	-1.8919099711	-2.9868722083	 2.083377387	 0.114378
H	-1.2828642772	-4.1479864886	-0.6891868933	 0.116445
H	-4.3360490734	-1.2840951558	-1.1650028899	 0.197917
