19
gdb 40163	3.93025	1.14013	1.03673	0.0388	75.15	-0.2591	0.0656	0.3246	1193.6397	0.159094	-422.999592	-422.991662	-422.990718	-423.032671	30.963	
C	 0.2210937868	 1.4759226109	-0.0838585871	-0.254651
O	 1.1677696712	 0.4985069849	 0.3607365471	-0.2751
C	-0.1580922203	 0.0663494659	 0.0162947831	 0.431028
C	-0.9969040002	-0.5143896425	 1.1486613655	-0.293269
C	-0.8962182078	-2.0326631643	 0.909197705	-0.293159
C	-0.9266072018	-2.1418497817	-0.6108363252	 0.431058
C	-1.0498064548	-3.4044621616	-1.3398166516	-0.254596
O	-2.1774164457	-2.5340681988	-1.1980910205	-0.275086
C	-0.2743895744	-0.8798102618	-1.181512766	-0.364082
H	-0.1139625682	 2.1831714376	 0.674917059	 0.110524
H	 0.4245041866	 1.91413128	-1.0608249565	 0.111272
H	-0.6302428358	-0.1875494363	 2.1237438731	 0.11246
H	-2.0389803639	-0.1893577103	 1.0433021379	 0.115147
H	 0.0621566231	-2.4064424217	 1.2892765385	 0.115204
H	-1.6992958789	-2.6143379146	 1.3661148454	 0.112479
H	-0.6474491264	-3.4887409631	-2.3492084006	 0.111271
H	-1.1110318558	-4.3442047033	-0.7908672934	 0.11052
H	-0.904222863	-0.4742164471	-1.9783409658	 0.124509
H	 0.7210608593	-1.0694943821	-1.5928248677	 0.124471
