15
gdb 124715	4.83423	1.05357	0.86959	6.0541	75.27	-0.2294	-0.0299	0.1995	1256.6253	0.113239	-450.149584	-450.141173	-450.140228	-450.183751	29.716	
C	 0.8122368579	 1.3452679753	 0.1974067251	-0.45417
C	-0.0163979662	 0.0982088627	 0.0233198337	 0.414662
N	-0.2910991495	-0.5875894197	 1.1533694305	-0.516302
N	-0.4935903887	-0.389345161	-1.0825522177	-0.404289
C	-0.287027048	 0.205761719	-2.2773308773	 0.500959
N	 0.3605768497	 1.2963912393	-2.6409755524	-0.373929
C	 0.1658273938	 1.3032195016	-3.9915839089	 0.036925
N	-0.5403647098	 0.3151617614	-4.4706935961	-0.132485
O	-0.8498599297	-0.4285544997	-3.3266035516	-0.205569
H	 1.7209654084	 1.2747640536	-0.4039381341	 0.174436
H	 0.268215242	 2.2099315941	-0.1883296871	 0.174437
H	 1.0742182088	 1.5107059887	 1.2452456549	 0.107706
H	 0.0367129612	-0.2844473846	 2.051461321	 0.269982
H	-0.8423194352	-1.4276361897	 1.0837275423	 0.273836
H	 0.5619702254	 2.068957959	-4.6439868622	 0.133801
