23
gdb 109681	2.76069	0.95634	0.89866	1.8921	82.79	-0.2409	0.0712	0.3121	1464.217	0.203001	-425.409348	-425.398162	-425.397218	-425.445612	40.602	
C	-0.1034719309	 1.57358796	-0.3324285049	-0.374823
C	-0.0085744086	 0.136795657	 0.1957218991	-0.199508
C	-1.3517988048	-0.5665082733	 0.1742210589	-0.089976
C	-1.8274511746	-1.3089697471	-1.0460705256	 0.057823
O	-0.9538983844	-1.342176518	-2.1383191889	-0.421253
C	-1.4964675515	-2.0832783113	 0.217901829	 0.273732
C	-0.2718722785	-2.978411294	 0.2458381228	-0.479162
C	-2.6774079704	-2.6248655464	 0.9899019788	-0.145555
O	-3.0829386397	-3.8531208566	 0.391811915	-0.424343
H	 0.8680777255	 2.0758931235	-0.2872374386	 0.106384
H	-0.4407419415	 1.580305688	-1.3734091204	 0.13054
H	-0.813305566	 2.1679730457	 0.2541197629	 0.10673
H	 0.7127229706	-0.4183098463	-0.4082482066	 0.112864
H	 0.3790077641	 0.1455370307	 1.2227841505	 0.089696
H	-2.1301317637	-0.0169718757	 0.7020711802	 0.07259
H	-2.8804167828	-1.2264155967	-1.3168521905	 0.080719
H	-1.0558771295	-2.196384289	-2.5715300085	 0.290982
H	 0.4492771295	-2.7018666969	-0.5251989951	 0.123718
H	 0.2340474823	-2.9305456799	 1.2171824882	 0.110384
H	-0.5745887995	-4.0157770796	 0.0762672568	 0.129148
H	-2.3956842629	-2.7769997278	 2.0449863419	 0.083782
H	-3.5008211606	-1.893063205	 0.9740345983	 0.079546
H	-3.727982652	-4.2698822217	 0.9704711965	 0.285983
