17
gdb 50707	3.16735	1.36446	1.06416	1.8246	68.08	-0.254	-0.0328	0.2212	1104.0215	0.135858	-458.946008	-458.93813	-458.937185	-458.97932	29.148	
O	-0.8404299348	 1.0226894352	 0.3678068756	-0.249042
C	 0.2461700055	 0.7178068172	-0.0458167448	 0.147958
C	 1.4428362887	 1.6599198612	-0.0219400832	 0.004466
O	 2.6106953591	 0.8707654465	-0.1962432561	-0.253604
C	 3.7454563992	 1.6781928981	-0.390697593	 0.014616
O	 3.7360487757	 2.3137752685	-1.6406906559	-0.242146
C	 2.5757135278	 3.0706028391	-1.8717159834	 0.09077
C	 1.4392332791	 2.3778489016	-2.572343633	-0.312666
C	 1.3223906003	 2.7261067695	-1.1023445369	-0.081059
H	 0.4613527178	-0.273686891	-0.5002641103	 0.096281
H	 1.4641813677	 2.1556176598	 0.9618662008	 0.099702
H	 3.8135536427	 2.4207473447	 0.4239473282	 0.085355
H	 4.6164211687	 1.0209928185	-0.3814766214	 0.124782
H	 2.7922122794	 4.1108506725	-2.0983168855	 0.10569
H	 0.831551309	 2.9368110692	-3.2745548145	 0.120973
H	 1.6229036669	 1.3429811999	-2.8380154243	 0.13423
H	 0.6549921072	 3.5392010294	-0.8393643622	 0.113694
