23
gdb 105363	2.49359	1.16521	0.92307	1.0095	86.06	-0.2369	0.0823	0.3192	1395.2184	0.203743	-388.255579	-388.245677	-388.244733	-388.291033	37.421	
C	 0.7393199613	-0.1872577708	 1.2742368929	-0.374699
C	 0.0832827753	-0.2070243929	-0.1105992804	-0.243232
C	-1.3798204761	-0.6111134739	-0.0645198737	 0.450957
C	-2.0240174694	-1.2629523924	-1.2611707127	-0.330497
C	-1.7409824927	-2.0654470185	-0.0056602366	-0.31354
O	-2.1856155771	 0.2068920394	 0.7547971624	-0.299148
C	-2.5332459295	 1.44741442	 0.2090732381	 0.137247
C	-3.8772171121	 1.6213695646	-0.4515542457	-0.284755
C	-3.609144417	 2.1935639582	 0.927594698	-0.293301
H	 1.7832569756	 0.1344742187	 1.2113194423	 0.10576
H	 0.2088649472	 0.4952344788	 1.9435417066	 0.130735
H	 0.7183442474	-1.1817749508	 1.7319257642	 0.116149
H	 0.1799556159	 0.7798654101	-0.5818314988	 0.09552
H	 0.6124069176	-0.9053446219	-0.7693843395	 0.094897
H	-3.0570882181	-1.0174027308	-1.4722883164	 0.119027
H	-1.4146106551	-1.4409022025	-2.1410879188	 0.109226
H	-0.9402109885	-2.7970750446	-0.0226986697	 0.108661
H	-2.5888384801	-2.3306434541	 0.6150347836	 0.119618
H	-1.6989064686	 2.0209771476	-0.189827639	 0.086993
H	-3.9616275434	 2.297702671	-1.2954172259	 0.110498
H	-4.5205426361	 0.750491778	-0.499124276	 0.1165
H	-4.0663225412	 1.6833720818	 1.7678506853	 0.124755
H	-3.5096016952	 3.266579305	 1.0456092599	 0.112627
