16
gdb 33853	4.26477	1.3005	1.15868	2.5117	74.04	-0.2416	0.0284	0.27	1047.1451	0.124882	-400.67437	-400.667187	-400.666243	-400.705747	28.89	
C	-0.0252857183	-1.1844778552	 0.0039622745	-0.3878
C	 0.01951225	 0.0170524259	 0.0079432006	 0.267333
C	 0.0506368117	 1.4527573271	-0.0334217638	 0.094093
C	-0.9484068682	 2.1680004452	-0.962791935	-0.334714
C	-0.2660131353	 3.4553321971	-1.4005148452	 0.039141
O	 0.064532504	 4.3627956185	-0.3368998556	-0.25879
C	 1.0958229183	 3.5007071758	-0.8447684974	 0.025595
C	 1.3207113535	 2.2697736797	 0.0127879697	-0.10547
N	 0.4830601855	 2.1405954701	 1.200866193	-0.352942
H	-0.0574424612	-2.2457121648	 0.0186751353	 0.191587
H	-1.1395994025	 1.5416913937	-1.8398591747	 0.126307
H	-1.9107990832	 2.3506735647	-0.4731167574	 0.129238
H	-0.5517215613	 3.9340764693	-2.3338577526	 0.106483
H	 1.9330872344	 3.9984806853	-1.3232802424	 0.106872
H	 2.3081903133	 1.8244760076	 0.0591432708	 0.105454
H	-0.0464024207	 3.0054394401	 1.3129669002	 0.247614
