22
gdb 114327	2.26825	1.35728	1.21022	1.7903	83.6	-0.226	0.0801	0.3062	1213.9581	0.192178	-404.295224	-404.285314	-404.28437	-404.329714	36.62	
C	-0.160903283	 1.4501933854	 0.1955210335	-0.236959
O	 0.3306300144	 0.1565637487	-0.0774465531	-0.245028
C	 0.7505734091	-0.5326807854	 1.0735571446	 0.09113
C	-0.3016785603	-1.1806870862	 2.0382540356	-0.300166
C	 0.4040425855	-2.528522224	 1.8112509721	-0.097123
N	 0.4223807969	-2.9221868447	 0.4240218733	-0.117725
C	-0.6889624841	-2.7118273557	-0.496433073	-0.316242
C	 1.3806605796	-1.9125872256	 0.8184835362	 0.29176
C	 2.8422938503	-2.1405265173	 0.561473181	-0.494696
H	 0.6011731344	 2.0763197262	 0.6859895934	 0.104224
H	-0.430658171	 1.905792688	-0.7602763054	 0.127308
H	-1.0519446131	 1.4263269492	 0.8406344804	 0.108536
H	 1.445249037	 0.0974875639	 1.6515374507	 0.069307
H	-0.2204244239	-0.8125332695	 3.0632483211	 0.101676
H	-1.3480099391	-1.128988686	 1.7250572842	 0.103267
H	 0.5869195949	-3.281924576	 2.5709483503	 0.089136
H	-1.2061296661	-1.7521287783	-0.3958764675	 0.1188
H	-0.3049178494	-2.7758543648	-1.5189776565	 0.122324
H	-1.4098794877	-3.5238713065	-0.3542008655	 0.11265
H	 3.1136301555	-1.8158591552	-0.4499832944	 0.12682
H	 3.4633946118	-1.5797172866	 1.2684618837	 0.111561
H	 3.0810772083	-3.2033846097	 0.6485417752	 0.12944
