20
gdb 70664	2.49127	1.46753	1.11684	2.0632	79.64	-0.2394	-0.0237	0.2158	1147.1275	0.170993	-403.14897	-403.140348	-403.139403	-403.182484	32.741	
C	-0.291922658	 1.3843603111	-0.0099484163	-0.47562
C	-0.0540983088	-0.1035921321	 0.0496699324	 0.321984
C	-0.6914221528	-0.9603374325	 1.0932403834	-0.299179
N	 0.7434274589	-0.6497312421	 1.1630475495	-0.128187
C	 1.6059987049	-1.7091282252	 0.617758542	-0.15712
C	 1.0712666722	-2.0889990983	-0.7855372301	-0.28482
C	 0.3414870632	-0.8128709547	-1.258501552	-0.106565
C	-0.8699332623	-1.1002110728	-2.1164005512	 0.15481
O	-1.1476488186	-0.5273695387	-3.1383535498	-0.253406
H	 0.5949436025	 1.904435448	-0.388432621	 0.123777
H	-1.1276460946	 1.6195016202	-0.6777080531	 0.132017
H	-0.5199841181	 1.7792267754	 0.9829727941	 0.128219
H	-1.2923180605	-0.4931637977	 1.8682690216	 0.118877
H	-0.9991534741	-1.9725282171	 0.8424818154	 0.109093
H	 2.6184836852	-1.298380723	 0.5434684148	 0.113978
H	 1.6436269091	-2.5614286937	 1.3031954936	 0.111214
H	 1.8679081338	-2.3868916307	-1.4706922245	 0.117898
H	 0.3725046523	-2.9309350988	-0.7289640182	 0.109946
H	 1.0038678846	-0.1535871458	-1.8284969492	 0.093115
H	-1.5333923789	-1.8986903114	-1.7070737316	 0.069966
