21
gdb 87875	3.16613	1.21565	1.19708	2.3227	82.3	-0.211	0.0668	0.2778	1178.0829	0.183499	-383.199467	-383.191082	-383.190138	-383.232677	32.502	
C	-0.0713742573	 1.5807540733	 0.2338985513	-0.392155
C	-0.0993488461	 0.0719372559	 0.2564553773	-0.076025
N	 1.1071498272	-0.6211842047	-0.2414120395	-0.387275
C	 0.7482484259	-0.7306680325	 1.1696351219	 0.33873
C	 1.6697347291	-0.3253228886	 2.3263062604	-0.252563
N	 1.2830278781	-1.5556862094	 3.0913140977	-0.124875
C	 0.0635125094	-1.3555005928	 3.9426887523	-0.162116
C	-0.8609506328	-1.9610545603	 2.8520904722	-0.247383
C	 0.3884780918	-2.0010949353	 1.9450022606	-0.071969
H	 0.9224368883	 1.9499729226	 0.5006112875	 0.128558
H	-0.3139619177	 1.9604351221	-0.7642923748	 0.121885
H	-0.7983063545	 1.9972380695	 0.9399982262	 0.113626
H	-1.060870445	-0.372498472	-0.0032527412	 0.080874
H	 0.8549148219	-1.4727542616	-0.7386653341	 0.227518
H	 2.7316454836	-0.3261859615	 2.0613607079	 0.114021
H	 1.4344873552	 0.6143484876	 2.8402748073	 0.099127
H	 0.1157896084	-1.9197950076	 4.8782661007	 0.107006
H	-0.1313689699	-0.3046355277	 4.1872216984	 0.098043
H	-1.249154347	-2.9504375513	 3.1035467865	 0.107559
H	-1.6884818728	-1.3383906873	 2.5040915563	 0.103653
H	 0.6291911442	-2.9498010284	 1.451886345	 0.073761
