16
gdb 66418	2.3508	1.3545	1.17564	3.3878	71.15	-0.2486	-0.0388	0.2098	1113.7953	0.122838	-437.888045	-437.879553	-437.878609	-437.921429	30.868	
C	-0.0119714657	 1.6254463703	-0.0113091931	-0.498071
C	 0.0969116495	 0.1305941393	-0.0176535335	 0.135151
C	 0.6853156802	-0.8545452039	-0.9959261131	-0.066778
N	 1.3186564553	-1.5875953709	 0.1009303965	-0.341869
C	 0.728307691	-0.7513947701	 1.0694598847	 0.364101
O	 0.7525879858	-0.765400373	 2.2651355136	-0.328595
C	-0.8238412671	-0.784235135	-0.8696097956	-0.159453
C	-1.6693366757	-1.8706261198	-0.3062490296	 0.147384
O	-2.7717622144	-2.1302862394	-0.7223281143	-0.259253
H	 0.9490420242	 2.0839880653	 0.242011326	 0.141422
H	-0.3260634269	 2.0052738281	-0.9877612065	 0.130967
H	-0.7462577983	 1.9542812609	 0.7306139621	 0.149428
H	 1.2130530332	-0.6671455316	-1.9219326018	 0.128773
H	 1.356009716	-2.5975617498	 0.1774634134	 0.250234
H	-1.3198217639	-0.2444021082	-1.6730361761	 0.119087
H	-1.2279541732	-2.440717852	 0.5382336772	 0.087473
