18
gdb 50857	5.6161	0.69076	0.65447	1.195	75.84	-0.2735	-0.0213	0.2523	1714.1452	0.146146	-439.10609	-439.096707	-439.095763	-439.142131	32.724	
N	-0.3363658865	 1.3087992735	 0.0090078056	-0.419348
C	-0.0958757757	 0.0786986579	 0.1139414661	 0.115015
O	-1.1260164428	-0.7989633199	-0.1142865972	-0.209326
C	-0.8675312586	-2.1473312799	 0.0025448743	 0.471976
O	 0.202621326	-2.59807001	 0.3032138201	-0.331316
C	-2.1168780555	-2.932454073	-0.3268929578	-0.36379
C	-1.9868976911	-4.404522717	-0.020073098	 0.047352
C	-2.3707007849	-4.9320579007	 1.3380509101	-0.251216
C	-3.2247306027	-5.2494678608	 0.1349127533	-0.284973
H	 0.5102913087	 1.8418315651	 0.2032518308	 0.239401
H	 0.8389835715	-0.4211598252	 0.3680784632	 0.142626
H	-2.9565921463	-2.4795373922	 0.2123308435	 0.137587
H	-2.3289463261	-2.7589197581	-1.3912509953	 0.143713
H	-1.1306607652	-4.8783251343	-0.488535411	 0.101649
H	-1.7682470086	-5.7227414423	 1.7700060742	 0.119335
H	-2.7631815967	-4.2276830747	 2.0645385611	 0.112088
H	-4.1900225972	-4.7598345475	 0.0546481284	 0.112544
H	-3.2082280884	-6.2591099909	-0.2597312116	 0.116681
