19
gdb 94788	2.71418	1.5092	1.15108	1.9563	76.21	-0.2401	-0.0233	0.2168	1116.8189	0.158904	-423.042421	-423.033833	-423.032889	-423.075897	32.246	
C	 0.3131320934	 1.4325212744	-0.201000158	-0.403043
C	-0.1130611251	 0.0024583685	 0.1447182294	 0.02042
O	 0.0516025126	-0.9042496638	-0.9409923015	-0.269764
C	 1.2857143089	-1.6150591994	-0.7971319049	-0.185496
C	 1.5452095834	-1.6779197869	 0.6947339285	 0.220842
C	 1.6668988462	-2.96526474	 1.4963522614	-0.290004
C	 2.8504687278	-2.0657853369	 1.3455868563	-0.303505
C	 0.7321469376	-0.5730018099	 1.286254153	 0.317257
O	 0.7383197283	-0.1977190229	 2.433461513	-0.340361
H	 1.3688628785	 1.473069426	-0.4879373367	 0.11997
H	-0.2846363147	 1.8102104839	-1.0342937649	 0.129172
H	 0.1676343841	 2.0810793226	 0.6676812671	 0.138086
H	-1.1708658815	-0.0089995722	 0.4316619339	 0.110626
H	 1.1577096392	-2.5953886163	-1.2654042344	 0.114714
H	 2.0984856667	-1.0883819762	-1.3219055579	 0.098414
H	 1.1623083947	-2.9847140316	 2.4562833161	 0.1387
H	 1.6412483619	-3.8938010765	 0.9359142113	 0.123172
H	 3.6565583701	-2.3751233755	 0.6882644567	 0.121812
H	 3.1483343581	-1.4728133973	 2.2040908414	 0.138986
