27
gdb 122187	3.56416	0.69004	0.67219	0.0518	96.56	-0.276	0.0802	0.3562	1896.196	0.251302	-353.562591	-353.551688	-353.550744	-353.599046	40.832	
C	-0.0767346441	 1.6783409928	-0.0339345698	-0.380984
C	 0.1102103857	 0.160043559	-0.0974294214	-0.158431
C	 0.7242540903	-0.4270205277	 1.1788174905	-0.16901
C	 0.9193181474	-1.9474063377	 1.109059914	-0.258214
C	 1.4036816775	-2.6079243789	 2.4043937861	 0.366008
C	 2.7901219381	-2.1126572506	 2.8267942013	-0.444889
C	 0.3921608128	-2.6035920634	 3.6000871367	-0.244868
C	 0.6725162791	-4.1133506062	 3.8233328672	-0.213325
C	 1.330256357	-4.1710520135	 2.4189741267	-0.260656
H	 0.8806802727	 2.1891425416	 0.118852884	 0.11228
H	-0.5171209257	 2.067276822	-0.957538644	 0.109484
H	-0.7361767374	 1.961743407	 0.7941661878	 0.112411
H	-0.8584904923	-0.3211978414	-0.2871848985	 0.092407
H	 0.746271225	-0.0953566498	-0.9555878806	 0.093031
H	 1.6847659791	 0.0677975285	 1.3706066095	 0.094136
H	 0.0798117872	-0.1808294053	 2.0344627148	 0.093926
H	-0.0359610015	-2.4095898663	 0.8235688281	 0.082822
H	 1.624245389	-2.1867955695	 0.2992733558	 0.086432
H	 2.7856274739	-1.0426778238	 3.0585475744	 0.113724
H	 3.1430038982	-2.6385833879	 3.7204005404	 0.10915
H	 3.5253175674	-2.2824766275	 2.0311392188	 0.107967
H	 0.6079915134	-1.9243694698	 4.4297968338	 0.089707
H	-0.6334356766	-2.4206819808	 3.2644200009	 0.091784
H	 1.3892818663	-4.2909271221	 4.6294536028	 0.100718
H	-0.192498212	-4.7586730364	 3.9926753907	 0.094071
H	 0.6436550072	-4.552223436	 1.6567807746	 0.091265
H	 2.2782037124	-4.7095064165	 2.3280926952	 0.089055
