18
gdb 45736	2.8412	1.58529	1.21156	2.989	77.62	-0.2132	-0.0067	0.2065	1053.0945	0.149313	-401.985055	-401.97723	-401.976286	-402.017477	30.344	
O	-0.3722078752	 0.0540178702	 0.0128052806	-0.386787
C	-0.1994252143	 1.2533154118	 0.0149629528	 0.367964
N	-1.181689297	 2.2245478731	 0.0320940838	-0.348458
C	-0.6153743047	 3.5100616513	 0.0294741645	-0.038822
C	 0.7203746606	 3.4471307299	 0.0110610371	-0.234683
C	 1.1370991485	 2.0044256149	-0.0001825359	 0.205476
C	 2.1891887833	 1.538464462	 1.065302384	-0.254115
C	 3.2833243223	 1.5371565854	-0.0311137115	-0.214922
C	 2.1598603461	 1.5468985889	-1.0974166164	-0.254113
H	-2.1650062914	 2.0119388688	 0.0447535393	 0.260026
H	-1.2639618878	 4.3743673752	 0.0416721999	 0.130355
H	 1.3952206381	 4.2900473146	 0.0051918028	 0.107542
H	 2.3252199103	 2.1893266118	 1.9313550509	 0.101924
H	 1.9434474593	 0.5280293123	 1.4025387877	 0.12613
H	 3.8631350172	 2.4644188422	-0.0353593875	 0.101533
H	 3.9788052802	 0.6952882482	-0.0438285968	 0.102902
H	 1.9049455764	 0.5391006886	-1.4357331508	 0.126125
H	 2.2724215182	 2.2045160609	-1.9617319846	 0.101923
