27
gdb 60158	3.85418	0.71052	0.64799	0.1936	97.2	-0.276	0.0823	0.3583	1897.5073	0.250948	-353.564539	-353.553606	-353.552662	-353.601053	41.154	
C	 0.0055470871	 1.5937884652	-0.1182449022	-0.387811
C	 0.0625642277	 0.0674339229	 0.0360324997	 0.042323
C	 0.8601115352	-0.3142079562	 1.2912029086	-0.377058
C	-1.3580687743	-0.5285155972	 0.0226599849	-0.19611
C	-1.4529648453	-2.0506672345	-0.0412971335	 0.043619
C	-1.2940760402	-2.9250678549	 1.239217824	-0.233884
C	-2.4407209157	-3.8375230407	 0.7231905228	 0.05043
C	-3.4509243702	-4.3934273272	 1.7146263844	-0.406964
C	-2.8634343574	-2.6798860049	-0.2231814077	-0.251323
H	 1.0106087241	 2.027293057	-0.1564490037	 0.106542
H	-0.5213429794	 1.8848626902	-1.033193925	 0.107219
H	-0.5200563086	 2.0529890578	 0.7279523138	 0.109854
H	 0.5961358313	-0.3369933169	-0.837035821	 0.06777
H	 0.9859730078	-1.39580541	 1.3852865379	 0.117707
H	 1.8585194899	 0.1359231278	 1.2704482236	 0.105149
H	 0.3561046253	 0.0432651792	 2.1975133342	 0.107794
H	-1.911123519	-0.1683761486	 0.9032648806	 0.082124
H	-1.8891130407	-0.1222174324	-0.8500752749	 0.087744
H	-0.7837977925	-2.4257499323	-0.826144882	 0.063374
H	-0.3238935352	-3.3883018292	 1.4376875479	 0.091414
H	-1.6032631799	-2.3723972092	 2.1342162777	 0.091835
H	-2.0159180594	-4.6561611477	 0.1302055668	 0.067435
H	-3.8892703973	-3.5913687912	 2.3198563013	 0.108243
H	-4.2711956119	-4.9091977569	 1.2022369438	 0.111466
H	-2.9853152072	-5.1105080133	 2.4005262666	 0.11133
H	-3.6337300638	-2.0537795775	 0.2432815279	 0.090592
H	-3.1888363104	-2.9303266392	-1.2368146564	 0.089187
