18
gdb 89920	4.71173	0.85868	0.83177	2.1715	72.73	-0.2411	-0.0301	0.2111	1388.7636	0.146533	-439.044447	-439.035759	-439.034815	-439.078891	32.029	
O	-0.0733555468	 1.4391075484	-0.1510892162	-0.434403
C	-0.0028777371	 0.0458095266	-0.0901606298	 0.166173
C	 0.4396787961	-0.6281400265	 1.2699539759	-0.322492
C	-0.9352145842	-1.3079582835	 1.3281062325	 0.342495
C	-1.2834382364	-2.640694358	 1.931521878	-0.412021
C	-1.3506724257	-2.5841325627	 3.4486505759	 0.170093
O	-2.2846267587	-2.9710483547	 4.1004933487	-0.234112
N	-1.9164098585	-0.1880885165	 1.303094993	-0.38769
C	-1.3413390208	-0.7011501123	 0.0303204703	-0.155103
H	-0.7410012502	 1.6917435686	 0.5019897412	 0.291225
H	 0.6072187459	-0.2888170734	-0.9316132204	 0.093246
H	 1.2658815194	-1.3310648189	 1.1354493392	 0.104592
H	 0.6675824123	 0.0635576393	 2.0843348484	 0.108164
H	-2.2430127367	-3.0145502727	 1.5596621149	 0.121625
H	-0.5062338832	-3.3705151963	 1.6610633401	 0.129087
H	-0.4496919999	-2.146224213	 3.9352915053	 0.085452
H	-2.8509405856	-0.5844580001	 1.3985511919	 0.236806
H	-1.9879637899	-1.0773018843	-0.753950669	 0.096861
