17
gdb 50602	2.27063	1.45876	0.99336	2.1529	84.11	-0.23	-0.0347	0.1953	1192.266	0.134715	-384.686042	-384.677379	-384.676435	-384.720086	31.72	
O	-0.7153657277	 1.2421177847	-0.9367909434	-0.240295
C	-0.0660084966	 1.2488774302	 0.0770198271	 0.152656
C	 1.3455930482	 1.811317606	 0.2032664941	-0.211295
C	 1.8404173824	 2.5548154749	-1.0563392554	-0.237812
C	 1.7208444916	 4.0665117748	-0.7275871151	-0.252635
C	 1.568657857	 4.0995589949	 0.7680232923	-0.165707
C	 1.3770103473	 2.8825648064	 1.2993873467	 0.162597
C	 1.1834258398	 2.5627863231	 2.6638501874	 0.233819
C	 1.0222122996	 2.2345846137	 3.8125992807	-0.421139
H	-0.4745129674	 0.8343720041	 1.0246090207	 0.0932
H	 1.9852271981	 0.9624827122	 0.4830887443	 0.104821
H	 2.8835272859	 2.2949192978	-1.2518758851	 0.107781
H	 1.2495845299	 2.2669295767	-1.9273850088	 0.131983
H	 2.5928874952	 4.6372303562	-1.066653691	 0.113365
H	 0.8498135506	 4.5277129934	-1.2128608459	 0.1259
H	 1.594716116	 5.0149936137	 1.3476960341	 0.106165
H	 0.8776300101	 1.9658987673	 4.8297132471	 0.196596
