20
gdb 94371	2.96302	1.41353	1.21426	2.9893	77.96	-0.229	0.0702	0.2992	1109.098	0.170978	-403.082748	-403.074531	-403.073587	-403.115769	31.725	
C	-0.3735773294	 1.4212013621	 0.0130358089	-0.411956
C	 0.0125895786	-0.0482019055	-0.0811398792	-0.114205
C	 1.3419651774	-0.3785934892	-0.790424501	-0.090351
O	 1.8850571063	-0.9694348228	 0.4093180057	-0.320284
C	 0.6802645931	-0.7071710538	 1.1525093699	 0.449214
C	 0.9156933705	-0.0768698124	 2.5481633814	-0.242346
N	 0.4186675933	-1.3110034222	 3.2588958005	-0.125313
C	-0.9733163463	-1.4747964676	 2.8128988017	-0.244802
C	 0.1046126025	-1.9049486092	 1.8966242779	-0.109412
H	 0.4543046276	 2.0253644158	 0.3997938387	 0.123501
H	-0.6424055083	 1.8158592733	-0.9726760724	 0.120393
H	-1.2342738214	 1.5690759892	 0.6738333154	 0.119867
H	-0.8305585258	-0.6398342911	-0.4500660486	 0.08071
H	 1.2888098187	-1.1002590717	-1.6141346133	 0.102249
H	 1.9266078063	 0.4915973075	-1.1158004022	 0.09932
H	 1.9835121518	 0.05886358	 2.7306596113	 0.127186
H	 0.3720435306	 0.8369753116	 2.8115913224	 0.099324
H	-1.5096169325	-2.2476460598	 3.3552161401	 0.124429
H	-1.5656122498	-0.5902616045	 2.5834229235	 0.109338
H	 0.3111645469	-2.9424731197	 1.6543875189	 0.103139
