18
gdb 42435	5.90627	0.65236	0.62025	4.4052	78.63	-0.2635	-0.0283	0.2351	1759.4714	0.146543	-401.978353	-401.968973	-401.968029	-402.014121	32.9	
O	-0.0460108591	-0.083520394	-0.0679569102	-0.332392
C	-0.0487156126	 1.1306138535	-0.0325184297	 0.383124
C	 1.2504342062	 1.9257981907	-0.0038918821	-0.314018
C	 2.4830546644	 1.0100736398	-0.0259376487	-0.339697
C	 3.7313043562	 1.7670713495	 0.0017101187	 0.25379
N	 4.7101485304	 2.3809341709	 0.0239611879	-0.30543
C	-1.3060223891	 1.9253440763	-0.0145211126	-0.110186
C	-2.498400877	 1.3637618699	-0.7799397161	-0.245989
C	-2.5046175301	 1.3202891228	 0.7067727272	-0.245992
H	 1.2602319588	 2.6154712176	-0.8571354797	 0.14748
H	 1.2532173911	 2.5639300993	 0.888611823	 0.147499
H	 2.4553119708	 0.3258217855	 0.827464386	 0.167803
H	 2.462600158	 0.3776211768	-0.91860896	 0.167781
H	-1.1948771141	 3.0033237488	 0.0174554734	 0.093701
H	-3.1335803182	 2.0785557127	-1.2898116838	 0.124354
H	-2.3178634383	 0.4339415009	-1.3067038478	 0.141909
H	-2.3282545617	 0.3612323705	 1.1797914843	 0.14191
H	-3.1442186156	 2.0042140384	 1.2522168602	 0.124354
