20
gdb 6864	3.17646	1.87093	1.65557	1.5433	70.63	-0.2532	0.0838	0.3371	910.3541	0.177081	-386.156675	-386.148605	-386.14766	-386.188367	31.713	
C	 0.0840746271	 1.470643614	 0.0091734282	-0.408248
C	-0.0662697362	-0.044677916	 0.0024680081	 0.433894
C	-1.5470462933	-0.460716648	 0.0143976228	-0.427898
O	 0.5870026422	-0.4872987921	-1.1807626265	-0.278422
C	 0.8223722893	-1.8861686107	-1.254604069	-0.082767
C	 1.5937196512	-2.3661158466	-0.0258834366	-0.204536
C	 0.8460843286	-1.8994696403	 1.2224619317	-0.082765
O	 0.6094684094	-0.4999161938	 1.1681703691	-0.278425
H	 1.1458372787	 1.7244236795	 0.0003376607	 0.126534
H	-0.3927547187	 1.899523725	-0.8750962836	 0.119654
H	-0.3756322749	 1.8899305358	 0.9070069253	 0.119656
H	-2.0487280616	-0.0555628479	-0.8680923488	 0.123798
H	-1.6837515631	-1.5441149517	 0.0099483131	 0.114488
H	-2.0317443759	-0.0650153867	 0.9105620532	 0.123798
H	-0.1236708059	-2.4427542262	-1.3495760954	 0.088286
H	 1.3885762407	-2.0438915647	-2.1768502081	 0.108879
H	 1.6933268146	-3.4572921069	-0.0326932115	 0.095063
H	 2.5973619641	-1.9277904129	-0.0331395171	 0.111845
H	-0.0980160595	-2.4571546466	 1.3295499511	 0.088285
H	 1.4298297534	-2.0670222631	 2.1319504231	 0.108879
