16
gdb 72988	2.74912	1.55966	1.22041	2.0233	71.56	-0.2272	0.0215	0.2487	1027.9953	0.122315	-437.785195	-437.776753	-437.775808	-437.81764	33.038	
O	 0.1027196045	 1.4398038231	 0.021923374	-0.453354
C	-0.0206444556	 0.0744748441	 0.0142623595	 0.323899
C	 0.6564737336	-0.7857028034	-1.0439904491	-0.246024
N	-0.4274157133	-1.8267732977	-0.9034339502	-0.367285
C	-1.1950555228	-0.9139826193	-0.0272747461	-0.186477
C	-0.3429969848	-0.7945940521	 1.2321558159	 0.191158
O	 0.456120705	-1.8627522203	 1.6362438118	-0.479394
C	-0.9148494593	-0.0339091493	 2.3104628643	 0.217446
C	-1.3514802865	 0.6845408379	 3.1722325162	-0.383145
H	-0.0635928262	 1.7501911913	 0.9226596496	 0.294103
H	 0.6415645577	-0.2947333702	-2.0206421375	 0.124031
H	 1.6625113537	-1.1548056453	-0.8238271047	 0.121207
H	-0.9041469757	-1.9873790335	-1.7835116139	 0.235644
H	-2.2761316465	-0.8447565595	-0.0426484922	 0.110873
H	 0.3500328736	-2.5244059901	 0.9316031113	 0.298096
H	-1.7651970174	 1.2739409744	 3.9532527512	 0.199223
