19
gdb 82505	3.17925	1.46194	1.38829	1.7199	73.95	-0.231	0.0736	0.3046	1024.0335	0.159417	-422.98584	-422.977986	-422.977042	-423.017683	31.816	
C	-0.0754437371	 1.4463662022	-0.1087008456	-0.455551
C	-0.0168652362	-0.0452237346	 0.0679654919	 0.414383
C	-0.8318496295	-0.7708381228	 1.1107702717	-0.361448
C	 0.6900173444	-0.7913890812	 1.1690230501	-0.112417
C	 1.4767835005	-1.8894705266	 0.4945709531	-0.126724
C	 0.8597593861	-2.9668346399	-0.4040890625	 0.096548
O	-0.4870077706	-3.3225180553	-0.4269842973	-0.42647
C	 1.2976463777	-1.6630734154	-0.9972411637	-0.003298
O	 0.2431117218	-0.7355703428	-1.1591701975	-0.315527
H	 0.8612962533	 1.8293104622	-0.5267644451	 0.121806
H	-0.8887936382	 1.724811752	-0.7873900292	 0.128432
H	-0.2553041268	 1.9385153971	 0.8513107353	 0.118628
H	-1.3303217612	-0.1424970988	 1.8426295082	 0.106741
H	-1.3493858827	-1.6864706916	 0.8682361047	 0.140356
H	 1.189275311	-0.2636489939	 1.9737271753	 0.091008
H	 2.4507421661	-2.1227019957	 0.9088380634	 0.092219
H	 1.5116607634	-3.8222636665	-0.5693634341	 0.101711
H	-0.9200540483	-2.6915138989	-1.0178498177	 0.295516
H	 2.0840757262	-1.5689819995	-1.7401444112	 0.094088
