17
gdb 122782	5.38549	0.56576	0.51692	4.1723	73.03	-0.2778	-0.0536	0.2242	2006.0715	0.134461	-455.146422	-455.136402	-455.135458	-455.182933	33.858	
O	-0.2401079196	 1.4496352869	 0.0120379148	-0.417118
C	-0.0362516206	 0.047588169	 0.0028406555	-0.073647
C	-1.4115017616	-0.61096464	 0.0122473638	-0.192126
C	-1.3138427876	-2.1259770415	 0.0031839378	-0.069946
O	-2.6620487181	-2.6404181997	 0.0133102029	-0.230932
C	-2.7857423744	-3.9683772685	 0.007262507	 0.326989
N	-1.8076803931	-4.7763651677	-0.0068736226	-0.518403
C	-4.1848231243	-4.3642651577	 0.0179919692	 0.254803
N	-5.274606868	-4.7487148916	 0.0262045942	-0.315635
H	 0.6195876016	 1.8803459747	 0.0066042471	 0.289422
H	 0.5252505444	-0.2705343714	-0.8910321592	 0.091016
H	 0.5418071269	-0.2797679927	 0.882711327	 0.09102
H	-1.9598721572	-0.2801663353	 0.9002575131	 0.12523
H	-1.9764291062	-0.2706792333	-0.861689253	 0.125236
H	-0.8004208667	-2.506653169	-0.8863357958	 0.1305
H	-0.7835670264	-2.5161311822	 0.8786006817	 0.130484
H	-2.1222977791	-5.7436743702	-0.0095201937	 0.253107
