19
gdb 89504	2.84442	1.52235	1.24096	1.8349	78.4	-0.2276	-0.0034	0.2242	1065.9177	0.158589	-422.993292	-422.984952	-422.984007	-423.025699	32.687	
C	-0.1827201978	 1.677056641	-0.2396344764	-0.443757
C	-0.0853530976	 0.1813459077	 0.0276356559	 0.384658
C	 1.0559065637	-0.5363477542	-0.8010643632	-0.316209
C	 1.9681803536	-0.4974365603	 0.4896961788	 0.003547
O	 2.8007320057	 0.6445207273	 0.5722523496	-0.426475
C	 0.6617991895	-0.3150435353	 1.2316941825	 0.221206
C	-0.1388318487	-1.0195617402	 2.0210960481	-0.236908
C	-1.5459453237	-0.9211374651	 1.452037634	-0.125066
O	-1.3858484392	-0.3940019529	 0.1238602469	-0.32122
H	 0.8111584417	 2.1303107023	-0.243402787	 0.130495
H	-0.6569573871	 1.8510943691	-1.2112651334	 0.117694
H	-0.7894413129	 2.1633857163	 0.5299728568	 0.116952
H	 0.7715641563	-1.5553667005	-1.0685651104	 0.113169
H	 1.4496153967	-0.0017502269	-1.671374065	 0.094702
H	 2.5264004185	-1.4125137871	 0.7213193533	 0.079238
H	 3.4853142574	 0.5546685281	-0.0991251986	 0.28635
H	 0.1293802425	-1.6947082513	 2.8243539822	 0.106529
H	-2.0150049738	-1.9121657122	 1.3867021615	 0.110083
H	-2.2221311249	-0.2787972458	 2.0390568043	 0.105013
