22
gdb 109550	2.17668	1.31486	0.93121	2.5637	84.3	-0.2278	-0.0195	0.2083	1354.5153	0.191144	-404.356683	-404.346204	-404.34526	-404.392271	37.784	
C	-0.0526269477	 1.4997356865	 0.122398994	-0.386332
C	-0.0833735213	-0.0205545685	-0.0167840326	-0.127996
N	 0.5925319948	-0.4849072651	-1.217558903	-0.106107
C	-0.0635869506	-0.2483103572	-2.5339509121	-0.062079
C	 0.5065943015	 0.8482551418	-3.4218447225	-0.399947
C	 0.2824162938	-1.7042597652	-2.8815670228	 0.372075
O	 0.3159039032	-2.3469766747	-3.8888700309	-0.301462
C	 0.659592864	-1.9576134254	-1.4159736524	-0.058591
C	 1.9806585968	-2.6389038402	-1.0967458932	-0.398453
H	 0.9774762299	 1.8669857726	 0.1081413051	 0.126705
H	-0.5982052178	 1.9862102832	-0.6924803401	 0.120542
H	-0.520959299	 1.8068882715	 1.0625307343	 0.115315
H	 0.4242298084	-0.4747312847	 0.8428160023	 0.104053
H	-1.1340907116	-0.3743003802	 0.0154140612	 0.075554
H	-1.1603419799	-0.1423051169	-2.442896187	 0.08459
H	 1.5942991237	 0.7596731932	-3.4857393475	 0.125892
H	 0.0895677329	 0.7609960259	-4.4301521671	 0.131754
H	 0.2656357544	 1.8425954068	-3.0353712703	 0.122125
H	-0.1745436804	-2.4843870045	-0.9161213726	 0.084175
H	 2.8075080642	-2.1248463798	-1.5936040924	 0.126216
H	 2.1721872669	-2.6358125318	-0.0189289688	 0.120467
H	 1.9586315637	-3.6789730874	-1.4364501617	 0.131504
