18
gdb 30422	3.28422	1.16077	0.87108	2.8571	79.52	-0.1785	0.0399	0.2184	1334.5542	0.14662	-435.29186	-435.281874	-435.28093	-435.327209	35.182	
C	-0.035399933	 1.4093058724	 0.0772064531	-0.315092
N	-0.0517659719	-0.042659433	 0.0560453232	-0.388789
C	 0.5364091514	-0.6516189234	 0.9946974964	 0.5032
N	 0.6324686573	-2.0208164359	 1.154064522	-0.43543
C	 1.4054714451	-2.3233198467	 2.2771641973	 0.320119
C	 1.7136568273	-3.7129819587	 2.7031708806	-0.50506
C	 1.7486276467	-1.1519786552	 2.8321402014	 0.155111
N	 2.4863621217	-0.8646589937	 3.9737567769	-0.594528
O	 1.2118646652	-0.0987561348	 2.0619621607	-0.247371
H	 0.9645225963	 1.8271851762	 0.2638434883	 0.10573
H	-0.3840936027	 1.7833514475	-0.8895185585	 0.111549
H	-0.7036993331	 1.8187003273	 0.8492095995	 0.107689
H	 0.3012848488	-2.6629235609	 0.4570788332	 0.265018
H	 2.2696377206	-4.2581257716	 1.9307089774	 0.131841
H	 2.3195464592	-3.6846728119	 3.610259035	 0.157034
H	 0.7993783772	-4.2814699683	 2.911592649	 0.134122
H	 1.9438691295	-0.3574231426	 4.6673436824	 0.247475
H	 3.3153471445	-0.3138917669	 3.7691042823	 0.247382
