21
gdb 74057	2.51291	1.3333	1.08619	3.8885	86.47	-0.2286	-0.037	0.1917	1236.401	0.181053	-387.150846	-387.141221	-387.140277	-387.185146	36.18	
C	-0.017933359	 1.4973109304	 0.0313298332	-0.485242
C	-0.0007096567	 0.005739854	-0.0349645624	 0.322159
C	-0.0180716128	-0.7578209883	-1.1396809412	-0.29269
C	 0.0079761927	-2.1869601373	-0.7903928149	 0.386377
O	 0.0011568014	-3.1335095922	-1.5471360062	-0.36402
C	 0.0470075142	-2.303047378	 0.7547872805	 0.184176
C	-1.1941023493	-3.0813066494	 1.2203951159	-0.423968
C	 1.328265734	-3.0499912931	 1.1589369581	-0.423959
C	 0.0402520363	-0.8285170348	 1.2270789682	-0.358359
H	 0.8663485938	 1.8712017827	 0.5625478933	 0.137948
H	-0.0441438449	 1.9519650672	-0.9616205695	 0.134442
H	-0.8889840485	 1.8490516668	 0.5984153206	 0.138088
H	-0.0471728068	-0.407468826	-2.1642745061	 0.106781
H	-1.2241312192	-4.0605778723	 0.7344759386	 0.136615
H	-1.1779785534	-3.2290205925	 2.3055827532	 0.108924
H	-2.1171204788	-2.5501367956	 0.9637816263	 0.112433
H	 2.2242184111	-2.4962569886	 0.857939525	 0.112441
H	 1.3687026059	-3.1973387647	 2.2435409416	 0.108925
H	 1.3588596914	-4.0285417773	 0.6716021015	 0.136612
H	 0.9275740746	-0.577082472	 1.8228498373	 0.111163
H	-0.8230095359	-0.5987537888	 1.8654350472	 0.111156
