18
gdb 88933	2.9264	0.98635	0.90727	2.2123	74.55	-0.2491	-0.0763	0.1728	1358.6213	0.145964	-439.109417	-439.099892	-439.098948	-439.145272	33.616	
C	 0.1049723582	 1.5082886577	 0.3966011226	-0.408116
C	 0.1888130882	 0.0231327151	 0.1331265504	 0.022012
C	 1.4934598903	-0.6195293433	-0.2763736078	-0.337222
C	 0.9117308482	-0.910416883	 1.0803592735	 0.044573
N	 1.5858114498	-0.3960146808	 2.2338356679	-0.313526
C	 0.9554641972	-0.1511798192	 3.405156464	 0.30062
O	-0.2379334668	-0.2533025484	 3.6248342477	-0.359411
C	 1.9113211036	 0.293003744	 4.5163211	 0.102079
O	 3.1041491369	 0.3849624621	 4.3756995193	-0.249299
H	 1.0261127333	 1.8847398387	 0.8506382006	 0.11359
H	-0.0572352765	 2.0598357192	-0.535285617	 0.118848
H	-0.7208541527	 1.7376438311	 1.0772868173	 0.137003
H	-0.7059420113	-0.4077113944	-0.3072772424	 0.095094
H	 1.4962768536	-1.413682713	-1.0141339639	 0.121971
H	 2.3682536691	 0.0235499575	-0.3100835302	 0.116616
H	 0.4573666627	-1.8844841346	 1.2400039495	 0.112159
H	 2.593708727	-0.3244847627	 2.2503721115	 0.265999
H	 1.3868914392	 0.5161210342	 5.466507047	 0.117012
