14
gdb 2539	3.02762	2.44384	1.58808	4.1035	54.35	-0.2851	0.0123	0.2974	789.0501	0.112033	-361.704536	-361.696577	-361.695633	-361.736878	26.979	
C	 0.1295243685	 1.2429592848	-0.1601384583	-0.248942
O	-0.1438510375	-0.1110100037	 0.1660676213	-0.24557
C	 0.6151944257	-0.6312447721	 1.2354033498	-0.041847
C	 0.0731937328	-2.0463538611	 1.486138717	-0.068765
O	 0.1907748104	-2.8551498086	 0.3445393695	-0.407436
C	 2.0606455271	-0.6506436959	 0.9165882077	 0.28083
N	 3.190075545	-0.6329872704	 0.6743641086	-0.320532
H	 1.1680695656	 1.3766196126	-0.4879656736	 0.142741
H	-0.5444401571	 1.5095464077	-0.9760284376	 0.141609
H	-0.0625843745	 1.9031626918	 0.6975003647	 0.118009
H	 0.4831552106	-0.0212659891	 2.1442540732	 0.114307
H	 0.6422470484	-2.5234696855	 2.288864837	 0.131074
H	-0.9711692806	-1.9357707923	 1.8156039531	 0.106433
H	-0.2172721745	-2.3695880582	-0.3823041024	 0.298088
