21
gdb 120561	3.88577	0.72173	0.69481	2.2425	75.93	-0.2495	0.0632	0.3126	1707.1929	0.181126	-461.327095	-461.317065	-461.316121	-461.3635	35.359	
C	 0.3148141093	 1.3262884086	 0.5345763242	-0.224898
O	 0.6599261127	-0.0284589527	 0.3665484227	-0.234962
C	-0.2505447531	-0.9105643493	 0.9793453954	-0.074198
C	 0.2321046648	-2.3250368731	 0.7163944978	 0.136276
C	 1.4264979681	-2.8503297657	 1.5391283078	-0.324492
C	 0.4286098782	-3.9036478949	 2.0605636109	 0.134438
C	 0.081557967	-3.9093659633	 3.5386850296	-0.065767
O	-1.126571394	-4.6075650468	 3.7616362034	-0.420786
O	-0.6600075335	-3.3048884085	 1.3004452818	-0.33046
H	 0.2895355449	 1.612154776	 1.5979350039	 0.105796
H	 1.0755786789	 1.9232531926	 0.0260264399	 0.129154
H	-0.6692517534	 1.5535327048	 0.0953384107	 0.107226
H	-0.3128738733	-0.7280818305	 2.0659151244	 0.085464
H	-1.2672618279	-0.7892900033	 0.5677374757	 0.095156
H	 0.331812449	-2.4753673453	-0.3657207333	 0.088386
H	 2.2692399604	-3.2327951606	 0.9638858786	 0.115679
H	 1.7929998951	-2.1529869772	 2.2963095381	 0.112226
H	 0.6087008127	-4.9296272855	 1.7162224757	 0.084793
H	 0.8643732172	-4.4199342461	 4.1115680782	 0.107723
H	 0.0210461469	-2.8700220354	 3.9029345028	 0.079803
H	-1.7677011199	-4.2235564838	 3.1505620519	 0.293443
