17
gdb 70894	3.57547	1.51916	1.4487	1.8049	65.84	-0.2279	0.0659	0.2938	952.399	0.135842	-458.948965	-458.941687	-458.940742	-458.980109	29.84	
C	-0.0650021626	 1.4497643935	 0.1168520702	-0.485897
C	 0.0386448213	-0.0382387658	-0.0299010265	 0.444744
C	 0.7099245226	-0.6859007015	-1.2664633475	-0.332993
C	 0.475498227	-2.1134479453	-0.7875192627	 0.284429
O	 0.7807946737	-3.2566581659	-1.5020074696	-0.46439
C	 0.524938644	-1.9988515018	 0.7372943259	-0.045995
O	 0.7465222163	-0.642916786	 1.0650329191	-0.278817
C	-0.8096993409	-2.0207857976	 0.0147297218	 0.000064
O	-1.2448651747	-0.6782315866	-0.0022611769	-0.275999
H	 0.9318209415	 1.896301775	 0.12383525	 0.1334
H	-0.6369848414	 1.8691425068	-0.7137962542	 0.135119
H	-0.5697506813	 1.6918156426	 1.0549143793	 0.143491
H	 0.1808836545	-0.4534541048	-2.1928219303	 0.116491
H	 1.7661228964	-0.416020582	-1.3456961405	 0.103369
H	 1.7361200149	-3.3844591346	-1.4768334299	 0.288736
H	 0.8992451977	-2.7328272942	 1.4358436575	 0.114474
H	-1.5760405591	-2.7783601417	 0.0829811942	 0.119773
