19
gdb 69361	2.97684	1.30062	1.10681	2.8756	76.42	-0.2378	-0.0303	0.2075	1165.7921	0.155853	-423.004729	-422.995496	-422.994552	-423.038673	34.445	
C	 0.2083600859	 1.4705930336	-0.0178379494	-0.491519
C	 0.0956508227	-0.0157283116	 0.0670359549	 0.473689
C	-0.8907569808	-0.808480364	 0.8608497854	-0.351165
C	 0.5945909893	-1.0802878456	 1.0268958959	-0.220614
C	 1.1245921849	-1.7947574925	-0.2268899517	 0.299089
C	 0.7139982424	-3.215731769	-0.5467453685	-0.457134
O	 0.5042423334	-0.7812324853	-1.0814555256	-0.366104
C	 2.6359850439	-1.5924258256	-0.3049479466	 0.143443
O	 3.4516738506	-2.4605500262	-0.1399408802	-0.253865
H	 1.2242134255	 1.7775898537	-0.2847719355	 0.129548
H	-0.4755716359	 1.8604311137	-0.780121679	 0.13727
H	-0.0564904466	 1.9291582902	 0.9389755191	 0.127331
H	-1.3330402932	-0.2905302171	 1.7065990889	 0.118668
H	-1.5428802357	-1.5229033122	 0.3677081788	 0.118817
H	 1.1089200834	-1.0092358334	 1.9761129192	 0.109
H	-0.3446293855	-3.3807146279	-0.3373373767	 0.119697
H	 0.8971215973	-3.4290424655	-1.6042758718	 0.13429
H	 1.314983258	-3.9102934558	 0.0454679557	 0.143299
H	 2.9233491405	-0.5401808095	-0.5235214829	 0.08626
