18
gdb 107713	3.46493	1.35006	1.15573	2.3879	72.24	-0.2204	0.0677	0.2881	1093.4902	0.146704	-438.971022	-438.962782	-438.961838	-439.003741	31.649	
C	-0.0307387633	 1.3386587347	 0.0969868103	-0.26205
O	-0.1006720147	-0.0674620756	-0.0639415277	-0.288003
C	-1.3719803906	-0.5669922212	-0.0587307256	 0.487216
C	-2.5196477601	-0.3225253411	-1.0755638607	-0.414128
C	-3.0830224225	-1.3470001536	-0.0671128548	 0.388812
O	-4.3430830553	-1.8968036742	 0.0172964552	-0.471091
C	-1.6913576554	-2.0745459031	 0.1215990916	-0.168736
N	-1.6917063015	-1.9729319995	 1.6180567192	-0.348706
C	-2.3632180402	-0.7128946639	 1.1617652047	-0.146044
H	 1.0274251834	 1.6066092287	 0.0820435571	 0.132937
H	-0.5458273689	 1.8662269604	-0.7178593411	 0.113616
H	-0.4681078452	 1.6538042133	 1.0541036407	 0.116914
H	-2.9864412522	 0.6667493798	-1.0751323351	 0.100712
H	-2.3427855725	-0.6747129421	-2.0969800495	 0.094848
H	-4.5234508928	-2.3821935829	-0.7952006952	 0.288638
H	-1.2687618905	-2.9133662887	-0.433836586	 0.080206
H	-2.3945089075	-2.6100278791	 2.002914132	 0.213127
H	-2.7415722301	 0.0559088781	 1.8365146248	 0.081732
