21
gdb 95591	2.37985	1.43621	1.00417	1.1346	85.41	-0.2348	0.0033	0.2381	1230.2449	0.183908	-387.084379	-387.075519	-387.074575	-387.118519	34.135	
O	 0.6600190251	 0.6374780801	 0.9037956311	-0.444609
C	 0.1724319652	-0.3216903872	-0.0485205774	 0.119959
C	-1.3389492172	-0.3894861877	 0.1941889926	-0.220523
C	-2.0551808386	-1.6378549081	-0.340505283	-0.261853
C	-2.3005148617	-1.8176933137	-1.8163811885	-0.011185
C	-2.0699251146	-1.0077751481	-2.8485450326	-0.070313
C	-1.4288915616	 0.3676440473	-2.8286104573	-0.316614
C	 0.0636700934	 0.3373521668	-2.5564655288	-0.067289
C	 0.6900140356	 0.0331431321	-1.4212913694	-0.06613
H	 1.5499631149	 0.893213327	 0.6414070412	 0.277391
H	 0.5893487178	-1.3136672292	 0.2070233871	 0.066129
H	-1.4447621206	-0.3971290459	 1.2844488262	 0.109161
H	-1.819506996	 0.5326035301	-0.1387591957	 0.10874
H	-1.5174149606	-2.5283983603	 0.0194790554	 0.106572
H	-3.0346544095	-1.6976786329	 0.1569966817	 0.111267
H	-2.7599844624	-2.7787049771	-2.0476934952	 0.081771
H	-2.3436531861	-1.3738320903	-3.8354855518	 0.08545
H	-1.5892277209	 0.8378783164	-3.8027239466	 0.0994
H	-1.9313404347	 1.014846847	-2.1053571564	 0.126329
H	 0.69246614	 0.5629057236	-3.4155357376	 0.090923
H	 1.7820495227	 0.0406078201	-1.4535815251	 0.075424
