18
gdb 36373	3.96394	0.89626	0.83236	5.0163	76.58	-0.2501	0.0347	0.2848	1394.5008	0.149295	-398.087241	-398.078686	-398.077741	-398.1213	31.318	
N	-0.0037316316	-0.7115424018	-1.1636120114	-0.304391
C	-0.0208113633	 0.2685433426	-0.5520353153	 0.2614
C	-0.0137251178	 1.5037954254	 0.2322108214	-0.359036
C	 1.3860461514	 2.0909602345	 0.3469009685	-0.00879
N	 1.8779675583	 2.8757316353	-0.7908110926	-0.332769
C	 1.6381237603	 3.5522641303	 0.4916493064	-0.061893
C	 0.5426734499	 4.5804258692	 0.4997229485	-0.007453
C	 0.6428924104	 5.7703597606	-0.3812160666	-0.240485
N	-0.3439780869	 4.7141745866	-0.6643418697	-0.31801
H	-0.6972027557	 2.2251477161	-0.223126493	 0.18089
H	-0.4024109981	 1.2816300768	 1.2331919442	 0.154312
H	 2.097784628	 1.427131772	 0.8333379261	 0.108731
H	 2.8652459402	 2.7107306974	-0.9581772984	 0.24627
H	 2.5065992284	 3.8157737863	 1.0945409674	 0.098765
H	 0.0382276008	 4.691712813	 1.4580514238	 0.09785
H	 0.2282850867	 6.721692833	-0.0610226915	 0.121538
H	 1.5114560061	 5.8417682571	-1.0310385189	 0.115973
H	 0.0407476327	 4.1253765556	-1.4039063487	 0.2471
