19
gdb 86527	3.51717	0.95728	0.8465	1.3844	77.2	-0.2475	-0.0925	0.155	1405.3331	0.157091	-423.039548	-423.030128	-423.029184	-423.075014	33.51	
C	-0.563986681	 1.2462264854	-0.0491556291	-0.410107
C	 0.3225103269	 0.032400335	 0.1765167019	 0.067679
C	 1.3451017051	-0.364229949	-0.9273923482	-0.25377
C	 2.4104697842	-0.6287004692	 0.1658954925	-0.106489
C	 1.4995445383	 0.1560079835	 1.1838266178	-0.24344
C	 2.548278841	-2.0678473059	 0.567750035	 0.279504
O	 1.8106480735	-2.9690930377	 0.2336676322	-0.28948
C	 3.7065351863	-2.4175055547	 1.51766758	 0.093884
O	 4.5246941574	-1.622857353	 1.8989296844	-0.219197
H	 0.0332345457	 2.1280463397	-0.3090607954	 0.111336
H	-1.2728509729	 1.0712576796	-0.8660724581	 0.119281
H	-1.144382626	 1.4889537166	 0.8480252161	 0.116862
H	-0.2912325381	-0.8373414799	 0.4314478055	 0.089124
H	 1.0866767954	-1.2166200383	-1.5579936705	 0.117699
H	 1.6226922821	 0.4856308915	-1.557260399	 0.098974
H	 3.4052132199	-0.1995682987	 0.0334785177	 0.103609
H	 1.8500409163	 1.1855048738	 1.2954533047	 0.111903
H	 1.3683952458	-0.2752941969	 2.1796107298	 0.106822
H	 3.7105562002	-3.4898816618	 1.8080056928	 0.105808
