14
gdb 4977	3.33794	2.33586	1.38612	3.1422	66.02	-0.2451	-0.0348	0.2103	839.1361	0.108531	-378.780993	-378.774024	-378.77308	-378.812056	25.839	
C	 0.0250926776	 1.4975215293	 0.0255056597	-0.524976
C	 0.0212962762	-0.0076688459	 0.0227467234	 0.229285
N	-0.0538404516	-0.6389682681	-1.1531430725	-0.288819
C	-0.0560089156	-1.9708510767	-1.1363395858	 0.052672
N	 0.0095003615	-2.7549252023	-0.059739726	-0.246322
C	 0.0844794915	-2.1298273199	 1.1137874976	-0.038227
C	 0.0941424916	-0.7410690464	 1.2147040999	 0.271659
O	 0.1727578268	-0.1784616184	 2.4492859616	-0.431018
H	 0.9415732932	 1.9005640707	 0.4761450106	 0.136536
H	-0.0381183633	 1.8589425437	-1.0012201387	 0.159752
H	-0.8263046122	 1.9048014462	 0.586485075	 0.136556
H	-0.117565261	-2.4684520857	-2.1004405411	 0.115572
H	 0.1394563754	-2.7356642977	 2.0152748067	 0.123425
H	 0.1701807898	 0.7808302713	 2.3687820597	 0.303905
