17
gdb 30848	2.37205	1.43061	0.92803	0.6793	73.91	-0.1739	0.0448	0.2187	1246.7897	0.137481	-451.347182	-451.33793	-451.336985	-451.381233	33.615	
C	-0.1860876579	 1.3991789636	 0.1564695511	-0.331562
N	 0.6066679071	 0.1967965995	-0.1198144767	-0.39148
C	 0.8580835899	-0.6476535369	 0.9454943785	 0.356211
C	 0.6764528513	-1.9701840653	 1.1685061024	 0.090057
N	 0.0218844155	-2.8656251247	 0.2928767759	-0.610332
N	 1.2765510867	-2.3213377433	 2.3933996536	-0.368819
C	 1.7398154342	-1.202011303	 2.8386524074	 0.432462
N	 2.3197264001	-0.9348856462	 4.0605415004	-0.589692
O	 1.5470471085	-0.1275279944	 2.0262744314	-0.213876
H	 0.3353172769	 2.0091944961	 0.8976529935	 0.143134
H	-0.2728669553	 1.9835640726	-0.7628289013	 0.122968
H	-1.195560536	 1.1813122451	 0.5372803054	 0.111141
H	 0.2101948527	-0.3568070305	-0.8704830938	 0.247245
H	-0.7517584709	-3.3251354458	 0.7668095176	 0.238985
H	 0.6535206388	-3.6093323547	 0.0053602745	 0.238697
H	 2.6250766871	-1.7807709882	 4.5205944425	 0.265601
H	 3.0456164913	-0.2318176339	 4.0262588576	 0.259261
