21
gdb 106413	2.84541	1.33208	1.15756	1.709	83.46	-0.2279	0.0924	0.3202	1186.3481	0.181332	-387.009055	-387.000359	-386.999415	-387.042273	33.979	
C	-0.1189481666	 1.5423066976	 0.090863133	-0.380966
C	 0.0628253319	 0.0218073996	 0.0218838184	-0.31991
C	 0.8595792504	-0.5247468585	 1.1680878637	 0.331404
C	 2.2750640626	-0.1429078939	 1.6974650414	-0.264533
C	 1.5941602131	-1.07851049	 2.7235663511	-0.048992
O	 0.342639472	-0.3023296437	 2.5565957527	-0.34962
C	 1.1464006984	-1.9838980557	 1.5738997632	 0.418634
C	 0.3288780113	-3.2190601581	 1.5171515246	-0.360236
C	 1.7189499215	-3.1708276676	 0.8802752818	-0.362948
H	 0.8441003952	 2.0590753703	 0.0301647634	 0.118423
H	-0.7441883466	 1.8980817569	-0.7329497784	 0.111491
H	-0.5935699218	 1.8283785175	 1.0331937424	 0.141265
H	-0.9154623417	-0.474785695	 0.0197102484	 0.113218
H	 0.5643444965	-0.2635906785	-0.9117307911	 0.105407
H	 3.1437143926	-0.5200730409	 1.1518760653	 0.09467
H	 2.3826718899	 0.8919076854	 2.0254481457	 0.101791
H	 1.8954819921	-1.3351459176	 3.7391169821	 0.091431
H	 0.2060389851	-3.8041824863	 2.4228380432	 0.116956
H	-0.529309778	-3.2447100486	 0.8528297411	 0.115037
H	 1.7786556956	-3.1649680453	-0.2039333486	 0.113151
H	 2.5177721165	-3.7241173075	 1.3644356668	 0.114327
