16
gdb 25032	4.992	1.03761	0.89845	4.5849	72.64	-0.1819	0.0482	0.2301	1249.8088	0.125846	-434.088554	-434.08053	-434.079586	-434.121424	30.036	
O	 0.0316717363	 0.0246259391	 0.0113468288	-0.435145
C	 0.0386393454	 1.2395142725	-0.0057593312	 0.447003
N	-0.984738454	 2.1190440635	 0.3052260524	-0.338233
C	-0.5822720658	 3.4538926469	 0.1524980167	-0.185109
C	 0.7064143782	 3.4292323231	-0.2568228257	 0.352373
N	 1.0897784824	 2.0923823686	-0.3411035816	-0.402224
N	 1.5940496763	 4.4336850578	-0.6461889813	-0.164891
C	 1.4337051602	 5.7520797558	-0.0461981195	-0.223286
C	 2.5942720723	 4.9010176121	 0.331001988	-0.229556
H	-1.8952050609	 1.7957172703	 0.5772310708	 0.266663
H	-1.248699009	 4.2813097138	 0.3154221346	 0.130774
H	 1.9706963165	 1.7554774073	-0.6872410357	 0.2687
H	 1.5599761259	 6.588240163	-0.7263319689	 0.128911
H	 0.6543374267	 5.8747938089	 0.7018623606	 0.125309
H	 2.5774500944	 4.4494232383	 1.3194080042	 0.130503
H	 3.578618435	 5.0988406491	-0.0805049123	 0.128208
