15
gdb 45353	2.50868	1.82513	1.20025	6.5934	66.23	-0.2495	0.0065	0.2559	988.307	0.115004	-454.007412	-454.000037	-453.999092	-454.039764	27.576	
O	-0.0091042413	-0.0057148773	-0.0966037748	-0.338358
C	-0.0039850647	 1.187130182	-0.0146161325	 0.432327
N	-1.000039926	 2.1292150486	 0.1154954817	-0.32543
C	-0.1249489123	 3.3017774593	 0.0580456727	 0.02275
C	 0.036586876	 4.0835264546	 1.3765989069	-0.181573
N	 1.0870449397	 3.3601073743	 2.0662405075	-0.309199
C	 1.802295881	 2.4549982252	 1.320437667	 0.413584
O	 2.7984010675	 1.8708560453	 1.6752427552	-0.366403
C	 1.0758914403	 2.3180523343	-0.0178218043	-0.31736
H	-2.0032235933	 2.0357027166	 0.1807086906	 0.254506
H	-0.3045005112	 3.948400908	-0.8030297494	 0.10003
H	 0.3213694999	 5.125345178	 1.1759298109	 0.114991
H	-0.8971736887	 4.0936625853	 1.9511836183	 0.116718
H	 1.4129435959	 3.6088858743	 2.9869795596	 0.256184
H	 1.7500972472	 2.3317911615	-0.8714723994	 0.127233
