23
gdb 95447	2.83171	1.21079	0.95738	0.2937	92.03	-0.2188	0.0298	0.2487	1335.7612	0.206805	-351.164082	-351.154906	-351.153962	-351.198645	35.07	
C	 0.5832195248	 1.5289317628	 0.0727460984	-0.389696
C	-0.0003307496	 0.1045355874	 0.0926425212	-0.068533
C	 0.2875221506	-0.6970510163	-1.2060846507	-0.224092
C	 1.4624217979	-1.6476187318	-0.8619264126	-0.248005
C	 1.4205595435	-1.7009286855	 0.6450220593	-0.19008
C	 0.6313804403	-0.7626621104	 1.1761916211	 0.342019
C	 0.3747133498	-0.4789016875	 2.6074928306	-0.102009
C	 1.1270921283	-1.1620236258	 3.7210668661	-0.27783
C	 1.3843561928	 0.2939949714	 3.4455063637	-0.246418
H	 1.6606019745	 1.5066337662	-0.1259141834	 0.112624
H	 0.1079072584	 2.1336852008	-0.7069841763	 0.108404
H	 0.4318163059	 2.0350477032	 1.0311095512	 0.117112
H	-1.0826008868	 0.1929781724	 0.2590824796	 0.064989
H	-0.5920889136	-1.2912929793	-1.4724394571	 0.098786
H	 0.5037411367	-0.0443200349	-2.0569569311	 0.090734
H	 1.3468915951	-2.6350001617	-1.3242193177	 0.09787
H	 2.4276623874	-1.2598467992	-1.2185829913	 0.100736
H	 1.9957682706	-2.4236524094	 1.2138784308	 0.079723
H	-0.6629316357	-0.2353732718	 2.8269344507	 0.08215
H	 0.5730738459	-1.4274955673	 4.6146337335	 0.110572
H	 1.9020725939	-1.871678262	 3.4551575321	 0.115633
H	 2.3208529252	 0.5572396531	 2.9668656728	 0.11568
H	 1.011542564	 1.0320762356	 4.1475411891	 0.109629
