17
gdb 46390	4.01539	0.8713	0.77872	1.8872	70.12	-0.2593	-0.0351	0.2242	1441.9039	0.133932	-458.928979	-458.920383	-458.919439	-458.963676	30.385	
O	-0.1157187437	-0.0379963409	-0.0214140058	-0.271686
C	-0.0158159232	 1.1495385241	 0.0047390405	 0.335411
C	-0.9712844627	 2.3466933231	 0.0891844496	-0.189218
O	 0.1651423811	 3.2329438141	 0.1343135549	-0.296453
C	 1.1396072386	 2.1619998063	 0.0132192758	 0.016063
C	 2.1254443852	 2.0996204958	 1.1741618968	-0.250286
C	 3.0345668377	 3.3064614577	 1.1899820847	 0.093162
C	 4.4510440633	 3.2096423792	 1.5592923658	-0.177302
O	 4.0579282255	 3.3284600925	 0.1903540174	-0.237015
H	-1.6008482972	 2.4992353004	-0.7969165284	 0.135651
H	-1.595056208	 2.3968901808	 0.9904264484	 0.135222
H	 1.6815761076	 2.2213335205	-0.9407039914	 0.12577
H	 1.5740945651	 2.0392845849	 2.1201156495	 0.11002
H	 2.7229052424	 1.1871435536	 1.0704230167	 0.124423
H	 2.5295339336	 4.2625419983	 1.3278425649	 0.112281
H	 4.9644604358	 4.0749038077	 1.9758611638	 0.118615
H	 4.8652282188	 2.2430126119	 1.8441620367	 0.115342
