13
gdb 13478	3.27053	1.94282	1.3192	2.5941	55.73	-0.254	-0.0509	0.2031	871.0273	0.094136	-435.75509	-435.747549	-435.746605	-435.787629	26.732	
N	 0.0018107445	 1.2639070389	 0.2145132243	-0.52066
C	 0.0913216299	-0.0863403564	 0.0307981727	 0.354961
O	 1.117682009	-0.7027793509	-0.127274843	-0.328537
C	-1.2954691981	-0.7517226827	-0.0141800929	-0.084889
O	-1.2955624849	-2.1622444115	 0.2458095075	-0.263816
C	-2.135777686	-2.0508611823	 1.4157272962	-0.177146
C	-2.1782627528	-0.5338451376	 1.219360043	 0.328748
O	-2.6260563281	 0.4205838123	 1.7810617314	-0.282143
H	 0.8653801615	 1.7691776428	 0.3401392853	 0.267707
H	-0.8386940389	 1.6642699471	 0.6052607502	 0.275732
H	-1.7809345825	-0.4960467511	-0.9665241826	 0.140434
H	-3.0981560279	-2.5653218561	 1.3047317732	 0.141558
H	-1.6392193658	-2.3902850825	 2.3331198247	 0.148051
