23
gdb 93906	2.54521	1.33001	1.03632	0.8662	87.95	-0.2328	0.0226	0.2554	1279.2265	0.206354	-388.303538	-388.294212	-388.293268	-388.337377	36.024	
C	-0.0883658268	 1.3831172559	-0.8279833597	-0.394981
C	-0.0558161315	-0.1279640042	-0.6174445029	 0.131325
C	 0.4476554282	-0.8592482391	-1.8694725761	-0.242439
C	 0.5021641314	-2.3670636621	-1.8160951681	-0.069134
C	 0.8316707611	-3.1637358318	-0.7977811293	-0.066671
C	 1.265779838	-2.7897650393	 0.6022477123	-0.034484
C	 2.7951146096	-2.595688368	 0.6615959277	-0.379028
C	 0.5326907997	-1.5804332328	 1.1961532819	-0.083385
O	 0.7646646882	-0.360489914	 0.5204007511	-0.2577
H	 0.9192440798	 1.7601746607	-1.0302347759	 0.122103
H	-0.7326761483	 1.6470810837	-1.6718297813	 0.110626
H	-0.4644605094	 1.8811061839	 0.0691917715	 0.119557
H	-1.0753779013	-0.4857648682	-0.39516799	 0.064971
H	-0.1966307409	-0.5629689589	-2.7063997876	 0.09808
H	 1.4472994097	-0.4683454366	-2.1134026025	 0.114717
H	 0.2783404495	-2.854832789	-2.7634123932	 0.083041
H	 0.8552514519	-4.2332585303	-1.0022732799	 0.081886
H	 1.0117600195	-3.6342424789	 1.2589038523	 0.071876
H	 3.0827658073	-1.7019552817	 0.1020030984	 0.131187
H	 3.1320622198	-2.4720601494	 1.6968049042	 0.107885
H	 3.3207039828	-3.453937362	 0.232853842	 0.109979
H	-0.5478968671	-1.7883271828	 1.2399876848	 0.085212
H	 0.885888739	-1.4242577251	 2.2227846103	 0.095376
