18
gdb 47740	2.50464	1.73908	1.15213	4.3256	72.68	-0.2407	0.0119	0.2526	1066.9498	0.149738	-439.111656	-439.103821	-439.102877	-439.144206	30.164	
O	 0.0186036716	-0.0683441406	 0.0967888185	-0.376226
C	 0.0088684732	 1.1485699749	 0.0718938906	 0.379217
N	-1.1496329929	 1.8653628654	-0.0178957482	-0.333122
C	-1.3114391642	 3.3145642023	 0.0099518109	-0.149648
C	-0.0208909264	 4.0189527305	-0.4053815985	-0.214636
C	 1.156597421	 3.4492524205	 0.3909320599	-0.297058
C	 1.2910967172	 1.9703995192	 0.1004078988	 0.302859
C	 2.5392606369	 1.2376389422	 0.3428305522	-0.223885
O	 2.1767323595	 1.6263532738	-0.9814752988	-0.266336
H	-1.9803103433	 1.2907631471	-0.0034960079	 0.248722
H	-2.1312003704	 3.5861274742	-0.6639017334	 0.116498
H	-1.6023667278	 3.6460632891	 1.0188181347	 0.109229
H	 0.1572480646	 3.8659537525	-1.4757942248	 0.126234
H	-0.1294293142	 5.0945885373	-0.2384355476	 0.105834
H	 2.0953003832	 3.9471579681	 0.1323972485	 0.115726
H	 0.985323698	 3.6005849183	 1.4654744894	 0.106796
H	 3.385115914	 1.773728419	 0.7724096085	 0.107125
H	 2.4812072701	 0.1710749862	 0.5416496973	 0.142671
