19
gdb 120528	5.9927	0.64557	0.62041	4.7482	77.15	-0.2504	0.016	0.2664	1755.2315	0.159384	-419.188018	-419.178537	-419.177593	-419.223283	33.824	
O	-0.4240964638	 1.5366923399	-0.5783199393	-0.417588
C	-0.1277990906	 0.2339209871	-0.1049664803	-0.075787
C	-1.4450515199	-0.5246625294	 0.0160221979	-0.194049
C	-1.2695862149	-1.9602870122	 0.5043040908	 0.048781
C	-2.5662634984	-2.8136619972	 0.4870656829	-0.268609
C	-1.9852583249	-3.4935907972	-0.788318264	-0.108997
N	-0.6618555902	-2.9209775542	-0.4607295239	-0.31596
C	-2.0271860569	-4.9556037275	-0.8603853324	 0.290857
N	-2.0803792078	-6.1087275675	-0.9173360685	-0.323074
H	 0.3994245045	 2.0283219591	-0.648714546	 0.289288
H	 0.5539869834	-0.2924838923	-0.7943357647	 0.083293
H	 0.3704702033	 0.2644047999	 0.8776740514	 0.093164
H	-2.0913431328	 0.0170218049	 0.7178242661	 0.114561
H	-1.952992247	-0.5093801727	-0.9569904923	 0.104936
H	-0.7356533324	-1.9585239903	 1.4623561019	 0.08393
H	-2.6504873662	-3.5004324917	 1.3288627483	 0.134528
H	-3.5058988686	-2.2775965472	 0.3513696348	 0.121219
H	-2.4438749972	-3.0990630514	-1.7046807621	 0.115081
H	-0.1643569197	-2.5148127401	-1.2462042703	 0.224424
