12
gdb 26624	2.48947	1.92314	1.08498	2.9557	62.09	-0.2244	-0.0542	0.1702	984.2331	0.078332	-509.825143	-509.818054	-509.817109	-509.85667	26.784	
O	 0.0246478393	 1.352855606	 0.0075926669	-0.396142
C	-0.011316349	 0.0138569842	 0.0009014667	 0.339562
C	-1.1955209269	-0.6662855204	 0.0035087106	 0.114923
O	-2.4056240785	-0.0657024714	 0.0127219232	-0.423915
C	-1.1786711721	-2.1034005723	-0.0037696738	 0.3687
O	-2.159764205	-2.8082176617	-0.002873193	-0.377338
O	 0.0919905413	-2.6894116679	-0.0135614333	-0.188115
C	 1.1843211954	-1.9154898139	-0.0152349943	 0.125558
N	 1.198308019	-0.6357079259	-0.0086665099	-0.346006
H	 0.9572727966	 1.6075644655	 0.0041249238	 0.309629
H	-3.0542356619	-0.7879884834	 0.012527513	 0.312597
H	 2.0981774218	-2.4983430087	-0.0230243198	 0.160548
