19
gdb 36730	5.59536	0.72067	0.67039	1.8866	78.36	-0.2544	0.0596	0.314	1661.7574	0.158161	-422.995002	-422.985637	-422.984693	-423.031182	33.097	
C	-0.1470971364	-1.2058065032	-0.0314581154	-0.434647
C	-0.0940346083	-0.0050467815	-0.0276731085	 0.291576
C	-0.0002542823	 1.4491880498	-0.0202502181	-0.357709
C	 1.4543829878	 1.9510660641	 0.0569197785	-0.209069
C	 1.5273990215	 3.4665356631	 0.034016387	 0.21961
O	 0.8263268096	 4.022331754	 1.1406520111	-0.273977
C	 1.5906058171	 5.1127914069	 1.6487771218	-0.085626
C	 2.7878297076	 5.2025223922	 0.6863229395	-0.112507
O	 2.863134463	 3.8910948498	 0.1500727415	-0.251147
H	-0.2071268545	-2.265676185	-0.0349908476	 0.192515
H	-0.4805001471	 1.8495735583	-0.9233065066	 0.127864
H	-0.5604221287	 1.85541142	 0.829439661	 0.151474
H	 1.9275898522	 1.5987846206	 0.9778652043	 0.121375
H	 2.0326922778	 1.5615645195	-0.7865502753	 0.120292
H	 1.0859467377	 3.8692395927	-0.89922042	 0.060191
H	 0.9879053439	 6.0279312517	 1.6570483093	 0.107236
H	 1.9041140411	 4.8875636633	 2.6752152871	 0.110428
H	 2.6049048983	 5.9407864972	-0.1091399937	 0.100914
H	 3.7355641196	 5.4340533566	 1.1762230843	 0.121209
