19
gdb 70634	2.41076	1.58587	1.17523	4.5259	79.37	-0.2444	0.0291	0.2735	1101.9012	0.160955	-382.078253	-382.06996	-382.069015	-382.110898	32.071	
C	-0.3021902281	 1.4021255268	-0.0471510334	-0.493953
C	 0.0051656607	-0.0679129374	 0.0828841189	 0.363434
C	-0.7033514723	-0.9363836211	 1.0937213033	-0.32663
C	 0.7794336631	-0.6849005031	 1.228085325	-0.086318
C	 1.704794509	-1.7347464973	 0.6405983551	-0.180707
N	 1.0732310036	-2.0481228232	-0.6475867529	-0.31379
C	 0.4956820925	-0.8070864461	-1.1693520001	-0.186013
C	-0.5692433395	-1.0886261536	-2.1455697502	 0.296159
N	-1.4006537068	-1.2791470865	-2.9250297392	-0.331249
H	 0.5557322747	 1.9594272968	-0.4415219839	 0.117671
H	-1.1497439881	 1.5705598276	-0.7209357197	 0.139711
H	-0.5617929167	 1.8313498347	 0.9248263016	 0.122872
H	-1.3560734868	-0.4230015627	 1.7913729888	 0.11308
H	-1.0370088299	-1.9242853241	 0.79674632	 0.138379
H	 1.1464387398	-0.0714283694	 2.042683736	 0.090815
H	 2.7194032706	-1.3112650683	 0.5443966815	 0.089618
H	 1.777887906	-2.646056685	 1.2453440866	 0.112199
H	 1.693806676	-2.4994213314	-1.3071147675	 0.234486
H	 1.2281884522	-0.1518969368	-1.6759917202	 0.100237
