16
gdb 93318	2.14721	1.69152	1.12628	5.3344	68.56	-0.2865	-0.0201	0.2664	1085.5766	0.124882	-437.945195	-437.936903	-437.935959	-437.978465	29.962	
C	-0.4739045881	 1.4653809746	-0.0345386719	-0.427471
C	 0.0686188164	 0.0408224427	-0.0140268461	-0.013332
C	 1.1496485542	-0.2453796565	-1.067817061	-0.090805
O	 1.8614991878	-1.4021617073	-0.5932180419	-0.210763
C	 1.7141266734	-1.5569312196	 0.7424291371	 0.445774
O	 2.2161186891	-2.4371906613	 1.3684982064	-0.319445
C	 0.7882161767	-0.4281144545	 1.2751851803	-0.309913
C	 1.5930127856	 0.6158539013	 1.9056276801	 0.288955
N	 2.2236942865	 1.4588075467	 2.3827256376	-0.319963
H	 0.3153141384	 2.1953851935	 0.1664682532	 0.152806
H	-0.909442345	 1.6916787695	-1.0129339517	 0.128733
H	-1.2570968031	 1.5995395186	 0.7169094305	 0.135779
H	-0.7527597631	-0.6663096159	-0.176742501	 0.109043
H	 0.7436583722	-0.4855499664	-2.0519187977	 0.137097
H	 1.8546158193	 0.5888897706	-1.164355747	 0.136263
H	 0.1134845096	-0.8514949261	 2.022383683	 0.157242
