19
gdb 54978	3.2044	1.07176	1.02073	3.2297	77.12	-0.2432	-0.0181	0.2252	1265.9687	0.157536	-423.011538	-423.00248	-423.001536	-423.046053	32.806	
C	-0.0105331111	 1.485013366	-0.0292184495	-0.484242
C	 0.0799139671	-0.0266458414	 0.0343028696	 0.39415
O	 0.1458233552	-0.6262343996	 1.0891006773	-0.331523
C	 0.0689273753	-0.7521359686	-1.2694049374	-0.198596
C	 0.8295554141	-2.0749500445	-1.3454563496	-0.346437
C	-0.6471197013	-2.0914839275	-1.3213199079	 0.303933
C	-1.5969543755	-2.6892919996	-0.2893437906	-0.127899
O	-2.4934616839	-3.1144770678	-1.3464930272	-0.277686
C	-1.6388574198	-2.5753288044	-2.373769867	-0.138913
H	 0.8267783441	 1.8904378625	-0.609011455	 0.141215
H	-0.9288829309	 1.7871495344	-0.5461419619	 0.141737
H	 0.000542419	 1.9029607977	 0.9778082094	 0.143314
H	 0.0323659317	-0.1444645767	-2.168350211	 0.089313
H	 1.3420325338	-2.2972971001	-2.2756698729	 0.12
H	 1.3478790398	-2.363991819	-0.4368415346	 0.141487
H	-1.2005947263	-3.5377968473	 0.2806703404	 0.109965
H	-2.0739100685	-1.985428833	 0.4000841279	 0.115549
H	-2.1389486962	-1.7941438209	-2.9620574904	 0.100712
H	-1.2658239267	-3.35299944	-3.0540994497	 0.103922
