20
gdb 31952	4.39146	0.88213	0.77578	1.0333	84.82	-0.1734	0.0593	0.2327	1532.8548	0.17094	-403.182736	-403.173146	-403.172202	-403.217685	34.956	
C	-0.1610006795	 1.7903400001	-0.1862192819	-0.364277
C	-0.2641830825	 0.2577230404	-0.0759947203	-0.299135
C	 0.6079691666	-0.4851374783	-1.0359133974	 0.309849
C	 0.3065743491	-1.2646031562	-2.1239126042	-0.23123
C	 1.5280998661	-1.7267092046	-2.712919809	-0.296614
C	 2.5413770077	-1.2014549703	-1.9472455187	 0.405179
N	 1.9932686283	-0.4545602942	-0.9409094033	-0.384834
O	 3.8908033226	-1.278517923	-1.9921826129	-0.261626
C	 4.4037862469	-2.0681394804	-3.0502777629	-0.243359
H	 0.858574	 2.1385782263	 0.0113736611	 0.106796
H	-0.4338879153	 2.1250992777	-1.191376041	 0.124059
H	-0.8242587435	 2.2810903965	 0.5335121609	 0.109713
H	-0.0390773526	-0.0421295514	 0.9578878417	 0.098046
H	-1.2983834526	-0.0505901817	-0.2604901085	 0.112623
H	-0.6912693539	-1.4879671803	-2.4712050201	 0.085154
H	 1.6356031956	-2.3604935038	-3.5773807272	 0.089532
H	 2.5346522666	 0.0229600068	-0.241335293	 0.256619
H	 4.0574324948	-3.1066594516	-2.9716259635	 0.125536
H	 4.1006055868	-1.6662248898	-4.0255941772	 0.125581
H	 5.4908432488	-2.0371358523	-2.9634385126	 0.132388
