20
gdb 73637	2.32939	1.66799	1.43615	2.6589	79.12	-0.2586	0.0331	0.2916	1041.208	0.172676	-403.179282	-403.171199	-403.170255	-403.211567	31.86	
C	-0.0519959304	 1.4974303437	 0.0356489323	-0.476546
C	 0.0053154781	-0.0214982405	-0.0024432279	 0.178104
C	-1.3629147361	-0.7311455157	-0.0847964023	-0.256755
C	-1.1322679152	-2.132925441	 0.5161165799	-0.226407
C	-0.1029858758	-1.8904631713	 1.6402956471	-0.226993
C	 0.8060925616	-0.8063624745	 1.082722951	 0.095978
O	 1.7069659246	-1.3212223769	 0.0376347606	-0.285424
C	 1.0420432933	-0.6164065057	-0.9419839339	 0.412349
N	 1.2607351654	-0.5230503231	-2.1738302781	-0.561268
H	 0.9450132568	 1.9349599564	 0.1444863212	 0.124102
H	-0.4820594533	 1.8826685256	-0.893899021	 0.140571
H	-0.6737018744	 1.8439569522	 0.8681507829	 0.114131
H	-2.0839114692	-0.1721206919	 0.5247342303	 0.097662
H	-1.7464242107	-0.7581840704	-1.1080300111	 0.121079
H	-2.0537705154	-2.5956680606	 0.8772105013	 0.099719
H	-0.7067338306	-2.8016192381	-0.2391213172	 0.121786
H	-0.59970785	-1.4989369501	 2.5370539685	 0.104028
H	 0.4526114596	-2.7855589765	 1.933010109	 0.114372
H	 1.379391239	-0.2409833578	 1.8199680965	 0.085461
H	 2.0734645027	-1.0760827237	-2.4521172591	 0.22405
