24
gdb 123023	5.45468	0.53203	0.50947	1.2879	88.36	-0.244	0.0806	0.3246	2278.8501	0.215684	-405.52082	-405.509746	-405.508802	-405.558431	38.964	
C	 0.1328456222	 1.4618171276	 0.1909999481	-0.382162
C	 0.0028938903	-0.0625147929	 0.1481797767	-0.181995
C	-1.4333841679	-0.5189298073	-0.0688896426	-0.025754
O	-1.4652578894	-1.9292768916	-0.0883209722	-0.251667
C	-2.7583264238	-2.4561419595	-0.3017269864	-0.056113
C	-2.6586254391	-3.9583350683	-0.280745205	-0.026006
N	-2.8770648567	-4.6330664812	 1.0095813187	-0.334131
C	-3.8206056607	-4.8699755289	-0.095704602	 0.00012
C	-5.2483026745	-4.413737901	 0.0992963525	-0.393712
H	 1.1721510485	 1.7637504432	 0.3494180625	 0.116231
H	-0.205951711	 1.9188578352	-0.7455007112	 0.114882
H	-0.4644753321	 1.8909538152	 1.003127863	 0.116266
H	 0.6242331614	-0.4752179362	-0.6550147796	 0.103982
H	 0.3686396999	-0.5025170004	 1.0829808779	 0.108172
H	-2.0838940824	-0.1315310679	 0.7351410953	 0.082872
H	-1.8253305713	-0.1121071945	-1.0186842291	 0.078273
H	-3.4515306135	-2.1102214727	 0.4791653749	 0.093445
H	-3.1520608583	-2.1149644454	-1.2760719709	 0.079705
H	-1.8505292798	-4.3300384649	-0.9093017646	 0.086335
H	-2.2375688721	-5.4151209001	 1.1175493325	 0.229846
H	-3.7341467567	-5.82440538	-0.6152727603	 0.079544
H	-5.29450053	-3.4772732436	 0.6589822327	 0.127495
H	-5.7479350713	-4.2691859442	-0.8649473314	 0.11453
H	-5.8145540817	-5.1644190107	 0.6610928805	 0.119843
