19
gdb 87370	2.08621	1.60226	1.12376	4.7924	77.67	-0.2298	0.0256	0.2554	1159.5507	0.157965	-419.19696	-419.18765	-419.186706	-419.23115	34.17	
C	 0.0377274701	 1.6331197555	-0.0501220786	-0.401025
C	 0.0554606329	 0.1124834767	 0.0101107714	-0.00933
N	 1.1035884365	-0.5394718652	-0.7937635435	-0.368855
C	 1.7427730059	-1.178636076	 0.2481745939	 0.409703
O	 2.7008151123	-1.8991791492	 0.3077332145	-0.366909
C	 0.7376978503	-0.5677751066	 1.2289099647	 0.163231
C	 0.9452526541	-0.0465597686	 2.6037634205	-0.310168
N	 0.1599899054	-1.2524970174	 2.3645780264	-0.120386
C	-1.2812004833	-1.1570048313	 2.5538915774	-0.31767
H	 1.0205242689	 2.0432501519	 0.1998239446	 0.127956
H	-0.2370093718	 1.9817987117	-1.0517462525	 0.119964
H	-0.6980098724	 2.0387056885	 0.6519486462	 0.124019
H	-0.9418046722	-0.2938701137	-0.2001592324	 0.090849
H	 1.3026836806	-0.5077499209	-1.781849774	 0.249871
H	 1.9011758806	-0.191614908	 3.0993920393	 0.135642
H	 0.4144882311	 0.8678069381	 2.8701517835	 0.109897
H	-1.7020345893	-0.1711155943	 2.2955385048	 0.100063
H	-1.7784237667	-1.9162164079	 1.9423438475	 0.13084
H	-1.5114543931	-1.3614789831	 3.6036621564	 0.132307
