18
gdb 74572	3.38873	1.2546	1.07841	3.933	78.82	-0.2269	0.0132	0.2401	1160.5318	0.148766	-401.993812	-401.985826	-401.984882	-402.026425	30.626	
C	-0.0603335442	 1.5046269215	 0.0537292158	-0.487719
C	 0.0218183256	 0.0125687828	-0.0174923952	 0.329346
C	 0.0399314764	-0.7410007207	-1.1225607333	-0.175227
C	 0.0672650095	-2.2118699987	-0.8326639507	-0.228151
C	 0.0277076235	-2.282607654	 0.7325676692	 0.022211
C	 0.0988639503	-0.8310342427	 1.2420190835	-0.318925
N	-1.3133038933	-2.8610871588	 0.597186437	-0.325802
C	-1.348548116	-2.8726946694	-0.7774634244	 0.424071
O	-2.1693851195	-3.2401861744	-1.5720777258	-0.361604
H	 0.7922034229	 1.9239633959	 0.6034544316	 0.124722
H	-0.0797839761	 1.9557489757	-0.9417322664	 0.127914
H	-0.9630046134	 1.8250015292	 0.5896565054	 0.128509
H	-0.0057552453	-0.3530485973	-2.1339119197	 0.099435
H	 0.8207278323	-2.7922206616	-1.3695297018	 0.097641
H	 0.7391776159	-2.956622602	 1.2160113469	 0.08497
H	 1.0315650936	-0.6409442703	 1.7900379833	 0.107775
H	-0.7188282945	-0.6097099888	 1.9408828909	 0.104977
H	-2.0124166076	-3.1083587061	 1.2827436138	 0.245857
