16
gdb 11094	8.32342	0.96763	0.93202	2.2937	72.62	-0.2517	-0.0261	0.2256	1203.3522	0.128702	-346.567019	-346.558907	-346.557963	-346.600109	29.282	
O	-0.0702401649	-0.0758648643	-0.155739471	-0.256963
C	-0.0500100885	 1.1128134334	 0.0349352446	 0.17482
C	 1.1895704552	 1.9647820255	 0.0465578237	-0.093512
C	 1.0537604107	 3.2439223585	-0.8427092365	-0.250127
C	 0.7368482594	 4.0884774566	 0.432998318	-0.146572
C	 1.2700938278	 2.9006925577	 1.2966560533	-0.250194
C	 1.3631854197	 5.385328195	 0.577630772	 0.294628
C	 1.9070759942	 6.4517957116	 0.6936866429	-0.437654
H	-0.9979162418	 1.6745927782	 0.2224765405	 0.068283
H	 2.0537686168	 1.327320577	-0.1432169241	 0.097106
H	 2.0119509542	 3.5217287656	-1.2842365264	 0.128472
H	 0.2917510693	 3.2344377058	-1.6256106548	 0.117541
H	-0.346644066	 4.1867469863	 0.5583209596	 0.109836
H	 0.6755912228	 2.6253237063	 2.1709783442	 0.117503
H	 2.3042277787	 3.0579576291	 1.6066363623	 0.128453
H	 2.3801155625	 7.3967754876	 0.7974858416	 0.19838
