17
gdb 94517	2.81217	1.20916	1.04582	3.4033	75.44	-0.2523	-0.0677	0.1846	1188.6949	0.13335	-421.783972	-421.774743	-421.773799	-421.819122	32.779	
C	-0.8970568736	 1.158084042	 0.4309522818	-0.414072
C	-0.1640661993	-0.1419836433	 0.1694603094	 0.156964
O	 0.7858545152	-0.0301044388	-0.9087053714	-0.28419
C	 1.8800712869	-0.4698557977	-0.0777749542	-0.094964
C	 0.9715949164	-0.6058136547	 1.1551333288	-0.185198
C	 1.2617231507	 0.3207486926	 2.3144470438	 0.229833
O	 2.06224675	 1.2304382858	 2.259287084	-0.288511
C	 0.4802906923	 0.0687899611	 3.5146652045	 0.25596
C	-0.176341061	-0.1628341005	 4.4969903183	-0.406134
H	-0.1966603869	 1.9659509638	 0.6592455846	 0.141824
H	-1.4642437839	 1.4380041493	-0.462002467	 0.131529
H	-1.5992053114	 1.0493151227	 1.2642217193	 0.122588
H	-0.8809590654	-0.950613811	-0.026241886	 0.083707
H	 2.3183851207	-1.4083231304	-0.4358178709	 0.101138
H	 2.6570160927	 0.2943473629	 0.0191387185	 0.129915
H	 0.819642276	-1.6206822854	 1.5265007536	 0.101517
H	-0.7467591495	-0.3496919584	 5.3745910729	 0.218096
