17
gdb 103117	2.32941	1.29825	1.04363	6.2648	70.48	-0.2409	0.0302	0.271	1188.6162	0.134495	-455.124237	-455.114366	-455.113422	-455.158988	35.337	
N	 0.2135437644	 1.403607824	 0.0212182728	-0.513805
C	 0.0460558773	-0.0196958381	 0.0124385695	-0.058678
C	-0.5241325597	-0.7241110794	 1.2441574604	-0.29315
C	-1.0270046479	 0.0523543393	 2.3360747022	 0.308843
N	-1.4446085246	 0.6814552815	 3.2132882767	-0.346849
C	-1.2940943409	-0.6890001813	-0.0994939807	 0.401407
O	-2.3701570642	 0.1815445302	-0.1876466357	-0.456578
C	-1.4932929621	-1.9856691648	-0.8362611232	-0.152694
O	-2.6405077882	-2.6029548754	-0.2621471087	-0.428176
H	 0.2136673676	 1.7516424195	-0.9335008112	 0.23893
H	-0.5743518128	 1.8452815441	 0.4865848892	 0.25886
H	 0.8847299323	-0.5404639514	-0.4424216881	 0.107691
H	-0.0643185159	-1.6629027184	 1.5332405593	 0.133844
H	-3.1475649414	-0.3091525477	 0.1095924672	 0.302504
H	-1.6521178168	-1.7671175567	-1.9024527667	 0.105685
H	-0.6003708884	-2.6224043338	-0.7449921952	 0.094581
H	-2.9571162486	-3.2863067616	-0.8598485278	 0.297584
