18
gdb 46836	2.80253	1.82067	1.49269	3.2808	77.14	-0.2468	-0.0025	0.2443	938.0063	0.151476	-401.970154	-401.963287	-401.962342	-402.001327	27.93	
N	-0.0819244488	 1.2821415201	 0.2929803486	-0.524551
C	-0.0245112377	 0.0574415981	-0.0214519085	 0.410972
O	 1.1712895822	-0.5523716495	-0.2932156603	-0.26965
C	 1.2561429465	-1.8514997923	-0.9150595612	-0.06688
C	-0.0462200477	-2.6620714203	-0.8478864979	-0.079576
C	-1.1812645844	-1.7219745897	-1.3022498308	-0.238852
C	-1.2584704672	-0.8231143358	-0.0501569838	-0.115271
C	-1.1140113679	-1.8611578821	 1.0633674672	-0.078271
C	-0.4298467533	-2.90828051	 0.6060105153	-0.073251
H	 0.8545891778	 1.6928669497	 0.2703409304	 0.215098
H	 1.5449306796	-1.6954159693	-1.9627325519	 0.109969
H	 2.0780505528	-2.3674643305	-0.4082271594	 0.11504
H	 0.067159802	-3.5664853487	-1.4522954297	 0.075471
H	-0.9503868743	-1.1722178806	-2.2204875704	 0.10439
H	-2.1179800106	-2.2679304078	-1.4398809353	 0.106588
H	-2.1392395239	-0.1866624478	 0.0206801741	 0.095628
H	-1.4537955498	-1.690632628	 2.0769691635	 0.11163
H	-0.1037743254	-3.7696270956	 1.1764108698	 0.101517
