18
gdb 54699	3.45367	1.43251	1.25119	3.7023	75.98	-0.2254	0.0229	0.2483	1045.7858	0.147642	-401.914136	-401.906296	-401.905352	-401.947011	29.847	
C	-0.1912425259	 1.4145931852	 0.2356311263	-0.490264
C	-0.1143833686	-0.1023956412	 0.162907042	 0.359384
O	 0.8474227893	-0.7417438212	 0.5430495691	-0.355629
N	-1.1914706947	-0.709658496	-0.4475953792	-0.067322
C	-1.573007469	-2.1051015967	-0.293520578	-0.014817
C	-2.7595720454	-2.1514468707	 0.6997233979	-0.081259
C	-3.0427606383	-0.7015012713	 1.0906586132	-0.23636
C	-2.6326807208	-0.3512209137	-0.3738157348	-0.054407
C	-2.9676511129	-1.8441730132	-0.7710699462	-0.108079
H	 0.7991368478	 1.8017578631	 0.4745711486	 0.147118
H	-0.5410076076	 1.845346239	-0.7070148692	 0.135137
H	-0.88768602	 1.7258195559	 1.0222759409	 0.138147
H	-0.9008657086	-2.9304079925	-0.4739905671	 0.124099
H	-3.0130834751	-3.05623802	 1.2364325287	 0.097064
H	-4.1109836705	-0.5383774734	 1.2535030918	 0.109755
H	-2.4628567075	-0.2388879884	 1.8972532822	 0.102856
H	-2.9548318159	 0.5596532547	-0.8728056391	 0.090598
H	-3.5669649563	-2.2852252196	-1.553156507	 0.103978
