19
gdb 32644	3.40224	0.97319	0.80383	2.3993	78.85	-0.21	0.0388	0.2488	1455.0181	0.159738	-419.242091	-419.232632	-419.231688	-419.277936	33.35	
C	-0.1343328585	 1.5491629661	 0.0693876344	-0.371196
C	 0.104936351	 0.0408476584	-0.0283164025	-0.15847
N	 0.7288949167	-0.5166160577	 1.1612764475	 0.021202
C	 2.032333404	-0.8893968771	 1.3008669901	-0.009636
N	 2.3053775448	-1.313937366	 2.5143250047	-0.336505
C	 1.1196343893	-1.2103108274	 3.2044454371	 0.270203
C	 1.0168320436	-1.6106166306	 4.6401859686	-0.184144
O	-0.3153331747	-1.3784659469	 5.0750096866	-0.421388
C	 0.1327954441	-0.7190794729	 2.3907621639	-0.195975
H	 0.8085637091	 2.0822969283	 0.2207168359	 0.132981
H	-0.597811789	 1.9177017102	-0.850894139	 0.121773
H	-0.79769683	 1.7879565007	 0.9053375352	 0.134136
H	-0.8397720173	-0.4846421932	-0.2052971691	 0.12478
H	 0.7602958528	-0.1866599487	-0.8743715853	 0.122614
H	 2.7295579383	-0.8322028547	 0.4770580961	 0.120428
H	 1.2970542145	-2.6711517305	 4.7468977458	 0.102303
H	 1.74250711	-1.0317771397	 5.2343960639	 0.1023
H	-0.3785273124	-1.6510245464	 5.9941441115	 0.289069
H	-0.9075969863	-0.5091208719	 2.5684076646	 0.135527
