17
gdb 56688	2.49786	1.30608	1.12879	3.7603	68.14	-0.2616	0.015	0.2766	1132.8539	0.135536	-455.117066	-455.107876	-455.106932	-455.151331	33.137	
N	-0.0438776081	 1.4614990828	 0.0666091716	-0.530487
C	 0.0563600488	-0.0019574649	 0.0286923698	-0.177834
C	 0.6723427383	-0.5063970386	-1.2151250244	 0.266995
N	 1.1562625599	-0.8683687199	-2.2006341787	-0.321741
C	 0.8390814116	-0.4801285103	 1.2722519841	 0.373504
O	 2.068389987	 0.1843746756	 1.378740754	-0.477489
C	-0.0522538059	-0.5697298497	 2.5346748057	-0.133435
O	-0.1377362709	-2.0024077606	 2.3948104839	-0.274784
C	 0.929477996	-2.0086937021	 1.4204534596	-0.118237
H	 0.7964546064	 1.8682328997	-0.3335259772	 0.250635
H	-0.8148136104	 1.7794038035	-0.5112895982	 0.252955
H	-0.9531398482	-0.4219629893	 0.0901071443	 0.143063
H	 1.8766034713	 1.111439928	 1.5661290278	 0.289418
H	 0.4865616531	-0.2724052373	 3.4437983757	 0.104123
H	-1.0329196579	-0.0837447897	 2.5068241726	 0.110698
H	 0.6925474013	-2.6219758179	 0.5452068588	 0.123286
H	 1.8877473679	-2.3246086891	 1.8493999109	 0.119331
