19
gdb 78425	5.1527	1.29581	1.26919	1.1261	79.7	-0.2187	0.079	0.2977	1057.1977	0.161581	-381.95961	-381.952888	-381.951944	-381.990297	28.249	
C	-0.0744743349	 1.442099937	-0.0223374319	-0.317138
N	 0.0358865709	-0.011309107	 0.0346661145	-0.103114
C	 1.3982919054	-0.5289646943	-0.1881576301	-0.044743
C	 0.8147000771	-0.5196505641	 1.1786922579	-0.044739
C	 0.6346401404	-2.007302063	 1.4064753983	-0.006502
C	 0.1450034124	-2.6860331668	 0.0994800359	-0.063131
C	 1.0405335554	-3.867440909	 0.4898755367	-0.191192
N	 1.93514835	-2.6855575921	 0.8637954471	-0.170318
C	 1.4309410312	-2.0200096043	-0.4585823123	-0.006499
H	 0.8158622291	 1.9739492268	 0.3540953672	 0.099999
H	-0.2414392453	 1.747763836	-1.0599554335	 0.125352
H	-0.9377476451	 1.7588669441	 0.5712772437	 0.125352
H	 2.1879772545	 0.1432854696	-0.5040095182	 0.093456
H	 1.1360673358	 0.160070709	 1.9597099445	 0.093455
H	 0.306015617	-2.3707300653	 2.3811134274	 0.071755
H	-0.8601028094	-2.6763083019	-0.329728456	 0.072782
H	 0.7442924169	-4.4802054235	 1.3463928826	 0.096734
H	 1.4512300565	-4.4914766458	-0.3093550441	 0.096734
H	 1.905768172	-2.3962602755	-1.3657581899	 0.071755
