20
gdb 93363	2.75087	1.54833	1.17784	3.2502	80.22	-0.2518	0.021	0.2727	1103.7487	0.173087	-403.156886	-403.148758	-403.147814	-403.189745	31.896	
C	-0.1683754829	 1.6096709355	-0.0279864531	-0.396726
C	 0.0430309886	 0.089504243	 0.0002509425	-0.009165
C	 0.7680436803	-0.4117602236	-1.2514977911	-0.095639
O	 2.1836488939	-0.166842375	-1.2040937446	-0.258705
C	 2.8641097804	-0.8615227662	-0.2328605451	 0.373825
N	 4.0171998121	-1.3432674239	-0.435335332	-0.521873
C	 2.1986235895	-0.9484807826	 1.0909575465	-0.079364
C	 1.9380557151	 0.3530965423	 1.8291547007	-0.282476
C	 0.7855829937	-0.4124527464	 1.246809485	-0.06088
H	 0.7767929461	 2.1403132307	-0.1751408946	 0.130162
H	-0.8358407169	 1.8894859863	-0.8498851361	 0.112453
H	-0.613325433	 1.9644270415	 0.9062421495	 0.118983
H	-0.9447843255	-0.3870760366	-0.0037350014	 0.081353
H	 0.6009477756	-1.4885744604	-1.3856328927	 0.105572
H	 0.4184120732	 0.1025179189	-2.1507437737	 0.112936
H	 4.2943374494	-1.1715182544	-1.4044807657	 0.217164
H	 2.5128707927	-1.7984602302	 1.6826999648	 0.111635
H	 2.0736588367	 0.3462014466	 2.9044800274	 0.119247
H	 2.2521733768	 1.2694868354	 1.3436335531	 0.128673
H	 0.1678611643	-0.941584191	 1.9650680904	 0.092824
