21
gdb 70439	3.01429	1.24365	1.14055	1.8013	82.18	-0.2397	0.0884	0.3281	1193.5524	0.182384	-387.041951	-387.033362	-387.032418	-387.075122	33.239	
C	-0.1517596418	 1.503054725	 0.1045738298	-0.499996
C	 0.0315760676	 0.0153407254	 0.0075871382	 0.354287
C	-0.7999160403	-0.9721734026	 0.7860094701	-0.334834
C	 0.6931854034	-0.9681260139	 0.977195188	-0.09797
C	 1.3679582821	-1.7134509916	-0.1805272315	-0.260479
C	 0.720799544	-0.6962637983	-1.1796118269	-0.081598
C	-0.1363854894	-1.2027048643	-2.3112834809	 0.073039
C	 0.1817260561	-2.4210615061	-3.0673619968	-0.186116
O	-0.8764334203	-2.4127950098	-2.1065328884	-0.228733
H	 0.7727278995	 2.038897224	-0.1427493355	 0.111631
H	-0.9331375018	 1.8595133111	-0.5784587997	 0.117853
H	-0.446857288	 1.7975340515	 1.117306597	 0.118188
H	-1.369206156	-0.5331559236	 1.599965181	 0.102841
H	-1.2887052054	-1.8070354726	 0.2936262873	 0.13385
H	 1.1476683492	-0.7638632672	 1.9396014255	 0.080517
H	 2.4581897349	-1.6518471204	-0.172622224	 0.097793
H	 1.0692253818	-2.7588047658	-0.3006274673	 0.109344
H	 1.4882203538	-0.0401588736	-1.608074179	 0.074371
H	-0.709003436	-0.4313778005	-2.8316440107	 0.089074
H	-0.1321048432	-2.5150290274	-4.1059553777	 0.113399
H	 1.0559463796	-3.0096135592	-2.7918444885	 0.113539
