23
gdb 122632	3.66708	0.69393	0.62447	2.3085	83.13	-0.2433	0.0627	0.306	1876.9032	0.204109	-425.410422	-425.39982	-425.398876	-425.447312	37.635	
C	 0.150752343	 1.5250932817	 0.0790940622	-0.379135
C	 0.1185326725	-0.0047162119	 0.0279382496	-0.165092
C	 0.6693447611	-0.5738644782	-1.2835781309	-0.16586
C	 0.636056546	-2.1049981856	-1.3399259547	-0.188615
C	 1.2361454796	-2.6416053916	-2.6287778504	 0.113341
O	 2.6497411529	-2.3311801766	-2.7650219032	-0.29208
C	 3.0184665938	-3.7228365419	-2.7173190057	-0.097589
C	 1.535876355	-4.1585295363	-2.7028741551	 0.041677
O	 1.0729169795	-4.8806375907	-1.5871786877	-0.421381
H	 1.1736116161	 1.9026605699	-0.0298517493	 0.114394
H	-0.4479048113	 1.9609897281	-0.7286950164	 0.111483
H	-0.2446649555	 1.9032667423	 1.0272046554	 0.108326
H	 0.6957333452	-0.4122613205	 0.8684370953	 0.094525
H	-0.9123042258	-0.3554317089	 0.1722076592	 0.09104
H	 0.0957055926	-0.1637730002	-2.1271545443	 0.085473
H	 1.7039987586	-0.2385440246	-1.4260901459	 0.113112
H	 1.1791082709	-2.5279235521	-0.4878845589	 0.105951
H	-0.3968058588	-2.4687986905	-1.261288834	 0.09811
H	 0.6814412554	-2.2532224566	-3.4942800538	 0.071341
H	 3.6164755469	-4.021391947	-3.5871754413	 0.095853
H	 3.5551483529	-3.9833550472	-1.7954613528	 0.099695
H	 1.205111697	-4.6203757724	-3.641304482	 0.076275
H	 1.2678898425	-5.8125741192	-1.7233640552	 0.289155
