15
gdb 34448	3.04852	1.81363	1.31523	6.1334	69.62	-0.2576	0.0136	0.2712	929.8006	0.114749	-416.741852	-416.73531	-416.734366	-416.772736	26.004	
N	-0.0369415323	-1.1245714405	 0.0623842508	-0.332432
C	-0.0162036169	 0.0296200836	 0.0427346156	 0.248093
C	 0.0084400209	 1.4772035426	 0.0194117947	 0.402988
O	-0.8521898162	 2.0488173646	 0.9699921969	-0.325256
C	-0.6607343709	 3.4680649166	 0.7626476816	-0.118031
C	 0.3589577126	 3.4560650386	-0.3618436918	-0.103419
C	 1.3511335947	 2.2748683868	-0.0878627319	-0.109499
N	 1.4251564908	 1.8976649028	-1.5417465886	-0.320806
C	-0.0135791104	 2.2781680057	-1.325420266	-0.109497
H	-1.615549929	 3.929702043	 0.4882821638	 0.122315
H	-0.2933702439	 3.9265065819	 1.6872734023	 0.122315
H	 0.7348444996	 4.3919803734	-0.7738559286	 0.092906
H	 2.2064623764	 2.2325753433	 0.5858817161	 0.104967
H	 1.896351421	 2.6434909596	-2.0593663158	 0.220388
H	-0.7676101223	 2.239766178	-2.1110857143	 0.104968
