18
gdb 89209	2.8118	1.3843	1.1603	4.119	73.69	-0.2204	-0.0268	0.1935	1116.1039	0.145462	-439.050882	-439.042153	-439.041209	-439.084259	32.791	
C	-0.0422348143	 1.6083136568	 0.2322966742	-0.325576
N	 0.033394638	 0.1672807632	 0.1498321655	-0.071371
C	-1.1968171068	-0.6043117132	 0.4104685677	-0.24737
C	-0.3999725805	-1.5930650476	 1.2947254338	 0.276842
O	-0.9810983583	-2.1382086248	 2.4255805414	-0.460753
C	 0.80426652	-0.5644753698	 1.1829712291	-0.086834
C	 1.7110888387	-1.6419447478	 0.5442161207	-0.340246
C	 0.4944338392	-2.5915320986	 0.5060257964	 0.376852
O	 0.306304301	-3.6957245458	 0.0934613132	-0.287361
H	 0.9559837866	 2.0392926924	 0.1043044219	 0.126104
H	-0.6773160123	 1.9911141159	-0.5735260179	 0.126408
H	-0.4540651234	 1.9767858267	 1.1920282199	 0.087766
H	-1.925417103	-0.0572517844	 1.0371767502	 0.079767
H	-1.7153618232	-0.9873457615	-0.4746791287	 0.12318
H	-1.5730243114	-1.4862353922	 2.8168830989	 0.285374
H	 1.18117701	 0.0222781843	 2.0235575805	 0.073493
H	 2.1821280279	-1.3968118304	-0.4092974645	 0.131547
H	 2.463112732	-2.0390308232	 1.2371425677	 0.132178
