19
gdb 39788	3.44039	1.43549	1.1812	1.7868	80.41	-0.2543	0.0977	0.352	1080.6127	0.159352	-385.789136	-385.781735	-385.780791	-385.820631	30.357	
C	-0.0505595455	 1.5245297588	 0.010884965	-0.373428
C	 1.3029753329	 0.811161458	-0.0062659666	-0.372974
C	 0.03186539	 0.0391454949	 0.0019697636	 0.474848
C	-0.543436005	-1.0271699728	 0.9602997889	-0.251605
C	-1.7920610262	-1.0609557123	 0.0138343796	-0.22878
C	-0.5622114491	-1.0167131413	-0.9564831334	-0.25161
C	 0.0791043203	-2.0480943465	-0.0098807569	 0.56688
C	 1.2486694862	-2.9073801807	-0.0260050396	-0.31625
O	-0.1032853326	-3.4404721734	-0.0156764493	-0.304362
H	-0.3424045418	 2.0279343887	 0.9273776096	 0.114195
H	-0.3602429978	 2.0378817228	-0.8941642563	 0.114195
H	 1.883109849	 0.8559096219	-0.922791559	 0.112943
H	 1.9009609766	 0.8459632704	 0.8991505631	 0.112943
H	-0.5242811294	-1.0296826485	 2.0501647443	 0.080394
H	-2.375187932	-1.9832282614	 0.0145145602	 0.11119
H	-2.4204251079	-0.1684398694	 0.0248573416	 0.096958
H	-0.5644088833	-1.0073312651	-2.0464766777	 0.080394
H	 1.7988968526	-3.0716781254	-0.9513564427	 0.117035
H	 1.8168851531	-3.0816775386	 0.8865576458	 0.117035
