19
gdb 55769	3.73871	1.04286	0.9378	3.6823	75.88	-0.2331	0.0341	0.2672	1285.0969	0.160385	-419.205936	-419.197281	-419.196337	-419.240105	32.73	
N	-0.0053931309	 0.2756912831	 1.0739349116	-0.505397
C	-0.0681149924	 0.2354903047	-0.2869872581	 0.368512
O	 0.6285625471	 0.9173756473	-1.0125218073	-0.361043
C	-1.1364662351	-0.7303639907	-0.8219234465	-0.397744
C	-0.9518045402	-2.1513438335	-0.3587583503	 0.347118
C	-0.0328306536	-3.2137645634	-0.989473609	-0.290563
C	-1.0705244616	-4.3121670284	-0.5763767948	-0.241676
C	-1.9406221762	-3.2122093426	 0.0450961035	-0.091152
N	-1.188347943	-2.466165476	 1.0545688667	-0.364374
H	 0.7015386469	 0.8487778925	 1.5037058864	 0.254465
H	-0.5300562027	-0.385726867	 1.6265749261	 0.270999
H	-2.1177629104	-0.3728997215	-0.4895398465	 0.124494
H	-1.1025627438	-0.6727429236	-1.911669982	 0.124713
H	 0.0542921022	-3.1150989018	-2.073825035	 0.117898
H	 0.9741404742	-3.2818856759	-0.5648950224	 0.102953
H	-1.5335201974	-4.7899399085	-1.4425398503	 0.114576
H	-0.7312254934	-5.0925240755	 0.1130294227	 0.101543
H	-3.0234241533	-3.1824013642	 0.0954254901	 0.098215
H	-0.4381472365	-3.020515075	 1.4652176151	 0.22646
