20
gdb 69495	3.10058	1.47547	1.23058	1.5253	77.89	-0.2459	0.0816	0.3275	1094.2962	0.170997	-403.131416	-403.123076	-403.122131	-403.163715	32.998	
C	-0.0402936701	 1.5351714218	 0.0662870557	-0.483928
C	-0.075271682	 0.0325676544	 0.1328018967	 0.42232
C	-1.3286964641	-0.7349291066	-0.2938183825	-0.314814
C	-1.2769623409	-2.0276089813	 0.5152097333	-0.053462
N	-1.3686201818	-1.9318557784	 1.9839373135	-0.378743
C	-0.0420717733	-2.0791587966	 1.3508407956	 0.33185
C	 0.7437835339	-3.3246472291	 1.664728357	-0.478719
C	 0.6822625118	-0.7835126796	 1.0965028481	-0.12644
O	 1.1321258718	-0.6449506877	-0.262143954	-0.298571
H	 0.918964965	 1.9159099458	 0.4252578213	 0.131585
H	-0.1770361924	 1.877845524	-0.9655053331	 0.130085
H	-0.841815494	 1.9727572157	 0.6710100639	 0.11997
H	-2.2403867069	-0.1604443499	-0.0867462461	 0.102187
H	-1.3059791266	-0.9347742204	-1.3708307747	 0.117269
H	-1.7132410235	-2.9291424573	 0.0962428321	 0.092845
H	-1.5303105958	-0.9663929952	 2.2673213633	 0.220813
H	 0.0765801115	-4.1851162772	 1.7564090714	 0.128898
H	 1.4750554349	-3.5257529997	 0.8751002692	 0.129888
H	 1.2859761501	-3.2186783672	 2.6114296475	 0.117552
H	 1.3410769923	-0.3546764256	 1.8505505619	 0.089414
