19
gdb 84597	2.34745	1.98623	1.35907	2.062	75.36	-0.2462	-0.0005	0.2457	981.7742	0.160962	-423.02218	-423.014655	-423.013711	-423.053476	31.632	
O	 0.0389742632	 1.3709819484	-0.1999391114	-0.453744
C	 0.0232986004	-0.0545491279	-0.0430760321	 0.039206
C	 0.7733294338	-0.5303838053	 1.1765234162	-0.125084
C	 0.1411096571	-1.3186643121	 2.0487398197	-0.055671
C	-1.3011766918	-1.6792130216	 1.7726364642	-0.074856
C	-2.0566938639	-0.3668121035	 1.3926680572	-0.286503
C	-1.4312862388	-0.5675327555	-0.0224814687	 0.413558
O	-2.1275596135	-0.1257284601	-1.1501995032	-0.501063
C	-1.438914071	-2.0855599679	 0.2683142331	-0.268736
H	-0.2084464284	 1.7556993239	 0.649179649	 0.281767
H	 0.4976959308	-0.4232377022	-0.9620937933	 0.09953
H	 1.8058996195	-0.2171904717	 1.2964566713	 0.097844
H	 0.632008778	-1.7003841546	 2.9389393135	 0.09563
H	-1.7378222203	-2.3318069119	 2.5276928924	 0.068732
H	-3.1383488577	-0.5126379414	 1.3421050544	 0.10636
H	-1.8249860866	 0.5362080078	 1.9652729995	 0.076743
H	-1.7967047834	 0.7642946014	-1.3347996674	 0.28063
H	-0.6494400831	-2.7025427034	-0.1681222134	 0.097568
H	-2.4199825643	-2.5128009524	 0.0446435792	 0.108087
