16
gdb 29381	5.48503	0.8781	0.78447	2.5121	77.27	-0.1862	0.0261	0.2123	1395.1712	0.125878	-396.974609	-396.965934	-396.96499	-397.008717	31.79	
N	-0.2539455699	 1.4119477443	 0.5329995522	-0.605421
C	-0.0383496797	 0.0753488488	 0.1481412682	 0.26734
C	-0.965926448	-0.8096912985	-0.359787738	-0.164274
N	-0.3447440638	-2.0359712623	-0.4959496421	-0.305903
C	 0.9619850402	-1.9369319128	-0.1120169714	 0.3509
C	 1.8890613065	-3.1195269797	-0.1087668762	-0.450428
C	 1.6391539467	-4.0346167796	-1.2255747941	 0.258789
N	 1.3932551303	-4.7544413557	-2.0956194408	-0.314177
C	 1.1850893431	-0.6411878145	 0.3016527417	-0.31976
H	 0.5531838901	 1.9959879795	 0.35351333	 0.240722
H	-1.0572384373	 1.8217899053	 0.0734092357	 0.238831
H	-1.9990407148	-0.6728201242	-0.6338562367	 0.109931
H	-0.7535803074	-2.8466004536	-0.9289018601	 0.270988
H	 2.9249951586	-2.7698861633	-0.1632304984	 0.168394
H	 1.8080064981	-3.7018533118	 0.8204176361	 0.164993
H	 2.1139488472	-0.250560012	 0.690306454	 0.089075
