23
gdb 89982	2.66565	1.26547	1.13968	1.3909	85.03	-0.2441	0.0651	0.3092	1231.5604	0.205771	-388.272737	-388.263434	-388.26249	-388.306512	36.208	
C	-0.3775535586	 1.427958531	 0.040253255	-0.416919
C	-0.0848673316	-0.0699152384	-0.004300026	-0.020412
C	 1.1273423746	-0.472856458	-0.8969114201	-0.312527
C	 2.0169902415	-0.5937272172	 0.3722787024	 0.348209
C	 3.140409135	-1.6537511661	 0.4728138575	-0.296859
C	 4.1910005406	-0.5300463073	 0.2664448188	-0.211548
C	 3.0902072285	 0.5096843481	 0.6081608331	-0.288872
C	 0.7184356972	-0.6163464676	 1.2192042159	 0.064767
O	 0.6769505066	 0.0522938914	 2.4560190392	-0.429929
H	 0.5308978528	 2.0241998623	 0.1891610631	 0.110677
H	-0.8265781647	 1.7622095892	-0.9006297917	 0.118435
H	-1.0749335161	 1.6689370519	 0.8494867393	 0.123478
H	-1.0137722169	-0.6102490206	-0.2101009683	 0.066116
H	 0.9818101531	-1.4366357654	-1.3939669978	 0.096872
H	 1.4405579713	 0.2595126556	-1.6474149515	 0.094595
H	 3.1922122111	-2.0857961761	 1.4778015993	 0.104626
H	 3.1196027283	-2.4694689538	-0.2557149314	 0.09202
H	 5.0794350731	-0.5452099027	 0.9019954909	 0.09684
H	 4.5133666138	-0.4563416386	-0.7757066666	 0.102656
H	 3.0357387882	 1.4111433991	-0.0090259646	 0.0937
H	 3.1294066725	 0.8048972277	 1.6623012491	 0.09815
H	 0.4297259952	-1.6496967214	 1.4401249489	 0.083802
H	 0.9128185845	 0.973637547	 2.3062101755	 0.282124
