21
gdb 101129	2.93469	1.11665	1.00722	2.7945	78.97	-0.2277	0.074	0.3017	1300.4045	0.180484	-424.168718	-424.159167	-424.158223	-424.203582	35.047	
C	 0.1226770011	 1.3685785127	 0.2112423577	-0.231243
O	-0.0431999479	-0.013825562	 0.0017948003	-0.249037
C	 0.5736389512	-0.522741283	-1.1761103077	-0.000046
C	 2.1021942879	-0.5802314634	-1.049517169	-0.405713
C	-0.0115420381	-1.8831036639	-1.4203294207	 0.314066
C	-0.1825319036	-2.5049499432	-2.7935504593	-0.364973
C	-1.3710961982	-2.3349129044	-1.8963999888	 0.045073
O	-1.4473663078	-3.3955809949	-0.9445871874	-0.288148
C	-0.1770822264	-2.9801190109	-0.3670850287	-0.133657
H	 1.161494144	 1.6446845059	 0.4434419526	 0.107084
H	-0.2007228769	 1.9533003086	-0.6648201012	 0.101796
H	-0.5044146724	 1.6406302249	 1.0640798946	 0.12889
H	 0.3117385867	 0.1276875252	-2.0290297542	 0.060585
H	 2.3885319255	-1.1996719799	-0.1937041207	 0.125162
H	 2.5384438498	-1.0147575862	-1.9538266847	 0.122969
H	 2.5353798129	 0.4143905449	-0.9129982895	 0.115421
H	-0.1162581979	-1.8021060192	-3.6195078214	 0.111811
H	 0.192048277	-3.5030050989	-3.0057790548	 0.112794
H	-2.2811954357	-1.7996925098	-2.141859	 0.105463
H	 0.557836301	-3.793830721	-0.3498172943	 0.098519
H	-0.326597632	-2.5787891516	 0.6394746673	 0.123184
