20
gdb 94548	2.50125	1.4691	1.26488	2.0388	74.49	-0.2441	0.0684	0.3125	1102.5578	0.171226	-440.238933	-440.230182	-440.229238	-440.27251	33.366	
C	 0.2039831105	 1.2075731059	-0.9806322377	-0.478768
C	-0.0480361311	 0.0551725714	-0.0331375939	 0.303279
C	 1.0372562291	-0.9008823984	 0.300765094	-0.276679
N	 0.5973232305	 0.0926077522	 1.3040102384	-0.371392
C	-1.4816302276	-0.4439895966	-0.012688783	 0.045907
O	-1.6411247684	-1.7400013092	 0.5980405217	-0.293249
C	-2.5355868683	-1.2303369624	 1.6116758644	-0.103712
C	-2.4440057834	 0.2035977022	 1.0404014038	 0.075486
O	-1.9312112042	 1.2056530518	 1.8661616309	-0.43503
H	 1.2560483183	 1.510182974	-0.9611299289	 0.114143
H	-0.0477115709	 0.936102787	-2.0114350541	 0.127978
H	-0.4062607895	 2.0734231022	-0.7006163986	 0.141143
H	 0.7768611743	-1.9250594399	 0.5405840844	 0.144326
H	 2.0080567647	-0.7538814091	-0.1645039705	 0.110719
H	 1.2625560301	 0.8620101781	 1.331871963	 0.232833
H	-1.8709123929	-0.4494844867	-1.040391953	 0.067587
H	-3.519046946	-1.7135562149	 1.5681448517	 0.099315
H	-2.1189588306	-1.3347192403	 2.6206399738	 0.107151
H	-3.3774303281	 0.5838104196	 0.6195887936	 0.093613
H	-1.0608183566	 0.888556333	 2.1576981999	 0.295348
