17
gdb 39859	3.1661	1.88438	1.5316	1.4262	70.64	-0.2277	0.0521	0.2798	885.6211	0.139232	-417.909069	-417.902831	-417.901887	-417.939477	26.241	
C	 0.0075810002	 1.4583266965	-0.0218600084	-0.323115
N	 1.2238768958	 0.6046307427	 0.0489243632	-0.391913
C	-0.1042821606	-0.0059931225	-0.0008793216	 0.437446
C	-0.5583352616	-0.941815263	 1.1226991891	-0.158603
N	 0.2489752727	-2.1712880793	 0.8765259384	-0.308333
C	-0.528025172	-2.2996973665	-0.3617218536	-0.062552
C	-1.7446023439	-1.6456741073	 0.3074640132	 0.116031
O	-2.0765520308	-0.8462180215	-0.8313550639	-0.28817
C	-0.6475245963	-0.8826283409	-1.1193122504	-0.063124
H	-0.1905115242	 2.0324496016	 0.8789459873	 0.124493
H	-0.2094622377	 1.9820810836	-0.9492564613	 0.118953
H	 1.6634534384	 0.5682095783	-0.8687496486	 0.231101
H	-0.6340817159	-0.5696645062	 2.1423996598	 0.079497
H	 1.2415808995	-1.9683220036	 0.7556403861	 0.223017
H	-0.5147495815	-3.2244883701	-0.9359308971	 0.088114
H	-2.5726986991	-2.1304264438	 0.8182830762	 0.099041
H	-0.3904254731	-0.6901452379	-2.1605163583	 0.078117
