16
gdb 61097	2.41961	1.23295	1.03104	3.7753	80.62	-0.2775	0.0048	0.2823	1208.1935	0.120282	-363.554175	-363.544286	-363.543342	-363.588718	35.913	
C	-0.0487217549	 1.5702474602	-0.0557487665	-0.405816
C	-0.0082808024	 0.0210172509	-0.0353992094	-0.132572
C	 0.7776640687	-0.5015402997	 1.2213915201	-0.370996
C	 2.1511293722	-0.0274710769	 1.2901605428	 0.311038
C	 3.2842176194	 0.3686199406	 1.339547949	-0.431841
C	-1.3701422267	-0.522747437	 0.0103034015	 0.337321
C	-2.487640366	-0.9540201032	 0.0897179829	-0.436839
C	 0.6609847156	-0.4621315795	-1.2605544427	 0.305156
N	 1.1882922305	-0.8294725903	-2.2201910576	-0.337063
H	 0.9678221497	 1.9676084831	-0.0711756051	 0.153535
H	-0.5888261269	 1.9243442564	-0.9353654844	 0.147443
H	-0.5626056011	 1.9278686938	 0.8399995998	 0.134728
H	 0.215253251	-0.1786250295	 2.1044769061	 0.149411
H	 0.7535245229	-1.5958480696	 1.2123206067	 0.159302
H	 4.2904050372	 0.7062282089	 1.3826534905	 0.207087
H	-3.476125649	-1.3401913582	 0.1415782962	 0.210105
