18
gdb 85778	2.89638	1.21147	0.96819	2.6699	75.48	-0.2448	-0.02	0.2249	1256.7575	0.145755	-439.132513	-439.122863	-439.121919	-439.167781	33.361	
C	 0.1903101306	 1.4335851659	-0.0809303501	-0.34577
N	 0.0444085605	 0.0012370002	-0.066597787	-0.068757
C	-1.1339717013	-0.8757768269	-0.1321512022	-0.197702
C	-0.1633606006	-2.0801142739	-0.0940226473	-0.262566
C	-0.0801485659	-2.9538225144	-1.3344540742	 0.37681
C	 1.0112905067	-4.0004478269	-1.2960950369	-0.486612
O	-0.8045752653	-2.7813429233	-2.2877755594	-0.2978
C	 0.9692574648	-1.0008503548	-0.0323711189	 0.408478
O	 2.1725834057	-1.0177558869	 0.0064617452	-0.37518
H	 1.2583194911	 1.6605464561	-0.0465397026	 0.163644
H	-0.2356413602	 1.8680175804	-0.9931571003	 0.136347
H	-0.2981049845	 1.8951544056	 0.7856877546	 0.131574
H	-1.8025093994	-0.7827584892	 0.7299467498	 0.110138
H	-1.6973379911	-0.7979899845	-1.0654173456	 0.139894
H	-0.1935185827	-2.6879807815	 0.8139522336	 0.115916
H	 0.7995666989	-4.7374674685	-0.5126331201	 0.138036
H	 1.0853982892	-4.5032470199	-2.2608137196	 0.140829
H	 1.9619412934	-3.5209399877	-1.0347865392	 0.172721
