17
gdb 32701	6.07529	0.81966	0.73405	2.671	74.56	-0.2113	0.0211	0.2324	1540.3529	0.13505	-455.155461	-455.146327	-455.145383	-455.190579	32.499	
C	-0.1359112199	 1.645257998	 0.0567176886	-0.368026
C	 0.3982570656	 0.2157640386	 0.0822819325	-0.120611
N	 1.3501859604	 0.0140660986	-1.0046591652	-0.377055
C	 2.0946510507	-0.9898593469	-0.9713667389	 0.531313
O	 2.1381451523	-1.9762723985	-0.0043892053	-0.230548
C	 3.1218524507	-2.865604228	-0.3903215052	-0.065457
C	 3.6620207775	-2.4669728661	-1.5374814824	 0.256649
N	 4.6669923732	-3.0092052302	-2.323105944	-0.602236
O	 3.0245796804	-1.2794342167	-1.9275044221	-0.243904
H	 0.6784583701	 2.3639255531	 0.1890385897	 0.118101
H	-0.6166805115	 1.8576080892	-0.9025852944	 0.121762
H	-0.8677716389	 1.8002469982	 0.8560759601	 0.102858
H	 0.8565065363	 0.0030522394	 1.0591563567	 0.100051
H	-0.4380794841	-0.4909185614	-0.0229650108	 0.101689
H	 3.3110019574	-3.7126739263	 0.2441167076	 0.161055
H	 5.4522029766	-2.3731554325	-2.4278640304	 0.257184
H	 4.3349431032	-3.2486055785	-3.2529054164	 0.257175
