24
gdb 60346	3.30798	0.64545	0.60601	4.1625	90.61	-0.3091	0.0394	0.3485	1953.1026	0.215575	-368.448531	-368.437234	-368.43629	-368.485765	40.545	
C	-0.1333471091	 1.5566475967	-0.1973345548	-0.383003
C	-0.0008139688	 0.0341607084	-0.0488960067	 0.03601
C	 0.6821391177	-0.5709459304	-1.2828254188	-0.389992
C	 0.7548579127	-0.3689948777	 1.2320033762	-0.183212
C	 0.0475963571	 0.0257491087	 2.5341239684	-0.191059
C	 0.719312078	-0.5590187209	 3.8015139897	-0.143637
C	 2.1393481569	-0.0155979392	 4.0561484999	-0.389166
C	-0.1303004663	-0.3092970698	 4.9719097177	 0.264362
N	-0.8022529398	-0.1003650046	 5.8890737279	-0.32555
H	 0.8544951955	 2.0321568933	-0.2344871223	 0.111454
H	-0.6576479175	 1.8128048333	-1.1236248432	 0.114361
H	-0.6903245914	 2.0068805886	 0.6294195724	 0.117379
H	-1.0137396415	-0.3892736591	 0.016669491	 0.075122
H	 1.7017079479	-0.1830973313	-1.3966705781	 0.112321
H	 0.7475513594	-1.6617181708	-1.2102443622	 0.110281
H	 0.1324220182	-0.3277101581	-2.1977910065	 0.112887
H	 0.8963869196	-1.4587338855	 1.2247962606	 0.091734
H	 1.7605678611	 0.070152521	 1.1979925661	 0.098803
H	 0.0037217873	 1.1153332003	 2.6388852431	 0.117522
H	-0.9906560129	-0.3248059626	 2.5017820453	 0.11611
H	 0.7800586848	-1.649514911	 3.6847375388	 0.124604
H	 2.1240983665	 1.0743144947	 4.1492791993	 0.13562
H	 2.5557604589	-0.4302761078	 4.9773351626	 0.137602
H	 2.8020584756	-0.2838566163	 3.2304843335	 0.129447
