21
gdb 92718	1.87032	1.69009	0.99606	2.7032	85.19	-0.2316	-0.0253	0.2062	1253.4746	0.181214	-387.124322	-387.114698	-387.113754	-387.159267	35.3	
C	-0.1298114155	 1.5556215979	-0.0311732225	-0.418279
C	 0.098080866	 0.0432361411	-0.0050662477	 0.015116
C	 0.9121665411	-0.5265580405	-1.1973856807	-0.266624
C	 1.5642056998	-1.749912285	-0.6041833941	-0.164803
C	 1.491698301	-1.7839665955	 0.7292915077	 0.302503
C	 2.0315301234	-2.8275711582	 1.6556831927	-0.494907
C	 0.8097279694	-0.5261520823	 1.262426521	-0.178802
C	 1.8896116957	 0.3857337078	 1.8209025692	 0.162537
O	 2.0041913713	 0.689499254	 2.9809599676	-0.257924
H	 0.8124024412	 2.1137269602	-0.0467167644	 0.119485
H	-0.694031663	 1.8436610978	-0.9242079651	 0.117427
H	-0.6993459771	 1.8881051034	 0.8428400944	 0.124201
H	-0.8817194245	-0.4483722478	-0.0270750949	 0.088614
H	 0.2737918574	-0.753673623	-2.0593409933	 0.103999
H	 1.6628294482	 0.1924887516	-1.5573902915	 0.105189
H	 2.0451680863	-2.5123658248	-1.2087758996	 0.091085
H	 2.5427960377	-3.6238126654	 1.1081071196	 0.124748
H	 2.7378328762	-2.3967402179	 2.3760310334	 0.138347
H	 1.2272037784	-3.2817057957	 2.2481348118	 0.130509
H	 0.1112126577	-0.7290411294	 2.081210514	 0.082992
H	 2.6282465591	 0.7351542819	 1.0623867826	 0.074588
