19
gdb 83833	2.22706	1.91756	1.28289	4.4688	75.61	-0.2387	0.0498	0.2885	1036.4525	0.161731	-419.234725	-419.226562	-419.225618	-419.267336	31.395	
C	-0.2113849314	 1.5172584322	 0.153059165	-0.412218
C	-0.0285974762	 0.0358357235	-0.067491381	-0.00901
C	 0.7025454586	-0.5674001097	-1.2356146601	-0.035506
C	 1.491269215	 0.2176117004	-2.2656525442	-0.247837
C	 2.9842252516	-0.0666823403	-2.0230294107	-0.145778
N	 3.3130214574	 0.2339715593	-0.6361792516	-0.318323
C	 2.4145075551	 0.1671024546	 0.4019047391	 0.39876
O	 2.6115591585	 0.6750445197	 1.4877472659	-0.397183
N	 1.272488113	-0.6072766101	 0.115703789	-0.132132
H	 0.5699723482	 2.114879507	-0.3215876064	 0.127243
H	-1.1807796786	 1.8384421205	-0.2411793961	 0.118149
H	-0.18040042	 1.7394681114	 1.2234736718	 0.153382
H	-0.8442851062	-0.565440478	 0.332146473	 0.098893
H	 0.3588692757	-1.5428173594	-1.5771811698	 0.096861
H	 1.204999545	-0.0869847274	-3.2762247308	 0.110328
H	 1.3156139346	 1.2940143962	-2.1832644788	 0.11516
H	 3.2039480666	-1.1166935246	-2.2632066366	 0.115259
H	 3.6119006895	 0.5506373398	-2.6729249072	 0.112267
H	 4.1463097037	 0.7582306748	-0.4248324306	 0.251684
