18
gdb 108281	2.73337	1.41632	1.09045	5.1699	71.61	-0.2374	0.0033	0.2407	1144.8002	0.147597	-439.08271	-439.074355	-439.073411	-439.115864	31.306	
C	-0.0256430456	 1.5794775701	 0.0134592064	-0.385826
C	 0.0498780944	 0.0531144186	 0.1499413485	-0.278349
C	-1.2991046141	-0.6038428469	 0.0312347083	 0.458027
C	-2.3871754911	-0.4626329206	 1.1221311118	-0.226074
N	-2.7793919705	-1.8910436689	 0.9331530984	-0.317806
C	-1.641087988	-2.1142928677	-0.0011774847	-0.28982
C	-2.1033118519	-1.8204359867	-1.4356060683	 0.484488
O	-2.5313704439	-2.4010611284	-2.377690796	-0.323974
O	-1.870170123	-0.4628447268	-1.3198215485	-0.295895
H	 0.9700572644	 2.0253775472	 0.0857074921	 0.120461
H	-0.4569036234	 1.8584039607	-0.9517231721	 0.145298
H	-0.6466813749	 2.0201499971	 0.8006502971	 0.121341
H	 0.708491129	-0.3602528809	-0.6227479187	 0.114156
H	 0.4850037452	-0.2210309369	 1.1186621331	 0.105202
H	-1.9583399152	-0.2432680013	 2.1070449916	 0.106854
H	-3.1883737824	 0.2503013245	 0.9088549078	 0.126089
H	-2.7051849908	-2.443807205	 1.7778252133	 0.233268
H	-0.9649737981	-2.9482888482	 0.1855821796	 0.102561
