22
gdb 107422	2.92246	1.37327	1.15744	1.4904	84.73	-0.2175	0.0794	0.2969	1176.3201	0.195764	-367.181042	-367.172763	-367.171819	-367.213642	33.24	
C	 0.178909429	 1.5051897236	-0.1979459299	-0.375063
C	-0.1302059282	 0.0342647787	 0.1088767729	-0.288105
C	 0.6424308543	-0.5054951277	 1.2950283107	 0.392205
C	 2.0652797524	-0.9825991618	 1.1079837731	-0.348033
C	 0.9854306751	-1.9744235623	 1.4659280344	-0.106219
C	 0.7478405478	-2.3349830889	 2.9328206753	-0.188149
N	 0.2102624779	-1.1450939966	 3.6386099353	-0.098449
C	 1.1536602083	-0.0346849756	 3.8265751129	-0.258156
C	 0.2180967938	-0.0242402312	 2.6727893501	-0.090514
H	 1.2427508923	 1.6446331101	-0.4162952523	 0.117984
H	-0.3932440217	 1.8570424162	-1.0619914498	 0.11107
H	-0.0705603961	 2.1506739582	 0.650973059	 0.119769
H	-1.2064455373	-0.0850044538	 0.2926254275	 0.09936
H	 0.0991963161	-0.5775110536	-0.7719292654	 0.093889
H	 2.433311601	-1.0115125184	 0.0861942564	 0.107185
H	 2.8323833603	-0.733796696	 1.8320537386	 0.110244
H	 0.6946470268	-2.701554678	 0.7137876029	 0.084454
H	-0.0072481762	-3.125509791	 2.9971738716	 0.109559
H	 1.6465550861	-2.7032509755	 3.4414289368	 0.104194
H	 0.949826478	 0.5851641187	 4.6968994185	 0.110173
H	 2.2118638044	-0.2023789999	 3.6489955497	 0.10817
H	-0.6480574642	 0.633450465	 2.6954838816	 0.084436
