21
gdb 112759	2.16724	1.25187	0.92146	2.0019	84.32	-0.2075	0.0285	0.236	1372.7621	0.181014	-420.393142	-420.382593	-420.381649	-420.430048	36.927	
C	 0.2260329289	 1.3708243861	-0.1706105159	-0.383717
C	-0.0106442849	-0.1415462389	-0.0701609084	-0.152483
N	-1.4004431447	-0.5084934697	 0.0613583056	-0.080184
C	-2.3548837516	-0.3033743175	 1.150157289	-0.216081
C	-3.4708554734	-0.7781039708	 0.1574799224	 0.023552
O	-4.608396512	 0.0192780851	-0.0260891421	-0.42052
C	-2.350232859	-0.7441073272	-0.9129318546	 0.347029
N	-2.2129848473	-0.8187232728	-2.1675022505	-0.347362
C	-3.3805497107	-1.13627679	-2.9729329489	-0.33765
H	 1.295297521	 1.5843350577	-0.2678440808	 0.118293
H	-0.2865269272	 1.7809274086	-1.0454724388	 0.134501
H	-0.1390981016	 1.8919211982	 0.7205810139	 0.115176
H	 0.3568132031	-0.6372859202	-0.9739357073	 0.137284
H	 0.5447817186	-0.5553511957	 0.7810356426	 0.104293
H	-2.178376204	-0.9203796271	 2.0387045125	 0.105901
H	-2.491461477	 0.743036094	 1.4567638083	 0.098058
H	-3.8307416524	-1.7851195158	 0.3807302872	 0.115917
H	-4.3304140653	 0.8632735484	-0.3987665915	 0.289057
H	-4.3206300311	-1.1915457304	-2.4071967912	 0.116605
H	-3.5015102107	-0.381568177	-3.7598551594	 0.114704
H	-3.2289693787	-2.095736675	-3.4837267219	 0.117628
