21
gdb 65099	2.93315	1.40511	1.14763	1.5579	82.32	-0.2432	0.0865	0.3297	1152.0399	0.182082	-387.046312	-387.037753	-387.036809	-387.079377	33.648	
C	-0.0028269019	 1.5611439155	-0.1593948841	-0.48532
C	-0.0206547438	 0.0526469717	-0.0375617742	 0.289442
C	 1.1610610147	-0.7130084621	-0.4709124246	-0.229821
O	 0.9259867078	-0.4735351184	 0.9179745607	-0.278886
C	-1.3492246608	-0.6254740315	-0.0101360622	 0.365214
C	-2.5747549909	-0.1225547608	-0.7272292707	-0.339298
C	-2.6282161101	-0.2651588999	 0.7682187274	-0.100793
C	-2.8308934675	-1.7327003333	 1.1534039906	-0.224334
C	-1.5432446048	-2.1077263089	 0.3491449793	-0.306364
H	 1.0170176084	 1.9295364045	-0.0277372869	 0.129566
H	-0.3662275175	 1.8871106552	-1.1387471435	 0.124646
H	-0.6318044173	 2.0226602346	 0.6092248389	 0.126939
H	 1.048209027	-1.748038682	-0.7913418854	 0.109308
H	 2.0154431107	-0.1894393624	-0.8998170455	 0.107566
H	-2.5284896675	 0.8974102696	-1.0933102552	 0.110918
H	-3.1422524065	-0.7961656234	-1.367158874	 0.101566
H	-2.8151318402	 0.5891180365	 1.4084551376	 0.086678
H	-2.7143722923	-1.9173204819	 2.2231895414	 0.107275
H	-3.7704783747	-2.1864278903	 0.8205503855	 0.094314
H	-1.6697814018	-2.7931258903	-0.4956323457	 0.088064
H	-0.7459356008	-2.4758452724	 0.9963372907	 0.123322
