23
gdb 112044	2.34399	1.40125	1.02387	0.1094	90.85	-0.2336	0.027	0.2606	1283.8165	0.206448	-351.159145	-351.150154	-351.149209	-351.192874	35.242	
C	 0.0068609564	 1.6158494834	 0.0154414994	-0.388003
C	 0.0041671304	 0.0860872541	 0.0928727497	-0.164451
C	-1.4081138138	-0.5385017511	 0.0406595521	-0.121263
C	-2.1019791049	-0.2868897961	-1.282909746	-0.063856
C	-2.2138658017	-1.3902058212	-2.0206720465	-0.07053
C	-1.6483099468	-2.6012449899	-1.320221805	-0.334663
C	-1.4204468948	-2.0816837978	 0.1066518432	 0.371224
C	-0.6132133855	-2.8657899556	 1.1047490202	-0.321657
C	-2.1130555117	-2.7767739078	 1.2531970905	-0.309955
H	 1.0224975324	 2.0125842078	 0.1106450881	 0.110946
H	-0.3982099594	 1.9740044491	-0.9363279529	 0.116805
H	-0.5966948424	 2.0544299656	 0.8186835951	 0.111264
H	 0.6072836527	-0.3276284477	-0.7249445648	 0.095628
H	 0.4923745982	-0.2255446285	 1.0241138622	 0.090945
H	-1.9855611305	-0.1149493228	 0.8752700336	 0.06754
H	-2.4259398445	 0.7011539825	-1.5904173941	 0.090391
H	-2.6373405999	-1.4367138008	-3.018181218	 0.088719
H	-2.3260321294	-3.4637242063	-1.34450378	 0.100443
H	-0.7144305614	-2.9318655588	-1.7990619934	 0.103696
H	-0.1839767113	-3.8095965411	 0.7828514951	 0.106478
H	 0.0006283741	-2.3261055262	 1.8183859083	 0.108343
H	-2.5067298112	-2.1656308383	 2.0596762897	 0.106638
H	-2.705260775	-3.6601210926	 1.0350537435	 0.10532
