22
gdb 122087	3.17325	0.73802	0.63303	4.363	84.29	-0.2664	0.0373	0.3038	1854.1863	0.191914	-404.367195	-404.356062	-404.355118	-404.404673	38.329	
C	-0.0953841054	 1.5205868849	 0.0322675066	-0.386295
C	-0.0304508948	 0.0041298668	 0.0783636385	-0.03325
O	-1.3478373039	-0.504667674	-0.0314047204	-0.242464
C	-1.4152047408	-1.905256274	 0.0096487955	-0.061293
C	-2.8943191103	-2.3185671714	 0.0034737994	-0.152409
C	-3.0636537561	-3.8495689636	-0.1210131791	-0.186198
C	-4.5221031974	-4.2983695006	-0.2299085576	-0.397458
C	-3.5686915184	-1.8105470792	 1.2035237197	 0.293328
N	-4.1072117568	-1.4476357812	 2.159598965	-0.336008
H	 0.9083934641	 1.9464845468	 0.1202724292	 0.116943
H	-0.5348428704	 1.8579095874	-0.9106280357	 0.127626
H	-0.7094378912	 1.90123842	 0.8529075564	 0.136701
H	 0.5941786812	-0.3846725285	-0.7435899022	 0.086886
H	 0.4263619116	-0.3375972237	 1.0217158548	 0.093644
H	-0.9183467443	-2.3533367285	-0.8673733286	 0.092476
H	-0.9183749999	-2.3018165809	 0.9102975667	 0.101925
H	-3.3630574276	-1.833993848	-0.8625210445	 0.132804
H	-2.5065191757	-4.1704596708	-1.0087203856	 0.107003
H	-2.5873682112	-4.3299401152	 0.7415112561	 0.117714
H	-5.0067689648	-3.8597744371	-1.1088225212	 0.119998
H	-4.5845264924	-5.3863351857	-0.3218971515	 0.120855
H	-5.0947537154	-4.0003124437	 0.6531310585	 0.14747
