16
gdb 17912	3.37648	2.33914	2.21279	1.4585	67.83	-0.2322	-0.0085	0.2237	718.4626	0.133054	-346.59144	-346.585586	-346.584642	-346.620841	25.253	
O	 0.1559158602	 1.3433967998	-0.1385152799	-0.440668
C	 0.0149926775	-0.032452021	 0.0119617993	 0.180224
C	 0.3212936032	-0.6452071082	 1.4365579976	-0.146067
C	-0.8601353907	-0.0323084044	 2.2031246127	-0.0961
C	-1.9099701798	-0.0153830937	 1.3763576686	-0.09608
C	-1.4537441962	-0.616293583	 0.0385026769	-0.146073
C	-1.0753026743	-2.0808621991	 0.2745513253	-0.077508
C	-0.0263362833	-2.0979593727	 1.1009857312	-0.07751
H	-0.3808706843	 1.7569748071	 0.5515725903	 0.272641
H	 0.6226424521	-0.4936597773	-0.7690767659	 0.092507
H	 1.3121027558	-0.4650254852	 1.8523398634	 0.06452
H	-0.8249727215	 0.2714725544	 3.2408917375	 0.102259
H	-2.9208347558	 0.3053093586	 1.5903429877	 0.102265
H	-2.0862367166	-0.409618635	-0.8242151612	 0.06452
H	-1.5896388432	-2.922197858	-0.1697446262	 0.100534
H	 0.508910627	-2.9564108122	 1.4835527629	 0.100537
