12
gdb 130013	5.49667	1.35435	1.08725	4.1742	63.58	-0.2278	-0.0191	0.2087	994.0906	0.080173	-468.798427	-468.792116	-468.791172	-468.828948	24.771	
N	 0.0766898662	 1.311743293	 0.1347783721	-0.586558
C	-0.0733224217	-0.0301650833	 0.0487482051	 0.447965
N	-1.1759945547	-0.7117871242	 0.0280177691	-0.421616
C	-0.717232808	-2.0301057127	 0.0044067568	 0.1457
C	-1.008200183	-3.3541995062	-0.0267022032	-0.055935
O	 0.1633264829	-4.0548446384	-0.044947948	-0.185008
N	 1.276317424	-3.1857902643	-0.0260309275	-0.269292
C	 0.6929482661	-2.0267725867	 0.0034205391	 0.439394
O	 1.130218979	-0.7374284822	 0.0326413884	-0.23862
H	 0.9549630229	 1.6958115754	-0.1745121931	 0.28095
H	-0.7482843562	 1.8535601898	-0.0665093173	 0.28521
H	-1.9030888275	-3.9534091202	-0.0389645616	 0.157809
