19
gdb 3015	5.05888	1.55971	1.30606	1.5094	67.62	-0.2587	0.0769	0.3356	974.2407	0.170534	-310.908741	-310.900329	-310.899385	-310.941423	30.648	
C	-0.0640099139	 1.5396242375	-0.0068598539	-0.382155
C	-0.0599606069	 0.0130623668	-0.1096312936	-0.17976
C	 0.8318339801	-0.5150287679	-1.2422727605	 0.124737
O	 2.1800916349	-0.0641521833	-1.0970113347	-0.43311
C	 0.7542274914	-2.0215730966	-1.3718511185	 0.009458
C	-0.2715022087	-2.6577750903	-2.2781495459	-0.266218
C	 1.1902849335	-2.6909886422	-2.6470680566	-0.271333
H	 0.9546602158	 1.9180883366	 0.1101236048	 0.127845
H	-0.4840291544	 1.9930696391	-0.9117419122	 0.111905
H	-0.6612499092	 1.8799547335	 0.8444608329	 0.106469
H	 0.2878343962	-0.4250681258	 0.8377520035	 0.081241
H	-1.0786019678	-0.3638759525	-0.2630041492	 0.099018
H	 0.5021603535	-0.0676730108	-2.1899418814	 0.076849
H	 2.5501024133	-0.5037318313	-0.3233975187	 0.273563
H	 0.9680313182	-2.5562402092	-0.4470577739	 0.071308
H	-0.746557359	-3.5770388044	-1.954087077	 0.110425
H	-0.9231565844	-1.9998882059	-2.8445567999	 0.111394
H	 1.5277031081	-2.0501910873	-3.4548071464	 0.119037
H	 1.7174225593	-3.6362781259	-2.5812977489	 0.109326
