20
gdb 59582	3.0779	1.22633	1.05176	3.5497	74.82	-0.2287	0.0628	0.2915	1211.2768	0.170712	-440.228852	-440.220056	-440.219112	-440.262448	33.443	
C	 0.0562395363	 1.370152661	-0.3135148402	-0.416159
C	 0.0026649438	-0.1196171853	 0.0133345295	 0.144478
O	 0.7075854699	-0.4359237212	 1.2122830843	-0.434538
C	-1.4290431423	-0.6386512886	 0.1086440141	-0.00967
N	-2.2598626478	-0.478842763	-1.1261740386	-0.340356
C	-2.6803786014	-1.9034170633	-1.0763370927	-0.055217
C	-1.7665258692	-2.7918879899	-1.9328106073	-0.060207
O	-0.7887151009	-2.8685266838	-0.8610421551	-0.289368
C	-1.6561077797	-2.1703622691	 0.0524600797	 0.09418
H	 1.0938012807	 1.7066179762	-0.3894975296	 0.12332
H	-0.4522386234	 1.5723125724	-1.2604687299	 0.131897
H	-0.4377250849	 1.9615055612	 0.469842977	 0.094378
H	 0.509116545	-0.6898657919	-0.7712265533	 0.106926
H	 0.3734732474	 0.1411024033	 1.9081703887	 0.273126
H	-1.9106221594	-0.2168801759	 1.0063254569	 0.050862
H	-3.0258222772	 0.1750923436	-1.0205229426	 0.220749
H	-3.7510432387	-2.1071823979	-1.0402664161	 0.077494
H	-2.1688770626	-3.7863564819	-2.1659501854	 0.097303
H	-1.3653794065	-2.3219040826	-2.8364108154	 0.109822
H	-1.8144039492	-2.7164577032	 0.9838133459	 0.08098
