24
gdb 103833	2.67915	1.06343	0.87762	2.8189	86.2	-0.2442	0.0673	0.3115	1465.3531	0.215853	-405.538837	-405.528155	-405.527211	-405.574346	40.233	
C	 0.2584097613	 1.4785566157	 0.274736204	-0.385044
C	-0.2900314842	 0.1225133414	-0.1881115265	-0.249732
C	 0.5275708365	-0.5111680156	-1.3066092171	 0.343914
C	 0.4918428594	 0.2270625496	-2.6332435368	-0.467253
N	 1.8317774533	-1.0831709707	-0.8947548576	-0.388459
C	 0.7601312033	-1.9833754147	-1.3649598399	-0.101035
C	 0.2809448133	-3.0075953702	-0.3302335303	 0.123304
C	 0.8005944881	-4.4083210723	-0.6730677374	-0.391364
O	 0.6832673074	-2.6374001292	 0.9769804053	-0.43389
H	 1.2996934138	 1.3789336691	 0.5974919687	 0.125056
H	 0.2207449729	 2.2358836533	-0.5151279929	 0.109791
H	-0.3209754017	 1.8600826671	 1.1208017352	 0.113606
H	-0.3197329194	-0.5632501517	 0.6608761345	 0.133378
H	-1.3231739667	 0.2387277218	-0.5411735132	 0.090237
H	 0.9084619247	 1.2355250945	-2.5402359544	 0.126529
H	 1.0662407915	-0.3036763887	-3.3997635948	 0.109333
H	-0.5371160973	 0.3274432604	-2.9957369672	 0.125345
H	 2.5443350504	-0.9436063942	-1.6051265099	 0.230074
H	 0.8684882333	-2.3979214921	-2.3664407728	 0.077907
H	-0.818111747	-3.0290188512	-0.3347340463	 0.081548
H	 0.4093894278	-4.7549093196	-1.6364746858	 0.103133
H	 1.8951096863	-4.4101566034	-0.7228764001	 0.112999
H	 0.4935939628	-5.1160750784	 0.1011222059	 0.122683
H	 1.4637059902	-2.073393021	 0.8467559095	 0.287938
