23
gdb 64184	2.07034	1.45258	1.31711	2.6158	85.56	-0.2427	-0.0208	0.2219	1170.7062	0.203036	-388.302895	-388.292729	-388.291785	-388.337277	38.8	
C	-0.60490463	 1.4102367129	 0.1677517051	-0.452981
C	 0.0002563966	 0.0208112776	-0.0099243203	 0.287077
C	-1.0517930171	-0.9396528574	-0.5778141558	-0.441533
C	 1.3295296733	-0.0591765328	-0.8207659714	-0.254058
C	 1.9224505065	-1.0201444988	 0.2385579622	-0.269081
C	 0.807852103	-0.6076469139	 1.2329792761	 0.204045
C	 1.2633162376	 0.4092557319	 2.2836901962	-0.469518
C	 0.0864166212	-1.7350833985	 1.9291805436	 0.104199
O	 0.2630400598	-2.9106836542	 1.7252289136	-0.260268
H	 0.1170039757	 2.1356653268	 0.5515861178	 0.11258
H	-0.9620847489	 1.7841856605	-0.7990388089	 0.117036
H	-1.4644838243	 1.3944602308	 0.8479274206	 0.112919
H	-1.3935846142	-0.5772594282	-1.5537053431	 0.110659
H	-0.6565957873	-1.9499972858	-0.7137156307	 0.134708
H	-1.9296409977	-1.0112616506	 0.0742803449	 0.112339
H	 1.2442184089	-0.4361658018	-1.8436394974	 0.097006
H	 1.8500436486	 0.9024784639	-0.8518974616	 0.095503
H	 1.8373454941	-2.0739193579	-0.0329014058	 0.125191
H	 2.9467400214	-0.8255423946	 0.5653660663	 0.0962
H	 1.7928621641	 1.2478891559	 1.8239193496	 0.125812
H	 0.4203524407	 0.8154943622	 2.8532025039	 0.120099
H	 1.9522698413	-0.0616893025	 2.9941079184	 0.124885
H	-0.670474603	-1.4008626456	 2.6790608967	 0.067184
