19
gdb 73956	2.54379	1.41196	0.94393	1.4315	88.3	-0.2235	-0.0142	0.2092	1243.5004	0.158593	-385.876111	-385.867164	-385.86622	-385.909495	33.869	
C	 0.0247932388	 1.556131	 0.1806162123	-0.502917
C	 0.0233741376	 0.0633746923	 0.031534451	 0.21375
C	 0.0154066375	-0.5666631834	-1.1590410918	 0.04219
C	 0.0558935949	-2.0859997538	-1.2544821975	-0.168189
O	 0.3848746456	-2.7225717131	-0.041018389	-0.241456
C	-0.3509420736	-2.2003938914	 1.0495497689	-0.091175
C	 0.0354649757	-0.7448774866	 1.3064997786	-0.28367
C	-0.0450258317	 0.1061112767	-2.4095279873	 0.21587
C	-0.0970409399	 0.6007531658	-3.5082601174	-0.421005
H	 0.8831779186	 1.8821909661	 0.7824455307	 0.126994
H	 0.0654781035	 2.0624179814	-0.785124751	 0.139696
H	-0.8733169773	 1.8941602613	 0.7138240413	 0.125861
H	-0.9151700347	-2.4491077753	-1.6365624054	 0.103198
H	 0.8189413286	-2.3874641576	-1.9793017954	 0.126666
H	-1.4334270111	-2.2731091242	 0.8519866841	 0.090844
H	-0.1216666958	-2.8334926219	 1.9110420616	 0.108094
H	 1.0338780857	-0.6961256483	 1.7639782935	 0.119826
H	-0.6545807942	-0.2981309399	 2.0348797662	 0.103882
H	-0.144300228	 1.0550527619	-4.4667072835	 0.191539
