17
gdb 15357	6.21132	0.911	0.87635	1.7713	70.69	-0.2514	0.0512	0.3026	1306.5132	0.141134	-363.79256	-363.783835	-363.782891	-363.826571	31.474	
O	-0.0513867246	 1.2245810077	-0.8555247248	-0.421914
C	 0.0578289219	 0.1940830597	 0.1109243922	-0.062309
C	-1.2749448588	-0.488815536	 0.3197252713	-0.046832
N	-1.7435909868	-1.2867286854	-0.8328759337	-0.340061
C	-1.4769360739	-1.9576518977	 0.4457749659	-0.010721
C	-0.3517185215	-2.9841520269	 0.4734953067	-0.358021
C	-0.828167428	-4.3264046187	 0.1549895483	 0.294933
C	-1.245816654	-5.4242711482	-0.09862547	-0.439541
H	-0.4128160955	 0.8054556848	-1.6458777939	 0.28959
H	 0.8254247252	-0.5382319984	-0.1763336078	 0.088068
H	 0.3874291329	 0.673169716	 1.0389563192	 0.109894
H	-2.0151615013	 0.1379717692	 0.8149812361	 0.091375
H	-2.7417389711	-1.1688996832	-0.9787145629	 0.237672
H	-2.342402469	-2.2618264586	 1.031814585	 0.097989
H	 0.4249282514	-2.6930491875	-0.2402662367	 0.141493
H	 0.112713419	-2.9870248288	 1.4685440503	 0.132318
H	-1.601191216	-6.397586178	-0.330006995	 0.196068
