21
gdb 92108	2.66015	1.67074	1.39852	1.5677	81.17	-0.2177	0.0874	0.3051	1047.1192	0.183218	-387.073211	-387.065141	-387.064197	-387.105267	32.559	
C	-0.1635600444	 1.5743249468	-0.0267117334	-0.395327
C	 0.02018995	 0.05184411	-0.0316775521	 0.014574
C	 0.8722905708	-0.475115962	-1.231723486	-0.2299
C	 2.1819656453	-0.8957546882	-0.5777255766	 0.092662
O	 2.7602723661	 0.2939740445	 0.0608728664	-0.346064
C	 2.2531338497	-0.1589629455	 1.3257025075	 0.480796
C	 2.9638410979	 0.295588782	 2.5568541848	-0.499689
C	 1.8261188454	-1.4960418347	 0.7988716334	-0.225412
C	 0.7711475201	-0.4781780336	 1.1968048183	-0.127739
H	 0.8079588543	 2.0752727376	-0.0439874356	 0.13478
H	-0.7353932345	 1.9052313043	-0.9005405585	 0.105825
H	-0.7054692824	 1.9028518299	 0.8670490826	 0.103815
H	-0.9704052315	-0.4169708385	-0.0569122483	 0.067255
H	 0.396545199	-1.3371867174	-1.7137687857	 0.09338
H	 1.0370836135	 0.2907664006	-1.9957463107	 0.104413
H	 2.9132196415	-1.4023530333	-1.2104235865	 0.074673
H	 2.883657566	 1.3825619016	 2.6702084876	 0.130674
H	 2.5271240165	-0.1711045596	 3.4446469849	 0.122383
H	 4.0261329189	 0.0351318082	 2.5117677081	 0.127746
H	 1.9481565807	-2.5080969114	 1.1599204403	 0.091593
H	 0.2335551672	-0.6268928914	 2.1281092996	 0.079562
