12
gdb 824	7.73	1.91252	1.68404	1.8161	54.24	-0.2513	-0.0028	0.2485	703.5367	0.089232	-360.418556	-360.412533	-360.411589	-360.448358	22.42	
O	-0.1241408045	 1.3178135737	-0.0465710709	-0.386084
N	 0.0218527264	-0.0759852401	 0.0387207324	-0.253977
C	-1.0986814124	-0.6583819492	-0.0269022459	 0.450844
C	-2.5783542853	-0.2515611636	-0.0408518923	-0.348353
C	-2.8816038468	-1.760054318	 0.1030973197	 0.037288
O	-2.3087042766	-2.4096293743	-1.0270318468	-0.233766
C	-1.4417428296	-2.1121131102	 0.0898079798	-0.081282
H	 0.7873988197	 1.6236314784	 0.0215094608	 0.310234
H	-2.8368339573	 0.3521460791	 0.8340792129	 0.13332
H	-2.9626208045	 0.2218102365	-0.9464197709	 0.136297
H	-3.7080561335	-2.2458340242	 0.6065633099	 0.117414
H	-0.8879122055	-2.9300879079	 0.5310366313	 0.118064
