15
gdb 82280	3.28304	1.44972	1.10756	3.8784	69.01	-0.2623	-0.0822	0.1801	1042.4117	0.112297	-457.749858	-457.742381	-457.741437	-457.781912	28.267	
O	 0.0722037213	 1.3799500955	 0.1615120447	-0.433993
C	 0.0042628509	-0.0197223491	 0.0390106925	 0.030333
C	-1.4316781614	-0.5153687765	-0.1040933814	 0.015549
O	-2.0943030694	-0.0895301805	-1.2908867833	-0.233904
C	-1.499563187	-1.4040659238	-1.2802274175	-0.000527
C	-0.1460097208	-1.3852526792	-1.9136875041	-0.179562
C	 0.667846398	-0.5691561868	-1.225533773	 0.183371
C	 2.0152724333	-0.1627960964	-1.610573594	 0.086145
O	 2.6512285735	 0.6792836155	-1.0037848858	-0.291283
H	 1.0075719284	 1.6086038467	 0.0663947173	 0.301146
H	 0.4513956758	-0.5171562903	 0.918373748	 0.081992
H	-2.0638684186	-0.636646382	 0.7701815801	 0.110984
H	-2.1866498978	-2.2372427167	-1.3816846138	 0.111319
H	 0.1059670477	-1.9107071581	-2.8286725631	 0.126487
H	 2.441065116	-0.6667020483	-2.5033393168	 0.091942
