17
gdb 62827	2.29505	1.54122	1.3661	2.2796	69.92	-0.2534	-0.0452	0.2082	1032.1735	0.132999	-458.900878	-458.892342	-458.891398	-458.934219	32.11	
C	-0.0983138693	 1.6666616181	 0.0487494123	-0.465831
C	 0.0018517526	 0.1579788962	 0.0431351987	 0.434809
O	-1.2817282561	-0.3558484062	-0.0689710823	-0.475686
C	 1.1055096338	-0.6292388868	-0.74253085	-0.029404
C	 2.1917562807	-0.1764496101	 0.2504671086	-0.271875
C	 0.961544441	-0.6306300515	 1.0610072278	 0.249836
O	 0.826846677	-1.7984527331	 0.146649096	-0.370229
C	 0.7899844169	-0.8455515171	 2.5240342821	 0.032614
O	 1.1581037878	-0.0494262961	 3.3512603781	-0.250397
H	 0.8660344531	 2.1627552815	 0.1515740373	 0.128377
H	-0.5671522016	 1.9986824198	-0.882395051	 0.137622
H	-0.741551462	 1.9812742659	 0.8750166258	 0.146812
H	-1.1679173784	-1.3183635918	-0.0921603041	 0.289305
H	 1.1801054169	-0.8400349223	-1.8099399332	 0.104037
H	 3.0364478676	-0.8605307994	 0.32377614	 0.124036
H	 2.4904226984	 0.8694574925	 0.2837968439	 0.120274
H	 0.2661559916	-1.7885527496	 2.7941457001	 0.095699
