15
gdb 1951	8.53206	1.55615	1.46178	1.7829	63.48	-0.2522	0.026	0.2782	851.7717	0.12356	-308.467642	-308.460336	-308.459392	-308.499218	26.488	
C	-0.5018125236	 1.3452352496	 0.1292360322	-0.399926
C	 0.2211022008	 0.0201534171	 0.0094490374	 0.176817
C	 0.9398426803	-0.3102692555	-1.3167935776	-0.309171
C	 2.2184422248	-0.409327051	-0.4414202179	-0.032043
O	 1.4808485362	 0.0111256359	 0.7335159878	-0.297731
C	 2.8164253633	-1.7296369199	-0.308835062	 0.339027
C	 3.310381007	-2.8212388636	-0.2104755649	-0.466913
H	 0.1221934698	 2.1645697151	-0.2412914279	 0.119142
H	-1.4335789277	 1.325899388	-0.4470293019	 0.117038
H	-0.7518219965	 1.5497718901	 1.1749856785	 0.130461
H	-0.4217133964	-0.796709359	 0.3646450547	 0.082391
H	 0.6413767582	-1.2312946247	-1.8161537339	 0.12144
H	 0.9616487034	 0.5110017519	-2.0355858642	 0.111782
H	 2.9981169694	 0.3221220375	-0.6877433328	 0.106158
H	 3.7507520709	-3.7831650415	-0.1170738775	 0.201528
