15
gdb 25906	2.74872	1.51813	0.98766	1.8887	69.56	-0.1973	-0.02	0.1773	1116.4003	0.114325	-454.004055	-453.996001	-453.995057	-454.036636	30.905	
N	-0.0232472422	 1.3119557674	-0.0603699882	-0.538514
C	 0.024369184	-0.0542219166	 0.070120615	 0.324055
O	 1.0837446869	-0.642771476	 0.2492271352	-0.38105
C	-1.2659693287	-0.7617889579	 0.0273219168	 0.10589
C	-2.5367416186	-0.2661552814	 0.1346728249	-0.100057
O	-3.4417939862	-1.2521504348	 0.1030922922	-0.145583
C	-2.7516987962	-2.437655268	-0.0301421871	-0.087623
C	-1.4090274196	-2.1993049195	-0.0758741928	 0.137172
N	-0.3533675251	-3.077387299	-0.2603367585	-0.614385
H	 0.8706716373	 1.7683481446	-0.1590267008	 0.260598
H	-0.8026738097	 1.7408383891	-0.5309718289	 0.256766
H	-2.9263427975	 0.7294299568	 0.2767490178	 0.139866
H	-3.3541521105	-3.3278282891	-0.0749805019	 0.129022
H	-0.5113039015	-4.0126367781	 0.0841588179	 0.242173
H	 0.5223949878	-2.6761932875	 0.0546928383	 0.27167
