16
gdb 127389	3.95078	1.15124	1.0822	0.9301	71.21	-0.2385	-0.0341	0.2044	1139.7568	0.125236	-434.030544	-434.022885	-434.021941	-434.063469	28.059	
C	-0.5132499572	 1.2664538215	-0.0175319638	-0.328522
N	 0.0201153319	-0.0890845959	 0.0509403998	-0.082596
C	 1.4107046656	-0.2845892952	-0.3081636953	-0.249228
C	 0.9801009034	-0.4444004331	 1.1150140767	-0.101391
C	 1.4220809263	 0.5074887477	 2.1539467411	 0.373011
N	 1.9987227615	 1.6617762271	 1.9182707341	-0.18634
O	 2.2032128512	 2.1975867654	 3.195952409	-0.149631
C	 1.735669897	 1.2913489259	 4.0540547669	 0.106411
N	 1.242345846	 0.232745537	 3.499726895	-0.311478
H	 0.2105766438	 2.0511440076	 0.2422306463	 0.134391
H	-0.8617379565	 1.4378570457	-1.0404440501	 0.127823
H	-1.3741422418	 1.346405775	 0.65346785	 0.126081
H	 1.6365009777	-1.1695070139	-0.8975341573	 0.121647
H	 2.0129736842	 0.593465325	-0.5350472365	 0.135273
H	 0.8215089041	-1.4381890819	 1.5221591451	 0.114879
H	 1.8132540331	 1.523886272	 5.1061150291	 0.16967
