20
gdb 26336	3.9689	1.01586	0.83241	1.4507	84.62	-0.1605	0.0605	0.221	1404.8952	0.17152	-399.343088	-399.333297	-399.332353	-399.377739	36.283	
C	 0.024108071	 1.389241619	 0.2753947447	-0.327692
N	-0.0084486647	 0.0564799173	-0.3043144325	-0.154102
C	 1.2079991068	-0.6996265298	-0.090849838	-0.319912
C	-1.1966455333	-0.6693232634	-0.1191599844	 0.345484
C	-1.309170854	-2.0164671903	 0.1626834979	-0.20321
N	-2.6618205797	-2.3199960931	 0.213605395	-0.289717
C	-3.3988531839	-1.1955382755	-0.0244675026	 0.318549
N	-4.8054874945	-1.2898615285	-0.0845211309	-0.609568
C	-2.5286470587	-0.1471801669	-0.2253730763	-0.346565
H	 0.9215998149	 1.9112262912	-0.0713527269	 0.112668
H	-0.843047741	 1.9666297208	-0.0516842862	 0.12527
H	 0.0334397221	 1.3840572608	 1.3803480905	 0.097441
H	 1.3324476999	-1.042380505	 0.9534428013	 0.093865
H	 1.2116540725	-1.5819410392	-0.7385318735	 0.123601
H	 2.0717435083	-0.0812984079	-0.3515371739	 0.111819
H	-0.565182743	-2.771025098	 0.3468695157	 0.105292
H	-3.053856757	-3.2445094797	 0.2394156623	 0.252984
H	-5.2264727808	-1.3501957702	 0.8386793399	 0.24126
H	-5.1948999613	-0.4760901998	-0.5443272438	 0.244674
H	-2.8162840037	 0.8753306282	-0.4125417784	 0.077859
