14
gdb 44831	3.08679	1.24812	1.01681	5.3238	65.46	-0.2929	-0.0178	0.2751	1124.8841	0.100453	-436.690125	-436.682351	-436.681406	-436.723447	28.004	
O	-0.4811399574	 0.1223352191	-0.1386390606	-0.31166
C	-0.197457151	 1.2632903449	 0.0091557684	 0.443049
O	-1.0457860121	 2.3217608181	 0.322830291	-0.261517
C	 0.0358711246	 3.2654610352	 0.1002556396	 0.039437
C	 1.0945891641	 3.037657443	 1.1119826369	-0.322571
C	 1.0219991741	 2.1452307821	-0.1382660259	 0.113566
C	 2.152287079	 1.9462063419	-1.1171009328	-0.457601
C	 3.2362147492	 1.1248977713	-0.5703231567	 0.276369
N	 4.0945884003	 0.4907976257	-0.1290926493	-0.295208
H	-0.1904543515	 4.1572700884	-0.4664117825	 0.143058
H	 1.9328744074	 3.7290039799	 1.104396467	 0.142044
H	 0.829732213	 2.6398417647	 2.0858246272	 0.153233
H	 1.7795960886	 1.4730406558	-2.0322328181	 0.175283
H	 2.5715973217	 2.9159235101	-1.4085917842	 0.162518
