19
gdb 3992	5.68512	0.81963	0.77156	1.0087	73.21	-0.2454	0.01	0.2554	1510.7112	0.161994	-402.156301	-402.146194	-402.14525	-402.192448	34.493	
C	-0.974901062	 0.9742944935	-0.0648969044	-0.385436
C	 0.2235138762	 0.048169117	 0.0506497544	-0.022347
O	 0.499658674	-0.4920975552	-1.226675551	-0.244772
C	 1.5932585842	-1.3876402557	-1.2254395271	-0.142007
C	 1.7459003528	-1.9730384166	-2.6039782726	 0.364101
C	 0.5650589084	-2.6488156068	-3.2397103299	-0.4814
N	 2.9107208714	-1.8598522858	-3.1170292035	-0.168555
O	 2.9996955632	-2.4829965099	-4.3698030956	-0.395779
H	-0.765920294	 1.7852893227	-0.7681209997	 0.129475
H	-1.8506594742	 0.4263916023	-0.4242683458	 0.125659
H	-1.2138483813	 1.4113282173	 0.9092207888	 0.11546
H	 1.1024598831	 0.5970782492	 0.4282932536	 0.089133
H	 0.0199157772	-0.76427074	 0.7693176189	 0.085158
H	 2.5283950492	-0.8867271756	-0.938358129	 0.107733
H	 1.409559074	-2.2002817849	-0.4978912628	 0.090094
H	-0.3597401683	-2.2196865664	-2.850740005	 0.141193
H	 0.5988805103	-2.544624006	-4.3251601473	 0.149514
H	 0.5702650103	-3.7222525507	-3.0126408182	 0.136408
H	 3.9001528654	-2.2700689283	-4.6363083938	 0.306369
