13
gdb 21048	4.00822	1.89863	1.30055	3.5893	57.02	-0.2145	0.0328	0.2473	876.4981	0.096466	-431.962793	-431.955386	-431.954442	-431.994507	26.433	
C	 0.11548934	 1.3996474294	-0.0689436037	-0.326517
N	 0.0949469078	-0.0394009223	-0.0174247125	-0.08627
N	 0.1767090032	-0.8080050955	-1.1837714282	-0.341786
C	 0.1278108813	-2.0136115445	-0.7286770031	 0.491345
N	 0.2536311809	-3.1752737961	-1.4373167302	-0.582391
O	 0.0041748964	-2.1230704826	 0.6131911684	-0.230818
C	-0.0235326984	-0.7964686956	 1.1018237464	 0.476882
O	-0.1324718335	-0.511015503	 2.2616420052	-0.40381
H	 1.0528046263	 1.7572272551	-0.5060968168	 0.143597
H	-0.7216732254	 1.7772295172	-0.6642846882	 0.142023
H	 0.0280637566	 1.7607899059	 0.956825888	 0.168248
H	 0.118645321	-3.0587770461	-2.4311015393	 0.275531
H	-0.2437504161	-3.9623139817	-1.046534446	 0.273965
