17
gdb 79310	3.87897	1.25958	1.15835	4.8234	79.15	-0.2334	0.0126	0.2459	1093.5025	0.137078	-380.814599	-380.807076	-380.806132	-380.846521	29.2	
C	-0.0545574858	 1.5282701406	 0.0002827688	-0.335419
N	 0.1008347954	 0.0791815161	 0.0013307204	-0.074141
C	 0.791331477	-0.5601829787	-1.1088312204	-0.075055
C	 2.3067511311	-0.6022865324	-0.8217435415	-0.137692
C	 2.4990785763	 0.0417454605	 0.5502935249	-0.252386
C	 1.1015652182	-0.5535422679	 0.9053520137	-0.081976
C	 1.3504867463	-1.6400700444	-0.2218820192	 0.273868
C	 1.2991182289	-3.0495548008	-0.265731906	 0.118985
N	 1.2684914686	-4.2073139039	-0.2906308053	-0.364692
H	 0.8627638075	 2.0930031909	-0.224968847	 0.106828
H	-0.8081150616	 1.797993681	-0.746489192	 0.130242
H	-0.4269925939	 1.8456525489	 0.9794242445	 0.128364
H	 0.3712443886	-0.6547860842	-2.1023065465	 0.12105
H	 3.0386083189	-0.7814943735	-1.5984191603	 0.113592
H	 3.2846733582	-0.4671214157	 1.1129331615	 0.122254
H	 2.6351005189	 1.1245069047	 0.6209080288	 0.104816
H	 0.7941682274	-0.7376875812	 1.9325357957	 0.101362
