17
gdb 70049	3.77864	1.11923	0.95148	3.1289	77.04	-0.2529	-0.0678	0.1851	1229.7195	0.134736	-421.837211	-421.829077	-421.828133	-421.869925	30.659	
C	 0.0641492717	 1.5140632891	-0.0400292512	-0.485282
C	-0.07742142	 0.0256232335	 0.1155165856	 0.402172
C	-1.4007656647	-0.6768212269	-0.1963867115	-0.379716
C	-1.3468753369	-1.9262989403	 0.6592655289	 0.221179
C	-2.3870643046	-2.9566610537	 0.6477426924	 0.083713
O	-3.3758038543	-2.9152169255	-0.051368152	-0.271417
C	-0.2382221709	-1.9675488842	 1.4201025691	-0.172161
C	 0.6323173926	-0.796775891	 1.1251388573	-0.063237
O	 1.057895061	-0.7643090039	-0.2577262439	-0.288996
H	 1.0597055606	 1.840129582	 0.270764443	 0.13277
H	-0.0774602727	 1.8060075174	-1.0863764494	 0.134659
H	-0.684322051	 2.0415791706	 0.5599077427	 0.126522
H	-2.2658449495	-0.0553850371	 0.0626762416	 0.125105
H	-1.4904876295	-0.9154310425	-1.2612407185	 0.142043
H	-2.2109436138	-3.8008377052	 1.3509901397	 0.070452
H	 0.01006893	-2.7508631776	 2.1272892375	 0.120868
H	 1.3490884518	-0.4049134748	 1.8401886287	 0.101325
