12
gdb 20473	6.58095	1.51489	1.34091	2.2238	56.48	-0.2865	-0.0419	0.2446	860.9316	0.084869	-414.628264	-414.622069	-414.621125	-414.659358	21.802	
C	 0.1954031635	 1.5055437244	 0.093659117	-0.168917
O	 1.1719134707	 0.4989337217	-0.1398731068	-0.212801
C	-0.181482705	 0.080282028	 0.035986379	-0.046345
C	-0.4863693155	-0.6850243666	 1.2577726629	 0.449966
N	-1.3241797119	-1.6741043789	 1.3721612257	-0.321879
C	-1.2137318921	-1.9742070085	 2.7074748496	 0.038104
N	-0.372432451	-1.237048543	 3.3781815784	-0.104089
O	 0.122850441	-0.3610125706	 2.4037201842	-0.196548
H	 0.2542616851	 1.9985871202	 1.0615083956	 0.142556
H	-0.0426433611	 2.1418268781	-0.7569151787	 0.133197
H	-0.6773830887	-0.3134569148	-0.8472763217	 0.133626
H	-1.771849145	-2.7643012301	 3.1882320549	 0.153129
