16
gdb 24697	3.70786	1.60912	1.13967	1.1887	78.32	-0.2182	-0.0201	0.1981	1021.9219	0.128345	-400.819546	-400.812949	-400.812005	-400.850885	25.786	
C	 0.0584417513	 1.3682623087	-0.2059567028	-0.099367
C	 1.4782305224	 1.8500856866	 0.1774742856	-0.345027
C	 2.1067998081	 0.5676230314	 0.67330195	 0.236901
N	 3.3668781712	 0.3732886408	 1.0214913846	-0.333635
C	 3.6722312694	-0.8596176105	 1.4627142758	-0.044201
C	 2.7440783981	-1.891780803	 1.5667490269	-0.091625
C	 1.4128487971	-1.6785068839	 1.197911987	-0.241175
C	 1.1088182625	-0.4086940848	 0.7390773995	 0.377279
O	-0.107890349	 0.0266379545	 0.3337603202	-0.283579
H	-0.7409894568	 1.9861812561	 0.2075362996	 0.124347
H	-0.072912607	 1.3054465499	-1.2914203018	 0.120512
H	 2.0153215298	 2.2795675992	-0.6719004028	 0.132087
H	 1.4584347962	 2.6075362342	 0.9687075704	 0.130856
H	 4.7078841864	-1.0228844126	 1.7461698259	 0.102524
H	 3.0590206987	-2.8627148456	 1.9331110651	 0.10113
H	 0.6613525016	-2.456478921	 1.2628181369	 0.112975
