18
gdb 98088	4.24092	0.88063	0.77752	1.6484	75.09	-0.2468	-0.0895	0.1573	1490.4301	0.145686	-439.092744	-439.083086	-439.082142	-439.128724	33.49	
C	-0.1991081939	 1.5607354413	 0.0976570056	-0.385727
C	 0.217676788	 0.0934375381	 0.0618061103	-0.27601
C	 0.8150906213	-0.3261701314	-1.261157743	 0.294261
O	 0.9539397775	 0.4103882067	-2.2107598608	-0.28367
C	 1.2655536732	-1.8016064338	-1.3684255996	 0.284881
O	 1.0905083836	-2.566231249	-0.4402112217	-0.321837
C	 1.9080146734	-2.2156321263	-2.6422068373	-0.10305
C	 3.1963099083	-2.9811477485	-2.5064708519	-0.215168
N	 1.9800863697	-3.6609781825	-2.915290687	-0.302466
H	 0.6561538899	 2.2164114421	-0.0861554954	 0.131891
H	-0.9444010094	 1.775884095	-0.6725883866	 0.133029
H	-0.6256667137	 1.8142611456	 1.0715885181	 0.116982
H	 0.9487444613	-0.1468757262	 0.8450048982	 0.139964
H	-0.623762042	-0.5802592127	 0.2699865185	 0.143216
H	 1.7656601287	-1.5635765407	-3.4940126946	 0.12812
H	 3.9490958953	-2.8535382445	-3.2786266384	 0.134828
H	 3.5719489111	-3.1396687424	-1.4992622383	 0.132337
H	 1.5859879579	-4.1374247106	-2.1027004961	 0.248418
