18
gdb 10616	2.89808	1.72572	1.28775	1.3101	63.75	-0.2349	0.0613	0.2963	983.6735	0.151367	-422.032788	-422.023641	-422.022697	-422.066369	33.222	
C	 0.4447268287	-0.7240806867	 1.5494922897	-0.270598
O	-0.0018590533	-0.3978377587	 0.2327681833	-0.304201
C	-1.3338241725	-0.7811338666	-0.0398473168	 0.340861
C	-2.3742936072	-0.0187256544	 0.7429578825	-0.124789
O	-2.3004442591	 1.3741986418	 0.4901285405	-0.420623
C	-1.5666838919	-1.1016163906	-1.4973745694	-0.385103
C	-1.5090942149	-2.2162320685	-0.4769419854	 0.074541
O	-0.4169282176	-3.084196967	-0.4313765179	-0.430907
H	 1.5174951111	-0.5183427504	 1.5707192646	 0.131485
H	-0.0439954802	-0.1061487499	 2.3130609762	 0.122064
H	 0.2703639035	-1.7814192555	 1.7784802242	 0.135274
H	-3.373613321	-0.3510690621	 0.4434138712	 0.108212
H	-2.2761498378	-0.2300916952	 1.8202479948	 0.088453
H	-1.3625036224	 1.5950430782	 0.4556548359	 0.289645
H	-2.5185859526	-0.8241058883	-1.9366251392	 0.123788
H	-0.7105548853	-0.9992510033	-2.1563929915	 0.121575
H	-2.422157608	-2.742979358	-0.2192936846	 0.109671
H	 0.3741366004	-2.5410707248	-0.5342256982	 0.290652
