15
gdb 11521	4.86571	1.06141	0.96056	3.8226	62.12	-0.2817	0.0063	0.2879	1173.6666	0.117569	-399.778459	-399.770195	-399.769251	-399.811932	28.885	
O	-0.3109649076	 1.3144913316	 0.0721647773	-0.411851
C	 0.0404482455	-0.0488930161	-0.081972298	-0.008728
C	 0.9218278215	-0.3032319199	-1.3216540256	-0.247457
C	 0.1992134825	 0.0999522463	-2.5842272613	 0.087589
C	 0.3349000088	-0.6646612904	-3.8286993678	-0.179267
O	-0.8314561097	-0.7948537008	-3.0132201452	-0.235683
C	 0.691216153	-0.5721162597	 1.1356488074	 0.254421
N	 1.2331486589	-0.9537381387	 2.0822555676	-0.312607
H	 0.4831117525	 1.8081989712	 0.3085071381	 0.295863
H	-0.9072688547	-0.5807366184	-0.2185434741	 0.161371
H	 1.8575599966	 0.2611562691	-1.220167025	 0.113963
H	 1.180686453	-1.3660237612	-1.3659247523	 0.130736
H	-0.0736281347	 1.1524776537	-2.6491095178	 0.11052
H	 0.1831663528	-0.1698846122	-4.7865407749	 0.122609
H	 0.9869287116	-1.5368971545	-3.8544569584	 0.11852
