19
gdb 72398	3.06405	1.57845	1.49722	1.4729	75.1	-0.2409	0.0052	0.2461	996.063	0.158478	-423.035197	-423.027204	-423.02626	-423.066933	32.31	
C	 0.0483191802	 1.477588691	 0.0864789763	-0.496133
C	-0.0251846396	-0.0247508925	 0.0022353132	 0.294729
C	 0.7425419139	-0.7264000238	-1.1717595786	-0.102407
O	 0.9460665305	-2.0419606815	-0.6632188379	-0.30437
C	 0.3773247641	-1.9961357658	 0.6815459377	 0.434854
C	 1.0032957901	-3.0506394025	 1.5482174752	-0.494668
O	 0.661058473	-0.6754271579	 1.0935216842	-0.284472
C	-1.1392859617	-1.9520498277	 0.4737797635	-0.112309
C	-1.3865777884	-0.7164522809	 0.0413095694	-0.141718
H	 1.0896997462	 1.8111183698	 0.1082213539	 0.131054
H	-0.4418211292	 1.9323309373	-0.7801347566	 0.122766
H	-0.4505924731	 1.8364976729	 0.9907721061	 0.135087
H	 0.1712531295	-0.7514220927	-2.1062288336	 0.097901
H	 1.709864223	-0.2391733224	-1.3421931783	 0.102004
H	 2.0817900104	-2.8893122092	 1.6062687482	 0.137877
H	 0.5773278409	-3.0130660759	 2.5537638259	 0.13137
H	 0.8177612432	-4.0394962677	 1.1216240432	 0.132547
H	-1.8029542116	-2.8033989632	 0.5390339948	 0.110393
H	-2.3061023414	-0.2970518175	-0.3446536767	 0.105496
