13
gdb 17147	4.35574	2.01	1.63283	1.4924	65.03	-0.2452	0.0057	0.2509	770.9631	0.094548	-361.30075	-361.294558	-361.293614	-361.330909	24.483	
C	-0.0265801861	-1.1231286354	 0.0637144484	-0.370642
C	-0.0308065253	 0.0787190696	 0.0498139321	 0.0938
C	-0.0282234019	 1.5032452332	 0.021691669	 0.457619
O	-0.7120673716	 2.2785924948	 1.0586049553	-0.353513
C	-0.1574311913	 3.3032348413	 0.1895592695	 0.042679
C	 1.1615027083	 2.5211337284	-0.1176261253	-0.123963
N	 1.0206644259	 2.566430412	-1.6069398746	-0.340165
C	-0.3975648954	 2.5039094277	-1.1329560362	-0.123963
H	-0.0242973436	-2.1852970262	 0.0781646479	 0.191685
H	-0.3289729345	 4.3507610775	 0.4351933802	 0.102366
H	 2.1148650933	 2.5187640747	 0.4103861909	 0.103647
H	 1.2350834032	 3.5050086051	-1.95210935	 0.216804
H	-1.2658064911	 2.4814142276	-1.7912515772	 0.103646
