19
gdb 120236	3.05369	1.02277	0.85449	4.2976	77.46	-0.2186	-0.0202	0.1984	1401.6134	0.158951	-419.161332	-419.152367	-419.151423	-419.195779	32.866	
C	 0.2285301622	 1.5907100787	-0.0111618411	-0.388001
C	 0.571800613	 0.1041727406	-0.0042921947	-0.107529
N	 0.0545835943	-0.5415678971	 1.2008642329	-0.284783
C	 0.3066966124	-1.9485543398	 1.2895451676	-0.088186
C	 1.7048905626	-2.5034300349	 1.6931337224	-0.067648
N	 1.9514653717	-1.9477213844	 3.0270239921	-0.340446
C	 1.1430276139	-3.2149189173	 2.890795428	-0.191206
C	-0.2455562432	-2.7299802903	 2.538495831	 0.42834
O	-1.3443962329	-2.9665421125	 2.9406507767	-0.302467
H	 0.6994134268	 2.1064406087	 0.8335791518	 0.115521
H	 0.5832562328	 2.0673733835	-0.9298247081	 0.113884
H	-0.8525983002	 1.7355575113	 0.0659213539	 0.130986
H	 0.1071353696	-0.3880881186	-0.8686925867	 0.102345
H	 1.6636347771	-0.0223936995	-0.1241996564	 0.07851
H	 0.4300900313	-0.0890712524	 2.029575866	 0.229816
H	-0.0702891919	-2.453350554	 0.3907725148	 0.104557
H	 2.5103344574	-2.8403291333	 1.0531408841	 0.107154
H	 2.8793940021	-2.2396161493	 3.3331600847	 0.242
H	 1.457174021	-4.1241616394	 3.3863364009	 0.117154
