25
gdb 120623	3.1524	0.76143	0.68933	1.0546	91.19	-0.2476	0.085	0.3325	1798.8264	0.226524	-389.474676	-389.463405	-389.462461	-389.511624	40.667	
C	 0.3724982516	 1.533082831	 0.2522019058	-0.381663
C	-0.1555129141	 0.1428988223	-0.1287964731	-0.246782
C	 0.5680710046	-0.4900155265	-1.3127938553	 0.351555
C	 0.4312039989	 0.2748607653	-2.6193056835	-0.45892
C	 1.8807378972	-1.1986084009	-1.0596260377	-0.32068
C	 0.6572814792	-1.9995339225	-1.440398879	-0.060809
C	 0.0288222776	-2.9718438124	-0.4775057211	-0.086303
O	 0.6896153101	-4.2162969566	-0.6131924543	-0.229686
C	 0.147022972	-5.212643621	 0.2163352533	-0.223675
H	 1.4453893571	 1.4979402745	 0.4693527616	 0.117851
H	 0.2187798541	 2.2632325255	-0.5480111093	 0.117898
H	-0.1387938411	 1.9109567397	 1.1431148939	 0.109606
H	-0.0731411499	-0.5082770045	 0.7472695633	 0.094428
H	-1.2282191446	 0.2127134368	-0.3567071531	 0.092187
H	 0.8652220537	 1.277915628	-2.5498316381	 0.117035
H	 0.9407607652	-0.246235105	-3.43545639	 0.113251
H	-0.6226199777	 0.3873165083	-2.9023345972	 0.111324
H	 2.6828055375	-1.0975491108	-1.7834059273	 0.105574
H	 2.2216298699	-1.2780527106	-0.0313723832	 0.10522
H	 0.6366125461	-2.3721804602	-2.4615632657	 0.085315
H	 0.1071107191	-2.6183334801	 0.5629823465	 0.081529
H	-1.0475338509	-3.0941121226	-0.6945707679	 0.081757
H	 0.2267832081	-4.9486510624	 1.2837385024	 0.099338
H	-0.9159984305	-5.4008325881	-0.0070776787	 0.099886
H	 0.7115274367	-6.131601807	 0.0391162974	 0.124763
