14
gdb 131187	3.08693	1.50907	1.05842	3.8597	67.02	-0.2166	-0.0299	0.1867	1060.8057	0.100433	-469.940018	-469.932292	-469.931348	-469.973024	27.994	
O	 0.7167298142	 1.153636997	-0.2574854149	-0.437726
C	 0.2306850649	-0.0992794045	-0.1185167688	 0.234761
C	-0.1370653685	-0.9815689034	-1.1005960364	 0.370212
O	-0.5571596903	-2.0963048835	-0.4913439179	-0.21222
N	-0.437076365	-1.8806409381	 0.9116373393	-0.035487
N	 0.0225969004	-0.7072338678	 1.0759622572	-0.197836
N	-0.235984546	-0.8836636688	-2.4704478619	-0.15676
C	 0.8957646695	-0.3436358995	-3.2272199815	-0.220633
C	 0.5447568827	-1.7874675824	-3.3231079538	-0.223095
H	 0.8742064159	 1.5012738654	 0.6284532687	 0.312532
H	 0.6210110457	 0.3391924474	-4.0241993009	 0.138132
H	 1.7878108731	-0.0738602964	-2.6701255169	 0.146483
H	 1.1955791262	-2.5022842311	-2.8280322996	 0.142234
H	 0.0113585572	-2.1645024542	-4.1890295829	 0.139402
