20
gdb 82610	2.3506	1.80908	1.41261	2.4448	78.41	-0.2109	0.0654	0.2763	1014.602	0.171775	-403.085714	-403.07746	-403.076516	-403.118417	32.405	
C	-0.104116485	 1.590963355	 0.1010436813	-0.41192
C	 0.0255379006	 0.0913998342	-0.0206718067	 0.027995
C	 0.5014257844	-0.679959216	-1.206957237	-0.048518
C	 1.4515382542	-0.0753059773	-2.2516317966	-0.266429
C	 2.8578229808	-0.1642986907	-1.6304444652	-0.120971
C	 3.2478898923	 0.8836490609	-0.6198862591	 0.08398
O	 2.6580246048	 2.1443652691	-0.5469644545	-0.407811
C	 2.6109064246	-0.4087303704	-0.1430937026	-0.030457
N	 1.2214057213	-0.77862763	 0.0776948458	-0.129173
H	 0.484404558	 2.1446824807	-0.6230960302	 0.135385
H	-1.1626306302	 1.846382397	-0.0249110283	 0.105518
H	 0.1998395115	 1.927696525	 1.0977399307	 0.123532
H	-0.7809118342	-0.4045575551	 0.5226133701	 0.088822
H	-0.0548142671	-1.5639537682	-1.5184677552	 0.080421
H	 1.4113402969	-0.6508492541	-3.1794345071	 0.106412
H	 1.1857523423	 0.9572207191	-2.5042116415	 0.103915
H	 3.6332240916	-0.6762655923	-2.191408052	 0.083559
H	 4.3138146787	 0.9018198679	-0.3818665579	 0.087976
H	 3.0012273414	 2.6667926087	-1.2803126596	 0.288818
H	 3.2795192029	-1.0382317133	 0.4362183358	 0.098945
