21
gdb 112751	2.48987	1.27054	0.96374	2.1388	79.6	-0.2516	0.068	0.3196	1309.4497	0.180492	-424.186925	-424.177346	-424.176402	-424.221503	35.27	
C	 0.2262694	 1.797762523	-0.6157738899	-0.23801
O	-0.3486374596	 0.5125665491	-0.7099527008	-0.246049
C	 0.5553105359	-0.4766140063	-1.1123605606	 0.065662
C	 1.5310130453	-1.102511405	-0.064068201	-0.287186
C	 1.1817379628	-2.517496375	-0.6254815333	-0.057304
C	 0.9961241522	-3.6778828413	 0.3398358713	-0.414882
C	-0.0445254547	-1.8670317144	-1.2800368745	 0.404425
C	-1.4585175881	-2.2234622755	-1.1747573825	-0.256368
O	-0.7409126227	-2.3316581246	-2.4168981384	-0.283283
H	 1.020996827	 1.8383848106	 0.143894097	 0.108911
H	 0.6513722054	 2.1221753704	-1.5782834166	 0.108068
H	-0.5695069654	 2.4893469106	-0.3293304046	 0.12835
H	 1.0943052835	-0.1672463904	-2.0223313872	 0.073957
H	 2.57729873	-0.7942771923	-0.0928740681	 0.100035
H	 1.1346113357	-0.965601392	 0.9463386187	 0.108635
H	 1.8960422853	-2.7931118793	-1.4102597951	 0.086141
H	 0.2915471879	-3.4194081666	 1.1375114631	 0.115337
H	 0.6118312431	-4.5636220503	-0.17779756	 0.124304
H	 1.9463039949	-3.9550068361	 0.8085583118	 0.117682
H	-1.7484895965	-3.1706735693	-0.7227436722	 0.112499
H	-2.2010560721	-1.4297546254	-1.1339992972	 0.129075
