17
gdb 10872	3.1657	1.96474	1.55896	2.0056	69.64	-0.2409	0.0065	0.2473	880.9878	0.1416	-363.819442	-363.811631	-363.810687	-363.851199	29.32	
C	-0.0902597423	 1.5592339932	 0.0023005516	-0.436716
C	-0.0141776871	 0.0404123713	-0.0041990679	 0.018019
C	 1.234084803	-0.6465615368	-0.6381744308	-0.165955
N	 2.0178744073	-0.1609376378	 0.5797100812	-0.34336
C	 0.7043377645	-0.6800395335	 1.1920294675	 0.180365
C	 0.4083223167	-0.6212751376	 2.6580781751	-0.523536
C	 0.9043126169	-1.8766384448	 0.2314508034	 0.408827
O	 0.9751804233	-3.0680044062	 0.2359812992	-0.334003
H	 0.8685138973	 2.0034515135	 0.2726181268	 0.144881
H	-0.3815988995	 1.9306379257	-0.9856330169	 0.11881
H	-0.8475236929	 1.9005448	 0.7164550552	 0.117263
H	-0.9678657055	-0.4141891022	-0.2877228004	 0.08308
H	 1.6290879403	-0.5559268771	-1.6480439747	 0.097435
H	 2.7960093957	-0.792776719	 0.7911048756	 0.227447
H	 0.4384476518	 0.40947366	 3.0244014884	 0.136495
H	-0.5870503279	-1.0301474669	 2.8579024082	 0.136563
H	 1.1329513786	-1.2114330118	 3.2281927283	 0.134385
