21
gdb 73834	2.34694	1.65469	1.09754	1.3016	85.55	-0.2103	0.026	0.2363	1172.1119	0.182438	-387.087174	-387.078237	-387.077293	-387.120502	34.308	
C	 0.1119704543	 1.5440444287	-0.0240034777	-0.486047
C	-0.0087968885	 0.0469472656	 0.0675011718	 0.16253
C	-1.1429189713	-0.667767828	 0.0015872395	 0.237765
C	-2.5328853471	-0.1006348284	-0.1217932738	-0.495081
C	-1.0795752654	-2.1566374988	 0.0556153129	-0.15541
C	-0.2207441096	-2.9034281792	-0.9751598241	-0.343284
C	 0.2405146507	-2.7599842586	 0.4459304927	 0.132353
O	 1.2808478749	-1.9235260671	 0.8430969008	-0.255605
C	 1.3274067708	-0.6525289561	 0.214757003	-0.163728
H	 0.8532957328	 1.8273166222	-0.7837789286	 0.121834
H	-0.82474345	 2.0380493176	-0.2840765357	 0.12399
H	 0.465758728	 1.9694900736	 0.9246536376	 0.126443
H	-2.5578376282	 0.9893197164	-0.1468114517	 0.120384
H	-3.0228678691	-0.4726730436	-1.0306642453	 0.126685
H	-3.1554546794	-0.4278105588	 0.7210278148	 0.125274
H	-1.9860337673	-2.6532287753	 0.3886130591	 0.080788
H	-0.5477114679	-3.8841955094	-1.3041330704	 0.111784
H	 0.2428370814	-2.3003787904	-1.7474713422	 0.121136
H	 0.2418988216	-3.6461922265	 1.0709579846	 0.101729
H	 1.8234608216	-0.7323252766	-0.7697824902	 0.095923
H	 1.9927963278	-0.0485710274	 0.842912843	 0.110537
