14
gdb 8761	4.78988	1.27705	1.0281	2.6624	62.33	-0.265	-0.0975	0.1674	1059.4219	0.105889	-415.884226	-415.875944	-415.875	-415.917591	28.207	
C	-0.156896123	 1.4484987163	-0.0205552019	-0.368084
N	 0.0001999927	-0.0063609369	-0.0142554104	-0.130845
C	 0.1312595957	-0.6412819972	 1.2200770695	 0.169368
O	 0.1111539298	-0.0538644109	 2.2750668833	-0.316543
C	-0.0332773907	-0.7659004609	-1.1873210416	 0.280943
N	-0.2576452071	-2.0190211163	-1.1744627048	-0.473002
C	 0.2672587486	-0.0436393969	-2.4946972801	 0.099889
O	 0.1794959066	-0.6171269754	-3.5489054559	-0.230235
H	 0.7616580541	 1.9620055882	-0.322569441	 0.142524
H	-0.9754522818	 1.7487451889	-0.6791643312	 0.141554
H	-0.3917621753	 1.7400501333	 1.0030628648	 0.182109
H	 0.2638717663	-1.7252464911	 1.1106321484	 0.143074
H	-0.187359833	-2.365485542	-2.1346853881	 0.251234
H	 0.590886497	 1.0118849511	-2.437744051	 0.108015
