15
gdb 56381	2.0739	1.56772	1.12529	2.8554	71.77	-0.2613	-0.0196	0.2417	1103.5893	0.110381	-416.73631	-416.727182	-416.726238	-416.770254	33.118	
O	-0.0644500154	 1.4151656902	-0.1404674095	-0.431154
C	-0.0231359364	-0.001334112	-0.0421999198	-0.014917
C	 0.768030741	-0.4325370987	 1.1190541963	 0.314405
C	 1.4236364886	-0.7599952221	 2.0699349101	-0.429942
C	-1.4040790031	-0.5410333468	 0.082159363	 0.282034
N	-2.4819368161	-0.9478750281	 0.1668127876	-0.329937
C	 0.5937044391	-0.5355687448	-1.3463670039	 0.01676
C	 0.3258790704	 0.165405413	-2.6219151505	-0.240479
N	 1.6618093949	 0.2161125298	-1.9935896108	-0.325638
H	-0.2854664022	 1.7724235747	 0.72703041	 0.305602
H	 2.0032328268	-1.0567948557	 2.9100757758	 0.218883
H	 0.7241556332	-1.6134544909	-1.3276827883	 0.121215
H	 0.2699393884	-0.4077153504	-3.5420056408	 0.127285
H	-0.2909923507	 1.0570492303	-2.5866295833	 0.137874
H	 1.7687441915	 1.1125459715	-1.5229904759	 0.248007
