17
gdb 16350	2.65315	2.19518	1.38831	4.2409	69.57	-0.2332	-0.0259	0.2073	918.2433	0.141365	-363.843748	-363.835901	-363.834957	-363.87606	29.242	
C	-0.5021917861	 1.3747196782	 0.0342344668	-0.408722
C	 0.0751043079	-0.031835123	-0.0494348572	-0.076561
C	 1.4145410191	-0.2171512086	-0.8386434501	-0.373577
C	 1.9986540935	-0.9552188671	 0.3850366576	 0.364807
O	 3.0125286254	-1.5534094195	 0.5984110629	-0.298766
C	 0.7707676616	-0.6163044979	 1.2031363076	 0.227754
C	 0.7545350211	-0.091254624	 2.5993448926	-0.288121
N	 0.2254648434	-1.422679882	 2.2964787067	-0.35128
H	 0.2512964892	 2.0906626822	 0.3796923809	 0.120585
H	-0.8615913777	 1.7098408215	-0.9441789729	 0.12406
H	-1.3501205739	 1.420344264	 0.7271715805	 0.115281
H	-0.6847903844	-0.7291833544	-0.4199355005	 0.085585
H	 1.3725206941	-0.8023872252	-1.7602373901	 0.132109
H	 1.9382730284	 0.7224245606	-1.0441067317	 0.130457
H	 1.678915886	-0.0864489362	 3.1699854779	 0.139276
H	 0.0650696136	 0.7196567194	 2.8207784789	 0.120615
H	-0.7919876113	-1.3942782581	 2.2554267401	 0.236498
