18
gdb 22888	2.21343	1.60855	0.97041	1.4821	79.74	-0.224	-0.0294	0.1946	1197.1031	0.146727	-439.063224	-439.054119	-439.053175	-439.097375	33.906	
C	-0.1570747263	 1.5539803189	-0.048301412	-0.491165
C	-0.046272189	 0.058991642	-0.0169888128	 0.241642
C	-0.0089626692	-0.7581778558	-1.0856939927	-0.148246
C	 0.140360939	-2.2150200499	-0.7425266735	-0.289047
C	-0.0120838279	-2.2433584282	 0.7925818342	 0.072174
O	 0.9907401016	-3.0334711872	 1.3961945025	-0.43547
C	 0.0556453975	-0.7694097213	 1.1936828833	 0.289509
N	 0.209702408	-0.5121782014	 2.4351931973	-0.264459
O	 0.3018858136	 0.8583504901	 2.72220041	-0.394733
H	 0.7197920625	 2.0248170385	 0.4045340278	 0.144662
H	-0.2554530691	 1.9089503563	-1.0781100155	 0.113518
H	-1.0224827546	 1.8994303511	 0.525183146	 0.137706
H	-0.0595732162	-0.4077161358	-2.1118223837	 0.100103
H	-0.5929942372	-2.8472195756	-1.2543253533	 0.11154
H	 1.1334604238	-2.5953935288	-1.0123200825	 0.132172
H	-1.0109277669	-2.6268928501	 1.0570413679	 0.085061
H	 1.078067975	-2.7085930867	 2.3011146885	 0.288235
H	 0.4009442756	 0.8592126238	 3.6799678684	 0.3068
