23
gdb 104314	2.73009	1.32753	1.23558	1.1217	84.74	-0.2418	0.0833	0.3251	1180.193	0.206008	-388.286687	-388.27756	-388.276616	-388.320026	35.871	
C	 0.0991518553	 1.3613258391	-0.0395929069	-0.246162
O	-0.0235695056	-0.0420129863	-0.0032553953	-0.287913
C	-1.349076156	-0.5743503728	 0.0444830661	 0.415932
C	-2.0831972583	-0.1385803129	 1.3214136066	-0.44249
C	-2.1743911282	-0.2416821037	-1.2353851978	-0.286199
C	-3.0574917626	-1.4802510046	-1.5013807385	-0.225827
C	-2.269196512	-2.6487690729	-0.9258737211	-0.026747
C	-0.8046150022	-2.7380947646	-1.2733240552	-0.304822
C	-1.2284901508	-2.0938035311	 0.0203232753	-0.046441
H	 1.1624054674	 1.5784793669	-0.1734226788	 0.123334
H	-0.4529946173	 1.8113741538	-0.8777297323	 0.101266
H	-0.2342673385	 1.8438938187	 0.8903347292	 0.103524
H	-2.2654173104	 0.9398331843	 1.339794068	 0.111406
H	-3.0542546894	-0.6387134923	 1.3873345684	 0.119748
H	-1.4991603341	-0.4061252527	 2.2074671286	 0.118984
H	-2.7661242929	 0.671534851	-1.1306810356	 0.093511
H	-1.4769153718	-0.0806376789	-2.062775991	 0.110296
H	-4.0132106838	-1.3900307887	-0.9713836613	 0.098577
H	-3.294021623	-1.5979847223	-2.5648657825	 0.096465
H	-2.7987877659	-3.5669979376	-0.6960060591	 0.076796
H	-0.3395423753	-3.7150695797	-1.2006782644	 0.106886
H	-0.3970417386	-2.1154928662	-2.0621768669	 0.113923
H	-0.982907886	-2.5883119867	 0.9537795747	 0.075956
