15
gdb 26860	3.0021	1.46787	0.99334	6.9716	73.65	-0.219	-0.0683	0.1507	1124.6544	0.112039	-453.998607	-453.990043	-453.989099	-454.032711	30.608	
C	 0.1101392711	 1.5000250961	 0.0339591663	-0.503034
C	-0.0504227086	 0.0149596033	 0.0157753366	 0.364979
C	-1.2249078738	-0.6745171958	 0.0067143757	 0.107221
N	-2.5039503523	-0.092374858	 0.0889083658	-0.59953
C	-1.0972421726	-2.0984661455	-0.0032202659	 0.026882
N	 0.0178058537	-2.7612645202	-0.0066512983	-0.325037
C	 1.2088140602	-2.0618433488	 0.0228008442	 0.429943
O	 2.3070029558	-2.5351636178	 0.0358701917	-0.338725
O	 1.1218070633	-0.6490451418	 0.0369786996	-0.242165
H	 1.0965028332	 1.7670308189	-0.3500748972	 0.163728
H	-0.6512246182	 1.9906073778	-0.5813105734	 0.133216
H	 0.0230157059	 1.8981391795	 1.0522375701	 0.159431
H	-2.5159431035	 0.8982409548	-0.1128915992	 0.247057
H	-3.1875651088	-0.5614387564	-0.4925759736	 0.25283
H	-2.0152061553	-2.6914879761	-0.0122836425	 0.123203
