15
gdb 46961	3.00562	1.8	1.28697	3.7767	65.99	-0.2636	-0.0002	0.2634	939.43	0.11575	-453.971554	-453.964799	-453.963855	-454.003393	25.409	
N	-0.04431064	 1.174033019	 0.3434822707	-0.520717
C	 0.0018865924	-0.0523243696	 0.0654572693	 0.415943
O	 1.1495813645	-0.7801721144	-0.0991663365	-0.237445
C	 0.8867324968	-2.0495679456	-0.7076918065	-0.116502
C	-0.6180811478	-2.3079801739	-0.5805266123	 0.055648
O	-0.9180958454	-3.2152344437	 0.5048901665	-0.226631
C	-1.6051256998	-2.4784373857	 1.4148620779	 0.115101
N	-1.8460646767	-1.2554599876	 1.1912848501	-0.24483
C	-1.2120900297	-0.9563935968	-0.1076913783	-0.108706
H	 0.8965576807	 1.5635640093	 0.4248253933	 0.226442
H	 1.1931605105	-2.0092632553	-1.7593349225	 0.12033
H	 1.4723344567	-2.8143380468	-0.1928161472	 0.137917
H	-1.0494577585	-2.7277752043	-1.4900749559	 0.110213
H	-1.9112561892	-3.0292220506	 2.2968679785	 0.152505
H	-1.9359561045	-0.4972920737	-0.7822525972	 0.120732
