21
gdb 122904	5.26466	0.55849	0.52109	4.8551	81.2	-0.2609	0.0241	0.2851	2115.2855	0.181136	-420.408349	-420.39739	-420.396446	-420.445685	37.799	
C	 0.0726531355	 1.4730956774	 0.0433350024	-0.383495
C	-0.0282696582	-0.0540859579	 0.0251060713	-0.185727
C	-1.4709789398	-0.5377995413	 0.0007299626	-0.036999
O	-1.4774801772	-1.9551726413	-0.0125780369	-0.255587
C	-2.7660416509	-2.5164263329	-0.0408893043	-0.065914
C	-2.5724437712	-4.0452758826	 0.0216630159	-0.12857
N	-1.846786236	-4.5254298486	 1.1987956803	-0.505683
C	-3.8788108616	-4.7092087573	-0.0742143302	 0.281922
N	-4.9242264937	-5.1953703919	-0.1442653822	-0.314458
H	 1.1173390744	 1.7955788586	 0.059467508	 0.122206
H	-0.3974359025	 1.915539738	-0.8417577806	 0.120004
H	-0.4189464636	 1.896052183	 0.9262579613	 0.11917
H	 0.4897241556	-0.4598268012	-0.8512802817	 0.110734
H	 0.4670664484	-0.47850081	 0.9060758338	 0.106579
H	-2.0191273189	-0.1665522996	 0.8831386138	 0.090811
H	-1.9928636995	-0.150344805	-0.8901501309	 0.093003
H	-3.367398451	-2.1822059404	 0.8211079938	 0.09793
H	-3.3071616414	-2.233870741	-0.9582063039	 0.107109
H	-1.9884585489	-4.3315045629	-0.862488828	 0.142412
H	-1.0009253067	-3.9665834177	 1.2749574286	 0.247848
H	-2.3941138029	-4.3395156955	 2.0355215169	 0.236704
