17
gdb 92970	2.70362	1.50777	1.11434	2.134	68.37	-0.2386	0.0082	0.2468	1082.8355	0.136888	-455.199739	-455.191179	-455.190235	-455.233656	31.455	
C	 0.4919640167	 1.7990276509	-0.2433795912	-0.405899
C	 0.1826881617	 0.3117679115	-0.2282049393	 0.09952
O	 1.2116225335	-0.3892492866	-1.0046810545	-0.224932
C	 1.8688418279	-1.1697034126	-0.1321861797	 0.118173
N	 1.4658386497	-1.2652702302	 1.0680090998	-0.295746
C	 0.2583920139	-0.4220838515	 1.1516584719	-0.099572
C	 0.2363426139	 0.5013659255	 2.3774005715	 0.384128
N	 1.2868011217	 0.3419331764	 3.2174880469	-0.518382
O	-0.6742820441	 1.2907333925	 2.5532174067	-0.376943
H	 1.4479343669	 2.0028361177	 0.2493797888	 0.125537
H	 0.5501105237	 2.1554954228	-1.2750591641	 0.122612
H	-0.2896222314	 2.3446682528	 0.2876080442	 0.160018
H	-0.7658655559	 0.1133146833	-0.7305892748	 0.106872
H	 2.7323401995	-1.6825410764	-0.5426262454	 0.145601
H	-0.6153065781	-1.0735212526	 1.2749913007	 0.122962
H	 1.9532742314	-0.3930093729	 3.0415786813	 0.275826
H	 1.2945314489	 0.8507787792	 4.0857414871	 0.260226
