18
gdb 14386	3.65222	2.1528	1.85728	1.1553	70.43	-0.2418	0.0787	0.3205	795.4208	0.15387	-347.750862	-347.743839	-347.742895	-347.781361	28.827	
C	-0.0262078498	 1.5666521824	 0.0449774539	-0.47001
C	 0.0773363291	 0.0477135146	 0.0154175928	 0.438995
O	-1.2201707154	-0.5325207142	 0.1262948005	-0.486142
C	 0.7845544681	-0.6600878499	-1.1347287287	-0.08622
C	 2.2766156356	-0.7729927909	-0.7782564016	-0.075991
C	 2.4884563345	-0.1325152441	 0.5941877634	-0.249299
C	 1.0895750717	-0.7021566406	 0.9459920438	-0.123383
C	 1.2748876985	-1.7543109109	-0.2229765986	-0.068658
H	 0.9345208625	 2.051714367	-0.1412390484	 0.122196
H	-0.7329252503	 1.9001389208	-0.7212504079	 0.124417
H	-0.3957143955	 1.9151855394	 1.0183548893	 0.101748
H	-1.6114042304	-0.2100811474	 0.9456253278	 0.271203
H	 0.4374353155	-0.7499974119	-2.1564329941	 0.084186
H	 3.0110117325	-0.9450297298	-1.5552853182	 0.083767
H	 3.2797351758	-0.6507088433	 1.1441572621	 0.098283
H	 2.6445629578	 0.9489914974	 0.6747554056	 0.086261
H	 0.8032183966	-0.9182466848	 1.9748414318	 0.058749
H	 1.1950862731	-2.8289720437	-0.2793318336	 0.089896
