14
gdb 20566	4.71292	1.40227	1.38012	3.0156	59.63	-0.2774	-0.0436	0.2338	924.8796	0.106135	-415.834972	-415.827416	-415.826472	-415.867365	26.962	
C	 0.0221202536	 1.5860528838	 0.1008249314	-0.406448
C	 0.0298378247	 0.061931217	-0.0615818332	 0.010587
O	 0.8084733116	-0.5792633614	 0.9376858016	-0.417902
C	-1.3638497068	-0.5004611652	-0.0889457723	 0.433725
C	-2.1037727747	-1.1552875037	-1.0236077822	-0.224035
N	-3.3239499828	-1.4296535896	-0.4509766432	-0.102437
N	-3.3751406066	-1.0066696328	 0.7264331901	-0.006415
O	-2.1014265606	-0.3776722622	 1.0139532031	-0.238537
H	 1.0518700706	 1.9498973268	 0.1312262861	 0.135089
H	-0.5011072342	 2.0687906638	-0.7301752796	 0.130061
H	-0.4816989888	 1.8709778821	 1.0298996208	 0.133029
H	 0.5080116535	-0.2023948885	-1.0098595843	 0.114772
H	 0.3922869345	-0.4088918242	 1.7908292249	 0.293811
H	-1.8639637839	-1.4470522558	-2.0313286831	 0.144702
