20
gdb 60246	3.26022	1.08403	0.85509	4.5366	77.74	-0.248	0.0222	0.2701	1377.3443	0.170793	-440.315244	-440.305965	-440.30502	-440.349891	34.036	
C	-0.0424095955	 1.6152621056	 0.1313219236	-0.379257
C	-0.0264819388	 0.1204731484	 0.4402036701	 0.119285
O	-0.116600638	-0.0217254367	 1.8383604748	-0.446394
C	-1.1917864471	-0.5826939301	-0.2824465243	-0.165347
N	-1.1525108593	-2.0310581153	-0.1739370877	-0.0897
C	-1.8489730143	-3.0488272557	-0.9725603182	-0.165731
C	-1.2446746947	-4.1159496539	-0.0197703981	-0.360788
C	-0.6231133956	-2.9196962661	 0.7217516919	 0.429555
O	 0.0640763425	-2.7798015348	 1.7120399737	-0.406373
H	 0.7707517958	 2.1054921788	 0.6714735928	 0.12942
H	 0.0806232829	 1.8072089982	-0.9387858659	 0.105846
H	-0.9850688173	 2.0623704271	 0.4637622763	 0.121899
H	 0.9135958412	-0.3136962111	 0.0600274031	 0.071658
H	 0.0526520153	-0.9587062639	 2.0448158384	 0.304309
H	-2.1368633556	-0.1986634203	 0.1274093663	 0.116322
H	-1.1655195054	-0.3348110978	-1.3510000838	 0.105484
H	-2.9405560098	-2.9630931365	-0.9419157412	 0.117635
H	-1.5156120024	-3.0927824789	-2.0147232493	 0.115732
H	-1.9633746295	-4.6838342522	 0.5730928116	 0.138594
H	-0.5189739344	-4.7960444349	-0.4684865538	 0.137851
