18
gdb 114296	2.33161	1.54948	1.13761	1.6881	77.97	-0.2341	0.0324	0.2665	1126.8763	0.146024	-401.846975	-401.83821	-401.837266	-401.880591	32.628	
C	-0.0296148801	 1.3685416955	-0.1300499639	-0.238664
O	-0.0424552316	 0.0591008518	 0.3947205554	-0.236674
C	-1.2558032409	-0.6038476089	 0.1909875194	 0.134385
C	-1.6284392856	-1.202599163	-1.2003896837	-0.219767
N	-1.8476187078	-2.5658955893	-0.5888913767	-0.151007
C	-0.5254815541	-2.9996539885	-0.0604605049	-0.204835
C	 0.7195847918	-2.7414296509	-0.7282166695	 0.373794
C	 1.7629949136	-2.6097422558	-1.311260979	-0.457304
C	-1.3183413886	-2.0196787239	 0.7294198729	-0.084841
H	 0.9438603264	 1.8029465378	 0.1073169029	 0.13165
H	-0.1634016778	 1.3756714902	-1.2220793958	 0.110765
H	-0.8184441067	 1.9931329381	 0.3185996221	 0.104619
H	-2.0912257066	-0.0030808147	 0.5819053829	 0.07907
H	-2.5649934174	-0.8308474832	-1.6182457908	 0.111912
H	-0.8424817838	-1.1845453308	-1.958973028	 0.125629
H	-0.6034953128	-4.0142913808	 0.3251829876	 0.122781
H	 2.69105696	-2.4679252781	-1.8074138531	 0.198584
H	-1.7492679479	-2.3054774255	 1.6839348021	 0.099902
