19
gdb 90576	3.40903	1.26653	1.01045	2.631	83.16	-0.2357	-0.0154	0.2203	1202.7858	0.159413	-385.895488	-385.88738	-385.886435	-385.928221	31.398	
C	-0.333466078	 1.5102849954	-0.0316511582	-0.393752
C	 0.0079386287	 0.0238142085	 0.0857781871	-0.087217
C	 1.1757279875	-0.4356178854	-0.8798643083	-0.255737
C	 2.1711682511	-0.3440346752	 0.3305133136	-0.161957
C	 0.9546991159	-0.3599975948	 1.208227966	 0.301979
C	 1.0589648144	-1.1610772742	 2.2689997253	-0.249684
C	 2.4680247002	-1.7170156513	 2.355265138	-0.352734
C	 3.0158323622	-1.489513024	 0.9128658021	 0.363765
O	 3.8922771601	-2.1135749398	 0.3827917877	-0.29529
H	 0.5656657139	 2.1332026511	 0.0218893687	 0.118415
H	-0.8304437244	 1.7172971696	-0.9850464053	 0.117601
H	-1.0039613393	 1.8224809735	 0.7750371425	 0.122653
H	-0.9080556253	-0.5728326011	 0.0324722154	 0.080409
H	 1.0462267003	-1.459954245	-1.234645861	 0.11921
H	 1.3813499595	 0.2220174288	-1.7277229361	 0.107659
H	 2.7671994325	 0.5754496993	 0.3102476756	 0.10362
H	 0.2477014098	-1.5170077617	 2.8938570272	 0.098996
H	 3.1217539943	-1.1925943402	 3.0670678217	 0.131946
H	 2.5095734267	-2.7790233435	 2.619432738	 0.130116
