18
gdb 23099	2.29289	1.36579	1.01298	0.9895	80.81	-0.2443	0.0017	0.246	1213.6511	0.146913	-401.890588	-401.881776	-401.880832	-401.924256	33.43	
O	-0.1709835207	 1.3511574115	 0.2751355058	-0.393805
N	-0.0006174041	-0.044477134	 0.2983446922	-0.221826
C	-1.0788886907	-0.6397587199	-0.01143399	 0.411252
C	-2.4329126831	-0.0414350184	-0.3233461542	-0.291058
C	-3.3427144383	-1.2610162244	-0.5813896094	-0.220119
C	-2.6706872589	-2.4088314048	 0.1963252367	-0.21997
C	-1.1523243724	-2.1671798842	-0.0271586519	-0.250865
C	-0.7005407449	-2.7068599802	-1.3088505331	 0.354826
C	-0.3501944682	-3.1526717514	-2.3690028546	-0.491534
H	 0.7025742562	 1.6660579773	 0.5308012703	 0.306925
H	-2.7652026163	 0.546229161	 0.5412451186	 0.129231
H	-2.3782679942	 0.6577702584	-1.162584668	 0.131904
H	-4.3770804727	-1.0918470815	-0.2731228094	 0.101878
H	-3.3516555714	-1.5021703645	-1.6491314665	 0.119748
H	-2.8844335817	-2.3176171533	 1.2674418612	 0.104643
H	-2.9857087086	-3.4013679959	-0.1307799613	 0.113284
H	-0.5405617189	-2.5880333916	 0.776076699	 0.117855
H	-0.0240482713	-3.543638224	-3.3007716054	 0.197631
