19
gdb 69271	2.58465	1.68905	1.21017	4.6887	75.81	-0.2392	0.0457	0.2848	1063.7767	0.161363	-419.237095	-419.228999	-419.228054	-419.269388	31.732	
C	-0.0312207601	 1.4865948634	 0.0735222716	-0.458143
C	-0.0273166646	-0.0215526358	-0.061391243	 0.320663
C	 0.7381915129	-0.6610449037	-1.1794226456	-0.291705
N	 1.269160783	-0.6658977001	 0.1799123953	-0.143602
C	 1.3299249835	-1.8798975395	 0.8991661035	 0.391547
O	 2.1432965174	-2.7480572326	 0.6619113469	-0.386145
N	 0.4324126598	-1.9472648974	 1.9393098165	-0.317374
C	-0.7885327304	-1.1537166201	 1.9994118882	-0.151777
C	-1.2032378212	-0.7518316554	 0.5746626378	-0.290276
H	 0.9169747531	 1.9063494856	-0.2703896813	 0.133582
H	-0.8440696663	 1.9238443803	-0.516706725	 0.119693
H	-0.1733299091	 1.7881536087	 1.117504981	 0.121991
H	 0.3819392218	-1.6067993999	-1.5805275108	 0.127454
H	 1.2778612914	-0.0393293609	-1.8888940172	 0.121522
H	 0.4835078774	-2.807803154	 2.4604240636	 0.251999
H	-1.5706491772	-1.7481385279	 2.4810270074	 0.112791
H	-0.6449261004	-0.2536386044	 2.6140055332	 0.11547
H	-2.0898763344	-0.1118117545	 0.5999892262	 0.109186
H	-1.4577795766	-1.6557361919	 0.0120992015	 0.113123
