19
gdb 59703	2.2693	1.37966	1.01599	4.7284	71.85	-0.2397	-0.0235	0.2161	1216.7064	0.156546	-460.141978	-460.132255	-460.131311	-460.178044	34.279	
C	 0.0403605104	 1.5479367887	 0.1392130585	-0.416054
C	 0.0645270629	 0.0213103049	 0.085476985	 0.118592
O	-1.2302340414	-0.5347906979	 0.31135495	-0.436065
C	 0.6461504998	-0.4988350069	-1.2260895534	-0.081779
C	 2.1759513589	-0.3890227725	-1.4145586357	-0.08349
O	 2.322728701	-1.8193844314	-1.4853324301	-0.265035
C	 0.9155859868	-2.0354611167	-1.3386747456	 0.034504
C	 0.5426242158	-2.8871379363	-0.1386297243	 0.15251
O	 1.3037736594	-3.1680526	 0.7492555662	-0.246554
H	 1.0470702464	 1.9674458214	 0.0443061305	 0.126214
H	-0.5693801704	 1.9563242778	-0.6769354236	 0.108509
H	-0.3857364926	 1.8846060418	 1.08766495	 0.134145
H	 0.671988859	-0.3605492759	 0.9141963504	 0.116515
H	-1.8328374399	-0.1560477157	-0.3389515882	 0.278964
H	 0.0659487253	-0.1079964054	-2.0680808847	 0.074712
H	 2.5090510462	 0.1050957321	-2.3346817502	 0.105347
H	 2.7231110306	 0.0342668863	-0.5625178862	 0.109975
H	 0.4738707611	-2.4968855815	-2.2354503955	 0.087053
H	-0.5133884294	-3.2331551027	-0.1441614232	 0.081936
