15
gdb 1421	5.84332	1.34764	1.17766	0.5858	59.36	-0.2545	-0.0412	0.2133	963.3698	0.121569	-345.674176	-345.665811	-345.664867	-345.70828	27.478	
C	-0.1144836445	 1.6085334875	-0.038265679	-0.410591
C	-0.012100966	 0.0752862227	-0.0238696435	-0.07348
C	 0.7419814907	-0.4425127606	 1.2286976851	-0.286694
C	 2.1998571297	-0.0344668958	 1.1944033562	 0.159073
O	 2.7390255863	 0.6638667323	 2.0120752985	-0.231807
C	-1.399602462	-0.5424835255	-0.0344695361	 0.159146
O	-1.7777266274	-1.3768731234	-0.8134879985	-0.241605
H	 0.8744370781	 2.070474941	 0.0279403843	 0.142137
H	-0.5940517108	 1.961338419	-0.9557682789	 0.134029
H	-0.7023950159	 1.9689090153	 0.8133837033	 0.130352
H	 0.4991400423	-0.2848113875	-0.9236883455	 0.103196
H	 0.2912261729	-0.0631954742	 2.1508535299	 0.126006
H	 0.7036714632	-1.5402951175	 1.2424304706	 0.132651
H	 2.7617238686	-0.433568259	 0.3178254196	 0.081209
H	-2.0701297951	-0.1593352643	 0.7717396541	 0.076376
