17
gdb 22008	4.22093	1.01169	0.82025	2.6965	81.74	-0.199	0.0011	0.2001	1342.0723	0.136226	-418.010735	-418.001889	-418.000944	-418.04545	32.484	
C	-0.0275996673	 1.5003180404	 0.0000261219	-0.509034
C	-0.0145961329	-0.0075620305	 0.0337348726	 0.279894
N	-0.0081015586	-0.7175042026	 1.1056197671	-0.200628
O	-0.0097025627	 0.0594206535	 2.2761362151	-0.399636
C	-0.0044020372	-0.7397541443	-1.2314718768	 0.246817
C	 0.0030014392	-0.1784380628	-2.4967110852	-0.180779
N	 0.0146006705	-1.196242667	-3.4106852397	-0.250389
C	 0.0156102574	-2.4076809312	-2.7585594024	-0.064376
C	 0.0044207948	-2.1602967503	-1.4118368806	-0.256251
H	 0.8978958938	 1.8774934244	-0.4492796891	 0.132643
H	-0.8581026259	 1.8572780286	-0.617729001	 0.129115
H	-0.1251783584	 1.9151951367	 1.0008865273	 0.154858
H	-0.0191450465	-0.6186743285	 2.9592506925	 0.303401
H	 0.0034987891	 0.8514955434	-2.8134938804	 0.120854
H	 0.0209376024	-1.0745857687	-4.407701637	 0.262316
H	 0.0232068553	-3.3337848092	-3.310361567	 0.121583
H	 0.0019297068	-2.8915274719	-0.6206140872	 0.109611
