22
gdb 85422	2.32759	1.40704	1.10726	3.9348	82.09	-0.234	0.0375	0.2716	1213.2063	0.194052	-404.413706	-404.404234	-404.40329	-404.447222	37.016	
C	-0.1944013185	 1.5491814005	-0.0342990169	-0.416137
C	 0.0633256529	 0.0451879784	-0.0066866557	 0.035366
N	 0.9534423842	-0.3821348289	-1.0784763565	-0.312437
C	 1.7077627651	-1.4887874819	-0.7883349163	 0.398087
O	 2.4229397694	-2.0889236794	-1.5601793505	-0.381602
C	 1.4417148364	-1.8073787472	 0.6846085649	-0.367428
C	 0.7759620944	-0.5358680311	 1.2632089644	 0.278725
C	 1.8663067183	 0.4137937647	 1.7894218024	-0.426004
C	-0.2296098631	-0.8460021902	 2.3764318391	-0.442104
H	 0.7376632101	 2.1186913742	-0.0028873423	 0.12993
H	-0.7304824734	 1.8279540603	-0.9478960402	 0.11643
H	-0.8182136309	 1.8503862917	 0.812879797	 0.124689
H	-0.9106534985	-0.4635449995	-0.1016436796	 0.072596
H	 0.8453125514	-0.0820672055	-2.0352780599	 0.244763
H	 0.7615074044	-2.6675259771	 0.7195608664	 0.119619
H	 2.363112713	-2.0990108788	 1.1931170612	 0.122918
H	 2.5833443958	 0.6774089067	 1.0058113236	 0.127081
H	 1.4417253525	 1.3398887049	 2.1882176956	 0.113652
H	 2.4214123207	-0.0694725074	 2.5999072655	 0.115737
H	 0.2717412137	-1.2975751676	 3.2388830304	 0.118519
H	-0.7300214098	 0.0632517644	 2.728212191	 0.114074
H	-1.0012681483	-1.544005391	 2.0349323464	 0.113525
