18
gdb 89325	1.97414	1.74435	1.20094	5.4891	78.24	-0.2576	0.0217	0.2792	1100.1933	0.14672	-401.940185	-401.931279	-401.930335	-401.973529	33.417	
C	 0.0194340414	 1.5514725242	 0.0418867304	-0.493308
C	-0.0260459941	 0.0524820856	 0.042726207	 0.293164
C	 1.1379757709	-0.8086805502	-0.3331307318	-0.369964
C	 0.5769918148	-0.9431317586	 1.0702809923	 0.17391
C	 1.3564922242	-0.6856278003	 2.2343460979	 0.200558
N	 1.9964313603	-0.4567220888	 3.1717241069	-0.360422
C	-0.6973844197	-1.7973416746	 1.0234501685	 0.060667
O	-1.3268163786	-1.7871217787	 2.2793248501	-0.420714
C	-1.3070329625	-0.7947463604	-0.0146002103	-0.316562
H	 1.0105251289	 1.9165623905	 0.3280367151	 0.136209
H	-0.2077850744	 1.9453287891	-0.9558297758	 0.12794
H	-0.710119167	 1.9690848186	 0.7430502297	 0.133032
H	 1.0236490024	-1.6414605365	-1.0240046799	 0.117606
H	 2.0991835109	-0.3087653704	-0.3890971287	 0.138496
H	-0.5393117825	-2.8235813328	 0.6612632564	 0.074737
H	-2.1363788928	-2.304210806	 2.2182255348	 0.290712
H	-2.1621680431	-0.2869052476	 0.4372204381	 0.115523
H	-1.5851923692	-1.183477273	-0.9995333407	 0.098418
