19
gdb 114148	4.19622	0.98505	0.87952	1.7994	84.48	-0.2292	0.0194	0.2487	1368.5624	0.157116	-385.819537	-385.81055	-385.809605	-385.853188	34.23	
C	-0.099362635	 1.5004594178	-0.1791358902	-0.379145
C	-0.0062532521	 0.019842798	 0.2054856287	-0.206838
C	-1.3419603597	-0.6892731247	 0.0834228049	 0.147741
O	-1.894531151	-0.6706969431	-1.2720391692	-0.336999
C	-2.139391233	-2.0842367741	-1.213311247	 0.31963
C	-0.8346854638	-2.8252885895	-1.1051793448	-0.339628
C	-1.4366759072	-2.213187823	 0.1365396372	-0.213777
C	-3.3597285623	-2.606860609	-1.7183519367	 0.216668
C	-4.3900594832	-3.0491089318	-2.1546221753	-0.416643
H	 0.8747573648	 1.9909975901	-0.0963360576	 0.112638
H	-0.450527972	 1.6059521556	-1.2093028812	 0.14008
H	-0.8007131763	 2.0354658886	 0.4705575176	 0.114661
H	 0.7346429222	-0.4847896286	-0.4240540107	 0.100496
H	 0.3360585482	-0.0833137206	 1.243659787	 0.099753
H	-2.0768363201	-0.232559637	 0.7604598334	 0.085926
H	-0.9115026472	-3.9063049963	-1.1535908464	 0.12958
H	 0.0426715757	-2.3987986308	-1.5818340403	 0.122508
H	-1.7235374774	-2.7994199698	 0.9985934519	 0.110804
H	-5.3010960604	-3.4363294717	-2.5388276215	 0.192545
