18
gdb 126519	3.20731	0.98241	0.79573	3.4278	75.2	-0.2204	0.0009	0.2213	1444.6781	0.148331	-435.276359	-435.267337	-435.266393	-435.31137	32.49	
C	 0.1019391164	 1.6303938766	 0.1330885872	-0.381067
C	 0.1325376375	 0.1009778099	 0.1107101866	-0.158288
C	 0.6001233258	-0.4603401958	-1.2476495062	-0.320658
C	 0.6274478378	-1.950505369	-1.3140879407	 0.257954
C	-0.1963414658	-2.8770828294	-1.9182433857	 0.287325
O	-1.2933285713	-2.6249699179	-2.6626279943	-0.43441
N	 0.2448333741	-4.1311634366	-1.6690208207	-0.279809
N	 1.3219221641	-4.0573069448	-0.92577177	-0.129525
N	 1.5495797516	-2.755931547	-0.7111792566	-0.230604
H	 1.093843587	 2.0513426264	-0.0662573564	 0.115204
H	-0.5821651903	 2.0229766089	-0.6271126612	 0.121475
H	-0.2299990597	 2.0055227943	 1.1056474713	 0.118295
H	 0.7950637503	-0.2686159648	 0.9039049108	 0.093024
H	-0.8625971872	-0.2997712645	 0.3348814693	 0.114515
H	-0.0714330132	-0.106570929	-2.0371323903	 0.132863
H	 1.5927413912	-0.0535248651	-1.4848770802	 0.109043
H	-1.6312582371	-3.4802118685	-2.9563485707	 0.306842
H	 2.348266949	-2.4852873437	-0.159444162	 0.277825
