20
gdb 118280	6.03456	0.55553	0.52574	5.4492	77.74	-0.2776	0.0404	0.3181	2047.5139	0.169025	-440.291993	-440.28142	-440.280475	-440.328683	36.557	
C	 0.0004304901	 1.3539311351	 0.2378268521	-0.231948
O	-0.0476325471	-0.0509229027	 0.1218177425	-0.250935
C	-1.3479669613	-0.5554460352	-0.1115336713	-0.086058
C	-1.2366770544	-2.0764469521	-0.059581758	 0.112676
O	-0.6720244391	-2.4761880346	 1.1780790384	-0.444507
C	-2.5939823879	-2.7577905184	-0.198136025	-0.189695
C	-2.4592166958	-4.2911651111	-0.1197810705	-0.34406
C	-3.7470197117	-4.9704033548	-0.2317556278	 0.255562
N	-4.7743865815	-5.4915140072	-0.3244205893	-0.308595
H	 1.039833448	 1.6300664843	 0.4290925155	 0.133655
H	-0.3348197927	 1.8470298265	-0.6869092672	 0.112875
H	-0.6254948019	 1.7137263979	 1.0684241117	 0.113128
H	-2.0420841518	-0.2036897457	 0.6693521996	 0.096632
H	-1.7307964702	-0.2207404678	-1.0891677802	 0.093674
H	-0.5844493856	-2.3925504654	-0.8927589112	 0.074077
H	 0.0733157539	-1.8822983804	 1.3318588328	 0.294086
H	-3.2551382844	-2.4135589713	 0.6041049242	 0.126728
H	-3.0531710707	-2.473382077	-1.1505392326	 0.118097
H	-1.8022524459	-4.6564026047	-0.9180117775	 0.147958
H	-1.9880106999	-4.5649528655	 0.8286335238	 0.176653
