20
gdb 100588	3.9596	0.77688	0.7046	1.15	79.07	-0.2728	-0.0219	0.251	1659.0908	0.16841	-440.329987	-440.319412	-440.318467	-440.366773	36.533	
C	-0.1393271905	 1.6057427849	 0.2264566643	-0.398338
C	-0.051171315	 0.0785270397	 0.1630310926	-0.167627
C	-1.40432415	-0.6092543049	-0.0769123477	-0.103513
C	-2.0155472163	-0.3032643181	-1.4613519549	-0.405843
C	-1.2713146419	-2.1101383901	 0.0877636315	 0.469017
O	-0.2505690859	-2.7404702287	 0.1318330006	-0.339889
O	-2.5225024564	-2.685414099	 0.1737208102	-0.21367
C	-2.6022181683	-4.0491967309	 0.2964298434	 0.114118
N	-3.7459629701	-4.5688230999	 0.3627672077	-0.421411
H	 0.839420805	 2.0370246248	 0.4563280323	 0.119421
H	-0.4729975375	 2.0401146922	-0.7208029726	 0.120517
H	-0.836359214	 1.9325506864	 1.0065473579	 0.116077
H	 0.647047768	-0.2280784138	-0.6240043705	 0.111684
H	 0.3719200997	-0.301470947	 1.0990501197	 0.109801
H	-2.1249434122	-0.2805974943	 0.6836186332	 0.108959
H	-2.9632957267	-0.8290284285	-1.5949758217	 0.143592
H	-2.2034924261	 0.767621361	-1.5667087374	 0.128609
H	-1.3329051658	-0.6085749121	-2.2615932832	 0.127148
H	-1.6246462904	-4.5309683836	 0.3232688333	 0.142333
H	-3.6586216156	-5.5802370681	 0.4528545214	 0.239014
