16
gdb 14691	8.20767	0.63366	0.61449	1.0989	76.37	-0.2501	0.0303	0.2804	1795.6702	0.126867	-346.519817	-346.510201	-346.509257	-346.55619	32.226	
C	-0.1276678574	 1.3718811476	-0.4104772567	-0.21859
O	-0.1209082304	-0.0365941973	-0.424233188	-0.227737
C	-1.1061517739	-0.5791719796	 0.4334384913	-0.200785
C	-1.0692346578	-2.0344901141	 0.3849644843	 0.005102
C	-1.0608148044	-3.2362515486	 0.3600604877	 0.16302
C	-1.0338806726	-4.6992650661	 0.3256752519	-0.494976
C	-2.2410591228	-5.2986248875	-0.2468596541	 0.317789
C	-3.2265763323	-5.8021002367	-0.7118636873	-0.444099
H	 0.6565666661	 1.7051252665	-1.0936178199	 0.131577
H	-1.0931682288	 1.7808274887	-0.7491324324	 0.10534
H	 0.0802908317	 1.773505544	 0.5943867445	 0.104485
H	-0.9442818565	-0.2348372457	 1.4702596512	 0.113694
H	-2.1098210327	-0.2242036997	 0.1398957147	 0.116975
H	-0.1573873624	-5.0288376764	-0.2492839006	 0.166254
H	-0.8823389542	-5.0891494933	 1.3417403715	 0.161275
H	-4.0995209516	-6.2423843017	-1.125940388	 0.200674
