20
gdb 70272	3.73156	1.02015	0.90815	1.8417	79.77	-0.2483	-0.0258	0.2224	1322.0159	0.171252	-403.155417	-403.146786	-403.145841	-403.188976	32.77	
C	-0.1048779684	 1.50785548	 0.048775071	-0.466734
C	-0.031742367	 0.0019209916	 0.0622223495	 0.343043
C	-1.2383934208	-0.7918411742	-0.4293254844	-0.30406
C	-1.0138203255	-2.2494772743	 0.0577720251	-0.091479
C	-0.1245496534	-2.1018857765	 1.3260987584	-0.261607
C	 0.641328334	-0.8074287719	 1.1166472368	-0.053391
N	 1.2961798341	-0.588435102	-0.1834504258	-0.371684
C	-2.3174324584	-2.9489824336	 0.3648196722	 0.153366
O	-2.6989708304	-3.9704149967	-0.1424302022	-0.246422
H	 0.8168518546	 1.9377914905	 0.4475792009	 0.132093
H	-0.2344839957	 1.883907915	-0.972524426	 0.120755
H	-0.94907312	 1.8672902032	 0.6478223241	 0.113593
H	-2.1458484644	-0.3726672965	 0.0270916974	 0.105579
H	-1.3763689256	-0.7409954683	-1.5147560419	 0.115721
H	-0.5078084938	-2.8447341323	-0.705946334	 0.096823
H	-0.748165349	-2.0081818464	 2.2257964471	 0.10833
H	 0.5191964744	-2.9752132047	 1.4725199393	 0.119003
H	 1.1461076331	-0.3569515146	 1.9669347694	 0.090696
H	 1.2456401986	-1.4173993499	-0.7708510216	 0.226277
H	-2.9327950764	-2.4241744584	 1.1362918246	 0.070102
