18
gdb 13487	3.10704	1.70755	1.17643	0.9827	68.78	-0.2556	-0.0319	0.2237	1033.0148	0.151583	-384.944551	-384.935956	-384.935012	-384.977755	31.085	
C	-0.0593027784	 1.4763405725	-0.165179437	-0.396615
C	 0.0068994403	-0.0403578399	 0.0501057471	 0.015733
C	 0.8459415657	-0.4221157328	 1.2773825235	-0.402847
C	-1.401991247	-0.6183503201	 0.1878014548	 0.021628
O	-2.2542948392	-0.3909744238	-0.967383528	-0.296038
C	-2.4792754707	-1.7929927046	-1.2118647255	-0.188431
C	-1.5691319905	-2.1301690259	-0.0250394138	 0.338469
O	-1.1460715402	-3.1226728402	 0.4850082972	-0.277291
H	 0.9420668264	 1.8863291894	-0.3307778019	 0.113878
H	-0.6805427452	 1.7202407562	-1.030744968	 0.136145
H	-0.4854476418	 1.9769284804	 0.712303438	 0.113216
H	 0.4606609028	-0.4955049469	-0.8408938347	 0.078565
H	 0.8678246187	-1.5054882659	 1.4258266216	 0.141919
H	 1.8753837035	-0.0695531043	 1.1622440459	 0.117396
H	 0.4386213289	 0.0351380054	 2.1867904581	 0.115565
H	-1.8787887961	-0.2500064674	 1.1091601762	 0.101988
H	-3.5292017594	-2.0888188325	-1.0888427435	 0.132448
H	-2.1219490379	-2.1234298599	-2.1953009697	 0.134271
