19
gdb 40528	3.99595	1.15693	1.11604	1.6944	82.36	-0.2193	0.0031	0.2224	1163.9132	0.160974	-385.833843	-385.826577	-385.825633	-385.865913	29.067	
C	 0.2473321	 1.4391125733	 0.0363524492	-0.18704
O	 1.1788446828	 0.3900109719	-0.1954986919	-0.234824
C	-0.1965554553	 0.0316263262	 0.0528271829	-0.09036
C	-0.4782656648	-0.6964958103	 1.2915254341	 0.418424
C	-1.3583795574	-1.6742136374	 1.5451576608	-0.225971
C	-1.1342500193	-1.9799494446	 3.0317062899	-0.063676
C	-1.0276717085	-0.5245670921	 3.6067077528	-0.210192
C	 0.215383787	-0.4923277548	 2.6509063507	-0.128305
C	 0.4340837945	-1.983819354	 3.0761339538	-0.205977
H	 0.36615154	 1.9757283146	 0.9767044323	 0.113414
H	 0.0106635313	 2.0609159768	-0.826770858	 0.115668
H	-0.7220051899	-0.3330290354	-0.8302108175	 0.091481
H	-2.0674264021	-2.1530265037	 0.8841779543	 0.100172
H	-1.7377016684	-2.7547162982	 3.5033771715	 0.061355
H	-1.8495976429	 0.163046782	 3.3922911273	 0.090949
H	-0.7591211545	-0.4936879299	 4.6674436034	 0.093139
H	 1.0034197358	 0.2555990053	 2.7239329992	 0.070715
H	 0.8399386212	-2.0896454872	 4.0872524815	 0.092834
H	 0.9578589608	-2.6355865822	 2.3735088338	 0.098194
