18
gdb 88812	3.11644	1.09218	0.90226	2.9505	73.42	-0.2375	0.0421	0.2796	1289.9778	0.147438	-439.08295	-439.074075	-439.073131	-439.117561	32.408	
O	 0.0830398404	 1.4787197791	 0.6248795675	-0.417791
C	 0.1071792623	 0.1181578863	 0.2992227366	 0.081031
C	-0.6067091807	-0.8710782344	 1.1821401049	-0.327581
C	-1.1902885466	-0.4883304911	-0.1655227417	-0.019315
C	-2.4425255816	 0.3405859109	-0.2219837326	-0.153928
C	-2.9273942235	 0.8426520949	-1.6193999834	-0.182639
N	-4.1499042168	 0.0655907576	-1.399903774	-0.32349
C	-3.7918164329	-0.4349713641	-0.171393499	 0.413326
O	-4.3356188122	-1.1792056757	 0.5997568345	-0.363991
H	 0.6118722862	 1.6033881593	 1.4194862927	 0.290865
H	 1.0170393422	-0.2109197428	-0.2024754519	 0.088167
H	-0.1916895617	-1.8645473014	 1.3091740582	 0.11615
H	-1.1084530273	-0.4732847328	 2.0580026363	 0.124974
H	-1.1074329573	-1.2361445316	-0.9501233154	 0.090055
H	-2.4032836271	 1.1411066676	 0.5189510504	 0.110774
H	-3.0846466255	 1.9224966431	-1.700088879	 0.114764
H	-2.322853642	 0.496158107	-2.4642282398	 0.109966
H	-4.9873514759	-0.0502538718	-1.9506638642	 0.248664
