21
gdb 108533	2.70979	1.69202	1.27487	1.2362	81.94	-0.2329	0.0956	0.3285	1072.6987	0.183971	-387.055953	-387.048202	-387.047258	-387.088067	31.318	
C	-0.054412455	 1.5650998094	-0.0212933587	-0.37888
C	 0.1225373704	 0.0427234795	 0.0385672734	-0.288381
C	 0.7013864846	-0.5324258785	-1.230531286	 0.520044
O	 2.0046959293	 0.0001019832	-1.4603310089	-0.329269
C	 2.409898739	-0.6330521063	-2.6799021533	-0.113871
C	 1.1903249285	-1.4913490457	-2.9685089844	-0.05769
C	 0.6933381247	-2.0556774682	-1.5937565626	-0.129976
C	-0.7620518422	-1.9228631604	-2.0969887931	-0.261169
C	-0.0671526018	-0.6352235856	-2.5946392395	-0.120809
H	 0.9004574345	 2.055012272	-0.2261584399	 0.137102
H	-0.755421262	 1.8502961397	-0.8129543033	 0.112576
H	-0.4446859073	 1.9502080675	 0.9254617319	 0.107803
H	 0.7945019578	-0.2192258504	 0.8647848625	 0.10731
H	-0.8374614109	-0.440139884	 0.2493050447	 0.101554
H	 2.6050202964	 0.1208495294	-3.453543204	 0.098721
H	 3.3261421927	-1.2152772459	-2.5182237858	 0.099225
H	 1.1728259327	-2.1250093386	-3.85552012	 0.070974
H	 1.1418838395	-2.8707679852	-1.0229887244	 0.068083
H	-1.0653092703	-2.6312431712	-2.8719667276	 0.093615
H	-1.5482204073	-1.8146421874	-1.3458312585	 0.094046
H	-0.4935058733	 0.1821202366	-3.1786181926	 0.068992
