14
gdb 47156	3.44981	1.12649	0.85819	2.3667	67.96	-0.287	-0.0565	0.2305	1237.4475	0.101472	-436.750417	-436.742624	-436.74168	-436.783788	27.667	
O	-0.2107202681	 0.1339890095	-0.9241116865	-0.349962
C	-0.1050875816	 1.2203458206	-0.4276577653	 0.41728
O	-1.0873912039	 2.1707219088	-0.4701001687	-0.226947
C	-0.6481074203	 3.346043894	 0.2118034873	-0.131587
C	 0.7354807452	 3.0296737365	 0.6949404203	-0.198207
C	 1.0471538192	 1.7901006667	 0.3197880371	 0.15416
C	 2.2818727373	 0.9630153628	 0.5250758589	-0.447705
C	 3.3175413515	 1.6615436869	 1.2813680946	 0.27029
N	 4.120068155	 2.2361649664	 1.8811593365	-0.30443
H	-0.6700132601	 4.1932276891	-0.4848076653	 0.146537
H	-1.3432262628	 3.5649073613	 1.031787034	 0.146571
H	 1.3480924477	 3.7242375838	 1.2549023781	 0.15484
H	 2.0196708279	 0.0299201771	 1.0390508282	 0.184616
H	 2.6849681331	 0.6537880367	-0.4473267191	 0.184544
