17
gdb 86696	1.88591	1.60427	1.10058	3.8768	75.	-0.2419	-0.0186	0.2233	1145.293	0.133129	-421.779133	-421.769935	-421.768991	-421.813469	33.564	
O	-0.2311783273	 1.1710736543	 1.205448802	-0.415902
C	-0.0333508541	 0.1726882974	 0.2293334752	 0.111698
C	 0.509592435	-1.1615116442	 0.808029246	-0.283045
C	-0.9533185776	-1.7002172843	 0.9330188387	-0.109491
C	-1.5114673219	-1.5617950604	 2.3304425863	 0.159393
O	-1.9983929251	-2.4746412098	 2.9482012351	-0.258093
C	-1.3875838753	-0.5509799516	-0.0555938972	-0.214604
C	-2.6357172806	 0.150551146	 0.1525682721	 0.339235
C	-3.6852147676	 0.7098261108	 0.326891048	-0.43683
H	 0.6330517293	 1.4782008891	 1.4989418269	 0.28946
H	 0.4811197255	 0.5754092965	-0.6522418175	 0.077975
H	 1.0885778819	-1.7365988991	 0.0815154803	 0.116639
H	 1.0858599356	-1.0749188556	 1.7329470424	 0.111037
H	-1.1356089224	-2.7175196703	 0.5848809295	 0.095766
H	-1.4194872298	-0.5453566358	 2.7662927428	 0.100711
H	-1.3541420187	-0.9540841013	-1.0731211562	 0.1169
H	-4.6077393768	 1.2110506983	 0.4860187854	 0.199151
