17
gdb 67570	2.92875	2.00729	1.48058	1.9116	69.84	-0.2396	0.0628	0.3024	896.3121	0.1362	-421.733865	-421.727237	-421.726293	-421.764433	27.689	
C	 0.0164696093	 1.5161900305	-0.0276922167	-0.519852
C	 0.0371664457	 0.0093370592	-0.0492414585	 0.322441
C	 0.4261510913	-0.7571371134	-1.3071608888	-0.051009
O	 1.6149125845	-1.55807616	-1.1577252807	-0.259793
C	 0.3318503518	-2.1568047245	-0.8883361022	 0.011174
C	-0.1041464111	-2.0303659066	 0.5590577682	-0.090016
C	 0.6140447024	-0.7935099596	 1.1643915013	 0.026594
O	-0.5657075006	-0.4677494259	 1.9876599876	-0.321581
C	-1.1009359096	-0.822737054	 0.676337375	 0.008443
H	 1.0098425101	 1.9253451908	-0.240373029	 0.126889
H	-0.67449001	 1.9158680771	-0.7783617253	 0.116828
H	-0.3009598291	 1.868296766	 0.9573034967	 0.140807
H	 0.2172701786	-0.3918137494	-2.3077475488	 0.100626
H	 0.0396947125	-2.9782973677	-1.5332972759	 0.105557
H	-0.2635008879	-2.9026982646	 1.1890493115	 0.087727
H	 1.5962475928	-0.7252097066	 1.6290544413	 0.102912
H	-2.1844097206	-0.7915716911	 0.545013044	 0.092253
