18
gdb 34028	3.36852	1.30902	1.10117	1.8715	78.16	-0.2414	0.0373	0.2787	1121.9104	0.148902	-401.891099	-401.883205	-401.882261	-401.923319	31.072	
C	-0.0025016779	-1.1963513812	 0.0952495801	-0.401733
C	 0.0129636233	 0.0055927002	 0.0663347853	 0.282106
C	 0.0141418963	 1.44459281	-0.0144058578	 0.094868
C	-1.1707792594	 2.0664195682	-0.7660152236	-0.308284
C	-0.7530595422	 3.2752771979	-1.609870971	-0.080537
O	 0.1602309871	 4.1151452791	-0.9178526777	-0.245116
C	 1.4198490714	 3.4865811353	-0.776241832	-0.124934
C	 1.3213597482	 2.1868491728	-0.0041480171	-0.06074
N	 0.5086020877	 2.1394969039	 1.2077880646	-0.353368
H	-0.0100470477	-2.2571718827	 0.1398536164	 0.191906
H	-1.6251349025	 1.312590867	-1.4150899064	 0.120139
H	-1.9364894482	 2.3561472733	-0.0364400904	 0.118247
H	-0.2948374421	 2.9362400727	-2.5528298235	 0.096837
H	-1.6183817448	 3.8950847391	-1.8592753302	 0.113728
H	 1.8716082418	 3.2971308455	-1.7645061734	 0.100051
H	 2.0604465616	 4.1969535479	-0.2421262667	 0.11985
H	 2.2410788896	 1.608213149	 0.0440494533	 0.102917
H	 0.000649748	 3.0208583522	 1.2886337801	 0.234061
