19
gdb 17357	3.59833	1.42191	1.31589	0.6807	71.78	-0.2242	0.0749	0.2992	1024.6469	0.164507	-365.000098	-364.991549	-364.990605	-365.033593	31.81	
C	 0.0021711414	 1.4774338637	-0.1573469375	-0.317379
N	 0.0190860119	 0.0364984739	 0.0543128515	-0.081968
C	 1.2783936242	-0.6458206508	-0.1945630687	-0.272266
C	 0.7555505188	-0.4922195283	 1.2077861757	-0.03969
C	 1.4030091749	 0.4135748062	 2.2213444947	-0.068973
C	 2.1819439988	-0.2015397201	 3.3781432226	-0.351693
C	 2.9030840892	 0.602034541	 2.337470662	 0.141539
O	 3.814267363	 0.0195033646	 1.4546314415	-0.418066
H	 0.9493453823	 1.9828930713	 0.0864784006	 0.11106
H	-0.2264450937	 1.6706314664	-1.2099304021	 0.123942
H	-0.7939452395	 1.9245115815	 0.4472530055	 0.121693
H	 1.2090076793	-1.6018461687	-0.7086335373	 0.11186
H	 2.1363823424	-0.03555695	-0.468041797	 0.12869
H	 0.2563553571	-1.3575196675	 1.6426476708	 0.095316
H	 0.8054012211	 1.2836086685	 2.4826010087	 0.095814
H	 2.049781283	 0.1988544261	 4.3775856699	 0.115007
H	 2.3271612289	-1.278637376	 3.3484211459	 0.110875
H	 3.2581108165	 1.590616337	 2.609589313	 0.107719
H	 3.4607049103	-0.8297954386	 1.1697347902	 0.286521
