20
gdb 98021	4.13927	0.605	0.57114	3.8686	89.5	-0.2471	-0.0123	0.2348	2042.9366	0.168506	-403.162192	-403.150927	-403.149983	-403.201106	38.21	
C	-0.0322650914	 1.4803006213	 0.0232936586	-0.338409
N	 0.0270993564	 0.0388961736	-0.1047647466	-0.309156
C	 0.96614313	-0.5930212314	-0.8714094977	 0.25481
O	 1.8279949948	-0.0104314922	-1.5072576721	-0.360921
C	 0.8407149203	-2.0427700197	-0.8585092407	-0.083228
C	 0.7772763598	-3.2472775003	-0.8840725948	 0.190964
C	 0.7343361358	-4.7079375216	-0.9260541494	-0.13951
C	 1.1803754448	-5.2320884026	-2.3060229824	-0.375017
C	 1.5868554502	-5.3114264076	 0.2094503416	-0.376047
H	 0.1032374993	 1.7947252795	 1.0643716394	 0.126281
H	 0.775810229	 1.8933178298	-0.5812737711	 0.17339
H	-0.9881534278	 1.8744689053	-0.3400113082	 0.126344
H	-0.6422022813	-0.5334184502	 0.3826384576	 0.251464
H	-0.3076982912	-5.017947279	-0.7657171489	 0.108032
H	 2.2186633972	-4.951786028	-2.5059135203	 0.133419
H	 1.1045819291	-6.3235533598	-2.3349347722	 0.114852
H	 0.5582970232	-4.8196413372	-3.1042942105	 0.128739
H	 1.2526278206	-4.9557101265	 1.1874553849	 0.124417
H	 1.5119004957	-6.4031082352	 0.1933372465	 0.116892
H	 2.6385998454	-5.0360882384	 0.0881372064	 0.132686
