23
gdb 92697	2.66785	1.208	0.88619	1.2777	88.42	-0.2302	0.029	0.2593	1376.9156	0.206017	-388.318629	-388.309081	-388.308137	-388.352393	37.25	
C	 0.0067781941	 1.565624353	-0.053366968	-0.403286
C	 0.0460479321	 0.0285408934	 0.0232273536	-0.078477
C	 0.6543105809	-0.5456415419	-1.2677537122	-0.191755
C	 0.963084991	-2.0309226053	-1.1464074795	 0.111002
O	 1.4232035998	-2.4800844039	-2.4152047554	-0.442832
C	 1.9983415765	-2.2498795271	-0.0395522707	-0.281235
C	 1.6308758445	-1.4989725498	 1.2131723329	-0.167874
C	 0.7592003504	-0.4866547296	 1.2664616951	 0.340995
C	 0.4057639412	 0.1618365131	 2.5810407013	-0.480859
H	 1.0194461402	 1.9841708212	-0.0475567243	 0.116672
H	-0.4807864246	 1.8844122011	-0.9803738785	 0.113491
H	-0.5463999707	 2.0069964274	 0.7798599478	 0.113676
H	-1.0000626868	-0.3132926087	 0.0905228525	 0.07916
H	-0.0235228381	-0.3791389055	-2.1116261372	 0.0989
H	 1.5889510335	-0.0193256776	-1.5028987597	 0.099247
H	 0.0361382291	-2.562169579	-0.8697934834	 0.061805
H	 1.6585900018	-3.4098162348	-2.3325001846	 0.277476
H	 2.0949909092	-3.3216858724	 0.1846076332	 0.087295
H	 2.9809314141	-1.930501948	-0.4170159054	 0.112004
H	 2.1052664816	-1.8309089041	 2.1348084808	 0.073699
H	 0.8791688399	-0.3583441052	 3.4178039553	 0.116557
H	 0.7166634404	 1.2123302974	 2.6193408722	 0.125867
H	-0.6796057701	 0.1529332162	 2.7478992943	 0.118471
