15
gdb 81120	2.62811	1.73482	1.28275	4.7662	70.78	-0.254	-0.0222	0.2318	968.8102	0.114279	-416.767642	-416.760588	-416.759644	-416.798976	28.163	
O	 0.2121002114	 1.3250317016	-0.1762797147	-0.426321
C	 0.1016246696	-0.0363062294	-0.0502044364	 0.188953
C	 0.025248217	-0.6356625153	 1.4191845056	-0.128289
N	-1.3853836729	-0.1137241292	 1.4126301747	-0.356267
C	-1.3939239971	-0.6477645102	 0.0068773957	 0.1443
C	-1.0542823778	-2.1330113169	 0.1471682026	-0.133151
C	-0.1090464779	-2.1194233991	 1.0953029785	-0.096244
C	-2.4468974878	-0.225466099	-0.8888025249	 0.160126
N	-3.276855263	 0.1151932374	-1.6173819797	-0.333033
H	-0.4089963292	 1.7114829923	 0.459154302	 0.298851
H	 0.7814705491	-0.518506496	-0.7517284876	 0.111606
H	 0.6856711125	-0.2990008609	 2.2161941616	 0.090697
H	-2.0087707896	-0.641047729	 2.0265017112	 0.220599
H	-1.4515685245	-2.9357345164	-0.4553993786	 0.133552
H	 0.4897976501	-2.9287033599	 1.4865351198	 0.124623
