15
gdb 78741	4.91744	1.14386	1.06383	3.8924	67.08	-0.2449	-0.0295	0.2154	1098.0127	0.111109	-457.687682	-457.680229	-457.679285	-457.719665	28.351	
O	-0.0000792737	 1.3062207036	 0.1201041759	-0.430403
C	 0.0105927095	-0.0950847438	-0.0208343873	 0.123165
C	-1.421862023	-0.5995632734	-0.1463030118	-0.177438
C	-1.3957191397	-0.4593380203	-1.6482531088	-0.171366
C	 0.1655282876	-0.5798018606	-1.4975103569	 0.004023
O	 0.0945637875	-2.025539774	-1.3799865889	-0.309385
C	-1.2806797536	-1.8480345335	-1.0731134721	 0.387533
C	-2.2508250299	-2.946409868	-1.0697874022	 0.049171
O	-1.9837761404	-4.1068131018	-1.2547053038	-0.259675
H	 0.9132575051	 1.6111718823	 0.116768205	 0.290764
H	 0.6699460716	-0.586719537	 0.7061850359	 0.085296
H	-2.2481253188	-0.4706475573	 0.5402572238	 0.113927
H	-2.0736546993	-0.0312097398	-2.372564429	 0.120095
H	 0.9429162253	-0.218651087	-2.1677302051	 0.097286
H	-3.2918755983	-2.5982009094	-0.8749305048	 0.077007
