20
gdb 11051	3.32258	2.21806	1.90268	0.2056	78.23	-0.2318	0.0246	0.2564	825.3443	0.179876	-311.888542	-311.881751	-311.880807	-311.918779	28.654	
C	-0.0166395	 1.5152821133	 0.010790749	-0.490821
C	-0.0047841291	-0.0032784727	 0.0222624292	 0.301802
C	 0.7300166903	-0.674299193	-1.1944523824	-0.224877
C	 0.9651064932	-2.1380913901	-0.716290057	-0.207379
C	 0.3343484022	-2.1363379242	 0.7184937345	-0.061288
C	 0.7226921857	-0.718300286	 1.1915342342	-0.233644
C	-1.1625622067	-1.9532063709	 0.5213024551	-0.088475
C	-1.3605106774	-0.6997965835	 0.1036359995	-0.101897
H	 1.0018127185	 1.9188209295	-0.0104027655	 0.109985
H	-0.5427057456	 1.9028307974	-0.8694170345	 0.111446
H	-0.5179979866	 1.9153150829	 0.8987822993	 0.113652
H	 0.1338106735	-0.6129372338	-2.1085917842	 0.092761
H	 1.6789151065	-0.1616260096	-1.3863346752	 0.090537
H	 0.4958882006	-2.8804203389	-1.3663052204	 0.094577
H	 2.03303935	-2.3724245582	-0.6642201432	 0.093199
H	 0.6399594127	-2.9760539163	 1.3437885662	 0.054678
H	 1.8041190484	-0.5386411106	 1.1983791778	 0.081078
H	 0.3004195481	-0.4626511372	 2.1672343739	 0.089988
H	-1.8963918037	-2.746829772	 0.5941162922	 0.088867
H	-2.2893688505	-0.253812386	-0.2334835985	 0.085812
