20
gdb 40602	3.64464	1.24416	1.11437	1.6574	82.2	-0.2179	0.0639	0.2818	1159.7529	0.1719	-365.893942	-365.88627	-365.885326	-365.926573	30.808	
C	 1.2809208907	 1.0326598147	 0.1979830874	-0.295529
C	 1.4598293291	-0.1653238724	-0.6955816468	-0.246174
C	 0.1169218227	 0.1034911453	-0.0523912654	-0.036918
C	-0.391632187	-0.7558929193	 1.0808679713	-0.016833
C	-1.7630663839	-1.342781018	 1.2825520703	-0.12646
C	-2.2939662368	-2.1660895893	 0.0926203608	-0.036059
C	-1.3886316508	-2.31854888	-1.0688263248	-0.252385
N	-1.1334984093	-3.1205915717	 0.1448165425	-0.14232
C	-0.5543178664	-2.2580389831	 1.2480294931	-0.0359
H	 1.7434697577	 1.0030758587	 1.1798812882	 0.111003
H	 1.2602872676	 2.0183679951	-0.2536259795	 0.112329
H	 1.5661474136	-0.0056229052	-1.7634319192	 0.111339
H	 2.0309280605	-1.0035476444	-0.3106944804	 0.120092
H	-0.6543563135	 0.4958287497	-0.7081154107	 0.097462
H	-0.0406778689	-0.3854732625	 2.0456414315	 0.09592
H	-2.3995930294	-1.0777304886	 2.1172442875	 0.09125
H	-3.3101494429	-2.5478150785	 0.0822093785	 0.097638
H	-1.7605326626	-2.9402990596	-1.8798085117	 0.116428
H	-0.6929182852	-1.5525127471	-1.3747321355	 0.137344
H	-0.0566304652	-2.7930172338	 2.047698883	 0.097774
