18
gdb 32142	3.64892	1.13326	0.8742	1.759	83.82	-0.2263	-0.0181	0.2082	1326.9896	0.148442	-402.005584	-401.996968	-401.996024	-402.039691	31.369	
C	-0.1024572925	 1.3908829299	-0.0436743703	-0.246733
O	-0.0504049791	-0.0224842889	 0.0440712907	-0.264835
C	 0.6300972901	-0.5739580073	 1.0821026548	 0.353526
C	 1.2916591377	 0.1441041667	 2.0845402948	-0.125316
N	 1.946080208	-0.4533607469	 3.0831638217	-0.266025
C	 1.9655512889	-1.783340072	 3.1200064826	-0.074288
C	 1.3394426007	-2.6016641152	 2.1721620222	 0.278315
C	 1.3996898164	-4.1045139104	 2.2722119388	-0.49521
C	 0.6615385886	-1.9676905917	 1.1375210893	-0.252734
H	 0.8991680647	 1.8264563757	-0.1486745676	 0.129165
H	-0.6880068254	 1.617046562	-0.9360819512	 0.136945
H	-0.59386045	 1.8323957478	 0.8324512408	 0.129162
H	 1.2984277599	 1.2290302493	 2.0889943796	 0.101552
H	 2.5084430378	-2.2343398174	 3.9481829319	 0.096658
H	 0.3976178849	-4.5394858057	 2.3550887561	 0.134676
H	 1.8699172238	-4.5450279141	 1.3861917407	 0.134663
H	 1.9744760523	-4.4183130672	 3.1474717408	 0.128265
H	 0.1504503363	-2.531258965	 0.3631143184	 0.102211
