19
gdb 18240	4.06845	1.50879	1.27272	1.4703	77.43	-0.2238	0.0227	0.2464	1029.2206	0.167005	-327.915679	-327.908082	-327.907138	-327.947709	29.232	
C	 0.1344235878	 1.5383779045	-0.150496024	-0.374249
C	-0.0596951886	 0.0292768527	 0.0817282639	-0.298114
C	 0.6656613696	-0.4873072829	 1.2884130832	 0.389739
C	 0.1342746656	-1.0349764652	 2.387597456	-0.191863
C	 1.1729881236	-1.4497902853	 3.4097737053	-0.253231
C	 2.4875028876	-1.1240426217	 2.7084143487	-0.03255
N	 2.7047142097	-1.892833267	 1.4630402696	-0.335072
C	 2.1619881892	-0.5021939657	 1.397974835	-0.156097
H	 1.1900301431	 1.7909283096	-0.2947253878	 0.11575
H	-0.4083783918	 1.8675108595	-1.0419286249	 0.113159
H	-0.231991409	 2.1153467183	 0.704327634	 0.119762
H	-1.1288402322	-0.1878903403	 0.1831845792	 0.101033
H	 0.286301198	-0.513748371	-0.8087305465	 0.109127
H	-0.9261612772	-1.2118829845	 2.5355473203	 0.084815
H	 1.0708144687	-0.8888560117	 4.3486896565	 0.10112
H	 1.102002781	-2.5144003722	 3.6639683038	 0.116311
H	 3.3529634238	-0.8230635639	 3.288931346	 0.083751
H	 3.6999546437	-1.8586631716	 1.2449714681	 0.223459
H	 2.7734388774	 0.2694390684	 0.9417154735	 0.083148
