19
gdb 116577	4.66212	0.98339	0.9123	3.1252	79.47	-0.2158	0.0541	0.2698	1350.3708	0.160154	-419.205138	-419.196661	-419.195717	-419.239276	31.886	
C	-0.8078619462	 0.6805560456	 0.0071419075	-0.357505
C	 0.6703280173	 1.064930041	 0.1292380402	-0.137534
N	 1.3984917822	 0.7569872721	-1.0931268498	-0.364639
C	 2.1312803724	-0.2654148241	-1.1392142444	 0.47159
N	 2.8643235183	-0.6761935605	-2.2528199007	-0.361239
C	 3.8083474915	-1.6869491628	-1.8817929762	-0.026112
C	 4.7610276212	-1.3854546886	-0.730406035	-0.334596
C	 3.4172928214	-2.0181471012	-0.4752108159	 0.0858
O	 2.3521871085	-1.1647813117	-0.1140417489	-0.251028
H	-1.257190756	 1.1572028532	-0.8690916886	 0.120781
H	-0.9185218531	-0.4028594448	-0.1034293217	 0.115211
H	-1.3647641515	 0.9930423838	 0.896955524	 0.103142
H	 0.7425508311	 2.147473549	 0.2921547515	 0.093475
H	 1.1066064406	 0.5736094195	 1.0094810956	 0.098639
H	 3.1230546108	 0.0609346302	-2.8907035332	 0.256813
H	 4.0472739976	-2.4366712282	-2.6267092681	 0.11322
H	 5.628234426	-2.0284722616	-0.6225154536	 0.123179
H	 4.9070051859	-0.3511240359	-0.437828616	 0.13186
H	 3.3089835021	-3.017945245	-0.0761778567	 0.118939
