19
gdb 68283	2.37499	1.50102	1.38776	1.8689	76.38	-0.2397	-0.0324	0.2074	1061.4998	0.156093	-422.973456	-422.964467	-422.963522	-423.006814	33.98	
C	 0.0522090366	 1.4817625219	 0.0923207894	-0.517103
C	 0.0289534636	-0.0065741878	-0.0598640088	 0.358513
C	 0.7292085273	-0.9270086644	-1.0903401824	-0.276218
C	 0.1079723152	-1.8048507626	 0.0174208034	 0.01584
O	 0.6276788842	-0.8325889438	 1.0147201135	-0.344148
C	-1.2201861091	-1.0013435401	-0.0410161477	 0.214785
C	-2.0945398899	-0.9602958521	 1.2090878993	-0.488494
C	-2.0868393163	-1.0825812093	-1.2712316671	 0.081831
O	-1.9779853119	-1.8864380433	-2.1646362818	-0.258456
H	 1.0836664227	 1.8312787956	 0.1989642245	 0.141825
H	-0.386206522	 1.9623586663	-0.787719497	 0.131554
H	-0.5114233177	 1.7921109244	 0.9773177534	 0.136419
H	 0.3313331077	-1.0028286441	-2.1011370454	 0.124357
H	 1.8175932765	-0.8737438644	-1.055792031	 0.106541
H	 0.2535098221	-2.8634845501	 0.2280399554	 0.100994
H	-1.4669397908	-0.8363731043	 2.0921084354	 0.15155
H	-2.810059468	-0.1315505273	 1.1625047527	 0.118894
H	-2.6709598012	-1.8857620297	 1.3147944219	 0.127398
H	-2.9005720192	-0.3189294648	-1.2928204578	 0.073917
