18
gdb 10199	2.94098	1.2035	0.89282	2.0269	71.09	-0.2567	0.056	0.3128	1288.1222	0.150439	-384.884264	-384.874324	-384.87338	-384.919425	34.234	
C	-0.0106416786	 1.3620226696	 0.0250362298	-0.229325
O	-0.0197991926	-0.0455505791	-0.0102875183	-0.23296
C	 0.6454075355	-0.5706098039	-1.1370892157	-0.074116
C	 0.5722920185	-2.1050201611	-1.0753929807	-0.176531
C	-0.8826813024	-2.5958114587	-1.1267138997	-0.072138
O	-0.8783901486	-3.987872383	-0.8660383249	-0.418562
C	 1.3828227599	-2.6825953643	-2.1439044447	 0.327486
C	 2.0515067194	-3.1124453851	-3.0452200412	-0.46721
H	 1.0148865283	 1.7617950804	 0.060443519	 0.107661
H	-0.5172412504	 1.7959018927	-0.8514961049	 0.106007
H	-0.5415009235	 1.6698332432	 0.9289689006	 0.129379
H	 0.1819029627	-0.2081955706	-2.0703196088	 0.095379
H	 1.699744578	-0.2541138969	-1.1520350286	 0.10303
H	 0.9799409818	-2.4172074525	-0.1052676576	 0.124288
H	-1.4561726979	-2.0405822926	-0.3733667602	 0.107715
H	-1.3035639955	-2.3695011611	-2.119039088	 0.088167
H	-1.7869232479	-4.300771092	-0.8952273938	 0.288217
H	 2.6427494232	-3.5157707551	-3.8294407721	 0.193512
