18
gdb 17043	4.66763	1.33094	1.24364	3.2022	72.52	-0.2382	0.0131	0.2513	1038.1784	0.154089	-347.772128	-347.764585	-347.763641	-347.804196	28.668	
C	-0.027063603	 1.5530632425	 0.0474262626	-0.374892
C	 0.0231451744	 0.0279507238	 0.2008220249	-0.234481
C	-1.3581584571	-0.6072135645	 0.072357479	 0.055057
C	-2.0580986545	-0.7608238318	-1.336859033	-0.185143
C	-1.1021233766	-1.9752381389	-1.6004334624	-0.243486
C	-1.5207070751	-2.166737444	-0.1008880363	-0.199677
C	-2.923607525	-1.8038907673	-0.6129394151	 0.453283
O	-4.0603194558	-2.1458866358	-0.5087573322	-0.327379
H	 0.961235251	 1.9966669501	 0.2010538892	 0.116343
H	-0.3712255419	 1.8402402762	-0.9516171232	 0.120189
H	-0.7111463011	 2.0028279316	 0.7752953636	 0.119098
H	 0.7330714173	-0.3867822941	-0.5204454874	 0.103066
H	 0.4180046783	-0.2248103762	 1.1931786132	 0.105165
H	-2.0154847726	-0.1810939279	 0.8386351736	 0.084558
H	-2.3541887265	 0.023021003	-2.0307748568	 0.090834
H	-1.4431524136	-2.7299642094	-2.3114414758	 0.114709
H	-0.0564765127	-1.724234373	-1.7689027184	 0.112837
H	-1.2125686658	-2.9512748943	 0.5873159045	 0.089919
