23
gdb 77902	2.0433	1.49695	1.34706	1.5403	85.78	-0.2356	0.0717	0.3072	1170.1966	0.204408	-388.268014	-388.25805	-388.257105	-388.301744	38.476	
C	-0.4463273277	 1.6124380268	 0.1213592498	-0.414464
C	-0.1080217108	 0.1273496424	 0.0205660206	 0.017321
C	 0.4388670623	-0.434664715	-1.2998957805	-0.161698
C	 1.8315783372	-0.0020723508	-1.6013998742	 0.052943
O	 2.2581946849	 1.319248791	-1.3792060302	-0.415228
C	 1.6593437189	-1.0596694797	-0.5501147905	 0.266447
C	 2.2745866471	-2.4279400953	-0.6649284651	-0.497297
C	 1.1327184393	-0.4817339519	 0.7790156155	-0.039086
C	 2.0428207534	 0.3979969279	 1.6332555528	-0.422169
H	 0.3991017405	 2.2400104444	-0.1614167279	 0.14311
H	-1.2823205375	 1.8555964073	-0.5445886248	 0.106199
H	-0.7539383242	 1.8738355199	 1.1405713212	 0.101886
H	-0.9949596274	-0.449019782	 0.3042491275	 0.067983
H	-0.1813894007	-0.8742733471	-2.0748142596	 0.077815
H	 2.1989874715	-0.4131663547	-2.5446453283	 0.081173
H	 3.2082247892	 1.297999933	-1.2225646369	 0.283774
H	 2.4164437111	-2.7192238421	-1.7110840862	 0.115334
H	 3.2568060487	-2.467211444	-0.176543774	 0.115921
H	 1.644422205	-3.1895903379	-0.1904257789	 0.116371
H	 0.7820074271	-1.3147304646	 1.3991047962	 0.066279
H	 2.3765899749	 1.2833308837	 1.0903809032	 0.123397
H	 1.5246947638	 0.7306178092	 2.5396791709	 0.109871
H	 2.9296758532	-0.1617447206	 1.9536232695	 0.104119
