18
gdb 92295	2.45942	1.8488	1.46004	2.304	70.64	-0.2547	0.0096	0.2643	953.0862	0.14986	-439.079899	-439.072416	-439.071472	-439.112189	29.281	
O	 0.4069250463	 1.1185499393	-0.6086222528	-0.431465
C	 0.1236379779	-0.1327960107	-0.0363877357	 0.125849
C	 0.1292019697	-0.235711675	 1.5174899122	-0.272753
C	-1.380418093	-0.5988525201	 1.5081957777	 0.09831
O	-2.2001533578	 0.4071117316	 2.1291325804	-0.229109
C	-2.5014560712	 1.4984136857	 1.3898663612	 0.109521
N	-2.5558410673	 1.6136384139	 0.1288095091	-0.274325
C	-2.3716900259	 0.3901142148	-0.6558335865	-0.191168
C	-1.3785708123	-0.5940649357	-0.0451095838	-0.086955
H	-0.245587096	 1.7586623252	-0.2942638029	 0.291316
H	 0.7994826989	-0.83723138	-0.5264844742	 0.091629
H	 0.7769577387	-1.0152857182	 1.9255342783	 0.109637
H	 0.3482552907	 0.7056523758	 2.0280041824	 0.114957
H	-1.6583598763	-1.5332445798	 1.9958662109	 0.094515
H	-2.7304702527	 2.3458105788	 2.035031209	 0.125387
H	-3.3532015546	-0.0919054743	-0.7557868996	 0.119958
H	-2.0506053929	 0.6717725612	-1.6627454861	 0.126005
H	-1.5122312123	-1.5906149825	-0.4744475995	 0.07869
