19
gdb 114008	3.903	0.71922	0.6895	5.3179	73.79	-0.2722	0.0073	0.2795	1683.416	0.15683	-460.164124	-460.15426	-460.153316	-460.20048	34.045	
C	 0.9282005342	 1.1942527043	 0.124617383	-0.376792
C	-0.1557180032	 0.1482379716	-0.1649387452	-0.220001
C	 0.1739353157	-0.6647174624	-1.3951638829	 0.080359
O	 1.1971774893	-1.6636982961	-1.2793752472	-0.259034
C	-0.131955645	-2.0904566684	-1.6016398447	 0.040176
C	-0.8138748513	-2.9698952501	-0.586715168	-0.128304
O	-0.3783786595	-4.3300478355	-0.7292095497	-0.183742
C	 0.7609028165	-4.6770889011	-0.0888235954	 0.177655
O	 1.2308054563	-5.7705943142	-0.173868384	-0.271297
H	 1.8940339206	 0.7097143809	 0.2947457287	 0.137844
H	 1.0437457423	 1.8872652394	-0.7156189713	 0.120703
H	 0.6787539671	 1.7822788022	 1.0121700133	 0.119443
H	-0.2753600206	-0.5071848954	 0.7026859803	 0.10417
H	-1.1216972687	 0.6435653144	-0.3273354641	 0.108472
H	 0.2665718686	-0.0659974329	-2.304962554	 0.09621
H	-0.247591561	-2.4432745916	-2.6277889282	 0.109566
H	-0.6249807942	-2.6181609941	 0.4316889627	 0.120476
H	-1.8938296271	-2.9916596936	-0.7557386826	 0.132325
H	 1.1867270501	-3.8518676475	 0.5107130194	 0.091769
