16
gdb 84648	2.2268	1.88384	1.49121	4.4664	69.7	-0.2331	-0.042	0.1911	941.4731	0.12612	-437.876394	-437.869099	-437.868155	-437.907978	28.782	
O	 0.1135519508	 1.3661438117	-0.1755650788	-0.43413
C	 0.0449731263	-0.0508303236	-0.0106459548	-0.046538
C	 0.7494641805	-0.5052913197	 1.2526695343	-0.113568
C	 0.1051416355	-0.6133638314	 2.4163511026	-0.025843
C	-1.3457239557	-0.3038332085	 2.5348607686	-0.080676
N	-1.76424467	 1.0117094884	 2.0033977351	-0.345743
C	-2.1621363631	-0.2165784068	 1.2768198807	-0.149911
C	-1.4243963536	-0.5006568218	 0.002996175	 0.435118
O	-1.9457315039	-1.0849717077	-0.9172505105	-0.323322
H	-0.3272544171	 1.7387384565	 0.6047075953	 0.295193
H	 0.5080114222	-0.4834971621	-0.9002784431	 0.108198
H	 1.8190637896	-0.6807704764	 1.1913552157	 0.111102
H	 0.6288915594	-0.8994000409	 3.3235116088	 0.105063
H	-1.8564805104	-0.6607306326	 3.4241091261	 0.105294
H	-2.5630805402	 1.373263092	 2.5186780464	 0.249303
H	-3.2012623802	-0.5295245271	 1.2921972387	 0.110462
