15
gdb 74563	2.58942	1.69541	1.33706	3.9869	69.48	-0.26	-0.0026	0.2574	979.9776	0.113218	-416.825833	-416.818193	-416.817249	-416.858243	28.209	
C	-0.077091347	 1.4368543247	 0.0569276874	-0.483494
C	 0.0186134829	-0.0390393209	-0.0733341273	 0.397825
N	 0.0488621949	-0.7253903178	-1.1504536194	-0.286173
C	 0.0667461254	-2.1038723417	-0.7532852774	-0.043616
C	 0.0777007749	-2.0947291182	 0.7551797317	 0.044869
O	 0.0699030662	-0.7354045014	 1.1109754205	-0.226742
C	-1.1578037533	-2.6128284976	 0.0315903978	-0.26108
C	-2.3889983267	-1.8814268803	 0.0548070956	 0.325611
N	-3.3775870136	-1.2814685148	 0.0849431393	-0.343422
H	 0.6989258657	 1.8118121677	 0.730406417	 0.148803
H	 0.0260039762	 1.8950518806	-0.9260003162	 0.160876
H	-1.0478185559	 1.7104339563	 0.4821566551	 0.169011
H	 0.587960682	-2.8066190599	-1.390707018	 0.12217
H	 0.6333810406	-2.7238413558	 1.4375570917	 0.132156
H	-1.2645235423	-3.6923282108	 0.0523744722	 0.143205
