21
gdb 98077	3.21348	0.95508	0.82121	0.8374	82.01	-0.2259	-0.0544	0.1715	1499.9905	0.180454	-420.439888	-420.428776	-420.427832	-420.477007	38.806	
C	-0.0296630055	 1.3899854637	 0.0914340857	-0.308189
N	-0.0151562748	-0.0376622334	-0.1224801425	-0.281942
C	 0.591159451	-0.6023932861	-1.1928829004	 0.255391
N	 1.2280133327	 0.10429476	-2.0589399596	-0.542616
C	 0.4080227216	-2.126096157	-1.2073700717	 0.353067
O	-0.2943697501	-2.6419726956	-0.3633725979	-0.330952
C	 1.1422055891	-2.9474633626	-2.2594365499	-0.088294
C	 2.6247558474	-3.0797492044	-1.841288388	-0.395058
C	 0.4829876918	-4.3164848852	-2.4456201604	-0.390793
H	 0.9909605693	 1.7827140143	 0.1557233989	 0.140901
H	-0.5278808076	 1.9139987523	-0.7333918815	 0.135381
H	-0.55572204	 1.6057157036	 1.0233639065	 0.120469
H	-0.5417818565	-0.6626873991	 0.4653304814	 0.261098
H	 1.6231054626	-0.4793848622	-2.7903663256	 0.216437
H	 1.1035637907	-2.3987694401	-3.2081275405	 0.094203
H	 2.7068583006	-3.6306932498	-0.8987843479	 0.13223
H	 3.1798300362	-3.6309537699	-2.6058720368	 0.125615
H	 3.0984781028	-2.1037213801	-1.7085530838	 0.133921
H	-0.5543938072	-4.2169837834	-2.7769041398	 0.122379
H	 1.0283594975	-4.8996729364	-3.1933732359	 0.111102
H	 0.4765661785	-4.8726986286	-1.5049358603	 0.135651
