16
gdb 57025	2.50759	1.34402	0.91584	6.2515	68.74	-0.2875	-0.0084	0.279	1217.6344	0.123815	-437.922985	-437.914273	-437.913329	-437.957135	30.669	
C	 0.0463698888	 1.602282274	 0.1215562382	-0.397676
C	 0.0247872132	 0.0619655535	 0.0439828228	-0.171518
C	 0.7178091613	-0.5103479908	 1.2038925912	 0.290708
N	 1.2670230909	-0.9217880545	 2.1331183072	-0.310512
C	-1.410432722	-0.4841274426	-0.0470610209	-0.187106
C	-2.1963348166	-0.2328882138	-1.34896865	-0.109953
O	-2.3038296622	-1.6729882538	-1.5752168722	-0.233646
C	-1.5756942749	-1.9605437757	-0.4462029811	 0.458588
O	-1.2436324621	-3.0239685492	-0.0411906854	-0.302775
H	 1.0733688602	 1.970903669	 0.170051767	 0.14969
H	-0.432757214	 2.0313442671	-0.7628342264	 0.129636
H	-0.4854918953	 1.9521963762	 1.0105090717	 0.144487
H	 0.5741194821	-0.2551774153	-0.8519160836	 0.139462
H	-1.9670638265	-0.2406725933	 0.8615549868	 0.135316
H	-3.182962747	 0.2211518189	-1.2448618404	 0.13594
H	-1.638999236	 0.2419466703	-2.1603822849	 0.129361
