15
gdb 60775	3.23622	0.91425	0.80714	0.7204	67.96	-0.2666	-0.0588	0.2078	1394.5156	0.111439	-491.123993	-491.115059	-491.114115	-491.158533	31.333	
O	-0.7854572051	 0.3362727534	 0.3345268511	-0.434362
C	 0.1516324024	-0.4690735706	-0.3170984567	-0.045294
C	 1.0433832003	 0.3735420418	-1.2219973455	 0.136323
O	 0.8456084153	 1.5575388701	-1.3370501862	-0.252865
C	 1.0577067631	-1.2692310367	 0.6402541514	 0.362227
O	 1.8696109261	-2.0621298203	 0.2093636399	-0.364411
N	 0.8566261224	-0.9734750652	 1.9588651984	-0.296667
C	 1.5581474997	-1.5655225095	 3.0003685491	 0.102663
N	 1.3009126645	-1.2465876388	 4.2007306995	-0.452629
H	-0.6282807545	 1.2376207905	 0.0022753698	 0.304064
H	-0.3347465586	-1.2237598199	-0.9562570613	 0.141754
H	 1.8580740345	-0.1606915181	-1.7397368525	 0.140067
H	 0.130911873	-0.3020909699	 2.1793739263	 0.282132
H	 2.2992447557	-2.2834681017	 2.6425526696	 0.140136
H	 1.8991104411	-1.7661906649	 4.8406895372	 0.236862
