20
gdb 61798	2.40599	0.98109	0.88992	4.1942	78.44	-0.2508	-0.0271	0.2238	1425.7439	0.16712	-440.296658	-440.28584	-440.284896	-440.334403	37.026	
C	 0.0491768565	 1.5539023792	-0.0716885301	-0.400939
C	 0.0020463987	 0.0303815858	-0.0036566517	 0.097441
O	 0.6558209539	-0.4367693328	 1.1896297351	-0.198594
C	 1.9869869653	-0.635297394	 1.1339751012	 0.129765
N	 2.6255280973	-0.9417105147	 2.1777748932	-0.441035
C	-1.4282036325	-0.5497337938	 0.018838304	-0.072366
C	-1.4225134022	-2.080427926	-0.0900960488	-0.427551
C	-2.1546026238	-0.1097121806	 1.2851441932	 0.171044
O	-2.942623352	 0.8000917568	 1.3301883568	-0.256467
H	 1.0858989089	 1.903027875	-0.07453373	 0.121739
H	-0.4340993295	 1.9078547248	-0.9872705671	 0.127575
H	-0.4644223995	 2.001704496	 0.7823840586	 0.15263
H	 0.5206557039	-0.3938098708	-0.8762005531	 0.084507
H	 2.4033329771	-0.5177867692	 0.122966716	 0.085972
H	 3.6093067099	-1.0790910702	 1.9560052628	 0.230761
H	-1.9691142117	-0.1044785988	-0.8227741112	 0.099781
H	-0.8838392959	-2.5276371312	 0.7499233785	 0.147402
H	-2.4412480151	-2.4791150172	-0.096412563	 0.128675
H	-0.9329588224	-2.399639956	-1.0155934547	 0.121125
H	-1.9015375569	-0.6994550822	 2.1925315304	 0.098534
