14
gdb 24268	4.05353	1.61936	1.25976	1.8149	66.12	-0.2344	-0.0108	0.2237	928.4674	0.103792	-436.686266	-436.680267	-436.679323	-436.716654	23.881	
C	-0.0629033295	 1.5206363918	-0.0065736885	-0.38416
C	 1.444073534	 1.865115695	-0.0151530965	 0.062112
O	 2.1903584515	 1.418322429	 1.1166629069	-0.246566
C	 2.2719211012	 0.6312114066	-0.0942786574	-0.148443
C	 1.2600635626	-0.4371636755	-0.1212806436	 0.33298
C	-0.007497213	 0.0178840751	-0.0355105606	 0.233667
N	-0.8770786182	-1.0503030959	 0.0889250313	-0.336421
C	-0.0840586339	-2.078614455	 0.0530456806	 0.040104
O	 1.2486751181	-1.7943795229	-0.0616152576	-0.194903
H	-0.5505739286	 1.9152053039	 0.8909314485	 0.141982
H	-0.5671851783	 1.9560636828	-0.8766799145	 0.12455
H	 1.7740048077	 2.8085690359	-0.4414810909	 0.106391
H	 3.2479848016	 0.5745905477	-0.5623397703	 0.115824
H	-0.3442976051	-3.1247624985	 0.0844673527	 0.152882
