18
gdb 56852	2.86626	1.25337	1.04537	3.8445	75.62	-0.2438	0.0196	0.2634	1182.0684	0.149076	-398.076944	-398.068415	-398.067471	-398.11085	31.707	
N	 0.7471980318	 1.0810442929	-0.563131139	-0.501865
C	-0.0220839915	-0.0625538848	-0.0639816292	-0.176855
C	-0.1191832621	-1.1738839706	-1.0399361519	 0.27197
N	-0.1721490724	-2.0085232275	-1.8384604418	-0.322976
C	 0.608158715	-0.5518920304	 1.2335688959	 0.042142
C	 0.2579617125	-0.0568176759	 2.5770291957	-0.038244
C	-1.2304690026	 0.2418835263	 2.7331986651	-0.260609
C	-1.4784954144	-1.2069844161	 2.2432290797	-0.156777
N	-0.001041119	-1.5110385132	 2.16964967	-0.154697
H	 1.6895339143	 0.7830641469	-0.801772823	 0.243221
H	 0.3323767889	 1.4270061553	-1.4236138061	 0.246326
H	-1.0403123173	 0.2902540103	 0.1209866852	 0.132041
H	 1.6621410986	-0.7920331434	 1.0996294632	 0.106917
H	 1.0245382347	 0.2034482172	 3.3000392636	 0.102172
H	-1.5222442609	 0.3842708748	 3.7746596058	 0.119721
H	-1.6319728729	 1.0749149414	 2.1475959391	 0.111659
H	-1.9320407086	-1.8489782326	 2.9994621477	 0.120787
H	-2.016348664	-1.3528244204	 1.3014175901	 0.115067
