21
gdb 49709	2.88004	1.42861	1.40835	2.4943	80.92	-0.2473	-0.021	0.2263	1053.1004	0.185651	-387.125644	-387.117965	-387.117021	-387.157922	30.506	
O	-0.757295011	 0.9122903847	 0.5481688108	-0.248458
C	 0.1113922548	 1.0797066937	-0.2724981912	 0.12552
C	 1.2870092498	 2.0095848682	-0.1407935157	-0.073367
C	 1.2136096516	 3.2856483113	-1.037890588	-0.022211
C	 0.0534292642	 4.0664404306	-0.3808986989	-0.212557
C	 0.2342663209	 3.7636462456	 1.1413808566	-0.208166
C	 1.4507739375	 2.806628826	 1.1716636196	-0.009041
C	 2.7201074709	 3.628104248	 0.8515777839	-0.219818
C	 2.5473406835	 3.9728895362	-0.6654394163	-0.210643
H	 0.0908411851	 0.5159732856	-1.2358351074	 0.071491
H	 2.1821213102	 1.4252556868	-0.3976243674	 0.08113
H	 1.088005184	 3.1111408739	-2.1086814374	 0.061586
H	 0.106209653	 5.1336593637	-0.6142979248	 0.094066
H	-0.9148848007	 3.7046661719	-0.7396571638	 0.103881
H	 0.427096226	 4.666768954	 1.7276720274	 0.089429
H	-0.6501652319	 3.2758845041	 1.5521171709	 0.123621
H	 1.5187669598	 2.2096106753	 2.0819699604	 0.067202
H	 2.7958614622	 4.5191336062	 1.4813130806	 0.097426
H	 3.62530618	 3.0358892617	 1.0181207413	 0.094422
H	 3.3738576668	 3.5714327547	-1.2595082486	 0.095748
H	 2.5073584233	 5.0498847279	-0.8528714119	 0.098738
