13
gdb 123523	4.12165	1.83852	1.27139	4.0227	73.11	-0.2578	-0.0658	0.192	887.9643	0.094681	-411.850579	-411.845037	-411.844093	-411.880454	22.072	
C	 0.0764411823	 1.2798702941	 0.0086641901	 0.047433
N	 1.3106058446	 1.7912798531	-0.000523612	-0.273163
N	 2.0613302585	 0.6689028081	-0.013932526	-0.019336
C	 3.4095255375	 0.5722675076	-0.0275026397	 0.037881
C	 3.9429157303	-0.687640234	-0.0396174818	-0.159326
C	 3.0607648512	-1.7976605901	-0.0372088242	-0.008495
N	 1.7463396864	-1.7042593855	-0.0239778449	-0.324444
C	 1.2349142145	-0.4654540614	-0.0122153565	 0.491333
N	-0.0330810115	-0.0639956001	 0.002363592	-0.347257
H	-0.7829039227	 1.9350876721	 0.0206217866	 0.138065
H	 3.9645077592	 1.5014819424	-0.0277519102	 0.161169
H	 5.0152825649	-0.8281723301	-0.0507704748	 0.127218
H	 3.4717100249	-2.8043077961	-0.0467345288	 0.128922
