19
gdb 40169	3.12493	1.62067	1.43872	1.1314	74.93	-0.233	0.0868	0.3197	981.0022	0.160884	-422.989493	-422.982387	-422.981443	-423.020741	29.322	
C	-0.2718300241	 1.3234769497	 0.2116988624	-0.325848
C	 1.1920697216	 1.1065124869	-0.1320638432	-0.339126
C	 0.2518952107	-0.0544255093	-0.0858278142	 0.488592
O	 0.4503129098	-0.9374904518	 1.0000723453	-0.316902
C	-0.4542980633	-2.0440116664	 1.0187979597	-0.086904
C	-0.7865729493	-2.476816706	-0.405775032	 0.073969
C	 0.4116938595	-2.2100859398	-1.3409984526	-0.252505
C	-0.1961282686	-0.7909176695	-1.3229137919	-0.009363
O	-1.506307975	-1.3711131455	-1.0268223345	-0.299679
H	-0.5087265456	 1.5363032532	 1.2476049836	 0.121906
H	-0.9155839064	 1.8068819875	-0.515454103	 0.116416
H	 1.558179184	 1.4417879835	-1.0968026963	 0.113603
H	 1.9099834946	 1.1758359395	 0.6773191652	 0.125427
H	 0.0502449243	-2.8390688914	 1.578653103	 0.105895
H	-1.3889997147	-1.7805979976	 1.5350048727	 0.104462
H	-1.3349193081	-3.421247575	-0.4532089534	 0.080007
H	 1.4217079582	-2.3471538381	-0.9528261381	 0.114404
H	 0.2864157315	-2.6939421528	-2.3097675983	 0.109579
H	-0.2023130889	-0.1707399868	-2.2223575744	 0.076068
