19
gdb 97504	3.24028	0.73422	0.62563	4.4944	84.16	-0.2633	-0.0593	0.2039	1804.3246	0.155774	-423.025082	-423.014347	-423.013403	-423.062858	37.096	
C	-0.0820337681	 1.5416908638	-0.1912722087	-0.371303
C	-0.1122787166	 0.02263358	 0.0552961361	-0.327986
C	-1.4546061857	-0.5403489028	 0.0635829067	 0.172008
C	-2.5684259959	-1.0083396812	 0.0697883493	-0.003001
C	-3.9011733362	-1.548586171	 0.0919666748	 0.183677
O	-4.1294845542	-2.7424975543	 0.1763627688	-0.326732
C	-5.0683307077	-0.5585104148	 0.024571279	 0.052391
C	-5.0280761077	 0.2811721551	-1.2594831033	-0.399435
O	-6.2767786178	-1.2601632298	 0.1227892595	-0.438966
H	 0.9498573716	 1.9031739597	-0.1845051736	 0.125472
H	-0.5269534002	 1.7880662094	-1.1588501699	 0.135057
H	-0.6390007542	 2.0735824506	 0.5843826742	 0.135023
H	 0.4804491918	-0.4952870422	-0.7096047409	 0.148144
H	 0.3687168946	-0.2120032266	 1.0137354352	 0.148556
H	-4.9495707941	 0.119090411	 0.8882905829	 0.092789
H	-5.0884765172	-0.3669008367	-2.1388366037	 0.127387
H	-5.8883724071	 0.9547106681	-1.2703270484	 0.13432
H	-4.1126853606	 0.876327651	-1.3155813322	 0.120168
H	-6.0242915946	-2.1947118593	 0.2056022942	 0.292431
