15
gdb 44725	2.39492	1.74893	1.21963	1.7625	70.85	-0.2503	-0.0353	0.215	1009.5983	0.110602	-420.565595	-420.557805	-420.556861	-420.598378	29.325	
O	 0.0672373386	 0.073857271	-0.5984506178	-0.28906
C	 0.0426287952	 1.1752881403	-0.1385955089	 0.420727
C	-1.0400366358	 2.0223777484	 0.5680028443	-0.363764
C	-0.0214414409	 3.1864972117	 0.6220550942	 0.112109
O	 0.7543705818	 3.182813351	 1.8365548684	-0.294079
C	 1.8519242198	 2.469182011	 1.2037649578	-0.068715
C	 2.2668408031	 1.2654542024	 1.8981989062	 0.342578
C	 2.6158596467	 0.2659580254	 2.4664556442	-0.434304
C	 1.0513774212	 2.3394200101	-0.1297710421	-0.240371
H	-1.8966910305	 2.2045104119	-0.0906275327	 0.135631
H	-1.3963423187	 1.6588635511	 1.5343610546	 0.147067
H	-0.3468086227	 4.1851299449	 0.3289665018	 0.094471
H	 2.7078951429	 3.1449774436	 1.0821722633	 0.119247
H	 2.9196398504	-0.6212063637	 2.9657928338	 0.209792
H	 1.5692003987	 2.5913675309	-1.0534530071	 0.108672
