19
gdb 80435	2.21272	1.71524	1.20616	3.2179	75.54	-0.2419	-0.0294	0.2125	1082.9671	0.157182	-422.998864	-422.989924	-422.98898	-423.03212	34.061	
C	-0.0469663592	 1.5329406681	-0.1927983988	-0.43956
C	 0.1153174606	 0.0471813388	 0.0564601721	 0.005846
C	 1.3617994869	-0.7595517822	-0.1534299099	-0.084496
C	 2.6203142582	-0.0067528133	 0.3195986213	-0.304169
C	 2.0572135588	-0.0036983857	 1.7721257246	 0.320786
O	 2.7330151369	-0.8844039803	 2.6550954415	-0.48106
C	 1.9678344658	 1.2970634384	 2.5487782744	 0.144459
O	 2.0806777773	 2.3984345118	 2.0750682194	-0.252862
C	 0.7399685006	-0.6311894753	 1.2540553979	-0.172124
H	 0.8326331552	 2.1111193908	 0.0892332685	 0.158367
H	-0.250700874	 1.7105190068	-1.2545850336	 0.112941
H	-0.8951595995	 1.9275017562	 0.3772670573	 0.117805
H	-0.7634973963	-0.5197228961	-0.2516983602	 0.091482
H	 1.3774404093	-1.6284212511	-0.8008444143	 0.087899
H	 3.5351755507	-0.6012066671	 0.277164765	 0.108644
H	 2.8066525545	 0.969395825	-0.1333771004	 0.121281
H	 2.6575497608	-1.7759708097	 2.2971452747	 0.283423
H	 1.780661586	 1.1423333395	 3.6340263127	 0.091798
H	 0.1951753775	-1.3599505344	 1.8459020078	 0.089538
