14
gdb 48003	3.20921	0.73696	0.63106	3.826	77.27	-0.2652	-0.0757	0.1895	1661.1285	0.098286	-436.633723	-436.624674	-436.62373	-436.66944	30.242	
O	-0.224593317	 0.1898950323	 0.7757710714	-0.224361
C	 0.0270891171	 1.0274579614	-0.0592690367	 0.022945
C	 1.2185969006	 1.8384911556	-0.0614226456	 0.057193
C	 2.2067157809	 2.5327918422	-0.0982405755	 0.173275
C	 3.4012327742	 3.325960185	-0.0846054536	-0.264154
N	 3.8079197591	 3.9793790827	-1.3349137004	-0.309289
C	 3.3798304367	 4.8361048337	-0.2257701277	-0.11513
C	 2.0901986064	 5.562839652	-0.4355722108	 0.180695
O	 1.8172530941	 6.5917473146	 0.1252962647	-0.245412
H	-0.6607356359	 1.2331528829	-0.9037881058	 0.106865
H	 4.1830677817	 2.9550594853	 0.5749191403	 0.137481
H	 4.8213595184	 3.9815015967	-1.4165882106	 0.257082
H	 4.1164526081	 5.3792214327	 0.3610694729	 0.121961
H	 1.4077669657	 5.0735046129	-1.1611693127	 0.10085
