21
gdb 69312	2.90047	1.32813	1.26716	1.2456	83.92	-0.2277	0.0147	0.2424	1141.0024	0.181219	-387.093192	-387.084119	-387.083175	-387.126048	36.101	
C	-0.0429642247	 1.5490431362	 0.0344607473	-0.487035
C	 0.0312586801	 0.0412378913	-0.0030525493	 0.313774
C	-0.8188299188	-0.807296417	 0.9265482027	-0.324794
C	 0.682048546	-0.8020670682	 1.0768661292	-0.092058
C	 1.4706263041	-1.931589138	 0.4093580446	 0.341212
C	 2.9723164511	-1.8246423031	 0.6964965793	-0.441145
O	 0.9718615714	-3.1866018681	 0.8958976645	-0.467203
C	 1.1442614672	-1.7327212256	-1.0677915364	-0.139692
C	 0.38309027	-0.660260702	-1.2797532321	-0.148299
H	 0.8960212566	 2.0054454039	-0.2991028325	 0.116909
H	-0.8430489256	 1.9225776504	-0.6157899667	 0.117004
H	-0.2491079328	 1.90751328	 1.0477372943	 0.116252
H	-1.3841533987	-0.287937825	 1.6947162665	 0.102738
H	-1.2912165201	-1.7001881324	 0.534349327	 0.122499
H	 1.1081931119	-0.3388487018	 1.9600313062	 0.076617
H	 3.1603611558	-1.9725457774	 1.7648400803	 0.121645
H	 3.5320112376	-2.586515271	 0.140540373	 0.100218
H	 3.3596067847	-0.8451013701	 0.4005400248	 0.12147
H	 1.4686606976	-3.8869312123	 0.4589513827	 0.272583
H	 1.4785890364	-2.4367570436	-1.8236515978	 0.084674
H	 0.0126636402	-0.3272348461	-2.2443765376	 0.092631
