22
gdb 77562	2.32533	1.44299	1.30626	2.661	82.1	-0.2314	0.0751	0.3066	1151.9995	0.19271	-404.319689	-404.310019	-404.309074	-404.353165	37.729	
C	-0.0203728784	 1.5481017566	 0.0480072959	-0.520982
C	 0.1429106199	 0.0624626264	-0.0331453497	 0.322026
N	-0.8323099235	-0.8757301601	 0.5866007047	-0.406164
C	 0.6103278948	-0.9572546454	 0.944677991	-0.146581
C	 1.2938534664	-1.8043794201	-0.1424525547	 0.294329
C	 2.8165067564	-1.6980949729	-0.0615710081	-0.450189
C	 0.8302552322	-3.2488635946	-0.2841525652	-0.443468
C	 0.7051085582	-0.76636129	-1.2040184984	 0.051443
O	-0.23039038	-1.21707102	-2.1430997181	-0.439155
H	 0.9081985855	 2.0602842646	-0.2254529711	 0.127829
H	-0.8047941488	 1.8951452905	-0.6345094143	 0.134272
H	-0.2914925041	 1.8637597271	 1.0618745957	 0.115754
H	-1.3113733929	-0.3719440674	 1.3317512191	 0.226602
H	 0.9262756592	-0.8243241824	 1.9742070061	 0.08492
H	 3.2083179809	-2.2515452891	 0.7997295574	 0.110902
H	 3.2818555115	-2.1104105897	-0.9636296516	 0.119176
H	 3.1422220656	-0.656233344	 0.0376389264	 0.10813
H	-0.2585262165	-3.3203110466	-0.2397178385	 0.122576
H	 1.16101664	-3.6695352757	-1.239319583	 0.118877
H	 1.2435317814	-3.8691774549	 0.5196133923	 0.103618
H	 1.5024869824	-0.2622907831	-1.7572745561	 0.076164
H	-1.0074802601	-1.468723059	-1.6245120797	 0.289922
