23
gdb 100254	2.17231	0.96407	0.85255	1.4461	90.81	-0.2422	0.0568	0.299	1556.1005	0.201921	-388.272545	-388.260494	-388.25955	-388.311064	42.147	
C	 0.1849192511	 1.5238949318	 0.0187999652	-0.399969
C	 0.0251841715	 0.0023181821	 0.0048778017	-0.174787
C	-1.4402216173	-0.5195564906	 0.0170658374	 0.058855
C	-1.418833691	-2.0655735309	 0.0296885571	-0.413125
C	-2.1999557163	-0.0089585426	 1.2628243	-0.084519
O	-1.4756268662	-0.3958411897	 2.4218837493	-0.428466
C	-2.1650177412	-0.047076191	-1.1683546847	 0.083113
C	-2.7711516729	 0.3349293315	-2.1373183951	 0.037522
C	-3.5013940573	 0.7910303271	-3.3124660021	-0.499799
H	 1.2389691904	 1.797147535	-0.0919311245	 0.108287
H	-0.3718544973	 1.989069869	-0.8005398658	 0.122091
H	-0.1658932989	 1.9571403604	 0.9605381841	 0.117296
H	 0.5111251315	-0.4071365024	-0.8880618232	 0.093729
H	 0.53372749	-0.428074212	 0.8729264375	 0.11158
H	-0.9503487067	-2.422717278	 0.94999075	 0.12933
H	-2.4345551112	-2.4685172201	-0.0237128657	 0.111451
H	-0.8573468079	-2.4488940309	-0.8267860988	 0.114298
H	-2.3060966977	 1.0829286703	 1.2044530766	 0.094737
H	-3.2115242313	-0.4414156139	 1.2594375398	 0.09096
H	-1.9652303148	-0.1012968621	 3.1946707577	 0.289163
H	-4.2095334861	 0.0315322196	-3.6623576074	 0.14597
H	-4.0723514608	 1.7016901554	-3.0993446423	 0.145331
H	-2.8214816797	 1.015090562	-4.1419896568	 0.146952
