18
gdb 73562	2.77688	1.74196	1.36775	3.1772	71.93	-0.2488	0.0127	0.2616	982.9405	0.149548	-439.102566	-439.094813	-439.093869	-439.134579	30.057	
O	 0.0909685997	 1.3071611294	-0.052717627	-0.492917
C	-0.0447902792	-0.1180414148	-0.1120531505	 0.329505
C	 0.8275899277	-0.7262686722	-1.2166140323	-0.310187
C	 2.1812535858	-0.8691452178	-0.477448064	-0.105301
O	 1.8688335136	-1.0660169482	 0.9295276323	-0.261101
C	 0.5631985556	-0.7808943367	 1.1076506705	 0.391376
N	-0.1787481686	-1.0478379692	 2.0954017886	-0.323518
C	-1.5400723299	-0.6297502323	 1.6849669459	-0.161092
C	-1.5133357489	-0.4578809089	 0.1291353766	-0.287127
H	 0.9717991806	 1.5300360343	 0.2672082493	 0.287572
H	 0.453665211	-1.7126233643	-1.5068353212	 0.118437
H	 0.9004151189	-0.0957229082	-2.1042984744	 0.119708
H	 2.7713800677	-1.7274773061	-0.8040186337	 0.131135
H	 2.8005116637	 0.0309869187	-0.5710764496	 0.114733
H	-2.261698362	-1.3869258244	 2.0046595573	 0.109973
H	-1.8069421531	 0.3066202236	 2.1890539754	 0.117263
H	-2.1828782557	 0.3219713422	-0.2379196872	 0.116082
H	-1.774577427	-1.403831875	-0.3545022361	 0.105459
