18
gdb 73067	3.3705	1.07157	0.95831	2.1399	74.36	-0.2542	0.0196	0.2738	1264.8933	0.146622	-439.041883	-439.033074	-439.03213	-439.075901	32.438	
O	-0.195829506	 1.4383558235	-0.2991399735	-0.461026
C	-0.004215748	 0.0896162685	-0.066100877	 0.346911
C	 0.7071080593	-0.8654635037	-1.0318915114	-0.291175
C	-0.3721196942	-1.9507279104	-0.7189367018	-0.225099
C	-1.0790032103	-0.9760008061	 0.2314780483	-0.164566
C	-0.1205247865	-0.4993974174	 1.2950099733	 0.027109
O	 0.9172493471	-1.2991906085	 1.8181603022	-0.192739
C	 0.5378539458	-2.2839674093	 2.6627444712	 0.132289
N	 1.4116752249	-2.9928164416	 3.2333479666	-0.441782
H	 0.5574915964	 1.9207663147	 0.060772724	 0.290102
H	 0.6407322035	-0.5053252841	-2.0601125597	 0.113869
H	 1.7447941902	-1.1103711471	-0.793049253	 0.115638
H	-0.9802315554	-2.1990367084	-1.5902218968	 0.11128
H	-0.0070674435	-2.8760418895	-0.2663436664	 0.114141
H	-2.1500496847	-0.8717318699	 0.3589649729	 0.09766
H	-0.5602690301	 0.1764265161	 2.0260003286	 0.107468
H	-0.5518320172	-2.3707808076	 2.7658568639	 0.090724
H	 0.9604580787	-3.6883416191	 3.8241569786	 0.229196
