17
gdb 99232	3.87717	0.8636	0.85566	1.861	66.41	-0.2479	0.03	0.2779	1422.888	0.134964	-492.354013	-492.343862	-492.342918	-492.391242	34.607	
C	-0.2083149591	 1.1767998054	-0.4383388885	-0.331663
N	 0.0422599107	-0.2250855925	-0.1604043394	-0.316978
C	 0.9654299277	-0.9508568473	-0.8495975333	 0.413942
O	 1.6911946247	-0.4953861833	-1.7105553959	-0.369082
C	 1.061070441	-2.4158684798	-0.392832284	-0.185262
O	 1.7499953317	-3.2014314974	-1.3472772552	-0.237637
C	 1.0335236135	-3.4576576082	-2.4775473838	 0.510997
N	 1.81588941	-4.1199872776	-3.3785022785	-0.562564
O	-0.1344427168	-3.1827087358	-2.6195791964	-0.403156
H	 0.583153799	 1.5225734585	-1.1038309626	 0.171696
H	-1.1745120856	 1.3242365893	-0.9345223894	 0.131205
H	-0.1912719378	 1.7671240715	 0.4835093559	 0.124873
H	-0.5981351214	-0.7140255352	 0.44376075	 0.247579
H	 1.6594008415	-2.4713127918	 0.5208873528	 0.13645
H	 0.0652750081	-2.8278248773	-0.2026135487	 0.130262
H	 2.8145116279	-4.0422241901	-3.2775414116	 0.26929
H	 1.450267565	-4.1660708183	-4.3146167914	 0.27005
