25
gdb 112811	2.32124	1.12802	0.84662	1.0314	90.05	-0.2395	0.0766	0.3161	1509.9987	0.227349	-389.480628	-389.469835	-389.46889	-389.516655	39.56	
C	 0.1337429737	 1.5912341924	 0.114193723	-0.382448
C	-0.0935603105	 0.0816002157	-0.0158052124	-0.187855
C	 0.6455562152	-0.5222374612	-1.2028292807	 0.02158
C	 2.1995941168	-0.5742003158	-1.1957561023	-0.249567
C	 2.129241295	-1.9880795443	-1.8386800378	 0.020559
C	 3.110279507	-3.0469814434	-1.3605208247	-0.413528
C	 0.625778693	-2.0658641383	-1.3974733159	 0.087806
O	 0.4143460257	-2.715804532	-0.1608898938	-0.242716
C	 0.0558184951	-4.0747880649	-0.2738096729	-0.236168
H	 1.1970228222	 1.8237479778	 0.2392957448	 0.116422
H	-0.2170415364	 2.1259589814	-0.7760665485	 0.108498
H	-0.3985074136	 2.0003368817	 0.9787444985	 0.108937
H	 0.2252241546	-0.4273660127	 0.8996170988	 0.107931
H	-1.1675465929	-0.1223642954	-0.1167787565	 0.089517
H	 0.2978225017	-0.0524231652	-2.1311322453	 0.065291
H	 2.7419815971	 0.2018083829	-1.7416210299	 0.090168
H	 2.59185504	-0.6213751152	-0.1739421821	 0.099526
H	 2.1687083018	-1.9018364414	-2.9307117383	 0.06618
H	 3.0007261664	-3.2162446949	-0.2850714202	 0.124739
H	 2.9651627811	-4.004041658	-1.8740511547	 0.108042
H	 4.1416947129	-2.7274333036	-1.5473358566	 0.111172
H	-0.082253569	-2.4553162966	-2.1433499171	 0.04948
H	-0.1337805127	-4.4437129149	 0.7376817569	 0.12408
H	-0.8590281289	-4.1994486084	-0.8739925389	 0.10478
H	 0.8497721546	-4.6845809058	-0.7269822933	 0.107574
