21
gdb 70877	2.45624	1.55383	1.379	1.1414	83.09	-0.2269	0.0683	0.2952	1090.091	0.181318	-387.048492	-387.039512	-387.038567	-387.081265	35.363	
C	-0.1474858152	 1.4430282679	-0.0091947427	-0.507106
C	 0.0049111792	-0.0481570465	-0.0351933603	 0.3002
C	 0.949995363	-0.8856027642	-0.8962350606	-0.317787
C	 0.1064275163	-2.1262276684	-0.4761237622	 0.247088
C	-0.0084205457	-3.33834264	-1.3608082523	-0.504228
C	 0.4071762748	-2.2489090501	 1.0477976369	-0.270983
C	-0.3284841468	-0.9239323286	 1.216747957	-0.199501
C	-1.0645767522	-1.0944240363	-0.0912899729	 0.289447
O	-2.3766335972	-0.9627625936	-0.4708196223	-0.453882
H	 0.7296030495	 1.9298307684	 0.433152752	 0.115796
H	-0.2773990003	 1.8444935449	-1.0206526482	 0.118896
H	-1.0243224517	 1.7388556362	 0.5762433984	 0.121047
H	 0.8262547158	-0.6511893386	-1.9587876994	 0.092358
H	 2.0186734251	-0.9042294117	-0.6472152598	 0.080691
H	 0.9597055816	-3.8444447246	-1.4611177097	 0.11781
H	-0.7197715863	-4.066872791	-0.9549251349	 0.108303
H	-0.3468766752	-3.0670914653	-2.3667330313	 0.120693
H	-0.1393164659	-3.07958767	 1.5070039395	 0.086167
H	 1.4632547608	-2.304623198	 1.3374548781	 0.085836
H	-0.6749644439	-0.4471057531	 2.1255529914	 0.080463
H	-2.9070380356	-1.5974550473	 0.0241027633	 0.288691
