18
gdb 78198	2.25729	1.62523	1.42191	1.5961	77.81	-0.2032	0.0344	0.2375	1026.8672	0.145775	-401.847767	-401.838899	-401.837954	-401.880817	33.817	
C	-0.2870880396	 1.5248580521	-0.0786479681	-0.329344
N	 0.0868358885	 0.1195053696	-0.0699520315	-0.088217
C	 0.6727754757	-0.4894286739	-1.2545095564	-0.081422
C	 2.1002414209	-0.1000790306	-1.5363907573	 0.101226
O	 2.6484181916	 1.1572560306	-1.2773793023	-0.412244
C	 1.8415424256	-1.0636357099	-0.4259813413	-0.151863
C	 1.2005356499	-0.3862947813	 0.7990862239	-0.151719
C	 1.9745152611	 0.5591424099	 1.5889437344	 0.366378
C	 2.5684852837	 1.3161926932	 2.3098638417	-0.479628
H	 0.5523974374	 2.2159719619	-0.2320688319	 0.114065
H	-1.0220293779	 1.6757597709	-0.8767953915	 0.113595
H	-0.7706892458	 1.7778117907	 0.8703122894	 0.123705
H	 0.0337097087	-0.9638866006	-1.9938590191	 0.090928
H	 2.5048298487	-0.600012549	-2.4202888337	 0.089835
H	 2.319766594	 1.7671869233	-1.9461908067	 0.286789
H	 2.2572619824	-2.0621299005	-0.4062058349	 0.102029
H	 0.7930166514	-1.145301219	 1.47938641	 0.111073
H	 3.1172853437	 1.9921864423	 2.9175789252	 0.194811
