17
gdb 3132	5.49305	2.12065	1.84866	0.8862	64.45	-0.2412	0.0988	0.34	751.4373	0.148228	-309.67641	-309.669404	-309.668459	-309.707299	26.199	
C	-0.2446619959	 1.3355062246	-0.0651516956	-0.255942
O	 0.1877721178	-0.0037549628	 0.1028004244	-0.277452
C	 0.7673391192	-0.5375505482	-1.027882605	 0.460243
C	-0.0513200218	-1.0351871195	-2.1885023835	-0.333055
C	 0.8323724714	-2.0008206787	-1.4236710978	-0.133154
C	 2.288356892	-1.8254184162	-1.8743708271	-0.216287
C	 2.2318923566	-0.3215015002	-1.4371303562	-0.297829
H	 0.594013977	 2.0091734926	-0.2918215572	 0.110867
H	-0.9868318765	 1.4193932748	-0.8714186583	 0.110106
H	-0.7006370038	 1.6452118026	 0.8779108263	 0.125633
H	-1.1104274294	-1.1302283422	-1.9706778159	 0.113213
H	 0.1818965658	-0.7650496814	-3.216983574	 0.098999
H	 0.4190935567	-2.8670702367	-0.9222986386	 0.09259
H	 3.0010131707	-2.4040877838	-1.2832611717	 0.105604
H	 2.4779539454	-2.0128905736	-2.9362051245	 0.096156
H	 2.4282891337	 0.4343517375	-2.204416874	 0.091214
H	 2.869338991	-0.1265087088	-0.5715825813	 0.109095
