15
gdb 32039	3.02359	1.38168	0.95415	6.5074	72.61	-0.2248	-0.0387	0.1861	1159.8147	0.114091	-454.004159	-453.996412	-453.995468	-454.036765	28.551	
C	 0.0438237518	 1.4255126181	 0.0080064307	-0.277199
O	 0.0130699417	-0.0004075904	 0.004840131	-0.244471
C	-1.1605651896	-0.639063659	 0.0118347846	 0.552238
C	-1.2082260543	-2.0133554913	 0.0085346853	-0.306757
C	-2.4943406842	-2.5863420031	 0.0165842352	 0.044954
N	-3.6423004571	-1.9473258812	 0.026786617	-0.342361
C	-3.6293997483	-0.5752083013	 0.0303355874	 0.440034
O	-4.5906843382	 0.16093665	 0.0394259471	-0.386928
N	-2.3256351308	 0.0410393625	 0.0222866758	-0.443673
H	 1.0993458357	 1.6954650838	 0.0006643545	 0.163303
H	-0.4387519208	 1.8376119462	-0.8856177333	 0.147994
H	-0.4251470176	 1.8333282944	 0.9107951295	 0.147988
H	-0.3011503032	-2.5978010141	 0.0002179003	 0.116386
H	-2.5642974199	-3.6743642568	 0.0141828102	 0.121837
H	-2.3581060252	 1.0495467525	 0.0252544047	 0.266655
