13
gdb 43598	3.36295	1.40908	1.15298	3.7396	62.2	-0.3009	-0.0177	0.2832	1005.1666	0.090301	-452.759628	-452.752587	-452.751643	-452.791644	25.754	
O	 0.0039069405	-0.0102195708	-0.0010782379	-0.312851
C	 0.0337417739	 1.1750662293	 0.015423161	 0.463208
O	-1.1067478857	 1.9414357332	 0.1634439719	-0.229359
C	-0.8001201988	 3.3330510536	 0.0895509969	-0.048637
C	-1.3821666224	 4.0439678745	 1.2347129998	 0.28804
N	-1.8193038819	 4.6307962124	 2.1278667697	-0.303756
C	 0.7299514501	 3.3893225319	 0.0336849807	-0.046963
C	 1.4735420453	 2.748365301	 1.1363646748	-0.255123
N	 1.190227221	 2.0067444451	-0.1266402423	-0.167283
H	-1.2303661353	 3.7404191663	-0.8322151081	 0.155528
H	 1.1849036036	 4.1434784149	-0.5973670648	 0.138162
H	 2.5219087097	 2.9798859767	 1.2850677223	 0.154954
H	 0.9271909499	 2.453879742	 2.028236316	 0.164082
