13
gdb 4229	5.01784	1.51648	1.4962	2.3821	43.79	-0.2384	0.0778	0.3162	839.2328	0.098192	-472.135006	-472.127654	-472.12671	-472.167022	25.289	
C	-0.1122409666	 1.4548090046	-0.0057475509	-0.31066
N	 0.0249022406	 0.0048293744	-0.0070030407	-0.288314
C	 0.695542314	-0.5052561212	-1.1843562228	-0.263826
C	 0.7691496849	-2.0212828698	-1.138126227	 0.280797
F	-0.4348612919	-2.5968039372	-1.1767521662	-0.068015
F	 1.4800993223	-2.4890588042	-2.1757400876	-0.079
F	 1.3786661216	-2.4367145085	-0.010218147	-0.093989
H	 0.8407073934	 2.0006252939	-0.1248445623	 0.098838
H	-0.7738569869	 1.7607968143	-0.8238552762	 0.127848
H	-0.5743811434	 1.7732659636	 0.9323607639	 0.127372
H	 0.5286731234	-0.2989306989	 0.8190681629	 0.229175
H	 0.1251088917	-0.2319386441	-2.0787778774	 0.134031
H	 1.727390457	-0.1364305268	-1.3277973688	 0.105742
