13
gdb 132793	2.40696	1.78607	1.02625	2.3854	64.78	-0.2218	-0.0146	0.2072	1024.1876	0.08961	-502.057106	-502.049939	-502.048995	-502.088611	27.647	
N	-0.0227010104	 1.4238922366	 0.1546897368	-0.60359
C	-0.0122004089	 0.0418523958	 0.0521926511	 0.026715
C	-1.1719439022	-0.7286997605	 0.0339117793	 0.269504
F	-2.3455671421	-0.0846118314	 0.046962253	-0.081281
C	-1.1240941941	-2.1140390632	-0.0034392977	-0.253041
C	 0.1279652058	-2.7128212147	-0.027205822	-0.017434
N	 1.2692402449	-2.0086020543	-0.0224056847	-0.319548
C	 1.1725472318	-0.7080358164	 0.0143476925	 0.300127
F	 2.3127592002	-0.0033359269	 0.006458015	-0.084918
H	 0.8185520571	 1.8695977518	-0.1796568664	 0.263589
H	-0.8677417019	 1.8632477001	-0.1791005476	 0.260867
H	-2.0403723178	-2.6904913483	-0.015195793	 0.117856
H	 0.2271838177	-3.7927121785	-0.0542559261	 0.121153
