20
gdb 13557	2.61588	1.63435	1.12977	2.6093	75.79	-0.2414	-0.017	0.2244	1110.5698	0.174759	-349.007595	-348.99818	-348.997236	-349.042274	33.589	
C	-0.2289831432	 1.4619579998	 0.1030576685	-0.409861
C	 0.0334441579	-0.0413388139	-0.0982740006	-0.082639
C	 0.8333478749	-0.2525083571	-1.3710544869	 0.173789
O	 0.4675992073	-0.8797418025	-2.3311965887	-0.254915
C	 0.8091533936	-0.6259767073	 1.0750095603	 0.002166
C	 0.092104231	-1.1234661528	 2.3097133208	-0.309512
C	 0.8137951222	-2.1016739383	 1.4141377222	 0.000215
C	 0.0543257484	-3.1378569711	 0.6124589655	-0.409826
H	 0.7118068665	 2.0225736401	 0.149706487	 0.11957
H	-0.8286571427	 1.8754076013	-0.7134158058	 0.126083
H	-0.7621515792	 1.6288005151	 1.0432664501	 0.129142
H	-0.9170774252	-0.5663367285	-0.2284452108	 0.091524
H	 1.839013623	 0.2351993345	-1.3546575769	 0.065316
H	 1.7490356953	-0.1086331802	 1.2591823296	 0.082586
H	 0.5052083238	-0.8878224276	 3.2845229611	 0.111797
H	-0.9937784381	-1.1361556246	 2.2809638497	 0.111262
H	 1.7633707019	-2.464895811	 1.7996838379	 0.085006
H	-0.9290994049	-2.7765795293	 0.2995882273	 0.121072
H	 0.6004837395	-3.4268755785	-0.2914729639	 0.130544
H	-0.1060565719	-4.040832678	 1.2115370435	 0.11668
