21
gdb 95551	2.30898	1.65506	1.07934	1.2372	84.38	-0.2276	0.023	0.2506	1158.0139	0.184773	-387.08428	-387.076004	-387.07506	-387.116993	33.052	
O	-0.2553489586	 1.4607906437	 0.2853243558	-0.438803
C	 0.0422067351	 0.0657675473	 0.1822122172	 0.094969
C	 0.5190295061	-0.4865347911	 1.5278655129	-0.233124
C	 1.1194028043	-1.897681811	 1.472731846	-0.255693
C	 0.1570660224	-3.0355333604	 1.2498844325	-0.073359
C	-0.9692674009	-3.0566426874	 0.5339791767	-0.048031
C	-1.6346978601	-1.9963048125	-0.2609667324	-0.075878
C	-2.4286975713	-0.8780446653	 0.4068799643	-0.283382
C	-1.2052203463	-0.5559911924	-0.4065017669	 0.006272
H	 0.5467582214	 1.9112548798	 0.5689565856	 0.276965
H	 0.8604440529	-0.0819953967	-0.5454333914	 0.059753
H	 1.2956493427	 0.198346304	 1.8950784192	 0.079802
H	-0.2945563259	-0.4446806758	 2.2601337686	 0.108223
H	 1.9028158518	-1.9224378193	 0.6981953928	 0.107892
H	 1.6480410177	-2.0821559724	 2.4152253828	 0.101008
H	 0.4390872733	-3.9661542151	 1.7387525491	 0.081728
H	-1.5115866912	-4.0014310382	 0.5107959724	 0.082619
H	-2.1121429581	-2.3992038244	-1.1512571154	 0.087549
H	-3.4013106766	-0.612894132	 0.007211777	 0.110425
H	-2.3570399658	-0.8179258201	 1.4865408947	 0.120002
H	-1.417819273	-0.1316170705	-1.3842623016	 0.091065
