16
gdb 132360	1.93203	1.75299	0.92489	3.3542	76.66	-0.2127	-0.0086	0.2041	1199.7002	0.124691	-442.117278	-442.109032	-442.108088	-442.151252	30.97	
C	-0.0287817564	 1.5222117979	-0.0018622994	-0.49193
C	 0.0101296975	 0.0158251512	 0.0027146929	 0.361063
C	 0.0198239133	-0.696292958	-1.2024404962	-0.387588
C	 0.0576830823	-2.0777494408	-1.1141465262	 0.34642
F	 0.06133345	-2.785031173	-2.2441016823	-0.079048
N	 0.0843369584	-2.7863002223	-0.0067894273	-0.394152
C	 0.0820299983	-2.1039924202	 1.1468748123	 0.399375
N	 0.1677972255	-2.860956112	 2.2952041946	-0.566208
C	 0.0422829298	-0.7003809164	 1.1927053238	-0.286676
H	 0.8634379395	 1.9337049975	-0.486515559	 0.140604
H	-0.8953057605	 1.8901958136	-0.561527779	 0.138211
H	-0.0804210721	 1.9264826679	 1.0117995843	 0.125447
H	-0.0053420228	-0.2065196772	-2.1673299094	 0.100677
H	-0.0571225151	-3.8359724039	 2.1687091631	 0.259172
H	-0.1822073572	-2.4511441531	 3.1458943339	 0.252474
H	 0.0434685896	-0.1863556313	 2.147958464	 0.08216
