17
gdb 64683	5.01788	0.86587	0.82075	1.8607	81.81	-0.258	0.0152	0.2733	1398.5026	0.131261	-384.604269	-384.594538	-384.593593	-384.638881	35.76	
C	-0.1851787038	 1.706303885	 0.2196554039	-0.464152
C	-0.1332116655	 0.2003984194	 0.1301777758	 0.389891
C	-1.3630492376	-0.4863969366	-0.4682475382	-0.417855
C	-1.6792190529	-0.0270694654	-1.8163315099	 0.312711
C	-1.9332514774	 0.3614148781	-2.9245864668	-0.442745
O	 1.1134625674	-0.3589045023	-0.2823005198	-0.269383
C	 0.6910305746	-0.5957934701	 1.0739822836	-0.233593
C	 1.4632932444	-0.0038271015	 2.1325488228	 0.333929
C	 2.0992161101	 0.4599526166	 3.0412777695	-0.408229
H	 0.7224073321	 2.0947183917	 0.6832695398	 0.141538
H	-0.2873435193	 2.133754541	-0.7816035021	 0.144331
H	-1.0479174844	 2.0256403607	 0.8138758814	 0.12258
H	-1.1893600691	-1.5681783079	-0.4797366656	 0.139553
H	-2.2221328165	-0.3079632311	 0.1920589998	 0.136859
H	-2.157559601	 0.6951178604	-3.9074025278	 0.200019
H	 0.383442977	-1.6250347631	 1.2626426723	 0.111309
H	 2.665630892	 0.8734762851	 3.8390807612	 0.203235
