19
gdb 38385	4.30739	1.28713	1.25519	1.5345	79.42	-0.225	0.077	0.302	1075.8936	0.160012	-385.809507	-385.802269	-385.801325	-385.841033	29.452	
C	 0.0765963172	 1.4372072756	 0.2087900811	-0.303133
C	 1.3200081691	 0.616624572	 0.070363868	 0.100508
O	 1.6636355344	-0.0185991749	 1.307130411	-0.328281
C	 0.4235705565	-0.763924446	 1.2549417973	 0.507578
C	-0.0260742079	-0.0644694341	-0.0033794569	-0.23727
C	 0.3215547448	-2.2207480319	 1.5152146731	-0.161027
C	 1.2505875837	-2.6095908419	 2.6707840282	-0.230442
C	 0.5440184228	-1.5611117659	 3.5902235522	-0.228478
C	-0.3826402548	-1.1666185627	 2.4321929701	-0.152334
H	-0.1714670868	 1.8770630538	 1.1702673294	 0.118252
H	-0.18900859	 2.0333379655	-0.6591304049	 0.113044
H	 2.1076820033	 0.7648739165	-0.6580732557	 0.105102
H	-0.5461984837	-0.5206291819	-0.8344176514	 0.102138
H	-0.1022715671	-2.9015583679	 0.7844091605	 0.083022
H	 1.0942929068	-3.6337160822	 3.014880268	 0.102039
H	 2.3162610689	-2.4546330158	 2.4821494541	 0.111866
H	 0.0097961545	-2.0327471324	 4.4173350748	 0.101902
H	 1.1689831634	-0.7552278037	 3.9844021867	 0.111495
H	-1.4328467452	-0.910237412	 2.5205961943	 0.084019
