19
gdb 41475	3.11896	1.71112	1.36463	0.6206	74.18	-0.2339	0.0676	0.3014	986.2175	0.161427	-423.003416	-422.996369	-422.995425	-423.034749	28.616	
C	 0.1931232921	 1.5468278677	 0.4402303301	-0.24189
C	 1.6047541621	 1.5245413124	-0.2393551613	-0.333187
C	 1.3530521608	 0.072063369	-0.6405568714	 0.408972
O	 1.8169997658	-0.4204262324	-1.8543867009	-0.297797
C	 1.5933987183	-1.8351487773	-1.8331170579	-0.104364
C	 1.858634213	-2.2765168543	-0.3787148251	-0.247764
C	 1.4574493875	-1.0451367382	 0.4333894358	 0.049167
O	 0.0434390534	-0.9560221144	 0.7415449628	-0.310781
C	-0.133003834	 0.1488646363	-0.1662172846	 0.033193
H	 0.2041348791	 1.5311308369	 1.5317832976	 0.115077
H	-0.457995342	 2.3553417429	 0.1022857593	 0.107368
H	 1.6478167037	 2.1735156601	-1.1175909717	 0.11748
H	 2.4782295478	 1.7222603459	 0.3874228824	 0.101647
H	 0.5565962358	-2.054389924	-2.1245159326	 0.106451
H	 2.2640011873	-2.2902856483	-2.5648999375	 0.112141
H	 1.290902214	-3.1633782093	-0.088744012	 0.118178
H	 2.9241066954	-2.4788892228	-0.2311183851	 0.109627
H	 2.0765759109	-0.8791236285	 1.3204377227	 0.07676
H	-1.0256869211	 0.0503776984	-0.7875304106	 0.079721
