21
gdb 96246	2.4591	1.55014	1.08808	1.0387	88.23	-0.2185	-0.0138	0.2047	1181.7095	0.183694	-387.093341	-387.084857	-387.083913	-387.126169	33.416	
C	 0.0260097408	 1.5331723937	-0.0492424028	-0.387022
C	 0.0205996824	 0.0000532559	 0.0311790938	 0.068093
O	 0.5951653292	-0.4614785379	-1.1779037347	-0.239342
C	 0.1366695367	-1.7060306572	-1.6579396456	-0.064373
C	 0.5196020194	-2.8937539425	-0.7538087453	-0.285221
C	 1.9788042766	-2.8794835461	-0.4046987938	-0.049517
C	 2.5070500191	-2.1142066677	 0.5572490527	-0.065155
C	 1.7726376307	-1.2551685389	 1.4906545176	-0.105641
C	 0.72090857	-0.4480962323	 1.2968927223	-0.051411
H	 1.0537403843	 1.8947963749	-0.144396235	 0.131518
H	-0.5409549872	 1.860884387	-0.9242575443	 0.118729
H	-0.4182638271	 1.9773003897	 0.8461056746	 0.110968
H	-1.0327725758	-0.3305725466	 0.0879080325	 0.072476
H	-0.9561091995	-1.6885770084	-1.8021788177	 0.085284
H	 0.6012507778	-1.8205604854	-2.6429226758	 0.105354
H	-0.078541018	-2.8438998791	 0.1641216415	 0.113443
H	 0.2443406008	-3.8204322146	-1.2701953342	 0.095673
H	 2.6417846954	-3.5077074438	-0.9946565692	 0.08646
H	 3.5752907978	-2.195852419	 0.7515609626	 0.085743
H	 2.1478716999	-1.3022192234	 2.5136166705	 0.089244
H	 0.3126645768	 0.0423017517	 2.1806102904	 0.084698
