20
gdb 98325	3.53016	0.86284	0.76775	3.2342	83.41	-0.2421	0.0266	0.2688	1549.6053	0.16785	-403.144728	-403.133893	-403.132949	-403.181662	37.824	
C	 0.2058185207	 1.5644689407	-0.3256916634	-0.371103
C	 0.0445631595	 0.0701844552	-0.0497502947	-0.314192
C	 0.7476236581	-0.3471911023	 1.2426133196	 0.434502
O	 1.3241766615	 0.473110805	 1.9389033148	-0.378385
N	 0.6982585995	-1.6793582325	 1.5860948036	-0.095924
C	 0.1119632008	-2.7364408806	 0.7824538175	-0.345287
C	 1.4106337191	-2.1028754149	 2.7907949292	-0.318309
C	 0.5420456477	-2.755201501	 3.7694685431	 0.311914
C	-0.1687848708	-3.3069766254	 4.566097441	-0.459311
H	 1.2605751045	 1.8320066802	-0.4211984873	 0.132011
H	-0.3097461467	 1.8370766763	-1.2511550834	 0.103545
H	-0.2057196856	 2.1583195478	 0.4931792477	 0.135166
H	-1.0191101156	-0.189897911	 0.0215388725	 0.125914
H	 0.4418660917	-0.5185354778	-0.8856602363	 0.12021
H	-0.5874732456	-2.333215675	 0.0532049511	 0.140154
H	 0.880385588	-3.312125678	 0.2463168399	 0.122288
H	-0.4368607016	-3.4247340552	 1.4329252714	 0.145513
H	 2.2273970592	-2.7869975422	 2.5171668948	 0.128907
H	 1.8597483647	-1.2011838861	 3.214094463	 0.180491
H	-0.7926594291	-3.7807450933	 5.2831526857	 0.201896
