17
gdb 38071	3.61911	1.40519	1.24312	2.2766	72.26	-0.2506	-0.0127	0.2379	1021.6886	0.136839	-421.781367	-421.774205	-421.773261	-421.813358	27.726	
C	 0.0257519719	 1.5266459073	 0.0549108736	-0.11359
O	 1.2926222475	 1.5676341919	-0.6324993373	-0.27335
C	 1.4623895213	 0.1469148229	-0.4876016648	-0.125901
C	 0.0277108869	-0.0255244377	 0.0763721913	 0.255444
C	-0.1764487765	-0.7497071567	 1.3827033253	-0.170001
C	-1.0878305754	-1.7228744326	 1.2937511881	-0.097071
C	-1.6652895089	-1.7559823208	-0.0844068717	-0.016372
O	-2.3380941182	-0.5228853481	-0.4466558139	-0.260501
C	-0.9792361014	-0.7020778748	-0.847147032	-0.046599
H	 0.0817511184	 1.9936546869	 1.0467852525	 0.100728
H	-0.7831243172	 1.9922628639	-0.5180533165	 0.119792
H	 1.6648903235	-0.3497838633	-1.4451941705	 0.104221
H	 2.2610294579	-0.1061097635	 0.2223137491	 0.098161
H	 0.3498422034	-0.4562559419	 2.2849188473	 0.109655
H	-1.4083555843	-2.3755181451	 2.0959806564	 0.1106
H	-2.0856971738	-2.6542380281	-0.5250628274	 0.102282
H	-0.8023034151	-0.7401234002	-1.9196226394	 0.102502
