21
gdb 103890	4.29571	0.6993	0.66974	2.8441	80.93	-0.2441	-0.0187	0.2254	1701.6144	0.179228	-424.219062	-424.208468	-424.207523	-424.255624	37.525	
C	 0.0286132322	 1.5918022497	-0.1105228164	-0.466852
C	-0.0710303196	 0.0860097404	 0.0426471867	 0.342154
C	-1.3805790351	-0.4893078478	-0.4528134125	-0.139099
O	-1.4845403491	-0.236950241	-1.8485825177	-0.420802
C	 1.1626714464	-0.7625658872	-0.1535855846	-0.317473
C	 0.5534543808	-0.6277262029	 1.2261486458	-0.067404
C	 1.2723968148	 0.0971488238	 2.3501337869	-0.310027
C	 2.2892566318	-0.8039845939	 3.0211802323	 0.168583
O	 2.3497680327	-1.0143559108	 4.2050600763	-0.240456
H	 1.0194667409	 1.9724292026	 0.1489573897	 0.110773
H	-0.1739928526	 1.8668268462	-1.1490795891	 0.140824
H	-0.7057344064	 2.1052387766	 0.5221304796	 0.112355
H	-1.4132391379	-1.5705867809	-0.2448951745	 0.081645
H	-2.2167864066	-0.0227618632	 0.0935509294	 0.086564
H	-2.3750775651	-0.4658415169	-2.1298801351	 0.288074
H	 1.0679230966	-1.708887654	-0.6747759227	 0.117411
H	 2.0970034843	-0.2441532036	-0.345746682	 0.109501
H	 0.0008373376	-1.4984802808	 1.5735416295	 0.09067
H	 1.8211231739	 0.9608685194	 1.9525292109	 0.117715
H	 0.5794463599	 0.4629005427	 3.1144143603	 0.120516
H	 3.0043173104	-1.2858672485	 2.3146596973	 0.075328
