15
gdb 25848	3.88546	1.28511	0.9657	3.0438	75.58	-0.2438	-0.0478	0.196	1143.6277	0.115693	-416.91019	-416.902765	-416.901821	-416.942316	28.152	
N	-0.0834331872	 1.3176570112	 0.0082103684	-0.538115
C	 0.0555487388	-0.02919437	 0.0021853173	 0.35443
O	 1.1245986757	-0.6159646128	-0.0084594216	-0.366938
C	-1.258127625	-0.777158816	 0.0101305966	 0.229606
N	-2.3883865415	-0.0587929626	 0.020992307	-0.334243
C	-3.5451319521	-0.7218497801	 0.0278918106	-0.006713
C	-3.6289130113	-2.1127061614	 0.0243621908	-0.121198
C	-2.4484622807	-2.8499231634	 0.0130644256	-0.083872
C	-1.2366614555	-2.1702396363	 0.005766696	-0.143125
H	 0.7385215904	 1.8959285177	 0.0020117774	 0.260709
H	-1.0087129403	 1.7149983618	 0.01543735	 0.271513
H	-4.4475421672	-0.1154344801	 0.0366405984	 0.114145
H	-4.5976734414	-2.599385748	 0.0303614402	 0.110041
H	-2.4733149857	-3.9346188548	 0.0099905655	 0.116266
H	-0.2785640269	-2.6741007351	-0.0031670922	 0.137494
