13
gdb 123525	4.21664	1.77829	1.25079	1.7038	72.93	-0.2553	-0.063	0.1923	896.3601	0.094717	-411.846634	-411.841071	-411.840127	-411.876549	22.051	
C	 0.0626154168	 1.2896868576	 0.0089968515	 0.03837
N	 1.3073523768	 1.7839787093	-0.0004669768	-0.26883
N	 2.0451476898	 0.6587577716	-0.0140283642	-0.000739
C	 3.4011885931	 0.5470110417	-0.027994506	-0.017511
C	 3.9171438858	-0.7191869017	-0.0401260828	-0.029554
N	 3.1547876103	-1.8482406426	-0.0389152248	-0.262729
C	 1.8483609413	-1.7178129819	-0.0253297675	-0.073365
C	 1.2171631829	-0.4535986832	-0.0120759837	 0.379952
N	-0.0554088287	-0.0513134462	 0.0026498814	-0.342292
H	-0.7889333025	 1.9545834204	 0.0210878016	 0.139844
H	 3.9709625492	 1.4655971996	-0.0284746207	 0.158761
H	 4.9918101549	-0.8597574523	-0.0514770387	 0.132151
H	 1.2347568303	-2.6139559223	-0.0243059591	 0.145942
