13
gdb 20701	5.94337	1.6119	1.27802	1.1486	63.46	-0.2386	-0.0699	0.1687	894.113	0.096249	-394.807198	-394.800424	-394.79948	-394.838331	24.826	
C	-0.0535991198	 1.4700643212	 0.043016375	-0.453429
C	 0.0017060046	-0.0285098007	 0.0024845779	 0.383297
N	 0.0333911624	-0.6221717212	-1.212246774	-0.256529
C	 0.0816816787	-1.9353335414	-1.2189501598	-0.064847
C	 0.0976338612	-2.6386268035	-0.0015906408	 0.428367
O	 0.1466227586	-3.9794127137	-0.0000582882	-0.406935
N	 0.0650042758	-2.0076826764	 1.1579218496	-0.279697
N	 0.0159688871	-0.6749590103	 1.1658830933	-0.227882
H	 0.8159323325	 1.8970923861	-0.4664947454	 0.14272
H	-0.9427638821	 1.832614021	-0.482301742	 0.142713
H	-0.0755216163	 1.8164173693	 1.0763734471	 0.145153
H	 0.1085771597	-2.4596292233	-2.1710057992	 0.138857
H	 0.1491294476	-4.254492417	 0.9293522465	 0.308211
