17
gdb 19435	3.99201	1.94518	1.6183	2.4249	67.41	-0.2314	0.0734	0.3048	830.985	0.144023	-363.814967	-363.808377	-363.807433	-363.845542	26.358	
C	-0.0409711856	 1.4859532239	 0.0164123356	-0.296537
N	 1.2375780846	 0.7428096601	-0.0167659338	-0.357413
C	-0.0357255952	 0.0069405307	-0.0102883055	 0.336683
C	-0.339573688	-0.863106066	 1.210225934	-0.154978
O	-0.35905211	-2.2163430743	 0.747915441	-0.259603
C	-0.621452342	-2.2103506032	-0.630676684	 0.127308
C	-1.8283192405	-1.4667579204	-1.1349322277	-0.339325
C	-0.4463977039	-0.8254598019	-1.1919200191	-0.167604
H	-0.2320484121	 2.0190309531	 0.9448575699	 0.117479
H	-0.3681664604	 2.0106453729	-0.8778072422	 0.112909
H	 1.6277346823	 0.7645829542	-0.9566621917	 0.22797
H	 0.4298001723	-0.7664927412	 1.9797674863	 0.127656
H	-1.3131114514	-0.5987281404	 1.6478640078	 0.097694
H	-0.2752336664	-3.1145875516	-1.1164409784	 0.104689
H	-2.2509290061	-1.7917460817	-2.0795370859	 0.115406
H	-2.5559141631	-1.0898851055	-0.424247973	 0.121306
H	 0.0148912456	-0.6297971387	-2.1537559032	 0.08636
