14
gdb 130365	7.33348	0.85389	0.76601	3.9048	74.06	-0.2143	-0.0302	0.1841	1399.7443	0.102222	-466.204006	-466.195556	-466.194612	-466.23775	30.086	
N	-0.0068301727	 1.3080962703	-0.0086107817	-0.488076
C	 0.0725456324	-0.031742427	 0.0654055393	 0.138684
N	 1.2009837536	-0.6413781828	-0.0644888882	-0.369667
C	 1.2137853125	-2.0033064104	-0.0202316921	 0.520225
N	 2.2808970434	-2.7566236388	 0.007547751	-0.39466
C	 1.7397764059	-4.0165219488	 0.0435030368	 0.414995
N	 2.5395665688	-5.1281531617	 0.143974439	-0.587054
N	 0.4259548543	-4.0795027347	 0.0250547415	-0.230905
O	 0.0639474195	-2.7080867915	-0.0127331677	-0.230287
H	 0.8357853608	 1.843776438	-0.1440784069	 0.278528
H	-0.8739415843	 1.7892469112	 0.1443447116	 0.276687
H	-0.8807109638	-0.5375785016	 0.2383858912	 0.146379
H	 3.46240373	-4.996210022	-0.2412290906	 0.263905
H	 2.0979255495	-5.9908449803	-0.1368170832	 0.261246
