16
gdb 16761	5.51142	1.47558	1.27316	3.7813	65.37	-0.2269	0.0214	0.2483	948.8368	0.131893	-379.911906	-379.904724	-379.90378	-379.943311	27.41	
O	 0.0742017762	 1.4038958223	 0.0048610973	-0.419613
C	 0.0277277565	 0.0128612442	-0.1602887834	-0.124846
C	-1.3828864991	-0.4974832963	-0.0533354222	 0.332356
N	-2.3859807173	 0.3075479939	-0.0176957666	-0.313062
C	-3.5808953509	-0.4890233998	 0.0630095777	-0.007065
C	-3.8895528387	-1.4118599332	-1.0983334019	-0.295866
C	-3.1219543447	-1.9565215768	 0.0740131223	-0.027701
N	-1.6849889531	-1.8459405334	-0.0388839999	-0.341198
H	-0.8522139159	 1.6928432904	 0.0020603442	 0.295834
H	 0.4394858736	-0.28854075	-1.1380375013	 0.112917
H	 0.6519595027	-0.4796279746	 0.6033170128	 0.099793
H	-4.3953131355	-0.0860283439	 0.6542269858	 0.097458
H	-4.9204334779	-1.7346460197	-1.1944233509	 0.11726
H	-3.3634162101	-1.2574422694	-2.0347086143	 0.121877
H	-3.5134609252	-2.7470343752	 0.7022565283	 0.103368
H	-1.0849574406	-2.4974406985	 0.4430111821	 0.248486
