16
gdb 81818	2.18552	1.75504	1.18627	5.1647	68.98	-0.2705	0.0182	0.2887	1053.091	0.122958	-437.86373	-437.855297	-437.854353	-437.896803	31.271	
C	-0.1586312427	 1.4779373315	 0.0505560024	-0.505717
C	 0.144520642	 0.0183442796	-0.0102409926	 0.424919
O	-0.7052407409	-0.8988632002	 0.6904824328	-0.28559
C	 0.7077871399	-0.9373372527	 0.9607403358	-0.101034
C	 1.2971287846	-1.831373672	-0.1390921823	 0.134878
O	 0.849719251	-3.1420196749	-0.2003297745	-0.413263
C	 0.7291039699	-0.7740165975	-1.2048572244	-0.320036
C	-0.216508157	-1.2664015365	-2.1882774614	 0.302655
N	-0.9802945638	-1.6712582659	-2.9558729621	-0.328778
H	 0.7069109144	 2.0668646009	-0.2681599474	 0.133203
H	-0.9978854163	 1.7231906059	-0.6087084431	 0.152041
H	-0.4267339414	 1.7660882835	 1.0699484699	 0.145282
H	 1.0194871103	-0.8086385367	 1.9908786013	 0.119751
H	 2.388477395	-1.8499623308	-0.1597128989	 0.111193
H	-0.1103127396	-3.1214473442	-0.0876659781	 0.303009
H	 1.5471140945	-0.24227924	-1.6979157874	 0.127488
