14
gdb 15310	4.2635	1.16753	0.99511	3.5951	63.61	-0.2654	-0.0394	0.2261	1112.3994	0.105512	-378.701251	-378.693285	-378.69234	-378.734748	27.235	
O	-0.4984568384	 0.5755523978	 0.7754975855	-0.22868
C	-0.0683052362	 1.1692742119	-0.176302682	 0.158462
C	 1.3672823969	 1.6642558685	-0.2847558182	-0.242186
N	 1.4193394746	 2.8270973125	-1.1633181198	-0.088559
C	 1.4090140292	 4.1415295658	-0.5467697867	-0.241134
C	 2.6520107043	 3.6212171155	-1.2084706413	-0.141482
C	 3.7868310441	 3.2705935652	-0.3884295914	 0.287613
N	 4.7068476734	 2.9720015729	 0.2457636684	-0.326828
H	-0.689676281	 1.3880992499	-1.0723387498	 0.095352
H	 1.7713981904	 1.8277448091	 0.7241853609	 0.140124
H	 1.953737458	 0.8581914561	-0.7469111969	 0.152539
H	 0.8256819048	 4.9052822233	-1.0519320362	 0.142453
H	 1.4234723598	 4.2023320394	 0.5396704682	 0.145253
H	 2.9199966403	 3.9813262421	-2.1977751007	 0.147071
