15
gdb 20359	5.96918	1.37871	1.2012	3.3238	66.15	-0.2497	-0.0085	0.2412	977.5886	0.120417	-362.640928	-362.63427	-362.633326	-362.672722	24.71	
C	 0.1749894132	 1.5877361536	 0.0681613724	-0.268722
C	 1.2983072328	 0.6211413187	-0.1959691014	-0.250837
C	-0.1070962096	 0.1052953291	 0.0486188454	-0.133462
C	-0.4380224826	-0.6278878765	 1.2900304016	 0.150359
C	-0.9556835705	-0.1718373578	 2.4630155397	-0.01027
O	-1.1090486152	-1.1709420164	 3.3453459646	-0.165383
N	-0.6908859756	-2.3591806205	 2.754770891	-0.131198
C	-0.2996862053	-2.0258167708	 1.5516107562	-0.045488
H	 0.1661603233	 2.0964831963	 1.0255249297	 0.115792
H	-0.1999323968	 2.18525207	-0.7547432876	 0.118561
H	 1.6967248477	 0.5506332572	-1.2017673535	 0.117511
H	 2.0282336973	 0.4700418615	 0.5912297946	 0.121825
H	-0.6190243868	-0.2626061163	-0.8367926114	 0.100557
H	-1.2584725379	 0.8058930291	 2.8037098274	 0.149596
H	 0.077048386	-2.7945694673	 0.8907703014	 0.131159
