19
gdb 39885	3.8943	1.5021	1.3914	1.8002	78.68	-0.2489	0.089	0.3378	984.23	0.161818	-385.829857	-385.823351	-385.822407	-385.86044	27.766	
C	 0.0547259624	 1.5467797317	 0.0608090561	-0.303349
O	 1.1887734624	 0.656735304	-0.0186502059	-0.306297
C	-0.1126783668	 0.0985771022	 0.0041443333	 0.524646
C	-0.546479037	-0.9606750695	 1.023623129	-0.151335
C	-2.0755689378	-0.9335210643	 0.8002558023	-0.212188
C	-2.0077157035	-1.4184403443	-0.6694949037	-0.049363
C	-1.4007094814	-2.8357538624	-0.4889356096	-0.240492
C	-0.1468128464	-2.0557304976	-0.0689910372	-0.024079
C	-0.5536105189	-0.8978685091	-1.0513896265	-0.130289
H	-0.052247844	 2.0735105009	 1.0086892477	 0.112427
H	-0.1180622353	 2.1541388187	-0.8269250376	 0.112881
H	-0.1527858774	-0.9724120102	 2.0384377796	 0.072139
H	-2.6338746822	-1.625778829	 1.4367831684	 0.094429
H	-2.4945833123	 0.0695306598	 0.9228785719	 0.094759
H	-2.8708352179	-1.239137492	-1.3097144749	 0.063824
H	-1.8871640711	-3.516569916	 0.2175178584	 0.088999
H	-1.2378624955	-3.3472008544	-1.4421489207	 0.099131
H	 0.8573313884	-2.471543529	-0.0209824455	 0.079691
H	-0.2601857656	-0.8540222998	-2.0983424052	 0.074464
