18
gdb 84887	2.30625	1.79494	1.29851	2.8931	72.13	-0.249	0.0237	0.2726	1026.09	0.148257	-439.075369	-439.067325	-439.066381	-439.107933	30.539	
C	-0.0140350233	 1.577625184	-0.0602760949	-0.388819
C	 0.0416048138	 0.0468855706	 0.0380387984	-0.027989
N	 0.6463381199	-0.5032870886	-1.1783073239	-0.276404
C	 1.7984224561	-1.0188801102	-1.1148300854	 0.132714
O	 2.6434510837	-1.1372567131	-0.0610051498	-0.223915
C	 2.2526391035	-0.4525919578	 1.1378095785	-0.133209
C	 0.7532613192	-0.4442260645	 1.2878011412	 0.366846
C	 0.1369721456	-0.3964282244	 2.6165017771	-0.241738
O	 0.2090571186	-1.6270891118	 1.8956664594	-0.27855
H	 0.9900413689	 2.0139525039	-0.0415304498	 0.116196
H	-0.4834769947	 1.8662483001	-1.0038966678	 0.136605
H	-0.5919974613	 2.0031222804	 0.7657064804	 0.113921
H	-0.9848033174	-0.3358114616	 0.0804906901	 0.101585
H	 2.2545975586	-1.4675132719	-1.9955222664	 0.127484
H	 2.7265883246	-0.9835888353	 1.9653106286	 0.127805
H	 2.6447422419	 0.572384027	 1.0965960542	 0.116892
H	 0.7617284163	-0.3344670652	 3.50768369	 0.112707
H	-0.8613307038	 0.0260655384	 2.7262134899	 0.117869
