18
gdb 114478	3.37618	1.31994	1.2141	4.1519	70.76	-0.2358	0.0562	0.292	1072.5513	0.148579	-438.989842	-438.982243	-438.981299	-439.022172	29.794	
O	-0.0667439868	 1.5265196605	-0.159137055	-0.425161
C	 0.0990147064	 0.156835078	 0.1830691661	-0.093693
C	-1.2348194652	-0.5590412943	 0.0854145779	 0.123827
O	-1.7780949343	-0.5407751704	-1.2752938279	-0.32337
C	-2.082966124	-1.9449075074	-1.2155158846	 0.132673
C	-1.0529476819	-2.9330188854	-1.8234250774	-0.081912
N	 0.2929472627	-2.3690164146	-1.5998131787	-0.315852
C	-0.3876510826	-3.06317719	-0.4866436179	-0.065937
C	-1.4104415435	-2.0983080242	 0.1643693724	-0.134918
H	-0.4028311855	 1.5345262902	-1.0628374561	 0.292529
H	 0.8399571114	-0.333528461	-0.4542519573	 0.120292
H	 0.448436205	 0.1319188991	 1.2220618066	 0.096964
H	-1.9479431855	-0.0525954704	 0.7509347746	 0.081107
H	-3.1335958383	-2.1750304362	-1.4096455199	 0.081494
H	-1.221979478	-3.6640115238	-2.6049948699	 0.094667
H	 0.9584063533	-3.0299795489	-1.9996750349	 0.234828
H	 0.0656762482	-3.92673436	-0.015610034	 0.098079
H	-1.9400172711	-2.5072422213	 1.022986116	 0.084384
