21
gdb 114032	2.79884	1.13864	0.96755	1.7411	78.94	-0.2376	0.0677	0.3053	1305.5749	0.181573	-424.189838	-424.18026	-424.179316	-424.223844	36.355	
C	-0.0445957249	 1.5342554223	 0.0957129216	-0.496285
C	 0.0037365021	 0.0345785187	 0.0185721585	 0.31519
C	-1.2453096301	-0.8583664036	-0.0864803573	-0.322726
C	-0.6200474091	-1.8520464197	 0.9477105012	 0.026648
C	-0.5519742984	-3.3378131119	 0.6133511373	-0.096163
O	-1.8306095041	-3.9576884255	 0.6837632708	-0.421205
C	 0.6667917619	-1.0154109138	 0.9649154559	-0.208783
C	 1.2015270809	-0.7311433217	-0.4143621126	 0.064136
O	 1.1228764113	-1.6164623658	-1.5003918621	-0.42359
H	 0.9392113068	 1.9557644231	 0.326127366	 0.116769
H	-0.3749079193	 1.9656062026	-0.8574565666	 0.124341
H	-0.7432852661	 1.8713182847	 0.8699634347	 0.117289
H	-2.1486227777	-0.3695487944	 0.284983147	 0.100057
H	-1.4393823496	-1.2566141011	-1.0872957222	 0.103448
H	-1.1408263685	-1.751377596	 1.9050888855	 0.081203
H	-0.0937414101	-3.48414839	-0.3734255011	 0.087914
H	 0.0696212312	-3.8563956471	 1.3530305275	 0.100387
H	-2.3748573559	-3.5720101029	-0.0102186174	 0.283546
H	 1.283129151	-0.8512742316	 1.8434539859	 0.078341
H	 2.1191945105	-0.1398946334	-0.3980442911	 0.084012
H	 1.7794132581	-2.308450353	-1.3670457114	 0.285471
