19
gdb 65010	1.82394	1.68326	1.00867	2.3302	81.77	-0.2479	-0.0313	0.2166	1215.409	0.155623	-385.852169	-385.842304	-385.841359	-385.887371	36.129	
C	-0.2795057164	 1.4425970604	 0.4777184827	-0.462913
C	-0.0031305152	 0.0165255698	 0.0362564975	 0.334934
C	 1.3683572441	-0.3166299716	-0.5071049834	-0.300117
C	 0.9595072333	-0.7988167189	 0.8632345909	-0.315061
C	-1.2380339242	-0.6766318754	-0.5820813412	-0.308998
C	-1.5855765674	 0.0310000395	-1.9014531274	 0.169469
O	-2.4969905373	 0.8019221992	-2.0321918927	-0.24508
C	-1.0622986248	-2.0971263712	-0.855470591	 0.285024
C	-0.9291119599	-3.2577047106	-1.1413098492	-0.427933
H	 0.6276688438	 1.8997555366	 0.8828245222	 0.1161
H	-0.6309081402	 2.0682919195	-0.3489182329	 0.134646
H	-1.0468315726	 1.4699954151	 1.26010222	 0.122465
H	 1.444623651	-1.0641878871	-1.2888576698	 0.123774
H	 2.0900593467	 0.4893930103	-0.5831427879	 0.1135
H	 1.3937946161	-0.3162521534	 1.7321016003	 0.112272
H	 0.7666587484	-1.858421768	 0.9821406645	 0.127744
H	-2.0935333552	-0.5289706252	 0.0886544425	 0.12188
H	-0.8940482092	-0.2131901415	-2.7363326552	 0.094432
H	-0.8202482409	-4.2886991773	-1.37287156	 0.203863
