12
gdb 17013	6.97227	1.3819	1.3365	2.3135	60.51	-0.2762	-0.0264	0.2498	868.9004	0.084748	-377.468395	-377.462061	-377.461116	-377.499	23.298	
N	-0.0361982516	-1.1816303061	-0.0556330729	-0.315613
C	-0.000131469	-0.0281180155	-0.0007958232	 0.287828
C	-0.0248870007	 1.426586164	 0.0015065082	-0.15234
C	 0.0473621072	 2.1252468647	 1.3963143609	-0.147129
N	 1.4931372176	 1.6447775855	 1.4508654307	-0.29653
C	 1.3591529389	 2.1497536127	 0.018684973	-0.14713
C	 0.6222131329	 3.360950006	 0.6520932445	 0.427857
O	 0.6644996289	 4.5463185816	 0.7134459482	-0.302164
H	-0.7677797151	 1.810985052	-0.6990448368	 0.141708
H	-0.6357659461	 2.0186107953	 2.2351243041	 0.128617
H	 2.0762645808	 2.2666913126	 2.0171879449	 0.246279
H	 2.1651803963	 2.0709385373	-0.7063980416	 0.128617
