15
gdb 7750	3.54239	1.92032	1.28332	4.6679	64.24	-0.2241	0.0042	0.2283	916.0417	0.119912	-399.858699	-399.851333	-399.850389	-399.890443	27.051	
C	 0.034431328	 1.5104080764	 0.0587594316	-0.493893
C	-0.0736215041	 0.0174828299	 0.0309103257	 0.382569
C	-1.200357071	-0.6951357433	 0.0651787498	-0.214247
C	-1.0889787421	-2.1881032441	 0.0719843614	-0.12306
O	 0.0852406096	-2.6540256948	-0.6294190101	-0.240295
C	 1.2483728003	-1.9795652689	-0.5207224487	 0.463891
O	 2.2964031506	-2.4704076611	-0.8496352788	-0.380795
N	 1.1416319793	-0.6801311148	-0.0455622972	-0.429784
H	 0.6394937086	 1.842081497	 0.9115177917	 0.138929
H	 0.516001832	 1.8907557437	-0.850130996	 0.139791
H	-0.9528432894	 1.9669556949	 0.1441867494	 0.141916
H	-2.1730328805	-0.2240825372	 0.1015352993	 0.101142
H	-1.0511026849	-2.5920433369	 1.0957237161	 0.121066
H	-1.928860546	-2.665919627	-0.4384893958	 0.131647
H	 2.0068529097	-0.1661726438	-0.1002792883	 0.261122
