25
gdb 99859	1.93456	1.34378	1.00685	0.5271	94.45	-0.2574	0.0603	0.3176	1374.3364	0.225304	-352.335413	-352.323785	-352.322841	-352.371403	43.815	
C	 0.0169409269	 1.5887689458	 0.1731881709	-0.40204
C	-0.0455401102	 0.0760584967	-0.0596040705	-0.196265
C	 0.682943483	-0.4479376894	-1.335414191	 0.064937
C	-0.006851299	 0.1020058532	-2.6071394087	-0.421622
C	 2.0731752226	 0.0268963393	-1.3072041876	 0.358421
C	 3.2106278517	 0.4181675395	-1.2732007575	-0.497339
C	 0.7119820245	-2.0235809791	-1.3160749727	 0.038496
C	-0.6775750647	-2.6718221696	-1.2146812487	-0.416676
C	 1.477933255	-2.6230263848	-2.5053593434	-0.410773
H	 1.0507759657	 1.9389025841	 0.233785099	 0.131892
H	-0.4824976848	 2.1473082781	-0.6243166367	 0.115315
H	-0.4838032723	 1.8448756259	 1.1121514832	 0.11011
H	 0.3828488002	-0.4374760557	 0.8096707819	 0.098824
H	-1.0953494984	-0.2291767814	-0.1189672721	 0.098484
H	 0.0330410697	 1.193200493	-2.6272094839	 0.125734
H	 0.4837710493	-0.2587328814	-3.513698512	 0.12449
H	-1.0582686206	-0.1991690468	-2.6382532648	 0.113097
H	 4.214475435	 0.763730005	-1.2485983148	 0.190745
H	 1.266484932	-2.2871876428	-0.4058238236	 0.080146
H	-1.3054079938	-2.4253982657	-2.0775181634	 0.115994
H	-0.5715121921	-3.7614305371	-1.1947662448	 0.112542
H	-1.2156988002	-2.381943595	-0.3093315768	 0.116225
H	 2.4565205757	-2.153753201	-2.6316930799	 0.128329
H	 1.6338789849	-3.6951628243	-2.3479561495	 0.108808
H	 0.9211246998	-2.5120853764	-3.442036893	 0.112128
