17
gdb 46849	2.59541	1.80986	1.16328	4.3077	74.28	-0.2427	-0.0646	0.1781	1030.8596	0.13801	-418.011064	-418.00363	-418.002686	-418.043079	28.935	
N	 0.0158924631	 0.9409004147	-0.9419853138	-0.476298
C	 0.056886689	-0.0933149128	-0.2033452332	 0.222101
N	-1.0962342779	-0.7613006529	 0.2136596583	-0.0851
C	-1.9398890499	-1.497094299	-0.7212075758	-0.250742
C	-1.0893871836	-2.2208461604	 0.2734279575	-0.00644
C	 0.2241846032	-2.886433962	-0.0865085198	-0.26118
C	 1.3414595475	-2.1608853697	 0.6897525849	-0.309164
C	 1.3797398313	-0.6911225821	 0.2934269607	 0.351564
O	 2.3904524714	-0.0309589751	 0.2756684931	-0.304293
H	 0.971318896	 1.2945913242	-1.0432797204	 0.240178
H	-3.0098258192	-1.4056204435	-0.560344277	 0.13141
H	-1.6281774231	-1.5027693517	-1.7625740451	 0.133857
H	-1.5773680741	-2.6151372834	 1.1638689794	 0.104532
H	 0.2040129266	-3.9514793985	 0.1598713886	 0.11909
H	 0.4143088193	-2.8102727522	-1.1635113457	 0.119527
H	 1.1413268495	-2.2199023545	 1.7684267988	 0.138301
H	 2.3333541608	-2.5877611912	 0.5214623994	 0.132659
