16
gdb 133642	4.38127	0.57685	0.57279	1.7957	59.2	-0.2592	-0.0302	0.2291	1827.4505	0.118565	-569.413103	-569.403637	-569.402693	-569.44953	32.145	
F	 0.072172179	 0.0576808088	-0.0388783091	-0.085401
C	-0.0237296822	 1.3983209809	-0.016285379	 0.287036
F	 1.2192817741	 1.8875921319	-0.1591981158	-0.083818
F	-0.7279913367	 1.7682840977	-1.0961503654	-0.077214
C	-0.6763487418	 1.8901479239	 1.2594277369	-0.332161
C	 0.1017531494	 1.4822821253	 2.5141566012	-0.205173
C	-0.570673776	 1.9801883189	 3.8030155442	-0.282461
C	 0.1478785635	 1.4845787036	 5.039461021	 0.160965
O	 0.5443647013	 2.1849038482	 5.9333965417	-0.231316
H	-0.7573938576	 2.9790561541	 1.1839409361	 0.135919
H	-1.693618149	 1.4859197853	 1.2799328769	 0.132089
H	 0.1919859411	 0.3902428955	 2.540024762	 0.12363
H	 1.1201094814	 1.8802478886	 2.4508012317	 0.132512
H	-0.6192047337	 3.0723900565	 3.8424039217	 0.12733
H	-1.5998489132	 1.5934395029	 3.8468061391	 0.123234
H	 0.2932095005	 0.3785347079	 5.0694379066	 0.074829
