18
gdb 129926	2.92019	1.34192	0.98886	2.5908	79.5	-0.1922	0.031	0.2232	1202.2713	0.150022	-398.131167	-398.12267	-398.121726	-398.165397	31.931	
N	 0.0486614421	 1.457718802	 0.1782416602	-0.613482
C	 0.0129415138	 0.0580018083	 0.0223302416	 0.097075
C	-1.0775945137	-0.7859095341	-0.0380793262	-0.107438
N	-0.5721043489	-2.0483946405	-0.120887098	-0.193409
N	 0.7688278326	-2.0805766842	-0.1152050065	-0.308678
C	 1.1434978025	-0.803275746	-0.0248680271	 0.337646
C	 2.5619972014	-0.3894704864	-0.002949646	-0.118965
C	 3.6605739049	-1.4167312319	 0.1090950824	-0.259386
C	 3.4728824115	-0.6808843313	-1.1873955172	-0.258418
H	 0.714493741	 1.8910966571	-0.450712561	 0.245436
H	-0.8564707054	 1.8846105916	 0.027127128	 0.238375
H	-2.1385849534	-0.5927338168	-0.0270772302	 0.118931
H	-1.0816583098	-2.9134129158	-0.1532742443	 0.269761
H	 2.7299639552	 0.5575244591	 0.5016111346	 0.08712
H	 4.5201168561	-1.1712286911	 0.7228259772	 0.105391
H	 3.3477174599	-2.4530604261	 0.1510969428	 0.136595
H	 3.0334569192	-1.2256249492	-2.0154943377	 0.118592
H	 4.2018539712	 0.0711165354	-1.4706702627	 0.104853
