16
gdb 30494	3.81757	1.22276	0.93177	5.2586	80.42	-0.208	-0.0346	0.1734	1219.7977	0.124616	-434.103187	-434.094636	-434.093692	-434.136588	31.418	
C	-0.059188385	 1.4295203824	 0.0143334802	-0.310156
N	 0.0192736547	-0.0177881036	-0.0097406167	-0.316914
C	-1.0432969369	-0.6980799331	-0.0028401338	 0.441553
O	-2.2985427503	 0.0128129724	 0.0311324965	-0.238944
C	-3.4408017931	-0.6734272438	 0.0278401742	 0.102203
C	-3.4946055654	-2.0141249863	-0.0019643359	-0.256148
C	-2.2154924928	-2.6940335262	-0.0255363672	 0.398509
N	-2.1980450351	-4.053553448	-0.0909692051	-0.557951
N	-1.0767446548	-2.0629976884	-0.0178892511	-0.375332
H	 0.9542158886	 1.8388113469	-0.0008620005	 0.11492
H	-0.6034975209	 1.8347053966	-0.8503218753	 0.110939
H	-0.5654454002	 1.8068813219	 0.914052274	 0.110638
H	-4.3113136133	-0.0252279125	 0.0509643444	 0.13822
H	-4.4386896968	-2.5406887462	-0.0137570847	 0.107328
H	-3.018276626	-4.5774120667	 0.1597677096	 0.261649
H	-1.3026264926	-4.4972521053	 0.0408209213	 0.269487
