21
gdb 59215	3.20871	1.16057	1.05557	2.0223	77.83	-0.2358	0.0726	0.3084	1233.4595	0.183123	-424.197978	-424.189488	-424.188544	-424.23113	33.343	
C	 0.5530944973	 0.1053203098	-1.4398991353	-0.400291
C	 0.056762342	 0.0853335183	 0.0077679117	 0.082296
O	 0.1077035808	 1.3895826734	 0.5882550273	-0.430517
C	-1.3515707168	-0.4922014732	 0.1175298965	 0.02771
C	-1.5410534838	-2.052543766	 0.0769795203	-0.091398
C	-1.1794642985	-2.0544072942	 1.5977329199	-0.249261
C	-1.9597985785	-0.7212760619	 1.5293397095	 0.094498
O	-3.3014713023	-1.1455997321	 1.2267283966	-0.285382
C	-3.0699822254	-2.1189977745	 0.1788886535	-0.084258
H	 1.5476820158	 0.5561692163	-1.4916931473	 0.124554
H	 0.6057283283	-0.9053191198	-1.857726972	 0.11762
H	-0.1235555954	 0.6928601363	-2.0729363131	 0.106726
H	 0.761172519	-0.497557239	 0.6092524608	 0.088374
H	-0.4922679901	 1.9550442234	 0.0886190481	 0.276228
H	-2.018333052	 0.0693402267	-0.5513481977	 0.058736
H	-1.0529750524	-2.6961995024	-0.654627157	 0.070757
H	-1.6065958154	-2.8412309959	 2.2239920775	 0.09992
H	-0.1148206806	-1.9439712114	 1.7975067967	 0.109294
H	-1.9736154764	 0.0319077536	 2.3138981146	 0.087317
H	-3.5853196301	-1.8136096284	-0.7394985068	 0.0979
H	-3.4445856255	-3.1021798688	 0.4879549263	 0.099177
