17
gdb 54483	3.33414	1.4144	1.13934	2.8383	73.42	-0.2351	-0.0017	0.2334	1069.1824	0.137982	-418.032604	-418.024875	-418.023931	-418.064781	30.382	
N	 0.5787442466	 0.1339368148	-0.9735210301	-0.539232
C	-0.074543238	 0.1949476307	 0.2158662127	 0.345521
O	 0.3461888096	 0.7729434516	 1.2028172467	-0.375884
C	-1.3829292905	-0.5548759918	 0.2403027539	 0.217399
C	-2.3912001215	-0.1955679133	 1.3281225033	-0.344876
C	-3.1006729857	-1.5001325867	 1.6081983896	-0.085257
C	-2.5674344514	-2.5186380663	 0.9258343199	-0.084405
C	-1.4788466729	-2.0459229437	 0.0220108542	-0.089043
N	-1.8661075593	-1.0944537756	-1.0395580789	-0.388145
H	 1.4238742175	 0.6681827845	-1.0835180193	 0.258318
H	 0.0870198632	-0.2242937897	-1.7771251407	 0.27185
H	-1.8470249748	 0.1817892227	 2.2012271962	 0.152552
H	-3.07730789	 0.6029223353	 1.0171822932	 0.113796
H	-3.9503294643	-1.5686223871	 2.2779093617	 0.105184
H	-2.8746070466	-3.5561237024	 0.9806524585	 0.104978
H	-0.6203605883	-2.6669591361	-0.2108499638	 0.105503
H	-2.8808253835	-1.0309511968	-1.0979303573	 0.231742
