16
gdb 14282	3.6706	1.79857	1.72975	4.1407	63.66	-0.2691	0.0108	0.2799	831.6387	0.13133	-383.774176	-383.76717	-383.766226	-383.805492	26.493	
C	-0.3341892167	 1.4608351478	 0.0988922128	-0.423563
C	-0.0226852898	-0.0136528261	-0.0282603548	-0.044791
C	 0.7206794403	-0.6346443112	-1.2056647783	-0.100818
C	 1.5908108266	 0.2547565825	-2.0654738472	-0.378536
C	 2.6407278291	 0.826051027	-1.1054866408	 0.422022
O	 3.5038679133	 1.6184175517	-1.3364244637	-0.328344
O	 2.445913063	 0.3043216715	 0.1461633673	-0.212404
C	 1.3520309804	-0.5918175327	 0.164892955	 0.072587
H	 0.4977951839	 2.0974054333	-0.2108026924	 0.140785
H	-1.2037771079	 1.7271154262	-0.5108655155	 0.124467
H	-0.563718165	 1.7137071665	 1.1388521371	 0.130384
H	-0.8066604808	-0.6624044763	 0.3559062819	 0.097249
H	 0.3505557356	-1.5632182266	-1.6219552289	 0.101013
H	 2.1040018896	-0.3073513144	-2.8516278647	 0.14369
H	 1.0719941498	 1.0860441587	-2.5516585865	 0.143968
H	 1.5436261087	-1.4552413878	 0.7894095387	 0.11229
