17
gdb 57235	2.97491	0.78665	0.7194	3.3555	86.66	-0.2668	-0.0621	0.2047	1607.6004	0.131119	-384.63468	-384.624102	-384.623158	-384.67167	36.661	
C	 0.1707322712	 1.4732509252	-0.0185862969	-0.395267
C	-0.0300955561	-0.0676342561	-0.000186402	-0.152277
C	 0.6632933608	-0.6749279934	 1.2509325779	-0.395259
C	-1.4674415018	-0.377568755	 0.0330260492	 0.360283
C	-2.643648207	-0.6137045637	 0.0899218129	-0.483148
C	 0.5756658653	-0.6427681637	-1.2085022871	 0.209818
C	 1.1181270702	-1.096261303	-2.1875090129	-0.056342
C	 1.7160196235	-1.6575058762	-3.371770806	 0.02434
O	 2.8870594917	-1.5630222542	-3.6601695204	-0.229806
H	 1.2376220733	 1.7092343342	-0.0425465097	 0.133813
H	-0.3086016741	 1.9148626443	-0.8943182727	 0.140264
H	-0.2737538533	 1.9073268094	 0.8806828144	 0.131905
H	 0.2202026256	-0.2474199928	 2.1540258407	 0.131876
H	 0.5337916771	-1.7585637139	 1.2765184233	 0.140264
H	 1.7319676006	-0.4467088011	 1.2316727435	 0.133807
H	-3.6829870334	-0.8292204197	 0.128613217	 0.204121
H	 1.0020307464	-2.2011873803	-4.0233119413	 0.101609
