18
gdb 72858	3.0887	1.2606	1.06121	1.3609	78.43	-0.2323	0.0335	0.2658	1175.03	0.146279	-401.865872	-401.857329	-401.856384	-401.899029	32.692	
C	-0.6854598821	 1.5454066755	-0.0813012166	-0.468014
C	-0.118634463	 0.1491738919	 0.0078867448	 0.292323
C	-1.085288805	-1.0307190103	 0.2862404213	-0.120956
O	-0.2405128927	-1.5312278503	 1.3516684341	-0.286773
C	 0.7038326414	-0.4705321163	 1.1722554206	 0.045437
C	 1.8011538609	-0.8390571239	 0.1245233604	-0.211847
N	 0.9949513168	-0.1384605358	-0.9242912155	-0.359203
C	 3.130543009	-0.2844155959	 0.3221059961	 0.349472
C	 4.2213080467	 0.1782067188	 0.5266581706	-0.432162
H	 0.1184652868	 2.2856827464	-0.0757980082	 0.13471
H	-1.2487985687	 1.6712473251	-1.0140313336	 0.120495
H	-1.3654688222	 1.7509568359	 0.7517150824	 0.11929
H	-2.0733179186	-0.7453165859	 0.6692849452	 0.103975
H	-1.2097715778	-1.7537627335	-0.5304188151	 0.095405
H	 1.0062724483	 0.0123281711	 2.1027512684	 0.094787
H	 1.8567981755	-1.9290635565	 0.0157915203	 0.108976
H	 0.7640701869	-0.6999651554	-1.7380136436	 0.217918
H	 5.1876410977	 0.585120439	 0.6949323283	 0.196168
