23
gdb 95073	2.14953	1.8619	1.31679	1.5396	84.05	-0.2541	0.0636	0.3177	1087.9935	0.207593	-388.296982	-388.288426	-388.287482	-388.329356	35.011	
C	-0.1085087919	 1.5109243804	 0.0986252866	-0.483377
C	 0.0025634044	-0.0018191268	 0.0165703676	 0.321769
C	 1.1045550172	-0.6414536069	-0.8867963152	-0.2739
C	 1.1683752597	-1.7959699127	 0.1556100428	-0.002142
C	 0.6716166998	-0.7666655625	 1.2009119518	-0.259716
C	 0.0614782238	-2.8308784795	-0.0981357847	-0.211568
C	-1.1884723508	-2.1502363477	-0.7082474173	-0.252808
C	-1.3587272392	-0.6636846502	-0.3021683736	 0.112534
O	-2.2946302035	-0.4748100641	 0.7570276018	-0.440894
H	 0.8425347256	 1.9633251148	 0.3990002255	 0.102323
H	-0.3910192797	 1.9374069709	-0.8714194162	 0.110184
H	-0.8751542753	 1.8004703973	 0.8239829845	 0.12736
H	 0.8588197055	-0.8778850699	-1.9263196381	 0.089098
H	 2.0170484447	-0.0382933037	-0.8690875114	 0.093051
H	 2.1354921006	-2.2723256434	 0.3332578546	 0.058673
H	 1.4895665568	-0.1805264009	 1.6300804466	 0.093924
H	 0.0482127734	-1.1350570342	 2.0252463178	 0.068581
H	 0.4141617018	-3.6155926494	-0.7767364113	 0.094471
H	-0.1799822243	-3.3309815359	 0.8484778885	 0.092117
H	-1.1068429432	-2.1917296612	-1.7991441159	 0.104324
H	-2.1075110505	-2.6859871598	-0.4539429504	 0.102204
H	-1.8145168146	-0.1272881315	-1.1430160579	 0.078288
H	-1.9434221401	-0.9020282431	 1.5452680641	 0.275502
