25
gdb 119080	2.57279	0.9948	0.82159	1.8603	88.71	-0.2412	0.0722	0.3134	1559.8732	0.227697	-389.477164	-389.466359	-389.465415	-389.514415	39.063	
C	 0.0697272761	 1.7055836489	-0.1612216681	-0.380559
C	-0.0142251093	 0.1825895392	-0.0141822558	-0.185259
C	 0.6829526181	-0.5443978061	-1.172603694	-0.225983
C	 0.6813108892	-2.0854650325	-1.1612697865	 0.267239
C	 1.4296207722	-2.5894922047	-2.4069822768	-0.236667
C	 1.5493851168	-4.1056939973	-2.5974391788	-0.407242
C	 1.0690487314	-2.70901472	 0.2063914958	-0.108445
O	-0.2988739162	-3.0716626669	 0.4796213584	-0.2785
C	-0.7045775875	-2.7148840751	-0.8566188905	-0.108453
H	 1.1110563471	 2.0463519871	-0.1810609231	 0.112555
H	-0.4038943891	 2.0420653083	-1.0903857288	 0.112554
H	-0.4304245155	 2.2126587242	 0.6696352552	 0.112402
H	 0.4328547139	-0.1103659629	 0.9422730933	 0.105225
H	-1.0673430133	-0.114568612	 0.0419952026	 0.10519
H	 0.2271335016	-0.2128370337	-2.1169321852	 0.092046
H	 1.7290375326	-0.2078366408	-1.2161863959	 0.092048
H	 0.9387883517	-2.1601568473	-3.2910500236	 0.097674
H	 2.4383380024	-2.1546255953	-2.3924876041	 0.097671
H	 2.0882978053	-4.5853090894	-1.7748890559	 0.122043
H	 0.5725231956	-4.5912603018	-2.6812020757	 0.122054
H	 2.1004655832	-4.3235857053	-3.517667529	 0.115479
H	 1.7181106737	-3.5920646057	 0.148040419	 0.091866
H	 1.4765511748	-2.0285125632	 0.9629853902	 0.096592
H	-1.5671670574	-2.0385095058	-0.8612522303	 0.096603
H	-0.9549105777	-3.6008881321	-1.4539399124	 0.091863
