18
gdb 73097	2.83173	1.48434	1.23107	3.1335	70.92	-0.238	0.0094	0.2474	1060.0647	0.148582	-439.114394	-439.106493	-439.105548	-439.147283	30.355	
C	-0.237516955	 1.5118581337	 0.1348462666	-0.445906
C	 0.0426582944	 0.0251097673	-0.0174871925	 0.316441
C	-1.2109817667	-0.8307619855	-0.2393657173	-0.436259
C	-1.1467657039	-1.9577010945	 0.7923186762	 0.426922
O	-1.9207371274	-2.8537288924	 0.95090979	-0.328337
O	-0.04194244	-1.8038093627	 1.5800703949	-0.219492
C	 0.772677955	-0.7216914683	 1.1447639654	 0.046939
C	 1.8633203364	-1.1162519834	 0.1257658774	-0.1917
N	 1.2107573153	-0.2610672357	-0.8991720063	-0.361026
H	 0.6822585717	 2.0521659717	 0.3739035963	 0.125491
H	-0.6341150646	 1.9251103367	-0.7989695212	 0.124365
H	-0.9722605435	 1.6960388031	 0.9265534951	 0.117441
H	-2.1422726294	-0.278786711	-0.0808410289	 0.143097
H	-1.2678197293	-1.2654164524	-1.2415807469	 0.137783
H	 1.0821765541	-0.1487851844	 2.0194322203	 0.098981
H	 2.8848876725	-0.8017817687	 0.3632392693	 0.113363
H	 1.8628719266	-2.1937655228	-0.0737935006	 0.114404
H	 0.9879016739	-0.7272372607	-1.7716343578	 0.217494
