23
gdb 82802	2.76208	1.52027	1.47832	0.0881	88.	-0.2469	0.0787	0.3256	1064.1948	0.209668	-351.136694	-351.129038	-351.128094	-351.168366	32.155	
C	-0.1495621912	 1.5503407032	-0.0385647307	-0.422074
C	 0.0103163061	 0.0413110993	 0.0213580328	-0.022623
C	 1.2421071642	-0.7343411532	-0.4164916481	-0.057179
C	 2.6223358148	-0.0963024111	-0.6206163322	-0.231672
C	 3.3738484108	 0.1271421374	 0.7081545492	 0.002604
C	 2.5279662108	 0.9756071966	 1.6935314192	-0.232754
C	 1.7961650498	-0.3473941266	 2.0547348934	-0.030926
C	 3.1381705066	-1.0629723566	 1.6873954448	-0.213965
C	 0.7709344745	-0.8041291035	 1.0241614096	-0.035022
H	 0.7825503696	 2.0759144161	-0.2555306116	 0.125085
H	-0.8483290387	 1.8082460516	-0.8414500335	 0.110949
H	-0.556362234	 1.9611737047	 0.8917825779	 0.118605
H	-0.9069251758	-0.4598861679	-0.2815732276	 0.080049
H	 1.0501584428	-1.5913579613	-1.0544926455	 0.076283
H	 3.2177852655	-0.7686339246	-1.2489207215	 0.095753
H	 2.5571568124	 0.8520470992	-1.1714983358	 0.094616
H	 4.4040756257	 0.4407451273	 0.5200499333	 0.053132
H	 3.1367854008	 1.3052785777	 2.5409901787	 0.091293
H	 1.9641478909	 1.828418463	 1.3213003068	 0.09129
H	 1.4133686055	-0.446771028	 3.0734287098	 0.055021
H	 3.0753821914	-2.0733523746	 1.2729137934	 0.086149
H	 3.8546165114	-1.0468239659	 2.5133721642	 0.089557
H	 0.260442996	-1.7157045427	 1.3273708836	 0.075829
