17
gdb 18563	3.68195	1.99491	1.62581	3.7309	67.56	-0.2425	0.0361	0.2785	830.6742	0.145115	-363.90712	-363.900417	-363.899473	-363.938002	26.219	
O	-0.0412729727	-0.0046451554	 0.0547181647	-0.368589
C	-0.021775412	 1.1969772796	 0.0218817913	 0.421047
N	-1.0144013716	 2.1481322362	-0.0015815083	-0.324312
C	-0.1193862814	 3.3139269462	 0.0432253118	 0.033193
C	-0.0398676442	 4.0434552174	 1.3903823686	-0.214029
C	 0.7580859597	 3.0914082777	 2.304915719	-0.215953
C	 1.8072096276	 2.4595577253	 1.3658472169	-0.214723
C	 1.0740787948	 2.2949705298	 0.0261482396	-0.176849
H	-2.0154911307	 2.0643236146	 0.1056684189	 0.244661
H	-0.2326846051	 3.9779047921	-0.8175740883	 0.080948
H	 0.5132754635	 4.9796057235	 1.2457962362	 0.103143
H	-1.0247197993	 4.3072583545	 1.7885397438	 0.098235
H	 1.2077544865	 3.6045503433	 3.1585778237	 0.100151
H	 0.0986507773	 2.314924958	 2.7068622365	 0.116458
H	 2.6567790884	 3.139842609	 1.2354024894	 0.101036
H	 2.2003852273	 1.509949751	 1.7388678908	 0.120805
H	 1.7200973218	 2.2856672873	-0.8521558648	 0.094776
