22
gdb 116166	3.29775	1.04155	0.83327	2.5772	79.67	-0.2196	0.0814	0.301	1417.8597	0.195338	-441.474981	-441.465867	-441.464922	-441.508605	34.887	
C	-0.0106971281	 1.4479392584	-0.0485808102	-0.314267
N	 0.0241225884	-0.0022278801	 0.0048344257	-0.072729
C	 0.607480697	-0.5847982804	-1.1981687585	-0.143798
C	 0.5593067369	-2.1068799083	-1.1106357148	-0.085008
O	 1.2282406404	-2.5665625182	 0.052050142	-0.277211
C	 0.6601441991	-2.0183650965	 1.2415830669	 0.088258
C	 1.4535934267	-2.6276339112	 2.3915076408	-0.066875
O	 1.4050823369	-4.0385685715	 2.3539005933	-0.426988
C	 0.7062883442	-0.4922749624	 1.198887296	-0.160345
H	 0.9952106983	 1.9068505541	-0.1080938306	 0.092791
H	-0.5812236014	 1.772583354	-0.9248445943	 0.117701
H	-0.5072505596	 1.8396207951	 0.8451447747	 0.117945
H	 0.0359296307	-0.2485575637	-2.0711210695	 0.100345
H	 1.6587667737	-0.2646216787	-1.3436354738	 0.080624
H	-0.4895851996	-2.4423906393	-1.1016358532	 0.097653
H	 1.067112866	-2.5609546087	-1.9662804522	 0.106892
H	-0.3908830586	-2.3418102066	 1.3147635366	 0.079328
H	 2.4912008491	-2.2581312223	 2.3458158835	 0.088658
H	 1.0250411251	-2.3120839202	 3.3487127534	 0.105764
H	 1.6004318166	-4.2781403925	 1.4396616925	 0.289625
H	 1.7635946501	-0.1601342471	 1.2338113621	 0.079273
H	 0.2029276181	-0.0856360342	 2.0838059196	 0.102363
