16
gdb 52921	6.00391	0.92045	0.90052	1.8348	84.21	-0.2105	0.0228	0.2333	1336.9888	0.123114	-363.462568	-363.454699	-363.453755	-363.496709	29.042	
C	-0.0445107676	 1.4493721015	 0.0011070601	-0.518512
C	 0.0086929634	-0.0034705835	-0.0084411076	 0.388037
C	 0.0425191957	-1.2092075095	-0.0161288571	-0.471608
C	 0.1182038105	-2.6201530139	-0.0249711527	 0.38904
C	 1.106086659	-3.6367731155	 0.62307573	-0.192202
C	 0.7059994607	-4.6768091475	-0.430645069	-0.113521
C	-0.0666352173	-4.5464775983	 0.856003259	-0.010203
N	-1.059501378	-3.55972878	 0.2401858489	-0.218116
C	-0.2791503371	-3.6514102605	-1.0379851441	-0.120667
H	 0.3521131737	 1.8554628509	 0.9383149313	 0.151555
H	 0.537538962	 1.8784991405	-0.8221435344	 0.149563
H	-1.0764842076	 1.8030395219	-0.101656974	 0.155449
H	 2.0379870232	-3.5166090482	 1.155603853	 0.102829
H	 1.2841394939	-5.491285415	-0.8415758213	 0.10079
H	-0.3059473352	-5.2431029083	 1.6487590251	 0.104307
H	-0.7424528294	-3.5348669544	-2.0105673772	 0.10326
