18
gdb 62058	4.26054	0.66915	0.6314	4.0393	73.3	-0.2765	0.0106	0.2871	1735.5833	0.146028	-439.067804	-439.058208	-439.057264	-439.103504	33.73	
O	-0.256210432	 1.3640517401	-0.0603479385	-0.405392
C	 0.0111332224	-0.0256134065	-0.0102103874	-0.025937
C	 0.6155193556	-0.5737277636	-1.314803581	-0.201379
C	-0.3010073937	-0.3315312107	-2.5207483012	-0.232472
C	 0.3502801689	-0.7601214098	-3.8128061513	 0.090357
C	 0.1898852504	-0.0036409556	-5.059862292	-0.179545
O	 1.396071568	 0.0876485629	-4.2986515079	-0.236041
C	 0.8770636944	-0.3572796326	 1.141535424	 0.257775
N	 1.5779750271	-0.5992911805	 2.0277794168	-0.31316
H	 0.5826781396	 1.8287132427	-0.1655503206	 0.297733
H	-0.9642540758	-0.4955524966	 0.1628348105	 0.139563
H	 1.5850175942	-0.0906603443	-1.4873281257	 0.129236
H	 0.8154730023	-1.644122763	-1.1871308914	 0.121784
H	-1.2428386891	-0.8814130117	-2.3912472529	 0.105621
H	-0.5519088926	 0.7318009531	-2.5756413433	 0.12234
H	 0.5787509947	-1.8250774568	-3.8936958722	 0.094344
H	 0.278963691	-0.5111878813	-6.019189482	 0.118746
H	-0.4281607055	 0.8934127842	-5.0649194842	 0.116426
