18
gdb 50324	3.04467	1.53874	1.52065	1.0493	73.85	-0.236	-0.026	0.21	955.3542	0.149697	-401.926181	-401.919054	-401.91811	-401.958012	27.899	
O	-0.6782273035	 0.8250310609	-0.5285462793	-0.243047
C	 0.2039212321	 0.9627727143	 0.280943957	 0.152404
C	 1.3539509136	 1.9448977336	 0.1732252735	-0.115922
C	 1.3771246963	 2.803330776	-1.1113589133	-0.236577
C	 0.9358736948	 4.1784245094	-0.6177760043	 0.007418
C	-0.4950635912	 4.1749836892	-0.017823991	-0.258004
C	 0.1858246748	 3.9924148753	 1.33168299	-0.035831
C	 1.2897835108	 2.9940586502	 1.2942250835	-0.05024
N	 1.5503707603	 4.3526484242	 0.778837625	-0.148543
H	 0.2173761466	 0.3521247468	 1.2128034814	 0.081834
H	 2.2757303473	 1.3619686162	 0.2963414531	 0.098966
H	 2.3909778954	 2.8489527832	-1.5191825952	 0.108194
H	 0.7086693457	 2.401607963	-1.8767699307	 0.129963
H	 1.183508148	 5.0037896484	-1.2842052311	 0.081938
H	-0.9627618255	 5.1594853588	-0.0864048222	 0.111949
H	-1.1992333794	 3.4137952339	-0.3622968742	 0.124574
H	-0.1638036934	 4.4017014424	 2.2752531608	 0.093375
H	 1.7817207673	 2.774464224	 2.236400827	 0.097549
