20
gdb 122470	3.54803	0.69314	0.6165	5.0812	81.51	-0.2599	0.0296	0.2895	1816.9441	0.169769	-403.14147	-403.131484	-403.13054	-403.17772	34.889	
C	-0.0105756192	 1.345087942	-0.1918313422	-0.229202
O	-0.0410909684	-0.0116639933	 0.1800822285	-0.228332
C	-1.2904134318	-0.6180337551	-0.0528573969	-0.04442
C	-1.2009806692	-2.0784254241	 0.380019378	-0.236882
C	-2.5167769619	-2.8019624136	 0.2001517293	-0.00365
C	-2.9015197847	-3.3960111624	-1.122774259	-0.282035
C	-2.5727954167	-4.317971481	 0.0433321928	-0.188123
C	-1.3635629679	-5.0917206171	 0.0176935604	 0.288726
N	-0.3905084225	-5.7179292696	 0.0006189407	-0.34149
H	 0.9910097605	 1.7221733736	 0.027907478	 0.130156
H	-0.213385096	 1.4797925835	-1.266343194	 0.103819
H	-0.7464717588	 1.9406469194	 0.371924514	 0.103047
H	-2.0842410471	-0.096945921	 0.5122243104	 0.081881
H	-1.5629802352	-0.5510556251	-1.1205842201	 0.087641
H	-0.4119862373	-2.5729914951	-0.1959969496	 0.129975
H	-0.890961126	-2.1152644014	 1.4304840852	 0.121058
H	-3.3372766888	-2.4054000281	 0.7930388413	 0.102775
H	-3.9358793817	-3.3630586887	-1.4444309926	 0.129675
H	-2.1738108466	-3.3514638515	-1.9254187264	 0.141394
H	-3.4051932406	-4.8265450014	 0.5175566621	 0.133988
