16
gdb 15645	3.3627	1.80373	1.23662	3.2852	67.11	-0.2397	-0.0252	0.2145	968.9915	0.129335	-383.749104	-383.741237	-383.740293	-383.782209	28.001	
C	-0.0219186543	 1.4607364002	 0.0277891663	-0.234337
O	 0.1052015028	 0.0603651675	-0.083333636	-0.233618
C	 0.6471413125	-0.558936684	 1.06207994	-0.017303
C	-0.3354513264	-0.8727426668	 2.1635959524	-0.090061
C	-0.3325260638	-2.1641979424	 2.4991973777	-0.073359
C	 0.6369401598	-2.9820366026	 1.6892861786	-0.371092
C	 1.1770383217	-1.9670259037	 0.6725290155	 0.376841
O	 1.8734342759	-2.2031469492	-0.2741715748	-0.287785
H	 0.9479167873	 1.9384758876	 0.2360767708	 0.10929
H	-0.3968007179	 1.8244591653	-0.9316937019	 0.134048
H	-0.7299958816	 1.7573090136	 0.8160932971	 0.105218
H	 1.5000618423	 0.0357747542	 1.4376555961	 0.090129
H	-0.9576689988	-0.1128547772	 2.621567952	 0.105183
H	-0.9528900104	-2.6025174273	 3.2730733303	 0.106566
H	 1.4692563775	-3.3836567408	 2.2829672478	 0.139175
H	 0.1837779732	-3.8402255444	 1.1787865181	 0.141105
