25
gdb 58469	2.34572	1.18343	1.09103	1.6823	88.86	-0.2509	0.0767	0.3276	1348.604	0.224769	-389.496548	-389.484998	-389.484054	-389.532586	42.922	
C	-0.8649699823	 0.9122479425	-0.1004510802	-0.397041
C	-1.0341729203	-0.2339028718	-1.1112359233	-0.029065
C	-2.0847761029	 0.099965864	-2.1817971434	-0.399308
C	 0.3091414171	-0.6304301925	-1.7324716831	 0.353265
C	 0.9061362758	 0.4030279738	-2.6785588278	-0.478434
O	 1.249808414	-1.2053972843	-0.8019431786	-0.341491
C	 0.7214987245	-2.057476639	-1.8353707868	 0.32825
C	-0.1553740053	-3.1990118446	-1.3480576157	-0.459766
C	 1.7222725621	-2.5197150517	-2.880425402	-0.453876
H	-0.0990006901	 0.6612061936	 0.6385180686	 0.132495
H	-0.5779749169	 1.8520912946	-0.5839680499	 0.112198
H	-1.8059865068	 1.0940734999	 0.4288443957	 0.108115
H	-1.4028054626	-1.0936866502	-0.5471343915	 0.072988
H	-1.8129839403	 0.9940853057	-2.7525428889	 0.117075
H	-2.2126346722	-0.7245785323	-2.8914478129	 0.111594
H	-3.0560733247	 0.2930192671	-1.7150944277	 0.113914
H	 0.729345748	 1.417955379	-2.3115061645	 0.122119
H	 1.9849688908	 0.2721524291	-2.7608814138	 0.132424
H	 0.4680485274	 0.3321239076	-3.6794065224	 0.121267
H	 0.4707195863	-4.065456006	-1.1077892556	 0.119868
H	-0.7128037104	-2.9393992329	-0.4486913774	 0.133138
H	-0.8626740665	-3.5095997335	-2.1250833123	 0.117966
H	 2.379800078	-3.2816465839	-2.4474157942	 0.123793
H	 1.2012643139	-2.9784539678	-3.7283769328	 0.116915
H	 2.3475475435	-1.7123858763	-3.2589360395	 0.121595
