18
gdb 36958	4.65055	0.79068	0.76197	2.0146	76.3	-0.247	0.0268	0.2739	1539.1358	0.147227	-439.049937	-439.041307	-439.040363	-439.085054	30.633	
C	-0.0650600702	 1.4629941181	 0.0470947072	-0.20557
N	 0.0577829048	 0.0093824512	 0.0391901497	-0.333988
C	-0.2850324891	-0.6353881938	 1.0534817881	 0.473637
C	-0.2816916973	-2.0972621556	 1.446520501	-0.374164
C	-0.8680190757	-1.5678729395	 2.7712569262	-0.075983
O	-0.8267523344	-0.2030402061	 2.2548943078	-0.259587
C	 1.262593445	 2.0881923988	-0.3107298441	 0.111141
C	 1.6320158304	 3.4296514607	 0.152557355	-0.182114
O	 2.1954139117	 2.2649501843	 0.7576981304	-0.230339
H	-0.7994273285	 1.7478406997	-0.7189076655	 0.108629
H	-0.4049419045	 1.865586763	 1.0093974341	 0.117306
H	-0.9402044927	-2.7325158729	 0.8519487121	 0.138786
H	 0.7083742825	-2.5518548709	 1.5052246036	 0.142319
H	-1.8932310605	-1.866084156	 3.0033296205	 0.122872
H	-0.2341858881	-1.6695854496	 3.655293292	 0.126257
H	 1.7086998513	 1.7130620172	-1.2322625289	 0.097608
H	 2.32028682	 4.0359101595	-0.4351025303	 0.111987
H	 0.9406699952	 3.9931319719	 0.7787867611	 0.111201
