17
gdb 30883	2.39577	1.40242	0.9245	1.5645	73.58	-0.1858	0.0298	0.2156	1260.1642	0.134129	-458.979969	-458.97065	-458.969706	-459.014321	33.297	
C	 0.0709521622	 1.2072523032	-0.2055347385	-0.252456
O	-0.1912096942	 0.0763023791	 0.6360235224	-0.278638
C	-1.2711670962	-0.6481985947	 0.29555405	 0.244015
C	-1.3826850705	-1.9520424534	-0.0702477722	 0.216494
O	-0.3928260995	-2.8663326722	-0.2619460117	-0.449684
C	-2.7849519554	-2.2101229045	-0.2157143137	-0.360845
C	-3.423784774	-1.0421537526	 0.0669630772	 0.374453
C	-4.8548722506	-0.6438889267	 0.0825274168	-0.487474
O	-2.5120288927	-0.0746182404	 0.3919528709	-0.217572
H	 0.9946456435	 1.6578267631	 0.1616288274	 0.133835
H	 0.196772711	 0.8939933463	-1.2488088618	 0.121757
H	-0.7434739312	 1.9356229075	-0.1411121117	 0.138036
H	 0.4422691714	-2.4461499143	-0.0261272639	 0.299014
H	-3.241363053	-3.145642505	-0.4976838657	 0.112887
H	-5.1670847615	-0.2935973611	 1.0732833392	 0.136897
H	-5.0582937837	 0.1654606038	-0.6286527867	 0.134067
H	-5.4775455955	-1.4994728082	-0.188532298	 0.135213
