23
gdb 62615	2.18387	1.80719	1.5508	0.2525	88.41	-0.2409	0.0832	0.3242	1051.9887	0.205047	-351.118897	-351.110054	-351.10911	-351.15127	36.164	
C	 0.0025304186	 1.5591341856	 0.0328587692	-0.465937
C	 0.0458914134	 0.0299594218	 0.0213101391	 0.295003
C	-1.3450779783	-0.529709373	-0.295107759	-0.442177
C	 1.1193896237	-0.6676214262	-0.8231050781	-0.080867
C	 2.4101553497	-0.7484076413	 0.005034455	-0.086625
C	 2.1316692926	-0.1186459177	 1.3655004998	-0.288618
C	 0.7030412095	-0.7277449031	 1.2447948429	 0.298181
C	-0.0847934027	-1.0531079921	 2.4881324738	-0.513396
C	 1.3071259322	-1.7614609799	 0.194723042	-0.139218
H	 0.9959275598	 2.0051598211	 0.1125670317	 0.116588
H	-0.4493501182	 1.9343834585	-0.8928114828	 0.108772
H	-0.6068236111	 1.9327835935	 0.864774796	 0.108588
H	-1.6751695884	-0.2054366001	-1.2886614328	 0.106488
H	-1.352025765	-1.6240059261	-0.2839685681	 0.112797
H	-2.089196487	-0.176355968	 0.4275634259	 0.108311
H	 1.1451337506	-0.7641858583	-1.9026176394	 0.073409
H	 3.3677131436	-0.9013301802	-0.4768728271	 0.080444
H	 2.698083524	-0.6283576576	 2.1516879314	 0.090957
H	 2.2290339432	 0.9639501492	 1.5010306537	 0.084593
H	-0.3547310865	-0.1381837299	 3.0300548739	 0.116839
H	-1.0115605901	-1.5891893926	 2.2604886393	 0.118044
H	 0.5017173097	-1.677177136	 3.171318856	 0.114854
H	 1.2927781368	-2.8389728776	 0.1160921377	 0.082971
