21
gdb 111767	2.4962	1.30168	1.0355	0.765	79.61	-0.2351	0.0868	0.3219	1263.6572	0.180742	-424.170633	-424.160981	-424.160037	-424.205358	35.063	
C	-0.4291755632	 1.0735711017	 0.1127266927	-0.234566
O	 0.4450229094	 0.0077541954	-0.2036269885	-0.241239
C	 0.9732875622	-0.6112969167	 0.9272447257	 0.056227
C	 0.2133092753	-1.6479666358	 1.7295814877	-0.205406
C	-0.6752219201	-2.4820292691	 0.7959608672	-0.219393
C	 0.5777443891	-2.8801870277	-0.0482197132	-0.295051
C	 1.4436303971	-2.024371548	 0.8864483016	 0.379365
O	 2.6921064306	-2.3915738665	 1.342709294	-0.278754
C	 3.724679628	-2.1441620785	 0.4011304805	-0.259097
H	 0.0942718954	 1.8796169418	 0.6492904158	 0.105561
H	-0.8125210609	 1.4687532006	-0.8310102762	 0.12576
H	-1.2716991989	 0.7370023626	 0.7334141501	 0.111935
H	 1.6016954478	 0.0346431903	 1.5447144472	 0.086665
H	 0.1100534246	-1.5696152781	 2.8054100327	 0.09111
H	-1.1305713314	-3.3373774554	 1.2982192301	 0.104559
H	-1.451508917	-1.9279873754	 0.2623687737	 0.103529
H	 0.8182793467	-3.9409475478	 0.0503678428	 0.106608
H	 0.5737592876	-2.5993070929	-1.1037732308	 0.106639
H	 3.5800133699	-2.7232528611	-0.5215973158	 0.114345
H	 3.7810021469	-1.0786286564	 0.1385044905	 0.11544
H	 4.6629583408	-2.4510356529	 0.8684844821	 0.125763
