13
gdb 10003	3.91586	1.20896	0.98811	3.4715	57.57	-0.2671	-0.0691	0.1981	1098.2549	0.092075	-435.770619	-435.762145	-435.7612	-435.805311	27.376	
O	 0.1015632352	-0.1365792125	 0.2407475809	-0.212415
C	 0.0845057907	 0.9580872342	-0.2493562648	 0.151239
C	 1.2390382531	 1.952474065	-0.112515478	-0.291822
N	 1.2775937281	 2.9427421736	-1.1814198787	-0.100871
C	 0.8851409649	 4.2655873382	-0.9051245646	 0.168495
O	 0.8408689805	 5.1700807546	-1.6864009742	-0.250089
C	 1.7286353958	 2.5160210193	-2.444934116	 0.167538
O	 1.8137878799	 3.1864236328	-3.432242854	-0.249144
H	-0.7835140624	 1.3402042935	-0.8329912952	 0.103654
H	 1.1072517827	 2.4759335294	 0.841432636	 0.160874
H	 2.1788132179	 1.3976801225	-0.040522753	 0.162125
H	 0.615250473	 4.3707967855	 0.165382515	 0.091279
H	 2.0102298707	 1.4440129438	-2.4099840133	 0.099135
