18
gdb 8942	2.92058	1.54171	1.16941	3.189	65.38	-0.2595	-0.0294	0.2302	1067.622	0.15009	-422.074045	-422.064487	-422.063543	-422.108573	33.239	
C	-0.040192608	 1.4362714742	-0.0754801347	-0.235914
O	-0.0371669389	 0.0493832943	 0.1760588825	-0.250953
C	-1.2873295351	-0.6018464124	-0.0026654161	 0.11787
C	-1.6979392578	-0.7234779024	-1.4691980729	-0.407467
C	-1.1333001186	-1.9846279264	 0.6594902774	 0.041773
O	-0.3260515118	-2.8535097593	-0.0815657692	-0.4334
C	-0.5699119921	-1.8065968127	 2.0590189453	 0.153579
O	 0.4175132051	-2.3935976708	 2.4248766673	-0.263649
H	 0.9369157709	 1.8174189871	 0.2309069308	 0.133771
H	-0.187846714	 1.6723293028	-1.1381798414	 0.114024
H	-0.8202945843	 1.9528919879	 0.5059990414	 0.102769
H	-2.0663583435	-0.0509608743	 0.5557602994	 0.060901
H	-2.6553619784	-1.2473808045	-1.5529830172	 0.117979
H	-1.8158807711	 0.2592831044	-1.9328744464	 0.115462
H	-0.9415897009	-1.2916824442	-2.0140596706	 0.1508
H	-2.1479898786	-2.4090659978	 0.7689097164	 0.091968
H	 0.432162571	-3.0527896859	 0.490082399	 0.297218
H	-1.1238865938	-1.1166026298	 2.7274753989	 0.093271
