20
gdb 119602	4.23896	0.91848	0.83924	0.559	80.33	-0.2285	0.017	0.2456	1412.8536	0.171651	-403.124002	-403.115323	-403.114379	-403.157626	33.095	
O	-0.1397027322	 1.4989161028	-0.1563376205	-0.419833
C	-0.038471904	 0.0855695882	-0.2365061945	-0.068682
C	-1.34319688	-0.4991691977	 0.301442907	-0.300722
C	-1.3771011594	-2.0067887287	 0.2649954571	 0.317322
N	-1.5613165437	-2.713903578	-1.0435905942	-0.373411
C	-2.5988900501	-2.8212528552	 0.0070032083	-0.107101
C	-2.5144090168	-4.1035075336	 0.827250652	-0.264238
C	-1.1612888802	-3.9833387995	 1.5001978004	-0.074335
C	-0.5520648314	-2.8332846339	 1.2076456001	-0.109357
H	 0.6783072551	 1.8788369944	-0.4895098057	 0.286479
H	 0.1181297873	-0.248945521	-1.2741275487	 0.092716
H	 0.8127301291	-0.2875601104	 0.3549112627	 0.090139
H	-1.4850385724	-0.1438817145	 1.329177292	 0.112718
H	-2.1722578515	-0.0920587575	-0.2901155136	 0.101112
H	-1.8860484601	-2.0318688223	-1.7296311076	 0.220131
H	-3.5623277854	-2.3540606737	-0.1702294322	 0.085409
H	-3.3296309997	-4.1698764188	 1.5598642466	 0.104704
H	-2.5795618748	-4.9955484713	 0.192662881	 0.119629
H	-0.7482705591	-4.772061902	 2.1190975385	 0.09454
H	 0.4219589091	-2.5251808074	 1.569414431	 0.09278
