17
gdb 39165	3.1636	1.8103	1.31648	2.6704	73.35	-0.2466	0.0148	0.2614	958.431	0.139853	-417.99981	-417.993106	-417.992162	-418.030832	26.783	
C	 0.0084074042	 1.4199518746	-0.2229494111	-0.161788
C	 1.439846526	 1.9687932723	 0.1355868291	-0.367205
C	 2.2477210097	 0.6912932661	 0.0975795105	 0.268376
N	 3.4242544949	 0.4267037158	-0.7438079652	-0.371217
C	 3.4641212398	 0.0589384867	 0.6732243247	-0.138357
C	 3.0567192416	-1.3761632659	 1.0031209754	-0.122436
O	 1.7471749159	-1.5882186651	 0.4116355062	-0.263513
C	 1.2173032117	-0.373204181	 0.1455872807	 0.404352
N	 0.0037894893	-0.0469034245	-0.0001341385	-0.32588
H	-0.7684155391	 1.8753376361	 0.3976782124	 0.114329
H	-0.2533110474	 1.6302194965	-1.2670115495	 0.114551
H	 1.808047238	 2.7135184073	-0.5718666376	 0.12454
H	 1.4369860628	 2.4164738146	 1.1338531556	 0.116904
H	 3.2872428213	-0.3918054576	-1.3369829002	 0.238259
H	 4.1996914936	 0.5599122504	 1.2932019588	 0.11318
H	 3.732226404	-2.1304748214	 0.5877466466	 0.12799
H	 2.9810010338	-1.5256378449	 2.0865693122	 0.127914
