21
gdb 96195	2.24857	1.54924	1.11249	2.0412	80.39	-0.2367	0.0096	0.2464	1178.2449	0.183168	-424.229941	-424.220986	-424.220042	-424.26362	34.484	
C	-0.2303413583	 1.5291478379	-0.0085364623	-0.479446
C	-0.0052765454	 0.0399808574	 0.0076029211	 0.333077
C	-0.0287900715	-0.6738678223	-1.122243078	-0.171504
C	 0.1945997462	-2.1629882611	-1.2469089435	-0.132124
O	 1.3873677031	-2.6526493073	-0.6419423008	-0.249062
C	 1.3149824432	-2.8203695172	 0.7626769551	-0.105657
C	 1.4558367403	-1.4890792968	 1.5083384677	 0.123
O	 2.6425015488	-0.8325945344	 1.0952911512	-0.43929
C	 0.2313679447	-0.5617305584	 1.3832108897	-0.324278
H	 0.6530397952	 2.0553750792	 0.3747524684	 0.135241
H	-0.4452734257	 1.9018883288	-1.0133089345	 0.118342
H	-1.0656117795	 1.8063760225	 0.6477111093	 0.123478
H	-0.2300560416	-0.1540249449	-2.0565636505	 0.081352
H	-0.6680741582	-2.7213690169	-0.8432953555	 0.097746
H	 0.2799536896	-2.4282448998	-2.3047735166	 0.11205
H	 0.3811008043	-3.3311270522	 1.0476390883	 0.085106
H	 2.1578691036	-3.4661566489	 1.027944175	 0.112788
H	 1.5860268965	-1.721609061	 2.5732573365	 0.081406
H	 2.6669083056	-0.9243715718	 0.13387875	 0.286461
H	 0.3655612246	 0.2520357779	 2.1027308878	 0.106898
H	-0.6667526254	-1.1091390906	 1.7066845919	 0.104414
