16
gdb 130953	6.43367	0.72385	0.68723	1.5013	71.55	-0.2634	-0.0397	0.2237	1558.6361	0.12539	-434.095188	-434.086918	-434.085974	-434.13009	28.231	
O	-0.2309954117	 0.0315229201	-0.0670383812	-0.226771
C	 0.0127363097	 1.2008347396	 0.0733416794	 0.155543
C	 1.3727548432	 1.8296414906	-0.1377424228	-0.274082
C	 1.313148105	 2.9762412508	-1.1601296218	-0.174066
N	 2.5548601143	 3.7246752032	-1.2085765571	 0.056713
C	 3.4610674257	 3.8325593545	-2.2026761469	 0.015422
N	 4.4664594696	 4.6036670942	-1.8320377621	-0.273619
C	 4.1162236423	 4.9496709796	-0.5639632448	 0.042663
N	 2.9690771814	 4.4448776103	-0.1373850532	-0.255948
H	-0.7816278513	 1.9196447759	 0.3840474975	 0.080857
H	 1.7030991642	 2.2567427512	 0.8179034152	 0.158244
H	 2.0840278914	 1.0586469616	-0.4437158526	 0.133285
H	 1.1240632843	 2.5929791255	-2.1664192062	 0.140402
H	 0.5052412111	 3.6705013762	-0.9062727382	 0.142244
H	 3.3429874553	 3.3435122827	-3.1582780536	 0.147118
H	 4.7185950056	 5.5918292241	 0.0610975285	 0.131995
