21
gdb 56816	2.26432	1.33944	0.9802	4.4885	83.48	-0.2366	0.0345	0.2711	1285.0109	0.180493	-383.259395	-383.249044	-383.2481	-383.294683	37.498	
C	-0.0505972227	 2.5396566004	 2.7768283846	-0.389782
C	 0.1529676487	 1.6685640733	 1.5264067518	-0.104695
C	 1.1248631733	 2.2993674732	 0.6156106336	 0.30703
N	 1.8723884595	 2.8032364185	-0.1070274216	-0.332452
N	 0.6693164124	 0.360795476	 1.9256110104	-0.109123
C	-0.2590937489	-0.7479545267	 2.2084877169	-0.008169
C	-1.7672560242	-0.6370771285	 2.1347121054	-0.421418
C	 0.6237248317	-0.7819398214	 1.0004014174	 0.002442
C	 0.1054355785	-0.6909147617	-0.4194667784	-0.426358
H	 0.884929886	 2.6145413063	 3.3347444823	 0.148022
H	-0.3875530638	 3.542050159	 2.5009224272	 0.13241
H	-0.8050064877	 2.08060239	 3.4206855199	 0.126753
H	-0.7987782961	 1.6273514824	 0.9752733415	 0.10528
H	 0.0699247264	-1.3296416035	 3.0692882351	 0.095498
H	-2.130012807	-0.116015148	 1.2470382627	 0.123837
H	-2.2027415256	-1.6418150718	 2.1214596725	 0.130368
H	-2.1664140286	-0.1218252342	 3.0152377808	 0.128359
H	 1.5260472181	-1.3882438829	 1.0738192647	 0.097133
H	-0.8366131621	-0.1465476052	-0.5094843407	 0.118278
H	 0.8391105851	-0.1969971147	-1.0640705675	 0.150429
H	-0.0588155728	-1.6990278705	-0.8142464287	 0.126156
