16
gdb 30879	2.47234	1.42941	0.9468	1.7485	69.9	-0.1722	0.043	0.2151	1211.3512	0.124711	-471.220473	-471.211404	-471.21046	-471.254285	32.896	
C	 0.1072812968	 1.2074755539	 0.3599789131	-0.250071
O	-0.2155851534	 0.182980463	-0.5898010414	-0.270033
C	-1.2541097999	-0.5933934756	-0.2520388591	 0.287952
C	-1.3982602248	-1.9100464109	 0.0219898801	 0.164001
N	-0.4468654878	-2.9275881715	 0.0659885411	-0.603186
N	-2.7518449964	-2.2070766338	 0.1811039742	-0.379227
C	-3.3456699644	-1.0674566091	-0.0002679407	 0.456346
N	-4.6862508436	-0.7937650656	 0.1431365175	-0.587678
O	-2.5426401299	-0.0282152245	-0.285357882	-0.224594
H	 1.0062856048	 1.7030370569	-0.0113186741	 0.131923
H	-0.7065624564	 1.9362279813	 0.4378788859	 0.132954
H	 0.2997811627	 0.7740656442	 1.3486157698	 0.117368
H	 0.4909166813	-2.5805252705	 0.21642885	 0.24479
H	-0.6855431041	-3.6287821263	 0.7558158631	 0.249781
H	-5.2523843328	-1.6287676529	 0.0971037173	 0.267832
H	-5.0248581523	-0.0547021086	-0.4565843648	 0.261841
