14
gdb 19836	3.46219	2.73896	1.8449	3.2018	61.32	-0.2598	-0.0206	0.2392	709.3054	0.108624	-382.501618	-382.49587	-382.494925	-382.531265	23.018	
O	-0.0355321915	 1.437717095	 0.0557398563	-0.229681
C	 1.2636737933	 0.8179428843	-0.0105694394	-0.008332
C	 2.1239689776	 0.8565216739	 1.1917578198	-0.073058
C	 1.8048739291	 0.2213501323	 2.3267233834	-0.073054
C	 0.5653857126	-0.5720132567	 2.4731131729	-0.008336
O	-0.6995903327	 0.1158998032	 2.4176941061	-0.22968
C	-0.3464981739	-0.6915698512	 1.3086537801	 0.015752
C	 0.0120594882	 0.0221282958	 0.03334509	 0.015748
H	 1.760295974	 0.9650844572	-0.9682804985	 0.096344
H	 3.0608226469	 1.4005058378	 1.1166453112	 0.104607
H	 2.4820570171	 0.2484446329	 3.1752191717	 0.104607
H	 0.5855471472	-1.3732554	 3.2100648064	 0.096345
H	-0.9313366314	-1.6035434869	 1.1914197658	 0.09437
H	-0.3475780464	-0.4416102776	-0.8848500957	 0.09437
