16
gdb 76130	3.15531	1.32095	1.12215	3.2843	68.9	-0.2752	0.0231	0.2983	1079.0235	0.123321	-437.860555	-437.852062	-437.851118	-437.893534	31.872	
O	-0.0922770781	 1.4465065518	-0.1365952971	-0.418679
C	-0.0130490429	 0.0567670749	-0.005887319	 0.029729
C	 0.241536679	-0.5747309507	 1.4384610693	-0.230645
C	 0.4500417488	 0.3708392097	 2.5236009873	 0.294267
N	 0.6281933907	 1.1461330329	 3.362946488	-0.336316
C	-1.1240510538	-1.2693911002	 1.3307352882	-0.118278
C	-2.2116816384	-0.2406727874	 1.131250586	-0.350449
C	-1.3641194965	-0.6457560338	-0.0403553518	 0.40497
O	-1.86689628	-1.2651240739	-1.1653110814	-0.466176
H	 0.785122467	 1.8283497344	-0.0246246602	 0.29692
H	 0.6815693503	-0.3934928474	-0.7258898499	 0.092572
H	 1.0749111998	-1.2809815445	 1.4128044872	 0.124503
H	-1.3262673532	-2.2756002587	 1.6720433954	 0.112947
H	-3.2117462472	-0.6609035548	 1.1064735946	 0.123943
H	-2.1355523337	 0.7475143961	 1.5742583424	 0.145094
H	-2.4564837218	-0.6491243882	-1.6142275992	 0.295597
