17
gdb 75231	3.70294	1.15181	1.02983	2.7632	75.85	-0.2488	-0.0367	0.2122	1191.8739	0.134451	-421.833435	-421.825218	-421.824274	-421.866216	30.773	
C	 0.0210482233	 1.5038037034	 0.1043860192	-0.501561
C	 0.0033035139	 0.0128463175	-0.0134658299	 0.33845
C	 0.0394533568	-0.7364053758	-1.1220117767	-0.180165
C	-0.0257472155	-2.2203789216	-0.84162962	-0.344775
C	-0.0443508971	-2.2832727362	 0.6773362966	 0.308048
O	 1.1089639536	-1.7346857344	 1.331612967	-0.284699
C	-0.0335361339	-0.8821467112	 1.1898260974	-0.131673
C	-0.733919749	-3.3690615455	 1.4199719292	 0.091248
O	-1.4760999517	-4.1703739091	 0.9083654862	-0.260716
H	 0.9057071093	 1.849644534	 0.6529212486	 0.137915
H	 0.022025187	 1.9796195418	-0.879573301	 0.13108
H	-0.8542915529	 1.8696792621	 0.6555899185	 0.130552
H	 0.1364068093	-0.3427250315	-2.1281836586	 0.102034
H	-0.9303248965	-2.6925923972	-1.2419940156	 0.140863
H	 0.8302508419	-2.7657180776	-1.2560369376	 0.13103
H	-0.4971579916	-0.5779241402	 2.125525705	 0.104216
H	-0.503038867	-3.3754212484	 2.5075296917	 0.088153
