17
gdb 124179	4.68038	0.82966	0.71093	3.0314	82.4	-0.2297	0.031	0.2607	1560.4218	0.136827	-380.872403	-380.863346	-380.862402	-380.909683	31.303	
C	 0.1530267194	 1.3544164215	-0.780635224	-0.499392
C	 0.0525517637	-0.0058551025	-0.2691850206	 0.101156
C	-0.0050177265	-1.128552768	 0.1628895334	 0.029085
C	-0.0992865269	-2.4926824093	 0.6786089829	-0.483419
C	-1.4204637923	-3.1570020925	 0.3851482953	 0.397261
C	-1.9016262206	-4.4201659151	 0.6768340106	-0.309939
C	-3.2060787595	-4.436999426	 0.1407960428	-0.004471
N	-3.5219938502	-3.282117698	-0.4405017026	-0.238027
N	-2.4196357244	-2.5267355534	-0.2757323961	-0.233822
H	 1.1345246667	 1.785831055	-0.5562119283	 0.154755
H	 0.0193775788	 1.3834598298	-1.8674023589	 0.152224
H	-0.6051544084	 2.0064140847	-0.3336126689	 0.152117
H	 0.7125738163	-3.1007402495	 0.2578842111	 0.152353
H	 0.0699521774	-2.4862869509	 1.7637273741	 0.152425
H	-1.3834709474	-5.2083506239	 1.199260319	 0.097825
H	-3.9259397748	-5.2424952806	 0.1548639688	 0.108464
H	-2.3891538112	-1.5850052212	-0.6319505187	 0.271404
