16
gdb 123563	3.97448	1.57614	1.23827	4.738	73.95	-0.2293	0.0035	0.2328	972.9933	0.12867	-396.917488	-396.911203	-396.910259	-396.948012	25.682	
C	-0.0218712014	 1.4762983465	 0.0754045818	-0.278645
C	 1.2982567895	 0.755657729	 0.0329683883	-0.022188
C	 2.0266372026	 0.4302880162	 1.3567329163	-0.35968
C	 1.0339532644	-0.4761553503	 2.033133766	 0.279361
C	-0.0455968971	-0.7492182424	 1.2327220587	 0.37046
N	-0.8164886523	-1.5556908764	 1.9858633589	-0.34002
N	-0.229619309	-1.7786704812	 3.1993337217	-0.131972
N	 0.8912915941	-1.1060470227	 3.2236831014	-0.287095
C	-0.0205916531	-0.0371300883	-0.0575891106	-0.196455
H	-0.3643843141	 1.8996890241	 1.0140928745	 0.125567
H	-0.2992042979	 2.0471910377	-0.8048166435	 0.11843
H	 1.9007822	 0.8801679597	-0.8588297903	 0.096086
H	 2.9831345885	-0.0698430308	 1.1657256507	 0.122102
H	 2.2481904773	 1.3352529309	 1.9326758818	 0.126489
H	-1.6991712071	-1.9978601875	 1.7881728824	 0.27674
H	-0.3552119545	-0.5007017644	-0.9777332881	 0.10082
