22
gdb 99865	2.01975	1.38311	1.02786	4.0022	82.2	-0.2399	0.0255	0.2653	1288.8873	0.193317	-400.537263	-400.526232	-400.525288	-400.572674	40.794	
C	 0.0740587758	 1.5976234837	 0.1308467565	-0.407026
C	-0.0562849382	 0.0819236924	-0.0421615331	-0.207319
C	 0.6505241098	-0.4924459849	-1.3017445706	 0.072842
N	 0.1214204745	 0.0179272482	-2.5811456586	-0.536228
C	 2.0781705432	-0.1231595451	-1.2382453985	 0.298684
N	 3.1975157768	 0.1541954722	-1.1576056728	-0.355734
C	 0.5980258344	-2.0719573406	-1.3413206641	 0.041897
C	-0.8355172471	-2.5985118215	-1.4651292873	-0.408344
N	 1.3992641975	-2.6489362976	-2.4142097587	-0.518479
H	 1.1198875613	 1.8983552663	 0.2429986504	 0.146694
H	-0.3433212516	 2.1361111194	-0.7263440277	 0.108997
H	-0.4684318678	 1.9281842283	 1.0210275145	 0.123152
H	 0.3396853768	-0.4272887761	 0.8446347185	 0.114342
H	-1.1157269932	-0.1878073716	-0.1110345807	 0.104524
H	-0.8937967387	 0.0112018651	-2.5471964415	 0.237095
H	 0.4028851301	 0.9816804432	-2.7271274236	 0.24649
H	 1.0174664263	-2.420464773	-0.3901467026	 0.091074
H	-1.2920906547	-2.2770287107	-2.4074081562	 0.119242
H	-0.8043569795	-3.6899134511	-1.4756897641	 0.137962
H	-1.476781821	-2.2800646314	-0.6394870809	 0.114389
H	 1.1448545033	-2.1882659959	-3.2855888184	 0.235723
H	 2.3839224521	-2.4479919092	-2.2638804207	 0.240022
