12
gdb 130724	3.21678	1.54606	1.0442	0.9141	75.37	-0.2525	-0.1006	0.1519	1031.6664	0.078533	-431.657842	-431.650679	-431.649734	-431.689704	26.522	
O	-0.03421941	-0.035084626	 0.0038878283	-0.36
C	 0.0157948558	 1.1760649675	 0.0090861884	 0.389232
N	-1.1271499875	 1.9685928931	 0.028242955	-0.261001
N	-1.1938649073	 3.3069545322	 0.0359316497	-0.165719
C	-0.0415965962	 3.914713979	 0.0238561894	 0.064158
N	 1.1890080484	 3.3256367897	 0.0047564814	-0.29656
C	 1.238941131	 2.0198003901	-0.002496477	 0.029301
C	 2.4916318453	 1.3504185081	-0.0222920113	 0.283454
C	 3.5433746369	 0.7658813199	-0.0390255859	-0.32475
H	-2.0175715865	 1.4859737199	 0.0375644374	 0.284423
H	-0.0689576491	 4.9972764899	 0.0297097424	 0.143665
H	 4.4728358793	 0.2509457666	-0.0538163579	 0.213798
