19
gdb 84106	2.48982	1.47796	1.11973	1.8052	77.18	-0.2268	0.0098	0.2366	1145.8561	0.158165	-423.019924	-423.011064	-423.01012	-423.052831	34.521	
C	-0.0260136284	 1.5002246974	 0.0888744216	-0.49485
C	-0.024129041	 0.0079807207	-0.0080113231	 0.337472
C	 0.0084919296	-0.7418698322	-1.1165200515	-0.251687
C	-0.0315624329	-2.2268451899	-0.8165501208	 0.013876
O	 0.9572424222	-3.0110406371	-1.4765365374	-0.437671
C	 0.0343475499	-2.2747038938	 0.7142079561	 0.397404
O	-0.6813522851	-3.2724221729	 1.3716989776	-0.47689
C	 1.2584788162	-1.6921359575	 1.3827973343	-0.352122
C	-0.0151230014	-0.8635370422	 1.2156170353	-0.19015
H	 0.8312243324	 1.8576807291	 0.6731373318	 0.130142
H	 0.0079844755	 1.9690125727	-0.8979930331	 0.12614
H	-0.9250957209	 1.8590402453	 0.6054727728	 0.131044
H	 0.056895289	-0.3656748841	-2.1324894285	 0.094132
H	-0.9826360319	-2.6733955322	-1.1347960599	 0.099485
H	 1.815909451	-2.6369761306	-1.2483875615	 0.274621
H	-0.2514958938	-4.1126656396	 1.1736023132	 0.286692
H	 1.4602280759	-2.076954555	 2.376861398	 0.116557
H	 2.1334095643	-1.4084487177	 0.8047182094	 0.097844
H	-0.5771480106	-0.5911887104	 2.1017902856	 0.097961
