19
gdb 2481	4.65879	2.48404	2.30475	0.0627	70.35	-0.2924	0.0916	0.384	698.5492	0.174636	-273.780933	-273.774787	-273.773843	-273.81042	25.334	
C	-0.1287490461	 1.5236567522	 0.0048355447	-0.415694
C	 0.0631540949	 0.0085495863	 0.041682582	 0.062539
C	 0.9913316531	-0.5739273805	-1.0831258932	-0.225026
C	 2.0107071998	-1.3300728549	-0.2076821327	-0.003763
C	 1.0900138103	-2.0112075821	 0.8474156164	-0.22397
C	 0.8288316158	-0.5370385035	 1.2714223863	-0.009982
C	 2.3198626085	-0.2830897832	 0.8999813741	-0.220499
H	 0.8259683498	 2.0572845999	 0.0628541173	 0.113715
H	-0.620644502	 1.8338619014	-0.9236710528	 0.111347
H	-0.7515042687	 1.864851062	 0.8395146725	 0.108972
H	-0.9255646872	-0.463294435	-0.00508085	 0.06394
H	 0.4568412676	-1.2347320358	-1.7721829444	 0.090476
H	 1.4633690429	 0.2167038971	-1.6759620065	 0.090647
H	 2.8033299673	-1.8767608241	-0.7202140044	 0.053732
H	 0.240343347	-2.6015133604	 0.4889292318	 0.082637
H	 1.6515513381	-2.5753622375	 1.5960134427	 0.091198
H	 0.4282582948	-0.2824071989	 2.2541621023	 0.051447
H	 3.0070453655	-0.6645385127	 1.6590130937	 0.092456
H	 2.6255737486	 0.7215173198	 0.5938097301	 0.085827
