13
gdb 971	3.69328	3.43506	1.79975	2.7987	56.22	-0.1912	0.0328	0.224	667.3045	0.103236	-340.681309	-340.674722	-340.673778	-340.711601	24.024	
C	-0.0376894202	 1.5504479388	 0.1215066947	-0.513502
C	 0.0144567297	 0.0684171904	-0.0068183283	 0.213481
C	 0.0556984307	-0.765892878	-1.0963422021	 0.278061
O	 0.0576996243	-0.3845174876	-2.3966707693	-0.441953
N	 0.0966567474	-2.0832261753	-0.7384197474	-0.339417
C	 0.0812267025	-2.0773240206	 0.5797711045	 0.005644
N	 0.0322344025	-0.8134306025	 1.0696858126	-0.294972
H	 0.8286776364	 1.9572316069	 0.6589279721	 0.124321
H	-0.0436575898	 1.9934323255	-0.8769502356	 0.154321
H	-0.9398158668	 1.8962959372	 0.642484611	 0.124253
H	 0.0913768694	-1.1983794221	-2.9130479238	 0.298605
H	 0.1036944792	-2.9489181024	 1.2157076693	 0.129003
H	 0.0120271946	-0.5517339703	 2.0408173925	 0.262155
