25
gdb 94193	2.47885	1.17726	1.15133	0.1357	92.09	-0.2587	0.0872	0.3458	1303.4823	0.228673	-352.34073	-352.330976	-352.330032	-352.374782	38.406	
C	-0.26136894	 1.3990174094	-0.1568682183	-0.419103
C	 0.0869563427	-0.07045909	 0.0294274258	 0.028565
C	 1.1888332436	-0.7132345409	-0.8528656974	-0.243633
C	 1.6337697762	-1.557136351	 0.3703850578	-0.26987
C	 0.8652296541	-0.5682196051	 1.3056203863	 0.321725
C	 1.8207257601	 0.4819770831	 1.8849507797	-0.443794
C	 0.0105699288	-1.1334864016	 2.4242036282	-0.035451
C	-0.7436739035	-2.4334325419	 2.3187188499	-0.288912
C	 0.4494316374	-2.3261444335	 3.2379294371	-0.27354
H	 0.6254367255	 2.0385579397	-0.1000410757	 0.111874
H	-0.7235305346	 1.5650503378	-1.1367447564	 0.111602
H	-0.9719280115	 1.7447411169	 0.6028464325	 0.111445
H	-0.8272952834	-0.6698672551	-0.0523313179	 0.069385
H	 0.8659983279	-1.2535851155	-1.7462860135	 0.091256
H	 1.9502092489	 0.014434902	-1.1512982725	 0.096746
H	 1.1938039041	-2.5576695152	 0.3522166441	 0.097971
H	 2.7076839167	-1.6583169208	 0.5497415931	 0.090574
H	 2.4737028593	 0.9124857534	 1.1189770174	 0.10866
H	 1.2736247972	 1.3055593757	 2.3570572528	 0.109545
H	 2.4597546734	 0.0261636299	 2.6490041758	 0.113899
H	-0.5032713315	-0.3580116841	 2.9901893003	 0.075347
H	-1.732401251	-2.4856103345	 2.7616601279	 0.106886
H	-0.6367058373	-3.0297744549	 1.4188276204	 0.109938
H	 1.3581395025	-2.8350404545	 2.9326074084	 0.111466
H	 0.2838457545	-2.3207164393	 4.3096891242	 0.107421
