19
gdb 98069	3.25871	0.93058	0.80206	2.2784	73.15	-0.2532	-0.0952	0.1579	1473.1191	0.155136	-460.194446	-460.183803	-460.182859	-460.231035	36.982	
C	 0.2803850686	 1.5752985782	-0.0232665241	-0.402603
C	 0.0270497814	 0.0500934891	-0.073856028	-0.065446
C	-1.4645448378	-0.2859860164	-0.0251119933	-0.392798
C	 0.6761621615	-0.5103786486	-1.3245265351	 0.29563
O	 0.078797446	-0.8357119813	-2.3252041662	-0.291461
C	 2.2128306025	-0.6654158192	-1.3117287261	 0.262419
O	 2.8682302228	-0.45705777	-0.3130851945	-0.308714
C	 2.8781426835	-1.1090537374	-2.5974031705	-0.122021
O	 4.262257166	-1.2176612125	-2.4444361954	-0.421671
H	 1.348307716	 1.8058832799	-0.0263558097	 0.138341
H	-0.1905023444	 2.0763181025	-0.8754147175	 0.129259
H	-0.1520741473	 1.9874093454	 0.8927673574	 0.129706
H	 0.5512620744	-0.3924832388	 0.7812170775	 0.111345
H	-1.984709019	 0.1291205519	-0.892554067	 0.134335
H	-1.6304587704	-1.3669573418	-0.0276083807	 0.123201
H	-1.9155220552	 0.1283967955	 0.8811082199	 0.115201
H	 2.4244577397	-2.0638494249	-2.9054215331	 0.137599
H	 2.6104766439	-0.388423233	-3.3866971347	 0.133305
H	 4.4489221678	-0.9763382588	-1.5245581588	 0.294375
