24
gdb 122353	3.34055	0.77004	0.71622	2.151	87.74	-0.2135	0.0775	0.291	1741.6163	0.214672	-405.509491	-405.498223	-405.497279	-405.546822	39.657	
C	 0.9454014941	-0.8992203984	-1.5531323644	-0.384257
C	 0.5848369779	-2.315401261	-1.1374700805	-0.024157
O	-0.8014668226	-2.3683333891	-0.872077252	-0.244985
C	-1.2449147211	-3.6524465295	-0.4776391417	-0.083527
C	-2.7413213788	-3.5939603115	-0.3034984139	-0.023712
C	-3.4815812306	-4.4557106939	 0.6740273096	-0.007898
C	-2.8208446803	-5.4805301196	 1.5742740209	-0.417097
N	-3.3876060316	-3.0086828328	 0.8719153348	-0.096505
C	-2.5860542849	-2.4439356122	 1.9472050564	-0.311019
H	 2.0156300205	-0.8247423208	-1.7680487324	 0.113417
H	 0.3892810712	-0.6098725722	-2.4492642023	 0.127677
H	 0.7005491673	-0.1916253431	-0.7559277785	 0.12654
H	 0.8467878247	-3.0319494172	-1.9351500691	 0.083657
H	 1.1570009835	-2.6132551683	-0.2415852597	 0.082523
H	-0.9998266665	-4.3973051407	-1.2552352418	 0.087534
H	-0.7241498983	-3.9674125746	 0.4380827248	 0.082511
H	-3.2437617551	-3.3353216553	-1.2357484631	 0.089477
H	-4.4838850891	-4.762856298	 0.3725937232	 0.086647
H	-1.801767151	-5.2209371143	 1.8647852965	 0.121015
H	-3.4049328867	-5.6120311351	 2.4919021933	 0.124075
H	-2.783943046	-6.4512343856	 1.0680823705	 0.12281
H	-1.701685168	-3.024164003	 2.2464683847	 0.094393
H	-2.243169781	-1.4531306135	 1.6363478093	 0.133794
H	-3.2207704378	-2.3269504903	 2.8317807154	 0.117086
