15
gdb 127662	2.57126	1.89681	1.09905	0.99	72.5	-0.2213	-0.0421	0.1792	1032.6461	0.114436	-450.178422	-450.170203	-450.169259	-450.211701	29.75	
C	-0.0082004355	 1.3963381941	-0.0019175085	-0.319829
N	-0.0079387282	-0.0614422812	-0.0063470658	-0.062784
N	-0.0801252048	-0.6646040057	-1.2292291515	-0.243412
C	-0.0785237245	-1.9654277589	-1.2100022777	 0.072808
N	-0.014265089	-2.7911649901	-0.1297587189	-0.350133
C	 0.054348224	-2.1933790511	 1.0326015717	 0.322367
N	 0.1231435926	-2.8664099225	 2.1900198866	-0.539254
C	 0.0630691313	-0.7196751371	 1.1890232571	 0.401677
O	 0.1273794928	-0.1583573653	 2.2788718199	-0.424594
H	 0.905566729	 1.7707494756	 0.4668849476	 0.151616
H	-0.0696532979	 1.7226083793	-1.038009946	 0.152804
H	-0.8605440556	 1.7701094427	 0.5714357999	 0.151616
H	-0.1359197748	-2.4429386819	-2.1822355142	 0.128447
H	 0.1239075368	-3.8711562737	 2.1977865578	 0.27315
H	 0.1731808836	-2.3266439844	 3.0391714422	 0.285521
