16
gdb 43353	3.17291	1.6114	1.11448	4.9268	80.43	-0.2062	-0.0473	0.1589	1036.6354	0.127549	-400.777059	-400.770193	-400.769248	-400.8083	27.142	
O	 0.0626948327	 0.0146333664	 0.4082573199	-0.35905
C	 0.0075168606	 1.1821009062	 0.0725004651	 0.278471
C	-1.2344560183	 2.0337516017	-0.001011774	-0.163116
C	-0.9585845625	 3.2884371558	-0.3883461833	-0.119621
C	 0.503402729	 3.4394484564	-0.7372090778	-0.088503
C	 1.4706796552	 4.4633632973	-0.0963838439	-0.200812
N	 2.7179637518	 3.6601875871	-0.0085973522	-0.286126
C	 2.3481764892	 2.332530159	 0.1405213566	-0.111701
C	 1.0816134508	 2.1213184617	-0.2653244094	 0.111108
H	-2.2103174679	 1.6327611462	 0.2452833573	 0.112765
H	-1.6898034868	 4.0772692026	-0.5313196258	 0.108977
H	 0.5899978389	 3.536581798	-1.831991501	 0.104704
H	 1.6258150278	 5.3589390725	-0.7017854146	 0.115628
H	 1.1360926276	 4.7631106226	 0.9070989366	 0.110075
H	 3.4601774732	 4.0100599843	 0.5788715776	 0.24661
H	 3.0466312287	 1.6219492021	 0.5645969589	 0.140591
