18
gdb 99346	6.13525	0.63165	0.59664	6.8666	75.16	-0.2556	0.0377	0.2933	1817.9805	0.147148	-435.320994	-435.310499	-435.309554	-435.357859	35.396	
C	 0.5067036033	 1.267709226	 0.1946839008	-0.327268
N	-0.1286039221	 0.034403651	-0.2328676853	-0.360733
C	 0.5238191873	-0.8315060318	-1.0779255831	 0.495537
O	 1.5764451047	-0.5682364682	-1.6380652241	-0.404733
N	-0.1125008727	-2.0508884407	-1.2523220161	-0.371345
C	 0.3530631346	-2.935500507	-2.308510327	-0.154456
C	 1.6461239488	-3.6704426139	-1.8907366416	-0.319852
C	 2.0818779757	-4.6235311969	-2.9062937147	 0.253555
N	 2.4018819881	-5.3781926861	-3.7209825013	-0.307224
H	 1.0107709444	 1.1663664251	 1.1645416917	 0.123141
H	 1.2530603053	 1.5308947882	-0.5548772375	 0.172456
H	-0.2334885475	 2.0700876352	 0.2649352708	 0.124763
H	-0.8504819874	-0.3416119208	 0.3605028172	 0.238134
H	-1.0940661007	-2.1009637954	-1.0313855783	 0.241317
H	-0.4357251986	-3.663606495	-2.5112540617	 0.120582
H	 0.5492929817	-2.3758836218	-3.2290463586	 0.144657
H	 2.4283989806	-2.9244913917	-1.7259808789	 0.185226
H	 1.4834702344	-4.201067796	-0.9466419923	 0.146242
