21
gdb 102514	2.13954	1.23862	0.83721	4.4981	79.38	-0.2471	0.0247	0.2717	1408.959	0.180547	-420.403389	-420.392301	-420.391357	-420.439995	38.854	
C	 0.1545986896	 1.064534981	 0.8186550611	-0.394289
C	 0.0172840623	-0.3360003704	 0.2172983309	-0.184374
C	 0.5526978868	-0.4219563748	-1.2150515331	 0.105229
O	 1.9384497624	-0.1230968398	-1.2008242235	-0.247969
C	 2.3691070694	 0.8680935782	-2.1193371159	-0.25132
C	 0.3655472119	-1.8505228868	-1.8145809868	-0.142101
N	-0.9991328742	-2.3699837761	-1.8890466864	-0.506086
C	 0.9554306158	-1.8965730559	-3.1638766528	 0.314804
N	 1.3930070772	-1.8995986488	-4.2332663862	-0.333267
H	 1.2007213242	 1.3805379791	 0.8192589568	 0.136843
H	-0.4239137043	 1.8002950885	 0.2488592793	 0.113661
H	-0.2079763607	 1.0838171831	 1.8503954823	 0.117153
H	 0.568908074	-1.0596625544	 0.8313150342	 0.10813
H	-1.0354897813	-0.6405309101	 0.2284495478	 0.087124
H	 0.0109694414	 0.2940290195	-1.852889823	 0.075719
H	 1.8778313826	 1.8330265273	-1.9288292973	 0.106465
H	 3.4447899597	 0.9861921646	-1.9687193548	 0.131991
H	 2.1888284577	 0.5710605623	-3.1590670296	 0.139449
H	 0.9515397504	-2.5328648356	-1.1863849037	 0.139584
H	-1.3781514918	-2.4883198577	-0.9565575902	 0.24324
H	-1.6020256231	-1.7221264131	-2.3874626591	 0.240015
