16
gdb 132488	3.11034	1.32907	0.9373	2.6254	76.61	-0.2079	-0.0164	0.1915	1182.1388	0.124865	-442.105137	-442.096991	-442.096047	-442.13785	30.894	
C	-0.0391771301	 1.5282372042	 0.038532201	-0.497597
C	 0.0065655515	 0.0265481598	-0.0161661535	 0.191114
C	 0.0232807149	-0.6898928761	-1.2037605593	-0.261408
C	 0.0642236347	-2.0957686728	-1.1736934023	 0.380518
N	 0.1388724108	-2.8346561494	-2.3455485686	-0.567498
N	 0.0857541203	-2.790300693	-0.0326711353	-0.339782
C	 0.0780710651	-2.1044443913	 1.1143246037	-0.103735
C	 0.0382725925	-0.7254732757	 1.160413124	 0.160956
F	 0.025266978	-0.0911452251	 2.3452773714	-0.083567
H	 0.8310429241	 1.9270512129	 0.5701814942	 0.14542
H	-0.0590411937	 1.9591134496	-0.9647714465	 0.125305
H	-0.9243851745	 1.8737816802	 0.5826486292	 0.144173
H	 0.0116638357	-0.1649419395	-2.1540417515	 0.088381
H	-0.293899281	-2.425927236	-3.1593916752	 0.247712
H	-0.0911680481	-3.8087312532	-2.212057117	 0.25362
H	 0.0986662798	-2.6741949846	 2.0396733556	 0.116388
