12
gdb 21921	3.61406	1.92915	1.293	2.5445	52.98	-0.2485	-0.0446	0.2039	855.2525	0.082761	-451.758862	-451.751481	-451.750537	-451.791202	25.741	
O	 0.1948741415	 1.2240396023	-0.512010717	-0.405362
C	-0.0233273955	 0.1296434397	 0.3529978052	-0.181429
C	-1.3580831941	-0.5090005618	 0.1234700328	 0.299277
C	-2.115311425	-0.6715072553	-0.9971963581	 0.25027
O	-1.8281326038	-0.290007832	-2.2581162267	-0.437798
N	-3.2583247199	-1.3237270468	-0.642952332	-0.200108
N	-3.2494438167	-1.5709920906	 0.6015579478	-0.015637
O	-2.0442222721	-1.0643100532	 1.1325273983	-0.203047
H	 0.1106989911	 0.9165250563	-1.421655076	 0.303161
H	 0.7710070177	-0.6293315	 0.2630620073	 0.12285
H	 0.0180214653	 0.5160181101	 1.3757078437	 0.148829
H	-2.5949952986	-0.4793870388	-2.8123033953	 0.318996
