20
gdb 70640	2.43376	1.56055	1.14623	1.9059	84.57	-0.2313	0.0589	0.2902	1137.4199	0.171263	-365.976623	-365.967979	-365.967035	-366.009457	34.068	
C	-0.5053535843	 1.251378996	-0.0586438504	-0.494335
C	 0.0526056912	-0.1387657308	 0.0832473956	 0.335833
N	-0.4498414829	-1.0438134058	 1.1379608168	-0.367883
C	 0.9586374038	-0.5800141702	 1.1720563321	-0.085542
C	 1.9291540481	-1.620417762	 0.645617601	-0.222274
C	 1.2593852272	-2.127460344	-0.6517238286	-0.231765
C	 0.4465795391	-0.9122873835	-1.1867396691	-0.203788
C	-0.674057886	-1.271651369	-2.0447217396	 0.330981
C	-1.6045391565	-1.5580585513	-2.7505352049	-0.462291
H	 0.166691248	 1.8893067493	-0.6438700475	 0.121392
H	-1.4728836719	 1.2306820529	-0.5721048186	 0.138094
H	-0.6472864457	 1.7213578823	 0.9201916879	 0.111617
H	-0.9980626182	-0.500828771	 1.8012327254	 0.22527
H	 1.2646352085	 0.1037796832	 1.9585323246	 0.081211
H	 2.8923896068	-1.1397547138	 0.4347609398	 0.09712
H	 2.1131047202	-2.4322158211	 1.3563408759	 0.105022
H	 1.9753905839	-2.4944024757	-1.3902371413	 0.100182
H	 0.5659340073	-2.936886376	-0.4212387697	 0.13482
H	 1.1216252758	-0.2557774904	-1.7551899549	 0.096187
H	-2.4261008945	-1.8184491089	-3.3704543945	 0.19015
