17
gdb 20160	3.75981	2.72514	2.07331	1.1013	73.11	-0.2067	-0.0031	0.2037	707.5097	0.145388	-326.650124	-326.644488	-326.643544	-326.679362	24.059	
C	-0.0205288703	 1.479754753	-0.1720456371	-0.178138
C	 1.532204261	 1.5957563211	 0.0776658364	-0.03708
C	 1.9532740408	 2.2965015534	 1.3943750369	-0.256203
C	 1.198076233	 1.4360364637	 2.4153008361	-0.150059
C	 0.9403979905	 0.2317481883	 1.8907734931	 0.112099
C	-0.3798392568	-0.4193355575	 1.4965368341	-0.219465
N	-0.0412613589	-0.0212762968	 0.0679662291	-0.143264
C	 1.4228895165	 0.1122444684	 0.458623293	-0.006501
H	-0.6536270854	 2.0578116766	 0.5091370883	 0.102737
H	-0.3236298271	 1.6903304425	-1.1998988779	 0.112111
H	 2.1112080716	 1.875711025	-0.8049116724	 0.065481
H	 3.0456434194	 2.3151994817	 1.5166170099	 0.10392
H	 1.6145161404	 3.3379143739	 1.44143849	 0.104472
H	 0.6939243115	 1.8647965429	 3.2745777559	 0.090507
H	-0.4260559451	-1.5111992147	 1.5389408735	 0.116298
H	-1.2956500591	 0.0082694088	 1.915300958	 0.110698
H	 2.117728248	-0.6680056703	 0.142276693	 0.072388
