17
gdb 51637	4.74579	0.95424	0.93255	5.0995	69.8	-0.2582	0.007	0.2653	1270.1713	0.136475	-458.9575	-458.949946	-458.949002	-458.990686	28.192	
O	 0.0015723434	 0.022340748	-0.1176291979	-0.273374
C	 0.0309750405	 1.2153429828	-0.1366933763	 0.16278
O	 1.0975729442	 1.9265716281	 0.2734719717	-0.190992
C	 1.0383709615	 3.3506464361	 0.1965581393	 0.150448
C	 1.4041322433	 4.0188996303	 1.5543632295	-0.260684
C	 2.6571069444	 4.7749588999	 1.0613977703	 0.079015
C	 2.197764045	 5.4150569007	-0.269308942	-0.238135
C	 2.2145852652	 3.9126602666	-0.6305637799	 0.044909
O	 3.3381155661	 3.7436989654	 0.2802382302	-0.286181
H	-0.804208922	 1.8551898606	-0.4857952893	 0.074751
H	 0.0628001216	 3.6570088692	-0.1965362218	 0.087982
H	 0.6191986328	 4.6710694802	 1.9446256253	 0.107096
H	 1.6542307467	 3.2617890023	 2.2989228211	 0.1363
H	 3.2920540472	 5.2771604319	 1.7897551847	 0.090859
H	 1.2570596428	 5.9719557013	-0.3031549789	 0.098333
H	 3.0027261837	 5.9552290399	-0.767066606	 0.12337
H	 2.3761467135	 3.5170437868	-1.6325221499	 0.093524
