14
gdb 79672	2.89361	1.52179	1.22668	4.0144	66.75	-0.261	-0.009	0.252	990.5243	0.100583	-436.608992	-436.601868	-436.600924	-436.640481	27.851	
O	 0.1095043817	 1.4179591398	-0.0590434673	-0.412025
C	-0.0369583983	 0.0571689547	 0.04815218	 0.114291
C	-0.4231484861	-0.7508414078	 1.2515026464	-0.213498
C	-1.6140653987	-0.169409135	 2.0549573734	 0.029949
O	-2.0305345133	 1.0837367911	 1.4652171958	-0.263769
C	-2.4752091153	-0.1504377202	 0.8810528286	-0.033571
C	-1.3476712173	-0.7380474839	-0.0252272409	 0.069171
C	-1.5823816411	-1.7874574297	-0.951235865	 0.200171
N	-1.7850102348	-2.6416106141	-1.7079274716	-0.343422
H	-0.5947962231	 1.815676327	 0.4713527989	 0.304959
H	 0.7330410773	-0.4421511748	-0.5355426234	 0.141917
H	 0.1555533129	-1.5952955241	 1.6038435477	 0.128354
H	-1.8257431066	-0.3196993221	 3.1050350596	 0.137926
H	-3.5386034474	-0.2996501209	 0.7466778079	 0.139547
