13
gdb 21124	5.27697	1.56173	1.21407	3.1031	68.31	-0.2573	-0.0739	0.1834	929.5628	0.094665	-394.700269	-394.693188	-394.692244	-394.732292	25.077	
C	 0.0915033065	 1.4436350389	 0.1449766766	-0.341054
N	-0.0167970596	 0.0018148372	 0.1340422582	-0.285395
C	-1.1405596328	-0.5876834725	-0.0377050566	 0.211262
C	-2.4763026193	-0.029494319	-0.2469431554	-0.000306
N	-3.539122067	-0.7338534512	-0.4088017368	-0.046203
O	-3.4385801324	-2.1074850815	-0.3876890305	-0.22497
N	-2.2256477517	-2.7648142387	-0.1970439896	-0.070849
C	-1.1771160857	-2.0454179159	-0.0374552458	 0.057043
H	 0.8016250185	 1.7451739163	-0.6341204675	 0.145141
H	-0.8386612575	 2.0073474666	-0.0018111801	 0.111768
H	 0.5322164657	 1.7522696566	 1.1003382753	 0.145142
H	-2.6558661929	 1.0395862596	-0.2790591975	 0.144368
H	-0.2488474418	-2.5912955064	 0.1086202697	 0.154052
