17
gdb 79952	2.6487	1.66052	1.33596	4.0333	76.66	-0.2393	-0.0142	0.2252	995.1807	0.136916	-380.858178	-380.850406	-380.849462	-380.890232	29.971	
C	-0.4167975013	 1.4983723661	-0.1224258171	-0.426849
C	-0.0778816238	 0.0266834373	-0.1141893445	 0.02057
C	 0.6191115074	-0.7023021475	-1.2213871619	-0.099692
C	 1.41370376	 0.1094913746	-2.1809320088	-0.075044
C	 2.4256609755	 0.7165834918	-1.5648957368	-0.095796
C	 2.4489243617	 0.3094458492	-0.0960935824	-0.152905
C	 2.5184332876	 1.4387294102	 0.8413731758	 0.290443
N	 2.6098360764	 2.3261060127	 1.5757403524	-0.332268
N	 1.2618680515	-0.559599215	 0.1166407894	-0.128621
H	 0.2470424535	 2.0906621309	-0.7535727426	 0.132363
H	-1.4395605052	 1.6230945351	-0.4942247095	 0.12174
H	-0.3765055501	 1.9079681889	 0.8906311457	 0.150283
H	-0.8174365278	-0.5678974476	 0.4203742079	 0.104479
H	 0.2935447452	-1.6983798717	-1.5108578239	 0.10323
H	 1.1762797101	 0.1843391636	-3.2348736299	 0.118078
H	 3.1436340541	 1.403710292	-1.9940641907	 0.12604
H	 3.3374747552	-0.3056900207	 0.1099174168	 0.143951
