21
gdb 95886	2.74557	1.10118	0.91368	2.902	78.92	-0.2484	-0.0232	0.2252	1327.8539	0.183068	-424.256071	-424.246969	-424.246025	-424.290272	34.222	
O	 0.1964853113	 1.3855263379	-0.2102193117	-0.440307
C	 0.054274386	-0.018875912	-0.0185588496	 0.128452
C	 0.7743866645	-0.5039834819	 1.2495688071	-0.207105
C	 0.0484278959	-0.0554466574	 2.5260205518	-0.222082
C	-1.4213203224	-0.4992810484	 2.5248938743	-0.203816
C	-2.163749321	-0.0007328071	 1.2651643276	-0.070161
C	-1.4236132671	-0.4473305781	-0.0155690856	-0.230384
C	-3.5788564325	-0.5364697582	 1.249151372	 0.149112
O	-4.5790942517	 0.1325084725	 1.254813858	-0.248084
H	-0.1908491999	 1.8397030863	 0.5445417696	 0.28258
H	 0.5396469218	-0.4578898595	-0.8967580161	 0.085498
H	 0.8258382909	-1.6006145526	 1.2281079979	 0.095254
H	 1.8035554274	-0.1318665112	 1.2378238495	 0.105747
H	 0.5580682383	-0.4533623358	 3.4096818241	 0.104095
H	 0.0985536609	 1.0384833131	 2.6204001697	 0.093821
H	-1.4680236737	-1.597208074	 2.5549117305	 0.100622
H	-1.9309749658	-0.1383260533	 3.4248905333	 0.10924
H	-2.2459637064	 1.0927352322	 1.2896194879	 0.084784
H	-1.9151072617	-0.0319391414	-0.9008940858	 0.117584
H	-1.4739513742	-1.5419309776	-0.09631813	 0.097291
H	-3.6357491504	-1.6523531133	 1.2308384254	 0.067858
