21
gdb 1788	3.57463	1.93782	1.60298	0.1214	74.82	-0.2552	0.0874	0.3426	912.3929	0.193436	-274.985796	-274.976984	-274.97604	-275.018407	32.779	
C	 0.2213165847	 1.5232826843	 0.23368195	-0.377715
C	-0.1784003862	 0.0907304271	-0.1463267698	-0.245974
C	 0.6191822974	-0.4881126622	-1.3079454706	 0.377498
C	 0.4079488738	 0.2205604818	-2.6355795984	-0.457996
C	 2.005832186	-1.0302089825	-1.0274927554	-0.328302
C	 0.8838744678	-1.9810495393	-1.3813201846	-0.035635
C	 0.3633729417	-2.9950327544	-0.3847712507	-0.413274
H	 1.2849707365	 1.5786979793	 0.4891784085	 0.116058
H	 0.0392055522	 2.2285189961	-0.5828915137	 0.116308
H	-0.350691996	 1.8701705298	 1.100096651	 0.108204
H	-0.0623051979	-0.5470681672	 0.735491984	 0.092192
H	-1.2478859486	 0.0676699662	-0.3980587333	 0.090508
H	 0.722778306	 1.269070871	-2.5935272912	 0.114945
H	 0.9810352986	-0.2595856146	-3.4349617223	 0.109547
H	-0.649291426	 0.2033841082	-2.9280646862	 0.109993
H	 2.7947922705	-0.8521409395	-1.7513175524	 0.101641
H	 2.3464514027	-1.0279441722	 0.0041637614	 0.101368
H	 0.9183375129	-2.3680609561	-2.3978767392	 0.075552
H	 0.4133049838	-2.6305457552	 0.6449724876	 0.116025
H	-0.6785129341	-3.2660208566	-0.5913100839	 0.114094
H	 0.9583539742	-3.9142720639	-0.4296921909	 0.114962
