23
gdb 93145	2.31864	1.47516	1.0067	0.2606	92.95	-0.226	0.0212	0.2472	1277.3412	0.206629	-351.170301	-351.161102	-351.160158	-351.203871	36.18	
C	-0.0149222944	 1.5800661019	-0.0415740147	-0.398413
C	 0.029765272	 0.03830417	 0.0279047946	-0.058819
C	 0.5962576746	-0.4981021888	-1.3055381853	-0.252323
C	 0.5667180577	-1.9964611309	-1.4467100848	-0.068392
C	 1.3596776206	-2.7868417623	-0.729752805	-0.043485
C	 2.3351696121	-2.2366088252	 0.2861487566	-0.320004
C	 1.7063612341	-1.3745334324	 1.3647396442	-0.1556
C	 0.7448038437	-0.4456531056	 1.2865182932	 0.333305
C	 0.2568810285	 0.1920483871	 2.571216117	-0.46964
H	 0.9975806346	 1.9987967674	-0.0692367818	 0.115499
H	-0.5349138433	 1.9015677689	-0.9497192321	 0.109646
H	-0.5378922446	 2.0202142906	 0.8101868392	 0.115879
H	-1.0133561517	-0.3083518055	 0.1074121308	 0.079782
H	 0.030321657	-0.0360174525	-2.1211509271	 0.091233
H	 1.6290137081	-0.1346827127	-1.4083455761	 0.10436
H	-0.135191095	-2.4268414963	-2.1564152123	 0.082795
H	 1.3176338607	-3.8658106781	-0.8523736118	 0.085818
H	 2.8544247132	-3.0644720068	 0.7780874017	 0.100302
H	 3.1268530363	-1.6720734839	-0.2327409554	 0.119314
H	 2.0966326541	-1.5742953845	 2.3615929937	 0.073481
H	 0.6727652387	-0.3140180383	 3.4458420437	 0.115358
H	 0.5283102272	 1.2517372012	 2.6393132881	 0.123661
H	-0.8378440842	 0.1452826969	 2.6440217535	 0.116244
