17
gdb 91644	2.95364	1.77408	1.53735	3.6692	65.34	-0.2516	0.0591	0.3107	900.4762	0.137959	-458.9354	-458.928668	-458.927724	-458.966299	27.6	
O	-0.0278767127	 1.4350408353	-0.0674702619	-0.437763
C	 0.0161848945	 0.0219398783	 0.0207753971	 0.121671
C	 0.6003768581	-0.5504647924	 1.359303733	-0.270015
C	-0.6151334003	-1.3485858821	 1.8944845694	 0.020404
O	-1.2260812647	-1.8109264748	 0.6830253014	-0.243738
C	-1.4300582564	-0.5408058556	 0.0682744351	-0.009155
C	-2.1703090359	 0.252435479	 1.1570231173	 0.053566
O	-2.9708549975	-0.5733830064	 2.0069997411	-0.245784
C	-1.6253220639	-0.3061765583	 2.3960383718	 0.03417
H	 0.8717043335	 1.7637967568	-0.1506787066	 0.289892
H	 0.5464410877	-0.4032409781	-0.840309442	 0.07972
H	 1.4539806592	-1.2083050277	 1.1828611801	 0.107161
H	 0.9105292312	 0.2607966784	 2.0250011458	 0.102159
H	-0.401628366	-2.1954694378	 2.5456429371	 0.087649
H	-1.9287729111	-0.6632005669	-0.8919710427	 0.088727
H	-2.4737993511	 1.2825978748	 1.0242257989	 0.118408
H	-1.4674795646	 0.2575375177	 3.309963125	 0.102927
