16
gdb 125323	4.3428	1.10276	0.88426	1.9033	74.22	-0.2446	-0.0168	0.2278	1268.9831	0.125359	-434.139581	-434.130918	-434.129973	-434.173516	30.96	
C	-0.025567951	 1.5303047292	 0.0701487779	-0.503645
C	 0.0062560377	 0.0347864181	-0.0014914272	 0.152794
C	-0.0213721388	-0.7633123744	-1.1193571142	-0.083156
N	 0.0264922229	-2.0589445157	-0.6911251939	-0.043666
N	 0.0845609565	-2.1489417641	 0.6625627848	-0.276949
C	 0.0723689832	-0.8929102928	 1.076070832	-0.052296
C	 0.018546713	-3.2140384726	-1.5281784575	 0.515506
N	 0.0767474852	-4.3621789471	-0.8203668169	-0.568454
O	-0.0351850357	-3.1028841013	-2.7320337972	-0.379467
H	 0.8681933563	 1.9296588042	 0.562210991	 0.133843
H	-0.0777566194	 1.9700310311	-0.92916433	 0.131183
H	-0.8925605818	 1.8886383433	 0.6361267486	 0.133829
H	-0.0700846888	-0.5420295262	-2.1724077527	 0.162735
H	 0.1111072105	-0.6788441829	 2.1355002667	 0.119747
H	 0.114963884	-4.3283633003	 0.185326451	 0.284879
H	 0.071873426	-5.2305424384	-1.3235933525	 0.273116
