14
gdb 123364	3.73625	1.20234	0.95679	1.1846	70.2	-0.2215	-0.0201	0.2014	1154.5457	0.1007	-428.972089	-428.963865	-428.962921	-429.005341	29.686	
C	 0.0317867851	-0.6468240813	-0.9667864143	-0.467482
C	 0.0840266363	 0.3234192644	-0.2555796213	 0.286063
C	 0.1691343845	 1.5394582022	 0.5657092856	-0.295943
N	 1.3590254091	 2.3608983307	 0.3787589813	-0.381304
C	 1.7175114008	 2.6564596936	-0.8082934967	 0.554431
N	 1.2480035304	 2.3434909101	-2.0767718648	-0.304964
N	 2.0429521506	 2.8775649915	-3.0554700262	-0.083188
N	 2.9429962156	 3.5687303993	-2.4972955602	-0.06112
N	 2.7740143408	 3.4813554063	-1.1525028904	-0.311038
H	-0.0121328786	-1.5305220793	-1.5550173618	 0.206012
H	-0.7440803914	 2.1337797477	 0.395959796	 0.131544
H	 0.1367355434	 1.2437836263	 1.6203017447	 0.144579
H	 0.6204325714	 1.585747353	-2.2966377692	 0.290256
H	 3.4189789319	 3.9264344956	-0.5231318525	 0.292154
