18
gdb 95142	2.17618	1.91171	1.49137	4.6923	70.71	-0.2356	-0.0112	0.2244	964.2476	0.149474	-439.074466	-439.066788	-439.065844	-439.106496	30.213	
O	-0.1067678643	 1.4227188647	-0.1690842601	-0.418147
C	 0.0151599525	 0.0199419033	 0.0173066216	 0.100667
C	 0.6965335272	-0.3588765665	 1.3558295376	-0.241325
C	-0.2847913232	-0.4130975031	 2.5507073062	-0.231842
C	-1.6691518464	-0.9083717887	 2.0581768841	-0.114074
N	-1.5816534141	-1.7659082293	 0.8328307519	-0.326986
C	-1.4291150689	-0.5414080359	-0.0097744734	-0.136393
C	-2.2200375219	 0.1666618354	 1.1084880012	 0.47827
O	-2.980576376	 1.0788174414	 1.1921010229	-0.310034
H	 0.7735991931	 1.7915124161	-0.2916762437	 0.286883
H	 0.5902041283	-0.4224438918	-0.8112044584	 0.070551
H	 1.171454842	-1.3386475901	 1.2342196268	 0.102551
H	 1.5135187306	 0.3429531747	 1.5541817438	 0.099657
H	 0.1069386702	-1.078767613	 3.3269269694	 0.105609
H	-0.4031397595	 0.5733923284	 3.0115852886	 0.128293
H	-2.3060020929	-1.2898673542	 2.8595937038	 0.093162
H	-0.7785812413	-2.3894103971	 0.8130230876	 0.216263
H	-1.8468597652	-0.5878514243	-1.01723077	 0.096893
