14
gdb 130277	5.90085	0.99209	0.84994	4.0675	69.46	-0.2257	-0.0155	0.2101	1274.5484	0.102978	-466.191251	-466.183276	-466.182332	-466.224281	29.005	
N	 0.1489461155	 1.4135276815	 0.1307148355	-0.587436
C	 0.0020064895	 0.0524656812	 0.0479313959	 0.424087
N	-1.1702330775	-0.5417449878	 0.0334679772	-0.22017
O	-0.8107181335	-1.925727735	 0.019048089	-0.185733
C	 0.5125325574	-1.9504974447	 0.0129570015	 0.582633
N	 1.2022111185	-3.1315353986	-0.0040042614	-0.407066
C	 0.7285164763	-4.436508122	-0.0360355296	 0.077278
N	-0.5008300674	-4.7364084796	-0.0620155585	-0.410167
N	 1.0943686327	-0.7805310393	 0.0288263273	-0.421496
H	 1.0094029952	 1.7571877618	-0.2674320844	 0.264652
H	-0.6676045346	 1.9414464	-0.1389934818	 0.266547
H	 2.2009386714	-2.9988347898	 0.0102324718	 0.277465
H	 1.5685462631	-5.1407166589	-0.0358037434	 0.104176
H	-0.6163439167	-5.7472038387	-0.0824512191	 0.23523
