17
gdb 71149	2.96673	1.64367	1.31979	2.6112	71.54	-0.2335	-0.0131	0.2205	973.6774	0.136487	-421.825185	-421.817989	-421.817045	-421.856486	29.345	
O	-0.0771840015	 1.3810993653	 0.0525887445	-0.492984
C	 0.0165312056	-0.0136205894	 0.0181071568	 0.39847
C	 0.3552621884	-0.695942189	-1.3541059547	-0.300612
C	-0.8601831231	-1.595318494	-1.1385076119	-0.063366
C	-0.9290358128	-2.1521083972	 0.2974656558	-0.157568
C	-1.3667612934	-0.7399733732	-0.0130654056	-0.124618
C	 0.3064109266	-2.1254615556	 1.1436130267	 0.408836
O	 0.7795299918	-3.0480672079	 1.757929864	-0.329854
C	 0.8172398458	-0.6747161604	 1.1435483161	-0.395711
H	 0.8139610682	 1.7468465739	 0.0352235861	 0.281499
H	 0.1713456806	 0.0091872609	-2.1682659123	 0.114452
H	 1.3424253095	-1.1570265918	-1.4732944787	 0.094693
H	-1.4219423964	-2.1108911157	-1.9075083986	 0.102129
H	-1.6514918196	-2.9433108024	 0.4540799051	 0.108936
H	-2.3368849805	-0.3119008935	 0.19764074	 0.105369
H	 1.9036128731	-0.6336556796	 1.0205688852	 0.117175
H	 0.5586572178	-0.2185521703	 2.1075482815	 0.133154
