17
gdb 43742	4.33045	1.08699	1.05406	3.364	68.02	-0.2623	0.0063	0.2686	1159.4998	0.136646	-458.995975	-458.988295	-458.987351	-459.028984	28.726	
O	 0.7047800285	 0.3844213753	-0.7341815361	-0.314935
C	 0.2680905217	 1.3121680403	-0.1344852444	 0.445218
C	-1.0990219599	 1.8724126293	 0.2539363292	-0.506319
C	-0.2817819928	 2.9894662457	 0.9248765556	 0.391348
C	-0.3390816416	 4.4221961541	 0.4051328019	-0.279465
C	 0.3824228877	 5.1728315474	 1.5264727183	-0.080115
O	-0.062355895	 4.5388283053	 2.7234186745	-0.256417
C	-0.313170438	 3.1656220554	 2.450604553	-0.115603
O	 0.967000202	 2.3150781085	 0.4861078093	-0.275575
H	-1.7224519312	 2.1725293628	-0.5901747228	 0.146304
H	-1.6733920079	 1.2262974597	 0.9208172856	 0.146191
H	 0.1255313389	 4.5211621396	-0.5777712949	 0.123181
H	-1.383216217	 4.747328566	 0.3435416873	 0.118415
H	 1.4734140465	 5.0818719282	 1.4139942971	 0.110985
H	 0.1245332928	 6.232599367	 1.5917240438	 0.115829
H	-1.292386772	 2.9024112723	 2.867912934	 0.110452
H	 0.4481466472	 2.5224745632	 2.9106902886	 0.120507
