18
gdb 127666	3.13676	1.34414	1.02261	3.2867	78.98	-0.2362	0.0152	0.2514	1179.8096	0.149894	-398.148783	-398.14045	-398.139506	-398.183089	29.908	
C	-0.2435026309	 1.4225510651	-0.0211201492	-0.333334
N	-0.0270756139	-0.0093655156	 0.0292494074	-0.030855
N	-0.034705172	-0.7431948158	-1.1193880733	-0.257607
C	 0.1912178378	-1.9645826248	-0.6697937322	 0.021328
N	 0.3428622025	-2.0706793473	 0.6753089249	-0.338728
C	 0.1997888611	-0.818045627	 1.0909653834	 0.402185
C	 0.2730372502	-0.359773497	 2.4859738754	-0.139024
C	-0.2412741439	-1.2758134204	 3.5827717495	-0.252651
C	 1.2320747933	-1.0584979215	 3.4339575996	-0.252664
H	 0.62155776	 1.9651120304	 0.3716176231	 0.144152
H	-0.3882186026	 1.6877176126	-1.0674159236	 0.167747
H	-1.1333695922	 1.7060879442	 0.5486938751	 0.144149
H	 0.2486124973	-2.8106366559	-1.3386861626	 0.12087
H	 0.1306113103	 0.7048495825	 2.6313454755	 0.087339
H	-0.756628825	-0.8138772445	 4.4173293313	 0.115161
H	-0.6427326179	-2.227540871	 3.2558742983	 0.143375
H	 1.8165948521	-1.8648118352	 3.0073157601	 0.143393
H	 1.7469843339	-0.444794659	 4.1644981875	 0.115165
