21
gdb 76383	2.42571	1.16537	1.11383	2.1385	80.08	-0.2385	-0.0076	0.2309	1268.1797	0.178847	-424.239573	-424.228843	-424.227899	-424.275114	38.888	
C	-0.0995281726	 1.5559185628	 0.1400110836	-0.432818
C	 0.0342504133	 0.0505498282	 0.1246586297	-0.070316
C	 1.3160639551	-0.6276985367	-0.236223841	 0.067378
O	 2.4776792298	 0.1194157963	-0.446196267	-0.424142
C	 0.8275532287	-0.7070161498	 1.2119669342	 0.156634
C	 1.5792004838	 0.0650850087	 2.2787518085	-0.48931
C	 0.2277518149	-2.0406707697	 1.5605198588	 0.330857
C	 0.4027671153	-2.5657479673	 2.9737308737	-0.491271
O	-0.3794166435	-2.6879743712	 0.7286657204	-0.325526
H	 0.8592840942	 2.0529046286	 0.3022043758	 0.127289
H	-0.4974263294	 1.9071005016	-0.818919214	 0.119855
H	-0.7917918778	 1.8889459205	 0.9201757351	 0.123987
H	-0.8528509307	-0.4942461684	-0.1855129244	 0.110038
H	 1.2513335093	-1.559143375	-0.795832499	 0.10882
H	 2.3977309367	 0.5593632696	-1.2991762879	 0.293424
H	 2.1250772248	 0.9002498373	 1.840337257	 0.140883
H	 0.9045571687	 0.4598401447	 3.04617791	 0.115299
H	 2.31862722	-0.5683761677	 2.7782686622	 0.119686
H	 0.0429580903	-1.8417184657	 3.7122869713	 0.136918
H	-0.1441564553	-3.5034886734	 3.0750248789	 0.139494
H	 1.4629474743	-2.7378474735	 3.1910569043	 0.14282
