17
gdb 70491	3.61332	0.95799	0.86045	3.7889	69.48	-0.2422	-0.0242	0.218	1334.0242	0.133118	-458.915176	-458.906385	-458.90544	-458.949664	31.955	
O	 0.0750745537	 1.4555083872	-0.1324869195	-0.45103
C	 0.011807923	 0.0831669974	-0.0389903839	 0.296151
C	-0.460416329	-0.8272303615	-1.1541302377	-0.367178
C	-1.1751621654	-0.8196177904	 0.1707858756	 0.05419
O	-0.4780404101	-1.633179595	 1.118964385	-0.306576
C	 0.6695677689	-0.7308231681	 1.0815846883	 0.064008
C	 2.0005401592	-1.4435193145	 0.8650431541	-0.307811
C	 2.2921608912	-2.4454573935	 1.965606857	 0.15599
O	 3.2691624233	-2.4165878794	 2.6691900753	-0.237421
H	 0.7023246546	 1.688531008	-0.8257960969	 0.293651
H	-0.9799603205	-0.2915091676	-1.943366016	 0.123859
H	 0.0962618848	-1.7045433944	-1.4718838224	 0.116885
H	-2.2318191833	-0.6393228069	 0.3229221014	 0.120147
H	 0.6929943297	-0.1385594398	 2.005182002	 0.105357
H	 1.965600329	-1.9889016116	-0.086891805	 0.117741
H	 2.8166273685	-0.7150321161	 0.8303860981	 0.122679
H	 1.5162679525	-3.2319872737	 2.0838865547	 0.099355
