18
gdb 112453	2.04011	1.49271	0.95422	3.722	68.38	-0.2369	0.033	0.2699	1215.7335	0.147971	-476.257652	-476.248586	-476.247642	-476.291692	33.453	
O	-0.0179427655	 1.285478434	-0.3985755805	-0.432302
C	 0.0271596006	-0.1333351873	-0.309272054	-0.071475
C	-1.3666581847	-0.564613499	 0.1487993079	-0.007328
N	-2.3995566672	-0.1593565172	-0.7895317195	-0.296513
C	-2.8461325994	-1.1446991414	-1.6312459007	 0.408208
O	-3.6040294691	-1.0003654033	-2.5634643332	-0.376961
C	-2.188214249	-2.4481096338	-1.1614501028	-0.376941
C	-1.574875522	-2.1003322089	 0.204341849	 0.096387
O	-0.3403012252	-2.7298230938	 0.4959838554	-0.430018
H	 0.8268794342	 1.5954213952	-0.7362033326	 0.292433
H	 0.2623033469	-0.5903766641	-1.2817354851	 0.092333
H	 0.7745718481	-0.4760861679	 0.4171291925	 0.1099
H	-1.5467874712	-0.1070206443	 1.1278554647	 0.096314
H	-2.5350439878	 0.8122277557	-1.0237092733	 0.259528
H	-2.9125417934	-3.2647435826	-1.1394616799	 0.124441
H	-1.4000944738	-2.7129496807	-1.8755817395	 0.133761
H	-2.3088242109	-2.3129416187	 0.9944492107	 0.086995
H	-0.4912840007	-3.678453062	 0.5462922209	 0.291239
