21
gdb 77678	1.87064	1.6202	1.58464	1.5951	78.26	-0.2448	0.0709	0.3157	1077.3038	0.181694	-424.220617	-424.211262	-424.210317	-424.25384	35.795	
C	-0.0195807638	 1.5724126551	 0.0155987558	-0.433422
C	 0.1065849427	 0.062944528	-0.045009817	-0.128851
C	 0.6045392057	-0.7335489957	-1.2482474251	 0.242913
C	-0.1470020004	-1.9589786432	-1.7062842415	-0.483052
C	 1.4564726912	 0.0216452967	-2.2556192634	-0.137866
O	 2.4638998942	 0.715175885	-1.5166700515	-0.256227
C	 2.697163429	 0.0276737223	-0.2933924397	-0.143792
C	 1.4055808195	-0.7057880882	 0.0338896088	 0.308136
O	 1.5055617988	-1.8535941192	 0.8221520214	-0.467621
H	 0.8072986959	 2.0695926314	-0.4941643802	 0.146696
H	-0.9543004551	 1.9000584876	-0.4529899984	 0.115396
H	-0.0377323126	 1.9200582594	 1.0548603675	 0.110164
H	-0.697232246	-0.4635219998	 0.4678583036	 0.082216
H	-1.0194364608	-1.6939220003	-2.314234646	 0.115463
H	 0.4936352514	-2.6128214194	-2.3090257148	 0.11741
H	-0.4934251774	-2.5385498139	-0.846506514	 0.129752
H	 1.909255126	-0.6938864846	-2.961280649	 0.092577
H	 0.9112723334	 0.7730647761	-2.8381104248	 0.104958
H	 3.5033262322	-0.7175964803	-0.3839541583	 0.10036
H	 3.000619763	 0.7773816727	 0.446948344	 0.098685
H	 1.401315293	-1.5962719298	 1.7439149426	 0.286105
