17
gdb 42443	4.72515	0.74425	0.71812	4.1541	76.02	-0.2688	0.005	0.2737	1578.6275	0.136047	-418.040166	-418.031049	-418.030105	-418.075479	32.216	
O	 0.2477431745	 0.2456189105	-0.8086119449	-0.386819
C	 0.0753679428	 1.2505283774	-0.1394210462	 0.457354
N	 1.0837312226	 1.807659228	 0.6112336544	-0.342913
C	 2.425373935	 1.2666506013	 0.5712993042	-0.28125
C	 3.406617812	 2.2311078455	 0.0569811629	 0.253365
N	 4.174673982	 3.0063876292	-0.3218645941	-0.298844
C	-1.233590842	 1.9591642683	-0.0561271071	-0.133065
C	-2.0921356467	 1.9578859813	-1.3092788041	-0.246715
C	-2.4848664286	 1.103964674	-0.1501770539	-0.248547
H	 0.9235658197	 2.671582178	 1.1025162697	 0.259613
H	 2.7548549326	 0.9292711795	 1.5615417591	 0.157589
H	 2.3825664938	 0.392437117	-0.0861598476	 0.198789
H	-1.2758185709	 2.839097378	 0.5773038015	 0.083094
H	-2.6608337053	 2.8564410331	-1.5179474451	 0.120648
H	-1.6638308892	 1.461693569	-2.1718838802	 0.144852
H	-2.3183773015	 0.03709204	-0.2385558526	 0.143364
H	-3.3315910008	 1.3999246399	 0.4580277939	 0.119485
