20
gdb 89923	2.87467	1.30307	1.06619	4.3616	83.72	-0.2807	0.0231	0.3038	1195.9844	0.171828	-366.012191	-366.003643	-366.002699	-366.045529	32.766	
C	 0.2465840101	 1.700508811	-0.0385605254	-0.417606
C	 0.044755853	 0.193923326	 0.0090305269	 0.049353
C	 0.8467057221	-0.713702017	-0.9716303026	-0.309838
C	 1.1536359598	-1.7145252315	 0.1944463543	 0.218691
C	 2.5628074487	-1.5478969198	 0.8274733619	-0.27963
C	 2.0336631723	-0.35813129	 1.6798324001	-0.237275
C	 0.5772811396	-0.6374371319	 1.205935193	-0.083993
C	 0.6121882743	-3.0451122187	 0.0643421191	 0.187535
N	 0.1732962169	-4.1121177046	-0.0300979694	-0.350962
H	 1.3035335218	 1.9753093772	 0.0412470842	 0.117114
H	-0.1263716333	 2.1099323082	-0.9836504585	 0.122335
H	-0.291727685	 2.199441612	 0.774704015	 0.120658
H	-1.0221651668	-0.027960262	-0.1026769133	 0.088617
H	 0.2794586447	-1.1296873606	-1.8052857366	 0.12552
H	 1.7585433023	-0.2551283113	-1.3657153982	 0.106119
H	 2.8421276615	-2.409332366	 1.4372530344	 0.125405
H	 3.370188387	-1.3436543396	 0.1195817541	 0.109481
H	 2.1828676267	-0.4777921882	 2.7541577181	 0.115477
H	 2.4246297246	 0.6210778625	 1.3950831565	 0.108761
H	-0.1331252904	-0.9039312056	 1.9885198463	 0.084237
