21
gdb 71656	2.96496	1.8185	1.8067	0.079	83.68	-0.2512	0.0951	0.3463	917.9566	0.185927	-349.945983	-349.939381	-349.938437	-349.976308	29.345	
C	 0.0013058641	 1.5017649954	 0.0161699648	-0.50116
C	-0.0132741102	-0.0150000256	-0.0337096969	 0.317494
C	-1.3959792526	-0.7224323354	-0.0669031694	-0.241603
C	-0.8415687895	-2.1437199231	 0.1003401294	-0.058606
C	-0.0295887544	-2.0698634187	 1.4092431982	-0.078881
C	 1.2737902674	-2.057731643	 0.65598167	-0.078879
C	 0.6843918345	-0.7509762814	 1.1615097677	-0.082659
C	 0.5460813146	-2.1307698615	-0.7016334798	-0.058604
C	 0.6580489219	-0.7032501598	-1.253982262	-0.241615
H	 1.0260815257	 1.8896245437	 0.025493216	 0.111991
H	-0.507626696	 1.9329086218	-0.8530038654	 0.110793
H	-0.5038286266	 1.8750488884	 0.9140508619	 0.111995
H	-2.0431396005	-0.4348656694	 0.7689638077	 0.086674
H	-1.9315048237	-0.5492481661	-1.0071880905	 0.084221
H	-1.5069273041	-2.9909125221	-0.0560431901	 0.05999
H	-0.2786849833	-2.4675740201	 2.3856152517	 0.076412
H	 2.2495984823	-2.4440668627	 0.9244361166	 0.076411
H	 1.1496740218	-0.209228098	 1.9753072855	 0.075144
H	 0.754529938	-2.9698048755	-1.3630418182	 0.059987
H	 0.1083501674	-0.5302199844	-2.1860793727	 0.084221
H	 1.7012633733	-0.3998983725	-1.3949299347	 0.086674
