21
gdb 68585	2.07432	1.8484	1.56832	1.2924	77.37	-0.2386	0.0602	0.2988	1013.0519	0.181811	-424.203588	-424.194719	-424.193775	-424.236266	35.215	
C	-0.1266380958	 1.5252401536	 0.0387110413	-0.467292
C	-0.0244838005	-0.0031111885	 0.0051956437	 0.306303
C	-1.4203634205	-0.5915252869	-0.2098541481	-0.476853
C	 1.143493327	-0.6120634024	-0.8414574774	 0.059733
C	 2.1293907768	-0.2153109476	 0.2782848069	-0.325762
C	 0.880285816	-0.6114704555	 1.1416706427	 0.332045
O	 0.6557212571	-0.2144212263	 2.4542939721	-0.488319
C	 0.8199110159	-2.1103302422	 0.7921439636	-0.148208
O	 0.9960877338	-2.0363036593	-0.6371710833	-0.273667
H	 0.813689744	 2.0372870626	 0.2442759389	 0.116437
H	-0.5101348738	 1.8985803061	-0.9172453161	 0.113313
H	-0.8351776853	 1.8268342352	 0.8171835381	 0.128654
H	-1.9479954265	-0.0398535656	-0.995314799	 0.109448
H	-1.384267487	-1.6389594758	-0.5115235253	 0.135258
H	-2.0184692154	-0.5078724668	 0.7046126219	 0.120906
H	 1.2981218025	-0.4061415045	-1.8990476531	 0.078631
H	 3.0253599927	-0.8344707094	 0.3674393103	 0.093913
H	 2.3841312959	 0.8401035503	 0.3219761542	 0.109881
H	 1.2811919767	-0.6677699022	 3.030226014	 0.283566
H	 1.6339186048	-2.6889922356	 1.2495844261	 0.088027
H	-0.1358876685	-2.5801543393	 1.0463189287	 0.103986
