17
gdb 88310	4.25574	0.87608	0.80328	3.149	76.65	-0.2464	-0.0276	0.2189	1423.8294	0.132912	-421.793103	-421.783945	-421.783	-421.827749	33.842	
O	 0.1199281059	 1.3235996292	-0.1263296248	-0.415573
C	 0.0108320855	-0.0440832181	-0.019096392	 0.158526
C	-0.3733944776	-0.7251867824	 1.238934816	-0.325195
C	-1.3819381231	-0.7287504196	 0.0796482511	-0.199245
C	-2.5403784054	 0.1785806898	 0.1738001535	 0.420085
O	-2.4728627995	 1.2647771742	 0.7233086443	-0.352524
C	-3.8279806286	-0.3162596433	-0.4987378155	-0.494323
C	-4.9502487102	 0.6017038	-0.4234075166	 0.32483
C	-5.8846324369	 1.3529925776	-0.3655859484	-0.421538
H	-0.6443517714	 1.7101523214	 0.3355848816	 0.307367
H	 0.7154814596	-0.5416121169	-0.6776894041	 0.119075
H	 0.0768757711	-1.6786652549	 1.4915373341	 0.125027
H	-0.6406919595	-0.0946785976	 2.0807872541	 0.140816
H	-1.5274286148	-1.6582195356	-0.459326535	 0.095681
H	-3.5822573092	-0.5465853662	-1.5452708648	 0.159438
H	-4.0847196441	-1.2847361379	-0.0465647079	 0.157136
H	-6.7056871519	 2.0240888003	-0.3113170654	 0.200416
