20
gdb 111443	2.90322	1.47076	1.17737	2.6466	76.81	-0.2287	0.0746	0.3033	1095.0111	0.173078	-403.100825	-403.093045	-403.0921	-403.132991	31.369	
O	 0.1019582529	 1.4244933607	 0.0218873698	-0.427269
C	 0.1090103694	 0.0112072502	-0.0547778869	-0.051043
C	-1.305004839	-0.5607676671	 0.0002607267	-0.007797
C	-1.4529923075	-2.0752914526	-0.1659009261	-0.057238
C	-0.8601770184	-3.0383373389	 0.8322719387	-0.309232
C	-2.2868468192	-2.5711774101	 0.9981790836	-0.042652
C	-2.5853733465	-1.3630990603	 1.8623081385	-0.024574
C	-1.4744897704	-0.6432397897	 2.5330267057	-0.264148
N	-2.0086939494	-0.1464403589	 1.2492281461	-0.126126
H	-0.5352632224	 1.6582370168	 0.7069357218	 0.293015
H	 0.5766070018	-0.2540795056	-1.0092749279	 0.106738
H	 0.7287108179	-0.4305673862	 0.7423553878	 0.078256
H	-1.8688738006	-0.0859628082	-0.8123448322	 0.093917
H	-1.6281206593	-2.4404016835	-1.1724133626	 0.091218
H	-0.7214849824	-4.0584089741	 0.488247715	 0.114885
H	-0.0963534595	-2.7171084297	 1.528946429	 0.117164
H	-3.088773356	-3.2860591411	 0.8581493709	 0.090298
H	-3.5966318735	-1.2807785961	 2.2512181009	 0.091725
H	-1.6819954201	 0.0123335549	 3.3751570897	 0.115604
H	-0.4958255376	-1.1078837405	 2.5744047217	 0.11726
