21
gdb 84376	2.22588	1.57986	1.19706	1.6153	78.94	-0.2396	0.008	0.2476	1135.2089	0.181161	-424.23694	-424.227501	-424.226557	-424.270313	37.283	
C	-0.9234988324	 1.1571801708	-0.0137902652	-0.420909
C	 0.0319242664	-0.036711173	-0.0865126315	-0.030287
C	 1.118429815	 0.0689714591	-1.133615225	-0.069175
C	 2.2561456431	-0.5017613032	-0.7402886666	-0.147888
C	 2.1205293059	-1.0878212239	 0.642170927	 0.047064
O	 3.2773653024	-1.0012855253	 1.4629458026	-0.438843
C	 0.8355422653	-0.3832670719	 1.2041707825	 0.335636
C	 1.2089510305	 0.8507230293	 2.0318833077	-0.452109
O	 0.0358040123	-1.2648181876	 1.9861660085	-0.483995
H	-0.3933575177	 2.1011827368	 0.145333931	 0.115085
H	-1.4865642331	 1.2483828216	-0.9486401958	 0.111764
H	-1.6464870685	 1.0278656176	 0.7973291048	 0.128046
H	-0.5739223162	-0.9299708157	-0.2990727662	 0.09969
H	 0.9421045588	 0.5203070807	-2.1048833017	 0.095278
H	 3.1633041894	-0.6057481708	-1.325763661	 0.098342
H	 1.9054038733	-2.1634800456	 0.5907098549	 0.100384
H	 3.6202003591	-0.1037278548	 1.395713323	 0.279508
H	 1.7525787342	 1.5911414523	 1.4351494361	 0.111317
H	 0.3097698249	 1.3239833346	 2.4313517283	 0.126032
H	 1.8489384567	 0.5576785894	 2.8698771719	 0.115559
H	 0.5349475008	-1.4819456405	 2.7814730145	 0.279501
