20
gdb 26320	3.9332	0.9688	0.8264	1.582	82.84	-0.1815	0.0434	0.2249	1435.6122	0.170717	-403.184892	-403.175396	-403.174452	-403.219249	35.687	
C	 0.0616345142	 1.3112212072	-0.4238838206	-0.37604
C	 0.0466742272	-0.1157131554	 0.1579139283	-0.082613
C	 0.6619459598	-0.1376966182	 1.5630361004	-0.393334
C	-1.3425819456	-0.6966712768	 0.1283762151	 0.29957
C	-2.1236618587	-1.0541339876	 1.178451971	-0.14784
O	-3.3382145417	-1.5351321863	 0.7355514772	-0.185131
C	-3.3097499099	-1.4803045337	-0.6149134157	 0.396345
N	-4.4860849549	-1.860560307	-1.2476843022	-0.593038
C	-2.1219399266	-0.9798820034	-1.0549996569	-0.397807
H	 1.0836879247	 1.7028187509	-0.4663382341	 0.105628
H	-0.3538467761	 1.3353894049	-1.4354647114	 0.11438
H	-0.5371880771	 1.9855656106	 0.197754473	 0.11751
H	 0.6774045915	-0.7383650438	-0.4933786234	 0.079126
H	 0.0853584852	 0.4891484364	 2.252770208	 0.116004
H	 0.6896767803	-1.1526658771	 1.9708506238	 0.115053
H	 1.6855196152	 0.2489394419	 1.5424394647	 0.10786
H	-1.9961108554	-1.0492154582	 2.2463865902	 0.125888
H	-4.9760270536	-2.5911648644	-0.7465391974	 0.253979
H	-4.3404642857	-2.1263062354	-2.2117093205	 0.253953
H	-1.8258432329	-0.8337447046	-2.0819390393	 0.090507
