15
gdb 51145	3.15221	1.24919	0.99317	3.9784	68.81	-0.2529	-0.0097	0.2431	1160.6488	0.11203	-453.919451	-453.911359	-453.910414	-453.953334	29.215	
N	-0.1504706712	 1.3104284564	-0.1176803702	-0.435138
C	-0.0831891976	 0.0590578001	-0.0113311907	 0.108475
O	-1.2406566932	-0.6570399253	 0.0921828801	-0.22061
C	-1.0893114996	-2.025751924	 0.1160102165	 0.286644
C	-1.2479891731	-2.9013567463	-1.1346009042	-0.346441
C	-2.1656992119	-3.0769341818	 0.0440026298	-0.089923
N	-1.5022405162	-3.811181638	 1.1303580776	-0.340177
C	-0.4519485201	-2.8785695717	 1.216386524	 0.359149
O	 0.5380925152	-2.8259826992	 1.8865230007	-0.337165
H	 0.7859541274	 1.7067120712	-0.165455925	 0.237357
H	 0.8155511872	-0.5654321582	 0.0282737994	 0.119215
H	-1.6590978593	-2.3551989837	-1.9792601186	 0.142859
H	-0.5177854837	-3.6659917987	-1.3829193392	 0.128324
H	-3.2379956267	-2.9397545998	 0.0368062272	 0.13816
H	-1.3441507471	-4.8128913109	 1.1131465526	 0.24927
