18
gdb 94755	3.92303	1.14981	1.03185	3.5864	77.38	-0.2738	0.025	0.2989	1184.4397	0.148645	-401.965093	-401.956983	-401.956039	-401.997596	31.03	
C	 0.0364278305	 1.5546342033	-0.0553533417	-0.402822
C	 0.0536338677	 0.0386767775	 0.0476244928	 0.124177
O	 0.7758957529	-0.487018701	-1.0709326039	-0.266385
C	 1.1988971979	-1.8024255417	-0.7581702151	-0.152523
C	 1.4945324155	-1.7769069854	 0.7449117686	 0.178124
C	 2.2606376347	-0.5576418236	 1.2298670222	-0.322979
C	 0.7616372026	-0.5463839353	 1.2644447742	-0.104761
C	 1.5483414692	-3.0107393027	 1.467715241	 0.193383
N	 1.5934196494	-4.0176180578	 2.0365379607	-0.343273
H	 1.0508288587	 1.9592170185	-0.0022153588	 0.126335
H	-0.4100884295	 1.8618365138	-1.0047417581	 0.134171
H	-0.554912916	 1.9843326769	 0.7586085618	 0.121926
H	-0.9806537763	-0.344383083	 0.0354848731	 0.080029
H	 0.41485184	-2.5465852553	-0.9647510641	 0.113129
H	 2.0726370183	-2.0293667097	-1.375588703	 0.125959
H	 2.7817723677	-0.6540373569	 2.1744329885	 0.13947
H	 2.7716294218	 0.0271033932	 0.472356751	 0.139326
H	 0.2445694448	-0.5746149807	 2.215553581	 0.116712
