21
gdb 107280	3.25276	1.28646	1.12889	2.005	81.51	-0.2384	0.0658	0.3042	1176.5012	0.182993	-387.033738	-387.025549	-387.024604	-387.066476	32.338	
C	 0.1003560685	 1.5115494064	 0.2466812418	-0.372894
C	 0.0189865368	 0.0200586866	-0.1075829756	-0.299268
C	-1.3900528101	-0.5088270358	-0.0867869423	 0.370913
C	-2.0618465581	-0.9924065127	 1.1693613939	-0.345842
C	-1.9128812991	-1.9576904817	 0.0260134214	-0.135636
C	-2.9556289596	-1.6514788003	-1.0658287114	 0.1147
O	-4.2529123075	-1.1689416919	-0.6239134691	-0.300175
C	-3.8564497261	 0.2115268623	-0.8411598042	-0.11039
C	-2.4230950907	-0.2172096529	-1.2114505957	-0.131262
H	 1.132701173	 1.8723774209	 0.2054379387	 0.111967
H	-0.4911977465	 2.1156666371	-0.4498526039	 0.116733
H	-0.2844996014	 1.6966170416	 1.2546947079	 0.119999
H	 0.458317888	-0.1435330045	-1.1010516103	 0.094926
H	 0.6295569356	-0.5595971591	 0.5960810233	 0.097468
H	-1.3829981806	-1.1676240387	 1.9986900945	 0.107568
H	-3.0513299777	-0.6642441721	 1.4681477332	 0.128439
H	-1.3613681988	-2.8861999786	 0.1223337851	 0.081012
H	-3.0292614567	-2.3662355286	-1.8887140192	 0.076371
H	-4.4196150971	 0.6555887794	-1.6715833414	 0.099795
H	-3.9869045327	 0.8303706255	 0.0543841549	 0.101128
H	-1.9943869594	 0.1516120171	-2.1428172317	 0.074449
