17
gdb 67386	2.84428	1.61454	1.43083	4.8625	71.79	-0.2542	0.011	0.2652	976.8866	0.137361	-421.847698	-421.840555	-421.839611	-421.879112	28.298	
C	-0.0337934821	 1.5068832961	-0.0296867908	-0.522736
C	-0.0028586412	 0.0103123921	 0.0073585334	 0.32743
C	 0.4724732885	-1.0457117312	-0.9657010003	-0.119023
C	 1.2788171212	-1.7615690398	 0.1127541426	-0.249981
C	 0.476031898	-0.9340732797	 1.1579279707	 0.022232
O	-0.6603904629	-1.6891430853	 1.5972223468	-0.235239
C	-1.53319447	-1.8041789348	 0.5425429444	 0.454538
O	-2.5325453155	-2.4595761881	 0.5990551199	-0.352675
C	-1.01501818	-0.9433594161	-0.5661383098	-0.263407
H	 0.9574762386	 1.9326721747	 0.1611006096	 0.127261
H	-0.3653684426	 1.8628878031	-1.0102146284	 0.130768
H	-0.7225223616	 1.9083026381	 0.7219624681	 0.136215
H	 0.732417616	-0.9356797157	-2.0117835575	 0.101078
H	 1.2060587745	-2.8491655572	 0.2061687802	 0.11535
H	 2.32904306	-1.4592349416	 0.0840289047	 0.112963
H	 0.9840965773	-0.5305022523	 2.0308329027	 0.099543
H	-1.7082738782	-0.6336386524	-1.3366738762	 0.115683
