18
gdb 93171	2.75357	1.3275	0.95509	4.1798	73.64	-0.2245	-0.0748	0.1497	1219.3701	0.147457	-439.112768	-439.104098	-439.103154	-439.146544	32.206	
C	 0.0210650618	 1.5633534459	 0.0253488464	-0.403354
C	 0.0120321338	 0.0362287824	 0.0083878913	 0.030726
C	 0.6845729726	-0.5213483193	-1.272458446	-0.310374
C	 0.812322088	-2.0335590449	-1.254342686	 0.297681
O	 0.6356140196	-2.7388409817	-2.2159472312	-0.27757
C	 1.1689580422	-2.6656596837	 0.1198927452	 0.29919
O	 1.8517504533	-3.655768629	 0.1929506731	-0.276102
C	 0.5815818183	-1.9391493585	 1.3310860691	-0.286314
N	 0.6305679996	-0.4824006217	 1.228886274	-0.284304
H	 1.0489279815	 1.9460555432	 0.0276412112	 0.115293
H	-0.4814539661	 1.9675302412	-0.8579414215	 0.12531
H	-0.4832996898	 1.9365168135	 0.9198574837	 0.132974
H	-1.0323637641	-0.3066810975	 0.0225593713	 0.095264
H	 0.169096633	-0.2214764189	-2.1905408482	 0.12573
H	 1.7060632239	-0.1123481908	-1.3207145594	 0.123457
H	-0.4713938937	-2.2449051778	 1.4254717207	 0.135286
H	 1.0991601035	-2.2809514527	 2.2313965417	 0.135902
H	 1.5932944627	-0.1615457497	 1.2907305946	 0.221205
