21
gdb 94701	3.23075	1.31075	1.13989	1.8216	77.12	-0.2564	0.0675	0.3239	1132.8876	0.184103	-424.226038	-424.217797	-424.216852	-424.258168	33.782	
O	 0.4190701833	 0.9341225628	-0.8203865609	-0.439209
C	 0.0629738376	-0.1462982887	 0.0329879028	 0.141317
C	 0.6160445393	 0.065065592	 1.4633012308	-0.229428
C	-0.1867383826	-0.6879827843	 2.5503584145	-0.280304
C	-1.6587972881	-0.8560979673	 2.1403309451	 0.440371
O	-2.4724476055	-1.31839363	 3.1877923432	-0.489944
C	-1.7319018088	-1.7092628712	 0.857917871	-0.257592
C	-1.4536040597	-0.3941171288	 0.0813947139	-0.050918
C	-2.1217687117	 0.3580936104	 1.2721464201	-0.307816
H	 0.001228083	 1.7306538414	-0.4740481529	 0.274007
H	 0.5358492042	-1.0189698237	-0.4328385166	 0.088024
H	 1.6790275196	-0.1871393719	 1.5056702523	 0.104901
H	 0.5573682201	 1.1410999649	 1.6657611051	 0.093643
H	 0.232778302	-1.6807821138	 2.7487011406	 0.108272
H	-0.1272190178	-0.1282062824	 3.4938949315	 0.082791
H	-2.2823549393	-0.7973120759	 3.9754019914	 0.27216
H	-1.023092286	-2.5368979116	 0.7524065756	 0.089022
H	-2.7493780107	-2.0723309487	 0.6945164733	 0.106004
H	-1.8883563699	-0.2822156826	-0.9130361788	 0.072961
H	-3.2103042738	 0.3608971931	 1.1811857529	 0.105552
H	-1.7777082352	 1.3636040964	 1.536029715	 0.076187
