20
gdb 110416	4.61224	1.0725	0.98733	1.0234	78.77	-0.2218	0.0663	0.2881	1260.8434	0.170782	-403.069261	-403.060938	-403.059994	-403.101916	32.817	
C	 0.0820903377	 1.5137228193	-0.0020359047	-0.382938
C	-0.0906126513	-0.0026438422	 0.1224183975	-0.18945
C	 0.7149624287	-0.5876576371	 1.2729511724	 0.053526
C	 0.8418005305	-2.1005485682	 1.3021757481	-0.1251
C	 2.1312873703	-1.9909731983	 0.5258605231	-0.124471
N	 2.2192043931	-0.5226636145	 0.996798396	-0.174641
C	 2.7907396319	-1.0292504274	 2.3091867228	-0.239397
C	 2.1931073342	-2.3859070953	 1.9773220552	 0.354504
O	 2.4006546765	-3.6163800419	 2.5603155284	-0.46011
H	 1.138459099	 1.7655510226	-0.1294294158	 0.137793
H	-0.4730972085	 1.906671886	-0.8590238301	 0.107626
H	-0.2809895941	 2.0294522503	 0.8942114585	 0.108219
H	-1.1485014816	-0.2535606045	 0.2758385148	 0.091887
H	 0.2130643842	-0.4940420825	-0.8100386931	 0.097937
H	 0.442553937	-0.0863737512	 2.2118250133	 0.064947
H	 0.089191836	-2.8782857763	 1.2467628517	 0.093167
H	 2.505356327	-2.3914489632	-0.4051780278	 0.099351
H	 3.884446395	-1.0232045192	 2.2561800441	 0.097096
H	 2.4599110801	-0.4808342037	 3.1985327138	 0.101362
H	 3.3312618743	-3.8467106626	 2.4606715618	 0.28869
