18
gdb 56337	2.49225	0.98643	0.81426	2.1492	70.75	-0.2492	0.0265	0.2758	1428.8867	0.14731	-472.437704	-472.427548	-472.426603	-472.474838	35.122	
N	-0.6628337748	 1.1412141933	-0.3313908423	-0.563476
C	-0.7370546444	-0.168230537	 0.1213440623	 0.449495
O	-0.6066962511	-0.4716584569	 1.2948525821	-0.39648
N	-0.9378804264	-1.1033684643	-0.8660659816	-0.327585
C	-0.8811747997	-2.5201928723	-0.5533575441	-0.156797
C	-2.204065314	-3.0522109045	-0.0031999888	-0.085949
O	-3.2357166974	-2.95347788	-0.9817288664	-0.180883
C	-4.0608670203	-1.8924137711	-0.90733073	 0.124138
N	-4.8526926509	-1.6377325049	-1.8579524049	-0.449299
H	-0.7426702449	 1.8156956623	 0.4139766953	 0.263016
H	-1.1672269349	 1.3880029774	-1.1694334628	 0.249791
H	-0.8817778079	-0.8271028343	-1.8313102037	 0.251918
H	-0.6267385125	-3.0617897996	-1.4681668156	 0.117449
H	-0.0982491318	-2.7000139013	 0.1909246405	 0.134898
H	-2.1054322139	-4.1131149372	 0.2455751708	 0.118362
H	-2.4720668594	-2.5011322753	 0.9051390418	 0.134216
H	-3.9715948603	-1.3370458171	 0.0363233148	 0.09204
H	-5.4300017054	-0.8346460673	-1.6173185573	 0.225145
