20
gdb 114939	3.98908	0.88255	0.79467	5.5344	87.45	-0.2045	-0.0257	0.1788	1486.0204	0.171408	-403.184308	-403.175151	-403.174206	-403.21865	33.773	
C	 0.0761140027	 1.5063973616	 0.1132000385	-0.396039
C	-0.0475751068	-0.0185831603	 0.049879062	-0.173619
C	-1.487584999	-0.532446786	-0.097989313	 0.031619
C	-1.5706474668	-2.0883386519	-0.1350071432	-0.341366
C	-2.0819851486	-2.4446611565	 1.2478437134	 0.180049
C	-2.1661964909	-3.7695563939	 1.7973062742	 0.051627
O	-1.8068256762	-4.7866338195	 1.2287591605	-0.313966
C	-2.4807982028	-1.3028975379	 1.8607036208	-0.075132
N	-2.327348327	-0.1967153417	 1.0760795914	-0.283139
H	 1.1248572264	 1.8117947701	 0.1703991916	 0.125648
H	-0.3602713675	 1.9780369982	-0.7744249519	 0.121421
H	-0.4246637373	 1.925837285	 0.9934867704	 0.106211
H	 0.5230865313	-0.3932381976	-0.8085478386	 0.109152
H	 0.3976924032	-0.4748468604	 0.9430343828	 0.109804
H	-1.9336761748	-0.0852089379	-0.9932657097	 0.086485
H	-2.2637564699	-2.434457041	-0.9101965452	 0.119283
H	-0.5999376478	-2.5429793945	-0.3543877751	 0.123014
H	-2.5934499006	-3.8125568878	 2.8271912364	 0.041229
H	-2.9156235408	-1.2059408557	 2.8488611504	 0.130792
H	-2.2710894468	 0.7209651577	 1.4884028743	 0.246925
