19
gdb 79642	2.16667	1.98266	1.61114	2.5703	72.83	-0.229	0.0526	0.2816	943.8802	0.161432	-422.989808	-422.982386	-422.981442	-423.02112	30.981	
O	 0.1070806998	 1.4213616054	 0.1414376402	-0.428112
C	-0.0367544575	 0.0376381077	 0.0387768236	 0.108057
C	-1.3586213487	-0.71070194	 0.0068184467	-0.096914
C	-2.6884935278	-0.0574756527	-0.3251285432	-0.032783
C	-2.7849760901	 1.4331680124	-0.5394980158	-0.310483
C	-2.601661668	 0.5060691514	-1.7254787041	-0.092506
C	-1.2003085965	 0.2088052678	-2.2766736114	 0.076152
O	-0.4094000915	 1.3792070806	-2.5743731768	-0.439543
C	-0.4655991621	-0.6409252993	-1.2326544351	-0.129537
H	 0.173714302	 1.7502290152	-0.7684656008	 0.296829
H	 0.7390178508	-0.4889427128	 0.5943031744	 0.092445
H	-1.4059225319	-1.6161640783	 0.6020010684	 0.082677
H	-3.5756473264	-0.5879374722	 0.0020359304	 0.085006
H	-3.7717092466	 1.8746636731	-0.4413185632	 0.103772
H	-1.9700390458	 2.0544106959	-0.2015715141	 0.147344
H	-3.4302509016	 0.4079658369	-2.4192695693	 0.082214
H	-1.3074545386	-0.3744550575	-3.2009069502	 0.080069
H	-0.9877081431	 2.0235470717	-2.9954095431	 0.289995
H	 0.1077332736	-1.4857206254	-1.5984871467	 0.085317
