23
gdb 59297	2.59106	1.28959	0.97627	1.3455	86.93	-0.2443	0.0181	0.2624	1307.5206	0.20546	-388.307536	-388.297928	-388.296984	-388.341607	37.247	
C	 0.0457833088	 1.5632393109	 0.0315972492	-0.39698
C	 0.0730924077	 0.0278283849	 0.0565846199	 0.041432
C	 0.7611615631	-0.4734547278	 1.3345122291	-0.396518
C	-1.3459634875	-0.5618590579	-0.0815542549	-0.034287
C	-2.0946198707	-0.2369628741	-1.3626621293	-0.083625
C	-2.8517812725	-1.2561799219	-1.7711104554	-0.095123
C	-2.7384643396	-2.435592264	-0.8331043027	-0.280406
C	-1.4368684177	-2.1206620969	-0.056890597	 0.095728
O	-0.3153237831	-2.739757433	-0.6768965262	-0.430362
H	 1.0584265373	 1.9682905305	 0.1291073977	 0.110173
H	-0.3772984623	 1.9587614894	-0.8965372449	 0.110155
H	-0.5490087623	 1.9591235994	 0.863786276	 0.110494
H	 0.6674599562	-0.316457981	-0.7993980731	 0.06543
H	 0.1787339788	-0.2048826793	 2.2247298587	 0.103448
H	 0.8849413128	-1.5583686973	 1.3160365671	 0.134948
H	 1.7532411008	-0.0225581088	 1.4431865555	 0.10405
H	-1.9363932656	-0.1812367744	 0.7697941879	 0.07607
H	-2.0400541766	 0.7288257474	-1.8515238387	 0.094444
H	-3.5044330052	-1.2461490497	-2.6371192217	 0.092451
H	-3.6060052481	-2.4840066226	-0.1593996774	 0.107214
H	-2.6666459102	-3.4083840013	-1.3308203565	 0.107174
H	-1.4492739526	-2.5176714252	 0.9605876667	 0.083835
H	-0.2957052715	-2.4404630775	-1.5934664702	 0.280255
