24
gdb 76415	2.51473	1.16721	1.15121	1.3229	89.89	-0.2123	0.0817	0.2939	1298.9833	0.215499	-368.375691	-368.365211	-368.364267	-368.410682	39.316	
C	 0.8029918979	 1.2138344551	-0.414768768	-0.422421
C	 0.633591351	-0.2275417796	 0.0160566509	-0.028184
N	 1.7469724288	-1.178774428	 0.1257931931	-0.132426
C	 3.1138634337	-0.7675528436	-0.1499794519	-0.317166
C	 1.0530936301	-0.7702073919	 1.3524384878	 0.28179
C	 1.7273356788	 0.1165569233	 2.3851109006	-0.46486
C	 0.226552681	-1.861685916	 1.9904489045	-0.034507
C	-0.1523664112	-3.1057571731	 1.2352346594	-0.272469
C	 0.8630485664	-3.1840547584	 2.3476155182	-0.267513
H	 1.6372422985	 1.723449928	 0.0699792636	 0.117917
H	 0.9579628401	 1.2767389825	-1.4979778846	 0.122067
H	-0.1072140729	 1.7771484097	-0.1823994449	 0.122571
H	-0.2505004816	-0.6910898978	-0.4238399061	 0.081681
H	 3.3726784419	 0.2652388965	 0.1220816371	 0.098034
H	 3.7986622054	-1.4342464829	 0.3841570053	 0.121849
H	 3.3052416321	-0.8861370363	-1.2217822341	 0.121343
H	 2.3164735722	 0.9260751783	 1.9526569157	 0.114183
H	 0.9727188717	 0.5697683689	 3.0374337468	 0.118625
H	 2.3898344349	-0.4810890128	 3.0209627651	 0.12339
H	-0.5105767538	-1.4846333481	 2.696065577	 0.07462
H	-1.1380962076	-3.526107846	 1.4019882113	 0.09973
H	 0.2282954877	-3.1955767225	 0.2245219215	 0.12736
H	 1.8973949718	-3.3303825045	 2.0545001885	 0.111079
H	 0.585353703	-3.6613920509	 3.2809426832	 0.103308
