21
gdb 102129	2.25432	1.14286	0.81045	2.2747	86.09	-0.2374	-0.0091	0.2284	1480.6997	0.180612	-420.449692	-420.439082	-420.438138	-420.48548	37.665	
C	-0.0698503324	 1.6013997031	 0.0180873186	-0.380035
C	-0.0393804514	 0.0716598824	-0.005591361	-0.152779
N	 0.6405957814	-0.4728136693	-1.1867372123	-0.135762
C	 2.0322267305	-0.5769833834	-1.1503665816	 0.112008
N	 2.7013703569	-0.2150749859	-0.1367416734	-0.250664
C	 4.1391397236	-0.3836637452	-0.1991414733	-0.315168
C	-0.015085224	-0.8631381884	-2.3565436543	 0.411716
C	-1.5286495441	-0.7430737117	-2.3720722962	-0.510853
O	 0.594198539	-1.2889089313	-3.3180295297	-0.350299
H	 0.9480938128	 1.9967077204	 0.0208298317	 0.147082
H	-0.599794692	 2.0083714674	-0.8490205635	 0.116345
H	-0.5777606149	 1.9515076349	 0.9222312168	 0.119053
H	 0.5085492561	-0.2946496598	 0.8648333588	 0.140929
H	-1.048628159	-0.339198416	 0.0372327424	 0.110429
H	 2.4443216875	-0.9944783034	-2.0710766395	 0.138654
H	 4.4956483537	-0.8188358888	-1.1458657826	 0.103306
H	 4.630235842	 0.5862432039	-0.0572133386	 0.125586
H	 4.4699484835	-1.0281923196	 0.6237012418	 0.126178
H	-1.8700673843	 0.2611847253	-2.1066507783	 0.14398
H	-1.8613395569	-0.9858062891	-3.3805838888	 0.151387
H	-1.9875690781	-1.4471242856	-1.6700366369	 0.148908
