18
gdb 37792	2.54899	2.20229	1.72018	2.3796	74.36	-0.2275	0.0232	0.2507	864.4862	0.152331	-401.962556	-401.95624	-401.955296	-401.992955	26.536	
C	-0.0410077421	 1.6175079223	 0.0651735175	-0.244235
C	 1.3952938568	 2.1096852307	 0.0095552901	-0.074953
C	 2.3038793115	 0.9508325463	 0.3643223413	-0.074955
C	 1.4337969882	-0.2635362008	 0.6410273402	-0.244237
C	 0.0640155875	 0.0792818165	 0.0202505707	 0.08189
O	-0.0564562686	-0.4264416686	-1.3231615331	-0.233913
C	 0.8387753763	-0.009911529	-2.2551010142	 0.109303
N	 1.8218391543	 0.7784508025	-2.1976944468	-0.264927
C	 2.2853633353	 1.4917865835	-1.0547924011	 0.020081
H	-0.5057325668	 1.931264416	 1.0073054564	 0.105356
H	-0.6713281483	 1.9845563771	-0.7504018025	 0.118895
H	 1.6153241433	 3.1201882615	 0.3367872778	 0.084005
H	 3.2011061214	 1.0975984691	 0.9559759093	 0.084005
H	 1.8231265437	-1.1969988023	 0.2235805883	 0.118896
H	 1.3267502533	-0.4059939643	 1.7228184751	 0.105356
H	-0.7608661186	-0.4077225682	 0.5420117766	 0.094325
H	 0.5953480524	-0.4905265845	-3.2019864602	 0.119825
H	 3.1525859704	 2.0954679922	-1.3039475355	 0.095282
