23
gdb 80980	2.37021	1.74613	1.29932	0.2006	90.03	-0.2278	0.0253	0.2531	1106.2613	0.207149	-351.164302	-351.155894	-351.15495	-351.196294	34.819	
C	-0.1099593552	 1.5261219961	-0.0699931049	-0.430132
C	 0.0108147794	 0.0079154742	 0.0026122456	 0.014887
C	 1.176657794	-0.596578017	-0.8431119851	-0.026107
C	 2.0803133919	-0.4426928716	 0.4132066794	-0.261868
C	 0.769774625	-0.5872983607	 1.2522255452	 0.308757
C	 0.6659185226	 0.0836080928	 2.609942288	-0.503399
C	 0.4391255339	-2.0718955581	 1.2861002376	-0.088388
C	 0.5080352814	-2.7795696735	 0.1585115325	-0.080032
C	 0.9082854912	-2.0848975099	-1.1237894578	-0.266625
H	 0.8469536399	 2.0339275433	 0.087384121	 0.113914
H	-0.4816995463	 1.8289514733	-1.0556330771	 0.111816
H	-0.8138073883	 1.9069022459	 0.6779375925	 0.113794
H	-0.9718766247	-0.4429507134	-0.1734929818	 0.059291
H	 1.4677020208	-0.0600345311	-1.7507393144	 0.052906
H	 2.8626468035	-1.1879025078	 0.5799073109	 0.088808
H	 2.5122445864	 0.5584069519	 0.4878981808	 0.090799
H	 0.9036696283	 1.1500243576	 2.5532274671	 0.111576
H	-0.3442069313	-0.0141843507	 3.0258500609	 0.11245
H	 1.3609502823	-0.3740457928	 3.3239594592	 0.113981
H	 0.1550592373	-2.5229230267	 2.2334621058	 0.078106
H	 0.2852910494	-3.842538127	 0.1321638482	 0.083456
H	 0.1160590191	-2.1932828806	-1.8786955025	 0.101276
H	 1.7997625191	-2.5627262742	-1.5551938713	 0.100736
