17
gdb 7293	4.33725	1.11057	1.00041	3.7971	69.06	-0.2613	-0.0301	0.2312	1180.1225	0.139627	-363.907728	-363.89835	-363.897405	-363.942627	32.142	
C	-0.0109715632	 1.5147060665	-0.1232055514	-0.408683
C	-0.007359445	-0.0222568506	 0.0041631784	-0.089806
C	 0.7491161775	-0.4912549194	 1.2660671198	-0.339045
C	 2.151316315	-0.085090224	 1.2584926742	 0.258308
N	 3.2593069254	 0.2431024919	 1.2319241664	-0.314086
C	-1.4499616416	-0.5389049532	 0.0579036313	 0.38414
C	-2.1750244381	-0.6754932127	-1.2663819656	-0.482753
O	-1.9744676786	-0.8214433074	 1.1108017217	-0.30057
H	 1.0139200013	 1.8937119649	-0.1520029422	 0.155895
H	-0.5158281091	 1.8405047581	-1.0363697351	 0.127077
H	-0.5226263254	 1.9702987079	 0.7307660356	 0.137584
H	 0.4799730971	-0.4403936994	-0.8848160537	 0.103919
H	 0.255107167	-0.0908175253	 2.1564279183	 0.169737
H	 0.698291183	-1.5813078316	 1.3540419487	 0.156728
H	-1.7470133202	-1.5177012021	-1.8238340417	 0.14955
H	-3.2346382814	-0.8646434404	-1.0919463599	 0.149764
H	-2.0478898239	 0.2139259768	-1.8908737149	 0.142244
