21
gdb 101882	5.92511	0.51461	0.49028	1.9263	81.64	-0.2575	0.0501	0.3076	2184.8181	0.179691	-424.189722	-424.178892	-424.177948	-424.22655	38.938	
O	 0.1289801405	 1.4133888645	-0.1274229075	-0.424513
C	 0.1148343857	 0.0109619293	 0.0177942614	-0.060439
C	-1.3196863875	-0.5206946687	 0.074546211	 0.089783
O	-2.0448599372	-0.0092749268	-1.0527533387	-0.437324
C	-1.3954346752	-2.044130562	 0.1701422536	-0.215982
C	-2.826401732	-2.5739252891	 0.3034477218	-0.171361
C	-2.8820783636	-4.1139854238	 0.346673585	-0.358711
C	-4.2385958761	-4.6314433186	 0.4775049759	 0.291534
C	-5.3664864666	-5.0324094877	 0.5861963838	-0.432745
H	-0.5879729187	 1.611316774	-0.7445700281	 0.284539
H	 0.6488674268	-0.4877464901	-0.8135414694	 0.069276
H	 0.6511856997	-0.2331565679	 0.9415712123	 0.106746
H	-1.8193163667	-0.0675267564	 0.9394108235	 0.099613
H	-1.7132649115	-0.4578602073	-1.8404871407	 0.281716
H	-0.9166230603	-2.48096052	-0.7199609093	 0.088407
H	-0.7930585607	-2.3714337437	 1.0281397677	 0.104729
H	-3.2854864122	-2.1744126975	 1.2150269136	 0.113196
H	-3.432569433	-2.2093964785	-0.5311540545	 0.121261
H	-2.4223124787	-4.5225871927	-0.563372033	 0.126959
H	-2.2702325824	-4.4797420825	 1.1822188517	 0.128979
H	-6.3589444904	-5.3968934745	 0.68259572	 0.194337
