20
gdb 93140	2.27311	1.85465	1.33437	2.7112	79.28	-0.2341	0.0288	0.2628	1031.1363	0.173924	-403.1303	-403.122599	-403.121655	-403.162059	31.466	
O	 0.2114547246	 1.410596586	 0.1274883254	-0.440383
C	 0.0513580223	 0.0119774979	-0.0061811107	 0.107107
C	 0.7724608056	-0.6921952385	 1.1474183799	-0.259687
C	 0.2397746542	-0.5146258126	 2.5494094502	-0.020006
C	-0.8570640373	 0.0981077022	 2.9998012647	-0.065157
C	-1.903158101	 0.8340168728	 2.1913935671	-0.264738
C	-2.3741450754	 0.0557715048	 0.9729611849	-0.003792
N	-2.354565669	 0.7322476417	-0.3434470319	-0.368106
C	-1.4227329177	-0.3778039029	-0.0742530371	-0.045259
H	-0.5761169025	 1.7984559039	-0.2859201506	 0.290435
H	 0.5277301898	-0.3235673766	-0.9444333529	 0.060146
H	 0.8102310355	-1.7688807246	 0.9203585506	 0.100627
H	 1.8201260845	-0.3619604113	 1.1326913348	 0.117663
H	 0.8811929891	-0.9754623912	 3.3004075413	 0.081603
H	-1.0117041163	 0.1007132884	 4.0766736305	 0.080957
H	-2.7642713112	 1.0649112717	 2.8277247662	 0.090849
H	-1.491472606	 1.7909864967	 1.8570975261	 0.132911
H	-3.2121495804	-0.6144474092	 1.1545741294	 0.086543
H	-3.128126894	 0.4339616979	-0.9294472927	 0.236047
H	-1.613835835	-1.3329569071	-0.5592511651	 0.082239
