14
gdb 18207	4.45911	1.73574	1.4265	5.7085	61.33	-0.2492	0.024	0.2732	847.2622	0.108777	-378.70299	-378.696377	-378.695433	-378.733926	24.689	
N	-0.0277762697	-1.1260849548	-0.2552860601	-0.320007
C	-0.0080383448	 0.0241312266	-0.1530460663	 0.301209
C	 0.0029167344	 1.4928558687	-0.0734472633	-0.154475
N	-0.6230009547	 1.9645668098	 1.164825162	-0.302946
C	-0.0380173641	 3.2567874267	 1.5410044301	-0.195535
C	 1.3616346212	 3.187133559	 0.9681791407	 0.048166
O	 2.0421130146	 1.9581758683	 1.2457893264	-0.227817
C	 1.4032474633	 2.1028713111	-0.0154373588	 0.042797
H	-0.469076216	 1.8712746124	-0.9982847959	 0.111567
H	-1.6325541217	 1.9682857314	 1.1192710898	 0.239511
H	-0.5448438955	 4.1317725995	 1.0995692818	 0.097778
H	-0.0482341321	 3.3727752617	 2.6304847695	 0.128419
H	 1.9817326601	 4.0761755006	 0.9062260804	 0.111473
H	 2.0360010751	 2.0796265289	-0.8969806764	 0.11986
