17
gdb 91555	2.79668	1.40897	1.19592	1.2212	68.13	-0.2536	0.0582	0.3118	1075.0906	0.134903	-458.893939	-458.885923	-458.884979	-458.926903	30.262	
O	 0.0570381711	 1.4235961267	-0.1072119055	-0.436522
C	 0.0986214063	 0.0281009878	 0.002974312	 0.068287
C	 0.3221806551	-0.6245364926	 1.4241992722	-0.292117
C	-1.0477873647	-1.2866180747	 1.2731917363	-0.059034
O	-2.000656594	-0.2231697199	 1.077117918	-0.3101
C	-1.2590031233	-0.6980624377	-0.0627445479	 0.425956
C	-2.0216715505	-1.1217772038	-1.2569429779	-0.081557
C	-1.9646042226	-0.3235166407	-2.4912799516	-0.184551
O	-1.2263952848	-1.5420452846	-2.3680414378	-0.234125
H	-0.6623507355	 1.7158584073	 0.4676626151	 0.288503
H	 0.8079081397	-0.3405073143	-0.7400206685	 0.114603
H	 1.1576215134	-1.3280475749	 1.4379167688	 0.115542
H	 0.4118292691	 0.0757599576	 2.2580665562	 0.111858
H	-1.4258209632	-2.2107764694	 1.6941294963	 0.113683
H	-2.9054839324	-1.7275478593	-1.0581975604	 0.101263
H	-2.802221902	-0.3534382472	-3.1857536015	 0.121466
H	-1.3669906819	 0.5859327397	-2.5023044839	 0.136845
