20
gdb 117487	2.35334	1.06321	0.77234	3.8174	81.49	-0.2247	-0.0185	0.2062	1518.2171	0.169709	-436.500188	-436.48946	-436.488516	-436.536574	38.	
C	-0.1426960976	 1.5360734003	 0.0690692303	-0.405146
C	-0.0809759987	 0.0127173598	 0.0380990722	-0.092324
N	-1.4250621968	-0.5550681421	 0.0477316279	-0.350871
C	-1.5758589247	-1.9391199691	 0.0233668128	 0.285564
N	-0.5694489415	-2.6893712282	-0.1735778959	-0.296439
C	-0.6748132998	-4.126149878	-0.3347348908	-0.318173
C	-3.0262148858	-2.3933560745	 0.1887559865	 0.321395
N	-3.9453065838	-1.5112707253	-0.3148196022	-0.524599
O	-3.3361686256	-3.4305055618	 0.7393152968	-0.350411
H	 0.865824544	 1.9577398276	 0.044651977	 0.126491
H	-0.6986537036	 1.9267681652	-0.7889638763	 0.121857
H	-0.6287744822	 1.8987726796	 0.9826750248	 0.114743
H	 0.420848156	-0.3405742443	-0.866759669	 0.128313
H	 0.5121537299	-0.3719223937	 0.880301531	 0.109386
H	-2.0719486432	-0.081276165	 0.6641701566	 0.238096
H	-0.3141599207	-4.6174427775	 0.5774746272	 0.126891
H	-1.6821995454	-4.5029176015	-0.5346909948	 0.127545
H	-0.003319469	-4.4330860432	-1.1447745648	 0.110601
H	-3.6481040985	-0.7840151296	-0.9443335931	 0.264817
H	-4.9061519429	-1.8158409488	-0.3433556961	 0.262263
