21
gdb 78033	2.50345	1.47202	1.31188	1.2033	77.72	-0.2318	0.077	0.3088	1114.6957	0.181931	-424.217965	-424.208727	-424.207783	-424.251432	35.29	
C	-0.0010370662	 1.5729745239	-0.0605841883	-0.408194
C	 0.018083582	 0.0443238594	 0.0416620158	 0.002809
C	 0.7177465846	-0.6426425476	-1.1573156708	-0.104639
O	 1.5041770587	-1.735064971	-0.6559658304	-0.313037
C	 1.571853474	-1.6910738141	 0.7570888274	 0.364294
C	 1.6584289997	-3.0548799192	 1.3791952533	-0.467737
C	 2.285458382	-0.4695473633	 1.2786062628	 0.047605
O	 3.0122930231	 0.3325957748	 0.3940075794	-0.431049
C	 0.7607728265	-0.5193081162	 1.2451242777	-0.17654
H	 1.0188435384	 1.9644839922	-0.0855527492	 0.144436
H	-0.5244841603	 1.9010010145	-0.9656785611	 0.108553
H	-0.5180727757	 2.0149952629	 0.797029631	 0.112217
H	-1.015636768	-0.3180243766	 0.1036696883	 0.07657
H	 0.00796068	-1.0467625304	-1.8873546425	 0.104312
H	 1.3717319654	 0.0693609798	-1.6741097011	 0.098127
H	 2.525529596	-3.6027666291	 0.9952023059	 0.126982
H	 1.7607012685	-2.9742792087	 2.4649472365	 0.11872
H	 0.7609576014	-3.6417863204	 1.1576579899	 0.122979
H	 2.7361530042	-0.5323295449	 2.2679016908	 0.091562
H	 3.2776689417	-0.2378361386	-0.3381797925	 0.296578
H	 0.2414585741	-0.5550371374	 2.1972424371	 0.085453
