18
gdb 67296	3.08873	1.59034	1.30445	1.7466	75.82	-0.2288	0.0782	0.307	1011.3283	0.14705	-401.822321	-401.814788	-401.813844	-401.853984	30.107	
C	-0.0505221231	 1.4883191354	 0.0066894807	-0.534807
C	-0.0759518234	-0.0090293209	-0.0268402725	 0.209457
C	 0.8747132279	-0.9778833272	-0.8201530897	 0.062422
O	 1.9161922851	-0.9857109675	 0.2005415198	-0.340053
C	 0.6637011641	-1.005054584	 0.9446294053	 0.060253
C	-0.071296731	-1.958556026	-0.0547763969	-0.237411
C	-1.2384530849	-0.98803562	-0.1826152966	 0.352856
N	-2.5127423832	-0.9366766698	 0.5116667833	-0.386115
C	-2.4747987466	-0.9994395871	-0.978409167	-0.329714
H	 0.9714611572	 1.8440998633	 0.1721787432	 0.136121
H	-0.4120064619	 1.9127478033	-0.9361623917	 0.12248
H	-0.6870222698	 1.8689737153	 0.8117377927	 0.136554
H	 1.164526963	-0.9689925127	-1.8705900799	 0.098139
H	 0.6965602203	-1.0240527781	 2.0335531596	 0.101866
H	-0.0409551613	-3.0475163302	-0.0705301599	 0.085045
H	-2.7565672275	-1.8498718666	 0.8891086242	 0.229951
H	-2.8280419514	-0.0997518157	-1.4756861011	 0.119884
H	-2.7691768335	-1.9267651614	-1.4643948239	 0.113072
