21
gdb 117814	1.91989	1.22528	0.94386	2.3656	76.14	-0.2406	-0.0234	0.2172	1382.4382	0.178416	-461.362717	-461.351666	-461.350722	-461.399426	38.682	
C	 0.6146949033	-0.6103089498	 1.3952713892	-0.400579
C	 0.1000668209	 0.0348050337	 0.1047736868	-0.206102
C	 0.8276405889	-0.4280445196	-1.1738595975	 0.255357
O	 2.2142180885	-0.1805384321	-1.0104475376	-0.472827
C	 0.5821275969	-1.90125652	-1.5069173927	-0.106592
O	 1.4850337624	-2.2206205842	-2.5527588958	-0.262825
C	 1.4186508367	-3.5686470524	-2.9625885823	-0.230886
C	 0.3004400735	 0.4450762057	-2.3252372495	 0.133872
O	-0.7366704666	 0.2594377132	-2.9056474497	-0.262944
H	 0.3935870169	-1.6811497272	 1.4377190823	 0.115715
H	 1.6960556206	-0.4824738597	 1.4807730396	 0.141711
H	 0.1412340652	-0.1437682592	 2.264173707	 0.115379
H	-0.9719172742	-0.1464809704	-0.0302078845	 0.115276
H	 0.2253748297	 1.122423216	 0.1760328955	 0.110626
H	 2.6603173452	-0.7561786657	-1.6462244307	 0.292613
H	 0.7736148841	-2.5412041436	-0.6340146348	 0.094574
H	-0.4584832513	-2.0360110355	-1.8321368423	 0.118165
H	 1.6486362913	-4.2548418628	-2.1333496719	 0.11063
H	 0.4230959139	-3.8196272118	-3.3560669853	 0.118738
H	 2.1587083084	-3.7058303936	-3.7542004162	 0.132995
H	 0.9716945458	 1.3032926291	-2.5553840397	 0.087103
