25
gdb 118090	2.76652	0.87469	0.77879	1.6945	89.14	-0.257	0.0849	0.3419	1643.2092	0.226567	-389.484934	-389.473893	-389.472948	-389.5216	40.691	
C	-0.1579290422	 1.61109549	 0.3317842003	-0.380671
C	-0.056363538	 0.1092006927	 0.0477468414	-0.177627
C	-1.3955480389	-0.6150728516	 0.2318225263	-0.154983
C	-1.3833774137	-2.1196806273	-0.1249762359	-0.047032
C	-0.4922011624	-2.9187698775	 0.8346939702	-0.417714
C	-2.8252783645	-2.6411236726	-0.1900894527	 0.413296
C	-3.6193835775	-2.2345873075	-1.4171146205	-0.463035
C	-3.2630468567	-3.8518480966	 0.5261735063	-0.229635
O	-3.5571628008	-2.5533135278	 1.0468996259	-0.280677
H	 0.8076409964	 2.1091706183	 0.1988671832	 0.10973
H	-0.877436573	 2.0941868733	-0.3387611081	 0.112837
H	-0.4902665785	 1.7969287678	 1.3591424805	 0.116132
H	 0.3023801358	-0.0453249934	-0.9791424748	 0.09082
H	 0.7053106405	-0.326458119	 0.7046986398	 0.09907
H	-1.7380994005	-0.5095468821	 1.2689076645	 0.109557
H	-2.1448533502	-0.1021678636	-0.3833546354	 0.091215
H	-0.9709672147	-2.2221488154	-1.1393266964	 0.067667
H	-0.3955264481	-3.9620773896	 0.5204591626	 0.111028
H	 0.5154224083	-2.4982117787	 0.8762310564	 0.115145
H	-0.9051225855	-2.900214466	 1.8489427294	 0.130648
H	-3.1887462726	-2.6847282684	-2.3183525046	 0.118991
H	-4.6564203782	-2.5662660201	-1.3246036535	 0.125508
H	-3.6248993044	-1.1495138841	-1.5559090867	 0.126919
H	-4.1218017759	-4.4067696654	 0.1476319592	 0.102546
H	-2.5638639545	-4.4415886952	 1.1128340927	 0.110264
