16
gdb 33912	4.02199	1.29916	1.17522	4.293	75.	-0.2313	0.0053	0.2366	1048.3623	0.126396	-396.851761	-396.844665	-396.84372	-396.883244	28.005	
N	 0.0687381012	-1.1633497022	-0.0919925972	-0.346952
C	 0.0633463324	-0.006947768	-0.0202380023	 0.154626
C	 0.0403211744	 1.4092549165	 0.1059280407	 0.283965
N	 0.2328600017	 2.3010623965	-1.0679050317	-0.34838
C	 1.1766790229	 2.4039197166	 0.0470698891	-0.124551
C	 0.5256091523	 3.2637997445	 1.1532373434	-0.04227
C	-0.5447093277	 4.3211258949	 0.7489490219	-0.179507
N	-1.6070676398	 3.2690846447	 0.7569651024	-0.29607
C	-0.6510825151	 2.2567305782	 1.2287950759	-0.097003
H	 0.6681527642	 1.7456301933	-1.804000766	 0.251016
H	 2.2329223419	 2.208728169	-0.0910064806	 0.118245
H	 1.1587063364	 3.4686959307	 2.0143245492	 0.089832
H	-0.6756124273	 5.098446574	 1.5095572891	 0.099765
H	-0.4146847537	 4.7864370836	-0.2313091497	 0.123277
H	-2.3630983963	 3.4464941578	 1.4060465688	 0.225256
H	-0.8907642075	 1.6871761099	 2.1276182669	 0.088751
