17
gdb 112369	2.27813	1.46999	0.94132	1.0607	71.85	-0.2633	-0.0111	0.2522	1228.9726	0.136567	-455.210729	-455.202204	-455.20126	-455.244422	31.278	
C	 0.0382005206	 1.5653938559	 0.0450233042	-0.396043
C	-0.018315714	 0.0379472551	-0.0190860727	-0.182389
C	 0.709941618	-0.5304627605	-1.2337585724	-0.032449
O	 2.1179366943	-0.240505413	-1.1874587081	-0.230756
C	 2.8502845144	-1.3806973563	-1.2385823089	 0.485434
N	 4.1099823297	-1.3558647769	-1.2133667355	-0.551631
N	 1.9534684338	-2.4539144936	-1.3170741137	-0.40551
C	 0.6350517179	-2.0540718413	-1.3145566116	 0.421333
O	-0.3464154638	-2.7513456718	-1.3549262516	-0.359949
H	 1.0731434571	 1.9155062931	 0.0858645879	 0.143992
H	-0.4364895187	 2.0155662205	-0.83364277	 0.119951
H	-0.4822981022	 1.934698195	 0.9329417827	 0.121714
H	 0.4202277607	-0.399073535	 0.8858332213	 0.112534
H	-1.053412227	-0.3166993305	-0.0752233631	 0.130314
H	 0.304109063	-0.0980458406	-2.1573072489	 0.127278
H	 4.5066494099	-2.290679237	-1.2592547463	 0.222196
H	 2.2402282063	-3.4189703231	-1.3514601831	 0.273979
