23
gdb 87999	2.6435	1.29944	1.11785	0.163	90.35	-0.2387	0.0887	0.3275	1246.9579	0.205251	-351.121437	-351.112254	-351.111309	-351.155605	35.881	
C	-0.0820809242	 1.3444187069	-0.2573088312	-0.405238
C	 0.2034168304	-0.13020351	-0.0779013009	-0.061487
C	 1.624642352	-0.6365316501	 0.0386515293	-0.352629
C	 0.7071622	-0.6668644815	 1.2311774498	 0.308394
C	 0.9250251435	 0.0920469291	 2.5526139863	-0.308423
C	 0.6611706137	-1.2376430542	 3.3270188037	-0.308859
C	 0.2515399629	-1.898950959	 2.0008328052	 0.319403
C	-0.9996890072	-2.6974518284	 1.7681804721	-0.323216
C	 0.3599071895	-3.3439916579	 1.6196092263	-0.329309
H	 0.6279198024	 1.9551577025	 0.3097368521	 0.115352
H	-0.0045422554	 1.6389390182	-1.3098991563	 0.115193
H	-1.0898568808	 1.6032109232	 0.0874013623	 0.114766
H	-0.4784377927	-0.7864554886	-0.6165037597	 0.076402
H	 1.8819190788	-1.5764695992	-0.440529527	 0.105363
H	 2.42675843	 0.0968604719	 0.0384792727	 0.10331
H	 1.9138401837	 0.5354602031	 2.6945592732	 0.097618
H	 0.1696832768	 0.859618604	 2.7457245049	 0.101377
H	 1.567227438	-1.6667025662	 3.764681593	 0.10124
H	-0.1117740913	-1.1938468045	 4.0988923654	 0.097577
H	-1.6038306715	-2.9616918575	 2.6308111603	 0.107352
H	-1.5729509086	-2.5047229661	 0.8664134393	 0.10926
H	 0.7000746405	-3.5885898062	 0.617488112	 0.107713
H	 0.6812804196	-4.0499148696	 2.3794397973	 0.108842
