21
gdb 99408	2.09283	1.38657	1.08057	2.4506	82.99	-0.2248	0.0392	0.264	1263.6898	0.180226	-420.381867	-420.371289	-420.370345	-420.418127	36.93	
C	-1.511609051	-0.915713144	 0.2765355985	-0.238136
O	-0.3662796195	-0.2313511405	 0.7802801847	-0.254311
C	 0.8607417739	-0.8067238489	 0.6772554067	 0.452699
N	 1.9306135508	-0.1669113385	 0.9002710212	-0.316217
C	 1.8409330506	 1.254117276	 1.193928396	-0.315617
N	 0.8409803818	-2.1446736621	 0.2577071225	-0.162221
C	 2.0144778078	-2.9686374708	 0.4951089322	-0.240368
C	 0.7602887217	-3.2364023381	 1.2555365772	 0.004763
C	 0.6755121872	-2.9367831666	 2.7334632048	-0.416236
H	-1.7616359893	-1.7908415213	 0.8854581336	 0.122671
H	-2.3303733386	-0.195689755	 0.3328617416	 0.130558
H	-1.363636283	-1.2353406932	-0.7578845868	 0.139906
H	 2.8161627905	 1.7163105865	 1.0163738969	 0.112307
H	 1.0877215727	 1.771678054	 0.5863714979	 0.114223
H	 1.5804980722	 1.4267319943	 2.2471376633	 0.114577
H	 2.2990800457	-3.6102751034	-0.3339827417	 0.117032
H	 2.8338474151	-2.4917251476	 1.0245383845	 0.144196
H	 0.1299702189	-4.0573622911	 0.9175836403	 0.093679
H	 1.3218921691	-2.0977553662	 3.00267575	 0.146978
H	-0.3493846191	-2.693758856	 3.0345791185	 0.124304
H	 0.9917180526	-3.8126349272	 3.3095209879	 0.125213
