27
gdb 117719	3.29988	0.684	0.65122	1.1702	93.18	-0.2583	0.0644	0.3227	1948.5767	0.249012	-390.711068	-390.69892	-390.697976	-390.748596	44.514	
C	 0.2188794925	 1.6392811343	 0.0025042092	-0.382357
C	 0.0307232059	 0.1193776362	-0.0210615602	-0.175426
C	 0.5591951874	-0.5589405711	 1.2482523508	-0.192364
C	 0.6172171115	-2.1036075379	 1.2094043584	 0.329909
C	-0.7649759691	-2.7181988914	 0.9703932926	-0.402698
O	 1.4119633143	-2.5317807534	 0.0917120763	-0.457485
C	 1.2505237302	-2.6104645039	 2.5257843581	-0.192353
C	 1.4619776115	-4.1258752019	 2.6224116957	-0.175418
C	 2.296989884	-4.5265104166	 3.8423782726	-0.382353
H	 1.2783747975	 1.9069798244	 0.0866150033	 0.109705
H	-0.1693579008	 2.1028706133	-0.9098704358	 0.110673
H	-0.3021149374	 2.093176568	 0.8533189965	 0.111352
H	-1.0337635562	-0.1073762158	-0.1508159732	 0.096699
H	 0.5445705199	-0.3093663471	-0.8883891499	 0.106765
H	 1.5791470098	-0.1935420966	 1.4439049414	 0.075867
H	-0.0381939954	-0.2459763385	 2.1149011175	 0.090595
H	-1.1828662531	-2.3689458333	 0.0238407608	 0.123231
H	-0.6984963913	-3.8070632568	 0.9201085268	 0.123212
H	-1.4540621623	-2.4479237589	 1.7765046218	 0.107928
H	 2.2953184708	-2.1634067927	 0.204939466	 0.272878
H	 2.2252951034	-2.1112877793	 2.6386438018	 0.075871
H	 0.6414170855	-2.2640617746	 3.3713017476	 0.090593
H	 0.4932367405	-4.6365633001	 2.6685959425	 0.096696
H	 1.9486500497	-4.4719313489	 1.7039821858	 0.106753
H	 2.4312625237	-5.6115704079	 3.8942040698	 0.110672
H	 3.2926178619	-4.0694343759	 3.8095777988	 0.109703
H	 1.8200422954	-4.2058750037	 4.7756802454	 0.111352
