19
gdb 68240	2.75026	1.86723	1.64178	2.2895	73.28	-0.24	0.076	0.3159	909.0213	0.162114	-422.966718	-422.960151	-422.959207	-422.997098	28.882	
O	-0.1482021764	 1.3958040314	 0.0093784871	-0.495707
C	 0.0493185741	 0.0122721579	-0.0017060351	 0.397867
C	 0.9903514054	-0.6874571706	-1.0257628587	-0.290365
C	 0.9062572994	-1.8637520462	-0.0045109105	-0.062475
C	 0.8650321487	-0.7500498635	 1.0918350522	-0.257275
C	-0.5468789452	-2.4868125175	-0.0529382112	 0.077616
C	-1.4118022142	-1.7979179001	-1.1375533689	-0.229673
C	-1.3678026142	-0.69447515	-0.0546892563	 0.044222
O	-1.3583062124	-1.7703507056	 0.9324208677	-0.282782
H	 0.7146867113	 1.8232053138	 0.0165350718	 0.276092
H	 0.6844855194	-0.8215216955	-2.0620100451	 0.096881
H	 1.9878920904	-0.2361139696	-1.0113613538	 0.083341
H	 1.6983807444	-2.6114845901	 0.0129656836	 0.068468
H	 1.8529369871	-0.3017430929	 1.2319256884	 0.078046
H	 0.3940992747	-0.9651113191	 2.0464793651	 0.119658
H	-0.5715754158	-3.5684022813	 0.0906466512	 0.077974
H	-1.0423551692	-1.6288516514	-2.1470471262	 0.09972
H	-2.403702086	-2.2499543425	-1.1705114937	 0.109572
H	-2.1783904314	 0.0216348829	 0.0853440322	 0.088819
