19
gdb 62571	2.40819	1.47512	1.17503	2.8011	77.48	-0.2349	-0.0071	0.2278	1124.0282	0.156503	-423.023119	-423.013939	-423.012995	-423.056325	35.371	
C	-0.0233707765	 1.564525643	 0.0241496671	-0.467158
C	 0.0594203352	 0.0544285727	 0.0906329875	 0.362097
O	-1.0971255715	-0.570944153	-0.4017970235	-0.464019
C	 1.3381669777	-0.7436881361	-0.2572361057	-0.298342
C	 2.5443232503	-0.092210551	 0.3233677841	 0.419232
O	 3.6473701197	 0.1384492511	-0.0906992043	-0.328634
C	 1.9182186222	-0.0172290475	 1.7412137722	-0.430479
C	 0.6828999437	-0.7442885108	 1.1777035407	 0.283588
C	-0.0077855673	-1.8702643576	 1.8918651315	-0.493448
H	 0.879195257	 2.0534700251	 0.3944115292	 0.137318
H	-0.1621841264	 1.8863455455	-1.0152046082	 0.116603
H	-0.8804900466	 1.9197896365	 0.605075484	 0.131439
H	-1.2301257417	-0.2755746248	-1.3092313911	 0.287365
H	 1.293610419	-1.4744274123	-1.0562059449	 0.104066
H	 2.490826544	-0.6529552109	 2.4244753479	 0.131805
H	 1.7821180657	 0.9634421148	 2.2046515429	 0.116896
H	-0.5112557107	-1.5008504129	 2.7933209091	 0.124838
H	-0.7597594255	-2.3356518084	 1.2532094357	 0.146274
H	 0.7120067017	-2.6339830234	 2.2050421859	 0.12056
