16
gdb 44638	2.89088	1.88202	1.58615	3.1808	67.73	-0.2443	-0.0068	0.2375	875.4299	0.125823	-437.841071	-437.83443	-437.833486	-437.872207	26.189	
O	-0.1270676106	 0.0324555566	 0.3475902984	-0.320982
C	-0.1297031496	 1.200132363	 0.088692707	 0.394701
C	-1.2052986086	 2.2942673128	-0.115628398	-0.386373
C	-0.0224220826	 3.2804342818	-0.0255449776	 0.000017
C	 0.525819963	 3.7227671972	 1.3574851552	 0.08686
O	-0.0711645308	 3.0319048994	 2.4719025595	-0.29432
C	 1.0379099777	 2.0917895845	 2.5549742955	-0.094349
C	 1.6229800195	 2.6242840482	 1.2442719817	-0.053386
N	 0.948237687	 2.1309491047	-0.0122913627	-0.157735
H	-1.7369754414	 2.2768095104	-1.0690491395	 0.134436
H	-1.9169539552	 2.3289706863	 0.7107187794	 0.155552
H	 0.1054163273	 4.008644655	-0.829819459	 0.088426
H	 0.6929635496	 4.7846580069	 1.5524681747	 0.088352
H	 1.6697884054	 2.3085566449	 3.4249439808	 0.108864
H	 0.7071843195	 1.050487311	 2.5791197868	 0.146557
H	 2.6955724898	 2.7810908373	 1.1446865178	 0.103381
