18
gdb 94505	4.13283	0.69333	0.61761	3.9867	86.8	-0.2329	-0.0595	0.1734	1773.8361	0.145758	-401.898262	-401.888714	-401.88777	-401.93411	32.96	
C	-0.2053422107	 1.4055318829	-0.1707559926	-0.329295
N	-0.1309401791	-0.0178982819	 0.0719648282	-0.050452
C	-1.2918302714	-0.7118606243	 0.6633241986	-0.167311
C	-0.3151925977	-1.6081007405	 1.4586849332	-0.246491
C	 0.7412300614	-0.4983344875	 1.166623298	-0.175664
C	 2.0952850711	-0.8750078411	 0.8090481341	 0.126355
C	 3.2262138579	-1.2033303569	 0.5350540818	 0.063674
C	 4.5652998916	-1.5751232467	 0.1634890911	 0.016654
O	 5.3202016302	-2.2153845448	 0.8596868603	-0.231003
H	 0.7676112801	 1.7714960491	-0.5143611732	 0.13021
H	-0.9376388919	 1.6063643634	-0.9593179148	 0.127259
H	-0.4970490123	 1.9851038798	 0.7258384753	 0.09312
H	-1.8886147709	-0.065626949	 1.3283705924	 0.089085
H	-1.9589032525	-1.1881066197	-0.0612963438	 0.111311
H	-0.5365580183	-1.801989949	 2.5071772413	 0.119342
H	-0.0777009873	-2.5402609349	 0.9461192148	 0.13046
H	 0.7844087836	 0.2125881808	 2.0120844386	 0.09353
H	 4.8677800264	-1.2204048399	-0.8431708434	 0.099215
