19
gdb 55825	3.82422	0.98101	0.91166	3.8566	76.16	-0.2323	0.0417	0.2739	1327.1179	0.159829	-419.192339	-419.183675	-419.18273	-419.226796	32.562	
N	 0.6920564265	 0.0168114469	-0.3803322028	-0.506949
C	-0.3790985455	 0.4793623295	 0.3107752013	 0.382356
O	-0.3934929593	 1.5151860009	 0.947502798	-0.368294
C	-1.6305807053	-0.4036750554	 0.2051474173	-0.258422
N	-1.338169973	-1.7389286896	-0.2993940723	-0.091508
C	-1.2794694911	-2.9209850152	 0.5424196905	-0.042439
C	-2.340061006	-2.9214694077	 1.6577142597	-0.244892
C	-3.4470258647	-2.7276217995	 0.5727090982	-0.244901
C	-2.3507297463	-2.7496635499	-0.5104299825	-0.038971
H	 1.5404083235	 0.5565714054	-0.390623625	 0.256915
H	 0.6119476695	-0.8484387163	-0.8888304248	 0.263915
H	-2.1143475688	-0.3725611466	 1.1879529713	 0.126726
H	-2.3081892723	 0.0916620231	-0.5003480051	 0.134565
H	-0.3717248304	-3.5145092978	 0.5277248942	 0.093872
H	-2.4124464943	-3.8965491611	 2.14366015	 0.111838
H	-2.2431970262	-2.1568676706	 2.4336803448	 0.112975
H	-4.1148215202	-3.5886745235	 0.5061848295	 0.110162
H	-4.0538991022	-1.8193911208	 0.6253638484	 0.108393
H	-2.4385338537	-3.1882613018	-1.4988900707	 0.09466
