20
gdb 6504	3.82192	1.2773	1.18973	2.3275	70.99	-0.2457	0.0589	0.3046	1115.9598	0.175344	-386.127029	-386.117965	-386.117021	-386.160463	34.488	
C	 0.1553181106	 1.5732089151	-0.0986678113	-0.396052
C	-0.100081149	 0.078142586	 0.0701821471	 0.126687
O	 0.2492530295	-0.6477743111	-1.1175960338	-0.437946
C	 0.5847382816	-0.5033559948	 1.3209617525	-0.299513
C	 0.656716947	-2.0248863891	 1.2881259816	 0.454905
O	-0.5019172415	-2.650032004	 0.8071642078	-0.479229
C	 1.9746776129	-2.7090028331	 0.9956106023	-0.325428
C	 1.3586204831	-2.7642670228	 2.3819003044	-0.312119
H	 1.2263578967	 1.7740540871	-0.2246255099	 0.107058
H	-0.3706670215	 1.9546901549	-0.9778625954	 0.125108
H	-0.185979487	 2.1298904957	 0.7804049268	 0.119579
H	-1.177466038	-0.093049472	 0.1634324402	 0.103089
H	 1.2089092798	-0.6326014178	-1.2057106716	 0.283333
H	 1.5983854383	-0.0930577193	 1.4211604064	 0.088339
H	 0.022247878	-0.1672002581	 2.2014147347	 0.107862
H	-0.541176513	-2.4204191461	-0.1321094294	 0.2893
H	 1.9332526166	-3.6142753316	 0.4004362253	 0.115199
H	 2.8666386214	-2.1065549338	 0.8528627067	 0.098021
H	 1.8233476403	-2.1931789542	 3.1786908727	 0.108178
H	 0.9151415843	-3.7034532008	 2.6912809228	 0.123628
