17
gdb 79503	2.39946	1.85589	1.24218	3.8806	73.65	-0.2281	-0.0399	0.1882	1016.6487	0.134642	-417.88025	-417.872325	-417.871381	-417.913034	29.718	
C	 0.0753446557	 1.541680546	-0.1227389369	-0.336557
N	 0.0491959678	 0.0826125265	-0.0343613855	-0.158098
C	-1.1074389015	-0.4881292436	 0.713052239	-0.034281
C	-0.2840942149	-1.7382966025	 1.1638193577	-0.076563
N	-0.5992918859	-1.6157041372	 2.6232943035	-0.334234
C	-0.5422596267	-0.2004859904	 2.1575486831	-0.091431
C	 0.6794003145	-0.5217903873	 1.183212221	 0.297194
C	 2.1382758638	-0.47426609	 1.494137188	 0.027556
O	 2.7460733882	-1.3625965713	 2.0340005472	-0.231457
H	 1.0566531321	 1.8710661179	-0.4773888203	 0.127928
H	-0.6660652029	 1.862417625	-0.8615438873	 0.12691
H	-0.1411625196	 2.0603776773	 0.8264072446	 0.100233
H	-2.1378937767	-0.4367175949	 0.3537592652	 0.087382
H	-0.1348681372	-2.6830537987	 0.6438657562	 0.10499
H	-1.5711185212	-1.8856368091	 2.7973545451	 0.213773
H	-0.6863993026	 0.6474109407	 2.8271878611	 0.099348
H	 2.6405172272	 0.4736533117	 1.1936698282	 0.077308
