17
gdb 54097	2.9748	1.51952	1.18719	1.2747	68.62	-0.2473	-0.0299	0.2174	1050.3795	0.133581	-458.904806	-458.896561	-458.895617	-458.938019	31.492	
C	 0.2789684344	 1.0633767173	 1.1539306069	-0.471585
C	 0.1147862626	 0.0950645454	 0.0035378466	 0.318679
O	 0.9510137622	-0.031287383	-0.8627944131	-0.303044
C	-1.1755366365	-0.7231781374	-0.0027065218	 0.365081
O	-2.1894167115	 0.0466840506	 0.5613183336	-0.494524
C	-1.5780067123	-1.6178243653	-1.219371018	-0.005325
C	-0.465565649	-2.6320712077	-0.8911887372	-0.234493
C	-1.168420025	-2.2474233073	 0.4219391065	-0.02678
O	-2.4768309383	-2.361830263	-0.2766976415	-0.344747
H	 1.2813647202	 1.4915502288	 1.1251634376	 0.135804
H	-0.4741417011	 1.8532152637	 1.0757288746	 0.164343
H	 0.0997024331	 0.5638283496	 2.1115226399	 0.139818
H	-2.9658137095	-0.5350911096	 0.5518929374	 0.290348
H	-2.0005428906	-1.3179406093	-2.1778977372	 0.107016
H	-0.688583804	-3.6470648177	-1.2185774196	 0.115032
H	 0.566192159	-2.3295934065	-1.0512471845	 0.141322
H	-1.0990744039	-2.6792331586	 1.4212114195	 0.103056
