18
gdb 11546	6.36471	1.02916	0.94117	3.4563	70.02	-0.238	0.0624	0.3004	1265.5088	0.153704	-381.142043	-381.132936	-381.131991	-381.176746	31.86	
C	 0.1106806368	 1.335977893	 0.1573936092	-0.32173
N	-0.2516735333	 0.0305705743	-0.3632063821	-0.361327
C	 0.6755131804	-0.7046372145	-1.0780960832	 0.484888
O	 1.7444375611	-0.2592406116	-1.4514903122	-0.397092
N	 0.2637418562	-2.007372407	-1.3378469857	-0.37713
C	 1.0228643197	-2.804744985	-2.2572869893	 0.070935
C	 2.2081093377	-3.5663212777	-1.734919631	-0.232967
C	 0.9414267034	-4.2999149849	-2.1006876291	-0.297934
H	 0.848483683	 1.7692720556	-0.5181518694	 0.166624
H	-0.770720713	 1.9829262466	 0.1946696861	 0.117791
H	 0.5546587963	 1.2869624632	 1.1609828214	 0.117952
H	-0.9393281278	-0.4892458629	 0.1591415726	 0.23369
H	-0.7346260406	-2.1596957132	-1.3568366729	 0.232968
H	 1.1067477856	-2.4099405742	-3.2676205978	 0.097858
H	 3.071861349	-3.659223986	-2.3825048912	 0.118205
H	 2.4372547772	-3.4527723055	-0.6824736421	 0.120858
H	 0.3328501553	-4.6827223514	-1.2886368755	 0.111109
H	 0.9258251126	-4.9048889189	-3.0000255878	 0.115301
