14
gdb 9812	3.63273	1.70453	1.27572	4.6008	63.68	-0.2738	-0.0914	0.1824	920.9599	0.105852	-378.711559	-378.703533	-378.702589	-378.744746	28.281	
C	 0.0404067831	 1.4407424116	 0.2138639276	-0.491599
C	 0.079081202	-0.061759152	 0.0356415867	 0.171708
C	 0.6405023797	-0.6583809246	-1.2194302949	-0.248377
N	 1.387077931	-0.7687408916	 0.0274024088	-0.3092
C	-0.9830164481	-0.8826713415	 0.7147696432	 0.301648
O	-1.0984110141	-2.0762700611	 0.5990287275	-0.2708
C	-1.9403136322	-0.1353280041	 1.5617616677	 0.224716
N	-2.6893305771	 0.4431302883	 2.2264553607	-0.31545
H	 0.8325404587	 1.9087507957	-0.3773766714	 0.122726
H	-0.9144746406	 1.8615183379	-0.1157572513	 0.149055
H	 0.183562704	 1.7241893609	 1.2615427602	 0.148405
H	 0.222336587	-1.594463158	-1.5756860355	 0.150062
H	 0.9712356533	 0.0386727073	-1.9849820002	 0.124981
H	 2.1268394132	-0.0697317689	 0.0608157611	 0.242125
