21
gdb 98418	2.57372	1.22989	1.00594	2.8438	82.09	-0.2202	0.0206	0.2408	1297.6672	0.180849	-420.412978	-420.402541	-420.401597	-420.44855	37.722	
C	-0.3297425224	 1.5294045924	-0.1857284867	-0.336405
N	-0.2745427366	 0.08549806	-0.3020456028	-0.328579
C	 0.7748847265	-0.5618875646	-0.8855973571	 0.377649
O	 1.7360729531	 0.0385459422	-1.3473464109	-0.390847
C	 0.674136992	-2.0772670408	-0.9055414461	 0.208684
C	-0.6652223452	-2.7222190977	-0.6004523991	-0.487493
C	 1.6198912457	-2.7527295515	-1.8533853003	-0.261879
N	 1.8264486505	-2.8661269356	-0.4238440599	-0.117339
C	 2.9965962993	-2.2245226254	 0.1710376332	-0.328754
H	-0.2908973212	 1.8499912535	 0.8618619409	 0.125945
H	 0.5364658226	 1.9324060785	-0.7109241162	 0.172767
H	-1.2447318642	 1.9262589655	-0.6387232176	 0.12514
H	-1.0275602452	-0.4558003828	 0.0848549797	 0.247729
H	-1.4532550313	-2.3557272413	-1.2676864406	 0.120154
H	-0.5834248885	-3.8036155951	-0.7267441633	 0.135921
H	-0.9751108611	-2.5491708844	 0.4377844623	 0.117936
H	 1.2967600803	-3.6574584878	-2.3642208872	 0.10458
H	 2.2764113457	-2.0937435592	-2.4161283411	 0.135246
H	 3.2824021624	-1.2806609883	-0.3050816154	 0.147189
H	 2.7973496002	-2.0411584218	 1.2321559554	 0.113885
H	 3.8306176874	-2.9303597158	 0.1042046927	 0.11847
