19
gdb 88696	3.36085	0.978	0.82675	4.8229	81.53	-0.2653	0.0176	0.2829	1409.0574	0.159259	-382.043865	-382.034795	-382.033851	-382.078589	33.364	
C	-0.0141069729	 1.5702753025	-0.1208860472	-0.408555
C	 0.0192414842	 0.0631996643	 0.0143183384	-0.001381
C	 1.293628605	-0.7119507792	-0.2042434821	-0.30583
C	 0.6820627322	-0.6469541678	 1.1779309323	 0.005614
C	 1.3722394845	 0.097239459	 2.26957338	-0.02359
N	 0.7109389413	 0.1409375618	 3.5761079024	-0.321293
C	 1.983251049	-0.6000363626	 3.4523219482	-0.205693
C	 1.9149840866	-2.0331380494	 3.606987303	 0.338927
N	 1.8891925544	-3.1837715325	 3.7173709294	-0.340653
H	 0.9348620521	 2.0314101827	 0.1698079834	 0.110273
H	-0.2051780583	 1.8581847497	-1.1602128898	 0.122771
H	-0.8037038577	 2.0109892559	 0.497598668	 0.123524
H	-0.8873750827	-0.4238197861	-0.3349994223	 0.093732
H	 1.2634514397	-1.6560625357	-0.7359735417	 0.121724
H	 2.1993753178	-0.1369622823	-0.3754911219	 0.108866
H	 0.1825199493	-1.5442652612	 1.5286484231	 0.11155
H	 1.9199753699	 0.9852956101	 1.9598664476	 0.096211
H	 0.8778183385	 1.0237901195	 4.0517110729	 0.244602
H	 2.8838067872	-0.1615459787	 3.8741747965	 0.129201
