16
gdb 20669	3.18488	1.87946	1.27439	2.8671	66.78	-0.2335	0.022	0.2554	942.5427	0.131909	-379.943144	-379.935168	-379.934224	-379.975743	28.771	
C	 0.0775339373	 1.5357831626	 0.0657108925	-0.5165
C	 0.0209273091	 0.0390448874	 0.0326416463	 0.156425
C	-0.0255752719	-0.7969077493	-1.0625183538	-0.114457
N	-0.0686394539	-2.0677578502	-0.5853836121	-0.189126
N	-0.045802552	-2.1249014107	 0.7569730827	-0.286705
C	 0.0021737958	-0.8497284124	 1.1430749528	 0.232683
C	 0.0700378875	-0.4992957127	 2.5978805422	-0.167023
O	 1.2600962818	 0.214255389	 2.9358717795	-0.415228
H	 0.8042747094	 1.8740309749	 0.8092995962	 0.148114
H	 0.3581156792	 1.9473154517	-0.9079157027	 0.11755
H	-0.8905475394	 1.9733106137	 0.3395706007	 0.127362
H	-0.0297411568	-0.5879620437	-2.1213569656	 0.129709
H	-0.1033556489	-2.9242660954	-1.1108624903	 0.27296
H	-0.7494007424	 0.1720857371	 2.87656759	 0.112727
H	-0.0353437601	-1.4199306948	 3.1875972992	 0.108671
H	 2.0030491455	-0.3330653871	 2.6601445922	 0.282837
