17
gdb 74480	3.0504	1.52847	1.1715	1.7795	75.75	-0.2197	0.0134	0.2331	1060.2954	0.13724	-417.986243	-417.978785	-417.97784	-418.017828	30.09	
N	-0.0010161236	 1.3075252938	 0.1508702534	-0.584641
C	-0.0194243548	-0.0591493979	 0.0147591673	 0.36742
N	-1.0894229436	-0.7608368617	-0.1008348808	-0.344836
C	-0.7237928458	-2.1587454654	-0.0501341442	 0.374954
C	-1.5939141375	-3.1074750903	 0.7422130292	-0.318701
C	-1.5899510511	-3.1654259395	-0.7628876865	-0.309815
C	 0.7764020128	-2.253272884	-0.0069596769	-0.04789
O	 1.4186170476	-1.6411654545	-1.1350968119	-0.251676
C	 1.2518422483	-0.8633542324	 0.0648375794	-0.085686
H	 0.7918062411	 1.7864627806	-0.249174948	 0.256481
H	-0.8864709549	 1.7543873231	-0.0437679692	 0.259185
H	-1.1045473744	-3.9050885192	 1.2925645909	 0.110113
H	-2.4551551223	-2.6718614969	 1.2345953621	 0.124545
H	-2.4497257843	-2.7643194097	-1.2860896628	 0.127177
H	-1.1043612755	-4.0021131277	-1.2527377249	 0.116976
H	 1.2992327916	-3.0975788679	 0.4339316961	 0.101861
H	 2.1604459865	-0.5217363804	 0.5524336668	 0.104535
