14
gdb 34109	3.63263	1.56832	1.35119	3.5125	64.67	-0.2462	-0.0135	0.2328	917.3762	0.101706	-436.635189	-436.628633	-436.627689	-436.66613	25.694	
N	 0.0872773475	-1.1059894976	 0.0403822817	-0.322955
C	 0.0243752242	 0.0469069202	 0.009838112	 0.208265
C	-0.091613423	 1.4920217352	-0.0215651963	 0.278857
C	-1.0057416201	 2.1431214528	 1.0214059538	-0.101548
O	-1.0539172542	 3.5106792405	 0.6114427965	-0.262066
C	-0.6017783724	 3.5773183245	-0.7177917093	 0.072669
C	 0.7851542085	 3.0350606377	-1.0173088899	 0.056961
O	 1.1932683946	 2.1849984353	 0.0603161131	-0.318173
C	-0.4449042791	 2.2241561811	-1.3472086933	-0.248019
H	-2.0084129909	 1.6922908588	 1.0221364967	 0.117058
H	-0.5690337975	 2.0836140914	 2.0213892021	 0.141625
H	-0.9880272317	 4.4214780796	-1.2754015275	 0.126095
H	 1.5546251483	 3.4943598558	-1.6252023452	 0.123846
H	-0.8772233942	 1.8098857646	-2.2462973144	 0.127386
