19
gdb 78766	2.51009	1.56975	1.26651	2.3262	74.72	-0.2392	0.0699	0.3091	1065.3161	0.157432	-422.97068	-422.962001	-422.961057	-423.003306	34.2	
C	-0.0339123678	 1.6209111996	 0.024363669	-0.431832
C	 0.0995752655	 0.1037130708	-0.0233484403	-0.023654
C	 0.847365292	-0.6035560111	-1.156073582	-0.160516
C	 1.3180507206	-1.7160830895	-0.23715616	-0.185311
C	 2.3307732401	-0.7357055939	-0.7475149258	 0.401076
O	 3.3183438238	-1.0147765298	-1.6692033111	-0.462997
C	 2.5017086151	-0.078673786	 0.6211995008	-0.380494
C	 1.0866371931	-0.6666771039	 0.918109345	 0.365836
O	 0.7195148805	-1.0520197734	 2.1987031614	-0.478885
H	 0.9214222023	 2.1269644602	-0.1427098731	 0.113447
H	-0.7292550212	 1.9730274215	-0.7455961361	 0.117617
H	-0.4281588747	 1.9525040908	 0.992521159	 0.10862
H	-0.8848097426	-0.3653184974	 0.0945992416	 0.077248
H	 0.5619419968	-0.7081723189	-2.1957907444	 0.08411
H	 1.2361915771	-2.7907374185	-0.2915134371	 0.101928
H	 3.4556510469	-0.2310698064	-2.2129604329	 0.284416
H	 3.2566540844	-0.6089049229	 1.208306264	 0.108371
H	 2.652797272	 1.0043951122	 0.6959865189	 0.079627
H	 0.7953637159	-0.2876390131	 2.780562193	 0.281391
