17
gdb 64068	2.48427	1.54283	1.20953	3.1137	68.98	-0.2337	-0.0998	0.1339	1072.335	0.132887	-458.992797	-458.983746	-458.982802	-459.026611	32.995	
C	 0.0920131733	 1.4758739729	 0.0198621638	-0.41676
C	-0.0736281363	-0.0530381097	 0.0146331881	 0.234594
C	-1.5368388555	-0.4733771602	-0.0530926578	-0.413974
O	 0.6136332822	-0.631474313	-1.1168470118	-0.29505
C	 1.9622780109	-0.9451979769	-0.7939272318	-0.213299
C	 1.9867798763	-1.2095550884	 0.6995088168	 0.309094
O	 2.8457645152	-1.7147454097	 1.3669740077	-0.266999
C	 0.6358676362	-0.6488939281	 1.2256885148	 0.271463
O	 0.2655908021	-0.6724246245	 2.367316471	-0.288772
H	 1.1457793455	 1.7686436274	 0.0687670573	 0.121538
H	-0.3343075077	 1.8881615801	-0.8987701989	 0.135491
H	-0.4210755513	 1.9108900768	 0.8819527518	 0.141121
H	-2.0141003939	-0.0344502293	-0.9333517101	 0.12905
H	-1.6203640518	-1.5608987235	-0.1194461363	 0.130001
H	-2.0596747595	-0.1355572451	 0.8452002754	 0.140553
H	 2.2719516617	-1.8244404554	-1.3662291254	 0.150758
H	 2.6531043827	-0.1208359634	-1.0369002146	 0.131191
