19
gdb 77821	2.37973	1.52046	1.31381	4.665	75.43	-0.2579	0.0122	0.2701	1082.9234	0.159411	-423.070826	-423.062299	-423.061355	-423.103624	32.42	
C	-0.0755203032	 1.5257873096	-0.0710037311	-0.432968
C	 0.0666296436	 0.0220703227	 0.0374831195	-0.055442
C	 1.3766090766	-0.7307310046	-0.1913070716	-0.262542
C	 2.6259197398	 0.0800267371	-0.0830078677	 0.450496
O	 3.4874405152	 0.2486751829	-0.8961274493	-0.345282
O	 2.6815836161	 0.656916307	 1.1607799489	-0.230835
C	 1.6687608913	 0.1295808982	 2.029768366	-0.144227
C	 0.7215294924	-0.7084538217	 1.1757207005	 0.287123
C	 0.0730887871	-1.909042439	 1.8204947073	-0.489585
H	 0.7964755782	 2.0586840772	 0.3147431958	 0.144951
H	-0.2087934054	 1.8227374381	-1.1160947285	 0.131617
H	-0.9546232259	 1.8680092398	 0.4860217832	 0.120352
H	-0.7797505628	-0.5200945475	-0.379263964	 0.095802
H	 1.3976721062	-1.5891948204	-0.8497873882	 0.112981
H	 2.1560513147	-0.4885184637	 2.7930169195	 0.11746
H	 1.1770364132	 0.9715704926	 2.5280747351	 0.120403
H	-0.5967510449	-1.6066100749	 2.6339784133	 0.127013
H	-0.5238576408	-2.469991592	 1.0954020483	 0.126467
H	 0.8217257985	-2.5903673817	 2.2399347331	 0.126215
