20
gdb 54419	2.4586	1.49507	1.16916	2.6796	81.64	-0.226	-0.0214	0.2047	1147.1569	0.169578	-403.142055	-403.132788	-403.131844	-403.175961	34.699	
C	 0.3384520247	 0.944650779	-0.770024654	-0.488969
C	-0.1306021086	 0.0747160387	 0.3787651617	 0.291183
O	 0.4928412654	-0.0050103558	 1.4246652133	-0.345229
C	-1.364129871	-0.7100824634	 0.181056647	 0.201467
C	-2.3512635354	-0.8015835066	-0.9859968037	-0.302732
C	-2.4714869074	-2.3426377488	-0.7300503571	-0.252107
C	-1.475664438	-2.214328519	 0.434868378	 0.29684
C	-0.4238327787	-3.1963819317	 0.845592013	-0.507717
N	-2.0628087614	-1.2649010516	 1.3705884802	-0.397513
H	 1.2575816	 1.4579037034	-0.4860644219	 0.142996
H	 0.5170464725	 0.3397640759	-1.6661079504	 0.139293
H	-0.4315113601	 1.6793849565	-1.031153305	 0.143306
H	-3.2650127605	-0.2161388995	-0.85972398	 0.111959
H	-1.9035163757	-0.5745670842	-1.9556082945	 0.104188
H	-3.4594250373	-2.7137536975	-0.4472971312	 0.111739
H	-2.0803468788	-2.9363995331	-1.5592675664	 0.103354
H	 0.0532204236	-3.6535689414	-0.0272733039	 0.122037
H	 0.3472566145	-2.7027586522	 1.4448022898	 0.149897
H	-0.8622265273	-4.0022017497	 1.4464776767	 0.131564
H	-1.4001719606	-1.1470516889	 2.140830318	 0.244443
