18
gdb 15766	3.79868	1.05672	0.86727	1.9897	76.7	-0.2467	0.0538	0.3005	1344.4278	0.151301	-347.761913	-347.752427	-347.751483	-347.797995	32.458	
C	-0.2288437925	 1.5944635142	 0.03257718	-0.497107
C	-0.1074319241	 0.1437385054	-0.0016401706	 0.040839
C	-0.0046957534	-1.0561388475	-0.017623083	 0.085775
C	 0.1110304651	-2.5133631016	-0.07322679	-0.181727
C	-1.2681076877	-3.2039457474	-0.0573280671	-0.391415
C	 0.9003085063	-2.9319285015	-1.3065627841	 0.107921
C	 2.3429258803	-3.1803984299	-1.2613328441	-0.178415
O	 1.4082949361	-4.2652347894	-1.2982805887	-0.240246
H	 0.3345441728	 2.0604292177	-0.783490942	 0.147543
H	-1.2735159007	 1.9100861805	-0.0646761775	 0.147971
H	 0.1541693561	 2.0038328926	 0.9739549084	 0.148137
H	 0.6773214673	-2.862887749	 0.8006529691	 0.103996
H	-1.8190696518	-2.9450799021	 0.8501929831	 0.12295
H	-1.8665959048	-2.8904550043	-0.9181804035	 0.122326
H	-1.1387287644	-4.2889393099	-0.0970746491	 0.132475
H	 0.4579076414	-2.6234132959	-2.2552761721	 0.097687
H	 2.9465872743	-3.0531172393	-2.1584951393	 0.11604
H	 2.8775170997	-3.0575029225	-0.3202831693	 0.115249
