17
gdb 32638	5.07756	0.87343	0.79264	7.5689	79.64	-0.2378	-0.0336	0.2042	1437.528	0.136656	-418.060095	-418.051573	-418.050629	-418.094217	30.326	
C	 0.0621510105	 1.5565857813	 0.0653925346	-0.373643
C	-0.0375971021	 0.0336666791	-0.0393745386	-0.164546
N	 0.6567747953	-0.5032290867	-1.204565493	 0.01487
C	 0.086739521	-0.8781963595	-2.3986908318	 0.008827
N	 0.9679894237	-1.2764544945	-3.2757288653	-0.298759
C	 2.1870323366	-1.1585113729	-2.6370191001	 0.164217
C	 3.4772122924	-1.4994087311	-3.2361037263	 0.084496
O	 3.653865274	-1.9194888868	-4.3548742651	-0.269496
C	 2.0031290281	-0.6786072814	-1.3542461369	-0.170832
H	 1.1039431801	 1.8770435901	 0.1546094294	 0.134928
H	-0.367953925	 2.0370205589	-0.8177761671	 0.139456
H	-0.479945935	 1.9068812785	 0.9486020494	 0.130864
H	 0.3749034281	-0.4432982691	 0.8552092578	 0.132748
H	-1.0830157399	-0.2782520684	-0.1158903502	 0.132749
H	-0.9837225659	-0.8371282162	-2.5445929395	 0.135252
H	 4.334210294	-1.3312385816	-2.5413438291	 0.054062
H	 2.6998303341	-0.4614212598	-0.5600890681	 0.144809
