13
gdb 23880	3.44931	1.49454	1.2871	3.6707	49.62	-0.2527	0.0029	0.2556	940.4824	0.090891	-526.287383	-526.279059	-526.278115	-526.320888	29.186	
C	 0.0400307925	 1.43880251	-0.073459258	-0.3442
N	 0.0361471391	-0.0129512502	-0.0786510199	-0.263323
C	-1.0838097379	-0.6004388502	 0.0240220198	 0.204734
N	-2.3456392493	-0.0585879846	 0.0975268723	-0.558888
C	-1.0924208656	-2.1283115778	-0.0430804382	 0.270549
F	 0.0576881586	-2.6548704979	 0.3421812056	-0.041636
F	-2.0689559276	-2.6261992339	 0.7512266112	-0.097833
F	-1.3547176771	-2.5498132383	-1.2879721444	-0.069917
H	 1.0707845991	 1.7989665351	-0.0919598122	 0.135081
H	-0.4774448446	 1.8530774365	-0.9517214186	 0.123737
H	-0.4422514339	 1.8596929685	 0.8243802148	 0.108304
H	-2.4208161357	 0.9237014316	 0.3051272824	 0.264608
H	-3.0765281576	-0.6378917987	 0.4781223753	 0.268784
