17
gdb 34825	4.96111	1.12466	1.04043	4.5409	78.81	-0.2569	0.0052	0.2621	1152.0246	0.13673	-380.779622	-380.772213	-380.771269	-380.811327	29.216	
N	-0.0553863555	-1.1787719356	-0.1712696669	-0.328282
C	-0.0308618025	-0.0272088468	-0.0717324197	 0.281751
C	-0.0439369245	 1.4233452804	 0.0490671007	-0.104588
C	 0.0112427462	 2.0929066142	 1.4530970164	-0.155902
C	 1.4839687274	 1.6229745196	 1.4792074104	-0.190323
N	 1.3389308424	 2.1321939406	 0.023092506	-0.181825
C	 0.5696815378	 3.2807914579	 0.6694754311	 0.458816
C	 0.0039515542	 4.4616917623	-0.0258557243	-0.379013
C	 1.1210177981	 4.6096584427	 1.0144374735	-0.387895
H	-0.7421609395	 1.8537201984	-0.6718147337	 0.125892
H	-0.7497473003	 2.0687214069	 2.2381408246	 0.089607
H	 2.1910753153	 2.2114417708	 2.0647006538	 0.118352
H	 1.6854571754	 0.5526604901	 1.546864976	 0.136002
H	 0.2723491446	 4.6174722048	-1.0655587811	 0.134429
H	-0.9904735072	 4.803381823	 0.2428007883	 0.12396
H	 0.8689991484	 5.0497697965	 1.973858137	 0.12425
H	 2.1104232397	 4.8602973742	 0.6463301879	 0.134767
