21
gdb 1720	4.21522	1.8752	1.75835	0.051	73.95	-0.2789	0.0793	0.3582	866.4448	0.194489	-274.985822	-274.97763	-274.976685	-275.01774	31.128	
C	-0.0769658109	 1.6855013784	 0.0018439279	-0.387997
C	-0.2211050684	 0.162346948	-0.0968750923	-0.236026
C	 0.6887281296	-0.5096274368	-1.130758285	 0.379951
C	 0.3908707886	-0.0417187143	-2.5583458962	-0.444499
C	 2.2231014611	-0.4862607814	-0.8178696243	-0.247029
C	 2.2963680992	-2.002135295	-1.1414519049	-0.211004
C	 0.7491191944	-2.0706948436	-1.04524535	-0.259347
H	 0.9613572091	 1.9733408368	 0.2012254873	 0.116385
H	-0.3888855363	 2.1868434594	-0.9193589441	 0.116864
H	-0.6918063621	 2.0831561818	 0.8153424745	 0.110651
H	-0.0080427196	-0.2780314855	 0.886083647	 0.08585
H	-1.2663156877	-0.0930101861	-0.3221636197	 0.088669
H	 0.584272246	 1.0286948872	-2.6832968055	 0.112927
H	 1.0141426525	-0.5724376312	-3.2861140593	 0.109651
H	-0.6570751201	-0.2283231688	-2.8217058181	 0.108084
H	 2.8414681503	 0.1856044502	-1.4199314321	 0.089749
H	 2.4206980661	-0.2797156674	 0.2387833204	 0.09203
H	 2.6618560109	-2.1958946816	-2.1533792123	 0.100775
H	 2.8644759638	-2.6299412219	-0.4512033407	 0.094058
H	 0.4107572046	-2.4390599126	-0.0717645555	 0.091113
H	 0.2205401688	-2.6264616455	-1.8252629873	 0.089147
