16
gdb 32167	3.78429	1.17174	0.89995	5.4582	75.52	-0.2439	-0.0272	0.2167	1232.2707	0.126399	-434.132867	-434.124784	-434.12384	-434.165686	30.422	
N	 0.1064462936	 1.3126593159	 0.525319954	-0.567144
C	 0.0362898759	 0.0004051208	 0.1648463804	 0.397533
N	-1.1816446022	-0.5547266601	 0.1473167472	-0.351317
C	-1.247775202	-1.8484623545	-0.1652298053	 0.334662
C	-2.6207129902	-2.4887046007	-0.1834493216	-0.11602
O	-2.5794523694	-3.8432040487	-0.5397879545	-0.429884
N	-0.2279458194	-2.649710929	-0.4695777668	-0.334731
C	 0.9877283402	-2.080016862	-0.4534914414	 0.017097
C	 1.1881143339	-0.754260291	-0.1421961172	-0.206914
H	 0.9360558209	 1.8413579786	 0.3184466728	 0.261387
H	-0.7659877544	 1.8153742221	 0.5545594724	 0.265559
H	-3.0687958842	-2.3562648188	 0.8140520977	 0.112343
H	-3.2525106348	-1.917332535	-0.8813017818	 0.11154
H	-1.6388902129	-4.0384522321	-0.679368368	 0.28928
H	 1.8276270114	-2.7242576813	-0.7024978397	 0.118837
H	 2.1785315636	-0.3150529842	-0.1303307182	 0.097773
