16
gdb 78832	3.60442	1.31596	1.1422	4.5179	72.41	-0.2686	0.0365	0.3051	1059.2763	0.125462	-400.708054	-400.700791	-400.699847	-400.739736	28.439	
O	-0.058012299	 1.4757939577	-0.2302182181	-0.430246
C	-0.0353953911	 0.0753077983	-0.1023919452	 0.122332
C	-1.3833371331	-0.6167754257	-0.094859976	-0.108501
C	-1.7811978557	-0.8718963591	-1.5505917185	-0.060512
C	-0.815154286	-1.7974467421	-0.8572630485	-0.081178
C	 0.3090572742	-0.804927189	-1.3436954095	-0.121868
C	-0.6766318605	-0.2650873463	-2.4310658904	-0.161739
C	-0.5354026291	-0.9358341252	-3.7147012488	 0.265776
N	-0.4177209727	-1.4616858335	-4.7378219536	-0.331019
H	 0.8349689828	 1.8133154454	-0.1061509353	 0.287786
H	 0.5629961936	-0.2470573904	 0.7599043292	 0.080555
H	-2.1246967157	-0.6226209726	 0.69297105	 0.100691
H	-2.8081003519	-1.0600715973	-1.8314651168	 0.109775
H	-0.8319618532	-2.8568455532	-0.6567120699	 0.108641
H	 1.3340810676	-1.0522897713	-1.6073036938	 0.091758
H	-0.6776880402	 0.8203115141	-2.5692459049	 0.127749
