19
gdb 58154	2.5956	0.84674	0.7418	1.0402	93.79	-0.2463	-0.0175	0.2288	1602.1463	0.155553	-385.844985	-385.834394	-385.83345	-385.88065	38.642	
C	 0.086156357	 1.5364237103	-0.1302496485	-0.412381
C	 0.0378497549	 0.0167346855	 0.0188129803	 0.141421
O	 0.7725454375	-0.4277448904	 1.1470184459	-0.430404
C	-1.4172707472	-0.5431921952	 0.0437479027	-0.192092
C	-1.4179816568	-2.0835925522	-0.0314092255	-0.392697
C	-2.1186811193	-0.0745206098	 1.2345775685	 0.419396
C	-2.672679132	 0.309667108	 2.2417571202	-0.299576
C	-3.3037400139	 0.7363672559	 3.3698164364	 0.293218
C	-3.8622956668	 1.1171338385	 4.3704845132	-0.555637
H	 1.1253691683	 1.8749840005	-0.1314530354	 0.126727
H	-0.3857283792	 1.8580427831	-1.064733665	 0.114431
H	-0.4372045938	 2.0266034131	 0.6978938794	 0.126266
H	 0.53733839	-0.4464805959	-0.840333977	 0.089895
H	 0.3449428102	-0.0607718836	 1.9310197113	 0.285434
H	-1.937017412	-0.1460881309	-0.8395137944	 0.108805
H	-2.4336000812	-2.4810007881	 0.0317550641	 0.124371
H	-0.9753549323	-2.4095550992	-0.9777778166	 0.11677
H	-0.8244660556	-2.4955285818	 0.787302133	 0.143331
H	-4.3550006678	 1.4488532223	 5.2504406674	 0.192723
