17
gdb 43228	2.32276	1.88359	1.80797	1.8769	72.18	-0.2416	-0.0107	0.2309	890.0417	0.138499	-421.845326	-421.838527	-421.837583	-421.876289	27.464	
O	 0.0003354978	 0.0661162173	 0.0061343375	-0.32996
C	-0.0153108961	 1.2645982336	-0.0164154115	 0.419112
C	-1.2149014123	 2.2198228254	 0.0217297592	-0.18763
C	-1.2069479984	 2.7561808416	 1.4895716733	-0.092412
O	-0.0202444749	 3.4754850618	 1.7740829327	-0.234865
C	 1.1766645348	 2.7867237928	 1.4584322145	-0.092413
C	 1.160014394	 2.250240082	-0.0092894097	-0.18763
C	 0.6155139241	 3.2997788541	-0.955527597	-0.069805
C	-0.7223456184	 3.2826510007	-0.9380434421	-0.069802
H	-2.1712301524	 1.746594861	-0.2093885608	 0.08974
H	-2.0297947875	 3.4582355105	 1.6507357808	 0.119562
H	-1.3320588654	 1.9063914305	 2.1803636584	 0.1063
H	 1.9851821409	 3.5096861835	 1.598273505	 0.119563
H	 1.3415108841	 1.9406580652	 2.1454443894	 0.1063
H	 2.1217833744	 1.8015742782	-0.2654620799	 0.08974
H	 1.2409466237	 3.9678640495	-1.5341276574	 0.107101
H	-1.3795757583	 3.9343142223	-1.4998844224	 0.1071
