17
gdb 81468	2.34086	2.0586	1.74842	1.8223	65.37	-0.2525	0.0461	0.2986	869.3683	0.138447	-458.927252	-458.92074	-458.919796	-458.95781	27.254	
O	 0.2877055718	 1.4150629592	-0.2201952473	-0.434188
C	 0.0816926923	 0.0639481454	 0.0042184235	 0.131213
C	 0.1848251501	-0.6028628761	 1.4074413474	 0.029145
C	-0.4545968886	 0.2317020616	 2.5278267329	-0.264336
C	-1.8779392606	 0.6199538714	 2.1538653934	 0.049285
O	-2.0510318565	 1.5873042825	 1.1001168314	-0.274242
C	-2.3517084384	 0.1979351519	 0.8274745952	 0.048054
C	-1.3247561468	-0.6081014529	 0.0353899223	-0.019697
O	-0.7714499512	-1.6014660851	 0.9465828043	-0.293745
H	-0.4360824727	 1.8829572208	 0.2242276776	 0.299228
H	 0.7160858447	-0.4918277975	-0.6903269458	 0.106368
H	 1.1327162754	-1.0514165563	 1.7150533889	 0.081886
H	-0.4908461983	-0.3694973153	 3.4425111777	 0.119368
H	 0.1492874726	 1.1211301878	 2.7437254404	 0.124692
H	-2.5899664812	 0.7465852056	 2.965965624	 0.109086
H	-3.4066694852	 0.0049147688	 0.6498605075	 0.108938
H	-1.7334673473	-1.0582014819	-0.8715421434	 0.078945
