19
gdb 37890	3.08181	2.09081	1.68941	1.553	78.05	-0.2377	0.0993	0.337	864.2201	0.163516	-385.837232	-385.831297	-385.830353	-385.8671	26.231	
C	-0.0721688255	 1.5425312464	 0.0252560575	-0.330457
C	 1.4704097599	 1.2578897309	 0.0293542761	-0.092023
C	 1.2274331366	 0.0314272692	 0.9488751081	-0.030597
C	 2.190638804	-1.1000388525	 0.5751934969	-0.254827
C	 1.7952857961	-1.1827228846	-0.9128638199	 0.076413
O	 0.6086120463	-2.0155103887	-1.0453579589	-0.296977
C	-0.5414823181	-1.3095804701	-0.5091147883	-0.200069
C	 0.0784891738	 0.0115802241	-0.1268679648	 0.29074
C	 1.252392231	 0.2290554382	-1.1245522781	-0.029412
H	-0.5038192653	 1.9126599842	 0.9595714412	 0.094466
H	-0.4684124382	 2.0878408569	-0.8358159387	 0.097022
H	 2.2705804176	 1.9954854083	 0.1168077865	 0.070628
H	 0.9667412249	 0.1999253607	 1.9951895881	 0.062474
H	 3.2421588571	-0.8317164801	 0.7293502069	 0.092941
H	 1.9896725762	-2.0435017819	 1.0891295204	 0.104824
H	 2.5352481669	-1.588814694	-1.6019372633	 0.071043
H	-1.3111164325	-1.2279644439	-1.2870124025	 0.103251
H	-0.9541105819	-1.8731243615	 0.336599834	 0.09977
H	 1.021982501	 0.5679651684	-2.1350963712	 0.070792
