21
gdb 39722	3.09929	1.63803	1.60105	0.1245	84.81	-0.2444	0.0969	0.3412	972.5207	0.186506	-349.954746	-349.948029	-349.947085	-349.98537	29.361	
C	-0.0074909413	 1.5066177983	 0.0178218869	-0.352166
C	 1.3091771493	 0.7514320494	 0.0003370923	-0.352173
C	 0.0070291632	 0.0066420137	 0.0042929777	 0.466309
C	-0.4767955554	-0.8631501146	 1.1397683012	-0.139718
C	-1.7456938908	-1.5385026235	 0.6468591308	-0.063043
C	-1.9879032119	-1.0346811904	-0.7745856973	-0.221184
C	-0.4988118029	-0.8483343438	-1.1612205833	-0.138041
C	 0.0996083071	-2.2320650718	-0.8023130977	-0.221188
C	-0.4289634619	-2.293678378	 0.6294014199	-0.063042
H	-0.2926923375	 2.0129614318	 0.9345048224	 0.10802
H	-0.3038894853	 2.0288197949	-0.8867494297	 0.106673
H	 1.8913739642	 0.7697091142	-0.9159112028	 0.106674
H	 1.9084556928	 0.750472378	 0.9052646397	 0.108019
H	-0.3180992235	-0.6104818543	 2.1802575891	 0.076276
H	-2.5494452676	-1.8057749802	 1.3203081779	 0.077413
H	-2.5000728633	-1.7677968264	-1.4070375026	 0.088419
H	-2.5465611575	-0.0937207644	-0.8039198974	 0.095058
H	-0.2954996341	-0.4706717583	-2.1631725595	 0.0568
H	-0.2873027913	-3.0370619624	-1.436391586	 0.088427
H	 1.193080765	-2.2387556166	-0.8536292198	 0.095054
H	-0.2404551174	-3.1300129455	 1.289700128	 0.077414
