20
gdb 41410	3.27196	1.84696	1.50576	1.6119	80.99	-0.2283	0.0876	0.3159	941.6723	0.174543	-365.971447	-365.964797	-365.963853	-366.002052	28.368	
C	-0.0608800547	 1.4676201742	 0.0201095742	-0.229479
C	 1.4963248584	 1.5550518037	-0.0861006545	-0.318496
C	 1.5412014609	 0.0399673512	-0.2838920921	 0.377815
C	 2.5056358598	-1.0019138059	 0.2287764698	-0.308357
C	 1.836328613	-2.2972079037	-0.3146878242	-0.246791
C	 0.970252051	-1.7809097812	-1.469365399	-0.027053
C	-0.1330794093	-0.8003087163	-1.2402922144	-0.05016
C	 0.0206303074	-0.0933678747	 0.0816800701	-0.092185
N	 1.2362897325	-0.3526841446	-1.7312415938	-0.176057
H	-0.483620212	 1.9320586229	 0.9131669821	 0.099678
H	-0.5955152297	 1.8472045016	-0.8537662253	 0.108673
H	 1.9152519979	 2.1497082547	-0.9011250247	 0.108327
H	 1.9564605864	 1.8650147491	 0.8567451714	 0.099737
H	 3.5030671393	-0.86208984	-0.204216577	 0.107216
H	 2.6023161324	-0.9936388675	 1.318324511	 0.099099
H	 2.5711692438	-3.0212171003	-0.6760756602	 0.105708
H	 1.2390811906	-2.7977572071	 0.4540394536	 0.107081
H	 0.8872062197	-2.3869164999	-2.3665024106	 0.090003
H	-0.9997896627	-0.7627663612	-1.8975100032	 0.083544
H	-0.3567703946	-0.5604237849	 0.9952218667	 0.061698
