14
gdb 75108	3.1193	1.48585	1.01507	2.5417	67.57	-0.2477	-0.0535	0.1943	1079.8352	0.10193	-470.061584	-470.053726	-470.052782	-470.094626	29.079	
N	 0.0154711239	 1.3816892344	 0.051599979	-0.541603
C	-0.0419824888	 0.0240185839	-0.0097778734	 0.337562
N	-1.1498567685	-0.6128245978	 0.0231573908	-0.320501
C	-1.1339235999	-2.0461528421	-0.1006549027	-0.305368
C	 0.1787506332	-2.754831751	-0.3741827702	 0.391818
O	 0.2940229774	-3.9198989831	-0.5992063556	-0.293222
O	 1.3269299438	-1.9791603401	-0.3410933466	-0.231944
C	 1.300765164	-0.6260640613	-0.1329367318	 0.367428
N	 2.3634781115	 0.0499971199	-0.0425529577	-0.508064
H	 0.914884554	 1.7971437302	 0.2319751747	 0.279817
H	-0.8203216522	 1.8670136882	 0.3313799014	 0.263664
H	-1.5435228515	-2.5041217868	 0.8114258044	 0.15704
H	-1.8198043492	-2.3587575009	-0.8985645712	 0.159039
H	 3.1903896623	-0.5414751635	-0.1365095712	 0.244333
