20
gdb 104499	2.76403	1.12156	0.92972	4.3518	79.65	-0.2667	0.0201	0.2868	1317.8555	0.169634	-403.150062	-403.140139	-403.139195	-403.185006	36.269	
C	 1.7579392919	 0.252734235	-1.1702017745	-0.418635
C	 1.3637906657	-0.8863540469	-0.2545435738	-0.052513
C	 2.2108637129	-1.2785438643	 0.9306247327	-0.310553
C	 0.8359771441	-0.6971993378	 1.1582072362	 0.322346
C	 0.7400858745	 0.6857813222	 1.7950567812	-0.159774
O	 1.3359930861	 0.7677182472	 3.0770836114	-0.416655
C	-0.2737210257	-1.6653077778	 1.5754773762	-0.419845
C	-0.3629785789	-1.8293729079	 3.0289473153	 0.272828
N	-0.4203567812	-1.913314401	 4.1810783554	-0.321099
H	 2.3207384755	 1.0296308867	-0.6462092444	 0.127624
H	 2.3998912232	-0.1206209409	-1.9752027178	 0.125504
H	 0.8836654669	 0.7227906408	-1.6340883915	 0.120369
H	 0.9027507448	-1.7169452668	-0.7861561053	 0.083183
H	 2.3743491549	-2.3304295789	 1.141093353	 0.114204
H	 3.050979995	-0.6416406038	 1.186578848	 0.130392
H	 1.271340787	 1.4185860995	 1.1836932862	 0.111671
H	-0.3160166413	 1.0014285717	 1.8226917172	 0.088838
H	 0.8499119141	 0.196452975	 3.6825876111	 0.298913
H	-1.248117769	-1.3084907396	 1.2177228389	 0.153233
H	-0.1135185306	-2.6513725422	 1.1265376046	 0.149968
