20
gdb 51085	4.05307	1.06385	1.01589	3.5986	81.05	-0.253	0.0244	0.2775	1248.7172	0.172861	-403.140208	-403.132255	-403.131311	-403.173187	31.034	
N	-0.0942917556	 1.2727384159	-0.0442789166	-0.445445
C	-0.0828895766	 0.0231461251	 0.1368441929	 0.104991
O	-1.153072852	-0.7173631703	-0.2128382944	-0.245972
C	-1.0384654061	-2.1154821905	-0.0892244826	 0.438596
C	-0.6373470731	-2.8387872406	 1.2338123275	-0.283541
C	-1.384407672	-4.0163395494	 0.5420691456	-0.027692
C	-2.3438818674	-2.9381858046	-0.0434295462	-0.274631
C	-0.4678799518	-4.3209793456	-0.6640251442	-0.209871
C	-0.2041474839	-2.8604936651	-1.1522190212	-0.263556
H	 0.7772547274	 1.6770054727	 0.2924302493	 0.226982
H	 0.7316584765	-0.5617260236	 0.5826452237	 0.087752
H	 0.4244019267	-2.967251695	 1.4641392526	 0.091272
H	-1.1757809689	-2.443432724	 2.0974564028	 0.109964
H	-1.7610902097	-4.8604881695	 1.116678754	 0.071179
H	-3.0471262369	-2.5475503361	 0.6941363443	 0.109317
H	-2.8509088664	-3.1477095287	-0.9891066296	 0.097339
H	 0.449248146	-4.8378447698	-0.3680347512	 0.100302
H	-0.9693543308	-4.9310686295	-1.4201792329	 0.103436
H	-0.5766535962	-2.6646864474	-2.1608786231	 0.112033
H	 0.853020251	-2.581371184	-1.1205731608	 0.097543
