18
gdb 79319	3.86802	1.23245	1.15542	2.9882	78.11	-0.2398	-0.0307	0.209	1116.7087	0.14743	-401.885229	-401.877262	-401.876318	-401.917808	30.199	
C	 0.057791271	 1.6984426947	 0.0307000651	-0.431842
C	 0.1072880919	 0.1873699867	 0.1711932901	 0.069976
C	 0.5529985603	-0.7214829847	-0.9720755956	-0.139012
C	 2.0594668867	-0.8465020896	-0.8624772085	-0.126079
C	 2.4714290567	-0.0194417586	 0.3474611163	-0.183545
N	 1.1937831619	-0.4376756534	 1.0486471773	-0.226953
C	 1.1593867717	-1.6342942128	 0.081935506	 0.299507
C	 1.0133241005	-3.0571732548	 0.3713162078	 0.001592
O	 1.0086399269	-3.9224901539	-0.4758809995	-0.279926
H	 0.9114868657	 2.1050699838	-0.5162894106	 0.1236
H	-0.8481547905	 1.9882800031	-0.5115861373	 0.124664
H	 0.0221917085	 2.1675372717	 1.0197361796	 0.133937
H	-0.8420586962	-0.1734113475	 0.5787054476	 0.091613
H	 0.0203624016	-1.0428727988	-1.8584215316	 0.114746
H	 2.6551752511	-1.2605183491	-1.6658897795	 0.117525
H	 3.3200797294	-0.4588074561	 0.8761587985	 0.119526
H	 2.6217105086	 1.0588782609	 0.2475720969	 0.105167
H	 0.905106364	-3.2901072215	 1.4530247774	 0.085506
