22
gdb 55847	2.97624	1.01976	0.9625	2.0969	83.71	-0.2524	0.0326	0.2849	1389.0887	0.191427	-404.354569	-404.344122	-404.343178	-404.390068	38.43	
C	-0.1360227773	 1.3263284875	 0.189190265	-0.444714
C	-0.0905802468	-0.1481406449	-0.0884136228	 0.409695
N	 0.7915229883	-0.6715300473	-0.8323594119	-0.520785
O	-1.1113142413	-0.7757637433	 0.5768478879	-0.244454
C	-1.1708934515	-2.1775453013	 0.4964147598	 0.063065
C	-2.5034136985	-2.7907699307	 0.8006747027	-0.366654
C	-1.9498455269	-2.8538356977	-0.6128473362	 0.30961
C	-2.6115740451	-1.9895698126	-1.668020535	-0.454568
C	-1.4282365803	-4.1877287905	-1.1118249835	-0.454148
H	 0.6696016912	 1.8242014227	-0.3482560917	 0.146941
H	-1.1003168474	 1.7400515712	-0.1223528132	 0.137096
H	-0.0365838401	 1.5128394095	 1.2630126141	 0.138888
H	 0.6675410119	-1.679541928	-0.9228220685	 0.219233
H	-0.2743737599	-2.6678411342	 0.8716896152	 0.101234
H	-2.5265770381	-3.6928479751	 1.4026968394	 0.113898
H	-3.3176568563	-2.0989230466	 0.9868968378	 0.124065
H	-2.9293350176	-1.0287032342	-1.2569760644	 0.125289
H	-1.9266858	-1.7895129388	-2.4994819391	 0.124407
H	-3.4952254935	-2.4927326269	-2.0763185687	 0.115852
H	-2.2471013645	-4.8086912626	-1.4934141562	 0.120832
H	-0.7084719818	-4.0513194447	-1.9276442302	 0.120866
H	-0.9310130645	-4.7509549612	-0.3155858506	 0.114352
