21
gdb 121731	4.08538	0.61926	0.55789	1.762	76.75	-0.2722	0.0121	0.2843	2026.2394	0.179989	-461.402242	-461.391307	-461.390363	-461.440532	37.44	
C	 0.0534651304	 1.5610792136	 0.2130766018	-0.386858
C	 0.0531498605	 0.0391492813	 0.0532917056	-0.155949
C	 0.693358458	-0.6729364085	 1.2453361935	-0.312603
C	 0.6887346244	-2.1812632908	 1.1104443938	 0.449489
O	 0.2088972304	-2.8079975502	 0.2009806977	-0.348416
O	 1.3088221485	-2.7606839451	 2.1650442173	-0.26601
C	 1.3475260265	-4.2024149702	 2.1665010876	-0.076004
C	 2.1033789064	-4.6043537062	 3.4197925084	-0.068877
O	 1.4545555028	-4.1675536466	 4.5974170187	-0.418317
H	 1.0722970279	 1.9532520577	 0.3086796501	 0.114357
H	-0.4094983745	 2.0471590618	-0.6507422595	 0.117781
H	-0.5030573423	 1.8688317274	 1.1055368309	 0.114498
H	-0.9706921389	-0.3280067375	-0.073219772	 0.115692
H	 0.5854383806	-0.2452078028	-0.860702399	 0.113477
H	 1.7318177735	-0.3504799303	 1.3922438259	 0.129037
H	 0.1768942615	-0.4191580535	 2.1802476191	 0.127684
H	 0.3236814678	-4.5879324846	 2.1796312623	 0.128203
H	 1.8426767237	-4.5596105651	 1.2579707525	 0.120714
H	 2.1546561871	-5.6968324932	 3.4707920455	 0.116807
H	 3.135093988	-4.2230228108	 3.3601659767	 0.09583
H	 1.3383273978	-3.2152827965	 4.5078680831	 0.289465
