13
gdb 1230	8.48513	1.20323	1.10987	4.2342	52.44	-0.2504	-0.0282	0.2221	990.0316	0.100843	-377.817369	-377.809642	-377.808698	-377.85006	26.379	
N	 0.0319129562	 1.3475347596	 0.057927149	-0.564465
C	 0.0273751318	-0.0378631748	 0.0394816042	 0.46213
O	 0.983353359	-0.708716256	 0.3775100677	-0.379907
N	-1.1572055101	-0.5857774168	-0.4230661519	-0.351768
C	-1.2484640485	-2.0067815961	-0.6787054369	-0.23928
C	-2.397769859	-2.6492674145	 0.0796342418	 0.156482
O	-3.04788125	-3.5736203854	-0.3306829986	-0.234777
H	 0.801630322	 1.7274475783	 0.5874538496	 0.266302
H	-0.845437776	 1.8236307725	 0.2039619783	 0.250551
H	-1.784218947	 0.017170771	-0.9315275656	 0.247267
H	-1.3400361763	-2.2470870541	-1.7438633429	 0.128809
H	-0.3104761499	-2.4435656153	-0.3114125206	 0.178843
H	-2.5877257723	-2.1854694484	 1.0751227759	 0.079815
