18
gdb 62749	2.48974	1.56006	1.26309	2.9507	74.07	-0.246	0.0197	0.2657	1065.0803	0.145125	-439.05879	-439.049634	-439.04869	-439.092026	34.537	
C	-0.0046274575	 1.5603428818	 0.0410013258	-0.466129
C	 0.0692301168	 0.0529030622	 0.0620359228	 0.314592
O	-1.0777584248	-0.5962419451	-0.419824831	-0.456217
C	 1.3263324868	-0.7343309039	-0.1626971969	-0.038188
O	 2.467119944	-0.014225315	 0.36798462	-0.27443
C	 1.9252733489	-0.1060754244	 1.6531292614	 0.387209
N	 2.4094062128	 0.2237526734	 2.7605468895	-0.557558
C	 0.667032922	-0.7844028704	 1.2112825243	 0.141469
C	-0.0857180534	-1.824944632	 1.9849526928	-0.500675
H	 0.920377708	 2.0140409705	 0.399532703	 0.148951
H	-0.1756554826	 1.9158166126	-0.9829917227	 0.109997
H	-0.8343487976	 1.9060761105	 0.6642607018	 0.134996
H	-1.2190225397	-0.3074027674	-1.3284219951	 0.290241
H	 1.5037292759	-1.4908983304	-0.9158233969	 0.12285
H	 3.3400198014	 0.6307826958	 2.6530378547	 0.229797
H	-0.4887474621	-1.3900549541	 2.9052203665	 0.139713
H	-0.9168358807	-2.2140184584	 1.395061318	 0.144932
H	 0.5696015919	-2.6540081957	 2.2687654622	 0.128448
