15
gdb 106546	2.07866	1.72458	1.17391	1.0691	61.79	-0.2586	-0.0333	0.2253	1046.2762	0.110444	-494.823957	-494.81562	-494.814676	-494.857362	30.62	
O	 0.4694336835	 0.5363855045	 0.7506117551	-0.407598
C	-0.1930770028	 0.1598986502	-0.4431240269	-0.220738
C	-1.5033649036	-0.4944539222	-0.1128383846	 0.193522
O	-2.544060469	-0.6823841384	-1.1861304252	-0.366015
C	-3.2121073988	-1.2700204379	 0.0213590954	-0.142243
C	-1.8469807697	-1.9504273263	 0.3576417069	 0.163436
O	-1.4309503124	-2.9825132386	-0.4681197336	-0.444771
C	-2.695624245	-0.0019719291	 0.7328463585	 0.454192
O	-3.0366310809	 0.9089239903	 1.4159324594	-0.320174
H	-0.0560379295	 1.223556164	 1.1758784041	 0.303567
H	-0.3719963968	 1.0093067487	-1.1185302422	 0.118939
H	 0.4646606695	-0.5476844231	-0.9585221284	 0.132035
H	-4.2035979131	-1.695930956	-0.112413209	 0.122032
H	-1.6417703161	-2.2172876869	 1.3958210358	 0.11891
H	-1.6468284154	-2.7072908992	-1.3709258152	 0.294905
