20
gdb 93284	2.23323	1.8135	1.12476	3.7135	79.31	-0.2378	0.0333	0.2711	1117.889	0.172684	-403.193292	-403.184827	-403.183883	-403.226173	32.904	
C	-0.6878199533	 1.2282820098	-0.0070809651	-0.413655
C	 0.0841321253	-0.0856837784	-0.0850010534	-0.074646
C	 1.2521690525	-0.0474732903	-1.1060587711	-0.180307
N	 2.1962448003	-1.0116985999	-0.5662884289	-0.335399
C	 2.0497593858	-1.2445949927	 0.7769394012	 0.378015
O	 2.8115798445	-1.8714124997	 1.4848562041	-0.399852
C	 0.7714074963	-0.5655079733	 1.1940726322	 0.227979
C	 0.8194556291	 0.1912096353	 2.5092274695	-0.303452
C	 0.0603309088	-1.0979423141	 2.4090545144	-0.303751
H	-0.036296793	 2.0560184403	 0.2912035751	 0.122706
H	-1.1249930864	 1.4782523555	-0.9797088981	 0.117015
H	-1.5092385102	 1.1669680032	 0.7141913179	 0.121427
H	-0.6051801033	-0.8767633339	-0.4075607105	 0.088995
H	 0.9252519506	-0.326493489	-2.1127944034	 0.111546
H	 1.6884508024	 0.9615376244	-1.1620073809	 0.102188
H	 3.068750485	-1.2377673424	-1.0173887577	 0.248851
H	 1.7658349833	 0.1790489637	 3.0382379254	 0.133384
H	 0.2584484463	 1.115922435	 2.5826397511	 0.113232
H	-1.0242592626	-1.0566094447	 2.4112296397	 0.108998
H	 0.4961394984	-1.9771850187	 2.8708087485	 0.136728
