17
gdb 45297	4.32023	1.26303	1.01464	4.5856	85.13	-0.2306	-0.0576	0.173	1130.3597	0.138578	-384.743212	-384.736308	-384.735363	-384.774578	27.631	
O	 0.0486541786	-0.0410411165	 0.0072843594	-0.336763
C	 0.0097084108	 1.1672762569	-0.0212846953	 0.396586
C	-1.2888666765	 2.02133521	-0.0629308914	-0.375922
C	-0.7880072836	 3.4249483755	-0.4195558528	-0.055144
C	-1.2435200883	 4.7416010221	 0.2524027502	-0.307492
C	 0.0637225131	 5.5040590961	 0.3728145065	-0.053835
C	 1.1419921111	 4.7226880569	 0.171153475	-0.188833
C	 0.6929141378	 3.367418587	-0.0870521175	 0.376967
C	 1.1507343515	 2.1100691887	 0.0494356975	-0.385846
H	-2.0144972302	 1.5945495858	-0.7583058284	 0.122197
H	-1.7334002462	 1.9903091747	 0.9388167387	 0.128411
H	-0.8727355376	 3.5720772812	-1.5049199312	 0.105712
H	-2.0042647536	 5.2855412687	-0.3161374811	 0.115397
H	-1.6635250067	 4.5666380091	 1.2531994708	 0.123666
H	 0.1025677013	 6.5506188211	 0.6548712465	 0.112541
H	 2.1752031973	 5.0281375876	 0.276265745	 0.113609
H	 2.1616187511	 1.7866061053	 0.2595916981	 0.108749
