18
gdb 97411	5.96186	0.73086	0.70204	4.3174	77.63	-0.2467	0.0236	0.2702	1631.7067	0.145627	-439.029533	-439.020695	-439.019751	-439.064561	31.53	
C	 0.1013181441	 1.3667557577	 0.0803760735	-0.315388
N	-0.112391955	-0.0606322793	-0.0277163464	-0.204031
C	 0.5219323	-0.674647826	-0.9211457308	 0.131569
O	 0.3516812845	-2.0026615806	-1.1017115123	-0.208842
C	 1.2018363036	-2.6328950154	-2.0345458037	 0.121717
C	 2.5159156422	-3.3299144126	-1.5167798322	-0.294333
C	 1.9763562469	-4.6295926507	-2.1268893052	 0.029762
O	 0.7548827078	-4.9127379259	-1.4455603243	-0.228205
C	 0.7086203197	-3.9900662069	-2.5339405337	-0.007808
H	 0.8265576768	 1.7697074983	-0.6462000494	 0.093895
H	-0.8502275029	 1.8929328603	-0.0574755172	 0.129017
H	 0.4545912682	 1.6095928749	 1.0889838266	 0.12893
H	 1.2348832221	-0.2090065984	-1.6215691217	 0.069602
H	 1.4219829918	-1.9614200542	-2.8737865254	 0.091587
H	 3.4190704737	-2.9334195643	-1.9853262824	 0.109514
H	 2.6292566854	-3.3610506001	-0.4318694619	 0.130578
H	 2.51088202	-5.4572870313	-2.5758277339	 0.113281
H	 0.0180559814	-4.2031773156	-3.3411862697	 0.109154
