16
gdb 15745	6.68996	1.01835	0.94931	1.8999	71.56	-0.2576	-0.017	0.2406	1219.1262	0.131532	-379.951355	-379.943416	-379.942472	-379.984236	28.53	
N	 1.0504035326	-0.002089554	 0.1006422124	-0.466495
C	-0.11198625	 0.5032433468	 0.0128844033	 0.101304
N	-1.2306596782	-0.2828277008	 0.235422052	-0.328836
C	-2.5307532923	 0.1894500292	 0.1591249188	 0.458182
O	-2.7834503411	 1.3482612676	-0.1134874183	-0.376519
C	-3.5801685399	-0.8314388615	 0.4362675351	-0.141481
C	-4.8455192851	-0.343675413	 1.1225097833	-0.246662
C	-4.8875702884	-0.6937341652	-0.3264317482	-0.246664
H	 1.7570302902	 0.7055112287	-0.0913188262	 0.232398
H	-0.3777030668	 1.5339218771	-0.2285445859	 0.140292
H	-1.0537309742	-1.2505286515	 0.4639331689	 0.260837
H	-3.2409213291	-1.8351346378	 0.6689335628	 0.086162
H	-5.3057897618	-1.0130798954	 1.8397568511	 0.120203
H	-4.8613067735	 0.7081679278	 1.3819978157	 0.143537
H	-4.9314037093	 0.1240657232	-1.0358300618	 0.143537
H	-5.3776106631	-1.6104000614	-0.6329836029	 0.120206
