25
gdb 113703	2.82886	0.9702	0.89015	1.366	89.59	-0.2598	0.0667	0.3265	1506.5388	0.226331	-389.489301	-389.47822	-389.477276	-389.525129	41.911	
C	-0.9613542057	 1.6006174807	 0.4088449485	-0.37492
C	-0.3245695224	 0.224747155	 0.1736354106	-0.221713
C	-0.4137053862	-0.655835893	 1.4081462336	 0.001628
C	-1.5762008543	-1.6012366798	 1.6180513074	-0.312584
C	-0.1823906504	-2.152466062	 1.4636156274	-0.012045
C	 0.2139342748	-3.0633380451	 0.297358033	 0.315487
C	 1.7319160337	-3.0050341663	 0.0745108111	-0.428953
C	-0.2329137216	-4.4976241396	 0.6043793285	-0.384578
O	-0.4685003897	-2.7165384362	-0.9149020628	-0.459524
H	-0.4628607037	 2.1316092818	 1.227431979	 0.112524
H	-0.8948479638	 2.2284913048	-0.4852329146	 0.107924
H	-2.01886211	 1.5008646085	 0.6743383857	 0.121396
H	-0.8282718265	-0.2600287913	-0.667480114	 0.102892
H	 0.7264606431	 0.3625898177	-0.1172985389	 0.088569
H	-0.0765758039	-0.1382085181	 2.3052045563	 0.075595
H	-2.0647557461	-1.6495733706	 2.5853101458	 0.101677
H	-2.2362130114	-1.7403390509	 0.7675485306	 0.123082
H	 0.2873936427	-2.4812349137	 2.3888281014	 0.074281
H	 2.2757213945	-3.3129773839	 0.9729988252	 0.116119
H	 2.0227577843	-3.6659244557	-0.747917765	 0.117354
H	 2.0503518274	-1.9844270566	-0.1677245205	 0.11206
H	-1.3205901434	-4.5365690625	 0.7065872127	 0.124393
H	 0.0611848089	-5.1669596278	-0.2091730753	 0.113009
H	 0.2154216186	-4.858339202	 1.5348537938	 0.106397
H	 0.0188803812	-2.0019797133	-1.3352095995	 0.279929
