17
gdb 118337	2.54836	1.22831	0.8903	4.3574	66.76	-0.2633	-0.0259	0.2374	1264.5212	0.135685	-492.338918	-492.329501	-492.328556	-492.374226	33.703	
N	 1.2245179379	-0.6132146619	 0.0164209688	-0.565486
C	 0.0580893892	 0.0813683798	-0.1898270287	 0.479334
O	 0.0324152322	 1.2516911886	-0.5023182354	-0.370881
N	-1.1253680823	-0.6872665674	-0.0413459783	-0.144998
C	-1.144243125	-2.1602151848	 0.0241691839	-0.237048
C	-1.3135229288	-2.7386260376	 1.4340029955	-0.028246
O	-2.6358518253	-2.7067823887	 1.9054816254	-0.428136
C	-2.3276283937	-0.0105934976	-0.0183026363	 0.176067
O	-3.3928532153	-0.5544212118	 0.2006508757	-0.348154
H	 2.0391752148	-0.0190996965	 0.0381384439	 0.275496
H	 1.2437512172	-1.4025785695	 0.641134959	 0.270289
H	-1.9816108737	-2.4997276448	-0.5928723781	 0.149895
H	-0.2243205033	-2.522046372	-0.4386601737	 0.129052
H	-0.9921752299	-3.7889443549	 1.4104254411	 0.105541
H	-0.6271139931	-2.2098870563	 2.1217301597	 0.072827
H	-3.105258278	-1.9927601644	 1.4471305177	 0.30801
H	-2.2135065328	 1.0610274299	-0.2164217004	 0.156438
