16
gdb 56456	1.97818	1.33082	1.00745	2.6174	74.54	-0.2665	-0.0474	0.2191	1234.763	0.12071	-400.74636	-400.736466	-400.735522	-400.782556	34.385	
C	 1.7697194618	 1.2935281265	-0.0777226958	-0.392529
C	 0.7997100659	 0.4291893608	 0.7404638653	-0.236194
C	-0.3810361938	 0.0428126374	-0.034598799	 0.270388
N	-1.2984041606	-0.2815552972	-0.6588673654	-0.320394
C	 1.4903075332	-0.8373106753	 1.3106961558	 0.398034
O	 2.657643993	-1.044868316	 1.121124261	-0.275237
C	 0.619261781	-1.805061472	 2.1277096937	-0.440616
C	-0.1608696326	-1.144930409	 3.1648906916	 0.290565
C	-0.7865826681	-0.5776445637	 4.0195603431	-0.440283
H	 2.1429615366	 0.7423101278	-0.9427553159	 0.150802
H	 1.2686543733	 2.1996545436	-0.4243442007	 0.135945
H	 2.6242252234	 1.569541022	 0.5423833021	 0.143311
H	 0.435526277	 0.9876808426	 1.6132474119	 0.163202
H	-0.0534673581	-2.3157932069	 1.4248990523	 0.179583
H	 1.290824541	-2.5582719423	 2.5493520337	 0.162398
H	-1.3514413229	-0.0928737882	 4.7774212661	 0.211025
