19
gdb 82771	2.81861	1.86474	1.5125	1.5739	73.3	-0.2378	0.0756	0.3134	928.0397	0.162808	-423.012275	-423.005595	-423.004651	-423.042927	28.294	
O	-0.0995700177	 1.4381005058	-0.0604554774	-0.450453
C	-0.023765533	 0.0235606361	-0.0301442156	 0.157745
C	-1.4228944623	-0.5800349395	-0.2115947152	-0.094428
C	-1.7642015456	-0.1210422776	-1.6567751484	-0.249602
C	-0.6220222055	-1.0848567609	-2.0484870382	-0.064682
C	-1.0520570436	-1.9709527192	-0.8559062852	 0.145104
O	 0.0607220157	-2.6740268877	-0.3366179726	-0.285315
C	 1.2244603702	-1.9729386892	-0.8107919561	-0.089303
C	 0.6567992229	-0.6308355893	-1.2822243845	-0.103185
H	 0.7898685959	 1.7862150344	 0.0545643554	 0.2803
H	 0.4522536907	-0.3140603245	 0.9004503253	 0.068478
H	-2.1229386855	-0.4742083719	 0.6164005841	 0.065919
H	-2.7366367398	-0.4881462539	-1.9942640776	 0.095772
H	-1.6587086438	 0.9400999665	-1.8772658468	 0.118768
H	-0.4889379544	-1.4764528255	-3.0570515073	 0.064572
H	-1.894253197	-2.6489822969	-0.9937774658	 0.084355
H	 1.940423733	-1.8756733973	 0.0134952934	 0.100019
H	 1.7014830977	-2.5408473616	-1.622635481	 0.093574
H	 1.359162802	 0.0172077922	-1.8088499066	 0.062363
