18
gdb 108396	2.35594	1.3628	1.08942	3.7223	76.44	-0.2741	0.0256	0.2997	1165.0405	0.14799	-401.930754	-401.922137	-401.921193	-401.96428	32.062	
O	 0.1054459003	 1.385800966	-0.1644234905	-0.406916
C	 0.0552256593	-0.0109905928	 0.0771149125	-0.176046
C	-1.3494962392	-0.5395659514	 0.1156512963	 0.310772
C	-2.3988892012	-0.2049450695	 1.1873914046	-0.28926
C	-2.9338833693	-1.6729073434	 1.095479201	-0.238094
C	-1.8847471305	-1.9636162643	 0.016859987	-0.120281
C	-2.044569374	-1.0132983729	-1.1572339012	-0.242354
C	-3.3239235677	-0.5115994017	-1.5819471839	 0.301153
N	-4.3548340195	-0.0986671464	-1.9076779318	-0.350518
H	-0.3385155724	 1.5578091457	-1.0017890385	 0.287793
H	 0.6475642813	-0.5769334014	-0.6609384081	 0.088703
H	 0.5321221754	-0.1546890327	 1.0531904653	 0.117581
H	-1.9386974824	 0.0134856135	 2.1530432498	 0.115093
H	-3.1006574047	 0.5948618416	 0.940838177	 0.127206
H	-2.7554953421	-2.2384501578	 2.0115124226	 0.114278
H	-3.9765353776	-1.8026843597	 0.7947692121	 0.127742
H	-1.3447756555	-2.8925101183	-0.126278093	 0.103034
H	-1.3628003702	-1.2181636446	-1.978098481	 0.130114
