21
gdb 110567	3.55059	1.18678	1.04431	1.1729	84.	-0.2425	0.0944	0.3369	1246.1114	0.181668	-387.010517	-387.001911	-387.000967	-387.043697	33.107	
C	-0.2807310843	 1.3178137978	 0.0884809441	-0.239305
O	 0.3644160484	 0.0878468839	-0.1505150276	-0.258131
C	 0.8693972627	-0.5075785369	 1.0156658139	 0.145619
C	-0.084843626	-1.3422210379	 1.8996238573	-0.131047
C	-0.0832590293	-2.5326655795	 0.8784758433	-0.035727
C	 0.2916590423	-3.5556839419	 1.9648469174	-0.309843
C	 1.0937654072	-2.290600004	 2.3457633463	 0.348916
C	 2.0279831343	-2.0992195697	 3.5110928809	-0.520722
C	 1.3682305624	-1.9414958233	 0.8321647761	-0.130336
H	 0.3967399502	 2.0473051706	 0.5605008137	 0.101695
H	-0.6023032112	 1.712022869	-0.8786303385	 0.12515
H	-1.1637545047	 1.2025892843	 0.7350396843	 0.105102
H	 1.5366130809	 0.1908953576	 1.5460987235	 0.054354
H	-0.9218231478	-1.0288078546	 2.526513104	 0.063782
H	-0.7514209984	-2.6442629004	 0.0267760947	 0.078638
H	-0.5028908904	-3.8591757924	 2.6558644906	 0.086327
H	 0.8731458089	-4.427902129	 1.645296583	 0.087236
H	 2.8551743119	-2.8168408838	 3.4703295482	 0.120273
H	 2.4598057395	-1.092912067	 3.5257247592	 0.120457
H	 1.5033921851	-2.2516836455	 4.461095681	 0.119386
H	 2.198281948	-2.3061088774	 0.2248913644	 0.068174
