17
gdb 78826	3.72723	1.3244	1.15643	4.0292	76.89	-0.2282	0.0348	0.263	1072.6875	0.136774	-380.808706	-380.80123	-380.800286	-380.840579	29.067	
C	 0.0012282428	 1.5376591747	 0.0713670807	-0.33897
N	 0.1140010084	 0.088476472	-0.0168134124	-0.072556
C	 0.7769919894	-0.5286941318	-1.1578235861	-0.040706
C	 2.2990416131	-0.6497873632	-0.8660685178	-0.080499
C	 1.2972422783	-1.6611024294	-0.3400540022	-0.095916
C	 1.0670800445	-0.6442593824	 0.8421055372	-0.026989
C	 2.5056758256	-0.0522016254	 0.5300638322	-0.206553
C	 3.5425340122	-0.7294148061	 1.2908467771	 0.282289
N	 4.3595662945	-1.2616339461	 1.9131844019	-0.332058
H	 0.9319539998	 2.0880314923	-0.1368730532	 0.107088
H	-0.7531471939	 1.8750483977	-0.6464495716	 0.129504
H	-0.3460122091	 1.8082833005	 1.073581971	 0.129144
H	 0.3790413848	-0.513216508	-2.1648452667	 0.108793
H	 3.0433667203	-0.7810878168	-1.6399826232	 0.108151
H	 1.2118325814	-2.7331343279	-0.4237614432	 0.114772
H	 0.7779257598	-0.8508274162	 1.8703200412	 0.101727
H	 2.6357955082	 1.0300839461	 0.629433135	 0.112779
