21
gdb 110506	2.58898	1.51202	1.2408	1.2164	81.18	-0.2347	0.0599	0.2946	1116.235	0.182042	-387.041978	-387.033277	-387.032333	-387.075327	34.016	
C	-0.2082032416	 1.5143394516	 0.0082383638	-0.383018
C	 0.0744788764	 0.0084702263	 0.0785676325	-0.214174
C	 0.6699100789	-0.5550970366	-1.2090242021	-0.021292
C	 0.7999521825	-2.0628361501	-1.4301461726	-0.092852
C	-0.5041649252	-2.5634567714	-2.0801466651	-0.062717
C	-1.429933267	-1.3622488578	-2.2671877364	-0.30436
C	-0.124220737	-0.5651879637	-2.562036555	 0.36766
O	-0.1047429749	 0.5182824735	-3.4281813828	-0.484113
C	 0.5818441348	-1.932261208	-2.9159640154	-0.132352
H	 0.691048835	 2.0763591094	-0.2672454136	 0.119033
H	-0.984023252	 1.74390537	-0.7325254887	 0.101325
H	-0.5613828473	 1.9011088496	 0.9691000389	 0.115951
H	 0.7755433412	-0.1895650412	 0.9001349419	 0.095046
H	-0.8447433028	-0.5290221247	 0.3375003964	 0.099817
H	 1.638632893	-0.0815371809	-1.4132964768	 0.070702
H	 1.4646040409	-2.7509363451	-0.9229162711	 0.08163
H	-0.7766223731	-3.6099730936	-2.0404152548	 0.084857
H	-2.0193781934	-1.461443208	-3.1828755976	 0.102294
H	-2.0750039519	-1.0375427524	-1.4425624012	 0.082847
H	-0.5476822951	 1.2593961796	-3.0007138007	 0.280529
H	 1.1444068887	-2.2713466164	-3.7725759097	 0.093189
