18
gdb 113515	3.50412	1.03782	0.92892	3.2295	74.95	-0.2444	0.0321	0.2765	1304.2857	0.146524	-439.074897	-439.06576	-439.064816	-439.109338	32.596	
C	 0.2662098541	 1.2407722897	 0.2992518052	-0.23223
O	-0.3666715837	 0.1563243591	-0.3552008682	-0.243018
C	 0.4290767021	-0.4258151787	-1.3343315718	 0.067327
C	 1.4146362163	-1.4988178785	-0.9432697094	-0.384693
C	 0.1294875599	-1.8549250939	-1.6455152588	 0.136216
C	-1.0700102112	-2.6911266598	-1.1755573694	-0.227781
N	-1.1124670729	-3.2227024579	-2.5483305822	-0.350741
C	-0.0667788957	-2.4618008322	-3.0273174407	 0.390417
O	 0.4442950541	-2.3434882733	-4.1093230215	-0.373296
H	 1.1876964163	 0.9243959165	 0.8079402888	 0.112367
H	 0.5174107597	 2.0458049425	-0.4067764419	 0.112964
H	-0.440121	 1.6244865839	 1.0386541892	 0.130369
H	 0.6879102618	 0.2263287972	-2.1702403482	 0.106773
H	 2.3372252583	-1.5942152484	-1.5064380504	 0.13441
H	 1.4786850624	-1.7464094041	 0.1113369935	 0.124548
H	-0.8545825245	-3.4464300276	-0.4136155754	 0.114838
H	-1.9467112438	-2.1042603673	-0.8869848228	 0.129531
H	-1.8023766732	-3.7795472172	-3.0286051761	 0.251999
