23
gdb 109925	2.16161	1.29548	1.04817	2.2413	81.6	-0.2369	0.0681	0.305	1299.0585	0.202942	-425.419326	-425.408662	-425.407718	-425.454886	39.571	
C	 0.3724780751	 1.5747174199	-0.2503306873	-0.405605
C	 0.0498753006	 0.1224069387	 0.0474439695	 0.161114
O	 0.6905716482	-0.7898954247	-0.8779215783	-0.346115
C	 1.3137805672	-1.5510266425	 0.1954242053	 0.406118
C	 0.7480248857	-2.967213995	 0.2444274815	-0.424454
C	 2.8293246434	-1.5664349361	 0.0206892443	-0.429706
C	 0.7057313016	-0.5876522111	 1.2607749841	-0.096433
C	 1.6252327724	 0.206285317	 2.1693616522	-0.111506
O	 0.7973431458	 1.0534747339	 2.9587957844	-0.423641
H	 1.4522231643	 1.7447208289	-0.2930288674	 0.110798
H	-0.0482713807	 1.8572901869	-1.2203524907	 0.11905
H	-0.0536628479	 2.2215921487	 0.522200527	 0.127542
H	-1.0399206412	-0.0155021965	 0.0245600866	 0.071377
H	 1.0080251145	-3.5128369662	-0.6684717865	 0.119662
H	 1.1498810194	-3.5199059871	 1.101134835	 0.110308
H	-0.3421596333	-2.9449845308	 0.3292462953	 0.117547
H	 3.23544177	-0.5551478608	-0.0543473427	 0.115611
H	 3.3214146261	-2.083084296	 0.8517495641	 0.111489
H	 3.0826144209	-2.0955681075	-0.9037669694	 0.12287
H	-0.0298420539	-1.0848607989	 1.8986504248	 0.079534
H	 2.2020324431	-0.4869499908	 2.8030711172	 0.087813
H	 2.3496431996	 0.7959237038	 1.5908319714	 0.089556
H	 1.3652985593	 1.6062936461	 3.5035788794	 0.287072
