16
gdb 113529	3.79547	0.97339	0.87039	2.3975	66.23	-0.273	-0.0116	0.2614	1303.2887	0.124412	-475.007961	-474.999619	-474.998674	-475.041622	30.088	
O	 0.0317054814	 1.3633490447	-0.4693680378	-0.412149
C	 0.0307952174	 0.1482096174	 0.2534160904	-0.060741
C	-1.3424225596	-0.4832462349	 0.2611814285	-0.110333
N	-1.7253658446	-1.1289373431	-1.006278337	-0.38151
C	-1.5279717002	-1.9517679667	 0.1762231931	 0.11754
C	-0.6144569874	-3.1590260611	 0.3529703073	-0.147586
O	-1.6998660616	-3.834517656	 1.0780557074	-0.250361
C	-2.5652506941	-2.7805961275	 0.892131452	 0.42382
O	-3.7072077187	-2.6897174495	 1.209937589	-0.339112
H	-0.2447400212	 1.1500669281	-1.3682169915	 0.293744
H	 0.7590308393	-0.5684782589	-0.1563165031	 0.092733
H	 0.3383242233	 0.3941836815	 1.274901108	 0.120728
H	-2.1139134102	 0.0683747294	 0.7949547309	 0.122331
H	-2.7222041634	-1.0247855486	-1.1873162372	 0.25733
H	-0.3627488861	-3.6968087962	-0.5627321129	 0.139769
H	 0.2602071256	-3.0361978588	 0.9942324628	 0.133797
