16
gdb 15554	3.1811	1.92161	1.30454	4.5108	70.69	-0.2281	-0.0039	0.2242	929.4873	0.131012	-342.789437	-342.781822	-342.780878	-342.821507	27.736	
C	-0.0448347923	 1.476543559	 0.0236565964	-0.333929
N	-0.0530013051	 0.0360002799	 0.1624205743	-0.056042
C	-1.3594907306	-0.6232145047	 0.099596028	-0.205838
C	-1.1610715199	-1.861281153	 0.9274790393	-0.078654
C	-0.0154602652	-1.8075855232	 1.5956294821	-0.073445
C	 0.6955001292	-0.5023551954	 1.2972713259	-0.149446
C	 2.1265659737	-0.6715081325	 0.9721649386	 0.291421
N	 3.2515772896	-0.7927755214	 0.738536858	-0.329335
H	 0.9865632689	 1.8389656022	-0.0236616295	 0.139474
H	-0.5377169885	 1.757947509	-0.9116426133	 0.129118
H	-0.558320552	 1.9999937029	 0.852279691	 0.097258
H	-2.1703180614	 0.0000895452	 0.5244654495	 0.097462
H	-1.641730207	-0.8398295154	-0.9401015482	 0.119585
H	-1.8883409559	-2.6619318016	 0.9721514875	 0.116648
H	 0.3886388373	-2.5393754809	 2.2815577082	 0.126685
H	 0.6574507291	 0.1572067999	 2.1881175224	 0.109039
