15
gdb 69236	2.78796	1.63354	1.18213	1.9071	68.39	-0.2515	-0.0254	0.2261	1006.3513	0.113643	-453.983222	-453.975668	-453.974724	-454.01508	29.437	
O	 0.0724824641	 1.3776742791	-0.0577804294	-0.471837
C	-0.0089774211	 0.0032553673	-0.0021360201	 0.410735
C	-0.4119387534	-0.8078507416	-1.2012887002	-0.340853
C	-1.3003790776	-0.78765936	 0.043383733	-0.255575
C	-1.0606911351	-1.9250646973	 0.9931359977	 0.429047
O	-1.8294057871	-2.7579650786	 1.3976351518	-0.34918
N	 0.294615997	-1.8486466996	 1.3645536842	-0.382577
C	 0.9194538542	-0.6774579479	 0.9597493062	 0.329898
N	 2.0171233266	-0.1393424399	 1.3008976515	-0.566012
H	 0.932331216	 1.5966374385	 0.3330007334	 0.303277
H	-0.7837939025	-0.2232748881	-2.0352743608	 0.142175
H	 0.1156481454	-1.717636565	-1.4674800381	 0.131243
H	-2.2869467178	-0.3488262391	-0.0066717892	 0.132043
H	 0.6901523372	-2.5087488737	 2.0172945716	 0.263789
H	 2.5377949941	-0.6780400343	 1.9921144983	 0.223827
