16
gdb 43364	2.49178	1.8227	1.20446	3.4225	79.91	-0.2289	-0.0678	0.1611	1013.8877	0.126886	-400.748331	-400.741222	-400.740277	-400.780029	27.814	
O	 0.0583892623	-0.0029862171	-0.2927356023	-0.340818
C	 0.0351962361	 1.1634490045	 0.0655203573	 0.378672
C	-1.2479660764	 1.8162142444	 0.3807249177	-0.171922
C	-1.5793234502	 3.1208714586	 0.3116372289	-0.049432
C	-0.7948007705	 4.2706689126	-0.1012766083	-0.104045
C	 0.5341390338	 4.3744233169	-0.2632531324	-0.031149
C	 1.5662643813	 3.3757890189	 0.0674320809	-0.087243
N	 1.5244387155	 2.7435542499	 1.394778275	-0.320105
C	 1.3418854424	 1.8852215919	 0.2188342648	-0.147415
H	-2.030997297	 1.0964092396	 0.601593566	 0.114597
H	-2.6232738005	 3.3529746967	 0.5135768949	 0.10579
H	-1.3851229754	 5.1542885052	-0.3304326378	 0.100953
H	 0.921257597	 5.3122652677	-0.6536250523	 0.103028
H	 2.5528433563	 3.6226249643	-0.3192109069	 0.097547
H	 2.46649588	 2.6303607816	 1.759643305	 0.246277
H	 2.1702693152	 1.2504589244	-0.0883589806	 0.105266
