14
gdb 132378	1.94793	1.79662	0.93516	2.3683	68.93	-0.2161	0.0046	0.2207	1136.765	0.10198	-478.048028	-478.040591	-478.039647	-478.079682	29.366	
N	 0.0352933321	 1.3683697505	 0.2051973697	-0.566821
C	-0.0100091961	-0.0012180041	 0.073503714	 0.411265
C	-1.2276848047	-0.6886767323	 0.014711371	-0.298677
C	-1.1897912639	-2.0761182061	-0.0642146318	 0.462733
O	-2.370449401	-2.7365273817	-0.1216982581	-0.435169
C	 0.040937456	-2.7399995581	-0.0816374733	-0.463625
C	 1.1651179465	-1.9312177926	-0.0205578185	 0.35537
F	 2.358190424	-2.523639212	-0.0412849514	-0.077828
N	 1.1836017557	-0.6212749129	 0.0509414965	-0.399222
H	 0.9312209127	 1.7779965255	-0.0099748744	 0.259956
H	-0.7629857871	 1.8922801253	-0.1143870462	 0.254123
H	-2.1786724011	-0.171857503	 0.0376822524	 0.096178
H	-2.2021966464	-3.6837899427	-0.1695692212	 0.303238
H	 0.1288619732	-3.8174384057	-0.1435748187	 0.098479
