19
gdb 104682	2.72359	1.39376	1.09442	1.9686	70.71	-0.2399	0.0508	0.2907	1133.4492	0.158779	-460.067638	-460.05908	-460.058135	-460.101084	32.958	
O	 0.6057486044	 0.0801289541	 1.4381997174	-0.424883
C	 0.1228120902	-0.0845967599	 0.1190933891	-0.15428
C	-1.3261166431	-0.6228838531	 0.0615364782	 0.296097
C	-2.1392473801	-0.1307623038	 1.2612009407	-0.16919
O	-1.9365950317	 1.2650201494	 1.5203021506	-0.431199
C	-2.0703651791	-0.6482747378	-1.3212814297	-0.006896
C	-1.1545936703	-1.791709733	-1.8153281431	-0.237191
C	-1.6242976239	-2.0972112874	-0.3721879566	 0.003129
O	-2.9897367678	-1.6769199219	-0.785069538	-0.313625
H	 0.0816748654	 0.7965432379	 1.8199909128	 0.296193
H	 0.1663118797	 0.8654877971	-0.4369523659	 0.086819
H	 0.819744957	-0.7688975177	-0.3694663313	 0.11033
H	-3.1974363179	-0.3641393452	 1.1255078768	 0.124827
H	-1.7856641566	-0.6372106903	 2.1629857735	 0.125227
H	-2.3353544901	 1.7661643008	 0.802099631	 0.28838
H	-2.5146378866	 0.1728332256	-1.8883794475	 0.087882
H	-1.6098117298	-2.4295374462	-2.5730600225	 0.112709
H	-0.1007455025	-1.5924895822	-2.0113823665	 0.106755
H	-1.5400385072	-3.0183378865	 0.2060240708	 0.098916
