16
gdb 129876	3.88299	1.01302	0.83489	2.358	78.19	-0.195	0.0229	0.218	1335.9791	0.124825	-396.899563	-396.890876	-396.889932	-396.933774	31.779	
N	-0.154109302	 1.3441527038	-0.3835648084	-0.608327
C	-0.0247739648	-0.0229901484	-0.0865639866	 0.165419
C	-0.8236838224	-1.0711717371	-0.5051656205	-0.107158
N	-0.334748859	-2.1946938015	 0.0974464157	 0.04933
C	-0.8895361795	-3.5382522139	 0.0715375805	-0.283233
C	-1.2941594257	-3.9668332667	-1.263467716	 0.298751
C	-1.6537942931	-4.3275332462	-2.3509125153	-0.443035
N	 0.717036636	-1.941015227	 0.8880010323	-0.260901
C	 0.914446247	-0.6270747175	 0.7810553777	-0.052781
H	 0.7346692458	 1.82722427	-0.357976138	 0.244336
H	-0.5887224972	 1.5103565165	-1.281985778	 0.242494
H	-1.662735996	-1.1127804233	-1.1801074759	 0.129292
H	-0.1079625344	-4.1900278928	 0.4715454596	 0.166613
H	-1.748649829	-3.6053536356	 0.7535402344	 0.149728
H	-1.9584174554	-4.651894117	-3.3153572346	 0.206637
H	 1.7243221199	-0.1570951734	 1.3204374832	 0.102834
