16
gdb 50257	2.88878	1.36744	1.0679	4.473	71.83	-0.2399	-0.0445	0.1954	1109.9901	0.124043	-437.890353	-437.88249	-437.881546	-437.923793	28.576	
O	-0.1685916972	 0.1242511448	 0.2173813224	-0.319181
C	-0.0221537423	 1.3234429347	 0.3195022035	 0.130021
N	 1.1647714267	 1.9574953127	 0.1397629127	-0.033054
C	 2.4441789631	 1.4335596305	-0.350936051	-0.181166
C	 2.9030562898	 2.8950857638	-0.5947941554	-0.056716
C	 2.4951742386	 3.4778093704	-1.9756397027	-0.363315
C	 1.1586449952	 3.9491506925	-1.3626879593	 0.4181
O	 0.2102521727	 4.5409913001	-1.7809544802	-0.280159
C	 1.5335686406	 3.3727802948	 0.0284906866	-0.150544
H	-0.8343895634	 2.0281595755	 0.5869420271	 0.085402
H	 3.0020885741	 0.8943375505	 0.4212978031	 0.129
H	 2.3592879691	 0.7970384833	-1.2373704937	 0.131351
H	 3.8632141334	 3.2001540532	-0.1881507284	 0.098424
H	 3.102589289	 4.3316113356	-2.2934200538	 0.144303
H	 2.4236373483	 2.7772674762	-2.8124005621	 0.14083
H	 1.3981039724	 3.9844029515	 0.9234965314	 0.106704
