21
gdb 112880	2.02057	1.4788	1.01814	1.8442	78.79	-0.2434	-0.0242	0.2192	1268.1386	0.181094	-424.263706	-424.254153	-424.253209	-424.298603	35.274	
C	 0.219841621	 1.5685318546	-0.022281107	-0.389768
C	 0.3522922577	 0.0472380045	 0.0612371994	-0.177056
C	 0.6513108216	-0.5920152912	-1.3001494537	 0.018868
O	 1.8736755353	-0.1497309691	-1.8741073496	-0.285475
C	 2.8589649658	-1.2040071223	-1.9062870139	 0.116823
C	 3.8475900002	-1.0668062613	-0.7493296472	-0.393347
C	 2.0630369748	-2.5147888841	-1.8813242826	-0.354171
C	 0.7481215243	-2.1173784537	-1.2176619008	 0.369749
O	-0.0660805054	-2.8457397437	-0.7142598636	-0.312416
H	 1.1340683807	 2.0123294392	-0.4259691286	 0.132154
H	-0.61002903	 1.8565026302	-0.6773670516	 0.114691
H	 0.0336280851	 2.0022155445	 0.9647211368	 0.112862
H	 1.1471889144	-0.222923083	 0.7667420313	 0.098527
H	-0.5708446786	-0.4088362634	 0.4367596754	 0.118644
H	-0.164203686	-0.3356051692	-1.994625331	 0.102459
H	 3.3965298254	-1.0775223961	-2.8514216872	 0.087792
H	 3.3643911024	-1.2559409298	 0.2153687129	 0.120893
H	 4.6704290817	-1.7811354267	-0.8612395123	 0.116713
H	 4.2654766429	-0.0568101778	-0.7314659449	 0.129233
H	 1.8317061295	-2.8642223151	-2.894531715	 0.138018
H	 2.5452183974	-3.3348571463	-1.3459973967	 0.134807
