25
gdb 104194	2.27419	1.23542	1.19612	1.3105	88.3	-0.2483	0.0722	0.3205	1281.2619	0.226657	-389.493681	-389.483026	-389.482081	-389.528264	41.495	
C	 0.037549729	 1.5993437952	-0.1198177704	-0.392384
C	-0.0038414784	 0.078470494	 0.0807918568	-0.242406
C	-1.4117670064	-0.5317023765	 0.064212862	 0.306962
C	-2.2722732017	 0.0251947712	 1.2063434609	-0.432412
C	-2.1842842689	-0.4870122683	-1.2934986202	-0.258707
C	-2.6424236645	-1.9508760196	-1.0666726667	-0.28725
C	-1.5155905606	-2.1059279498	-0.0019749754	 0.372194
C	-0.2909212104	-2.8335875943	-0.5532601717	-0.451814
O	-1.8853779268	-2.6635667336	 1.2485306326	-0.475619
H	 1.0720553571	 1.9502870973	-0.1884052156	 0.109519
H	-0.4722288989	 1.8918654933	-1.0445567545	 0.115719
H	-0.4365572514	 2.1377746374	 0.7056098206	 0.119756
H	 0.6007573466	-0.3847543932	-0.7068009793	 0.087286
H	 0.4852372253	-0.1756945849	 1.0309635912	 0.095623
H	-2.4050526281	 1.1052997632	 1.0927951846	 0.104658
H	-3.2637006846	-0.4327884121	 1.2271513407	 0.116692
H	-1.8071680306	-0.1667345113	 2.1775676796	 0.118836
H	-2.9684912516	 0.2684460219	-1.3834894008	 0.094874
H	-1.5118804378	-0.3898344454	-2.1514608988	 0.092448
H	-3.6283571866	-2.0118166619	-0.6005067042	 0.105241
H	-2.6135606868	-2.6294995926	-1.9240104802	 0.085532
H	 0.0214741131	-2.4412411707	-1.5252939646	 0.119935
H	 0.5544281518	-2.7682437655	 0.137680609	 0.123511
H	-0.5320422845	-3.8947988487	-0.699300318	 0.099652
H	-1.9115940543	-3.6214632053	 1.1532377323	 0.272154
