21
gdb 100717	2.61642	1.06	0.95455	3.5224	76.06	-0.225	0.0607	0.2858	1348.2387	0.181213	-457.575709	-457.564721	-457.563777	-457.612351	39.224	
C	-0.1555176725	 1.4508054	-0.0697750244	-0.39366
C	 0.139388745	-0.054564948	-0.0224647527	 0.022495
C	 0.8464300027	-0.5493285891	-1.2869410792	-0.086115
O	 2.0414315096	 0.1953839296	-1.5009095753	-0.418718
N	 0.8366333136	-0.4524792265	 1.2059871326	-0.110609
C	 2.1313598786	 0.1227856818	 1.5435854743	-0.357744
C	 0.1535471337	-1.2553247928	 2.0951148365	 0.45639
N	 0.8167069727	-1.5183029919	 3.2879811846	-0.572665
O	-0.9735457498	-1.6848741476	 1.894221842	-0.419978
H	 0.7581519867	 2.0474033096	-0.1256775756	 0.127625
H	-0.7552344148	 1.6869686883	-0.954721796	 0.114594
H	-0.7206869978	 1.7526229404	 0.8160119157	 0.123893
H	-0.8092382929	-0.5930878134	 0.0281353628	 0.131603
H	 1.0616435893	-1.6221411984	-1.1777418941	 0.09489
H	 0.1564993189	-0.4274600025	-2.136777199	 0.089611
H	 2.4783773768	-0.151106881	-2.2836742574	 0.290278
H	 2.090398079	 0.701389416	 2.474513715	 0.126523
H	 2.9046717652	-0.6512387371	 1.6510126757	 0.113072
H	 2.4553248438	 0.770090412	 0.7324424945	 0.164245
H	 1.8235542574	-1.534391482	 3.3023011581	 0.247409
H	 0.3772755248	-2.2665404873	 3.8011565917	 0.256861
