15
gdb 129578	5.19334	1.05076	0.87459	12.65	73.86	-0.1945	-0.0132	0.1813	1235.1349	0.113203	-446.296056	-446.287878	-446.286934	-446.329114	30.174	
N	 0.0350020884	 1.3518786013	-0.0242621089	-0.527784
C	 0.0670588199	 0.0319381244	 0.0484343046	 0.523652
N	 1.2501595577	-0.6540175107	 0.12088646	-0.57133
N	-1.0833170394	-0.6424104479	 0.0954395295	-0.411294
H	-1.0515758696	-1.6482650993	 0.133015633	 0.271878
C	-2.3616047836	-0.0345617312	 0.1313616093	 0.383279
C	-3.6231468678	-0.5895911971	 0.2166886152	-0.199627
N	-4.4921870351	 0.4470086492	 0.2157487625	-0.207234
N	-3.7999419423	 1.574491531	 0.1335782288	-0.165635
N	-2.4876149386	 1.3063948664	 0.0789497334	-0.319943
H	 0.8866624765	 1.8818260305	 0.049479042	 0.263525
H	-0.9687630543	 1.7601356191	 0.0072933097	 0.327763
H	 2.0591622283	-0.190346659	-0.2622750276	 0.27744
H	 1.2274468088	-1.6433886876	-0.0712774107	 0.27373
H	-3.9421600689	-1.6189339891	 0.2771938291	 0.081581
