21
gdb 122094	2.41579	0.79794	0.62273	5.4232	80.96	-0.2401	0.0315	0.2716	1792.7048	0.180527	-420.389952	-420.378815	-420.377871	-420.427447	37.893	
C	 0.0813668783	 1.2551841618	-0.6584421694	-0.328039
N	-0.1414085128	 0.2063265913	 0.3256494921	-0.271432
C	-1.3792397354	-0.5570486242	 0.209053367	-0.145556
C	-1.2953091051	-1.8931346066	-0.5660050107	-0.203885
C	-0.9264547612	-1.7342258303	-2.0366161952	-0.063763
O	-0.9866915455	-3.0095712681	-2.6301651201	-0.229435
C	-0.6413597139	-2.9983583895	-3.9954438272	-0.231769
C	-1.9106396446	-0.8326406409	 1.5627842336	 0.299886
N	-2.3223421776	-1.0680555384	 2.616321103	-0.324641
H	 1.0280716443	 1.7533748419	-0.4315218819	 0.132141
H	 0.118093799	 0.9211522188	-1.7085509194	 0.102093
H	-0.710093622	 2.0076751043	-0.5741354932	 0.1338
H	 0.6569037656	-0.4095083064	 0.415620631	 0.228288
H	-2.1147988196	 0.089878113	-0.2865512087	 0.127287
H	-0.5645804235	-2.5472685563	-0.0766411888	 0.122419
H	-2.2619265327	-2.4042222891	-0.503316092	 0.132826
H	-1.6247418452	-1.0394158834	-2.5371625719	 0.086509
H	 0.0849296426	-1.3087798436	-2.1464064977	 0.089297
H	-0.7168932476	-4.0255540361	-4.3593342856	 0.132722
H	-1.3208761661	-2.3614508036	-4.5835415039	 0.106294
H	 0.3879193631	-2.6391785348	-4.1536343308	 0.104958
