13
gdb 133379	3.07797	1.42444	0.97498	4.3083	67.65	-0.2277	-0.0648	0.1628	1093.8083	0.088919	-494.00798	-494.000465	-493.999521	-494.040082	28.483	
N	 0.0869843987	 1.4187304038	 0.1610494167	-0.559343
C	 0.0131435955	 0.0480718894	-0.0315026069	 0.407538
N	-1.1667643529	-0.4690119241	-0.1631572339	-0.181899
O	-1.2212740087	-1.8411012525	-0.481558023	-0.289989
C	-0.1249092567	-2.6608179901	-0.5704524881	 0.326823
N	-0.2210722573	-3.9017301696	-0.8139361492	-0.525155
C	 1.1666126946	-2.0054876608	-0.378385287	 0.264053
F	 2.2304668303	-2.7722679905	-0.4781726367	-0.027935
C	 1.2524452088	-0.6946508765	-0.1273219052	-0.308097
H	 0.8013245182	 1.7215903434	 0.8080858664	 0.259429
H	-0.8135694346	 1.838352344	 0.3522337244	 0.266617
H	-1.2008999084	-4.1702439422	-0.9183569821	 0.234733
H	 2.2084663625	-0.1994158242	-0.0121634454	 0.133226
