19
gdb 66685	2.46574	1.97959	1.60549	1.7571	77.84	-0.2361	0.0884	0.3245	945.097	0.15897	-385.81685	-385.809221	-385.808277	-385.84846	30.625	
C	-0.0407719103	 1.4394781446	-0.0265469814	-0.523388
C	 0.021066958	-0.0563856865	 0.0146150386	 0.292381
C	-0.5993122514	-1.1091563959	-0.8876314385	-0.233012
C	 0.4774145682	-2.1056289138	-0.366026657	-0.09332
C	 1.237125835	-0.9616046346	 0.376105032	 0.015637
O	 0.9853062826	-1.5422692403	 1.6769308381	-0.295288
C	-0.1763460413	-2.1352879447	 1.0511741163	 0.015651
C	-1.088011309	-0.9772507613	 0.5445004355	 0.2924
C	-2.4011705143	-0.5203396194	 1.1012518557	-0.523393
H	 0.6586974135	 1.8482281707	-0.7645563841	 0.120173
H	-1.0412909794	 1.7936541956	-0.2955557777	 0.121021
H	 0.2129792142	 1.8705349976	 0.9490833962	 0.127525
H	-1.1240140241	-1.0186279401	-1.8284760114	 0.087761
H	 0.937256204	-2.9505005503	-0.8721295838	 0.077258
H	 2.2621611674	-0.6244225102	 0.2223621189	 0.074936
H	-0.5890149316	-2.9918857897	 1.5840616472	 0.074938
H	-2.2991772984	-0.2153870307	 2.1494205439	 0.127529
H	-2.7989023299	 0.334351935	 0.5443351712	 0.121021
H	-3.1529465132	-1.3164692059	 1.0565252403	 0.12017
