16
gdb 64878	3.53801	0.97005	0.8981	4.915	74.1	-0.2457	0.0094	0.2551	1303.4574	0.121696	-437.849061	-437.83981	-437.838866	-437.884481	32.828	
O	 0.154379363	 1.5332539532	-0.27095651	-0.450862
C	 0.0156939822	 0.1524215522	-0.019888863	 0.214166
C	 0.1470808789	-0.260534196	 1.4986930788	-0.23253
N	-1.2660610499	-0.6270549719	 1.4674248185	-0.040902
C	-1.4982509499	-0.2239372889	 0.084911014	-0.203682
C	-2.1331991344	-1.09254435	 2.3920877032	 0.134537
O	-3.3115486762	-1.2970180357	 2.1843764065	-0.328694
C	 0.8122974489	-0.6538939122	-0.9329149806	 0.292542
C	 1.5027117637	-1.2934128989	-1.6807530549	-0.482711
H	 1.0794148323	 1.7118225134	-0.47323116	 0.290901
H	 0.8332532143	-1.0870160139	 1.7060056254	 0.125466
H	 0.381155217	 0.5996999217	 2.1351547871	 0.123497
H	-2.1471963828	 0.6500643035	-0.0234116052	 0.139986
H	-1.8387452842	-1.0283367033	-0.5711224133	 0.136933
H	-1.638982624	-1.2742897018	 3.3688647835	 0.069887
H	 2.100325591	-1.8646365515	-2.3482974202	 0.211464
