16
gdb 22642	3.59542	0.99454	0.78657	0.9932	92.22	-0.2165	-0.0542	0.1623	1379.4487	0.123383	-400.701141	-400.692532	-400.691588	-400.734968	31.944	
O	-0.0664954786	 1.3390214311	 0.008506827	-0.393694
N	 0.0448588012	-0.0616472992	 0.0042338348	-0.248524
C	-1.1057420598	-0.6243474806	 0.0113207795	 0.399056
C	-1.2504466258	-2.1386235342	 0.008617962	-0.306184
C	-2.7811305931	-2.3821304025	 0.0189372967	-0.333197
C	-3.3843279157	-0.9855294822	 0.0269711148	 0.178915
C	-2.4315740498	-0.0275416755	 0.0224862959	-0.260198
C	-4.7809221358	-0.7822753944	 0.0375731584	 0.211016
C	-5.9802086364	-0.6576348373	 0.0467260887	-0.394443
H	 0.8558585956	 1.614907661	 0.0024086748	 0.306981
H	-0.7732277324	-2.5722531467	-0.8741568747	 0.130678
H	-0.7607684488	-2.5765042404	 0.8824300168	 0.130679
H	-3.1239212431	-2.9438437582	-0.8567005007	 0.126347
H	-3.1113751082	-2.9485664347	 0.8963443708	 0.126342
H	-2.6066184473	 1.0379057051	 0.026451461	 0.12779
H	-7.0344077619	-0.5304540913	 0.0541738143	 0.198436
