23
gdb 119051	1.94852	1.12746	0.88161	0.9779	82.62	-0.241	0.0794	0.3204	1479.8911	0.202642	-425.40098	-425.390059	-425.389115	-425.437201	39.72	
C	 0.7679229167	 1.3251421209	-0.7967064532	-0.383251
C	 0.7137469812	-0.1727543129	-0.4873471396	-0.159511
C	 0.6580121798	-0.4687207773	 1.0168367897	-0.249122
C	 0.5500352432	-1.9492168296	 1.3237774516	 0.410125
C	 1.7898520805	-2.8091227706	 1.2988443998	-0.379101
C	 1.094515104	-2.5082053258	 2.6118795227	 0.024408
O	 1.6678878468	-1.6197494688	 3.5265972642	-0.422045
O	-0.5790249082	-2.6067226181	 0.80758034	-0.283875
C	-1.8012669944	-2.2536894061	 1.4280441204	-0.252236
H	 1.6501962459	 1.7931007569	-0.3452918477	 0.111575
H	 0.8089505609	 1.5088922319	-1.8750245513	 0.109616
H	-0.1143537011	 1.8440290116	-0.4048076827	 0.111201
H	-0.1589607022	-0.6243178707	-0.9726681167	 0.10672
H	 1.5902318933	-0.6723672255	-0.9192751346	 0.094443
H	 1.5459724509	-0.0760355147	 1.52156007	 0.110012
H	-0.1930687153	 0.061992605	 1.4646589047	 0.093425
H	 1.6968351139	-3.8097719747	 0.8927702489	 0.119955
H	 2.7337610416	-2.3088317498	 1.1085565454	 0.111654
H	 0.5223341713	-3.3247484665	 3.052481479	 0.092024
H	 2.4577452474	-2.0349659252	 3.8885716011	 0.288694
H	-1.7533334493	-2.3763476567	 2.5192529025	 0.110072
H	-2.0986449005	-1.2191307155	 1.2087520552	 0.110953
H	-2.5635032463	-2.9262024777	 1.0270089706	 0.124264
