19
gdb 76058	2.73494	1.2397	1.11432	1.1199	83.	-0.2427	0.0374	0.28	1190.1822	0.157257	-385.827323	-385.818115	-385.81717	-385.861339	34.667	
O	-0.0107685703	 1.4047595453	-0.0569914906	-0.423818
C	-0.0332819597	 0.015762414	-0.0256292302	 0.059722
C	-0.4882099032	-0.7107946445	 1.2423417595	-0.359844
C	-0.8842329651	 0.0982826594	 2.3517574302	 0.3049
C	-1.1966330342	 0.849787877	 3.2410144993	-0.43816
C	-1.3380049481	-0.7138236231	-0.0275729632	 0.31347
C	-2.693978473	-0.0443905095	-0.2532836133	-0.291156
C	-2.961290183	-1.0904211198	-1.3789501456	-0.20501
C	-1.724372852	-1.9114782023	-0.9013709743	-0.304485
H	-0.1534739536	 1.7292147735	 0.8425134615	 0.291391
H	 0.8037338801	-0.4284121786	-0.5613891548	 0.101253
H	 0.0282645922	-1.6354065089	 1.4857854221	 0.111958
H	-1.4923427011	 1.475221667	 4.0466822189	 0.200467
H	-3.3708604677	-0.1416284723	 0.6003017862	 0.108018
H	-2.6505708762	 1.0053944654	-0.5518098895	 0.114721
H	-3.9236542267	-1.604682937	-1.3455307229	 0.101122
H	-2.8247416878	-0.6723929647	-2.378683006	 0.109726
H	-1.0019499244	-2.2118381786	-1.6660617972	 0.101566
H	-2.0005473661	-2.7948985223	-0.31719309	 0.10416
