20
gdb 61065	3.24951	1.0518	0.93077	4.1562	82.72	-0.2317	0.0069	0.2386	1327.5641	0.171578	-403.183549	-403.17446	-403.173516	-403.218326	32.914	
C	 0.401748061	 1.3933414444	-0.0292018998	-0.348921
N	-0.1187925705	 0.0387035343	 0.0478960461	-0.056141
C	-0.4191912046	-0.4942221346	 1.2670541306	 0.147908
O	-0.3393777162	 0.0884140308	 2.3308904389	-0.351986
C	-0.1445434608	-0.7549641345	-1.1796841668	 0.00681
C	 1.1840677143	-1.5071373787	-1.498194259	-0.222723
C	 0.7596788019	-2.8434314424	-2.1560012249	-0.256421
C	-0.6880831892	-2.9817426062	-1.7516233102	-0.064896
C	-1.1746684424	-1.8647939086	-1.2153498412	-0.098125
H	 1.4487566455	 1.4021936053	-0.3566831336	 0.123977
H	-0.1859340918	 1.9913870279	-0.7353572415	 0.122248
H	 0.3367508416	 1.8328998543	 0.9658272973	 0.168158
H	-0.7626586149	-1.5411172786	 1.1844621609	 0.082647
H	-0.3744585903	-0.0384138822	-1.9820536341	 0.091104
H	 1.862513704	-0.9220691779	-2.1233781275	 0.103323
H	 1.6953630318	-1.7027907673	-0.5507235045	 0.117082
H	 0.8467032633	-2.8010410934	-3.2504808539	 0.113046
H	 1.3776503773	-3.6890687955	-1.8343942897	 0.111659
H	-1.2622885924	-3.8830641843	-1.9356243589	 0.102142
H	-2.1987691276	-1.7043155027	-0.8983625582	 0.109107
