19
gdb 78930	2.59761	1.95468	1.49025	1.7271	77.27	-0.2309	0.0703	0.3011	949.3233	0.160064	-385.819779	-385.812447	-385.811503	-385.851068	30.283	
C	-0.0904340119	 1.4293861055	-0.0035627837	-0.517416
C	-0.0371794659	-0.0675117823	-0.0643074956	 0.349817
C	-0.9902890699	-1.0048514384	 0.7046283744	-0.140631
C	 0.5045545693	-1.05520279	 0.9442067506	-0.159606
C	 0.5703025366	-2.0963295141	-0.2143218017	-0.056303
C	-1.0002799373	-2.2398559786	-0.2275828047	-0.111981
C	-1.021003235	-1.6928796244	-1.6760529113	 0.151895
O	-2.1247797025	-0.9671283141	-2.1494439751	-0.445894
C	 0.2929003329	-0.9715865482	-1.2828408559	-0.163794
H	 0.8728407328	 1.8749118514	-0.2770289594	 0.122845
H	-0.8453151003	 1.8363732467	-0.6874795371	 0.116877
H	-0.3380931221	 1.7730904974	 1.0068865878	 0.120173
H	-1.7670715694	-0.6321416979	 1.3606964972	 0.083367
H	 1.0825891836	-0.9071012816	 1.8472571134	 0.085785
H	 1.2701384152	-2.9167993841	-0.3428201002	 0.070291
H	-1.5418911386	-3.1337784128	 0.0785205499	 0.064359
H	-0.830364174	-2.4897793897	-2.4023790443	 0.08587
H	-2.3364966824	-0.3053508935	-1.4815533328	 0.283363
H	 1.0208151491	-0.6210163812	-2.0139529416	 0.060985
