16
gdb 17986	3.86938	1.83608	1.54289	3.6268	67.95	-0.2327	0.0069	0.2395	848.9663	0.13241	-342.749197	-342.742328	-342.741384	-342.780902	25.752	
N	 0.1301322036	-1.1429160514	 0.3553344972	-0.331336
C	 0.0553480445	-0.0009018297	 0.1877557512	 0.280846
C	-0.0268051712	 1.4411173566	-0.0045837671	-0.09693
C	-0.4639598926	 2.2960979985	 1.2291190712	-0.276966
C	 0.868646719	 3.0595639266	 1.0644732047	 0.051967
C	 2.0767331583	 2.5643932458	 1.8875294017	-0.248436
C	 2.4084166243	 1.635971792	 0.686793312	-0.181106
N	 1.2725930589	 2.1969229482	-0.123335204	-0.145206
H	-0.640337778	 1.6278173133	-0.8916103441	 0.132517
H	-1.3698066416	 2.8803377652	 1.0607936224	 0.122562
H	-0.5678776688	 1.739627101	 2.1626811925	 0.12809
H	 0.790785574	 4.1351421312	 0.8877543997	 0.084698
H	 2.8281615627	 3.3307126106	 2.0870744757	 0.114288
H	 1.8294420803	 2.065274915	 2.8278561585	 0.112336
H	 3.3653104507	 1.8374329327	 0.1988225124	 0.117586
H	 2.3391766159	 0.5613862344	 0.8766659359	 0.13509
