17
gdb 29291	5.4461	0.98505	0.89375	1.2953	77.23	-0.1933	0.0158	0.2091	1306.743	0.137681	-418.02962	-418.021573	-418.020629	-418.062546	30.585	
N	-0.0158974279	 1.3484918906	 0.3588160408	-0.598763
C	-0.0430914669	-0.0139106322	 0.0820441452	 0.256334
C	-1.0781584334	-0.8462632352	-0.2030120229	-0.131513
O	-0.5562009095	-2.1239822596	-0.3171634775	-0.191642
C	 0.7653337164	-1.9770717531	-0.0933841392	 0.418772
N	 1.1304687601	-0.7521676306	 0.147420454	-0.367673
C	 1.6216503487	-3.1645918962	-0.1452147126	-0.102266
C	 1.1051331736	-4.5077110568	 0.3384282351	-0.262227
C	 1.32739031	-4.2849047773	-1.1265997778	-0.263165
H	 0.9016290667	 1.7391282421	 0.1907224885	 0.253954
H	-0.7296739345	 1.8817278959	-0.1175442801	 0.246221
H	-2.1385037802	-0.7418640456	-0.3424874054	 0.126978
H	 2.6602536455	-2.928592399	 0.0487075691	 0.112251
H	 1.7984401484	-5.138350763	 0.8831312127	 0.120288
H	 0.0825752775	-4.5385407403	 0.6956387027	 0.131787
H	 0.4545845849	-4.1658650268	-1.7577050183	 0.130833
H	 2.1758732006	-4.7601538229	-1.6055328344	 0.119832
