18
gdb 39324	2.86258	1.83498	1.36431	2.8785	70.84	-0.2383	0.0667	0.305	958.9807	0.150451	-439.032593	-439.025596	-439.024652	-439.064322	27.601	
C	 0.1747705944	 1.5362688429	 0.2236463222	-0.084302
O	 1.4684809515	 1.4912708347	-0.4208572911	-0.29487
C	 1.384235432	 0.0622645602	-0.6014370775	 0.135099
C	 2.4549846642	-0.7491672177	 0.0825111442	-0.076501
N	 2.6255763996	-0.5388533301	 1.5310532071	-0.314013
C	 2.0086868492	-1.7811517917	 1.0589205263	-0.042879
C	 0.5220816467	-1.904154932	 1.3446560672	-0.090085
O	-0.1307920817	-0.6519882045	 1.292730291	-0.249345
C	-0.0167917607	 0.0200860965	 0.0604204607	 0.040167
H	 0.2447004426	 1.8463034438	 1.2710527152	 0.121953
H	-0.5311981583	 2.1767393524	-0.3175521456	 0.096942
H	 1.3721457374	-0.1949843118	-1.6696574011	 0.070151
H	 3.3473645232	-0.9510619816	-0.5049411616	 0.086981
H	 3.5971292795	-0.694842265	 1.7845636557	 0.235164
H	 2.5691309176	-2.7121701153	 1.1175361032	 0.087122
H	 0.0726860671	-2.6254481718	 0.639743704	 0.087477
H	 0.357163223	-2.2803436073	 2.35933889	 0.116692
H	-0.8235778173	-0.2884612818	-0.61820426	 0.074246
