17
gdb 53012	4.35564	0.91425	0.85162	1.3498	78.79	-0.2198	0.0353	0.2551	1404.9729	0.134634	-421.773718	-421.765005	-421.764061	-421.808307	31.327	
C	 0.0384037047	 1.5220115431	-0.1694584305	-0.508933
C	-0.0030912245	 0.072769802	-0.0512316214	 0.264752
C	-0.0345689296	-1.1263085225	 0.0586753029	-0.131942
C	-0.0748572442	-2.5491121963	 0.1594607385	 0.204185
C	-0.3903778773	-3.4535167168	-1.0337518225	-0.387238
C	-1.3152224282	-3.4090223084	 0.1596285408	 0.034973
O	-1.1530051431	-4.3582008985	 1.1762525094	-0.252037
C	 0.2264752412	-4.3643699339	 1.5019273578	 0.003454
O	 0.7645574608	-3.1024564407	 1.1572381758	-0.288516
H	 0.6714081474	 1.9561547474	 0.6122169947	 0.155961
H	 0.444924996	 1.8355531424	-1.1373685984	 0.149502
H	-0.9603113283	 1.9609406189	-0.0670760767	 0.149754
H	-0.7340215799	-2.9509554887	-1.9306431951	 0.131696
H	 0.2313306601	-4.3249676446	-1.2057365514	 0.12818
H	-2.3247217726	-3.0250710825	 0.0972660034	 0.124696
H	 0.3422131384	-4.5276171968	 2.5779295565	 0.125444
H	 0.7424848691	-5.163794094	 0.9456685661	 0.096069
