17
gdb 76997	2.88492	1.27473	0.98241	2.846	80.91	-0.2417	-0.0518	0.1899	1199.1832	0.134777	-384.694406	-384.685769	-384.684825	-384.72798	32.294	
C	-0.2207045738	 1.48692008	-0.0220365052	-0.407586
C	 0.0731880658	-0.0096283613	 0.0489271731	-0.105619
C	 0.8313699114	-0.6143209705	-1.1691901256	-0.229427
C	 1.8824967884	-1.5111905129	-0.5295322234	-0.05216
C	 1.9442077056	-1.3792871547	 0.7978389837	-0.188359
C	 0.9395437626	-0.3949357109	 1.2637280631	 0.373434
O	 0.805403544	 0.0432212258	 2.3822969717	-0.334695
C	-0.0130750977	-1.3179233522	-2.1282689785	 0.319196
C	-0.71004042	-1.9062447404	-2.9110850966	-0.462835
H	 0.6962741976	 2.0616338419	-0.1917298793	 0.119656
H	-0.9216792014	 1.7152031883	-0.8299456412	 0.122985
H	-0.6528535482	 1.8211219923	 0.9245154424	 0.143835
H	-0.8697048987	-0.5570944037	 0.1673991324	 0.122074
H	 1.3524607555	 0.1941199569	-1.7042292845	 0.123765
H	 2.5032834593	-2.1585610867	-1.1384317129	 0.130015
H	 2.6305284245	-1.8764162649	 1.4712292855	 0.123704
H	-1.327053395	-2.421859277	-3.6048273746	 0.202018
