14
gdb 33891	3.63412	1.51496	1.33181	4.1142	65.34	-0.2682	-0.0126	0.2556	934.9494	0.101944	-436.62463	-436.618185	-436.617241	-436.655508	25.56	
N	 0.0367625137	-1.0972870066	-0.0469120917	-0.332514
C	 0.0545190234	 0.0576135416	-0.0016617324	 0.223257
C	 0.023318242	 1.4879333766	 0.0806433259	 0.307086
O	 0.3387401506	 2.2416763638	-1.1027924878	-0.267673
C	 1.1780212479	 2.39799493	 0.0473510198	-0.029562
C	 0.6838804992	 3.4470328317	 1.080614623	 0.029189
C	-0.7810406562	 3.7134772805	 0.6664503319	-0.231669
C	-0.8498203979	 2.2434569835	 1.1332627121	-0.019646
O	 0.1708145319	 2.5589051421	 2.1359104132	-0.28931
H	 2.2111556782	 2.0865272468	-0.0514168364	 0.139935
H	 1.3814006783	 4.20425622	 1.43224321	 0.101293
H	-1.2716551665	 4.3637180913	 1.3888178161	 0.127596
H	-1.0192763277	 3.9708312734	-0.3629325367	 0.135092
H	-1.733657387	 1.7450511153	 1.5247406229	 0.106926
