15
gdb 2938	6.09771	2.08735	1.72623	0.8742	59.	-0.2526	0.0095	0.2621	744.1805	0.125089	-345.648365	-345.641555	-345.640611	-345.679359	24.232	
C	 0.0031290076	 1.3211619165	-0.2091867386	-0.238719
O	-0.0535914031	-0.0908639431	-0.120267995	-0.239232
C	-1.3366077561	-0.5824586314	 0.1680585739	 0.18764
O	-2.2528800601	-0.3832298045	-0.8992715992	-0.267574
C	-2.5237441273	-1.6225661861	-1.5484069926	-0.119714
C	-1.9048277433	-2.6660990118	-0.6629067486	-0.086336
C	-1.2525861211	-2.0768222905	 0.3308597534	-0.105619
H	 1.0481381155	 1.5898947523	-0.3787643473	 0.12457
H	-0.6077233486	 1.6963534246	-1.0390541185	 0.125036
H	-0.3407227667	 1.7960310597	 0.7228081233	 0.102692
H	-1.7374712037	-0.0417333137	 1.0420500508	 0.068
H	-3.61209104	-1.7356699419	-1.6468862314	 0.11323
H	-2.09780834	-1.6390357807	-2.5637299076	 0.112649
H	-1.9879532175	-3.7286098819	-0.8527908494	 0.110623
H	-0.6827289156	-2.5430248975	 1.1224767568	 0.112755
