20
gdb 11396	3.5627	1.49311	1.19825	1.319	77.37	-0.2298	0.0178	0.2475	1089.5302	0.176459	-349.021541	-349.01301	-349.012066	-349.05473	31.777	
C	-0.2252200715	 1.4960661847	 0.1357032703	-0.379834
C	-0.0917691719	-0.0274931504	 0.0800545824	-0.174046
C	 0.8442632224	-0.5789676474	 1.1622445378	 0.093173
O	 0.3553696945	-0.2339877951	 2.4634507077	-0.28853
C	 0.2627348746	-1.3906423759	 3.3023735174	 0.095823
C	-1.131738976	-1.4762301595	 3.9229116176	-0.388389
C	 0.6255883276	-2.5374965453	 2.3947531396	-0.102397
C	 0.9549646984	-2.080419396	 1.193402911	-0.102306
H	 0.7434363365	 1.9833625804	-0.0235043949	 0.110261
H	-0.9137026886	 1.8615724955	-0.6321300255	 0.107286
H	-0.600691206	 1.8096372136	 1.1131868278	 0.134968
H	-1.0737265204	-0.4999979994	 0.201675541	 0.096783
H	 0.2944129198	-0.3384892175	-0.899578991	 0.088645
H	 1.8392396348	-0.1172731082	 1.0242782673	 0.072977
H	 1.0010341859	-1.2963494821	 4.1181880897	 0.077453
H	-1.8906968567	-1.6056748231	 3.1458914645	 0.118234
H	-1.1929278194	-2.3200761308	 4.6185098031	 0.109271
H	-1.3525635653	-0.5591621856	 4.476421122	 0.12511
H	 0.6134905332	-3.5704168752	 2.7200829692	 0.102761
H	 1.2657957181	-2.663643353	 0.3354288129	 0.102758
