14
gdb 96748	3.34719	0.86635	0.69413	4.5285	72.18	-0.3031	-0.0685	0.2347	1511.5822	0.099052	-432.875358	-432.865989	-432.865045	-432.910664	31.24	
C	 0.0706186578	 1.475402521	-0.0862151547	-0.346595
N	 0.0475850882	 0.0263190892	-0.0775715061	-0.301599
C	-1.0212766574	-0.6180740453	 0.0969037428	 0.356169
O	-1.0771257433	-1.9678880551	 0.1111073501	-0.240368
C	 0.1811358666	-2.6175023042	-0.0883806372	-0.20552
C	-0.0481661229	-4.0599971712	-0.045941949	 0.278186
N	-0.1820454202	-5.2059743191	-0.0199852822	-0.28134
C	-2.341934485	-0.0530769298	 0.3068059237	 0.264624
N	-3.3628239633	 0.4634673084	 0.4686469129	-0.318484
H	 0.7571072391	 1.8198381282	 0.6938764734	 0.149746
H	 0.4783848461	 1.8143112292	-1.043972145	 0.149735
H	-0.9089693548	 1.9433126703	 0.0695847945	 0.144454
H	 0.6122573069	-2.3277037241	-1.0523539027	 0.175506
H	 0.892015532	-2.3209001875	 0.6899313096	 0.175486
