16
gdb 17266	3.19756	2.16937	1.81958	2.5289	65.06	-0.2539	0.0735	0.3274	791.2488	0.130116	-383.660298	-383.653431	-383.652487	-383.690914	27.231	
O	-0.0967803054	 1.3434564604	 0.0266661698	-0.46841
C	 0.0103133731	-0.0278451317	 0.0129773441	 0.295455
C	 0.5769106579	-0.9752408859	-1.1045419856	-0.296598
C	 0.0263570429	-1.922505986	 0.0102029235	-0.1607
C	 0.6888076705	-0.9787698479	 1.0587842762	-0.287925
C	-1.1851080466	-0.9812331296	 0.0761927676	 0.52477
C	-2.4946576641	-0.9737045813	 0.7036152053	-0.321357
O	-2.3224718317	-0.9839882759	-0.7408275166	-0.305254
H	 0.780764573	 1.7261557475	-0.0775566302	 0.287129
H	 0.0476165641	-0.977863529	-2.0586699396	 0.118407
H	 1.6632292406	-0.9741598584	-1.23153966	 0.087151
H	 0.0320921972	-3.0084950452	 0.0088496942	 0.09119
H	 1.7816247543	-0.9780560833	 1.0629334455	 0.091723
H	 0.2733160084	-0.9831285203	 2.0691858322	 0.099312
H	-2.9123418773	-1.8888364305	 1.1204885277	 0.11777
H	-2.9015481469	-0.047876013	 1.1062502061	 0.127337
