20
gdb 62072	4.21421	0.66739	0.61662	4.3891	77.98	-0.242	0.0306	0.2726	1799.5928	0.169594	-440.283984	-440.273999	-440.273055	-440.320548	34.508	
C	 0.049554775	 1.3838046255	 0.0354017616	-0.349953
N	-0.0140042123	-0.0657712595	-0.0289397246	-0.029821
C	-0.1135085597	-0.8242583079	 1.2034998896	-0.175214
C	-1.4882308392	-0.7286210366	 1.8890669032	-0.230851
C	-1.5248823231	-1.5472082128	 3.1561000023	 0.100906
C	-2.6939597659	-2.3427906325	 3.5479184967	-0.17901
O	-1.5388355132	-2.9690696833	 2.9868365992	-0.235908
C	 0.0473945678	-0.6899328327	-1.2417200931	 0.149249
O	 0.1272276439	-0.1367650695	-2.3183439328	-0.342372
H	 0.8696775985	 1.7032477276	 0.6897670865	 0.122484
H	 0.2235047828	 1.7516608718	-0.9758725925	 0.170577
H	-0.8839016417	 1.8153832125	 0.4146733611	 0.126051
H	 0.0893951101	-1.8753819392	 0.9765252964	 0.138567
H	 0.6703274263	-0.4881504594	 1.8970563017	 0.106847
H	-1.7219823966	 0.3151470769	 2.1313869879	 0.108675
H	-2.2588660065	-1.0859067634	 1.1976344192	 0.114077
H	-0.8561857507	-1.2103408563	 3.9513473984	 0.094348
H	-2.8776998944	-2.5563952287	 4.5998440097	 0.118597
H	-3.5793315852	-2.3408378487	 2.9134053937	 0.117431
H	 0.0180689642	-1.7919764437	-1.1331943943	 0.075323
