20
gdb 71726	2.50797	2.05634	1.49926	1.7488	81.33	-0.2161	0.0809	0.297	968.4491	0.171701	-365.970674	-365.962962	-365.962018	-366.002189	31.431	
C	-0.130907665	 1.4645874783	 0.0954639302	-0.498034
C	-0.0286533284	-0.034927425	-0.0115261627	 0.271952
C	-0.3383116306	-0.7612561532	-1.3095365799	-0.294909
C	-0.0782718238	-2.1746322709	-0.8492084322	-0.050989
C	-0.4131029744	-2.3365793827	 0.5884250509	-0.049864
C	-0.4064950847	-0.9233672326	 1.1791463498	-0.208519
C	 1.0329122804	-0.8147773601	 0.7324312172	 0.330653
C	 2.2857065435	-0.3135463009	 1.3728131227	-0.507172
N	 1.0224205371	-2.2277934209	 0.163234203	-0.199159
H	 0.5545519187	 1.9616203884	-0.6004352071	 0.120383
H	-1.1459199558	 1.8071183985	-0.1351245707	 0.120409
H	 0.1105315261	 1.8136181616	 1.1042099151	 0.119523
H	-1.3735620911	-0.6190956797	-1.6409694217	 0.101879
H	 0.331406508	-0.4565494231	-2.1221824528	 0.103433
H	-0.1055016106	-3.0180256902	-1.5304229365	 0.092256
H	-0.8022852919	-3.236164548	 1.0511503276	 0.091513
H	-0.9016194239	-0.5696392113	 2.0733088725	 0.085016
H	 2.1412612359	 0.6838826712	 1.7985256098	 0.118084
H	 2.6108646151	-0.9835092971	 2.1752661625	 0.128943
H	 3.0970016654	-0.2563049325	 0.6375038624	 0.124605
