19
gdb 31232	2.41771	1.26402	0.88779	3.8039	79.34	-0.2094	0.0303	0.2397	1330.4564	0.160243	-419.248631	-419.239348	-419.238404	-419.28359	33.504	
C	 0.1941261386	 1.5350605102	 0.3192042995	-0.364103
C	-0.0792973008	 0.0593234909	-0.0157946137	-0.290115
C	 0.5730609731	-0.3811274716	-1.2900681144	 0.190603
C	 0.0001980705	-0.6788510022	-2.5046056651	 0.249393
C	-1.3959636228	-0.6655381456	-3.0213621375	-0.211023
O	-1.5403194587	-1.7634813459	-3.9237442953	-0.426656
N	 1.0538112333	-0.9911148081	-3.3397577626	-0.282991
C	 2.1939557804	-0.8929000545	-2.6048525402	 0.001099
N	 1.9462414088	-0.5153827996	-1.3726577196	-0.315571
H	 1.271025494	 1.7157145915	 0.3755878987	 0.136957
H	-0.2167321903	 2.1963387356	-0.4510023898	 0.106579
H	-0.2539238724	 1.810648139	 1.2793246873	 0.104209
H	 0.295997221	-0.5670353224	 0.8022318957	 0.114141
H	-1.1602988021	-0.1139300275	-0.0744451168	 0.089589
H	-2.0966822183	-0.734563985	-2.176966582	 0.110115
H	-1.6125832883	 0.2806192154	-3.5454767521	 0.101729
H	-2.3899416226	-1.6742393324	-4.3662463673	 0.291418
H	 0.9462382793	-1.357156719	-4.2713625761	 0.269471
H	 3.1673336473	-1.1148110388	-3.0169444488	 0.125155
