16
gdb 33840	4.60677	1.07371	1.00256	4.5389	75.78	-0.2743	-0.0031	0.2712	1185.7506	0.123773	-400.702028	-400.694356	-400.693412	-400.734258	29.463	
N	 0.0820920639	-1.1449211701	 0.1510063263	-0.337943
C	 0.0807999468	 0.0072083534	 0.0498432706	 0.209026
C	 0.0523758416	 1.4250862902	-0.1236247508	 0.308639
C	-0.7259224267	 2.2392447665	-1.1796281756	-0.389261
C	 0.4341331308	 3.266574643	-1.1346705391	 0.361144
C	 1.0793939109	 3.9348573615	-2.312226765	-0.327509
C	 0.3972412393	 4.7589597784	-1.2427252893	-0.316402
C	 1.1444866252	 2.4295439041	-0.0911888501	-0.131023
O	 0.2547584372	 2.2656602597	 1.018177207	-0.265874
H	-0.804707724	 1.7232571322	-2.1390150509	 0.132939
H	-1.7102406629	 2.5754386631	-0.8474216923	 0.128151
H	 2.1636021547	 3.9524809966	-2.3584386712	 0.123623
H	 0.5945867059	 3.8401949076	-3.2782198312	 0.123812
H	-0.5541996863	 5.2202483059	-1.4855825996	 0.125859
H	 1.0143405194	 5.33983553	-0.5656707988	 0.126288
H	 2.204469164	 2.2982701977	 0.0946459101	 0.128531
