23
gdb 113821	4.06358	0.78072	0.70671	0.0817	87.95	-0.2347	0.0729	0.3076	1707.185	0.20574	-384.424856	-384.414722	-384.413777	-384.460987	37.225	
C	-0.0552927443	 1.5650348965	-0.290044111	-0.376779
C	 0.0215120647	 0.1608978938	 0.3204603441	-0.182658
C	-1.3287408609	-0.5202057832	 0.3403067374	 0.00399
N	-1.7801966789	-1.1541661098	-0.9108062562	-0.351164
C	-1.5512209602	-1.9930202916	 0.2814999337	-0.025725
C	-0.450734295	-2.9996153724	 0.1873980537	-0.009859
N	-0.2035679209	-3.8205046566	 1.3882025223	-0.350952
C	-0.6745591355	-4.4741123172	 0.1558759397	 0.001629
C	-2.0291359222	-5.1400081217	 0.1980166689	-0.394846
H	 0.9268923359	 2.0472111358	-0.3053657304	 0.10953
H	-0.4261980523	 1.5150201657	-1.3185242956	 0.128252
H	-0.7335412248	 2.2097353261	 0.2804633559	 0.109449
H	 0.7298673544	-0.4451584158	-0.2525368134	 0.100944
H	 0.4069682962	 0.2171475776	 1.3466611394	 0.097835
H	-2.0828894684	 0.0306406142	 0.9047353846	 0.07648
H	-2.7741686317	-1.0068295014	-1.059810761	 0.22908
H	-2.4259750849	-2.3477485516	 0.821548227	 0.081835
H	 0.4143633077	-2.6527248315	-0.3726449073	 0.083456
H	 0.7925814125	-3.9671867171	 1.5232862723	 0.229186
H	 0.0693693439	-5.0297699153	-0.4152596883	 0.07973
H	-2.7276159185	-4.5852617911	 0.8282510481	 0.124795
H	-2.4552414244	-5.2212415422	-0.8078619039	 0.117675
H	-1.9447674723	-6.150985311	 0.6111817799	 0.118117
