16
gdb 50748	3.02185	1.45541	1.01808	7.2648	67.35	-0.2552	-0.0186	0.2366	1114.5581	0.125356	-475.083473	-475.075446	-475.074502	-475.11721	28.686	
O	-0.2924314058	 0.0149671908	 0.1475619062	-0.25683
C	-0.0799958649	 1.1923606936	 0.155053379	 0.170877
N	 1.1537910842	 1.8512377546	 0.0184861382	-0.202398
C	 1.1038689178	 3.3212869667	-0.022187803	-0.167543
C	 2.4078375677	 3.9050266293	 0.4929289703	-0.241537
C	 3.5330522452	 3.2821097967	-0.3091106273	-0.061375
O	 3.5011594851	 1.8531752162	-0.2237292437	-0.254774
C	 2.3599913295	 1.1254726325	-0.1143553811	 0.492285
O	 2.4240855718	-0.0670148747	-0.1098903931	-0.320584
H	-0.8837826191	 1.9467523275	 0.281837119	 0.080248
H	 0.9248838814	 3.6647940128	-1.0501643383	 0.126054
H	 0.2547118092	 3.6497212501	 0.5832655768	 0.130549
H	 2.4105403427	 4.9920336711	 0.3706426005	 0.122333
H	 2.5347535894	 3.6804352786	 1.557321904	 0.131177
H	 3.4647292691	 3.5754277783	-1.3652185386	 0.118965
H	 4.5195048467	 3.5713891558	 0.0602947311	 0.132555
