18
gdb 15408	2.99485	1.32292	1.00801	2.9797	70.69	-0.2411	-0.0168	0.2243	1187.1304	0.151465	-384.930611	-384.921777	-384.920832	-384.964818	31.17	
C	 0.0847511063	 1.460112401	 0.1960576792	-0.386593
C	-0.124906733	-0.0121226719	 0.4999715163	-0.047955
O	 1.138205745	-0.5855862156	 0.8256451625	-0.242013
C	 1.082832741	-1.9459115785	 1.0733332284	 0.127439
C	 2.1584769471	-2.5209236868	 1.9050429482	-0.334433
C	 0.7371452687	-2.4630022144	 2.4798049207	-0.14094
C	 0.4717942184	-1.4991167838	 3.5682517871	 0.164365
O	-0.3116226181	-1.6861752055	 4.4689317131	-0.27785
H	 0.7745465522	 1.5859797775	-0.6430898378	 0.129639
H	-0.8677491334	 1.9320123804	-0.0618263248	 0.121155
H	 0.5025905523	 1.9763349618	 1.0649051399	 0.130994
H	-0.8231522596	-0.1453264748	 1.3401312609	 0.105741
H	-0.5547239478	-0.5347572076	-0.3689903367	 0.095187
H	 0.6803536538	-2.5435528823	 0.2538424375	 0.099655
H	 2.561073021	-3.4965467637	 1.6609400991	 0.131764
H	 2.8722080342	-1.8182851446	 2.32266894	 0.138525
H	 0.1751140273	-3.3878477743	 2.548378445	 0.106935
H	 1.0630114647	-0.5589710368	 3.5032033513	 0.078385
