21
gdb 63811	3.2494	1.42114	1.39624	1.3533	81.96	-0.2564	0.0764	0.3328	1053.5978	0.18361	-387.059384	-387.051612	-387.050667	-387.09105	32.282	
C	-0.1317398585	 1.5499370218	-0.0428165888	-0.453955
C	 0.0221804994	 0.0296122032	-0.018749144	 0.388011
O	-1.2621522899	-0.5982459937	-0.0164260555	-0.485642
C	 0.9567480877	-0.5350986055	-1.1385866752	-0.304791
C	 1.9750207573	-1.2808825373	-0.2820120509	 0.001588
C	 1.2420255092	-1.9561972336	 0.9240581101	-0.054883
C	 2.49009627	-1.7026738897	 1.8028788033	-0.244733
C	 2.3081762192	-0.4092914823	 0.9735820404	-0.066542
C	 0.7665821581	-0.4964196601	 1.2087663033	-0.003497
H	 0.8393588113	 2.0509847966	 0.0191423271	 0.117694
H	-0.6121052369	 1.8785652455	-0.9730969524	 0.103132
H	-0.7500229445	 1.8847819151	 0.7957778758	 0.120913
H	-1.7561376693	-0.2640650879	-0.7725975729	 0.271996
H	 0.3975364066	-1.197555146	-1.8067443608	 0.093835
H	 1.4189081918	 0.2523261815	-1.7444021854	 0.08903
H	 2.7850378828	-1.8233184863	-0.7744784042	 0.058034
H	 0.6102907813	-2.8441878441	 0.8902078334	 0.074178
H	 2.3263081959	-1.6244431918	 2.8815907233	 0.087513
H	 3.3775516689	-2.304350163	 1.5841788501	 0.085839
H	 2.9245531196	 0.4923398764	 0.9975373353	 0.06231
H	 0.3551161799	-0.2488939987	 2.1893223781	 0.059971
