19
gdb 110239	1.96316	1.66919	1.0866	3.3301	77.5	-0.2352	-0.0049	0.2303	1181.3091	0.157056	-423.011615	-423.002451	-423.001507	-423.045648	33.774	
C	 0.2807739671	 0.9864169703	 0.4180248165	-0.243402
O	-0.4016471172	-0.0200248301	-0.3098791024	-0.239127
C	 0.3733699812	-0.596014868	-1.3061255144	 0.093764
C	 1.4720572686	-1.6178540063	-1.0125991333	-0.297501
C	 1.0397227772	-2.5166178692	 0.1013730883	 0.447603
O	 1.6146751401	-2.9789288051	 1.0471729668	-0.33028
C	-0.3321710756	-2.8206623462	-0.5425968153	-0.405013
C	 0.1152139088	-1.9761669381	-1.753427541	 0.260632
C	-0.0899712782	-2.3799587237	-3.1844030376	-0.49459
H	 1.1671814625	 0.5826326644	 0.9253888922	 0.127394
H	 0.5949939772	 1.8124862406	-0.2370490996	 0.108327
H	-0.4185498555	 1.3701983043	 1.1633384916	 0.133784
H	 0.6692416911	 0.1025645701	-2.0939074538	 0.092378
H	 2.4814525807	-1.4878402233	-1.3861882533	 0.103258
H	-0.4146734956	-3.8881297893	-0.7684124692	 0.124225
H	-1.2231311682	-2.4817929706	-0.0115277255	 0.133106
H	-1.1524123377	-2.3324187759	-3.4505963577	 0.133872
H	 0.4540032678	-1.7200734714	-3.8672865796	 0.123795
H	 0.2510973158	-3.4058256525	-3.3595920926	 0.127774
