16
gdb 124078	5.02688	1.01924	0.96637	3.8743	69.64	-0.2409	-0.0007	0.2401	1211.0096	0.127524	-434.065136	-434.057728	-434.056784	-434.098931	26.532	
C	 0.0007099413	 1.5667703372	 0.0104305022	-0.077995
O	 1.431665566	 1.5307300044	 0.167829726	-0.273904
C	 1.4130187562	 0.107329228	 0.3853853771	-0.077987
C	-0.0910518342	 0.0179482168	 0.0149226446	-0.131033
C	-1.0267374047	-0.6440645608	 0.9632381156	 0.32278
N	-1.0678198212	-0.3513935216	 2.2576622676	-0.265754
N	-2.0394314606	-1.176262677	 2.7100156285	-0.17268
C	-2.5346973043	-1.9155797131	 1.6989749499	 0.013228
N	-1.9187608347	-1.6076770166	 0.5751499538	-0.30276
H	-0.4967183527	 2.0396646371	 0.866089618	 0.111047
H	-0.3013935308	 2.0693044519	-0.9153401709	 0.104134
H	 2.1090691963	-0.4215462556	-0.2754268699	 0.104145
H	 1.6250538198	-0.1533318439	 1.4295282475	 0.11106
H	-0.2583025702	-0.3987118322	-0.9780541869	 0.102426
H	-2.2908835311	-1.1688003759	 3.6850185675	 0.284383
H	-3.3208300851	-2.6445590787	 1.8262992394	 0.14891
