18
gdb 66762	2.47786	2.3227	1.82287	1.8247	77.99	-0.2269	0.0025	0.2295	856.0553	0.149602	-364.754998	-364.748451	-364.747507	-364.785367	27.848	
C	 0.0128049723	 1.5431001673	 0.0166460002	-0.528465
C	 0.0134178959	 0.0414932402	-0.0289271261	 0.31882
C	 0.5073967987	-0.9184523418	-1.1651337884	-0.128849
C	 0.8510385298	-1.8882721735	-0.1098267608	-0.047803
C	 0.784547879	-0.8263924738	 1.0355128609	-0.129664
C	-0.2256990462	-1.1743500318	 2.0897274669	-0.088918
C	-1.4394125867	-1.1808561808	 1.5179294924	-0.080288
C	-1.2666516903	-0.8291603426	 0.0738960468	-0.057292
N	-0.5045639993	-1.9215254887	-0.7314073484	-0.155261
H	 1.0280556622	 1.9453605968	-0.0716635218	 0.119963
H	-0.5857130622	 1.9650472341	-0.7984871556	 0.120966
H	-0.40948258	 1.8974333741	 0.9636192939	 0.128335
H	 0.8249373774	-0.7803910167	-2.189994211	 0.093725
H	 1.4336077283	-2.7995133194	-0.1419012638	 0.096488
H	 1.7604818724	-0.4552694785	 1.3492539366	 0.068778
H	 0.0128030822	-1.4591628355	 3.1075843705	 0.100024
H	-2.3743791969	-1.4741611923	 1.9788627378	 0.099426
H	-2.1437614768	-0.5251325471	-0.4969534701	 0.070014
