17
gdb 11109	4.60509	1.19316	1.01417	0.8615	68.	-0.2528	0.0256	0.2784	1160.0712	0.141311	-400.991004	-400.982448	-400.981503	-401.024814	30.032	
C	-0.0478801452	 1.5230142252	-0.3489648067	-0.338884
N	-0.0444295514	 0.0687874232	-0.4217239927	-0.320514
C	-1.000381122	-0.5724527139	 0.0602898503	 0.470362
C	-1.3599341367	-2.0380879857	 0.1730306271	-0.409935
C	-2.623260624	-1.5126409241	 0.8846098842	 0.113705
C	-2.7869835003	-1.804572969	 2.362474953	-0.066862
O	-3.7493381897	-0.9534750303	 2.9487276935	-0.417241
O	-2.1580939448	-0.1292413324	 0.6984969113	-0.292976
H	 0.8458525979	 1.8559856277	 0.1899876625	 0.128872
H	 0.0213022682	 1.9310326965	-1.3632018257	 0.12983
H	-0.9326719956	 1.9466390506	 0.1404002511	 0.122918
H	-1.5207005588	-2.5451911405	-0.7792551588	 0.139514
H	-0.6813166777	-2.6305209158	 0.7911052126	 0.135482
H	-3.5669668952	-1.6530264542	 0.3502752419	 0.101805
H	-3.1411840928	-2.8324890762	 2.499334139	 0.117019
H	-1.8065871879	-1.7171885984	 2.8590463324	 0.092058
H	-3.465787504	-0.0503214427	 2.7632079251	 0.294846
