17
gdb 46271	3.0733	1.48399	1.23106	4.8574	73.31	-0.2232	0.0326	0.2558	1034.3747	0.137131	-417.971741	-417.964037	-417.963092	-418.004292	29.287	
O	-0.0835516021	-0.0138617478	-0.0575882681	-0.353595
C	-0.0392258453	 1.1852399185	-0.0537635809	 0.381628
N	-1.0187042247	 2.1550826479	-0.0696619693	-0.335757
C	-0.1105050348	 3.2986497319	 0.0293157024	-0.236839
C	 1.0629523734	 2.2769635862	-0.011290291	 0.215052
C	 2.195717534	 2.3279289417	 1.0682974093	-0.306857
C	 3.2149615161	 2.4951758496	-0.0678638591	-0.039641
N	 3.0797300135	 1.2823729487	-0.9038184779	-0.312725
C	 2.1386182346	 2.4125254242	-1.0932199129	-0.135645
H	-2.0247083204	 2.0895882278	-0.0275619601	 0.248625
H	-0.1623427741	 3.9904047237	-0.8190893644	 0.10967
H	-0.1924940359	 3.8624964528	 0.9651219323	 0.110456
H	 2.1045232583	 3.2051813593	 1.7130091317	 0.105646
H	 2.3209397187	 1.4266079141	 1.6719739413	 0.128551
H	 4.1315705158	 3.0711380922	-0.0600199638	 0.09683
H	 3.769934739	 1.3498868511	-1.6520962652	 0.230349
H	 2.0333756238	 2.897634648	-2.0563854745	 0.094253
