20
gdb 111345	2.18467	1.66773	1.1392	2.039	78.56	-0.2361	0.0582	0.2944	1127.2979	0.171709	-403.079393	-403.07098	-403.070035	-403.112254	32.901	
O	 0.4838385515	 0.4493590031	 0.946571592	-0.415652
C	-0.0722685455	 0.3275831523	-0.3608633816	-0.090302
C	-1.4091723176	-0.3998318916	-0.344717405	-0.106446
C	-2.0906819887	-0.7804696961	-1.6736257266	-0.081732
C	-1.3438510664	-1.8706610397	-2.3964102757	-0.286089
C	-2.2043063007	-2.242089078	-1.2211177961	-0.119185
C	-1.4659972261	-1.8935572459	 0.0564692738	 0.3707
C	-0.4878051836	-2.6858670735	 0.8348626892	-0.314351
N	-1.8454057549	-2.4052897659	 1.3645117468	-0.384585
H	-0.0903778254	 1.0297913722	 1.4566174486	 0.281633
H	-0.1805673847	 1.31283351	-0.8413951758	 0.090616
H	 0.6655156342	-0.2357568063	-0.939357811	 0.112988
H	-2.116486987	 0.1638329517	 0.280392198	 0.067795
H	-2.8322306614	-0.1732303508	-2.1775290227	 0.087854
H	-1.7467491166	-2.1279386791	-3.3709099031	 0.113021
H	-0.2623183635	-1.9559356891	-2.3305926265	 0.110752
H	-3.0472387918	-2.9177914565	-1.2896302386	 0.096982
H	-0.3069827744	-3.7273958939	 0.5824974801	 0.111967
H	 0.3523665698	-2.1566667211	 1.2735847502	 0.130911
H	-1.7889614772	-1.6603127518	 2.0560196543	 0.223124
