21
gdb 73451	2.20368	1.86984	1.52874	1.708	81.69	-0.2309	0.0865	0.3175	1020.2939	0.183186	-387.074517	-387.066235	-387.065291	-387.10669	32.887	
C	-0.0272772295	 1.4410972061	 0.0555369266	-0.4981
C	-0.0055621892	-0.0658846553	-0.0155556377	 0.265241
C	 1.0129896128	-0.7362504415	-0.93825307	-0.149163
O	 0.4336791987	-1.9868706708	-1.3208298488	-0.264168
C	-0.6098904108	-2.2426292657	-0.3938776477	 0.028835
C	-0.0803190831	-2.3334633237	 1.0736224112	-0.260132
C	-0.4316954119	-0.8538534227	 1.2242869033	-0.169354
C	-1.2719908941	-0.8772436703	-0.053315072	 0.306265
C	-2.6622375374	-0.4212267186	-0.3763669805	-0.526422
H	 0.9226485132	 1.831563336	 0.4384706898	 0.121669
H	-0.1943702772	 1.8850191663	-0.9325842955	 0.11986
H	-0.8177116028	 1.7998889715	 0.7219238443	 0.119766
H	 1.1897527508	-0.1416621685	-1.8434414641	 0.09803
H	 1.9829607512	-0.8969498148	-0.4452538375	 0.093302
H	-1.2177116639	-3.0637955437	-0.7735693728	 0.079409
H	-0.7220001787	-2.9636346006	 1.6964476807	 0.098805
H	 0.9613495096	-2.6505366301	 1.1923138044	 0.09436
H	-0.6388720947	-0.3346560463	 2.1544250382	 0.076849
H	-2.8501882347	 0.5890175469	 0.0016598455	 0.120268
H	-2.8301097897	-0.4050899526	-1.459952936	 0.125201
H	-3.4170474183	-1.0819275217	 0.0652371688	 0.119477
