18
gdb 68581	4.07443	1.03249	0.95736	4.93	77.06	-0.2471	0.0308	0.2779	1268.5581	0.146236	-401.909103	-401.900521	-401.899577	-401.94255	32.332	
C	-0.1025775772	 1.4021549154	 0.0231421411	-0.509199
C	 0.0832988657	-0.080930555	 0.0117343825	 0.402896
C	 0.6983667054	-0.9991698153	-1.0817590807	-0.308733
C	 0.008407958	-1.8746247154	-0.0092958973	 0.42331
C	-0.2939352181	-3.3543169721	-0.0568442626	-0.47458
C	-0.9520235756	-3.8366315105	 1.156697496	 0.272834
N	-1.4579839624	-4.2174017514	 2.1226265573	-0.307643
C	 0.659134161	-1.0221579422	 1.1050010963	-0.293563
O	-1.1376416359	-0.9440479872	-0.0209263033	-0.364199
H	 0.8695550482	 1.9043781465	 0.0456897143	 0.129819
H	-0.6411758475	 1.7284031027	-0.8714403062	 0.136677
H	-0.6726091805	 1.7092294213	 0.9048184013	 0.140413
H	 0.1923665065	-0.9671265128	-2.0480986165	 0.107804
H	 1.7875188262	-1.0440187676	-1.1657986426	 0.096618
H	-0.9341820664	-3.5617984709	-0.9215707691	 0.166575
H	 0.6389990957	-3.9113295137	-0.1996911885	 0.160143
H	 1.7446948302	-1.0692089247	 1.224728299	 0.096425
H	 0.1196193765	-1.0163277171	 2.0525797491	 0.124405
