14
gdb 33646	3.42968	1.55575	1.4589	4.0822	70.2	-0.2613	-0.0396	0.2216	907.6688	0.103381	-395.684336	-395.677968	-395.677024	-395.715107	25.07	
N	-0.1024004084	-1.166762975	 0.0285128083	-0.346355
C	-0.0550455255	-0.0107657505	 0.0066053632	 0.171183
C	-0.0242652401	 1.4107169153	-0.011451756	 0.262698
C	-0.7383079245	 2.4810072135	 0.7993750645	-0.142146
C	 0.6185910372	 3.0657609327	 1.132280116	-0.182256
N	 1.2564271834	 2.2234807506	 0.0043806945	-0.214755
C	 1.0720210418	 3.0843061438	-1.1503331605	 0.014124
N	-0.1159753129	 3.2235055798	-1.5842804219	-0.178932
C	-0.9228071321	 2.379745267	-0.7266609534	-0.059325
H	-1.5877442631	 2.3679559465	 1.4602524749	 0.128691
H	 0.7726414572	 4.1446018127	 1.0337748509	 0.129193
H	 1.0047471357	 2.7139927877	 2.0895599167	 0.143253
H	 1.9281685003	 3.6315646236	-1.5302053197	 0.140842
H	-1.898285919	 2.0766552823	-1.0823499377	 0.133785
