20
gdb 10862	3.4023	1.64998	1.41365	1.8827	70.69	-0.2452	0.0762	0.3215	975.9177	0.178446	-386.157319	-386.149427	-386.148483	-386.18909	31.052	
C	 0.039929647	 1.518937187	 0.0883240095	-0.40046
C	 0.0510703279	 0.0010328909	-0.0045503554	 0.148398
C	 0.7038473755	-0.5255706096	-1.289349155	-0.207418
C	 0.848988406	-2.0556510427	-1.2522265562	-0.229959
C	 1.506566399	-2.5006881572	 0.064685545	 0.143521
O	 2.8686284653	-2.0961928073	 0.1314656832	-0.447459
C	 0.7314146179	-1.9013077829	 1.2389746215	-0.1091
O	 0.7510760304	-0.4826475424	 1.1476837621	-0.274167
H	 1.0615785959	 1.9107941485	 0.0562114654	 0.120811
H	-0.5217715739	 1.950564385	-0.7454728382	 0.115539
H	-0.4212759236	 1.8421970653	 1.0252493073	 0.123956
H	-0.9864055368	-0.376129789	 0.0443477441	 0.063568
H	 0.1145417108	-0.2122856577	-2.1581721523	 0.096079
H	 1.6942286378	-0.0649907786	-1.3940740148	 0.101667
H	-0.1395228987	-2.5275713139	-1.3327412333	 0.090291
H	 1.4481345153	-2.408226112	-2.0970645502	 0.10516
H	 1.5037319702	-3.5943946568	 0.1364289324	 0.076868
H	 2.8610381502	-1.1809778071	 0.4378449606	 0.284113
H	-0.3052233463	-2.2755025467	 1.256302474	 0.087025
H	 1.21290769	-2.1562004527	 2.1874116002	 0.111567
