18
gdb 106648	2.69378	1.30869	1.05338	3.497	73.	-0.2412	0.0051	0.2463	1196.3321	0.146846	-439.087558	-439.078592	-439.077648	-439.121315	33.382	
C	 0.0591530009	 1.5084250314	 0.0936595542	-0.38045
C	-0.1330957985	 0.0010613035	-0.1238175344	-0.288146
C	 0.6966948965	-0.5369842638	-1.2410268058	 0.456473
C	 2.1281612202	-0.9331312581	-1.2690654436	-0.363531
C	 1.0495905454	-1.9463199333	-1.6962623711	 0.030069
N	 0.9255436998	-3.1938308239	-1.0437544995	-0.599964
C	 0.5112291007	-1.4837040542	-3.0337498326	 0.411161
O	 0.2223844783	-1.9544579915	-4.0861979051	-0.33428
O	 0.3193462774	-0.1720418268	-2.6107039194	-0.305701
H	 1.0985407027	 1.7402931195	 0.3460744946	 0.121432
H	-0.2009408054	 2.0669323664	-0.8099984952	 0.139558
H	-0.576610119	 1.8648703512	 0.9090996242	 0.117515
H	 0.1301753847	-0.5541220134	 0.7838673283	 0.120399
H	-1.1867690237	-0.2153654371	-0.3360321291	 0.115837
H	 2.8026906453	-0.5010619499	-2.0010349543	 0.13133
H	 2.5696623424	-1.1885215113	-0.3100322498	 0.134568
H	 0.0326816375	-3.6315034491	-1.2451840309	 0.247141
H	 1.6559871148	-3.8375428798	-1.3303096506	 0.246589
