16
gdb 33658	2.96509	1.53922	1.51866	3.6946	73.36	-0.2401	-0.0038	0.2363	942.313	0.127169	-396.857194	-396.850471	-396.849527	-396.888246	26.873	
N	 0.1580104407	-1.1698937281	-0.0031339315	-0.343364
C	 0.0950048361	-0.0143114812	 0.0024848753	 0.138075
C	-0.0347168424	 1.412175915	 0.0102273057	 0.290296
C	-0.7251946409	 2.3251945213	 1.0841588463	-0.082693
C	 0.6463940045	 3.0026127391	 1.2423061572	-0.159832
N	 1.1918008209	 2.3389588051	 0.0006689183	-0.19241
C	 0.6188605985	 3.0136371555	-1.2224875566	-0.159826
C	-0.7489138433	 2.3346796887	-1.0398216244	-0.08271
N	-1.5300509297	 3.0198100623	 0.0341025988	-0.320569
H	-1.2721892922	 1.9762391947	 1.9599227312	 0.097986
H	 0.6613615533	 4.0948667747	 1.2257784638	 0.119502
H	 1.1971818691	 2.6348480152	 2.1128802073	 0.123675
H	 0.6342777796	 4.1057010808	-1.1965161322	 0.119501
H	 1.1500349978	 2.6537460095	-2.1084038065	 0.123671
H	-1.3153607767	 1.9935210211	-1.9062415146	 0.097982
H	-2.4730299351	 2.6403753962	 0.0429339322	 0.230716
