13
gdb 2006	6.33166	2.08679	2.0783	4.3149	59.37	-0.2625	0.0066	0.2691	656.4934	0.103987	-303.437471	-303.431903	-303.430958	-303.466758	21.287	
N	 0.0044735458	-1.0841405064	-0.0435636042	-0.343705
C	-0.0117956686	 0.071220544	-0.0111738294	 0.165598
C	-0.0068219463	 1.5142220125	 0.0389167582	 0.239281
C	-0.6653959766	 2.4443165483	 1.0978306528	-0.220843
C	-0.0599143129	 3.3370031035	-0.0151982388	-0.035826
C	 1.2264533871	 2.4678303593	 0.0297736392	-0.256724
N	-0.6939788462	 2.3749698221	-1.0153132967	-0.335552
H	-1.7531382405	 2.4020539907	 1.1319614475	 0.129322
H	-0.1957235261	 2.4754334809	 2.0808976956	 0.114315
H	-0.1463662509	 4.4156301494	-0.1323178782	 0.1028
H	 1.8480208838	 2.500777546	 0.9289668712	 0.113264
H	 1.8275714655	 2.4455554073	-0.8828102444	 0.111652
H	-0.1274278041	 2.3577275125	-1.8702516327	 0.216418
