15
gdb 16850	3.94663	2.03844	1.54439	3.1815	68.34	-0.2225	-0.0586	0.164	810.7765	0.120624	-362.661913	-362.655521	-362.654577	-362.692479	24.87	
O	-0.0502063662	 0.1893361003	 0.7643178757	-0.330968
C	-0.0349450199	 1.2368875561	 0.1482407834	 0.351455
C	-1.3356467545	 1.8373045452	-0.4032242983	-0.266022
N	-1.363642642	 3.2694699877	-0.701886754	-0.100717
C	-0.9424034571	 4.2065635903	 0.3198511006	-0.236674
C	-0.0746891705	 3.9504737846	-0.8840850859	-0.066229
C	 1.1755096317	 3.1947740247	-0.6949773807	-0.023205
C	 1.2053689251	 1.9554548363	-0.1799572306	-0.193815
H	-1.5582652603	 1.2968874025	-1.3326659763	 0.138014
H	-2.1448515168	 1.6038182953	 0.2942368813	 0.13995
H	-1.5207061805	 5.1251866419	 0.3770537042	 0.126389
H	-0.572411868	 3.8281686388	 1.2709514819	 0.12717
H	-0.064019497	 4.6982545987	-1.6737513871	 0.105847
H	 2.0967470482	 3.6956048136	-0.9837445008	 0.114423
H	 2.1346836477	 1.425502084	 0.0001327567	 0.114381
