21
gdb 89795	3.12207	1.34685	1.12249	1.8073	82.23	-0.2536	0.0923	0.346	1173.3269	0.183301	-387.077913	-387.069727	-387.068783	-387.110384	32.733	
C	 0.0680838813	 1.585544608	 0.0378023592	-0.404189
C	 0.0374268399	 0.056562348	 0.0172825941	 0.002171
C	 0.7503424833	-0.5721321189	-1.2133369775	-0.322343
C	 1.2789780951	-1.926860843	-0.7364518186	 0.369822
C	 0.7335333073	-3.2355718235	-1.2596260548	-0.318098
C	 2.1442609259	-2.8115487326	-1.5899205485	-0.320623
C	 1.4864660635	-1.7721550352	 0.7403124236	-0.034669
O	 2.1762360012	-0.5614038676	 1.101987978	-0.272956
C	 0.7431795987	-0.5946791725	 1.1982535911	 0.038209
H	 1.1017801061	 1.9434595307	 0.0803648664	 0.130956
H	-0.3998376804	 2.003048976	-0.8597424652	 0.11273
H	-0.4645088881	 1.9847893555	 0.9076149994	 0.110573
H	-1.0068474984	-0.2851496149	 0.0437952503	 0.074185
H	 0.0850189518	-0.6599447333	-2.0768011344	 0.095463
H	 1.5890417956	 0.0670084646	-1.5071328297	 0.11367
H	 0.595934124	-4.0548649068	-0.5605630533	 0.110477
H	-0.0134268107	-3.1936052946	-2.045592496	 0.111781
H	 2.3549989294	-2.483949395	-2.6027891398	 0.113004
H	 2.9637519265	-3.3423222483	-1.1165435691	 0.114656
H	 1.6940065276	-2.6353523	 1.3690307358	 0.088358
H	 0.3425709504	-0.4984777067	 2.2053939791	 0.086822
