19
gdb 71606	2.18417	1.96559	1.66067	1.1729	74.71	-0.2313	0.082	0.3133	956.5563	0.158253	-422.97773	-422.969735	-422.96879	-423.009648	31.697	
C	 0.0751429835	 1.4809837234	-0.1264604956	-0.533346
C	 0.0145262399	-0.0068658786	 0.0034364871	 0.366246
O	 0.6201007501	-0.8452647187	-1.0457621958	-0.35169
C	 0.0967652094	-1.8129633619	-0.0794914782	-0.013837
C	 0.5757200035	-0.9495080407	 1.1207394012	-0.132249
C	-0.4870899554	-1.0472322703	 2.1988431631	-0.120416
O	-1.6938099468	-1.0601722654	 1.4067641198	-0.318194
C	-1.2172319611	-0.9828125478	 0.0797935341	 0.418696
C	-2.3132590099	-0.9841899031	-0.9422942347	-0.499624
H	 1.1118506936	 1.8316072287	-0.1401340198	 0.134041
H	-0.4116895587	 1.8067012856	-1.051064536	 0.136138
H	-0.4400482726	 1.9524812525	 0.7166385501	 0.13288
H	 0.2497778822	-2.8732320813	-0.2802800853	 0.088434
H	 1.6325184188	-0.9149756434	 1.37925544	 0.08381
H	-0.4240542384	-1.9657637827	 2.7948063382	 0.108041
H	-0.4985950634	-0.1884482321	 2.8812055073	 0.106978
H	-2.9794316245	-0.1282803771	-0.7965165398	 0.126212
H	-1.8725669417	-0.9291463198	-1.9404952377	 0.139747
H	-2.9131806185	-1.8958620173	-0.8654812981	 0.128132
