25
gdb 104984	2.30201	1.26031	1.07531	1.4733	87.96	-0.2548	0.0675	0.3223	1319.4462	0.226258	-389.482359	-389.471414	-389.470469	-389.518074	42.265	
C	 0.1024949738	 1.5540940385	-0.3266309701	-0.407821
C	-0.0607949976	 0.0585643217	-0.0332210577	-0.25516
C	-1.4915353962	-0.4840038297	 0.098550869	 0.363375
C	-2.4420575486	 0.2692455532	 1.0021449454	-0.31415
C	-2.6256802107	 0.3163262529	-0.4947517121	-0.306506
C	-1.5748187788	-2.0302653697	 0.0210214614	 0.276272
C	-0.5465815519	-2.6938434829	 0.9570621822	-0.419607
C	-2.9587872371	-2.6072318983	 0.3427513972	-0.420928
O	-1.3340871073	-2.4532573676	-1.3306268503	-0.462325
H	 1.1636093133	 1.8211702764	-0.3083525841	 0.113756
H	-0.2852156392	 1.8220015914	-1.3135458032	 0.124186
H	-0.4018090316	 2.1807994537	 0.4156938026	 0.121776
H	 0.4604341129	-0.4879285352	-0.8323537047	 0.077
H	 0.4871382952	-0.1744265688	 0.887558782	 0.105705
H	-3.1623604636	-0.2872774387	 1.5891964217	 0.109131
H	-2.0745880443	 1.1607428321	 1.4996344126	 0.103721
H	-2.3933719513	 1.2430918772	-1.0049288112	 0.10666
H	-3.4618105944	-0.21654042	-0.9299129456	 0.114603
H	-0.6822466327	-2.3628510109	 1.9920904761	 0.114437
H	-0.6646176444	-3.7803647912	 0.9215888502	 0.1159
H	 0.4810297381	-2.4626316396	 0.6626046736	 0.105863
H	-3.7464045649	-2.1602630771	-0.2670770015	 0.121708
H	-2.9406120244	-3.677119654	 0.1204343837	 0.123855
H	-3.2115179593	-2.482745153	 1.3980430393	 0.11471
H	-0.453658915	-2.1592861407	-1.5842495167	 0.273838
