15
gdb 4755	6.79604	1.25444	1.06618	5.9095	72.68	-0.2272	-0.0243	0.2029	1060.4966	0.119621	-362.714456	-362.70691	-362.705966	-362.746985	26.722	
C	-0.0124613771	 1.4560518262	 0.0133635347	-0.338529
N	-0.0238296153	 0.00606658	-0.0004343776	 0.015161
C	 0.0128737454	-0.7775522038	-1.1405789221	-0.070991
C	 0.0477102065	-2.0919742273	-0.764283044	-0.271935
C	 0.0335536776	-2.1207540917	 0.665085088	 0.168456
C	 0.0511403406	-3.2891744259	 1.5298134255	 0.076147
O	 0.0861000886	-4.4406747599	 1.1489220514	-0.294327
C	-0.0084432847	-0.8014911669	 1.0931499301	-0.164071
H	 0.9788895676	 1.8491055188	-0.2362886475	 0.147706
H	-0.7366161007	 1.8451622283	-0.7073528974	 0.148159
H	-0.2894646228	 1.8091469787	 1.0080945332	 0.147505
H	 0.0086944678	-0.3153267791	-2.1153014996	 0.12524
H	 0.0711015105	-2.9546618217	-1.4104151117	 0.126272
H	 0.0302673281	-3.050911072	 2.6190957806	 0.050013
H	-0.028199572	-0.3890154237	 2.0903844567	 0.135193
