19
gdb 108386	2.38265	1.39472	1.12252	1.749	82.31	-0.2284	0.0489	0.2773	1184.3054	0.157269	-385.818742	-385.809675	-385.80873	-385.852591	34.117	
C	-0.1745608569	 1.5039403815	 0.1518103711	-0.376831
C	 0.1353326544	 0.0140207965	-0.049930496	-0.290873
C	 0.7763759131	-0.5960057498	 1.15701542	 0.478224
O	 2.0619094268	-0.1076936852	 1.5443264207	-0.319577
C	 2.466507867	-1.4476846717	 1.9434098813	-0.102169
C	 1.0834695612	-1.9967978113	 1.6238247982	-0.221193
C	 0.0360714202	-1.1561307123	 2.3639675938	-0.301956
C	 0.2167091713	-0.6775254305	 3.7023453206	 0.343023
C	 0.3700293988	-0.2806711879	 4.8276941041	-0.443514
H	 0.7379326773	 2.0556236074	 0.393958868	 0.141229
H	-0.6066385431	 1.9372429734	-0.7546963381	 0.111835
H	-0.8832053396	 1.6505576719	 0.9727724278	 0.125056
H	-0.7823827213	-0.5405658604	-0.2777408329	 0.103926
H	 0.8081666926	-0.1143062513	-0.9066706046	 0.109702
H	 3.2505327932	-1.8235170109	 1.2779335845	 0.111572
H	 2.7976762831	-1.486165472	 2.9861168466	 0.120721
H	 0.8489196359	-2.9648649315	 1.2013741863	 0.103729
H	-0.9764066409	-1.4690191588	 2.1176788344	 0.113844
H	 0.5027473666	 0.0815254127	 5.8168069143	 0.193252
