19
gdb 41237	2.90103	2.1043	1.70196	1.8264	78.14	-0.2453	0.0722	0.3175	870.0666	0.162682	-385.810189	-385.804095	-385.803151	-385.840192	26.748	
C	-0.1000584205	 1.5453463808	-0.0408406865	-0.241966
C	 1.4432039872	 1.4587979624	-0.016733165	-0.105732
C	 1.2995095159	 0.0931950227	 0.8620726742	-0.036364
C	 1.8129649126	-1.177674986	 0.1060954964	-0.33669
C	 0.9884571172	-0.5452078887	-1.0302405931	 0.255337
C	 0.6505960967	-0.5223654975	-2.5255210912	-0.213033
O	 1.0192243657	 0.8916691799	-2.573735388	-0.317436
C	 1.7553595875	 0.735512348	-1.324352047	 0.160102
C	-0.0229018699	 0.0173336636	 0.0457140791	-0.048891
H	-0.5055352651	 1.9687579272	 0.8822918781	 0.093179
H	-0.5582837708	 2.0149329513	-0.9132964608	 0.112033
H	 2.0667731949	 2.2917636732	 0.3060961564	 0.0627
H	 1.326539223	 0.1892303966	 1.9467689514	 0.074827
H	 2.8809490786	-1.337245219	-0.0678268705	 0.097838
H	 1.3716702299	-2.0672621235	 0.5661815978	 0.101275
H	 1.3062242759	-1.1264977902	-3.1670581935	 0.102068
H	-0.3949582389	-0.6806553816	-2.8089851566	 0.107298
H	 2.8267800787	 0.6248594084	-1.5295482625	 0.067901
H	-0.8523527086	-0.6328262974	 0.3253756714	 0.065554
