15
gdb 5096	3.39301	1.99996	1.27264	0.2012	64.73	-0.1829	0.0408	0.2237	910.2838	0.120729	-395.99136	-395.983369	-395.982425	-396.023125	30.149	
N	 0.0179302221	 1.4306523405	 0.110647981	-0.618772
C	 0.0038301263	 0.0296518859	 0.0050926917	 0.178723
C	-1.0362025369	-0.8484618981	-0.0417710284	-0.106879
O	-0.5772407068	-2.1371720054	-0.0732785089	-0.182915
C	 0.7961492597	-2.0719057547	-0.0366453977	 0.222946
N	 1.5627550635	-3.23992295	-0.0698176325	-0.60289
C	 1.198267845	-0.7716747243	 0.0102599619	 0.158553
N	 2.5053059345	-0.2552570395	-0.0158486969	-0.626987
H	 0.7220765292	 1.8338203946	-0.4987820711	 0.247999
H	-0.8792130683	 1.8473584653	-0.1045772308	 0.240354
H	-2.1060947123	-0.7227480903	-0.046243152	 0.114578
H	 1.3276172263	-3.8755347914	 0.6868234223	 0.242658
H	 1.4595292733	-3.7513596052	-0.9419722623	 0.242805
H	 3.180193771	-1.0091400764	 0.0571809349	 0.246531
H	 2.6619899734	 0.3995230689	 0.7441065388	 0.243296
