25
gdb 59056	1.98863	1.24113	0.98689	1.431	89.42	-0.2378	0.0717	0.3095	1400.7605	0.225538	-389.489872	-389.478426	-389.477482	-389.525704	42.804	
C	 0.0560626647	 1.411265772	-0.2739461604	-0.384875
C	 0.0790406148	-0.0285733977	 0.2634047273	 0.010232
C	 0.5537090215	-0.0594066492	 1.7249608026	-0.385927
C	-1.2919075658	-0.6715579653	 0.132110127	-0.032246
C	-1.8347433656	-1.2864787217	-1.156660216	-0.102817
C	-1.0542076476	-1.3465517938	-2.4532404305	-0.415563
C	-1.5333177055	-2.1542878622	 0.0498952028	 0.36028
C	-0.4160042879	-3.1744642206	 0.0504751078	-0.454138
O	-2.6478283786	-2.5669588391	 0.8122073767	-0.467792
H	 1.0424584265	 1.879655801	-0.1886838389	 0.105704
H	-0.244607834	 1.4420380649	-1.3255340445	 0.114296
H	-0.653641663	 2.0254639856	 0.2928494074	 0.111843
H	 0.8050238211	-0.5941523007	-0.3334078568	 0.065342
H	-0.1362940963	 0.4978851893	 2.3693035332	 0.113721
H	 0.6083015033	-1.0831969211	 2.1066609933	 0.116992
H	 1.5449475121	 0.3953578461	 1.8273932079	 0.105234
H	-2.0520913568	-0.1624272865	 0.7220729348	 0.087285
H	-2.9004150213	-1.1211784099	-1.2972363054	 0.081786
H	 0.0212904982	-1.4576135491	-2.294932572	 0.116226
H	-1.3820816038	-2.1899766018	-3.0719355286	 0.112337
H	-1.2030226171	-0.4341907476	-3.0415693002	 0.119034
H	 0.474108645	-2.8288813377	-0.4793611025	 0.118281
H	-0.1312939995	-3.4195132318	 1.078451828	 0.127068
H	-0.7441682621	-4.1034550506	-0.4335872729	 0.10392
H	-3.0447118224	-3.3226474223	 0.3638885002	 0.273778
