20
gdb 53040	3.45011	0.91512	0.82267	1.5974	91.73	-0.217	0.0286	0.2456	1509.5162	0.16967	-365.949478	-365.939794	-365.93885	-365.985587	35.005	
C	-0.034667207	 1.2634074662	-0.606990631	-0.508285
C	-0.026327785	-0.1811140253	-0.4349442724	 0.24422
C	-0.0300494329	-1.378336278	-0.2889587697	-0.144746
C	 0.0057634085	-2.7944788905	-0.1329043509	 0.142697
C	 0.6047173895	-3.7635563185	-1.1623824495	-0.31917
C	-0.6249466391	-4.66603808	-0.917117359	-0.152594
N	-1.2556380447	-3.6895167747	 0.0399934479	-0.188209
C	-0.3056702745	-3.4857974098	 1.1488177294	-0.013813
C	 0.5251995982	-4.5704276337	 1.7956690153	-0.427234
H	 0.4933101787	 1.557343609	-1.5209857288	 0.148725
H	-1.0592482159	 1.6450373672	-0.6813033982	 0.15255
H	 0.4484629969	 1.7725486538	 0.2345901612	 0.147435
H	 0.6189228747	-3.3349733542	-2.1649655954	 0.12045
H	 1.5992591291	-4.1588581087	-0.935171336	 0.102373
H	-1.2680836463	-4.7720951388	-1.7922222694	 0.113269
H	-0.4484675055	-5.6582876278	-0.4910610686	 0.103644
H	-0.76105271	-2.8163496128	 1.8763607825	 0.099525
H	 1.1089827882	-5.1567523796	 1.0835104124	 0.12325
H	 1.2261699897	-4.1193602131	 2.5053041339	 0.127243
H	-0.1172230527	-5.2594025108	 2.3552853863	 0.128671
