20
gdb 102183	2.40621	1.05855	0.81929	4.0576	79.58	-0.2323	0.0381	0.2704	1428.2508	0.171208	-399.297314	-399.287408	-399.286463	-399.333203	35.207	
C	 0.413826395	-2.2640876995	 0.5913797088	-0.331124
N	 0.014549072	-1.0032166413	-0.0277003203	-0.264916
C	-1.4127690661	-0.7034032111	-0.0943365328	-0.023174
C	-2.1173259151	-1.6284066111	-1.1176594707	-0.347828
C	-1.5661228649	-1.5152807849	-2.4653052269	 0.275736
N	-1.1526421486	-1.4178121446	-3.5396256997	-0.309499
C	-2.1644465765	-0.7452054416	 1.2305104936	 0.019402
C	-2.1544434181	 0.4374913347	 2.1240258168	-0.257892
N	-3.3894280112	 0.0517358351	 1.4158960166	-0.320501
H	 1.5050161591	-2.3285928362	 0.5690957496	 0.131873
H	 0.0884167567	-2.397433506	 1.6355744141	 0.10496
H	 0.0347216985	-3.1102044781	 0.0094559861	 0.130334
H	 0.491119887	-0.2349001045	 0.4291384199	 0.225458
H	-1.4879896801	 0.322357333	-0.4799205676	 0.090545
H	-2.0508260441	-2.6726747693	-0.7936526796	 0.15103
H	-3.1845705677	-1.3848797779	-1.1510153912	 0.158248
H	-2.2318872246	-1.7293764326	 1.690254869	 0.09825
H	-2.1848785024	 0.3111047513	 3.202178611	 0.126146
H	-1.6198202808	 1.3237092293	 1.7885851632	 0.111627
H	-3.5248310482	 0.6678215052	 0.6157643199	 0.231323
