25
gdb 64354	1.77204	1.76982	1.41612	1.3265	86.96	-0.2555	0.0651	0.3206	1151.5225	0.228045	-389.516478	-389.506236	-389.505291	-389.550517	40.57	
C	-0.4976546156	 1.4725725361	 0.1008370588	-0.451057
C	-0.0545526081	 0.0061466885	 0.033082577	 0.283792
C	-1.3072598113	-0.872703195	-0.1672247095	-0.421897
C	 0.9587222315	-0.2621578397	-1.1040237361	-0.236529
C	 1.7271231152	-1.5501825727	-0.7021166304	-0.212571
C	 1.4457267359	-1.7586054472	 0.8082249071	-0.265464
C	 0.7370393918	-0.4689757183	 1.2967745295	 0.387982
C	 1.7681932293	 0.5556785535	 1.7929748761	-0.449946
O	-0.202168259	-0.7190424532	 2.3425543258	-0.487395
H	 0.3516064	 2.1609271275	 0.1370606981	 0.10584
H	-1.0927156967	 1.7342626924	-0.7807982668	 0.105647
H	-1.118767539	 1.6485434546	 0.9854393709	 0.121684
H	-1.8277072101	-0.5668540481	-1.0811843609	 0.100387
H	-1.0602857057	-1.9334342127	-0.2678795678	 0.10712
H	-1.9953073154	-0.7720612244	 0.6743626008	 0.130298
H	 0.4581878446	-0.3581052085	-2.0723545321	 0.091
H	 1.6511658294	 0.5817809118	-1.1967111485	 0.09033
H	 1.3861289492	-2.4127730688	-1.2810239887	 0.101792
H	 2.7965995757	-1.4475468638	-0.9058061069	 0.095764
H	 0.7708589426	-2.6024552012	 0.9731895962	 0.105276
H	 2.3563772696	-1.9616314836	 1.3811571656	 0.082321
H	 2.4880759187	 0.8309865518	 1.0162467727	 0.118222
H	 1.2813788099	 1.4644627367	 2.1539763773	 0.124472
H	 2.3415626637	 0.1258661939	 2.6239068263	 0.100249
H	 0.2923857436	-0.9313940297	 3.1404742754	 0.272686
