21
gdb 110378	3.61048	1.06339	1.01427	1.3356	82.05	-0.2326	0.0753	0.3079	1277.9489	0.183538	-387.026507	-387.018304	-387.017359	-387.059319	32.457	
O	-0.1068720116	 1.2636715349	-0.5539465151	-0.421796
C	-0.0761612037	-0.0056787892	 0.087297922	-0.118493
C	-1.4614999973	-0.5973891976	 0.0339263648	-0.002497
C	-1.8398488328	-1.2994893297	-1.2403974575	-0.052955
C	-1.5502872753	-2.0988391728	 0.0403729444	-0.088221
C	-3.0097937084	-2.6100799631	 0.062338654	-0.025654
C	-4.101854686	-1.793891184	 0.8194324605	-0.242094
C	-4.3939776753	-0.9812143596	-0.4869061323	-0.241992
C	-3.3011661895	-1.8032134577	-1.236320155	-0.02717
H	 0.7530197419	 1.677848132	-0.4348157818	 0.284288
H	 0.6357792548	-0.6855923504	-0.4096358082	 0.080638
H	 0.2440657801	 0.0913620332	 1.1370463999	 0.085859
H	-2.1953618327	-0.0003875134	 0.5681630627	 0.086246
H	-1.2301423301	-1.1798055782	-2.1287488185	 0.083941
H	-0.6859398952	-2.7053923657	 0.289579746	 0.076205
H	-3.0981018184	-3.6967529913	 0.0787233772	 0.064309
H	-4.9464845614	-2.4075200869	 1.1424638899	 0.095396
H	-3.7553783087	-1.2167565024	 1.6808635807	 0.098684
H	-5.4000877608	-1.1460498175	-0.8801839849	 0.095196
H	-4.223856565	 0.0971071943	-0.4329871279	 0.105736
H	-3.6000610944	-2.310256485	-2.1541214708	 0.064374
