17
gdb 40707	3.4869	1.07124	0.94926	1.7004	69.46	-0.2648	0.0615	0.3263	1257.8518	0.134493	-458.882158	-458.873908	-458.872964	-458.915967	29.84	
C	-0.3552416837	 1.346342987	-0.1193842926	-0.175861
O	 0.98771362	 0.8668617981	-0.0764568497	-0.234334
C	-0.075700759	-0.0940136324	-0.0406701174	 0.036735
C	-0.2130348104	-0.8052442508	 1.2660400145	 0.031436
O	-1.3069569708	-1.7241656852	 1.3995798371	-0.255159
C	 0.0153398458	-2.2498839593	 1.4604249649	 0.020448
C	 0.4279045504	-3.2223048224	 0.3971522415	 0.044757
C	-0.5575387728	-4.1148494416	-0.2319335435	-0.174247
O	-0.0077036864	-3.0005105875	-0.9394216439	-0.224408
H	-0.6908169007	 1.8803451692	 0.7691654281	 0.114857
H	-0.6706369019	 1.7768347463	-1.0684240091	 0.120701
H	-0.185019045	-0.7063580708	-0.9297168227	 0.135473
H	-0.0608594172	-0.1579630663	 2.132153093	 0.099143
H	 0.3294454554	-2.5676048746	 2.4582345327	 0.098214
H	 1.4594983511	-3.5658235172	 0.4874015063	 0.106207
H	-0.2484146217	-5.0940215944	-0.5924558577	 0.120081
H	-1.6043201731	-4.0102791379	 0.0435639886	 0.135956
