20
gdb 37564	3.63779	1.62551	1.39132	1.8633	82.78	-0.2257	0.0746	0.3003	989.1928	0.173731	-365.905556	-365.898758	-365.897814	-365.936604	28.466	
C	-0.0975359275	 1.5488282324	-0.0534775019	-0.194587
C	 1.4022845656	 1.3043152467	 0.0204663496	-0.118303
C	 1.1639685423	 0.1182010252	 0.9883105267	-0.043408
C	 1.9406670315	-0.8981445895	 0.1334007435	-0.035204
C	 3.3702423617	-0.8083221549	-0.4017920154	-0.271018
C	 3.1463037566	-0.7905399406	-1.9645306556	-0.190287
C	 1.68085477	-0.2691749222	-2.250131667	-0.393099
C	 1.2158052383	 0.0025884943	-0.841634519	 0.427804
N	-0.081592401	 0.0245390962	 0.0153897155	-0.231019
H	-0.5841072069	 2.0163603312	 0.8092070562	 0.096413
H	-0.5194311935	 1.937569927	-0.9861916096	 0.098659
H	 2.2386106221	 2.0111390549	 0.0150707252	 0.063995
H	 0.9820172844	 0.1597815006	 2.0645246357	 0.078063
H	 1.5494350584	-1.9201350066	 0.1840509585	 0.077443
H	 3.853877838	 0.1208391582	-0.0842253989	 0.104095
H	 4.0195040461	-1.6323744536	-0.0965345217	 0.097348
H	 3.8965029154	-0.1705519959	-2.462008086	 0.103713
H	 3.2576404611	-1.8011250603	-2.36743113	 0.108906
H	 1.668143913	 0.6083182116	-2.9022507138	 0.10405
H	 1.0763541843	-1.0483093346	-2.7243999123	 0.116437
