22
gdb 89527	2.35393	1.63169	1.23982	1.4615	82.55	-0.2102	0.0858	0.296	1132.5902	0.19438	-404.340231	-404.331415	-404.330471	-404.37331	34.258	
C	-0.0563515982	 1.5101019393	 0.0533607953	-0.326124
N	 0.0344260632	 0.0700739263	 0.1059043973	-0.079271
C	-1.1841141	-0.7074127881	 0.4068530089	-0.218106
C	-0.3616174358	-1.6074470509	 1.3741455001	 0.413118
C	-0.9576591679	-1.9204990707	 2.7300297332	-0.453605
O	 0.122901546	-2.8144248871	 0.8009778585	-0.3122
C	 1.3110477203	-2.5512869268	 0.0530571392	-0.080654
C	 1.9939022788	-1.3695692908	 0.7589137821	-0.231316
C	 0.7838671913	-0.5602767116	 1.2164358262	-0.040791
H	 0.9396999548	 1.9430196636	-0.0890161169	 0.118673
H	-0.6748884451	 1.8134859738	-0.7982300448	 0.120783
H	-0.4953560412	 1.9579238721	 0.9665673845	 0.086528
H	-1.9595797067	-0.1278652114	 0.9329066206	 0.080403
H	-1.6357182961	-1.2070697495	-0.4573599149	 0.1019
H	-1.7855585028	-2.6295662057	 2.6252017909	 0.127174
H	-0.2053636909	-2.3763639556	 3.3809774036	 0.119405
H	-1.3389813708	-1.0163518784	 3.212638943	 0.111856
H	 1.9062438176	-3.4684688599	 0.0443530196	 0.102464
H	 1.0638764849	-2.2814096934	-0.9823776896	 0.103356
H	 2.5704944986	-1.7117009629	 1.6254876929	 0.099426
H	 2.6551980738	-0.8062968858	 0.0954524952	 0.102656
H	 0.965959956	 0.0957582835	 2.0773833952	 0.054325
