17
gdb 27228	3.34726	1.61342	1.1035	3.3948	81.92	-0.2068	-0.0108	0.1961	1069.9761	0.138463	-380.922997	-380.915569	-380.914625	-380.955119	28.408	
C	 0.0094090698	 1.5080754695	 0.0701866827	-0.487433
C	 0.0475881462	 0.0178743896	-0.0276267049	 0.129606
C	 0.0026741558	-0.782454544	-1.1395426042	 0.268653
C	-0.0883804422	-0.8379517116	-2.6407441623	-0.419135
C	-0.0592400802	-2.3398843183	-2.8905698156	-0.131987
C	 0.0319936454	-3.0020447942	-1.7313267118	-0.017557
N	 0.0704600221	-2.0846626375	-0.6675771928	-0.014714
C	 0.1525971955	-2.0257797315	 0.6908411482	-0.028139
N	 0.1411358816	-0.7769779445	 1.1053273344	-0.329599
H	 0.9107110281	 1.894754138	 0.5583583525	 0.13351
H	-0.065350943	 1.9674968614	-0.919476447	 0.110942
H	-0.8462882959	 1.8426130268	 0.6668802818	 0.133511
H	-1.0067251812	-0.3812965843	-3.0330347109	 0.136107
H	 0.7461865517	-0.3292817738	-3.1412794852	 0.136107
H	-0.106268527	-2.7931014649	-3.869929022	 0.113927
H	 0.0754599278	-4.0634319047	-1.5374664997	 0.137682
H	 0.2171930692	-2.9040173763	 1.3148836173	 0.128518
