21
gdb 115580	3.23009	0.98284	0.90483	2.7073	74.3	-0.2461	0.0598	0.3059	1365.8362	0.180923	-461.332663	-461.322577	-461.321633	-461.367655	36.877	
C	-0.3060184626	 1.650314243	-0.0126296676	-0.473505
C	-0.1254535938	 0.1396328838	 0.0914610302	 0.265477
C	-1.384519732	-0.5998104218	-0.3566210744	-0.125392
O	-1.6261088214	-0.275062494	-1.7176496278	-0.426413
C	 1.1442709118	-0.4795726787	-0.5403441233	-0.108686
O	 1.4457349275	-1.2066623164	 0.6750862809	-0.311216
C	 0.4240508192	-0.4785099866	 1.4084113596	 0.060544
C	 1.0906030333	 0.4101597327	 2.4481897822	-0.07848
O	 1.8632610873	-0.3882907942	 3.3244623263	-0.422741
H	 0.6098117298	 2.1923878137	 0.2362995038	 0.11704
H	-0.596012756	 1.9175564544	-1.0319795662	 0.14186
H	-1.099146948	 1.9989749465	 0.6588022988	 0.115026
H	-1.2334943961	-1.6826361133	-0.2281192861	 0.098206
H	-2.2316083689	-0.3018542931	 0.2835436884	 0.087096
H	-2.3985700983	-0.7638540574	-2.0151900016	 0.29157
H	 0.9860923674	-1.1467963311	-1.3931826935	 0.113929
H	 1.93116068	 0.2440293992	-0.7886192926	 0.096887
H	-0.2525161053	-1.1769604284	 1.9198679212	 0.07613
H	 1.7119257375	 1.1738348407	 1.9558301479	 0.084312
H	 0.3401492328	 0.9277173241	 3.0559919978	 0.106405
H	 2.4165388955	-0.9357951531	 2.7525706958	 0.291949
