18
gdb 111902	2.19538	1.45081	0.9208	5.5175	76.1	-0.2331	-0.0061	0.2271	1260.5032	0.14821	-435.29827	-435.289209	-435.288265	-435.332297	33.233	
C	-0.0105527296	 1.4484979761	-0.0536746947	-0.492419
C	 0.0133115611	-0.0439925515	-0.0727758788	 0.37039
N	 0.0469031081	-0.7731722309	-1.1239128129	-0.314953
C	 0.0757217211	-2.1739069388	-0.6702641954	-0.076822
C	 1.3177781849	-2.8745033727	-1.2411689897	-0.046765
O	 1.3120779524	-2.8326581193	-2.6497358642	-0.424055
C	 0.053826094	-2.1254041396	 0.8537005305	 0.379511
N	 0.0942620725	-3.1258231001	 1.6342405554	-0.551183
N	-0.0046929086	-0.75764744	 1.1261053135	-0.378876
H	 0.8479719625	 1.8469660705	 0.4982715074	 0.141139
H	 0.0179283867	 1.8216273877	-1.0771553936	 0.161692
H	-0.918248649	 1.8171704186	 0.4368468038	 0.143234
H	-0.810682945	-2.6957340337	-1.0493649424	 0.122241
H	 2.2190849383	-2.39958243	-0.8201288316	 0.081784
H	 1.3167747605	-3.9235944015	-0.9336380514	 0.129819
H	 1.1287682757	-1.9144780721	-2.8859953784	 0.293727
H	 0.0781154592	-2.8503974739	 2.6176159807	 0.206981
H	 0.0010246953	-0.3522890688	 2.0474051315	 0.254553
