25
gdb 85973	3.30851	0.9722	0.92661	0.1253	93.12	-0.261	0.0847	0.3457	1456.2486	0.228385	-352.341019	-352.331146	-352.330201	-352.37576	38.474	
C	-0.7553332434	 0.7627200232	-1.1383685162	-0.408834
C	 0.3039555924	-0.1493692868	-0.5374861417	 0.063781
C	 1.7444170436	-0.0973354125	-1.1197136927	-0.271723
C	 2.3268209789	-0.137996098	 0.3340467899	 0.336038
C	 3.4018468566	 0.9021637329	 0.6344375784	-0.481514
C	 0.8918272708	 0.2134890424	 0.8551246064	-0.271722
C	 2.7048842037	-1.5609832755	 0.7212385624	 0.001784
C	 4.0941930388	-2.1307029079	 0.5789962483	-0.285924
C	 3.5011502701	-1.9145376662	 1.9524785762	-0.285924
H	-0.4130296368	 1.804081959	-1.1544893809	 0.107837
H	-0.9922871429	 0.4751225264	-2.169149009	 0.111482
H	-1.6864897133	 0.728201996	-0.5611998228	 0.111482
H	-0.066690359	-1.1801642805	-0.5352648825	 0.068274
H	 2.0488072683	-0.9032227659	-1.7935897818	 0.091345
H	 1.9478582876	 0.8600188002	-1.6117167631	 0.085902
H	 3.0588442399	 1.8960233077	 0.3299817816	 0.108603
H	 3.6367344996	 0.9531272803	 1.7031600726	 0.114925
H	 4.3320165434	 0.6996759911	 0.0924775652	 0.114927
H	 0.789320125	 1.2823819763	 1.0717913406	 0.085902
H	 0.5316907741	-0.3501372269	 1.7204819589	 0.091345
H	 1.9125126684	-2.2703511442	 0.4907574002	 0.076772
H	 4.1973874423	-3.1465140955	 0.212895104	 0.106864
H	 4.8989294694	-1.4713511094	 0.2737254223	 0.110756
H	 3.9144850939	-1.1125278769	 2.5537029454	 0.110757
H	 3.1975616388	-2.7820825291	 2.5284578781	 0.106864
