17
gdb 114508	2.78631	1.33318	1.0576	2.927	67.61	-0.2719	0.0057	0.2776	1135.1527	0.136011	-458.964584	-458.956451	-458.955507	-458.997895	29.996	
O	-0.1496765919	 1.5343817326	-0.0293339164	-0.423457
C	-0.0226599254	 0.1686681105	 0.3365994355	-0.102366
C	-1.3332999261	-0.5056205079	-0.021941016	 0.021937
C	-1.6841230601	-0.6899402737	-1.5332684318	-0.255003
C	-1.8107784499	-2.2092459587	-1.3084978133	 0.110684
O	-0.5422750384	-2.9052945925	-1.5427890633	-0.255333
C	-0.1932281286	-2.8211011799	-0.2125968511	 0.459612
O	 0.7920729899	-3.2412002463	 0.3038599477	-0.334389
C	-1.4500464776	-2.0538557045	 0.1900532495	-0.269348
H	 0.6966795565	 1.9663406652	 0.1182847899	 0.291619
H	 0.8101592674	-0.3130928696	-0.1978217041	 0.105467
H	 0.1717070657	 0.0527617354	 1.4150625387	 0.09818
H	-2.1422303929	 0.0058418511	 0.5051590152	 0.09874
H	-2.6167252537	-0.2055849125	-1.8285835672	 0.116957
H	-0.901545272	-0.4141458371	-2.2426217414	 0.126568
H	-2.6489218077	-2.7778400019	-1.7065026642	 0.102109
H	-2.0194704851	-2.4315156103	 1.0364857324	 0.108023
