16
gdb 94430	2.59623	1.41224	1.26502	3.651	65.86	-0.2364	0.0138	0.2502	1050.5734	0.123647	-475.009661	-475.001114	-475.00017	-475.043422	30.569	
O	 0.0671108485	 1.2404661409	-0.3916072576	-0.422326
C	 0.0725699099	-0.0793861689	 0.0860753722	-0.01549
C	 0.0398290759	-0.3055717372	 1.615802484	-0.107833
O	-1.1949518846	-1.0521316754	 1.4976273055	-0.309075
C	-1.3169204892	-0.7465685947	 0.1130119254	 0.275291
C	-2.5883206481	-0.0139319894	-0.4032174474	-0.222247
N	-2.7684250764	-1.1443997326	-1.3246393224	-0.338852
C	-1.6850269117	-1.8723518306	-0.9007559281	 0.373801
O	-1.2104934238	-2.9259351649	-1.229376602	-0.365169
H	 0.9671310282	 1.4947867304	-0.6145612896	 0.295947
H	 0.8139368832	-0.7016645002	-0.4273270173	 0.105196
H	 0.8410607526	-0.9092639517	 2.054187674	 0.112933
H	-0.0929150367	 0.6216359982	 2.1859534202	 0.108251
H	-3.3689722169	 0.076108275	 0.357472893	 0.122154
H	-2.4017768835	 0.947348255	-0.8876569442	 0.133145
H	-3.4075781174	-1.2892938039	-2.0915176458	 0.254272
