17
gdb 37675	3.0896	2.50713	2.12698	0.3476	72.19	-0.2031	0.0749	0.278	744.8019	0.140983	-380.807943	-380.802801	-380.801857	-380.837056	23.371	
C	 0.0041012176	 1.5114321748	 0.066473061	-0.195118
C	 1.4461771925	 1.9231202481	-0.1402099407	-0.034689
C	 2.1431210724	 0.8161175384	-0.857447145	-0.047015
C	 1.2431263911	-0.4155375976	-0.7705039738	-0.055535
C	 1.7227118925	-1.2069560117	 0.4744526574	-0.107645
C	 2.0587633623	-0.0218726216	 1.3452258124	-0.02894
C	 0.6251821308	-0.5139228115	 1.236874939	-0.045278
N	 0.0219230568	 0.0420471233	 0.0211267704	-0.115491
N	 2.4903848527	 1.1273963186	 0.5413070056	-0.125297
H	-0.4136874487	 1.8356113504	 1.0267463991	 0.109321
H	-0.6256789745	 1.9231033573	-0.7317637824	 0.105397
H	 1.6986051471	 2.9704586108	-0.2868678947	 0.089289
H	 2.8949542534	 0.9456814334	-1.6304705688	 0.088758
H	 1.0133713378	-0.9336866436	-1.7012241858	 0.077717
H	 2.1229372358	-2.2081016204	 0.5421034949	 0.097353
H	 2.594366422	-0.1636980357	 2.2764578239	 0.097397
H	 0.0166524482	-0.8374484431	 2.0751684075	 0.089776
