15
gdb 4044	4.32078	1.41505	1.10249	2.1549	64.68	-0.2459	-0.0282	0.2177	1015.6061	0.11799	-399.79375	-399.786242	-399.785298	-399.826031	27.775	
O	-0.1576277998	 1.3365296051	 0.2164989769	-0.392185
N	 0.0007834176	-0.0593696866	 0.2428154573	-0.212753
C	-1.0993859732	-0.6514532985	 0.0059493989	 0.389202
C	-1.1882588493	-2.1647105642	-0.0219172101	-0.298916
C	-2.6450925019	-2.45702805	 0.381757747	-0.319598
C	-3.4382776285	-1.2092002899	-0.0283691052	 0.391751
O	-4.6287358076	-1.1521746317	-0.1843806737	-0.302087
C	-2.4587172465	-0.0413387871	-0.2081588823	-0.416068
H	 0.7245281537	 1.6469003547	 0.4474080535	 0.308798
H	-1.0055814576	-2.5214858843	-1.043996717	 0.128108
H	-0.4390724322	-2.6276925681	 0.6221226362	 0.130837
H	-3.0770260489	-3.3569115297	-0.059684199	 0.13412
H	-2.7370492841	-2.5518265375	 1.4718162465	 0.140513
H	-2.6670453788	 0.7682007281	 0.4990290257	 0.161167
H	-2.5743251631	 0.3941386596	-1.2082414146	 0.157111
