19
gdb 37725	3.14237	2.03304	1.67106	1.4744	77.03	-0.2185	0.0903	0.3089	869.7513	0.163921	-385.858028	-385.852032	-385.851088	-385.888159	26.112	
C	-0.0353024043	 1.6066153491	 0.0772572243	-0.220697
C	 1.514149467	 1.3950700973	 0.0318319274	-0.055081
C	 1.7657982984	 0.6618905801	 1.3612308116	-0.107697
C	 2.0352251736	-0.8163882476	 1.2801081033	 0.116723
O	 2.6176129932	-1.4398394862	 0.1765864212	-0.273438
C	 2.2050046844	-0.9161676316	-1.0808065655	-0.095602
C	 1.2109179515	 0.2184446209	-0.9436311476	-0.036721
C	-0.0338439986	 0.0453136029	-0.0224867877	-0.055078
C	 0.6049731674	-0.3502949627	 1.320489745	-0.107702
H	-0.4570495476	 2.0539093436	 0.9816523699	 0.090737
H	-0.4313417121	 2.0968212296	-0.8173939605	 0.090427
H	 2.2063996794	 2.1932304112	-0.2379417882	 0.061174
H	 2.0246501459	 1.2291263032	 2.2482927477	 0.082457
H	 2.412635343	-1.2855815798	 2.1832819638	 0.099819
H	 3.0985131228	-0.5709182927	-1.6222003524	 0.096757
H	 1.7636985248	-1.7347346503	-1.6689092084	 0.096752
H	 0.9225447023	 0.5888904392	-1.9306131369	 0.07354
H	-0.9069904398	-0.5214595978	-0.3471895694	 0.061173
H	-0.0269660514	-0.5598030982	 2.1762928923	 0.082458
