17
gdb 34090	3.43948	1.51757	1.30702	1.2218	77.32	-0.2344	0.0396	0.274	990.8278	0.136654	-384.622334	-384.6152	-384.614256	-384.653592	29.132	
C	 0.0596752374	-1.1705632281	 0.0260772274	-0.33357
C	 0.0163204322	 0.0309747557	-0.0025494591	 0.068574
C	-0.0177127308	 1.4708577239	-0.0273984578	 0.1818
C	-0.978299943	 2.2097696668	 0.9815899815	-0.271772
C	-1.4156383946	 3.1277291899	-0.1571198498	-0.110031
C	-0.1886347529	 3.5722555026	-0.9273136827	 0.104197
O	 1.0664914703	 3.5388027744	-0.2819520519	-0.272863
C	 1.3564256416	 2.1673300263	-0.0067854141	-0.121149
C	-0.7448232835	 2.2207561151	-1.1958808046	-0.167266
H	 0.0927561567	-2.2316032118	 0.0509913551	 0.184645
H	-1.7827638148	 1.5473747484	 1.304686801	 0.119111
H	-0.5004532551	 2.6674062909	 1.8538663933	 0.104949
H	-2.36076265	 3.6535143796	-0.2267346408	 0.089688
H	-0.2854222498	 4.3779206785	-1.6448468066	 0.106382
H	 1.8454514515	 2.1016132846	 0.9695781847	 0.116075
H	 2.0212829712	 1.7454880628	-0.7742229388	 0.10177
H	-1.0791503562	 1.8036008602	-2.1357133069	 0.099457
