18
gdb 16001	3.79109	1.96016	1.56618	1.1164	72.76	-0.2406	0.0255	0.266	866.2526	0.15498	-347.795632	-347.78868	-347.787735	-347.826463	27.866	
C	-0.0064992478	 1.4972016091	-0.031007824	-0.330439
C	 1.3167515433	 0.7509264039	-0.0108145085	-0.322116
C	 0.0028560934	 0.0066845602	 0.0311336942	 0.446008
C	-0.4258720788	-0.743263098	 1.2771663356	-0.313997
C	-0.1336481739	-2.2138653317	 1.118514705	-0.06124
C	 0.1678134692	-2.7376814228	-0.0665340845	-0.064488
C	 0.1975388764	-1.905559027	-1.3184267773	-0.127285
O	-0.4048495322	-0.6312148188	-1.1522590021	-0.290748
H	-0.3073967227	 2.0463102255	 0.8550128487	 0.109723
H	-0.312002943	 1.9424198881	-0.9708656197	 0.122844
H	 1.8754961303	 0.7144384957	-0.9394375569	 0.115918
H	 1.9248680147	 0.7927545763	 0.886448274	 0.109787
H	 0.0946630843	-0.3427934435	 2.1555368436	 0.103703
H	-1.4994120449	-0.5893672206	 1.4611075952	 0.114131
H	-0.1762510208	-2.8381664928	 2.00686776	 0.088288
H	 0.4054820902	-3.7923955937	-0.1766365216	 0.089322
H	 1.2380198025	-1.797074226	-1.6744474017	 0.096584
H	-0.3623414902	-2.398158824	-2.12218308	 0.114006
