18
gdb 82026	2.39149	1.50075	1.33663	1.9149	72.08	-0.247	-0.0237	0.2233	1046.379	0.146225	-439.046797	-439.038026	-439.037082	-439.080246	32.8	
C	 0.1046032439	 1.7228108554	 0.190126843	-0.46458
C	 0.0034789458	 0.2080490895	 0.0540366489	 0.173012
C	-1.3732956908	-0.2892404203	 0.3935650442	 0.101627
O	-1.9760104758	-1.1397847698	-0.2154105681	-0.263101
C	 0.5786646195	-0.4662866205	-1.1944745567	-0.081141
N	 2.0331838263	-0.1706208502	-1.2046362882	-0.377691
C	 1.5104902811	-1.3069409417	-0.4031159351	-0.070903
C	 1.0761923227	-0.6597507441	 0.9148328468	 0.091057
O	 2.0504725479	 0.0360022226	 1.6226507947	-0.424442
H	 1.1146507806	 2.0599077009	-0.0485779887	 0.135053
H	-0.5905861787	 2.2267782252	-0.4900955234	 0.121413
H	-0.127325455	 2.0382313218	 1.2122532401	 0.129242
H	-1.8108168577	 0.1797757281	 1.3057744224	 0.078056
H	 0.0447013493	-0.7137206176	-2.1017950775	 0.112377
H	 2.4241731692	-0.5523715836	-2.0638452864	 0.239442
H	 1.8619101597	-2.3175839318	-0.5678981755	 0.102832
H	 0.5835808085	-1.3463232767	 1.6067699493	 0.10014
H	 2.6060587934	 0.4565386927	 0.9506292902	 0.297607
