16
gdb 47389	2.5123	1.47435	1.21719	5.1919	70.41	-0.2535	0.0208	0.2743	1062.0299	0.125181	-437.897299	-437.889158	-437.888214	-437.930384	30.401	
O	 0.0072656211	-0.0665269602	 0.131444313	-0.387344
C	-0.0447072977	 1.1340533308	 0.0501741019	 0.468557
N	-1.209767236	 1.8472006226	 0.1143311218	-0.359522
C	-1.3738775054	 3.2891070007	 0.0353883021	-0.157362
C	-0.0447921431	 3.9508199855	 0.3762830718	-0.233423
C	 1.0688558025	 3.25108567	-0.410238661	-0.061349
O	 1.1136698615	 1.8518653119	-0.071628349	-0.244624
C	 0.9380346842	 3.4356785342	-1.8570149462	 0.357451
C	 0.8241648134	 3.599563338	-3.0417109825	-0.476548
H	-2.0263874975	 1.2597167571	 0.1574650943	 0.259688
H	-1.693257598	 3.5941060833	-0.9704283285	 0.125371
H	-2.1512081274	 3.6033880448	 0.7398551545	 0.117201
H	-0.0690892663	 5.0151484152	 0.1311951826	 0.125691
H	 0.175099409	 3.8433241495	 1.4429184882	 0.125737
H	 2.0449418888	 3.6303213628	-0.0920989197	 0.130174
H	 0.7369125409	 3.7336057838	-4.0920908233	 0.210302
