22
gdb 57952	3.52656	0.90875	0.81391	2.123	83.72	-0.261	0.033	0.294	1525.4203	0.192451	-404.347437	-404.337261	-404.336317	-404.383229	37.374	
C	 1.0463807497	 1.2838421749	-0.7237798163	-0.378968
C	 0.159235584	 0.5137126435	 0.2562379349	-0.037773
C	-0.4647934085	-0.734347508	-0.3994191721	-0.388327
C	 0.9100790585	 0.1149519889	 1.5097812372	 0.408326
N	 2.1721292067	 0.1563904625	 1.6030509186	-0.529314
O	 0.0158496323	-0.2907481283	 2.4690086644	-0.251458
C	 0.5303785896	-0.6813169128	 3.7145550835	 0.115572
C	-0.2986449101	-1.6635402445	 4.475023372	-0.292406
C	 1.0308544485	-2.090830932	 3.8889547264	-0.283458
H	 1.8865612541	 0.6673396475	-1.0531180973	 0.13211
H	 0.4645284802	 1.5808073858	-1.6022278015	 0.101022
H	 1.4626631257	 2.1823869204	-0.2618558404	 0.120182
H	-0.6649556256	 1.1600811502	 0.5849380964	 0.091938
H	 0.3175993815	-1.4192848827	-0.7436392191	 0.121915
H	-1.1082905587	-1.2704545951	 0.3022489234	 0.122088
H	-1.0661884915	-0.4458650771	-1.2667872123	 0.114228
H	 2.5036223145	-0.1824444911	 2.5052073589	 0.219817
H	 1.02311814	 0.1235381908	 4.2551035589	 0.107285
H	-0.3834593601	-1.5395481227	 5.5483304978	 0.121863
H	-1.1963939287	-2.0197461957	 3.9833698963	 0.131463
H	 1.0050450461	-2.7281293022	 3.0127291419	 0.132343
H	 1.8679403919	-2.2653040623	 4.5558653284	 0.121553
