23
gdb 59712	2.93382	1.19762	0.95978	1.5385	84.67	-0.2535	0.0732	0.3267	1312.6521	0.20678	-388.296362	-388.28729	-388.286346	-388.329897	35.759	
C	 0.0417764917	 1.5567111014	 0.0328039872	-0.406906
C	 0.0093568982	 0.0273868797	 0.0409417311	 0.130713
O	 0.7250312782	-0.487277854	 1.1646379599	-0.434797
C	-1.4114452188	-0.5497180899	-0.0119488961	 0.014006
C	-2.2319221379	-0.140165564	-1.2618833402	-0.253166
C	-3.2765610778	-1.2638230076	-1.4564597874	-0.221162
C	-2.6155743491	-2.5131718287	-0.8905332382	-0.035597
C	-1.1931023637	-2.7924848098	-1.309841524	-0.288918
C	-1.4682591489	-2.0746461375	-0.0088648177	-0.020671
H	 1.0722652357	 1.9100575465	 0.1265190316	 0.121769
H	-0.3828800629	 1.9666229778	-0.8885479049	 0.118971
H	-0.5358919353	 1.9613912057	 0.8742937799	 0.102212
H	 0.5663332659	-0.3492417524	-0.8264068779	 0.085541
H	 0.3016563879	-0.1424568634	 1.9589498265	 0.271951
H	-1.9422537391	-0.1953528092	 0.8870021625	 0.053343
H	-2.6956974551	 0.8435250221	-1.1547813818	 0.09811
H	-1.5720168672	-0.0791935983	-2.1349857119	 0.10252
H	-4.1824931896	-1.0425108403	-0.8790593597	 0.096716
H	-3.5814803224	-1.3675670528	-2.5038258517	 0.094832
H	-3.2452963018	-3.3528919282	-0.6169884423	 0.076595
H	-0.8473156472	-3.8177195469	-1.2369194701	 0.108033
H	-0.7680084341	-2.2497789615	-2.1485461375	 0.104512
H	-1.2306433567	-2.5905913186	 0.9131688327	 0.081393
