20
gdb 68024	2.55205	1.85273	1.37708	2.8775	78.51	-0.2253	0.0799	0.3052	1020.371	0.170683	-403.097062	-403.089076	-403.088132	-403.128795	32.728	
C	 0.0098744746	 1.4920170866	 0.1365600132	-0.505734
C	 0.0214373212	-0.0015736871	-0.0196675818	 0.41563
C	 0.8819973431	-0.7907772747	-1.0534031865	-0.307572
C	 0.7271365847	-1.8400466355	 0.0898645013	 0.415632
C	 1.7086225773	-2.9335352046	 0.4002240794	-0.505735
O	 0.7282312326	-0.7257551173	 1.0286399961	-0.326586
C	-0.7925848037	-2.1635558953	-0.0248554897	-0.105867
N	-1.5861757351	-1.6100460835	 1.0976028486	-0.323633
C	-1.3204050147	-0.7884965139	-0.1067637174	-0.105865
H	 1.027576325	 1.8890619812	 0.1833560771	 0.12554
H	-0.5081089157	 1.9612592372	-0.70661012	 0.117024
H	-0.5132722925	 1.7697741552	 1.0570404105	 0.138737
H	 0.4581171048	-1.0121485517	-2.0380657492	 0.084908
H	 1.9006707503	-0.404238135	-1.1285290079	 0.101207
H	 2.7287310371	-2.542762922	 0.4474186008	 0.12554
H	 1.4681079655	-3.3921422989	 1.3645621787	 0.138737
H	 1.6698006143	-3.7125385067	-0.3685916454	 0.117025
H	-1.1533869296	-3.0019519122	-0.6093700225	 0.087262
H	-2.533172937	-1.9787497662	 1.0105203771	 0.226487
H	-2.1248546822	-0.4711218055	-0.7601221725	 0.087262
