17
gdb 131495	3.93306	1.19059	1.02336	3.5291	75.79	-0.2271	0.0268	0.2539	1166.1734	0.137576	-417.99631	-417.988547	-417.987603	-418.029302	29.559	
O	 0.1069658556	 1.4006812184	 0.6137856806	-0.41068
C	 0.048111207	 0.0957190939	 0.1228076927	 0.07104
C	-0.5349462168	-1.0005506362	 0.9899566035	-0.357034
C	-1.3072083635	-0.470506035	-0.1990775539	 0.072413
N	-2.5258654772	 0.2651911293	-0.053575915	 0.032876
C	-2.8607627046	 1.2625290178	 0.8069535526	-0.018137
C	-4.1780769699	 1.5818359035	 0.5524655353	-0.242522
C	-4.5576572105	 0.7128869286	-0.4889023431	-0.00278
N	-3.559950991	-0.086490189	-0.8545639266	-0.269652
H	 0.825552634	 1.4448053974	 1.2535794813	 0.294865
H	 0.8527501826	-0.1690097506	-0.5630223118	 0.101816
H	-0.1273086018	-2.0044786647	 0.9439437847	 0.12461
H	-0.8902232565	-0.6899190639	 1.9669635206	 0.129031
H	-1.382062327	-1.1014807827	-1.0745592883	 0.129264
H	-2.1376380047	 1.67377924	 1.4884812607	 0.135838
H	-4.7685615976	 2.338177839	 1.0434720171	 0.100369
H	-5.511830128	 0.6342057143	-0.9891617304	 0.108684
