18
gdb 54659	3.29739	1.26737	0.9813	3.8184	79.34	-0.236	-0.0481	0.1879	1204.569	0.147823	-401.953517	-401.945313	-401.944368	-401.986737	31.007	
C	-0.089671197	 1.5039032244	 0.0038670393	-0.495051
C	-0.0678469985	-0.0140952163	 0.0340685115	 0.291674
O	-0.0970257757	-0.6292968729	 1.0815565985	-0.310964
C	-0.0138754446	-0.7144344287	-1.2757479597	 0.282212
C	-0.0836917278	-2.0494650154	-1.4098819618	-0.140171
C	-0.0092219994	-2.4979926292	-2.8487920696	-0.264997
C	 0.0448275626	-1.1819361827	-3.6191664527	-0.037591
N	-1.1599146903	-0.3446946043	-3.4443466364	-0.331254
C	 0.0583445289	-0.071041588	-2.6278592857	-0.199852
H	 0.8277038889	 1.8917245329	-0.4549780085	 0.134075
H	-0.9275474734	 1.863942373	-0.6036772412	 0.144096
H	-0.1754500648	 1.887504758	 1.0207955084	 0.139844
H	-0.2072710588	-2.7284608202	-0.5745517667	 0.127485
H	 0.8821016564	-3.1141531078	-3.0278822506	 0.116803
H	-0.8770388936	-3.1056722023	-3.132136881	 0.131184
H	 0.5894681914	-1.122924544	-4.5550954967	 0.092594
H	-1.1945407683	 0.3246388317	-4.2118785923	 0.229395
H	 0.5989134539	 0.8546929219	-2.7915956648	 0.090519
