20
gdb 120591	3.79396	0.76718	0.72342	4.6836	82.05	-0.266	0.0348	0.3007	1629.5733	0.169039	-403.142065	-403.131865	-403.130921	-403.177792	36.02	
C	-0.1895993149	 1.3324663265	-0.0230970749	-0.227828
O	-0.1981514491	-0.0680503294	-0.1715970054	-0.229619
C	 0.833365213	-0.534644001	-1.0138069537	-0.086896
C	 0.7574881819	-2.0401742435	-1.0338729654	-0.040982
C	-0.1532815181	-2.7722711718	-1.9728712846	-0.302772
C	 1.3549380983	-2.865153355	-2.1741522203	 0.134362
C	 2.0041158123	-2.2258654662	-3.3948424305	-0.461321
C	 1.9797753769	-4.1033962823	-1.772263225	 0.243488
N	 2.4928373269	-5.0925040359	-1.4601047264	-0.346954
H	 0.75460982	 1.6915337953	 0.4160663842	 0.107183
H	-0.3366711397	 1.8471537369	-0.9861154203	 0.104264
H	-1.012666776	 1.5939515897	 0.6457824478	 0.132236
H	 0.7199934067	-0.1133206693	-2.0257312138	 0.085336
H	 1.8164716148	-0.2056833828	-0.635124365	 0.096146
H	 0.8704866426	-2.4812451535	-0.0485623974	 0.120366
H	-0.679657044	-3.6478132803	-1.613011784	 0.13906
H	-0.6910122845	-2.1902823198	-2.714159528	 0.125886
H	 1.4600498757	-1.33249772	-3.7070534289	 0.126953
H	 3.0416417371	-1.944941906	-3.1909381464	 0.139023
H	 2.0035158801	-2.9285072817	-4.2331498019	 0.142069
