17
gdb 50989	1.91442	1.63733	1.06444	5.0163	72.32	-0.2601	-0.0423	0.2178	1146.7782	0.134734	-418.000478	-417.991364	-417.99042	-418.0352	32.273	
O	 1.4626843151	 0.3801821438	 0.5740625945	-0.244207
C	 0.9348779879	 1.4363203237	 0.8235317347	 0.157197
C	 1.5316050659	 2.7590984847	 0.349248066	-0.377854
C	 1.4289181889	 2.9227266517	-1.1720319192	 0.319808
C	 0.1517270521	 3.5965114999	-1.6777002955	-0.386372
C	-1.0583338214	 2.9670227808	-1.1498638058	 0.267096
N	-1.9909339792	 2.4635089976	-0.6884190611	-0.311854
C	 2.6761889221	 3.0957649177	-1.9645278005	-0.286183
N	 1.9140041765	 1.840909801	-2.0287984552	-0.327605
H	-0.0051594386	 1.4851262493	 1.4068996339	 0.119736
H	 1.0531277511	 3.6016765462	 0.8582375463	 0.119132
H	 2.5875585892	 2.7437590398	 0.6373940851	 0.135878
H	 0.1417224528	 4.6553147408	-1.3920180165	 0.151713
H	 0.132883516	 3.5446178569	-2.7698407158	 0.166762
H	 2.667975527	 3.6839898879	-2.8787913768	 0.120833
H	 3.6172174658	 3.1208346178	-1.4210967407	 0.120859
H	 2.3317976788	 1.1084359604	-1.4584518033	 0.255062
