17
gdb 89342	1.95681	1.73925	1.12008	0.8757	77.26	-0.2173	0.0397	0.257	1112.3606	0.133083	-421.756308	-421.747203	-421.746259	-421.789729	34.655	
O	-0.1328351778	 1.451516313	-0.0656180768	-0.432555
C	-0.002839097	 0.0497245329	 0.0169891791	 0.042422
C	 0.2996646755	-0.5748949927	 1.4260891175	-0.311609
C	-1.0527166362	-1.2641085161	 1.3918401632	 0.36291
O	-1.1733288512	-2.5393190891	 1.8890013452	-0.447786
C	-2.1571942625	-0.2875460674	 1.2115653009	-0.401053
C	-1.349044458	-0.6735836764	-0.0328931383	 0.151512
C	-1.941051883	-1.2594633118	-1.1804567554	 0.137944
C	-2.425608406	-1.7861962691	-2.1498186903	-0.409158
H	 0.7456393185	 1.8402904563	-0.0041499668	 0.286028
H	 0.6809438141	-0.334774307	-0.7487897016	 0.083608
H	 1.1245958525	-1.2896514748	 1.3917846113	 0.114864
H	 0.458361574	 0.1348272916	 2.2442927037	 0.099766
H	-2.1015426453	-2.7951524894	 1.8854440162	 0.293034
H	-3.1571229252	-0.7130563136	 1.2127243148	 0.118232
H	-2.0992710385	 0.7288265974	 1.5927149051	 0.129955
H	-2.855447574	-2.2373970036	-3.0089806777	 0.181885
