21
gdb 58872	2.55878	1.34119	1.04377	2.273	77.98	-0.2301	0.0676	0.2977	1225.1046	0.180408	-424.186168	-424.176605	-424.175661	-424.220389	36.276	
C	 0.0556910899	 1.5419949531	 0.2320414762	-0.411479
C	 0.0034208851	 0.0322833272	-0.0139779453	 0.001582
O	 0.847686827	-0.6705661764	 0.893843574	-0.424705
C	-1.4081085472	-0.5074031279	 0.0130905447	 0.268215
C	-2.0946648962	-1.0517760589	 1.2544908026	-0.371477
C	-1.9270165933	-1.9209957482	 0.0455104265	 0.056246
O	-2.9542832956	-1.6630315264	-0.9149706824	-0.310395
C	-2.4534532264	-0.3043386945	-1.0965962679	 0.096784
C	-3.5323487064	 0.7544066862	-0.9950333709	-0.411516
H	 1.0910871987	 1.8933680614	 0.2090142469	 0.124285
H	-0.5118071789	 2.0885711372	-0.5280546039	 0.122818
H	-0.3774075581	 1.7885877519	 1.2092383292	 0.112812
H	 0.4298043272	-0.1781634542	-1.0037916136	 0.089949
H	 0.677282707	-0.324164301	 1.7763432578	 0.280713
H	-1.4171698709	-1.283630381	 2.0701699798	 0.1065
H	-3.086591403	-0.7259799907	 1.5532124862	 0.111887
H	-1.427892623	-2.8823056329	 0.0224127169	 0.110084
H	-1.9544788753	-0.2430028049	-2.0744990451	 0.078149
H	-4.0060462851	 0.7548084159	-0.009967555	 0.121746
H	-3.1104627859	 1.7480911549	-1.1806919819	 0.117352
H	-4.3072549798	 0.5710238491	-1.7462005648	 0.130451
