21
gdb 38722	2.43771	2.01536	1.53566	2.2387	80.02	-0.2502	0.074	0.3242	961.2	0.186342	-387.074695	-387.06782	-387.066876	-387.105378	29.785	
C	-0.0869418099	 1.5889136489	-0.2019439907	-0.268765
C	 1.3709277009	 1.9764352069	 0.068452821	 0.007772
O	 2.4433160193	 1.9030930471	-0.9034326804	-0.317064
C	 2.171452234	 0.7583779666	-0.0948104001	 0.38955
C	 1.2714289244	-0.2710399286	-0.7837809143	-0.263427
C	-0.0180098791	 0.0434302153	-0.0072020946	 0.00209
C	 0.2727274699	-0.4383615563	 1.4478331449	-0.205597
C	 1.6234568471	 0.0108628436	 2.1062867252	-0.186877
C	 2.8430569398	 0.2184059067	 1.1407813798	-0.307147
H	-0.752146478	 2.0933231755	 0.5060193811	 0.097553
H	-0.427436556	 1.8366565963	-1.2133798481	 0.110246
H	 1.581589622	 2.6849485991	 0.8657183981	 0.091902
H	 1.1892536061	-0.0512802625	-1.8510225924	 0.103634
H	 1.6154342894	-1.301041541	-0.6561531859	 0.088617
H	-0.9150116007	-0.4668532224	-0.3764637887	 0.056399
H	-0.5433152327	-0.1487130134	 2.1205519441	 0.094484
H	 0.2527409956	-1.5345093361	 1.4066677283	 0.101427
H	 1.4556428673	 0.970658043	 2.6058624283	 0.105783
H	 1.8773636173	-0.7016364055	 2.8986495609	 0.093597
H	 3.3789675182	-0.7169283447	 0.9461765772	 0.09818
H	 3.550658255	 0.9246076316	 1.5847799064	 0.107641
