19
gdb 59009	3.67219	1.03753	0.87422	3.1803	77.53	-0.2421	-0.0087	0.2334	1353.3879	0.15926	-419.274681	-419.265555	-419.264611	-419.308891	33.642	
C	 0.0054916009	 1.5892194915	 0.0481752496	-0.376527
C	-0.0445355903	 0.0594943428	-0.0025753442	-0.087007
C	 0.7649482193	-0.5727013132	 1.14915146	-0.387948
C	-1.4619205548	-0.4459125801	 0.0137817894	 0.397061
N	-2.5023133472	 0.2488862202	 0.2859937491	-0.299869
C	-3.646740438	-0.6579672212	 0.1988147237	-0.302526
C	-3.0904850759	-2.0338037468	-0.1899773443	 0.397893
O	-3.652077138	-3.0823714418	-0.3869200984	-0.360193
N	-1.7236613076	-1.7918696439	-0.2708876296	-0.376544
H	 1.0437120909	 1.9315696498	 0.0061454169	 0.107625
H	-0.5434949531	 2.0310883458	-0.7863886215	 0.127778
H	-0.4480430802	 1.9591645034	 0.9710380237	 0.137849
H	 0.4021921233	-0.2788395858	-0.9491517818	 0.09016
H	 0.3637851995	-0.2558211102	 2.1170053241	 0.134207
H	 0.7440114331	-1.6664675024	 1.1189314933	 0.112234
H	 1.8101795226	-0.2554423386	 1.0930345147	 0.124981
H	-4.1783712286	-0.7174836512	 1.1552468408	 0.148555
H	-4.3715509492	-0.3119338124	-0.5464100864	 0.148593
H	-1.0489634568	-2.4937950257	-0.5284013489	 0.263679
