17
gdb 19990	3.56461	1.42889	1.14687	4.139	73.56	-0.2698	0.0315	0.3013	1057.4505	0.142807	-326.716597	-326.708884	-326.707939	-326.749172	28.664	
N	-0.1045591248	-1.1552774805	 0.0357057648	-0.346666
C	-0.0608126013	 0.0013004838	 0.0318470503	 0.289986
C	-0.0008406867	 1.4351320489	 0.0264421016	-0.179951
C	 0.5002898949	 2.1677539521	 1.2648976702	-0.29958
C	 1.3550955908	 2.1433740338	 0.034042917	-0.007058
C	 2.629726211	 1.3666344248	-0.0130826167	 0.018839
C	 3.4627643392	 1.3537379672	-1.2708912532	-0.266951
C	 3.9522671215	 2.0940824656	-0.0518231624	-0.278357
H	-0.7988148487	 1.9059686092	-0.5374038848	 0.131813
H	-0.0174856305	 3.0804411248	 1.5363209062	 0.128483
H	 0.8066362846	 1.5527018316	 2.1035173871	 0.140425
H	 1.3660689565	 3.0570306262	-0.5551162142	 0.097486
H	 2.608316008	 0.43971586	 0.5524957577	 0.104474
H	 3.9529207775	 0.4278294197	-1.5486725685	 0.122953
H	 3.1147993192	 1.9413473106	-2.1142013517	 0.113205
H	 3.9338602307	 3.1788134432	-0.0754422617	 0.112607
H	 4.7807859381	 1.678042879	 0.5101603884	 0.118291
