16
gdb 47027	3.86667	1.35945	1.04852	6.5115	73.94	-0.2286	-0.019	0.2097	1084.8143	0.127008	-437.905822	-437.898795	-437.897851	-437.937282	27.491	
O	 0.0449852747	-0.0236776471	-0.2466533172	-0.348018
C	 0.038492527	 1.1642652783	-0.0535930787	 0.44475
O	-1.1939052443	 1.7922245637	 0.0635706589	-0.256451
C	-1.2923325085	 3.1060261001	 0.6338213752	-0.101551
C	-0.2886505063	 4.0024364889	-0.065837451	-0.108327
C	 0.4467996318	 5.2194153488	 0.5864292317	-0.202742
N	 1.7193702416	 4.5128799679	 0.2700939246	-0.375145
C	 1.0512504382	 3.3282857495	 0.0337941547	 0.445773
C	 1.237300196	 2.0026900274	 0.0816340842	-0.451166
H	-2.3319709501	 3.4101120091	 0.4907932386	 0.122198
H	-1.0848122458	 3.0601117515	 1.7119573906	 0.107011
H	-0.5923098341	 4.2082668956	-1.0955048902	 0.118305
H	 0.3380355616	 6.1923444451	 0.1023695798	 0.124539
H	 0.2578888843	 5.312093279	 1.6621040353	 0.1203
H	 2.5636962923	 4.5820520855	 0.822837137	 0.250404
H	 2.1832571218	 1.5022247568	 0.2384572864	 0.110121
