19
gdb 65977	2.70371	1.289	1.13757	1.3839	75.54	-0.242	-0.0265	0.2154	1159.581	0.157307	-423.011309	-423.002241	-423.001297	-423.046017	33.211	
C	-0.0660666536	 1.5220614374	 0.1815383351	-0.468635
C	 0.0223751048	 0.0001689936	 0.0229653274	 0.180084
C	 1.0063085985	-0.4661720201	-1.1117537931	-0.285955
C	 2.0579795044	-0.9212631534	-0.0559332141	-0.345959
C	 1.0183062157	-0.6300495777	 1.0345704434	 0.368745
O	 0.9567358733	-0.8403018854	 2.2108352607	-0.298004
C	-1.3291433317	-0.6829724389	 0.0093287436	 0.054992
C	-2.5149790762	-0.1935375026	 0.7215724651	-0.184243
O	-2.3964713552	-0.0431023019	-0.6967499446	-0.243582
H	 0.9164131029	 1.985117538	 0.0513192442	 0.116901
H	-0.7480614405	 1.9338668277	-0.5671948786	 0.145108
H	-0.4297930008	 1.794097517	 1.1764440882	 0.133388
H	 0.6103018573	-1.2923302763	-1.7061236352	 0.114339
H	 1.3289358207	 0.3262812829	-1.7882035256	 0.112048
H	 2.3994303323	-1.9589946908	-0.1006174804	 0.133736
H	 2.9402258115	-0.2780396122	 0.0226537697	 0.136276
H	-1.277410323	-1.7584894827	-0.1723534547	 0.091408
H	-3.2670500807	-0.9071559634	 1.0542415508	 0.11951
H	-2.4696736998	 0.7300845388	 1.2931779982	 0.119845
