14
gdb 9439	2.85621	1.79044	1.68471	5.4603	62.96	-0.2706	0.0011	0.2716	851.4939	0.107078	-378.757527	-378.749689	-378.748745	-378.789736	27.799	
C	-0.0621223121	 1.5484829001	 0.0243397538	-0.44337
C	-0.0427293509	 0.0172800584	-0.0147084871	-0.017817
C	 0.7482934154	-0.6438176044	-1.1992674696	-0.192128
N	 1.6999954573	-1.1401472178	-0.20515359	-0.322718
C	 1.0841094709	-0.615808821	 0.8963473967	 0.420028
O	 1.3271597112	-0.6066873286	 2.0672469423	-0.339835
C	-1.3620600013	-0.5552033194	 0.2035372541	 0.257266
N	-2.412556478	-1.0081492386	 0.3710549899	-0.331945
H	 0.9419751433	 1.9392874747	-0.162808114	 0.133843
H	-0.7445705443	 1.9516882264	-0.7283723076	 0.142341
H	-0.386753282	 1.8918307678	 1.0093713803	 0.161434
H	 0.2065719304	-1.4260904166	-1.7363441034	 0.141375
H	 1.1671851477	 0.078915055	-1.9058113442	 0.126808
H	 2.5585485126	-1.6624907959	-0.2969586711	 0.264719
