20
gdb 67455	2.17168	1.93914	1.85273	0.8538	77.28	-0.2139	0.0618	0.2757	940.8958	0.172876	-403.119151	-403.111674	-403.11073	-403.150875	30.066	
C	-0.0146643897	 1.507688833	 0.1063020316	-0.503853
C	-0.0026804052	 0.0103319367	-0.0416342245	 0.290735
C	 0.5925989034	-0.8557043454	-1.1793628615	 0.050587
C	 1.4487465333	-1.5580703475	-0.1147572274	-0.194314
N	 0.7675930019	-0.7792843478	 0.9724525726	-0.137746
C	-0.1964784201	-1.5317222369	 1.7885108998	-0.181072
C	-1.5184063583	-1.6782507122	 0.966665967	-0.251768
C	-1.2957877657	-0.8108912878	-0.2754015098	 0.08793
O	-0.6642298298	-1.5347375785	-1.3711697296	-0.314573
H	 1.0040849689	 1.9026358425	 0.1577863582	 0.12734
H	-0.531453245	 1.9827297745	-0.734098633	 0.120524
H	-0.5302063648	 1.7993931461	 1.028986884	 0.121916
H	 1.0325702711	-0.5105518405	-2.1170907746	 0.076748
H	 1.3115907852	-2.6442740431	-0.075758752	 0.103405
H	 2.5195359811	-1.3282322416	-0.1533978859	 0.102477
H	 0.2374522954	-2.4928138611	 2.0780230738	 0.107545
H	-0.3902793069	-0.9781470436	 2.7144134995	 0.102815
H	-1.7140358045	-2.7087515712	 0.6586421566	 0.11783
H	-2.3855945957	-1.3347732329	 1.5394629914	 0.099573
H	-2.1924567746	-0.2897613927	-0.6272952961	 0.073902
