19
gdb 126154	3.8812	0.98976	0.84791	0.9885	76.43	-0.2892	-0.0208	0.2683	1389.0352	0.159279	-419.221689	-419.212702	-419.211758	-419.256242	32.372	
C	-0.0027079349	 1.5828502704	 0.1213268243	-0.399265
C	 0.0754275455	 0.0535603484	 0.1047589216	-0.167212
C	 0.6492918453	-0.523767377	-1.2014463743	-0.088647
C	 2.1168549042	-0.1247131262	-1.455636387	-0.399707
C	 0.5246601683	-2.0190969576	-1.2587867611	 0.373998
N	 0.1481042082	-2.7585442331	-0.2485206922	-0.178336
O	 0.1874955747	-4.0665669647	-0.7578183828	-0.16051
C	 0.5865738966	-3.9524199239	-2.0237265857	 0.102843
N	 0.8138976098	-2.7398213722	-2.407900149	-0.308931
H	 0.9862538832	 2.0481325937	 0.0696694677	 0.119675
H	-0.593169618	 1.960524944	-0.7213915004	 0.114125
H	-0.4800779835	 1.9322928336	 1.0416644962	 0.117221
H	 0.6805167763	-0.2997505872	 0.9480439599	 0.11177
H	-0.9252729636	-0.3627753668	 0.26106415	 0.112732
H	 0.05444761	-0.1426770502	-2.0437665971	 0.101802
H	 2.4905731788	-0.5942032317	-2.3686992537	 0.139669
H	 2.2108699862	 0.9582291043	-1.5658284179	 0.121552
H	 2.7529821149	-0.4407397839	-0.6217715911	 0.122123
H	 0.677728418	-4.8650794797	-2.5947550574	 0.165097
