15
gdb 14288	3.74621	1.87648	1.8281	3.2222	61.36	-0.2462	0.0281	0.2743	787.5329	0.119831	-399.793451	-399.78657	-399.785626	-399.824576	26.175	
O	-0.4004384294	 1.5005300038	-0.3089525335	-0.413997
C	-0.1308782923	 0.1525371814	-0.0902900529	 0.077515
C	-1.3118303763	-0.7693363332	 0.1319218366	-0.132833
C	-2.6650605795	-0.2446235973	-0.3104033863	-0.310088
C	-2.5110530128	 0.0109425893	-1.8008773858	 0.415097
N	-3.3811100813	 0.5161657846	-2.5582941175	-0.533955
O	-1.2616692486	-0.3955718771	-2.2221013512	-0.239731
C	-0.498871278	-0.8717119673	-1.1361140412	 0.017813
H	 0.0388027732	 1.7720736276	-1.1222805393	 0.298783
H	 0.7628058174	-0.0560472086	 0.4977746121	 0.096376
H	-1.2563100742	-1.5196242378	 0.9103310992	 0.103592
H	-3.4529102766	-0.9838743234	-0.1416785047	 0.134926
H	-2.9599694212	 0.6813012279	 0.1873278949	 0.15356
H	-3.0317717663	 0.5865042331	-3.5151462055	 0.222284
H	 0.1494159159	-1.6962898229	-1.406007675	 0.110657
