20
gdb 11993	2.58559	2.10599	1.75424	1.7554	73.91	-0.2483	0.0886	0.3369	899.2715	0.175203	-348.977002	-348.968533	-348.967589	-349.009061	32.728	
C	-0.1048213211	 1.564352323	-0.1271398022	-0.412485
C	 0.0172439972	 0.0519757276	-0.0024660358	-0.056106
C	 1.0412761537	-0.6462543468	-0.909383686	 0.020176
O	 2.3443510928	-0.179490601	-0.5281304668	-0.256399
C	 1.7483122063	-1.233775699	 0.2354766131	 0.000776
C	 0.7719708279	-0.5978079713	 1.2491059022	 0.288814
C	 1.4119312623	 0.3546313258	 2.2539895728	-0.447926
C	-0.0919886092	-1.653544089	 1.9380162311	-0.450335
H	 0.8803609609	 2.0370476579	-0.1326757518	 0.133511
H	-0.6141486402	 1.8348662722	-1.0589218408	 0.111692
H	-0.6845390431	 1.9880272465	 0.6996828356	 0.113184
H	-0.9667734368	-0.4182013865	-0.105239653	 0.07038
H	 0.9278209744	-1.0006973105	-1.9281679135	 0.096935
H	 2.3081980525	-2.1594214102	 0.3248303492	 0.093875
H	 2.1061079599	 1.037939494	 1.7601803721	 0.133006
H	 0.6537658692	 0.9497646672	 2.7752593848	 0.110412
H	 1.9699451113	-0.204873992	 3.0138232545	 0.108144
H	 0.4917396865	-2.2241713811	 2.6698522935	 0.112567
H	-0.9276336174	-1.1864114321	 2.4708725652	 0.117223
H	-0.5097289773	-2.3646191047	 1.2166805557	 0.112557
