17
gdb 129797	3.14484	1.6168	1.09208	2.6162	75.93	-0.1809	0.0378	0.2187	1072.744	0.140583	-414.191317	-414.183629	-414.182685	-414.223664	28.977	
N	-0.0239866514	 1.4619287218	 0.1964941232	-0.619695
C	-0.037012231	 0.0602614792	 0.0261102533	 0.019403
C	-1.1322530694	-0.7801986658	-0.0247877103	 0.379759
N	-2.5417795011	-0.7461292954	-0.0279431147	-0.426401
C	-2.9400755146	-2.1442463444	-0.3597901727	-0.177604
C	-1.6962467454	-3.0497657277	-0.1046018491	-0.182983
N	-0.6559957569	-2.0441110086	-0.1429070055	 0.048485
N	 0.6816458736	-2.1229280634	-0.1513059937	-0.3133
C	 1.0583961142	-0.8408799575	-0.0498471485	-0.048924
H	 0.8831781454	 1.8499046557	-0.0319045677	 0.240393
H	-0.7145692154	 1.9157553324	-0.3917905538	 0.242884
H	-2.9119624295	-0.456859511	 0.8724293009	 0.240916
H	-3.8103820271	-2.4485576069	 0.2237738085	 0.118188
H	-3.2099658778	-2.185773773	-1.4197691305	 0.129625
H	-1.7199197766	-3.5539956653	 0.8700885425	 0.119887
H	-1.5648608432	-3.8036064258	-0.8840130944	 0.132746
H	 2.1107080664	-0.5915382144	-0.0482929074	 0.096622
