21
gdb 99708	2.02235	1.08169	0.77032	1.6063	87.63	-0.2429	0.0572	0.3001	1569.7181	0.179846	-387.047517	-387.036736	-387.035792	-387.085159	37.247	
C	-0.1159464598	 1.4898815378	 0.0942612501	-0.400563
C	-0.0843530711	-0.0297926178	-0.0910388787	-0.162759
C	 0.793537806	-0.5115391136	-1.2783677875	-0.224251
C	 0.9413684021	-1.9660264833	-1.2459043658	 0.055773
C	 1.0537408243	-3.1635636958	-1.18370275	 0.099957
C	 1.1910116921	-4.6116106163	-1.1086213019	-0.500926
C	 0.2431047465	-0.0011635115	-2.6081223604	 0.102258
C	 0.199701805	-0.7939049983	-3.8406185654	-0.187619
O	-0.982512309	-0.5693015486	-3.0642276071	-0.235539
H	 0.8935948636	 1.898655234	 0.218321474	 0.1126
H	-0.5823095424	 2.0001000918	-0.753706617	 0.125342
H	-0.6905201442	 1.753457187	 0.9873601581	 0.117248
H	 0.2981756864	-0.5022823203	 0.8193052196	 0.105205
H	-1.0975704307	-0.4161651451	-0.2439289013	 0.123673
H	 1.7905677069	-0.0581926422	-1.1633304203	 0.099351
H	 2.0029633372	-4.9712695552	-1.7504685477	 0.145654
H	 1.4104199006	-4.9367083673	-0.0855467226	 0.147679
H	 0.2705998075	-5.1147923381	-1.424692173	 0.150435
H	 0.2920290237	 1.0834614751	-2.7138556896	 0.092818
H	 0.226504075	-0.2878723747	-4.8049896673	 0.108537
H	 0.5714983601	-1.8154605975	-3.8268904163	 0.125126
