20
gdb 71202	2.63447	1.98677	1.42953	1.885	82.5	-0.2171	0.0074	0.2245	974.898	0.173211	-365.985175	-365.977917	-365.976973	-366.016156	30.547	
C	-0.0402719182	 1.4794799173	 0.0893954929	-0.473331
C	 0.0089647812	-0.0397229209	 0.0090364392	 0.295552
C	 0.1926193494	-0.6109011221	-1.43014436	-0.198585
N	-1.1508069755	-1.2827717809	-1.419491459	-0.161741
C	-1.1933411441	-2.1734196535	-0.2009814505	-0.056033
C	-0.009439824	-2.8420122441	 0.3941578598	-0.057384
C	 0.9658792243	-2.1549239785	 0.9931979028	-0.086606
C	 0.9713002977	-0.6476663087	 1.0389790072	-0.302554
C	-1.3764052557	-0.7207982202	-0.0375662418	-0.088169
H	 0.9484905821	 1.9149309319	-0.095754131	 0.114308
H	-0.7342972192	 1.8931024011	-0.6496932665	 0.120858
H	-0.3697177921	 1.8120902812	 1.0808081319	 0.114077
H	 0.1930111926	 0.1606407689	-2.2040110859	 0.105171
H	 1.0358068776	-1.2883249327	-1.5944466748	 0.102685
H	-2.0979068587	-2.7733585772	-0.2361120408	 0.094594
H	 0.0236672935	-3.926686488	 0.35180469	 0.089799
H	 1.799718758	-2.6769889558	 1.4552111207	 0.091886
H	 1.9866490823	-0.2789753413	 0.8356990324	 0.105094
H	 0.7298724364	-0.2957107271	 2.0541230138	 0.106736
H	-2.3151122474	-0.2575305594	 0.2537959895	 0.083645
