17
gdb 93345	2.34542	1.65212	1.09098	6.5303	71.5	-0.2535	-0.0058	0.2477	1110.6469	0.136709	-455.193462	-455.184926	-455.183982	-455.227153	30.623	
C	 0.1083973489	 1.6129692676	 0.0684541414	-0.396074
C	 0.0326479868	 0.0840085432	 0.0806285166	-0.010046
C	 0.7399909475	-0.5724429682	-1.1196042013	-0.103825
O	 2.0358401786	-0.9298589951	-0.6358496967	-0.244846
C	 2.0279312895	-1.0133784399	 0.7312797431	 0.504365
O	 2.9424029122	-1.4350702241	 1.3665207629	-0.346941
N	 0.7964027388	-0.5111045679	 1.1777118006	-0.146207
C	 0.3400873518	-0.4733075179	 2.4909402495	 0.079792
N	 0.9831050732	-0.9209921462	 3.4860511916	-0.415178
H	 1.1456617569	 1.9462183978	-0.0353354595	 0.143363
H	-0.4724127804	 2.0146094403	-0.7680403693	 0.126659
H	-0.2948529309	 2.03426433	 0.9940116913	 0.129009
H	-1.012503313	-0.2377329568	 0.1356393396	 0.102886
H	 0.221287516	-1.4767589357	-1.4572174329	 0.123317
H	 0.8605103395	 0.1092204764	-1.9640635717	 0.129224
H	-0.6567474619	-0.0153703215	 2.5334481111	 0.094032
H	 0.4325670365	-0.795472092	 4.3338274936	 0.230469
