16
gdb 25581	4.61906	0.88002	0.80376	3.3046	72.89	-0.2277	0.0056	0.2333	1391.4739	0.125438	-437.93724	-437.929019	-437.928075	-437.972215	29.145	
O	 0.0927875765	 0.5556175363	 0.9839556808	-0.32204
C	 0.1038423331	 1.3870218015	 0.1010707194	 0.159824
N	 1.1742252924	 1.6850386562	-0.6832229334	-0.271258
C	 2.4875511272	 1.0788869449	-0.4795909778	-0.277361
C	 3.5285526194	 2.0634827295	-0.0725675587	 0.356875
C	 4.2190456473	 2.2850727978	 1.0775441516	-0.26611
C	 5.0773693153	 3.4063554688	 0.828896469	-0.166354
C	 4.8399053913	 3.7828425772	-0.4530722377	-0.01954
O	 3.9020636863	 2.97618911	-1.0204522357	-0.186677
H	-0.7829902903	 1.9930113002	-0.1703188961	 0.077368
H	 1.0947648278	 2.4405576932	-1.3451162617	 0.254763
H	 2.3600628873	 0.3334095707	 0.3067557039	 0.163988
H	 2.7950769979	 0.5612588848	-1.396731958	 0.12543
H	 4.1255144116	 1.720500405	 1.992019823	 0.121243
H	 5.7734659218	 3.8637745699	 1.5141135014	 0.115202
H	 5.2332062352	 4.5601056241	-1.08718305	 0.134647
