14
gdb 655	5.08056	4.85085	2.70226	1.1836	54.57	-0.2427	0.0243	0.2671	504.8171	0.12179	-270.435807	-270.430526	-270.429581	-270.46427	19.969	
C	-0.00104217	 1.4109860763	 0.0167309528	-0.072965
C	 1.4413803563	 1.9240830403	 0.0157531003	-0.247102
C	 2.2306372712	 1.2186616796	-1.0562572407	-0.05698
C	 1.7816570318	 0.1013275178	-1.6228820716	-0.064441
C	 0.4941251095	-0.5485841154	-1.1946256817	-0.108334
O	-0.0410325183	-0.0063702657	-0.003005973	-0.246574
H	-0.5371216452	 1.7182958189	 0.9190138026	 0.105049
H	-0.5391799145	 1.8203604806	-0.8545568035	 0.087959
H	 1.4470687276	 3.0086747776	-0.1527778752	 0.10155
H	 1.9021486038	 1.7629695659	 1.0000091522	 0.114931
H	 3.1777096972	 1.6533260748	-1.3646154013	 0.087631
H	 2.3306570097	-0.3896114783	-2.4222855703	 0.089344
H	-0.2461239795	-0.4882494889	-2.0152258107	 0.094111
H	 0.6533332506	-1.6155948534	-0.99613273	 0.115821
