22
gdb 89111	5.17719	0.54063	0.52056	3.0562	85.31	-0.2293	-0.0188	0.2105	2127.1965	0.191665	-404.329187	-404.318689	-404.317744	-404.366388	36.76	
C	 0.0300152719	 1.5164804435	-0.4302805047	-0.412334
C	 0.0140590937	 0.0459199014	-0.0724486275	 0.030981
C	 1.2710529727	-0.7525189821	 0.0005517433	-0.255847
N	 0.4950452699	-0.4788531776	 1.2082216017	-0.08385
C	 1.0714428443	 0.4208387342	 2.1985477553	-0.138161
C	 1.8117229622	-0.3889971353	 3.265839412	-0.188189
C	 2.4109645902	 0.4992669201	 4.3690964512	-0.275297
C	 3.0347929013	-0.324684684	 5.4715224213	 0.160555
O	 4.1767421825	-0.2367626004	 5.842121893	-0.237837
H	 0.9722895487	 2.0034463937	-0.1682864682	 0.121212
H	-0.1134872155	 1.6353877299	-1.5094026096	 0.124506
H	-0.7825812884	 2.0550264309	 0.0702276109	 0.123161
H	-0.8831399557	-0.4709384086	-0.4121086662	 0.090573
H	 1.3033549395	-1.7882076297	-0.3278581626	 0.113946
H	 2.205163921	-0.2061274629	-0.1348456729	 0.104068
H	 1.7620479324	 1.164333463	 1.7658193475	 0.084861
H	 0.2524364144	 0.9810448127	 2.6680494477	 0.101354
H	 1.114408637	-1.1151478965	 3.6994636688	 0.114662
H	 2.6099066082	-0.9698647736	 2.7878470345	 0.114265
H	 3.1673751378	 1.184913595	 3.9756372561	 0.120005
H	 1.6082738072	 1.1006481925	 4.8219630087	 0.11685
H	 2.3376010346	-1.0611943362	 5.9378588695	 0.070516
