17
gdb 36159	4.22591	1.15955	1.11885	2.8996	74.99	-0.259	0.023	0.282	1109.8403	0.137584	-380.830786	-380.823408	-380.822463	-380.863155	28.405	
N	-0.0739087429	-1.1442916674	 0.0345337316	-0.307349
C	-0.0613929491	 0.010845556	 0.0118431208	 0.263492
C	-0.0112849244	 1.472046079	-0.0165604594	-0.449898
C	 1.4126870558	 1.9869850499	-0.0141623469	 0.337591
C	 2.324399147	 1.8824492675	 1.2275281553	-0.277315
C	 2.8864057435	 3.1984002808	 0.7223167372	-0.038111
C	 2.8995739595	 3.1689169502	-0.7717723489	-0.038109
C	 2.346120523	 1.8338531737	-1.2344881372	-0.277316
N	 1.6336604848	 3.5360450535	-0.0427807356	-0.19612
H	-0.5354635358	 1.8323975985	-0.9091502521	 0.160272
H	-0.5509980983	 1.8671562009	 0.8517313199	 0.160273
H	 1.7574321796	 2.0279338753	 2.1511585452	 0.114847
H	 2.9768712785	 1.0095999355	 1.3228467005	 0.113719
H	 3.4130201485	 3.9591580118	 1.2866389205	 0.102729
H	 3.4363086712	 3.9070045197	-1.3563041291	 0.10273
H	 2.9998755351	 0.9581548416	-1.2837668124	 0.11372
H	 1.7955812938	 1.9425755036	-2.1729953695	 0.114846
