18
gdb 64034	2.28649	1.58785	1.1875	4.5377	76.61	-0.2647	-0.0009	0.2638	1088.469	0.146914	-401.976351	-401.967569	-401.966625	-402.009613	33.399	
C	 0.4238209899	 1.4438589906	-0.2952772406	-0.444435
C	 0.012086307	-0.0064597498	-0.0395332474	 0.365771
O	-1.3700922311	-0.092223085	 0.2744018869	-0.472345
C	 0.4255639263	-0.9182925793	-1.2374381719	-0.315047
C	 1.7163103154	-1.5504261011	-0.790275103	-0.072463
C	 1.9241680549	-1.4000679172	 0.5150417698	-0.070266
C	 0.7806113596	-0.6489169564	 1.1709162944	-0.195872
C	 1.1994739442	 0.2941041419	 2.2068368374	 0.269928
N	 1.5432571488	 1.0298896149	 3.0293822922	-0.341463
H	 1.4976602666	 1.5191358736	-0.4900710289	 0.135899
H	-0.1020467935	 1.8272529754	-1.1777521092	 0.107994
H	 0.1815215587	 2.0764030016	 0.5617097586	 0.149752
H	-1.8538284179	 0.4797546172	-0.3302815409	 0.282166
H	-0.3527738078	-1.6752234374	-1.3984301567	 0.121881
H	 0.522897058	-0.3526920863	-2.1713239517	 0.10509
H	 2.3716875274	-2.0918374449	-1.4630751282	 0.107585
H	 2.7611430043	-1.7816350484	 1.0858548479	 0.119127
H	 0.0853817491	-1.3553501193	 1.6455874113	 0.146697
