16
gdb 42209	3.28188	1.14805	0.86733	4.9377	79.23	-0.2736	-0.0994	0.1742	1275.4384	0.124685	-400.789028	-400.780724	-400.77978	-400.822826	29.661	
O	 0.0195654674	-0.0641196459	 0.0809177376	-0.290516
C	-0.0539155735	 1.1459307529	 0.0629105315	 0.203831
C	 1.1949506819	 1.9462411439	 0.0204447733	 0.232321
N	 2.171197516	 2.5650913952	-0.0149465895	-0.324419
C	-1.2963469508	 1.9287935367	 0.082740987	 0.23968
C	-2.5118902089	 1.3576554086	 0.0730686297	-0.120864
C	-3.613261329	 2.3772901609	 0.0558555146	-0.261685
C	-2.8798535777	 3.7032094648	 0.3893650839	-0.21744
C	-1.3845547058	 3.4435986428	 0.06661928	-0.333879
H	-2.6737537631	 0.2862558845	 0.046111784	 0.134852
H	-4.0797622394	 2.3981738745	-0.9401396785	 0.128458
H	-4.41887115	 2.1403136035	 0.7592400181	 0.123714
H	-3.2843380878	 4.5586057668	-0.1553307136	 0.112196
H	-2.9890783568	 3.9172223635	 1.4566514223	 0.118408
H	-0.7106303353	 3.9198017385	 0.7848720311	 0.12958
H	-1.1058202772	 3.8326026288	-0.9214020215	 0.125763
