14
gdb 49393	5.07867	1.16074	1.07223	3.1384	67.05	-0.262	-0.059	0.2031	1069.4469	0.099681	-436.592752	-436.585627	-436.584683	-436.624937	26.228	
O	-0.6208952467	 0.4820932175	 0.6450802129	-0.23717
C	 0.1407829238	 0.8696508369	-0.2049798338	 0.141275
C	 1.2094213125	 1.9063172339	 0.0381398241	-0.056102
C	 1.4833535006	 2.4171351006	 1.4437430936	-0.056459
C	 2.2037533319	 1.0683333677	 1.8010283325	-0.172648
N	 2.6159351368	 1.3135128369	 0.3024061838	-0.177335
C	 2.9833739803	 2.6461685553	 1.0392076268	-0.169089
C	 3.4383684652	 1.8383911224	 2.2478170396	 0.500961
O	 4.2649770721	 1.8450535399	 3.1029894147	-0.314412
H	 0.1090952753	 0.466484103	-1.2411411792	 0.095876
H	 1.2300977797	 2.6284993199	-0.7877997589	 0.100872
H	 0.873651247	 3.0322842827	 2.1080119547	 0.103729
H	 1.7514097612	 0.1330242254	 2.1171435884	 0.128563
H	 3.4078340702	 3.4834004878	 0.4881747407	 0.11194
