12
gdb 27521	2.09877	2.02092	1.02955	3.0468	59.98	-0.2738	-0.0354	0.2385	1033.5498	0.079543	-506.022715	-506.015689	-506.014745	-506.054672	26.063	
O	-0.0998186456	 1.2848365616	 0.0686610696	-0.364495
C	 0.0706572114	-0.0203408546	-0.0592601671	 0.508173
N	 1.194513999	-0.590961958	 0.1479491493	-0.442703
C	 1.2609854022	-1.9762189816	-0.0167479248	 0.45306
O	 2.25771678	-2.6291121419	 0.1482994842	-0.35104
N	 0.0566334421	-2.5855459791	-0.3983695814	-0.388214
C	-1.1434333794	-1.9596188282	-0.6174485559	 0.487242
N	-2.196757259	-2.5544093815	-0.9593448031	-0.551686
O	-1.0954697227	-0.5790508971	-0.4248509735	-0.215592
H	 0.7584804289	 1.6492014962	 0.3315841285	 0.332092
H	 0.0706359122	-3.5870031065	-0.525738389	 0.288889
H	-2.9728751992	-1.9068412892	-1.0692800969	 0.244274
