19
gdb 128419	3.51103	0.98653	0.90302	3.8095	77.75	-0.2144	0.0125	0.2268	1382.3886	0.160764	-415.414671	-415.405151	-415.404206	-415.4514	33.036	
C	 0.2118288658	 0.219839741	 0.7751701778	-0.310317
N	-0.4776362511	 0.2859447038	-0.5092585826	-0.270136
C	 0.2868994876	-0.2816255157	-1.6177382632	-0.26949
C	 0.5528944932	-1.7593169725	-1.5122881538	 0.327225
N	 1.763153583	-2.2909655154	-1.5674723653	-0.265122
N	 1.4982409942	-3.616631482	-1.4279402913	-0.235705
C	 0.1705607359	-3.8289962223	-1.2872310602	 0.351095
C	-0.4523382623	-5.1726434798	-1.110162804	-0.50298
N	-0.4573734858	-2.6679298395	-1.3376178384	-0.343277
H	 0.5196246057	-0.7936982691	 1.0828144967	 0.099382
H	 1.114028234	 0.8408797685	 0.733700803	 0.119399
H	-0.438585512	 0.6295706796	 1.5536734729	 0.114529
H	-1.357089153	-0.2174534676	-0.4434792393	 0.228454
H	-0.2700937985	-0.0883587256	-2.5422901991	 0.114582
H	 1.2462625626	 0.2393413738	-1.6987291083	 0.120926
H	 2.2550911514	-4.2805393122	-1.4301695	 0.274641
H	-0.0706897726	-5.6797540234	-0.2176103506	 0.14103
H	-1.5303788153	-5.0483712556	-1.0045851789	 0.163345
H	-0.260105603	-5.822445946	-1.9706464052	 0.142419
