23
gdb 59730	3.05622	1.0556	0.92689	1.2841	86.91	-0.2365	0.0301	0.2667	1379.7494	0.206689	-388.312701	-388.30333	-388.302386	-388.346618	36.348	
C	 0.09965066	 1.5470905295	-0.0104698376	-0.420082
C	 0.0118036373	 0.0220898645	 0.0697863652	 0.121708
O	 0.7812401052	-0.4792910571	 1.163530339	-0.434853
C	-1.4332649214	-0.5220095676	 0.0804717555	 0.028386
C	-1.4470363326	-2.0568625889	-0.0000364874	-0.19964
C	-2.8730854401	-2.6070313777	-0.138679336	-0.268647
C	-3.8324998156	-1.9337188454	 0.806329584	-0.035741
C	-3.5479884217	-0.8059769174	 1.4551394024	-0.061405
C	-2.251521302	-0.0529022139	 1.2982323845	-0.260103
H	 1.1456425983	 1.8592674694	-0.0749225453	 0.122861
H	-0.4312682384	 1.9294733026	-0.888383125	 0.116408
H	-0.339319165	 2.021087163	 0.8754603092	 0.11075
H	 0.5065437253	-0.3979345833	-0.8155449935	 0.081745
H	 0.5254819388	 0.0087136014	 1.9530641564	 0.278501
H	-1.9251160186	-0.1309582459	-0.8225724633	 0.067005
H	-0.8302676653	-2.3935416445	-0.8416269475	 0.086346
H	-0.9791785385	-2.4559311769	 0.9067211005	 0.110292
H	-3.2306798879	-2.4820176395	-1.1722870839	 0.103206
H	-2.876998942	-3.6902516762	 0.0384055535	 0.100709
H	-4.7997614943	-2.4092838876	 0.9525859474	 0.080679
H	-4.2770351718	-0.3785068865	 2.1400880194	 0.079691
H	-1.6573037549	-0.1726191524	 2.2182739176	 0.090339
H	-2.4661715649	 1.0204646503	 1.2242473147	 0.101845
