18
gdb 52236	5.1313	0.76645	0.74311	2.366	74.46	-0.2601	0.0237	0.2838	1531.5714	0.146818	-439.034152	-439.025455	-439.024511	-439.06949	30.891	
N	-0.0855913094	 1.2241750018	-0.2145922604	-0.439232
C	-0.0703886775	-0.0364057805	-0.1498573002	 0.129572
O	-1.2035054932	-0.7126060721	 0.1149973413	-0.18657
C	-1.0825021937	-2.1251918612	 0.3037841003	-0.089447
C	-2.4487385897	-2.7428626195	 0.092173335	-0.030437
C	-3.0527265207	-2.7304947347	-1.3605974713	-0.26199
C	-3.0660292231	-4.2632324326	-1.3141508266	 0.038401
O	-1.7163045962	-4.6929886557	-1.0900581363	-0.245257
C	-2.4934187672	-4.2825767125	 0.041525844	-0.001849
H	 0.8439308252	 1.569241335	-0.444742513	 0.228146
H	 0.8024905748	-0.6870893745	-0.3032038031	 0.084627
H	-0.3697120008	-2.5496322575	-0.4130564643	 0.122489
H	-0.717648934	-2.3294060602	 1.3202520147	 0.107325
H	-3.1627008656	-2.3393324664	 0.8149481014	 0.095508
H	-4.0476344703	-2.2825010389	-1.3912093573	 0.116075
H	-2.4321290789	-2.2937234857	-2.1461925856	 0.117285
H	-3.7291584679	-4.9638464934	-1.8074706016	 0.109264
H	-2.6002882919	-4.9923029214	 0.853884273	 0.106088
