16
gdb 22765	1.82713	1.62945	1.04463	1.3606	74.77	-0.2557	-0.0102	0.2454	1178.5418	0.120798	-437.781682	-437.772419	-437.771475	-437.816036	33.558	
C	-0.6969590382	 1.3344201931	 0.0295116289	-0.39616
C	-0.0596448726	-0.0420127083	-0.0271086227	 0.064885
O	 1.1534780551	-0.0739548507	-0.837948195	-0.30454
C	 1.9879450208	-0.5119234398	 0.2722857276	-0.147092
C	 3.0637888241	 0.408068926	 0.597966543	 0.354468
C	 3.9535949204	 1.1722882543	 0.8578799068	-0.448338
C	 0.7504391578	-0.4996055012	 1.1611874767	 0.336213
N	 0.4439140272	-0.7596643609	 2.3555545077	-0.222099
O	 1.5597896071	-1.1692935656	 3.0958898804	-0.384254
H	 0.0183181352	 2.0762333094	 0.3934406912	 0.133912
H	-1.0333490059	 1.6301164546	-0.9686724982	 0.131893
H	-1.5628253123	 1.318100472	 0.6987742769	 0.131119
H	-0.7793621379	-0.7908914763	-0.384353862	 0.102437
H	 2.386832226	-1.5202984305	 0.0958143521	 0.129479
H	 4.7407468454	 1.8463684782	 1.0906507115	 0.20505
H	 1.1847433578	-1.3189456243	 3.9708145351	 0.313029
