14
gdb 19673	5.97282	1.65663	1.54488	3.0272	64.79	-0.2608	0.0245	0.2852	808.0802	0.109229	-341.523471	-341.517508	-341.516564	-341.553547	23.142	
N	-0.1114744894	-1.0960710525	-0.1473965638	-0.322577
C	-0.0371572584	 0.0550796174	-0.0686163786	 0.26742
C	 0.0536048976	 1.5037983664	 0.0270892978	-0.179719
C	-0.0457834182	 1.9976170609	 1.4824632386	-0.029556
C	 1.4235673237	 1.9632704645	 1.6611029411	-0.038124
C	 1.5271355645	 2.0313538401	 0.0886397831	-0.079872
C	 1.3004027205	 3.5395558523	 0.2697444842	-0.162874
N	 0.7218250903	 3.2769265877	 1.6300438845	-0.148484
H	-0.6002879483	 1.9647692063	-0.721180842	 0.120512
H	-0.8420468626	 1.8125684481	 2.1895032326	 0.123659
H	 2.069799495	 1.623404305	 2.4578438349	 0.115573
H	 2.2855026151	 1.6031483682	-0.5617466927	 0.103336
H	 2.2280879785	 4.1020335946	 0.3955876552	 0.123069
H	 0.6400363516	 4.0593241011	-0.433956915	 0.107638
