19
gdb 83618	2.56394	1.84645	1.26791	2.7144	74.59	-0.2432	0.0516	0.2949	1016.2061	0.160608	-422.968938	-422.961554	-422.960609	-423.000604	29.859	
O	 0.0850348252	 1.4206505282	 0.0044908498	-0.442289
C	-0.0196015313	 0.0260529035	 0.0526863422	 0.136548
C	-1.4537609243	-0.5915362041	 0.0262534406	-0.119282
C	-1.5783291885	-2.041467319	 0.5958530614	-0.233572
C	-1.61495763	-2.6227690841	-0.8551164855	-0.340207
C	-1.1890772008	-1.251202428	-1.3694162001	 0.325913
C	-1.3316644579	-0.4769939456	-2.6698126649	-0.183721
O	-0.0744881292	 0.2181779518	-2.4131359205	-0.30915
C	 0.253961841	-0.6728647924	-1.3140040869	 0.018719
H	-0.0697763856	 1.6579768023	-0.92244511	 0.288098
H	 0.5954653383	-0.3313609532	 0.8861996017	 0.079201
H	-2.2900099193	 0.0834279839	 0.2161075238	 0.069694
H	-0.7022900381	-2.3531677887	 1.17289179	 0.1041
H	-2.4679426472	-2.2320362996	 1.1985147721	 0.108708
H	-0.9674739459	-3.4737345778	-1.0863698223	 0.101391
H	-2.6356227189	-2.8745972536	-1.1604681588	 0.108162
H	-1.2555892823	-1.0820524666	-3.5834523465	 0.107407
H	-2.1770644206	 0.2145242206	-2.7618011691	 0.108899
H	 1.1838655053	-1.2210869077	-1.492824337	 0.07138
