20
gdb 90723	4.19261	1.15023	1.04251	1.2113	79.6	-0.2344	0.0657	0.3	1215.2631	0.171271	-403.089846	-403.081679	-403.080734	-403.122698	31.842	
C	-0.3477463652	 1.2465891457	-0.2731678347	-0.404274
C	 0.3033087727	-0.1091055687	-0.0888875492	 0.157101
O	 1.6717744993	-0.1170528989	-0.5925923922	-0.307668
C	 2.1916212956	-0.4717319871	 0.7001561604	 0.016
C	 0.7728775665	-0.4774588297	 1.3382656956	-0.089873
C	 0.8999860757	-1.9976722054	 1.6298851409	-0.333154
C	 2.2764455435	-1.9853351883	 0.9421927026	 0.353648
C	 2.9348041478	-2.9714114772	 0.063769369	-0.295376
N	 3.4323886751	-2.7312150598	 1.4346888746	-0.369156
H	 0.2198649754	 2.0252635934	 0.2459687545	 0.120055
H	-0.3916742821	 1.5058268402	-1.3355525454	 0.127523
H	-1.369814442	 1.2365955637	 0.1218253507	 0.115004
H	-0.2933329163	-0.8915329169	-0.5782989296	 0.075638
H	 3.0421622278	 0.1503005313	 0.9989709766	 0.070701
H	 0.4591901972	 0.1821383275	 2.1462650518	 0.076877
H	 0.9777959558	-2.2281594955	 2.6955579086	 0.116179
H	 0.1317662959	-2.6369710124	 1.1847519056	 0.10201
H	 2.4827759207	-3.9479786727	-0.0888746967	 0.11845
H	 3.5042130173	-2.5947803071	-0.7821490769	 0.121017
H	 4.2646669793	-2.1451556821	 1.4040802638	 0.229299
