17
gdb 129661	2.98272	1.29295	0.93458	2.8509	72.22	-0.1821	0.0338	0.2159	1212.4369	0.137952	-451.327928	-451.318548	-451.317604	-451.361997	34.146	
N	 0.0210978704	 1.3801121948	-0.1038395583	-0.611137
C	-0.0249916515	-0.0158382014	-0.0335175261	 0.348214
C	-1.1140624622	-0.8647463727	-0.1069612746	 0.047393
N	-2.4716000757	-0.4535534805	-0.1706326517	-0.634613
C	-0.5545534219	-2.1668479521	-0.0316883228	 0.258896
C	-1.2949380618	-3.4682059396	 0.0072407291	-0.180947
O	-2.3955194284	-3.4985016141	-0.9052464494	-0.417229
N	 0.7739938651	-2.1335635604	 0.057947908	-0.316715
N	 1.0740121793	-0.8100276719	 0.0529286318	-0.268445
H	 0.7315095857	 1.782372766	 0.4975659325	 0.245996
H	-0.8801034333	 1.7631679473	 0.1632769933	 0.259285
H	-2.6594776887	 0.0473334636	-1.0352396248	 0.235075
H	-3.0671777371	-1.2753833566	-0.1860187005	 0.251102
H	-0.5879614192	-4.2895301911	-0.1709301256	 0.11422
H	-1.7478071789	-3.6346426917	 0.9917504533	 0.119503
H	-2.038340425	-3.326068214	-1.7831027649	 0.283993
H	 2.0385505332	-0.5276960756	 0.0385100207	 0.265409
