14
gdb 129683	3.23584	1.32847	0.94651	4.6669	67.55	-0.2329	-0.0239	0.209	1142.1641	0.103308	-466.205738	-466.197779	-466.196834	-466.238787	28.447	
N	-0.08463653	 1.4614631958	 0.0134304363	-0.615985
C	-0.0184299268	 0.0495534183	-0.0143075414	 0.139485
C	-1.1084178443	-0.7949419381	 0.0032136966	 0.46879
N	-2.4572024225	-0.4872935797	 0.0495188374	-0.407829
C	-3.463183978	-1.4095565953	 0.0629173055	 0.147102
O	-3.2880935176	-2.6115967286	 0.0360260634	-0.324627
N	-0.5836650924	-2.0358106976	-0.0349520489	-0.244128
N	 0.7695818212	-1.9802420974	-0.0756020532	-0.125898
N	 1.1033598613	-0.7218300674	-0.062197804	-0.22735
H	 0.4141766544	 1.8288542704	 0.8190258624	 0.252723
H	 0.3653107638	 1.8585032791	-0.8067398176	 0.252721
H	-2.6670770815	 0.5012405562	 0.0736692915	 0.277077
H	-4.460271112	-0.9390181873	 0.1017536552	 0.105613
H	-1.0999242856	-2.9035582183	-0.0350754232	 0.302308
