21
gdb 100197	2.31819	1.28219	1.05113	2.7384	78.81	-0.2457	-0.0233	0.2225	1262.9163	0.179101	-424.223377	-424.212975	-424.21203	-424.258846	37.853	
C	-0.3362937527	 1.5494046786	-0.0231958312	-0.398005
C	-0.0867012434	 0.0397783222	-0.092233009	-0.220101
C	 0.7437267816	-0.4103093828	-1.3061968965	 0.223881
O	 0.2199083108	 0.0818102166	-2.5371691396	-0.467478
C	 2.1657849693	 0.1525267872	-1.2431420352	 0.165121
O	 2.815523152	 0.2265092987	-0.2329408359	-0.267087
C	 0.8925758929	-1.9360921447	-1.3251899653	 0.012933
C	-0.1166183655	-2.8136656471	-2.0209168085	-0.293376
C	 1.2728927595	-2.6662809679	-2.5877229425	-0.275549
H	 0.6022859173	 2.0984071563	 0.0969849121	 0.133882
H	-0.823856434	 1.9166050741	-0.9307417289	 0.115157
H	-0.9764415856	 1.7940217861	 0.8292535524	 0.114752
H	 0.4425256711	-0.2910926234	 0.8069271187	 0.122996
H	-1.0399030635	-0.5049666542	-0.1158102546	 0.091785
H	-0.7280736544	-0.0841708524	-2.5455046259	 0.287753
H	 2.5664301425	 0.4617189893	-2.2329744586	 0.092625
H	 1.3096173518	-2.3221792502	-0.3999540234	 0.1014
H	-0.3931102229	-3.7454358704	-1.5405837048	 0.117956
H	-0.9257360781	-2.342908336	-2.5698777989	 0.098577
H	 1.3668886418	-2.0751853648	-3.4912205526	 0.12773
H	 1.9597754296	-3.5012751351	-2.5117102219	 0.115048
