20
gdb 50042	3.56246	0.99631	0.91291	3.5627	80.56	-0.2438	-0.0241	0.2197	1340.5455	0.171777	-403.150777	-403.142249	-403.141305	-403.184805	32.131	
O	-0.0989054723	 0.2683508942	 0.7694222586	-0.264745
C	 0.3935618499	 0.7157700193	-0.2366412812	 0.177983
C	 1.4766915837	 1.7349239855	-0.2512040374	-0.197744
N	 2.2589696591	 1.8078174951	-1.5081730349	-0.370272
C	 1.4016690575	 2.9345378719	-1.1519869113	 0.347979
C	 0.2311630152	 3.251580753	-2.1012304937	-0.272855
C	 0.2698119479	 4.7892408869	-2.2924440737	-0.205197
C	 1.696517207	 5.20269871	-1.8854737988	-0.207159
C	 2.0012907674	 4.267423937	-0.7044442246	-0.276503
H	 0.0665010946	 0.3934004568	-1.2497065351	 0.082977
H	 1.9817000305	 1.8676492539	 0.7033835994	 0.098277
H	 3.2332282291	 2.0024553884	-1.2877294045	 0.235247
H	 0.3925893994	 2.7210084554	-3.0435357172	 0.121278
H	-0.731662405	 2.9209485299	-1.7026200128	 0.111097
H	 0.0118379283	 5.091023252	-3.3105505649	 0.10266
H	-0.4529740133	 5.2682499723	-1.6222642984	 0.104502
H	 2.3967284932	 5.0061572053	-2.7062248115	 0.104814
H	 1.7790531107	 6.2615935194	-1.6270438842	 0.10022
H	 1.4836910071	 4.6259349204	 0.1943021966	 0.113284
H	 3.0648071701	 4.1857438333	-0.4580410705	 0.094156
