16
gdb 132042	2.30147	1.83178	1.02645	4.6468	78.92	-0.1921	-0.0223	0.1698	1103.0644	0.124866	-442.077119	-442.069046	-442.068102	-442.109798	30.631	
C	-0.022525466	 1.5273493366	-0.0000261643	-0.497455
C	-0.0015985919	 0.023164524	 0.0064334813	 0.170512
C	-1.1405703266	-0.7063448396	-0.0990744526	 0.15772
F	-2.3251189698	-0.1072652861	-0.2128498423	-0.059972
C	-1.1924507344	-2.1633102154	-0.0996179959	 0.293582
N	-2.300428619	-2.8029834078	-0.2024585135	-0.553923
N	 0.0829529521	-2.7350124789	 0.0226770214	-0.39696
C	 1.2546663799	-2.0313000025	 0.1313605741	 0.024284
C	 1.2490321988	-0.6805629771	 0.1267893404	-0.2331
H	 0.5780399835	 1.9180372394	-0.8293707133	 0.135442
H	-1.0380847758	 1.9108287388	-0.0974109239	 0.146772
H	 0.4117697812	 1.9232666583	 0.9250475846	 0.135451
H	-2.1524026916	-3.8129271101	-0.1854551379	 0.193648
H	 0.1180013407	-3.7427161165	 0.0290035019	 0.251848
H	 2.1535985403	-2.6281418307	 0.2181397516	 0.129352
H	 2.175938369	-0.1293321823	 0.2127800385	 0.1028
