21
gdb 79574	2.08036	1.68623	1.47865	1.325	82.53	-0.2405	0.0756	0.3161	1070.4535	0.181142	-387.049572	-387.040389	-387.039445	-387.082639	35.725	
C	-0.0005567397	 1.5733154221	-0.0101707899	-0.418185
C	 0.1135468977	 0.0659538279	 0.0885467795	-0.070346
C	 1.3629005701	-0.7312770216	-0.2048384695	-0.119597
C	 2.6063348691	-0.0305640801	 0.2842461262	-0.119195
C	 3.2537309668	-0.8189468854	 1.4055938957	-0.352964
C	 2.0215176776	 0.004778383	 1.691064089	 0.337374
O	 2.0508698849	 1.0927428177	 2.5545969707	-0.469271
C	 0.7614429402	-0.6978385441	 1.2230611469	 0.266283
C	 0.0606844065	-1.7852002798	 1.992394884	-0.507092
H	 0.8850206581	 2.0767874199	 0.3814789108	 0.138847
H	-0.1396381204	 1.8835408558	-1.0522313161	 0.107955
H	-0.8633047307	 1.9329612384	 0.5613126208	 0.112371
H	-0.7778340106	-0.4509316854	-0.2684011127	 0.076449
H	 1.3560775222	-1.5826963021	-0.8777500019	 0.080672
H	 3.1356840923	 0.7677272332	-0.2227152451	 0.092718
H	 3.2243459894	-1.9058315242	 1.4044530135	 0.102002
H	 4.1732701087	-0.3884887909	 1.792141156	 0.107737
H	 2.1676746088	 0.7642172591	 3.4522901711	 0.284583
H	-0.505993859	-1.3719240019	 2.8361089497	 0.117953
H	-0.6489639315	-2.329293544	 1.3606571555	 0.118274
H	 0.7734551394	-2.5135011678	 2.3969550858	 0.11343
