16
gdb 31996	6.13732	0.82163	0.73651	2.3213	68.15	-0.2419	-0.0057	0.2362	1470.1564	0.123927	-475.041692	-475.032717	-475.031773	-475.076652	31.017	
O	 0.2587530982	 0.9117247346	-0.9025132607	-0.399921
C	-0.1052667192	 0.2779770123	 0.30734603	-0.17198
C	-1.4096841163	-0.4388480814	 0.1769961493	 0.27215
C	-2.1632954044	-0.8480902885	-0.8705032781	-0.19316
N	-3.3152204862	-1.4672799964	-0.3890039457	-0.325916
C	-3.2026068347	-1.4061102438	 0.8970707617	 0.358175
C	-4.1871134004	-1.9423207846	 1.8864747299	-0.140125
O	-5.2838297595	-2.5254569242	 1.2310090656	-0.419975
O	-2.0759048329	-0.7926253424	 1.3280992679	-0.208621
H	-0.4254133412	 1.5569918254	-1.1119147901	 0.289872
H	 0.7056674832	-0.4255309836	 0.5315693246	 0.139836
H	-0.1577768497	 0.9792251639	 1.1551526838	 0.115582
H	-1.9619318254	-0.750644489	-1.9243138636	 0.138062
H	-3.6848271761	-2.6786681417	 2.5337128172	 0.12189
H	-4.5208080707	-1.1252480338	 2.5454256411	 0.121277
H	-5.1162822748	-2.4444977969	 0.2818473471	 0.302854
