16
gdb 96648	2.40619	1.40322	0.96745	5.5108	72.71	-0.2523	-0.0134	0.2389	1206.5027	0.12267	-434.052491	-434.043191	-434.042247	-434.086834	33.32	
C	 0.0419866836	 1.4438817075	 0.0106445654	-0.344293
N	 0.0619095769	-0.007263976	 0.0134238179	-0.274538
C	-1.0503847573	-0.6226717639	 0.0266077767	 0.300436
N	-2.3263207172	-0.1053625285	 0.0774484765	-0.572355
C	-1.0146709051	-2.1301849632	 0.0742864922	 0.2146
C	-1.7989868997	-2.8651728154	 1.0962138028	-0.195187
O	-2.2386262211	-2.8030341842	-0.2587346595	-0.2668
C	 0.1909278479	-2.7533321304	-0.4406799693	 0.276152
N	 1.1201192577	-3.3055148595	-0.846357163	-0.332005
H	 1.0641771746	 1.8197356237	-0.0690997105	 0.136388
H	-0.5290181377	 1.8559522436	-0.8378768657	 0.109249
H	-0.3962386173	 1.8525650562	 0.9335561442	 0.119966
H	-2.4333671086	 0.8692814254	-0.1537023035	 0.263307
H	-3.0549875232	-0.7132639634	-0.2684248958	 0.271599
H	-1.4472676141	-3.8388632951	 1.4280684833	 0.151002
H	-2.3828315094	-2.2854911969	 1.8069401782	 0.142479
