21
gdb 100695	3.10728	0.75725	0.64474	0.8148	84.18	-0.2494	0.0379	0.2873	1774.1265	0.178572	-424.196007	-424.184226	-424.183282	-424.234514	40.503	
C	-0.0991626061	 1.4837858941	 0.0259869015	-0.501355
C	-0.022181417	 0.030079129	 0.0062211733	 0.10193
C	 0.0491440321	-1.1727394767	 0.0079776393	 0.023599
C	 0.0720810826	-2.6373099132	-0.0302879228	-0.055715
O	-1.2514173611	-3.1700560046	 0.0791162887	-0.424382
C	 0.8146935839	-3.1750764999	-1.2782959314	 0.023844
C	 2.2626118668	-2.6766358808	-1.3382188396	-0.402424
C	 0.7523456277	-4.70370953	-1.3019017362	-0.087649
O	 1.334211238	-5.1472324489	-2.5215851604	-0.427836
H	 0.8204952435	 1.9209399509	 0.4301328204	 0.152588
H	-0.2457215385	 1.8916864827	-0.9800848143	 0.149041
H	-0.9309537344	 1.8282499852	 0.650176819	 0.151509
H	 0.5915469044	-3.0126091496	 0.8622201706	 0.109588
H	-1.8035181109	-2.6846530465	-0.5438937376	 0.281125
H	 0.2774617884	-2.8118222007	-2.1652783325	 0.077414
H	 2.8152750929	-2.9790725277	-0.4398378666	 0.106592
H	 2.7685038848	-3.1085802043	-2.2037812129	 0.136078
H	 2.3051217388	-1.587190043	-1.4086616779	 0.12072
H	 1.3015197026	-5.1039609343	-0.4317454219	 0.077873
H	-0.2912367629	-5.0287590406	-1.2128661027	 0.101742
H	 1.2644613744	-6.105386311	-2.5530025859	 0.28572
