18
gdb 94303	3.43511	1.13323	0.99659	2.0716	72.8	-0.2527	0.0283	0.2811	1213.145	0.14678	-439.091744	-439.083194	-439.08225	-439.125391	31.906	
C	-0.3585209226	 1.4649306744	 0.0177184944	-0.412836
C	 0.175349518	 0.0512901149	-0.0623282902	 0.112924
O	 1.4406914088	-0.0320871093	-0.7622160864	-0.292693
C	 2.0249075249	-0.8465481294	 0.2705451717	-0.126783
C	 0.8022890832	-0.6281633967	 1.1829669333	 0.298311
C	 0.9137117571	 0.0616775228	 2.5717175598	-0.47554
C	 0.2053978927	-1.1992383268	 3.1272546708	 0.440686
O	-0.156241512	-1.594490966	 4.2002031049	-0.354287
N	 0.1392778764	-1.7344110261	 1.8590691143	-0.380355
H	 0.3689501785	 2.1336004981	 0.4868301579	 0.125497
H	-0.5697312937	 1.8419649538	-0.9876211132	 0.134232
H	-1.2905123389	 1.4928532807	 0.5926238372	 0.124151
H	-0.5691185388	-0.6087921507	-0.5350437697	 0.071764
H	 2.162539764	-1.8898988462	-0.0465507331	 0.100331
H	 2.9844808805	-0.4492299606	 0.6211378222	 0.111099
H	 1.930679748	 0.2070073793	 2.9406001799	 0.135055
H	 0.3439991431	 0.9842502597	 2.6912358166	 0.137841
H	-0.226869429	-2.6116008219	 1.5172181895	 0.250605
