16
gdb 26771	3.6075	1.13024	0.86675	3.1888	87.51	-0.1851	-0.0097	0.1754	1292.0737	0.124309	-396.944465	-396.935412	-396.934468	-396.978025	33.329	
C	-0.0289612181	 1.5189141928	 0.1337321184	-0.521645
C	-0.0035776231	 0.0370061223	-0.0109867078	 0.264873
C	-0.0451676258	-0.7822364674	-1.1253307148	 0.192848
N	-0.1624416248	-0.3915292489	-2.4670518512	-0.611514
N	-0.0267762421	-2.0996609807	-0.7734508975	-0.354517
C	 0.029759992	-2.1157595807	 0.5537095631	 0.179338
N	 0.0583214302	-0.8416501309	 1.0502657988	-0.352824
C	 0.0598168647	-3.2501413772	 1.3918278582	 0.257395
C	 0.0892723001	-4.1989154929	 2.1337142898	-0.409534
H	 0.9561218924	 1.946550669	 0.3639665485	 0.130032
H	-0.375052805	 1.968154997	-0.8011613903	 0.146658
H	-0.716907731	 1.8397954482	 0.9249828345	 0.12976
H	 0.5450003484	 0.2746132034	-2.7513880021	 0.240968
H	-0.1092786391	-1.2080176849	-3.0640695666	 0.24945
H	 0.1035173346	-0.5978014407	 2.0257381188	 0.26611
H	 0.1135474065	-5.0452973283	 2.7742554403	 0.192604
