16
gdb 61146	3.40182	0.97864	0.85152	3.4859	80.19	-0.2537	-0.0304	0.2233	1349.1426	0.120703	-400.696613	-400.686656	-400.685712	-400.732155	34.976	
C	-0.3548483015	 1.3424124638	 0.0730593799	-0.346288
N	-0.0832857155	-0.0760019444	-0.0713621558	-0.102273
C	-0.0649319032	-0.8806122197	 1.1481570623	-0.32576
C	-1.3567384778	-0.9082520604	 1.8328438654	 0.315281
C	-2.4144721476	-0.9183610771	 2.4025170479	-0.456499
C	 0.1655415204	-0.7112472092	-1.2602267114	 0.327667
O	 0.4036720388	-1.9048599224	-1.3511966061	-0.370926
C	 0.1388521636	 0.1242347694	-2.4540628921	 0.185538
C	 0.1432171097	 0.7182086534	-3.4998570318	-0.390469
H	 0.4243608372	 1.8249541001	 0.677111973	 0.127441
H	-0.3801717094	 1.813833939	-0.908049932	 0.157172
H	-1.3194028906	 1.4946362923	 0.5688321828	 0.1451
H	 0.2347619524	-1.8889339163	 0.8520120277	 0.183763
H	 0.7025492602	-0.4865961463	 1.8291312596	 0.134918
H	-3.3502336522	-0.9450961921	 2.9042520017	 0.205309
H	 0.1467063656	 1.23969026	-4.4259667812	 0.210027
