22
gdb 22085	3.44261	0.99183	0.94326	0.9186	85.46	-0.2368	0.0145	0.2513	1367.28	0.19319	-404.338791	-404.329248	-404.328304	-404.372622	37.176	
C	 0.4488998439	 1.3141474982	 0.2563170722	-0.417631
C	-0.0646803134	-0.1134170657	-0.0046250198	 0.291294
C	-1.5937394719	-0.1087676313	-0.0844120877	-0.439035
C	 0.5872837529	-0.69815547	-1.2886137577	-0.241885
C	 1.990699507	-1.1794890711	-0.8649378653	-0.305226
C	 1.8648731119	-1.4163669203	 0.6254893922	 0.408491
C	 0.4678170385	-1.0768226765	 1.0884937016	-0.312411
N	 2.7674585678	-1.8009481272	 1.435151545	-0.233015
O	 3.9792363278	-2.0496234521	 0.7565752023	-0.39856
H	 1.5396946768	 1.3463723448	 0.3453735406	 0.120513
H	 0.1590045929	 1.9883321874	-0.5569419092	 0.110681
H	 0.0321408781	 1.7138564615	 1.1872206819	 0.113001
H	-1.943434138	 0.535827352	-0.8986794377	 0.111448
H	-1.9844740121	-1.1163172034	-0.2640616353	 0.108672
H	-2.0391258981	 0.26330372	 0.8449752469	 0.112002
H	-0.0074678927	-1.5507433744	-1.6371038531	 0.0957
H	 0.6147190396	 0.0285382803	-2.1060941785	 0.095564
H	 2.3203639024	-2.0829731806	-1.3867360061	 0.125729
H	 2.7686537455	-0.4294527329	-1.0471232019	 0.128995
H	 0.4488800489	-0.6599099202	 2.098487578	 0.113554
H	-0.1441996669	-1.9897006387	 1.1010294993	 0.108378
H	 4.5621217492	-2.31157245	 1.4767223622	 0.303738
