20
gdb 61428	2.78145	1.06856	0.93594	3.2895	76.99	-0.2301	-0.0144	0.2157	1366.3262	0.16731	-440.338709	-440.327784	-440.326839	-440.376344	37.407	
C	-0.1596689054	 1.4378721023	 0.0652341623	-0.344982
N	 0.0673744493	 0.004837824	-0.0272675602	-0.063813
C	 0.0620463097	-0.7399351802	 1.211318876	-0.291288
C	-1.3459446672	-1.0036852897	 1.7628910429	 0.396015
C	-1.416629448	-1.9329518189	 2.9580541955	-0.477727
O	-2.3258027062	-0.5017138213	 1.2656882177	-0.294338
C	-0.0223641192	-0.7285246289	-1.1890735383	 0.415596
C	-0.1395365078	 0.0378742082	-2.4968168363	-0.503251
O	 0.0134353587	-1.94860229	-1.1709384135	-0.385232
H	 0.0552021979	 1.9237614385	-0.8852582409	 0.135938
H	-1.1923198751	 1.6625579453	 0.3548756068	 0.149174
H	 0.5142107704	 1.8666724234	 0.8158740799	 0.122189
H	 0.5548893263	-1.700753353	 1.0425915281	 0.158543
H	 0.6353508369	-0.1972240455	 1.9750931101	 0.117179
H	-0.6862930775	-1.6510094973	 3.7242220792	 0.133741
H	-2.422964955	-1.9248502936	 3.377967507	 0.145772
H	-1.166784624	-2.9512860068	 2.6377146077	 0.156875
H	 0.7002786757	 0.7235730575	-2.647073164	 0.136769
H	-0.1490336154	-0.6957322684	-3.3020056454	 0.148122
H	-1.0625451042	 0.6244767445	-2.5364679045	 0.144719
