20
gdb 117954	2.41918	1.11274	0.81376	5.0631	73.28	-0.2522	0.0044	0.2566	1421.0343	0.16946	-477.440109	-477.429718	-477.428773	-477.476589	36.574	
C	 0.1223086977	 1.5441580565	 0.036218058	-0.354113
N	-0.0993010966	 0.1078784289	-0.0408258562	-0.078427
C	-0.2393193638	-0.6116719688	 1.2376753313	-0.209569
C	-1.6648536019	-1.0827475269	 1.5613713098	-0.030188
O	-2.0107714949	-2.3037693254	 0.9590470686	-0.427741
C	-0.1092341039	-0.5874965278	-1.1969315151	 0.396129
O	-0.3459131199	-1.7986386061	-1.2391602237	-0.426189
C	 0.1915953709	 0.1230203509	-2.5239341794	-0.146884
O	 0.176392763	-0.8006087994	-3.5686517441	-0.421645
H	 0.0790366112	 2.0023225839	-0.9502873736	 0.154197
H	-0.6542964657	 2.0080681138	 0.6535064296	 0.143663
H	 1.0980101444	 1.7720547878	 0.483236257	 0.139098
H	 0.4232925658	-1.4832301155	 1.2276721256	 0.139691
H	 0.1090932714	 0.0722512375	 2.0169045917	 0.110332
H	-1.73800277	-1.2263004216	 2.6472329023	 0.1027
H	-2.3695921055	-0.2733980049	 1.2972639284	 0.077233
H	-1.5751519723	-2.3336300406	 0.092683465	 0.304585
H	-0.5599835672	 0.9126198078	-2.6876423523	 0.115032
H	 1.1705325088	 0.6225439747	-2.456619112	 0.114711
H	-0.0592040814	-1.6450285648	-3.1478413308	 0.297384
