20
gdb 105941	4.14714	1.30895	1.23744	1.627	81.76	-0.214	0.0825	0.2964	1103.0439	0.172334	-365.922408	-365.914979	-365.914035	-365.954369	29.914	
C	-0.3178936059	 1.4878002482	 0.0211112031	-0.373135
C	 0.1005174167	 0.0117451767	 0.0609196096	-0.335262
C	 0.8051401372	-0.4339549614	-1.1817924328	 0.369292
C	 1.1038968124	-1.804569566	-1.7759134771	-0.165964
C	 0.3249011737	-0.7445206756	-2.5709943713	-0.083824
N	 1.3927612501	 0.0209666789	-3.2834578453	-0.152967
C	 2.3768543115	-1.0371121033	-3.7277573583	-0.17889
C	 2.5283937482	-1.4270067308	-2.2452923198	-0.075485
C	 2.0938467475	 0.0399219296	-1.9081194803	-0.077263
H	 0.5525800355	 2.1407982822	-0.1009403043	 0.119469
H	-0.9957987249	 1.6811993784	-0.8159572089	 0.124995
H	-0.8255680681	 1.7773211427	 0.9461920338	 0.1106
H	 0.7450455147	-0.1657463787	 0.9325111124	 0.100674
H	-0.7845426522	-0.621193732	 0.2072530216	 0.101516
H	 0.696139804	-2.7703926205	-1.5084656062	 0.085539
H	-0.6735653505	-0.8803608812	-2.9673652166	 0.086606
H	 1.9856658176	-1.7712693832	-4.4388146731	 0.099116
H	 3.2663846915	-0.5498656574	-4.139003951	 0.103686
H	 3.3887282998	-1.9436338187	-1.8207229492	 0.06669
H	 2.7523159212	 0.8738243521	-1.6694791762	 0.074605
