20
gdb 23164	1.80321	1.48446	0.90991	2.1136	79.11	-0.2465	-0.0024	0.2442	1318.7881	0.169483	-440.231626	-440.221925	-440.220981	-440.266557	35.935	
C	-0.4327561441	 1.4776136282	-0.0728988279	-0.398096
C	-0.0054281495	 0.0134299015	-0.063618553	-0.012284
C	 1.2962354987	-0.288099717	-0.8866505838	-0.342374
C	 1.9879024229	-0.582492543	 0.4245440455	 0.424784
N	 3.1799004255	-0.6959761568	 0.8412837774	-0.251956
O	 4.1113492904	-0.5978350624	-0.2070642647	-0.392516
C	 0.7138084245	-0.5186371683	 1.2389412058	-0.106238
C	 0.7987647681	 0.3130689983	 2.5199470832	-0.078353
O	 1.6931095177	-0.2811485039	 3.4409304497	-0.424346
H	 0.4036049106	 2.1467842544	 0.1547105667	 0.122665
H	-0.8147101034	 1.7549844372	-1.0611620674	 0.118122
H	-1.2255324539	 1.6711826323	 0.6570405222	 0.121249
H	-0.8516702504	-0.61474057	-0.3521858278	 0.078208
H	 1.2274618321	-1.1575826226	-1.5476122594	 0.126795
H	 1.7159187302	 0.5440446368	-1.4597755001	 0.127207
H	 4.9512307216	-0.711858838	 0.2507829655	 0.30732
H	 0.3609310593	-1.5216095032	 1.5056270738	 0.100711
H	 1.0977691714	 1.3451824656	 2.2819359714	 0.083864
H	-0.1783232412	 0.3595639369	 3.013445035	 0.105128
H	 2.5346325894	-0.3910731663	 2.976294678	 0.290111
