15
gdb 1967	8.2862	1.51186	1.35316	2.968	58.38	-0.2422	-0.0209	0.2212	872.3949	0.123071	-345.650105	-345.642843	-345.641899	-345.681734	25.861	
C	 0.2070114191	 1.502618139	-0.139389532	-0.240615
O	-0.3178376646	 0.2013798126	-0.2907655616	-0.237512
C	 0.478295152	-0.6280018819	-1.0895217556	 0.140817
C	 1.7855662246	-1.2071460388	-0.4466126951	-0.372704
C	 1.2847740248	-2.6015917374	-0.8575956338	 0.397208
O	 1.8039221068	-3.6758021138	-0.9422575829	-0.286678
C	-0.1041519739	-2.0574529803	-1.2231196269	-0.370195
H	 1.1893964272	 1.4947224955	 0.356210394	 0.110158
H	 0.3143688896	 2.0111144231	-1.1100727464	 0.108711
H	-0.4954262422	 2.0651751472	 0.4795942999	 0.132247
H	 0.6779230058	-0.1582970554	-2.0636270314	 0.076602
H	 2.7579719396	-0.9004221266	-0.8383300151	 0.126967
H	 1.7778803912	-1.087308953	 0.6426050903	 0.138253
H	-0.8340545407	-2.2510565796	-0.4295861733	 0.145709
H	-0.5247831893	-2.3668653706	-2.1819621902	 0.131033
