18
gdb 11380	4.38802	1.24457	1.12234	2.3345	70.05	-0.2337	0.0272	0.2609	1095.5515	0.153635	-384.944593	-384.936317	-384.935373	-384.977434	30.727	
O	-0.0171509271	 1.4152250146	-0.0402506919	-0.413968
C	-0.0344272869	-0.0004364275	-0.054308815	-0.183721
C	-1.4437139074	-0.4938723094	-0.0385759982	 0.311122
C	-2.5569452892	 0.2424136269	 0.0075700568	-0.166944
C	-3.7970788989	-0.6201133994	 0.0540611646	-0.278764
C	-3.2703447922	-2.0049674688	-0.3996773792	 0.132253
O	-3.4560437275	-2.1999902039	-1.7958276038	-0.436708
C	-1.7656883209	-1.974625519	-0.0295833982	-0.328558
H	 0.8997875492	 1.7033461174	-0.0427156728	 0.28991
H	 0.4789538039	-0.4006718366	-0.9475221593	 0.093547
H	 0.5038668565	-0.4188715325	 0.8155928131	 0.095242
H	-2.5723295679	 1.3241146756	 0.0441763355	 0.106787
H	-4.2123579921	-0.6596910231	 1.0713215546	 0.105117
H	-4.6058754932	-0.2843278822	-0.6040772696	 0.106651
H	-3.8000052517	-2.8352973131	 0.0733834789	 0.081403
H	-3.0333078551	-1.4573886326	-2.2430430242	 0.278511
H	-1.1839310809	-2.5667890835	-0.7454873058	 0.104127
H	-1.5847629486	-2.4077779829	 0.9647520145	 0.103994
