16
gdb 79490	2.30839	1.9365	1.25135	4.3809	74.2	-0.2552	-0.0012	0.254	996.8133	0.125723	-396.830483	-396.823025	-396.822081	-396.86234	28.75	
N	-0.0185283851	 1.5386273837	-0.0812708021	-0.525735
C	 0.0043362885	 0.0921472306	-0.0656735053	-0.088018
C	-0.026552478	-0.5747404129	 1.3135117086	-0.01981
C	-1.5303554547	-0.2659766689	 1.5738060874	-0.099006
C	-1.7658255548	-1.7469771578	 1.8472978375	-0.195087
N	-0.7226213268	-1.8416486562	 0.7322045788	-0.187464
C	-1.3674503857	-0.5947326097	 0.0508956442	 0.294748
C	-2.4003624569	-0.7160118945	-0.9442479517	 0.1643
N	-3.2269252105	-0.7822922378	-1.7506181075	-0.34528
H	 0.9058896452	 1.9031905209	 0.1297806518	 0.237879
H	-0.2515013545	 1.8742602337	-1.0116406653	 0.243706
H	 0.6723164528	-0.4040830594	-0.7849347147	 0.088861
H	 0.766075589	-0.6826569518	 2.0535547679	 0.096767
H	-1.9741267773	 0.6328965194	 2.0029651724	 0.098782
H	-1.4095985384	-2.1544734858	 2.7978828255	 0.111559
H	-2.7326775927	-2.1804341934	 1.5762297725	 0.123799
