15
gdb 131229	2.94951	1.31371	1.04965	2.804	72.65	-0.219	0.0274	0.2464	1132.9131	0.112412	-416.781864	-416.77345	-416.772506	-416.815786	30.682	
O	 0.1127999223	 1.3448388923	 0.1795156521	-0.431043
C	 0.0707135662	 0.0108331431	-0.030270313	 0.453683
C	 0.0558131812	-0.7814465451	-1.1600773199	-0.378951
C	 0.0021434987	-2.0947198814	-0.6400216193	 0.021002
N	-0.0149041623	-2.1198155698	 0.6850875747	-0.274731
N	 0.0199659428	-0.8069897029	 1.0473583021	-0.008622
C	 0.071177314	-0.4291276016	 2.448874807	-0.307388
C	 1.4279877036	-0.2265291431	 2.9560355699	 0.330232
C	 2.5363824886	-0.052578824	 3.3832659778	-0.456785
H	 0.1287182622	 1.7924752689	-0.6718250785	 0.314857
H	 0.0736486565	-0.4604817506	-2.1887529365	 0.099533
H	-0.0311882086	-3.0240743997	-1.1902217477	 0.112406
H	-0.5161430949	 0.485522894	 2.5798042853	 0.157251
H	-0.4256366437	-1.2321301492	 2.9998956121	 0.164177
H	 3.5192410333	 0.094325989	 3.7577140938	 0.20438
