17
gdb 23888	3.08562	1.40191	1.20836	2.1065	57.01	-0.336	0.0818	0.4177	1044.9058	0.137359	-495.392319	-495.383432	-495.382488	-495.426172	31.754	
C	-0.1031275643	 1.5583534725	 0.0623730036	-0.398853
C	 0.0401280852	 0.0345667842	 0.0244571323	-0.1814
C	 0.7736766876	-0.4904865404	-1.2247691131	-0.110374
C	 2.2485066057	-0.0716102415	-1.2916458938	-0.410858
C	 0.658452696	-2.0074580511	-1.2984367004	 0.286124
F	-0.6242636988	-2.4098674702	-1.3198700353	-0.085307
F	 1.2402740214	-2.4981202262	-2.4065521983	-0.085439
F	 1.243767961	-2.6058122654	-0.2452842702	-0.089571
H	 0.8661394864	 2.062954102	 0.1163840383	 0.12199
H	-0.6245848781	 1.9303311475	-0.8267013551	 0.117811
H	-0.6813532463	 1.8666277424	 0.9383695333	 0.120594
H	 0.5713992062	-0.3139353634	 0.9179656159	 0.110771
H	-0.9545607528	-0.4212218204	 0.0587010512	 0.114758
H	 0.2546361872	-0.1226083813	-2.119146014	 0.100984
H	 2.3372785151	 1.0160114875	-1.3310501041	 0.124405
H	 2.792014148	-0.4275476881	-0.4110430144	 0.13125
H	 2.7329127605	-0.4824641781	-2.1803835459	 0.133115
