14
gdb 43970	3.06933	1.82177	1.58538	2.4999	65.23	-0.2492	-0.0304	0.2187	853.1762	0.10167	-436.651598	-436.645138	-436.644193	-436.682423	25.643	
O	-0.0127308627	 0.0624825719	-0.3299669187	-0.294113
C	 0.0024229823	 1.2071175181	 0.014662957	 0.341069
C	-1.1434837239	 2.259333157	 0.2030045679	-0.397563
C	-0.064617784	 3.3266894072	-0.043164494	 0.247912
C	 0.9565749621	 3.3482867022	 1.0366569309	-0.366027
C	 1.0846594551	 2.2608278503	-0.0054072293	 0.176514
O	 1.893249146	 2.5469601919	-1.1273432988	-0.234962
C	 1.2454160788	 3.5896530374	-1.7517348295	 0.090964
N	 0.1675833975	 4.0624956639	-1.2574178158	-0.297855
H	-1.864122596	 2.1551804053	-0.6113291264	 0.154007
H	-1.670256181	 2.3063295362	 1.158956934	 0.129013
H	 1.7259359584	 4.109372077	 0.9727523333	 0.150887
H	 0.6667925438	 3.071809085	 2.0444965641	 0.140711
H	 1.7392784334	 3.9428441665	-2.6491803748	 0.159444
