15
gdb 69233	2.75586	1.64232	1.18619	1.4789	68.66	-0.2601	-0.0254	0.2347	1008.7258	0.113553	-453.9815	-453.97386	-453.972916	-454.013484	29.508	
O	-0.0064050356	 1.3913567998	-0.043019143	-0.468526
C	-0.0516424264	 0.0127207715	-0.0044975538	 0.331153
C	-0.4177856483	-0.8136238618	-1.2107726938	-0.344115
C	-1.3133598045	-0.8162351328	 0.0242410106	-0.175689
C	-1.0627795484	-1.933963638	 0.9863752711	 0.403103
N	-1.9289872932	-2.7789024791	 1.3611397901	-0.532233
N	 0.288103626	-1.8244392494	 1.3747611506	-0.380874
C	 0.8937501882	-0.6521205116	 0.9593654315	 0.35633
O	 1.9581417195	-0.2072438682	 1.3220877814	-0.376123
H	 0.887179272	 1.6326183909	 0.2401372218	 0.302078
H	-0.7957660068	-0.2386563888	-2.04880386	 0.141058
H	 0.1444009709	-1.7043577342	-1.4705415177	 0.130473
H	-2.3089148189	-0.400298645	-0.0377428245	 0.133562
H	-1.5465856067	-3.4528388028	 2.0269185578	 0.215325
H	 0.7350530321	-2.4492527304	 2.0292765578	 0.264478
