18
gdb 4563	5.41001	1.43018	1.14724	0.0064	83.11	-0.2262	0.006	0.2322	1068.221	0.154593	-310.752322	-310.744169	-310.743225	-310.787271	29.393	
C	-0.0123498564	 1.540937791	 0.01041967	-0.49275
C	 0.0219725009	 0.032184471	-0.0002559493	 0.300875
C	-0.1126134123	-0.6857467801	-1.1910224682	-0.178581
C	-0.1120778293	-2.0773018876	-1.1965826514	-0.178581
C	 0.0282406281	-2.8046177957	-0.0121899519	 0.300876
C	 0.062709556	-4.3133775872	-0.0213994273	-0.492751
C	 0.1628606671	-2.0864543501	 1.1789907377	-0.177896
C	 0.1623588671	-0.6953667158	 1.1845451936	-0.177896
H	 0.6011412949	 1.9494639317	 0.8191045866	 0.123706
H	 0.3519017452	 1.9559734241	-0.9340170315	 0.12322
H	-1.0326721959	 1.9169850086	 0.1574024411	 0.131673
H	-0.2222153776	-0.1478792345	-2.1286846149	 0.084909
H	-0.2200340829	-2.6077421794	-2.1386564269	 0.08491
H	 1.0892903219	-4.6896566528	-0.1142272509	 0.131672
H	-0.3502872845	-4.7287433924	 0.9027988113	 0.123707
H	-0.5079646581	-4.7213550602	-0.8609114285	 0.123219
H	 0.2723983987	-2.6243930454	 2.116654785	 0.084844
H	 0.2703939472	-0.1648548451	 2.1266046954	 0.084844
