20
gdb 53710	5.28014	0.4544	0.44894	3.7144	86.78	-0.2431	0.0305	0.2736	2444.1105	0.16896	-403.157122	-403.145973	-403.145029	-403.197169	36.929	
C	-0.0565506525	 1.4424914494	-0.2809271488	-0.497118
C	-0.023024925	 0.000686744	-0.0793412352	 0.116317
C	 0.0161667163	-1.1912623433	 0.0864749093	 0.018047
C	 0.0301590613	-2.6364182404	 0.2825828902	-0.351724
C	-1.369863575	-3.2722872484	 0.1728849449	-0.175828
C	-1.3283995393	-4.7864076199	 0.4054002404	-0.161387
N	-2.6402212675	-5.4068778649	 0.3179014795	-0.279702
C	-3.002521893	-6.2440387329	-0.6915369783	 0.153745
O	-2.2844915823	-6.5993640001	-1.6018625203	-0.321063
H	 0.5690738097	 1.7411944521	-1.1294089242	 0.147588
H	-1.074805284	 1.7932619162	-0.4828748294	 0.146085
H	 0.3076831896	 1.97828652	 0.6027625581	 0.145877
H	 0.6968391536	-3.1042128476	-0.4544246839	 0.132859
H	 0.4596665387	-2.8713742995	 1.2664295008	 0.123718
H	-2.0367062444	-2.7983800712	 0.903493223	 0.100601
H	-1.7897877996	-3.0681867649	-0.8173154009	 0.124509
H	-0.7124759962	-5.2759653427	-0.3530879761	 0.151678
H	-0.8858587319	-5.0049424757	 1.3862517721	 0.107057
H	-3.3389698677	-5.1632061065	 1.0020365115	 0.24583
H	-4.053091651	-6.580868604	-0.5842898227	 0.07291
