20
gdb 111602	3.84441	1.20439	1.15947	2.182	77.67	-0.2303	0.062	0.2923	1135.6449	0.173898	-403.083178	-403.075774	-403.07483	-403.11522	29.823	
O	 0.6321189111	 0.0792900533	 1.4445068578	-0.41804
C	 0.1650747624	 0.0819003311	 0.1005511625	-0.115139
C	-1.2097728104	-0.5571169223	-0.0198134902	 0.021446
C	-2.0019922895	-0.655805518	-1.3486349117	-0.039605
C	-1.0292635777	-1.3853383831	-2.2994670541	-0.229137
C	-1.0290221604	-2.6847682116	-1.4662572365	-0.062457
C	-2.5232712286	-3.0402443592	-1.5646135404	-0.162485
N	-2.7910879677	-1.8329425389	-0.7097383812	-0.152066
C	-1.4289314854	-2.0736736824	-0.0552687856	-0.033904
H	 0.7209209568	-0.8380576891	 1.7218954277	 0.283118
H	 0.1114632207	 1.1373727986	-0.1898977531	 0.113392
H	 0.8963503735	-0.4003977601	-0.5637225479	 0.086882
H	-1.8606983119	-0.1422522424	 0.7560694303	 0.098855
H	-2.595641595	 0.1735647063	-1.7308666759	 0.073772
H	-1.4292070802	-1.5401935787	-3.3053638	 0.097989
H	-0.0613272275	-0.8897998869	-2.3917825581	 0.100929
H	-0.2238592445	-3.4061310405	-1.612699051	 0.061504
H	-2.9967835363	-3.0577780178	-2.5520262061	 0.096602
H	-2.816651928	-3.9281909638	-0.997137089	 0.105822
H	-1.3949493815	-2.7274253646	 0.8186222425	 0.072521
