22
gdb 109811	3.27368	0.85433	0.7813	4.1824	86.79	-0.278	0.0396	0.3176	1554.6239	0.193221	-367.224534	-367.214123	-367.213179	-367.260762	37.407	
C	 2.715216838	 1.787024957	-0.1088918996	-0.379422
C	 2.1669504988	 0.3868012175	 0.1947681796	-0.195217
C	 1.907187141	-0.4156000822	-1.0667435893	-0.037785
C	 2.960437934	-1.2679260465	-1.7508772218	-0.009559
C	 4.375729498	-1.4220183863	-1.2322852989	-0.417725
C	 1.764947286	-1.9242689752	-1.0914410411	-0.046896
C	 1.88830616	-2.7666720664	 0.1718872429	-0.365723
C	 2.2638094778	-4.1513582439	-0.1237334593	 0.265627
N	 2.5578714036	-5.2411314405	-0.3716616125	-0.310365
H	 3.6750063628	 1.7306064254	-0.6321240538	 0.122449
H	 2.0244321974	 2.3501844184	-0.7458193077	 0.11741
H	 2.8646631669	 2.3613065973	 0.8105041408	 0.113714
H	 2.8654792846	-0.1336758827	 0.8581401846	 0.093675
H	 1.2293682081	 0.4793015473	 0.7588854197	 0.099849
H	 1.2308352879	 0.099499972	-1.7464099841	 0.08608
H	 2.9142797029	-1.2610657351	-2.8369007993	 0.09001
H	 4.4425891934	-1.3767988979	-0.1423223975	 0.114329
H	 4.8012467891	-2.3810322479	-1.5460888144	 0.136489
H	 5.0184933809	-0.6282210634	-1.6274158361	 0.122838
H	 1.0116176625	-2.3161885641	-1.7687934964	 0.100772
H	 2.6278825972	-2.356583244	 0.8644604721	 0.147814
H	 0.9343111393	-2.7798897789	 0.712875162	 0.151638
