13
gdb 133182	2.46761	1.75978	1.03374	3.8054	64.09	-0.2653	-0.0739	0.1914	1047.0612	0.08775	-497.842567	-497.834977	-497.834033	-497.874928	27.617	
C	-0.0212604577	 1.5005855237	 0.0270233668	-0.480024
C	-0.0056103462	 0.0023921693	-0.0061900417	 0.080532
C	-0.0348463201	-0.7167356351	-1.1482478342	 0.049997
O	-0.022733882	-2.0578865635	-1.236170108	-0.225795
N	 0.0229049585	-2.8343633852	-0.0967010087	-0.122506
C	 0.0520258836	-2.2008700011	 1.0191879572	 0.257084
F	 0.0961796253	-2.9563718687	 2.0929549496	-0.023127
C	 0.0435880428	-0.73298836	 1.2463598921	 0.214894
O	 0.074048775	-0.2468830968	 2.3624709795	-0.342812
H	 0.869756097	 1.8790638995	 0.5380251075	 0.155386
H	-0.0607487096	 1.9268337867	-0.978070741	 0.125802
H	-0.8831269156	 1.8592978056	 0.5986408205	 0.155444
H	-0.0721736309	-0.2860115042	-2.1432341297	 0.155125
