20
gdb 16891	3.63361	1.79372	1.3919	0.2741	80.52	-0.2257	0.035	0.2606	967.3394	0.17902	-311.883511	-311.876035	-311.875091	-311.914909	29.714	
C	 0.5532533763	 1.3343376829	 0.1434426843	-0.474832
C	-0.0305950667	-0.047211339	 0.0201043383	 0.322988
C	 0.0453925257	-0.7522090146	-1.1114527434	-0.152985
C	-0.5418709548	-2.1221439472	-1.3202850141	-0.269239
C	-0.8772613982	-2.8500795367	-0.0308871578	-0.019626
C	 0.178936353	-3.0173876875	 1.0348393574	-0.287724
C	-0.9747724754	-2.0697125715	 1.2571206398	-0.016813
C	-0.7391974598	-0.5700458527	 1.2488173323	-0.308452
H	 1.3146543426	 1.3742855846	 0.9334977977	 0.119795
H	 1.014180005	 1.6646737758	-0.7913735527	 0.117007
H	-0.2162685115	 2.0672659293	 0.4202628604	 0.119133
H	 0.5476796731	-0.3116648752	-1.970786803	 0.072082
H	-1.454635222	-2.0298189729	-1.9288552848	 0.106078
H	 0.14604779	-2.7286529615	-1.9265020034	 0.101078
H	-1.5687759118	-3.6789492697	-0.1508174925	 0.076053
H	 0.2017013043	-3.9438701185	 1.5981892989	 0.103356
H	 1.1555839058	-2.5832817512	 0.8446310367	 0.111692
H	-1.7281754158	-2.39658054	 1.9680771348	 0.076099
H	-0.1756514629	-0.2748682411	 2.1463971688	 0.098031
H	-1.7066506767	-0.0519938834	 1.3371049624	 0.106278
