17
gdb 117123	2.6446	0.90938	0.72364	2.5003	70.73	-0.2624	-0.0371	0.2253	1525.6385	0.131595	-458.930214	-458.919836	-458.918892	-458.967519	36.016	
O	-0.1777458233	 1.4068131149	 0.122152219	-0.42163
C	 0.0124516308	 0.0043563323	 0.031552425	-0.074922
C	-1.3712056329	-0.6299266568	 0.0787665019	-0.29178
C	-1.3465976408	-2.1306952208	-0.0350622786	 0.350418
O	-0.3347101132	-2.7771448567	-0.1920556205	-0.31998
C	-2.6944553635	-2.8998110605	 0.0334824083	-0.105988
O	-2.477025252	-4.2580285877	-0.230151751	-0.414269
C	-3.3232327945	-2.6706062288	 1.340052189	 0.326028
C	-3.828159204	-2.4812104966	 2.4140289726	-0.475541
H	 0.6859578518	 1.8286470728	 0.0973870564	 0.290688
H	 0.5188870633	-0.2811691505	-0.9013471323	 0.105349
H	 0.6226917357	-0.3803992986	 0.861275663	 0.106048
H	-1.8893634119	-0.3538210079	 1.0041730172	 0.158639
H	-1.9936365753	-0.2299736334	-0.7333048215	 0.141723
H	-3.347833864	-2.4753633347	-0.7465520073	 0.121088
H	-1.5097326036	-4.3589076545	-0.2311524842	 0.29701
H	-4.2845748526	-2.3235168024	 3.360282503	 0.20712
