20
gdb 120517	5.64477	0.67779	0.64265	4.436	80.91	-0.2765	0.0037	0.2802	1767.3312	0.170089	-403.151123	-403.141465	-403.140521	-403.186968	34.193	
C	 0.3126693123	 1.6397953997	 0.115783772	-0.383329
C	 0.0456444083	 0.1402424794	-0.0346154076	-0.167045
C	 0.6448335644	-0.447596929	-1.3179248142	-0.190192
C	 0.4169547504	-1.9405523994	-1.4433087099	 0.153968
C	 1.1923235408	-2.7168008333	-2.5315090792	-0.325989
C	 1.7653265564	-3.5299282829	-1.3426410105	 0.005416
O	 1.0898321325	-2.696143929	-0.3882885623	-0.29194
C	 1.3404227011	-4.9335917171	-1.2702438536	 0.271952
N	 1.0092079265	-6.0399916415	-1.228538092	-0.31708
H	 1.3876272726	 1.8495859376	 0.144224941	 0.116269
H	-0.1124171766	 2.206326866	-0.7204316606	 0.113571
H	-0.1262544795	 2.0296838683	 1.0390726528	 0.117069
H	 0.4589729274	-0.4008610434	 0.8239773828	 0.12188
H	-1.0363587443	-0.0453400592	-0.0240440272	 0.098012
H	 0.2053405188	 0.0408665886	-2.1991911913	 0.100176
H	 1.7244300556	-0.2494778403	-1.3510728752	 0.096835
H	-0.6573551061	-2.1676553864	-1.4299929653	 0.09155
H	 0.5968004355	-3.2805526734	-3.2482748174	 0.136245
H	 1.9455669188	-2.1275632531	-3.0565197504	 0.12385
H	 2.8536252552	-3.4902896715	-1.2189923419	 0.128783
