18
gdb 12640	3.20312	1.89752	1.27829	3.0641	74.94	-0.2332	-0.037	0.1962	983.7296	0.153384	-347.859415	-347.851085	-347.850141	-347.892447	30.283	
C	-0.14701732	 1.5533799386	 0.0263712251	-0.396984
C	 0.064320681	 0.0383077238	-0.0245431175	-0.084905
C	 0.8481171515	-0.4945329906	-1.2442141837	-0.28474
C	 1.9339259189	-1.3531441325	-0.6465832736	-0.152048
C	 1.9535741414	-1.3490925123	 0.6941148407	 0.212388
C	 2.8793130566	-2.0465058221	 1.6362679208	-0.492082
C	 0.8627332114	-0.469966784	 1.1888542607	 0.326492
O	 0.6396279243	-0.191043706	 2.3465497097	-0.341951
H	 0.8064833197	 2.0852514048	-0.064944174	 0.117108
H	-0.8014653779	 1.8915571138	-0.7826266927	 0.112619
H	-0.5969241305	 1.8334585574	 0.9825574307	 0.139859
H	-0.9158780167	-0.4526154961	 0.0274851027	 0.104703
H	 0.220469899	-1.0663129676	-1.9383779384	 0.114585
H	 1.2827246071	 0.3224768814	-1.8358674241	 0.116951
H	 2.6315916333	-1.9046057795	-1.2702251294	 0.104366
H	 3.6448335676	-2.6192593209	 1.1068515235	 0.119206
H	 3.3717750676	-1.3229373646	 2.2948127738	 0.143462
H	 2.3235359957	-2.7262985136	 2.291581536	 0.140972
