17
gdb 25876	4.29203	1.00533	0.82287	2.7471	78.19	-0.2307	-0.0366	0.1941	1374.998	0.13465	-421.890409	-421.881467	-421.880523	-421.924637	31.885	
C	-0.0446192326	 1.509044941	 0.0196697588	-0.496527
C	 0.0302257477	-0.003427661	-0.1173516766	 0.299929
O	 1.087497963	-0.5733141414	-0.3037457144	-0.315414
C	-1.2297456382	-0.7613886253	-0.0161701582	 0.171342
C	-2.4959831958	-0.2909611979	 0.189289639	-0.10456
O	-3.3835466973	-1.3074017786	 0.2199282913	-0.181326
C	-2.6803296812	-2.4754572452	 0.0294944423	 0.387085
C	-3.4750407	-3.7303964651	 0.0278807201	-0.487851
C	-1.363511424	-2.1915802709	-0.1190684958	-0.39431
H	 0.957566871	 1.9276274812	-0.0758480397	 0.142614
H	-0.6939347086	 1.9348149948	-0.7530543218	 0.137258
H	-0.4664610812	 1.7881223093	 0.9913427923	 0.137226
H	-2.9068754173	 0.6961371201	 0.3262580708	 0.144926
H	-4.2295997083	-3.7264997494	-0.7666200452	 0.141835
H	-2.8136718338	-4.5844488006	-0.1311684981	 0.142742
H	-4.0003031722	-3.8739876492	 0.9787225152	 0.141833
H	-0.5574732513	-2.8879613318	-0.2832462001	 0.133197
