21
gdb 91904	2.31949	1.52907	1.00901	1.86	84.76	-0.2343	0.0092	0.2434	1241.4625	0.182672	-387.094874	-387.086106	-387.085162	-387.128105	33.914	
C	 0.0947503124	 1.5849390323	-0.0187502035	-0.397044
C	-0.0311701075	 0.0555472855	 0.0084523792	-0.034375
C	 0.5263890248	-0.5668129631	-1.2900295303	-0.234752
C	 0.716849491	-2.0736814436	-1.1939619379	 0.025083
O	 2.0456015332	-2.5305724963	-0.9058196836	-0.259486
C	 1.0318884972	-2.6609457942	 0.1131733503	-0.044888
C	 1.1394273039	-1.7663216397	 1.3022088832	 0.295867
C	 1.8115586451	-2.3312701416	 2.5221908713	-0.489841
C	 0.6338217677	-0.5316316042	 1.2353773133	-0.135418
H	 1.1467873672	 1.8890707502	-0.0543969975	 0.120667
H	-0.4066216522	 2.0045060591	-0.8970472494	 0.111874
H	-0.3548080401	 2.0354407942	 0.8723067424	 0.11258
H	-1.1056374249	-0.1821274566	 0.0652232347	 0.085435
H	-0.1331022212	-0.321662535	-2.1296058905	 0.095367
H	 1.5043292628	-0.1225423534	-1.5083110963	 0.11638
H	 0.1953150998	-2.6868183089	-1.9283605501	 0.088895
H	 0.7546325747	-3.6966484405	 0.3156071806	 0.084747
H	 2.8473535905	-2.6168159936	 2.2998564071	 0.137123
H	 1.8241622996	-1.6110287562	 3.3445831414	 0.120339
H	 1.3050767388	-3.2401475369	 2.8719104862	 0.121902
H	 0.6897175371	 0.1126757525	 2.1118713995	 0.079546
