19
gdb 58004	3.90292	0.82281	0.73764	3.7291	73.28	-0.2588	-0.0285	0.2303	1565.3269	0.15536	-460.21072	-460.200252	-460.199307	-460.247943	35.809	
C	-0.254109414	 1.1504647496	-0.4344023625	-0.393559
C	 0.0397545947	-0.2218852916	 0.2068414313	-0.089491
C	 0.8423596338	-0.0920975777	 1.5032745428	-0.384715
C	-1.2711122395	-0.9446986087	 0.4554402024	 0.450874
O	-1.8292661339	-1.0682181503	 1.517015241	-0.355847
O	-1.7849352358	-1.4380961944	-0.701046223	-0.247635
C	-3.0664044903	-2.0564380398	-0.5718000373	-0.160003
C	-3.0082959485	-3.3576139275	 0.2185068518	 0.156926
O	-3.9914940973	-3.9467561741	 0.5741926619	-0.232586
H	 0.6840831961	 1.6678010766	-0.6541892599	 0.124262
H	-0.8137129582	 1.0412985248	-1.3666794785	 0.131022
H	-0.8354046818	 1.7799995913	 0.2472937931	 0.131226
H	 0.597165359	-0.8204057129	-0.5229140664	 0.10343
H	 1.0746712924	-1.0718536397	 1.9294182373	 0.124092
H	 1.7834956378	 0.431876011	 1.3128611897	 0.113344
H	 0.2768810356	 0.4681160363	 2.2524212064	 0.137245
H	-3.7887540495	-1.3851594436	-0.1000028366	 0.155142
H	-3.3893759295	-2.2754351068	-1.5937935814	 0.145525
H	-1.9797047311	-3.7389514425	 0.4034426679	 0.090748
