19
gdb 60245	3.40984	0.94753	0.78931	0.9802	73.36	-0.2579	-0.0412	0.2167	1446.2386	0.156925	-460.160513	-460.151146	-460.150202	-460.195254	34.2	
C	 0.0115885543	 1.6285739728	 0.0315842674	-0.384417
C	-0.0877549012	 0.1286707466	 0.2831717369	 0.150794
O	 0.0638051264	-0.0698691719	 1.6788719471	-0.447114
C	-1.42429283	-0.4503463336	-0.2181496344	-0.230199
C	-1.4534087355	-1.9733193995	-0.1814990554	-0.005671
O	-1.2011530495	-2.5389778957	 1.1431012252	-0.299266
C	-2.4859558294	-3.1926901832	 1.2269559074	-0.192947
C	-2.8294836485	-2.6583387534	-0.1708518454	 0.340128
O	-3.7579081075	-2.7255605606	-0.9140135465	-0.267762
H	 0.9431886562	 2.0123260784	 0.4557607765	 0.12758
H	-0.0029247976	 1.8510699536	-1.0395951833	 0.108518
H	-0.8208532214	 2.1524323558	 0.5122389136	 0.120819
H	 0.7293391244	-0.3743838898	-0.2661090803	 0.060698
H	-0.1897272188	-0.9818272086	 1.8735084883	 0.292534
H	-2.2326842425	-0.0407526725	 0.3992121998	 0.108909
H	-1.6078743603	-0.1424059807	-1.2543947268	 0.116657
H	-0.7535901933	-2.3976583224	-0.9146090343	 0.11522
H	-2.4020339821	-4.283080691	 1.3064420245	 0.14154
H	-3.1106717038	-2.8115821642	 2.0436475295	 0.143979
