12
gdb 130836	4.55112	1.17067	0.93115	5.0096	64.92	-0.2739	-0.1096	0.1642	1133.365	0.077564	-468.81372	-468.806289	-468.805345	-468.847135	25.247	
O	-0.072684463	 0.0601330164	 0.0039007429	-0.19479
C	-0.037009435	 1.257756878	 0.0093189575	 0.065668
C	 1.3414379229	 1.9652766455	-0.0010372306	 0.36152
O	 2.3794518649	 1.3759773807	-0.0154274833	-0.245091
N	 1.2808144265	 3.3891297732	 0.0079144982	 0.030884
N	 0.1096971151	 4.0606754643	 0.024817043	-0.209444
C	 0.4792346012	 5.3268081707	 0.0285154095	-0.045275
C	 1.895218301	 5.3873645674	 0.0132096124	-0.035294
N	 2.3798945408	 4.1596428534	 0.0003249259	-0.176325
H	-0.9311987626	 1.9002863561	 0.0213518022	 0.145939
H	-0.2499753299	 6.1216333664	 0.0414116667	 0.151208
H	 2.5503918583	 6.2444071679	 0.0111360358	 0.151001
