17
gdb 77771	2.45081	1.5325	1.33367	3.715	75.05	-0.24	-0.0601	0.1799	1038.6053	0.13536	-421.841146	-421.833011	-421.832067	-421.873469	31.474	
C	-0.0223947935	 1.5348816475	-0.0077438462	-0.48671
C	 0.0060635485	 0.025086661	 0.0485185101	 0.222843
C	-1.2354176413	-0.7492830303	-0.260704922	-0.117104
C	-1.3704407024	-1.8508154481	 0.4948135055	-0.244378
C	-0.2454765629	-1.9326633481	 1.4753168279	 0.40578
O	-0.1064371314	-2.7498311546	 2.3554782522	-0.332727
C	 0.6800884159	-0.781774225	 1.1555652313	-0.282136
C	 1.2797774232	-0.7508453083	-0.2523379764	 0.100257
O	 1.3846042793	-1.8390706615	-1.0974113602	-0.411335
H	 0.9610321396	 1.9539078588	 0.2246374184	 0.126261
H	-0.3057445812	 1.8858584278	-1.0066136017	 0.126421
H	-0.7393427218	 1.9469271345	 0.7107149879	 0.129269
H	-1.9086432621	-0.4417554824	-1.0547549194	 0.120924
H	-2.1560454609	-2.5935353025	 0.4425334858	 0.12232
H	 1.242946576	-0.3320020367	 1.9644538332	 0.109817
H	 2.1765798646	-0.1448741605	-0.3445420505	 0.120934
H	 0.5535910404	-2.3304573915	-1.0780374258	 0.289564
