16
gdb 12256	3.55664	1.49959	1.16798	1.9719	63.02	-0.2393	0.0177	0.2569	1008.3276	0.129979	-417.03413	-417.025558	-417.024614	-417.067467	30.635	
O	-0.0922338679	 1.5370969107	-0.0865771119	-0.425282
C	-0.0482500265	 0.1936126089	 0.3729217332	-0.066395
C	-1.33608988	-0.542195801	 0.0302216115	-0.000855
N	-1.5706156627	-0.6511054121	-1.4300320584	-0.35679
C	-1.5993617605	-2.0422931616	-1.4349420172	 0.353788
N	-1.7513194551	-2.9700602712	-2.2805206487	-0.554026
C	-1.3105384027	-2.1063577458	 0.0657645764	 0.029944
O	-0.0912934204	-2.6872994407	 0.4546001309	-0.428247
H	-0.0336252816	 1.5028889233	-1.0472081324	 0.282145
H	 0.8076634969	-0.3523521363	-0.0410429834	 0.10506
H	 0.0753309888	 0.2369865261	 1.45954639	 0.118043
H	-2.181916866	-0.1046408855	 0.5711377126	 0.086161
H	-2.1314620631	-0.0362247296	-2.0025619338	 0.243333
H	-1.9231000714	-2.613058662	-3.2220821753	 0.212603
H	-2.1537637014	-2.5272563624	 0.6295036235	 0.097723
H	 0.0467779135	-3.4543738309	-0.1129027169	 0.302793
