13
gdb 33522	2.22031	1.70128	1.23672	3.1704	68.92	-0.2843	-0.0291	0.2552	1006.0537	0.088412	-415.580999	-415.573079	-415.572135	-415.613972	28.56	
C	-0.1309068253	-1.2922964099	-0.1108839738	-0.419407
C	-0.0553119021	-0.0959435366	-0.0546662699	 0.311154
C	 0.0103220017	 1.3547109516	 0.0606728966	 0.047465
C	-0.5043319432	 1.8988290213	 1.4597904436	-0.2291
N	 0.650490069	 2.5775068353	 2.039652851	-0.241578
C	 1.5951808791	 2.462572337	 1.2106476766	 0.125726
O	 1.3975764874	 1.7955513612	 0.038045165	-0.233483
C	-0.6879812773	 1.9985674272	-1.0657793066	 0.277702
N	-1.2634768216	 2.5179978261	-1.9216487478	-0.325993
H	-0.1934235292	-2.3513949599	-0.1746479829	 0.22087
H	-1.3392626235	 2.591984832	 1.3335173008	 0.154829
H	-0.8294149526	 1.072340439	 2.0955093025	 0.149589
H	 2.5999794177	 2.8507611058	 1.328250215	 0.162228
