20
gdb 87175	2.46466	1.2879	1.06771	3.9233	76.41	-0.2451	0.0185	0.2636	1237.219	0.168925	-440.310196	-440.300221	-440.299277	-440.345561	36.687	
C	-2.4578762691	 0.7297260338	-2.0676783932	-0.480499
C	-2.3771432481	-0.6935762568	-1.5422862317	 0.417658
O	-3.0160294858	-1.5992551669	-2.0646027596	-0.405337
N	-1.5764987895	-0.8733933388	-0.456288141	-0.348637
C	-1.2255442148	-2.1557243123	 0.104098672	 0.28355
C	 0.0235344622	-2.7752808704	-0.4903282553	-0.442323
C	-1.5290079456	-2.3438867014	 1.5815143681	-0.361752
C	-2.3569561092	-3.0589937914	 0.5501770738	 0.107819
O	-3.6746186862	-2.6687386873	 0.3946433357	-0.43229
H	-3.4925865867	 1.0738184793	-1.9879906152	 0.158477
H	-1.807210546	 1.4341466488	-1.5438620977	 0.113821
H	-2.1981917589	 0.7232040853	-3.1293041356	 0.156227
H	-1.0633592171	-0.074092987	-0.1178800792	 0.245283
H	 0.9012506977	-2.139034672	-0.3245367844	 0.109119
H	 0.2289727772	-3.7486370574	-0.035546501	 0.121386
H	-0.0966282229	-2.9210206855	-1.5688260273	 0.135305
H	-0.8240954206	-2.9051635051	 2.1849495239	 0.112103
H	-2.0235560479	-1.5207518764	 2.0847070406	 0.121379
H	-2.1652955153	-4.1252730906	 0.4166943017	 0.084061
H	-3.7845169834	-2.4970887679	-0.5564164546	 0.30465
