21
gdb 52838	2.44325	1.05855	0.91361	1.9883	87.58	-0.2442	0.0494	0.2936	1427.7518	0.179537	-387.058677	-387.04797	-387.047026	-387.096671	37.517	
C	 0.1262437202	 1.5361811553	-0.1191093899	-0.500351
C	 0.0864873851	 0.0809931338	-0.0805430423	 0.056999
C	 0.0513197288	-1.1232907272	-0.0476363541	 0.048125
C	 0.0324177677	-2.5758181274	-0.0073736162	 0.059319
C	 1.1014210263	-3.1750159427	-0.9304336015	-0.456054
C	 0.0034633468	-3.2094937976	 1.41556762	-0.100923
O	-1.2391001803	-3.8803534239	 1.1552690433	-0.289884
C	-1.3705626782	-3.2725780925	-0.1504535384	 0.134035
C	-2.6130525789	-2.4158857737	-0.2686459207	-0.405995
H	 1.0035612225	 1.8968433727	-0.667442242	 0.14816
H	-0.7627647655	 1.9450100052	-0.6121034122	 0.149016
H	 0.1687102086	 1.9607372761	 0.8900690641	 0.148737
H	 2.0992233145	-2.8293534803	-0.6441331483	 0.124723
H	 1.0839839573	-4.2681501962	-0.8750218222	 0.121239
H	 0.9260487151	-2.8779988307	-1.9689586868	 0.124785
H	 0.8209831309	-3.9110481222	 1.6246085488	 0.097994
H	-0.0773566831	-2.4903575476	 2.2385588995	 0.103293
H	-1.3660205967	-4.0432432201	-0.9339792523	 0.071314
H	-2.6145234073	-1.618281658	 0.4783872346	 0.126652
H	-2.6705261959	-1.9589202673	-1.2622013345	 0.116687
H	-3.5024420276	-3.0368165857	-0.1219283891	 0.122127
