21
gdb 111502	2.81401	1.35625	1.15444	2.4962	77.2	-0.2565	0.081	0.3375	1163.9418	0.183457	-424.227724	-424.219215	-424.21827	-424.260695	33.442	
C	-0.0792316279	 1.5374931315	 0.0908896483	-0.389766
C	-0.004823011	 0.0097663974	 0.0186566276	-0.174244
C	 0.6519445934	-0.5133202974	-1.2634781939	-0.03401
C	 0.7612940049	-2.0257602312	-1.3481866537	 0.032523
O	-0.4625358477	-2.6639506044	-1.7805274271	-0.279585
C	 0.5953784623	-2.4541391307	-2.7408009018	 0.040306
C	 0.3740845999	-1.2304796555	-3.6052750272	-0.269857
C	-0.0831703016	-0.1458269734	-2.5939232028	 0.105757
O	-1.4932244559	-0.1284505294	-2.4510698367	-0.438275
H	 0.9126673312	 1.9918108759	-0.0169604102	 0.105746
H	-0.7237720617	 1.9322201594	-0.699216496	 0.137643
H	-0.4896860623	 1.8639600985	 1.0513606431	 0.110286
H	 0.5609211976	-0.3737768603	 0.8776655964	 0.08756
H	-1.0133320712	-0.4079168058	 0.0985710318	 0.106271
H	 1.6770869428	-0.1158357455	-1.3221629842	 0.07333
H	 1.3337149921	-2.5919416919	-0.6172746972	 0.095691
H	 1.0384490003	-3.3635891874	-3.1376228242	 0.097885
H	 1.3194363738	-0.9556833625	-4.0894872011	 0.103911
H	-0.3784442043	-1.3718983837	-4.3860515632	 0.117181
H	 0.1884146306	 0.8564824353	-2.9323624957	 0.084333
H	-1.7366723156	-1.023447129	-2.1777248123	 0.287314
