19
gdb 74764	3.97076	1.12775	1.05179	0.7594	88.44	-0.2199	0.0082	0.228	1213.9335	0.159059	-348.694687	-348.68653	-348.685586	-348.727027	32.512	
C	 0.0388250546	 1.4484395352	 0.0603562436	-0.518172
C	-0.0042769532	-0.0388085436	 0.0018052577	 0.335397
C	-0.0184704634	-0.8943478715	-1.027824378	-0.212456
C	-0.0513502356	-2.2721967764	-0.3580199365	-0.065352
C	-1.1060628929	-2.0179777071	 0.768633976	-0.222257
C	-0.0303732364	-0.9772558088	 1.2222859262	-0.117468
C	 1.0499117657	-2.0460280679	 0.763519393	-0.161136
C	 1.3114780517	-3.1485611441	 1.6674170672	 0.299938
C	 1.5523537731	-4.0616506356	 2.413716427	-0.437371
H	 0.926197562	 1.8036431698	 0.6001931583	 0.127534
H	 0.0550988957	 1.8855304772	-0.9422060898	 0.125769
H	-0.8305753607	 1.8546357881	 0.5934879617	 0.12748
H	 0.0031899085	-0.6967851078	-2.09055707	 0.096027
H	-0.052716503	-3.1688894764	-0.975846789	 0.068599
H	-2.0771531301	-1.626244839	 0.4591024133	 0.091941
H	-1.2171316455	-2.8562399965	 1.4608467754	 0.111752
H	-0.0108791083	-0.5444586206	 2.2223415785	 0.066256
H	 1.9869874008	-1.6174474261	 0.3978845824	 0.093345
H	 1.761945347	-4.8678999687	 3.071969213	 0.190176
