14
gdb 51701	3.7757	1.02696	0.89144	4.9713	60.7	-0.291	-0.0032	0.2878	1252.6197	0.101104	-511.004323	-510.996435	-510.995491	-511.038283	27.148	
N	-0.1294466971	 1.2395953096	-0.28285564	-0.421424
C	-0.0591172154	-0.0007876203	-0.0954886505	 0.130706
O	-1.1984672904	-0.7468578835	-0.1635174892	-0.188444
C	-1.0501259274	-2.131603724	-0.0045402537	 0.169222
C	-2.4429133551	-2.770484895	 0.0493941252	-0.125397
O	-2.6077616605	-3.3305870439	-1.2521175705	-0.234384
C	-1.4291013825	-3.3239239566	-1.9179988087	 0.501038
O	-1.24173775	-3.7838012878	-2.9938371751	-0.356038
O	-0.4644849659	-2.718606868	-1.1524216749	-0.238342
H	 0.7910175268	 1.6639933652	-0.1883825417	 0.241245
H	 0.8366322696	-0.5911841147	 0.1315398306	 0.109085
H	-0.4086302402	-2.359357755	 0.8519071281	 0.115349
H	-2.5047008595	-3.5655611637	 0.7974843065	 0.137129
H	-3.2153782725	-2.0215771324	 0.2250859338	 0.160255
