21
gdb 122033	2.63178	0.75447	0.6104	2.3474	86.72	-0.2514	-0.0311	0.2202	1848.5294	0.178554	-387.073322	-387.06227	-387.061326	-387.111002	38.437	
C	 0.0231939648	 1.585683487	 0.0455959066	-0.381204
C	-0.0042954378	 0.0567244994	-0.0297660455	-0.172365
C	-1.4226659461	-0.520076999	 0.0422116645	-0.172529
C	-1.4439463715	-2.0504206512	-0.022552512	-0.204787
C	-2.8774559128	-2.6516517603	 0.0364497359	-0.257622
C	-3.633921773	-2.2860885319	-1.244542229	 0.172289
O	-4.5103724505	-1.4675275933	-1.3056680713	-0.244651
C	-2.8472148262	-4.1030937227	 0.1702329386	 0.289355
C	-2.8217068733	-5.3034832315	 0.2324106201	-0.428424
H	 1.0467122668	 1.9689348441	-0.0095886591	 0.113295
H	-0.5453829505	 2.032403912	-0.7773571217	 0.118173
H	-0.4169107481	 1.9438121028	 0.982812791	 0.116126
H	 0.4738147543	-0.2736785799	-0.961406678	 0.097077
H	 0.599718734	-0.3629309016	 0.7855569547	 0.096917
H	-1.9037157641	-0.1911228397	 0.9733415875	 0.101249
H	-2.0287171937	-0.1012188538	-0.7710952083	 0.112773
H	-0.9533543358	-2.4016819842	-0.9395859235	 0.110465
H	-0.8711564357	-2.4724927126	 0.8101221475	 0.118288
H	-3.42472016	-2.2011099812	 0.8724987917	 0.123744
H	-3.2800530231	-2.8395402138	-2.1431269384	 0.09023
H	-2.8043744977	-6.3625744487	 0.3094021187	 0.201602
