20
gdb 8677	2.28201	1.79536	1.41782	1.4267	76.83	-0.2506	0.0457	0.2963	1034.2994	0.172918	-348.962355	-348.95226	-348.951316	-348.996697	36.78	
C	-0.0635080068	 1.561038066	-0.0936133787	-0.389985
C	-0.0672421171	 0.0351934778	 0.0024569676	-0.202081
C	 0.7290813653	-0.5248900635	 1.2101906844	 0.172656
C	 0.7090297482	-2.0671731152	 1.1978634713	-0.429253
O	 2.0692253233	-0.0089033583	 1.2436156947	-0.275044
C	 2.9379888519	-0.3992511375	 0.2012253619	-0.24237
C	 0.1189341546	-0.0574382011	 2.4641389239	 0.356544
C	-0.4152864262	 0.2942334343	 3.4810387107	-0.476001
H	 0.955446005	 1.9484659568	-0.1748873343	 0.12688
H	-0.6282088321	 1.8934938278	-0.9697366122	 0.107341
H	-0.5179361295	 2.0084553293	 0.794853195	 0.131499
H	-1.0942918221	-0.3374827691	 0.083671619	 0.10652
H	 0.3439593806	-0.4040827443	-0.9141549096	 0.094577
H	 1.0781462383	-2.4596828868	 0.2462269595	 0.114993
H	 1.3279521452	-2.4573651362	 2.009550074	 0.132103
H	-0.3132474601	-2.4265034064	 1.3380610787	 0.129358
H	 3.1431251485	-1.4782033784	 0.2009824807	 0.109344
H	 2.5685514668	-0.1146099797	-0.7937277466	 0.107588
H	 3.8781767723	 0.1283065976	 0.3807088589	 0.130597
H	-0.8751368062	 0.6129143069	 4.3837757809	 0.194733
