20
gdb 23026	3.50118	0.83568	0.78272	1.4524	80.49	-0.24	-0.0016	0.2384	1543.0001	0.168055	-440.231574	-440.221421	-440.220477	-440.267262	36.705	
C	 1.3540894468	 1.3523049847	-0.0615138414	-0.375423
C	 0.3336297952	 0.2189561682	 0.1051532478	-0.226945
C	-0.0164467082	-0.4162475114	-1.2187975127	 0.080737
O	 0.9442306224	-1.2784341732	-1.8395690234	-0.261905
C	-0.3141662527	-1.8461436595	-1.4564348969	-0.020058
C	-0.3094844051	-2.9221472486	-0.4216425499	 0.339958
C	 0.8601105891	-3.1331586392	 0.4969849822	-0.488442
N	-1.3585863507	-3.6568944231	-0.4435828296	-0.173658
O	-1.3242985129	-4.6427516256	 0.549027362	-0.393915
H	 2.2849245966	 0.9726481657	-0.4933089747	 0.133709
H	 0.9722299902	 2.1352424704	-0.7256537086	 0.117318
H	 1.5879824813	 1.8150124029	 0.901588789	 0.115605
H	 0.7202248315	-0.5307009248	 0.7988309905	 0.109922
H	-0.5924030243	 0.6107340954	 0.545564179	 0.106801
H	-0.4802035003	 0.2768978907	-1.9268471406	 0.091398
H	-0.9871263633	-2.0696745084	-2.2834409121	 0.103937
H	 1.7268846937	-2.5764882724	 0.1418312299	 0.144074
H	 0.6203480483	-2.8199211479	 1.5194355318	 0.142551
H	 1.0974298082	-4.1991847935	 0.5451436509	 0.14619
H	-2.1377537559	-5.1297866304	 0.3794710568	 0.308146
