19
gdb 49194	4.00613	1.0859	0.9746	3.4453	84.31	-0.247	-0.0541	0.1929	1245.1774	0.160691	-385.910956	-385.903179	-385.902235	-385.943604	29.908	
O	 0.0212016264	-0.1198782169	-0.047382529	-0.271802
C	 0.0985659681	 1.067924047	 0.1809884018	 0.070914
C	 1.3081580528	 1.8688318566	-0.0195395366	 0.24114
C	 1.3853269342	 3.1873157085	 0.2281905826	-0.161901
C	 2.7411828686	 3.7557118326	-0.0611808243	-0.059261
C	 3.6364783315	 4.0331891624	 1.1879467388	-0.223824
C	 4.2701864531	 2.6238979762	 1.0179919355	-0.221936
C	 3.5917366611	 2.4755562456	-0.3780275282	-0.012425
C	 2.6085255733	 1.3019590987	-0.5530019744	-0.33396
H	-0.7763406285	 1.6370942093	 0.5690900821	 0.064474
H	 0.5600750215	 3.7864453461	 0.6035100096	 0.106093
H	 2.6990887511	 4.5663151882	-0.796511393	 0.080783
H	 4.3464904738	 4.8440142035	 1.0064096137	 0.105322
H	 3.1171726701	 4.2329827486	 2.1287137846	 0.100442
H	 5.3616251724	 2.5852537108	 1.0287681317	 0.103099
H	 3.8966988878	 1.8951941648	 1.7428937222	 0.105943
H	 4.2940626438	 2.5763433904	-1.2067309747	 0.070264
H	 2.9186373092	 0.4061691138	-0.003331865	 0.120942
H	 2.4935541997	 0.9932458838	-1.5993259774	 0.115693
