22
gdb 103878	3.42141	0.80639	0.73936	4.3378	87.54	-0.279	0.0391	0.3181	1616.5891	0.192879	-367.2274	-367.217085	-367.21614	-367.263136	37.746	
C	 0.3854830185	 1.4822514148	 0.3040288859	-0.385616
C	-0.1551140197	 0.1130398455	-0.1303590983	-0.245648
C	 0.5662952961	-0.480605758	-1.3348212432	 0.33907
C	 0.4414994695	 0.3316418638	-2.6138497844	-0.459937
C	 1.8713020198	-1.2126734275	-1.1038325405	-0.318395
C	 0.6425226139	-1.9849897701	-1.5206768465	-0.044082
C	-0.0175752761	-2.9848311378	-0.5808165998	-0.37799
C	 0.6155964246	-4.3036103321	-0.6546052561	 0.265643
N	 1.1201173817	-5.3408093491	-0.7255480673	-0.307771
H	 1.4561717429	 1.4285729983	 0.5272037535	 0.120921
H	 0.2437879935	 2.2407779041	-0.4710988882	 0.121734
H	-0.1290465685	 1.8321288939	 1.2040017811	 0.114874
H	-0.0819078127	-0.5695939166	 0.7228689877	 0.092036
H	-1.2259387809	 0.2019345058	-0.3596237311	 0.097033
H	 0.8887317815	 1.3250334256	-2.5056969237	 0.123293
H	 0.9470782628	-0.1646135502	-3.4477161298	 0.117026
H	-0.6099354606	 0.4678520775	-2.893813251	 0.115983
H	 2.6768076467	-1.0958518613	-1.8207518706	 0.11637
H	 2.2091207359	-1.3309321133	-0.0782178108	 0.113243
H	 0.6238428403	-2.3176394244	-2.5548242727	 0.100571
H	 0.0292704479	-2.6475815157	 0.4588373708	 0.150131
H	-1.0808551871	-3.1031273434	-0.823521825	 0.151511
