20
gdb 89080	5.33018	0.60297	0.57155	4.8079	81.88	-0.2776	0.0119	0.2895	1929.1537	0.169215	-403.133856	-403.123794	-403.12285	-403.170393	35.139	
C	 0.1298385511	 1.5287293234	-0.2782927461	-0.408672
C	 0.0736445419	 0.0417483047	 0.0028871007	-0.000742
C	 1.3253410285	-0.79658724	 0.0563770927	-0.282279
C	 0.5133589936	-0.5828840923	 1.3117329252	-0.014394
C	 1.0640214505	 0.2285267003	 2.4494039738	-0.07747
O	 1.9081943103	-0.6153305993	 3.2279948558	-0.237149
C	 2.4311662285	 0.0448999321	 4.3495047415	-0.181557
C	 3.2731922043	-0.8836556661	 5.1105436989	 0.264938
N	 3.9421307713	-1.5901098717	 5.7319275231	-0.293498
H	 1.0421947871	 1.9893980625	 0.1113586174	 0.116127
H	 0.1129013101	 1.7122608864	-1.3580689856	 0.123183
H	-0.7252680896	 2.0557225231	 0.1597781118	 0.11833
H	-0.7901437243	-0.4456669417	-0.4420361882	 0.08966
H	 1.3279136921	-1.7806958354	-0.3982328696	 0.116725
H	 2.2760584642	-0.2758199467	-0.0100420609	 0.112346
H	-0.0765321029	-1.4300546862	 1.6498183798	 0.095672
H	 1.6393533533	 1.0938019912	 2.0860708407	 0.091084
H	 0.2506756439	 0.6195148332	 3.083950371	 0.094084
H	 3.0438594513	 0.9166340609	 4.0633576572	 0.136471
H	 1.6339319047	 0.4180484717	 5.0145912109	 0.137141
