19
gdb 113683	2.8574	1.15918	0.89845	4.9979	74.45	-0.2453	0.0329	0.2782	1322.331	0.159298	-456.352451	-456.342883	-456.341939	-456.387411	34.253	
C	-0.3391267418	 1.228222198	 0.2169755106	-0.326968
N	-0.2788431986	-0.1865338386	-0.0956376504	-0.320633
C	-1.3845253272	-0.982672077	-0.0510981191	 0.451261
O	-2.472332162	-0.5998317966	 0.3636658716	-0.412234
N	-1.1757560483	-2.2565161392	-0.5922890215	-0.135837
C	-0.2243298121	-3.2323187585	-0.0752825121	-0.278929
C	-1.7014730615	-3.4759373391	 0.0024327309	-0.01312
C	-2.4224970133	-3.4342555073	 1.3365408493	-0.071781
O	-3.7369514592	-2.9534713326	 1.2123141932	-0.424808
H	 0.5352580927	 1.5262599662	 0.8032483773	 0.126174
H	-0.3865490897	 1.8496985083	-0.6859290051	 0.128704
H	-1.2419020293	 1.4004862729	 0.803073416	 0.171855
H	 0.5175333631	-0.5353011959	-0.6034511075	 0.253151
H	 0.3841533524	-3.7446659083	-0.8157842175	 0.125096
H	 0.2874470589	-2.9909325685	 0.8544761185	 0.127737
H	-2.1503112621	-4.1455905857	-0.7287357492	 0.108825
H	-2.4851058947	-4.4547537539	 1.7328562028	 0.106512
H	-1.8279157713	-2.8417132074	 2.0520185193	 0.082912
H	-3.6392395961	-2.0369655768	 0.9008299228	 0.302082
