15
gdb 47118	3.18295	1.26504	0.93186	2.3683	76.51	-0.2626	-0.0643	0.1984	1183.1404	0.11501	-413.024375	-413.016617	-413.015673	-413.056912	28.861	
N	-0.0634400042	 1.3011920074	 0.303701154	-0.512254
C	-0.0172788853	 0.0730487533	-0.0167108246	 0.393419
C	-1.2503350344	-0.7962954612	-0.0455602441	-0.279457
C	-1.1705000012	-1.8398790168	-1.1687271408	-0.183468
N	 0.0778629501	-2.5982895113	-1.1696584314	-0.276757
C	 1.1079424838	-1.9605913442	-0.7800014881	 0.286657
N	 1.1444159034	-0.6420854743	-0.3325293124	-0.401254
C	 2.4011578618	-2.610986335	-0.79859837	 0.264105
N	 3.4548421221	-3.0855309121	-0.8028818289	-0.311485
H	 0.8616513469	 1.7370875702	 0.3012304975	 0.210954
H	-1.3187223844	-1.3135011531	 0.9202921319	 0.138778
H	-2.1286457224	-0.1566768474	-0.1396167102	 0.143184
H	-2.0007993433	-2.5465528275	-1.0934167041	 0.129263
H	-1.2630574074	-1.3515107984	-2.150038437	 0.132654
H	 2.0426349947	-0.2097542595	-0.1735311018	 0.26566
