15
gdb 4993	3.31014	2.27642	1.36001	3.5541	71.79	-0.2104	-0.0311	0.1793	868.1138	0.121203	-362.745493	-362.738602	-362.737658	-362.776445	26.268	
C	-0.0256629332	 1.5170741709	 0.0122445258	-0.471749
C	-0.0043609878	 0.0184320863	-0.0369500887	 0.137947
C	-0.0428014408	-0.7083655552	-1.1918842691	-0.148303
C	-0.0207621909	-2.1331281635	-1.1989548716	-0.164595
C	 0.0408217839	-2.7803532624	-0.0066041716	 0.02768
N	 0.0796065544	-2.0656910985	 1.1531671749	-0.356793
C	 0.0619781752	-0.66519887	 1.2513035216	 0.375891
O	 0.1009787029	-0.1257399151	 2.3481530486	-0.395659
H	 0.86574365	 1.9011828602	 0.5201278456	 0.142178
H	-0.076012271	 1.9478208228	-0.9908519862	 0.111175
H	-0.8811878765	 1.8738402293	 0.5960894439	 0.142185
H	-0.092039905	-0.1834945469	-2.1424628308	 0.10193
H	-0.0519346504	-2.6911280406	-2.1246043179	 0.105395
H	 0.0620620179	-3.8584672042	 0.0946276778	 0.132378
H	 0.1256288714	-2.5387293933	 2.0450731478	 0.26034
