18
gdb 30354	3.00535	1.53145	1.12476	3.1354	78.4	-0.2061	0.0327	0.2388	1081.7066	0.150931	-401.989282	-401.981658	-401.980714	-402.02127	30.226	
O	-0.3578684375	 1.4939946669	-0.2796390645	-0.43597
C	 0.0431597973	 0.1456159876	-0.0122494298	-0.006365
C	-1.1628666954	-0.8147236757	 0.2345760005	-0.225177
C	-1.4583148225	-1.5506681799	-1.108870434	-0.365361
C	-0.1345643543	-1.4508184691	-1.8165823993	 0.265892
C	 0.5357380111	-1.9634474064	-2.8987815021	-0.248478
N	 1.7720448809	-1.3482091287	-2.9268130945	-0.233422
C	 1.8988490928	-0.4581053428	-1.8867180337	-0.254357
C	 0.7200449118	-0.5096568808	-1.1807207426	 0.230739
H	-0.6240112608	 1.5305876539	-1.2044678482	 0.273045
H	 0.6675560993	 0.2214957772	 0.8833029166	 0.081311
H	-0.8718814795	-1.553881767	 0.9887802433	 0.101546
H	-2.0190213939	-0.2597041752	 0.6257531125	 0.101372
H	-1.7959451636	-2.5783718047	-0.942082636	 0.105818
H	-2.2566659075	-1.0495942087	-1.6715903112	 0.105115
H	 0.270330216	-2.6974766622	-3.6426177204	 0.119329
H	 2.4906701287	-1.5433845293	-3.6021703152	 0.259853
H	 2.8051747172	 0.1097451249	-1.7504451213	 0.125111
