21
gdb 53184	3.07552	0.97249	0.88687	0.2636	93.18	-0.2239	0.0579	0.2818	1457.9745	0.181246	-349.913448	-349.903634	-349.90269	-349.949701	35.772	
C	-0.0216641287	 1.4864567673	 0.0012301551	-0.499499
C	-0.0418095385	 0.0305281411	 0.0201447717	 0.072084
C	-0.0488468216	-1.1753558375	 0.0315236137	 0.087771
C	-0.063195333	-2.6118855438	 0.0376843686	-0.26431
C	-0.44121224	-3.4513206567	 1.2498423865	-0.107332
C	-1.5304040259	-2.7493392052	 2.0645843986	-0.228794
C	-2.4410263163	-2.7399424216	 0.7928817698	-0.284965
C	-1.3295207592	-3.4556105703	 0.0073686562	 0.343258
C	-1.5595171692	-4.5092620061	-1.0371985657	-0.497609
H	 1.0048732563	 1.8698277086	-0.0173432708	 0.14609
H	-0.5389208273	 1.8858642393	-0.8786889236	 0.144349
H	-0.5112159576	 1.9032090261	 0.8886220214	 0.145756
H	 0.7389233748	-3.0678883639	-0.5396254453	 0.100392
H	 0.2381104703	-4.2146939898	 1.6135266696	 0.081559
H	-1.9350665409	-3.3774924705	 2.8609291303	 0.098705
H	-1.2599158697	-1.7748595522	 2.4805715277	 0.106305
H	-3.3296766442	-3.3645153948	 0.9141003631	 0.096411
H	-2.7421251683	-1.7610948786	 0.4093741915	 0.1039
H	-1.9961535957	-4.0779400411	-1.9463157811	 0.123114
H	-0.6234568591	-5.0012578691	-1.321870781	 0.117026
H	-2.2471509663	-5.2825234214	-0.6748392264	 0.115789
