18
gdb 13970	5.52733	1.07638	0.99994	0.2701	83.91	-0.2168	0.0474	0.2642	1238.9471	0.15338	-310.622684	-310.614349	-310.613405	-310.657172	30.184	
C	-0.0179705013	 1.4893880218	-0.013785817	-0.507156
C	-0.0186670707	 0.034000955	-0.0086797281	 0.218508
C	-0.0215867331	-1.1724616875	-0.0090588028	-0.190594
C	-0.0024843193	-2.5955063803	 0.0190870742	 0.240472
C	-0.3782387817	-3.4493127234	-1.1739505627	-0.315888
C	-1.1720374906	-3.6121060856	 0.0845754862	-0.098073
C	-0.3982304192	-4.465059431	 1.0930540757	-0.221367
C	 0.7931171084	-3.456135247	 1.0223868558	-0.292852
H	 0.7894130498	 1.8857921404	 0.6124281809	 0.146747
H	 0.124292563	 1.8885828229	-1.0246037186	 0.144974
H	-0.9608321103	 1.8940024706	 0.3721718407	 0.144632
H	-0.8723598674	-2.9121704878	-1.9759962767	 0.120628
H	 0.2971710714	-4.2362355916	-1.5052391375	 0.104455
H	-2.2330722725	-3.396919488	 0.119293765	 0.094425
H	-0.8597789871	-4.4856469136	 2.0823067981	 0.105503
H	-0.1929448237	-5.495086443	 0.7829358098	 0.096971
H	 1.7512921945	-3.8383398889	 0.6561321523	 0.095608
H	 0.9584612397	-2.9418527729	 1.9704447849	 0.113008
