15
gdb 24702	3.83001	1.61437	1.15301	3.063	73.54	-0.2354	-0.0381	0.1974	994.4139	0.116622	-416.867871	-416.861353	-416.860409	-416.899376	24.8	
C	 0.0488935302	 1.3795714183	-0.1937067633	-0.101742
C	 1.4811470608	 1.8514196606	 0.1644853437	-0.353384
C	 2.1050621116	 0.5698582061	 0.6622345136	 0.255782
N	 3.3574246058	 0.3519064194	 1.0223477736	-0.324503
C	 3.6027810998	-0.900333514	 1.4473126588	 0.043745
N	 2.7325565483	-1.9016943135	 1.5406693495	-0.241922
C	 1.464325079	-1.6654165385	 1.1730914746	-0.096019
C	 1.1121630296	-0.4073668805	 0.7150965512	 0.319542
O	-0.1034560492	 0.0177771337	 0.3069810229	-0.28073
H	-0.7354123293	 1.9833979496	 0.2664397587	 0.130416
H	-0.1173008232	 1.3515116729	-1.2748868206	 0.127336
H	 2.0137178541	 2.2643547044	-0.6958024986	 0.140607
H	 1.4845061504	 2.6156070525	 0.9485969503	 0.140182
H	 4.6246122692	-1.1140102943	 1.7471632742	 0.11618
H	 0.750189033	-2.4803740266	 1.2488468014	 0.124509
