16
gdb 131832	4.73616	0.83804	0.75527	2.0269	68.05	-0.2315	-0.0006	0.2309	1453.3794	0.125153	-471.198579	-471.189889	-471.188944	-471.233311	30.618	
O	-0.072843192	 1.352662548	 0.1047994208	-0.414595
C	 0.0333265377	-0.058520144	 0.0683312114	-0.077067
C	-1.3986537678	-0.5924117532	 0.0125067836	-0.131177
N	-1.4378285862	-2.0396214481	-0.0136671986	 0.134046
N	-1.5779927284	-2.7278611413	-1.1353507612	-0.217675
C	-1.4868901046	-4.0038763022	-0.7536527208	-0.133882
C	-1.2796984521	-4.0213351382	 0.6345321696	 0.368703
O	-1.1392277824	-5.1008334099	 1.4246150382	-0.423388
N	-1.2453317873	-2.774173474	 1.0919919841	-0.34236
H	 0.813214035	 1.7230937059	 0.1441467791	 0.294238
H	 0.5844347623	-0.4098290301	-0.8169395757	 0.105432
H	 0.5332292773	-0.4597402307	 0.9618861911	 0.109178
H	-1.9553641114	-0.2444073192	 0.8855678647	 0.141101
H	-1.8958103934	-0.2411763786	-0.8924369389	 0.148731
H	-1.5780724069	-4.8176976815	-1.4529064197	 0.129917
H	-1.0259234998	-4.7863214629	 2.3299566624	 0.308797
