15
gdb 123654	4.12638	1.60567	1.26198	5.1878	70.68	-0.2028	0.012	0.2149	942.3312	0.116742	-412.95215	-412.945898	-412.944953	-412.982556	25.632	
C	 0.0151830699	 1.4885461388	 0.0909274385	-0.300031
C	 1.31446067	 0.7228043372	-0.0020671744	-0.00842
N	 2.0653823514	 0.3587488402	 1.2127629904	-0.41341
C	 1.1679938929	-0.4037563533	 1.9539480288	 0.385455
C	 0.0085103666	-0.7300592166	 1.2987632647	 0.298485
N	-0.7187928248	-1.5717921175	 2.0674271322	-0.292265
N	-0.0752757807	-1.7800540222	 3.1837827726	-0.144604
N	 1.1036592668	-1.0551371553	 3.1240997048	-0.334034
C	-0.0246586216	-0.0271217756	-0.0084146526	-0.172572
H	-0.2693824037	 1.9410253792	 1.0349052113	 0.12023
H	-0.2660081512	 2.0550693079	-0.7903551215	 0.120799
H	 1.9256142576	 0.820233285	-0.8914386904	 0.107725
H	 2.5158706283	 1.1349527642	 1.6823184937	 0.246248
H	 1.7407111135	-1.0969851238	 3.9015767464	 0.275799
H	-0.405821295	-0.5015348385	-0.9040838945	 0.110596
