17
gdb 3984	6.13298	0.79579	0.7401	2.2509	69.61	-0.2463	-0.0258	0.2205	1466.419	0.138576	-400.973076	-400.963491	-400.962547	-401.008934	32.368	
C	 0.1359535171	 1.5475348283	-0.0184683069	-0.47226
C	-0.0269909318	 0.0510925257	-0.0260941939	 0.360919
C	-0.0036159661	-0.7180607623	 1.2691410931	-0.286147
C	 1.3861234636	-0.6965212676	 1.9472049914	-0.271917
C	 1.3978845634	-1.5390797542	 3.2029452414	 0.158381
O	 1.6892594176	-1.1386749903	 4.2997995157	-0.233224
N	-0.1846892514	-0.646640664	-1.0859660347	-0.161972
O	-0.1715707372	 0.1534923721	-2.2394994797	-0.398374
H	 1.0987220334	 1.8352358311	-0.4552479171	 0.148845
H	-0.6361551016	 2.0129674289	-0.637498545	 0.152619
H	 0.0796797181	 1.9508792207	 0.9946511361	 0.122373
H	-0.742427675	-0.2893590604	 1.9587963116	 0.119973
H	-0.2999892943	-1.7506700391	 1.0627275256	 0.123565
H	 2.1210571759	-1.1212483421	 1.2495888314	 0.130035
H	 1.7006801923	 0.3180221622	 2.2062183944	 0.125015
H	 1.098734163	-2.6018324502	 3.0417945197	 0.074877
H	-0.330003547	-0.4927432191	-2.9355832132	 0.307291
