16
gdb 16648	2.97667	2.31079	1.59595	2.0107	64.49	-0.2426	-0.0232	0.2194	829.6906	0.130154	-383.748231	-383.740998	-383.740054	-383.779907	27.224	
C	 0.4306550641	 1.496289118	-0.1231360477	-0.397324
C	 0.0220778635	 0.0371318049	 0.0386553985	 0.020922
O	 0.3921733742	-0.7529017233	-1.0939365667	-0.277499
C	 1.1308677212	-1.881866581	-0.6909736685	 0.106197
C	 2.5078628467	-1.6243210004	-0.1845335053	-0.318321
C	 1.3522509019	-1.8626614797	 0.7998560521	-0.186034
C	 0.6361111429	-0.6426376663	 1.2765386951	 0.377858
O	 0.484444493	-0.2679473853	 2.4118579956	-0.328062
H	 1.512343239	 1.5918046885	-0.2546234476	 0.122527
H	-0.0621038251	 1.9367559833	-0.9934949111	 0.129802
H	 0.1366253655	 2.0526962579	 0.7711614259	 0.141235
H	-1.07048478	-0.0219554697	 0.1581562217	 0.114064
H	 0.8822389721	-2.7796839185	-1.2453647628	 0.112053
H	 3.2376299248	-2.424889947	-0.2355812605	 0.130333
H	 2.9161281772	-0.6250766974	-0.2858184729	 0.133533
H	 1.3764375791	-2.7346494441	 1.4400367141	 0.118715
