17
gdb 79416	3.14629	1.51343	1.23267	3.7261	76.13	-0.2384	0.0033	0.2417	1035.3144	0.136262	-417.873994	-417.866328	-417.865383	-417.906236	29.195	
C	 0.031403086	 1.5240441172	 0.3193749301	-0.343467
N	-0.0503519372	 0.1623443626	-0.1529409489	-0.10431
C	-1.1394867486	-0.8234564036	-0.1843157037	-0.013322
C	-1.8385795749	-1.6423358974	-1.362007547	-0.077955
C	-0.5884367958	-1.4729094138	-2.2128594943	-0.199924
C	-0.1275622492	-1.7963765195	-0.7518127545	 0.100692
N	-1.1811727017	-2.9335039588	-0.794075249	-0.397181
C	 0.980063968	-0.7998631806	-0.2132629193	 0.338314
O	 2.1549198752	-0.7230847877	-0.0235417792	-0.343462
H	 1.0893388704	 1.7728595906	 0.4379991374	 0.159111
H	-0.4189792719	 2.2227465789	-0.3935298473	 0.132839
H	-0.4675325573	 1.6429914187	 1.2899075737	 0.127333
H	-1.5472854605	-1.0338173354	 0.8105583248	 0.084061
H	-2.8894457014	-1.6669803178	-1.6606953984	 0.089781
H	-0.4065785252	-2.2678829377	-2.9339506508	 0.119782
H	-0.3556154599	-0.4770518184	-2.5847614625	 0.110873
H	-1.5192101859	-3.0901727772	 0.1620108289	 0.216835
