14
gdb 128458	4.71514	1.16867	0.94212	1.9757	66.86	-0.2854	-0.0479	0.2375	1177.2854	0.101945	-470.030032	-470.022189	-470.021245	-470.06341	26.926	
C	-0.0434867547	 1.3079127256	 0.0591823219	-0.238214
O	 0.0267978807	-0.1235977376	-0.0384435087	-0.223477
C	 0.6460646574	-0.5681634969	-1.1266442736	 0.590091
O	 1.134169101	 0.0828177984	-2.003050845	-0.353094
N	 0.6584742875	-1.9944570422	-1.1231357728	-0.025792
N	 0.1162306536	-2.7473915087	-0.1519701822	-0.195053
C	 0.3570642715	-3.9830077092	-0.5555504428	-0.052564
C	 1.0528078845	-3.9356033085	-1.7855704541	-0.045098
N	 1.2336254323	-2.6718537684	-2.1272417782	-0.184086
H	 0.9602593315	 1.7381957777	 0.0836868862	 0.15064
H	-0.5896634784	 1.7217856243	-0.7914970872	 0.150636
H	-0.5715060096	 1.5075126012	 0.9905223591	 0.146823
H	 0.0345256945	-4.8302614649	 0.0291641287	 0.139279
H	 1.4148968383	-4.7362956308	-2.4110589711	 0.139909
