18
gdb 86014	2.87162	1.14812	1.08776	4.166	77.56	-0.2697	-0.015	0.2547	1197.3901	0.147439	-401.973498	-401.964666	-401.963722	-402.007102	33.289	
C	 0.0141265638	 1.5047905506	-0.0342857624	-0.428965
C	 0.0101457512	-0.0374180502	-0.0062305099	 0.080406
C	 0.7763451867	-0.6800862793	-1.2067001581	-0.286434
C	 1.5607321968	-1.8878276653	-0.6308064638	 0.104348
O	 2.8400603048	-2.0747167262	-1.213059505	-0.427341
C	 1.5823177419	-1.5994908463	 0.8529775731	-0.12473
C	 0.7578485401	-0.6144165191	 1.1941259421	-0.088748
C	-1.3862727931	-0.507446768	 0.02505265	 0.26104
N	-2.4841705092	-0.8692936564	 0.0558263408	-0.343877
H	 1.0460359736	 1.8668099571	-0.0167433313	 0.123226
H	-0.473603952	 1.8788896483	-0.9387269837	 0.138759
H	-0.5136156703	 1.9151945439	 0.8311385066	 0.136749
H	 0.1182976899	-0.9472665027	-2.0348014206	 0.128771
H	 1.5020466726	 0.0494657424	-1.5819644267	 0.104
H	 1.0359312957	-2.8301498527	-0.8289454056	 0.114683
H	 3.3797308632	-1.3082010171	-0.9881038828	 0.276592
H	 2.1998711345	-2.1745668619	 1.5338310153	 0.11468
H	 0.5685733998	-0.248741417	 2.1969665621	 0.11684
