18
gdb 64137	3.18246	1.19815	1.11589	3.1087	72.	-0.2802	0.0073	0.2875	1160.0252	0.146163	-439.10821	-439.099164	-439.09822	-439.142515	33.164	
C	-0.2298818515	 1.6185210224	 0.3360750315	-0.420675
C	 0.0923412465	 0.1743319306	-0.0046014824	 0.438931
C	-1.1504727454	-0.6642322992	-0.3112245262	-0.419294
O	 1.014464486	 0.1599659273	-1.0847655052	-0.266339
C	 1.7950000948	-1.0060216652	-0.9545790762	-0.141208
C	 1.8332694925	-1.2379243442	 0.5881806137	-0.045751
O	 0.8156050476	-0.3995097669	 1.1000356826	-0.281067
C	 1.6108708555	-2.6484706215	 0.9471437155	 0.272374
N	 1.4508144402	-3.7610068675	 1.2148514845	-0.319925
H	 0.694937569	 2.1620136877	 0.537958077	 0.130753
H	-0.7492686951	 2.0936122656	-0.4997219006	 0.131323
H	-0.8714608965	 1.6609833386	 1.2191857377	 0.13339
H	-1.6877112181	-0.2413729281	-1.1643195194	 0.128435
H	-0.8843399935	-1.6984458297	-0.5447693802	 0.129959
H	-1.8153403558	-0.6763489372	 0.5558898631	 0.13466
H	 1.3499410517	-1.8664156786	-1.4694741747	 0.125078
H	 2.7853634062	-0.8152658039	-1.3722700817	 0.133728
H	 2.7923229059	-0.9256480802	 1.0169442309	 0.135629
