20
gdb 96534	2.3502	1.49505	1.00729	2.6429	74.87	-0.2245	-0.0269	0.1976	1195.1108	0.172464	-440.304751	-440.296234	-440.29529	-440.337954	33.172	
O	 0.1542629332	 1.4294455379	 0.1186111415	-0.440465
C	 0.0706071179	 0.031816757	 0.0538722047	 0.054341
C	-1.3975460784	-0.4233057368	 0.2248356008	-0.217798
C	-1.5850099611	-1.8739979108	 0.6769273658	-0.207543
C	-1.0775585754	-2.9412392992	-0.3059099929	-0.154568
N	 0.3507031415	-2.9185910581	-0.607369939	-0.275941
C	 0.8132265663	-1.9407708588	-1.5673457679	-0.270835
C	 0.6680755577	-0.4446166118	-1.2705126422	 0.341801
O	 1.0277413273	 0.3812083776	-2.0843298353	-0.33239
H	 0.5307673328	 1.7004015293	-0.7358258011	 0.291522
H	 0.6660177051	-0.4186052134	 0.8684418995	 0.076591
H	-1.8234752845	 0.2502603894	 0.9746078096	 0.122794
H	-1.9457245078	-0.2330298596	-0.7070887402	 0.101979
H	-1.0788146274	-2.0188419518	 1.6423639802	 0.09507
H	-2.6510159078	-2.0526817751	 0.8654309335	 0.101394
H	-1.3242369213	-3.9321596479	 0.0949954054	 0.105017
H	-1.6131228894	-2.8537680568	-1.2605783659	 0.105199
H	 0.9092229428	-2.9150902397	 0.2377237678	 0.21978
H	 1.8793124088	-2.1057151102	-1.7677196372	 0.140478
H	 0.3094529298	-2.1122751811	-2.5279880872	 0.143575
