20
gdb 103696	2.26946	1.35801	0.9865	2.3811	82.86	-0.2343	0.0369	0.2712	1261.2097	0.167257	-403.089764	-403.079134	-403.07819	-403.124922	39.024	
C	-0.0760262858	 1.5886591365	 0.0133463539	-0.459451
C	-0.0850912197	 0.0728079771	 0.0652190928	 0.306822
C	-1.3396000013	-0.538000126	-0.526074878	-0.172166
O	-1.35863865	-0.2162229275	-1.9132902203	-0.419664
N	 1.2003791809	-0.5844889419	-0.2137814086	-0.393067
C	 0.6358131219	-0.682274016	 1.1584208469	 0.079285
C	 1.4216700456	 0.0334759043	 2.2461969726	-0.45822
C	 0.1127277965	-1.9583675924	 1.588455593	 0.291843
C	-0.2720058134	-3.0226181584	 1.9992540579	-0.457874
H	 0.9059093162	 1.9959771227	 0.2528639233	 0.127774
H	-0.3386028355	 1.9088580523	-0.9985861998	 0.143696
H	-0.8134813361	 2.0085270726	 0.7065468258	 0.112401
H	-1.3426977845	-1.6240563581	-0.3699417158	 0.099241
H	-2.2214389654	-0.1242071591	-0.0111108484	 0.091221
H	-2.1903735703	-0.5295587729	-2.2799601624	 0.29002
H	 1.0484158602	-1.4558361613	-0.7177417515	 0.236887
H	 1.8758801516	 0.9475483064	 1.8640805325	 0.130823
H	 0.7732141175	 0.2826009407	 3.0917931677	 0.123895
H	 2.2216153213	-0.6166357341	 2.6124353248	 0.131501
H	-0.6205178796	-3.9628474448	 2.3488004135	 0.195035
