22
gdb 9281	5.28092	0.73496	0.68266	2.8927	80.25	-0.247	-0.0177	0.2293	1681.561	0.197503	-350.227528	-350.217169	-350.216225	-350.264017	36.013	
C	-0.0878149872	 1.5558949579	 0.1423349156	-0.392533
C	 0.0138341386	 0.0334496951	 0.0024398557	-0.169165
C	 0.7722388343	-0.454791519	-1.2478864941	 0.047173
C	 2.2466657096	-0.0275391412	-1.226977187	-0.393166
C	 0.616887587	-1.9825540584	-1.3845447548	-0.193448
C	 1.1322598207	-2.566890594	-2.7128758557	-0.284941
C	 0.958602792	-4.0666053172	-2.7595993745	 0.161634
O	 0.3388599291	-4.6693514733	-3.5976708886	-0.239259
H	 0.8914883322	 2.0241340916	 0.2784855308	 0.119014
H	-0.5508245165	 2.0037777849	-0.7442987319	 0.114664
H	-0.7012070296	 1.825904929	 1.0075787959	 0.114394
H	 0.4937343876	-0.3865121262	 0.8975474683	 0.092847
H	-0.9999986811	-0.3859154372	-0.021253909	 0.093901
H	 0.2953615896	 0.0068777817	-2.1256741931	 0.072908
H	 2.7751168729	-0.334256904	-2.1343870276	 0.114819
H	 2.3484143064	 1.0583035134	-1.1511443161	 0.119409
H	 2.7678154184	-0.471949194	-0.3698865147	 0.111796
H	 1.1316819499	-2.4732424429	-0.5462183742	 0.098017
H	-0.4451773379	-2.2384240339	-1.2828739559	 0.106313
H	 0.6148640178	-2.1283055065	-3.5715809758	 0.119441
H	 2.2065274589	-2.3629892985	-2.8185608207	 0.118769
H	 1.4593996972	-4.6082271873	-1.9212875925	 0.067413
