15
gdb 104559	2.4883	1.33485	1.0563	3.1999	67.96	-0.291	-0.0115	0.2795	1139.8075	0.111695	-453.944775	-453.936282	-453.935337	-453.97832	30.874	
O	 0.08324822	 1.4845887077	-0.072452264	-0.401462
C	 0.1161516821	 0.1058313704	-0.3314848909	-0.099431
C	-1.2409310702	-0.5480474058	-0.0661816087	 0.2034
C	-1.2513730534	-2.0896665411	 0.1172932957	-0.416615
C	-1.5653059033	-1.7616209942	 1.5607266012	 0.449417
N	-1.7475241165	-2.4303394002	 2.598121799	-0.52447
O	-1.5857801364	-0.3840782098	 1.3562917622	-0.282818
C	-2.298518207	-0.003816217	-0.9178067266	 0.282455
N	-3.1274953873	 0.3935993937	-1.6168512817	-0.31932
H	-0.1731397171	 1.6004656282	 0.8504034102	 0.301601
H	 0.386703453	-0.0216672636	-1.3843321943	 0.139236
H	 0.8625085426	-0.4206335711	 0.2834083251	 0.106657
H	-2.0420321879	-2.619845152	-0.4130451138	 0.167262
H	-0.2922573561	-2.5813044347	-0.053509644	 0.152843
H	-1.9475585326	-1.8427081704	 3.4084411507	 0.241247
