19
gdb 55093	3.94212	1.12008	0.96409	3.6752	77.17	-0.2273	0.0537	0.2809	1254.6728	0.159561	-419.213526	-419.204704	-419.20376	-419.246952	33.586	
C	-0.2800177909	 1.4888984151	 0.0275530245	-0.496059
C	 0.0819058354	 0.0339491697	-0.0028809689	 0.316389
C	-0.6043907098	-1.0364482078	 0.8170131882	-0.328654
C	 0.8735386264	-0.8207038866	 0.9824298555	-0.039954
N	 1.6114560318	-1.42841973	-0.1156633696	-0.107544
C	 0.8766949647	-0.6396200512	-1.1357607461	-0.252587
C	 1.9271002021	-2.7745576673	-0.145088234	 0.40576
N	 2.2002183263	-3.2614507309	-1.4173076887	-0.554585
O	 1.9631798771	-3.4651807672	 0.8549688286	-0.388939
H	 0.5730071708	 2.1198239923	-0.2469460228	 0.120503
H	-1.0971539827	 1.7106383549	-0.6695009189	 0.123658
H	-0.61111109	 1.7907853529	 1.0261580688	 0.124964
H	-1.2184993187	-0.6580695826	 1.6288371238	 0.115505
H	-0.9703144429	-1.953142357	 0.3619771785	 0.118403
H	 1.3600819902	-0.5711105183	 1.9166609628	 0.108367
H	 0.3053821201	-1.2387307016	-1.8544226773	 0.116868
H	 1.5335980015	 0.051743365	-1.6771735529	 0.106712
H	 2.5689642571	-2.6132065716	-2.0968153172	 0.252077
H	 2.6700212416	-4.1541002878	-1.3988416044	 0.259116
