16
gdb 51847	3.19978	1.09382	0.87849	4.1395	66.09	-0.2501	-0.0401	0.21	1269.3692	0.124106	-475.074589	-475.065961	-475.065016	-475.10972	29.224	
O	 0.212150131	-0.120283897	 0.2481463267	-0.224897
C	 0.1441038006	 1.0181608518	-0.1289829959	 0.149435
C	 1.2986102283	 2.0129478838	-0.0551695037	-0.256142
N	 1.3242478983	 2.9339531619	-1.1616005123	-0.142477
C	 1.6088891856	 2.5671874358	-2.5336640144	-0.199235
C	 1.5691858445	 3.9548209889	-3.2095071722	-0.090374
O	 0.9001690474	 4.8145438407	-2.2779537986	-0.243125
C	 0.8415256175	 4.2186828376	-1.0524430836	 0.49568
O	 0.4286321882	 4.7593977462	-0.0624550418	-0.400061
H	-0.7927672073	 1.4462363124	-0.555219083	 0.090785
H	 1.1544733712	 2.6172108769	 0.849774645	 0.174341
H	 2.2406138487	 1.4619392846	 0.0377525251	 0.131724
H	 2.5883385285	 2.0871317216	-2.6326605778	 0.127963
H	 0.8539167928	 1.8821577621	-2.9438199864	 0.121946
H	 2.5754378896	 4.3473068918	-3.3888364468	 0.129591
H	 1.0126860552	 3.9589804809	-4.1481463101	 0.134845
