20
gdb 82975	2.38366	2.06057	1.67776	1.1743	76.8	-0.2107	0.078	0.2887	926.5521	0.173725	-403.107108	-403.099974	-403.099029	-403.13839	29.262	
C	-0.3366529738	 1.5682501164	 0.1058615252	-0.42719
C	-0.0261987399	 0.0859375023	 0.0014788357	 0.062065
C	 0.5744210592	-0.5036134361	-1.3179421032	-0.088881
C	 1.3340154576	 0.4465891674	-2.2368330428	-0.093477
O	 2.4986952519	 0.8663133517	-1.5232847544	-0.27455
C	 2.8075262552	-0.0615766095	-0.4877564109	 0.096562
C	 2.3224133947	 0.3978628078	 0.9076508706	-0.195033
N	 1.1066726288	-0.4785151507	 0.8368511353	-0.165131
C	 1.673352852	-1.1125114323	-0.4242788559	-0.018587
H	 0.4791124353	 2.1940816828	-0.2651629959	 0.137406
H	-1.2352731212	 1.8049287678	-0.4738967241	 0.116835
H	-0.5324051036	 1.8415617077	 1.1485534903	 0.125963
H	-0.922550763	-0.4792213743	 0.2791697734	 0.084529
H	-0.0811609892	-1.1823326862	-1.866288057	 0.073899
H	 1.621159606	-0.0694381832	-3.1660484239	 0.094302
H	 0.7639378203	 1.3412551178	-2.5094834268	 0.107934
H	 3.846898025	-0.3892450794	-0.5853137528	 0.07599
H	 2.9668229781	 0.0441645063	 1.7190153764	 0.105511
H	 2.1509630663	 1.4696031753	 1.0311179207	 0.109739
H	 1.8977712602	-2.1796128916	-0.4258957297	 0.072113
