16
gdb 102958	3.42231	0.83313	0.70072	4.7639	66.62	-0.2918	-0.008	0.2838	1524.3702	0.122188	-475.044516	-475.034724	-475.03378	-475.080772	32.81	
O	-0.0777329056	 1.4528587777	 0.1262273358	-0.409578
C	 0.0284656081	 0.0566013513	 0.0135989457	-0.072445
C	-1.3513238288	-0.6300252509	-0.1590797727	-0.162775
C	-1.211029879	-2.150699896	-0.342830848	-0.101539
O	-2.4528415139	-2.7294915202	-0.7233689381	-0.181489
C	-3.1089458009	-3.4987270273	 0.1814823663	 0.179227
O	-4.1521428779	-4.0164055872	-0.0632866518	-0.258261
C	-2.1976311522	-0.3171965547	 0.9944283362	 0.262526
N	-2.8172453275	-0.0572647162	 1.9352472462	-0.316776
H	-0.5073575353	 1.6608928059	 0.9640388716	 0.303007
H	 0.6230129862	-0.1387247129	-0.8841534855	 0.129361
H	 0.5538590032	-0.3915221757	 0.8704061551	 0.111136
H	-1.8294456766	-0.2151365236	-1.0531988959	 0.157186
H	-0.5025823441	-2.3505874184	-1.1517667915	 0.13883
H	-0.8299729872	-2.6165768058	 0.5743654512	 0.12917
H	-2.5644047085	-3.5877097958	 1.1406736555	 0.09242
