23
gdb 107664	3.12676	1.21603	1.0214	1.6576	84.98	-0.253	0.0832	0.3361	1288.3069	0.207171	-388.306962	-388.29804	-388.297096	-388.340507	34.812	
C	-0.5103107993	 1.4323823091	 0.1672693801	-0.382349
C	 0.1809034352	 0.0912674912	-0.1114573505	-0.25517
C	 0.9264533767	-0.4656586646	 1.0887282795	 0.405155
C	 2.1371916468	 0.3175224553	 1.5717557537	-0.267677
C	 2.860063671	-0.3630907457	 2.7419657928	-0.20479
C	 3.1896291561	-1.8205211034	 2.4029817137	-0.195634
C	 1.9181233645	-2.6532721538	 2.1682701943	-0.225508
C	 0.84334769	-1.9088200986	 1.3950388344	-0.008388
O	 0.0735147883	-0.9502091143	 2.1411632555	-0.299882
H	 0.209589285	 2.2277892523	 0.3829069886	 0.116567
H	-1.1017158396	 1.7497727306	-0.6966747347	 0.111568
H	-1.1831610389	 1.3423811635	 1.0253561319	 0.133572
H	-0.5714560904	-0.6431501582	-0.4192930036	 0.100548
H	 0.8822601023	 0.1960497967	-0.9495062867	 0.094607
H	 2.8286400129	 0.4330758764	 0.7254271371	 0.096031
H	 1.8248896167	 1.3286379002	 1.8575981341	 0.102975
H	 3.7755917587	 0.1907176587	 2.9751688476	 0.08984
H	 2.2233912878	-0.3241795234	 3.6326648637	 0.112637
H	 3.8088393961	-1.8397313551	 1.495894969	 0.092617
H	 3.7894394567	-2.2776210708	 3.19714918	 0.093388
H	 2.1667344258	-3.5777762757	 1.6349946008	 0.095815
H	 1.4810087172	-2.9569121667	 3.12780803	 0.114118
H	 0.2298360703	-2.5249809136	 0.7352209586	 0.079959
