18
gdb 42897	2.70504	1.57223	1.23411	3.5794	76.63	-0.2331	-0.0184	0.2147	1056.5465	0.148173	-401.903132	-401.895368	-401.894424	-401.935614	29.9	
O	-0.4316249971	 0.0606195527	-0.2285972042	-0.323332
C	-0.2603427648	 1.2312134845	-0.0439977772	 0.394177
C	-1.1522058222	 2.4533602572	-0.0693390036	-0.191306
N	-0.7608684722	 3.2483360528	 1.1502555323	-0.335667
C	 0.0804958113	 3.3199496994	-0.0475169068	-0.148579
C	 1.0179508417	 2.1055040265	 0.0337384628	 0.267606
C	 2.1209224208	 2.0026005106	 1.1129234179	-0.279795
C	 3.1936922226	 2.2038896666	 0.0072052171	-0.211582
C	 2.1059923906	 1.9024002436	-1.0602413169	-0.29574
H	-2.1188657607	 2.5996871738	-0.5344135228	 0.114149
H	-1.377975661	 4.0615505233	 1.1538626175	 0.239183
H	 0.2450294058	 4.243527828	-0.5884217715	 0.108366
H	 2.0681065913	 2.7337076581	 1.92184219	 0.112454
H	 2.1539515537	 0.9993951489	 1.5471840944	 0.118123
H	 3.5465118759	 3.2374801966	-0.0437829683	 0.102581
H	 4.0631762291	 1.5433505766	 0.0269072571	 0.103665
H	 2.1237120302	 0.8621092615	-1.3961434232	 0.124669
H	 2.0525707354	 2.5542696595	-1.9363872744	 0.101028
