17
gdb 36156	4.24754	1.18168	1.14943	1.9795	76.52	-0.2316	0.0454	0.2769	1107.0237	0.134729	-384.585756	-384.578095	-384.577151	-384.618131	30.217	
C	 0.0326766536	-1.2254117546	-0.0298717495	-0.450242
C	-0.004858176	-0.0250722171	-0.0570771039	 0.317205
C	-0.0362602732	 1.4335401397	-0.0772452046	-0.483062
C	 1.3360173055	 2.0490010896	 0.0502979265	 0.440225
C	 2.3033316668	 1.7970129307	 1.2395199965	-0.25939
C	 2.9901384244	 3.0832793702	 0.7825319742	-0.124204
C	 2.8317421162	 3.0736125212	-0.7476366125	 0.104634
O	 2.1928837274	 1.8535822377	-1.1163523247	-0.323073
C	 1.7200133386	 3.5839133271	 0.09814985	-0.214073
H	 0.0639792967	-2.2865667427	-0.0148079309	 0.198158
H	-0.4948253976	 1.7893109641	-1.0077468496	 0.144135
H	-0.6591649705	 1.8043449408	 0.7469217684	 0.135886
H	 1.8033363238	 1.9310277382	 2.202387494	 0.103099
H	 2.8558056902	 0.8536421445	 1.2160813043	 0.109339
H	 3.7471696958	 3.6676325123	 1.2892218966	 0.093087
H	 3.4988942621	 3.5541336759	-1.4503300856	 0.109387
H	 1.1618514963	 4.5086986025	 0.1436251507	 0.098888
