18
gdb 125818	3.10112	0.98399	0.79544	2.8977	73.86	-0.2524	-0.0036	0.2488	1414.8892	0.146821	-439.083161	-439.073896	-439.072952	-439.118249	32.733	
C	-0.0476719195	 1.4976784726	-0.0117409848	-0.502509
C	-0.0166136768	 0.0028194892	 0.0152561824	 0.323729
N	 0.0008804023	-0.672885002	-1.1095001449	-0.200639
O	 0.0443601	-2.0166864628	-0.7476862685	-0.16934
C	 0.0534970864	-2.0986809261	 0.5899077747	-0.002616
C	 0.0156021423	-0.865083373	 1.1576256064	 0.061715
C	-0.0062290522	-0.4953482363	 2.6087769128	-0.316281
C	-1.4203915483	-0.2411110299	 3.1382160744	-0.063139
O	-1.3024717267	 0.1310363018	 4.5002204455	-0.415668
H	 0.8073172718	 1.9172232823	 0.5291076925	 0.13914
H	-0.0156878684	 1.8523816503	-1.0434791087	 0.152481
H	-0.9552922761	 1.8858174763	 0.4622484783	 0.137361
H	 0.0963709331	-3.0964622238	 1.0003758712	 0.147213
H	 0.4476147931	-1.2882860308	 3.2119202852	 0.118367
H	 0.5891592439	 0.4081857142	 2.7822811001	 0.117908
H	-1.9048800173	 0.5503819679	 2.5441172212	 0.091075
H	-2.0245431303	-1.1537767565	 3.0159229573	 0.092202
H	-2.1847685071	 0.2833561766	 4.8507916749	 0.289001
