19
gdb 66382	2.38142	1.46381	1.30255	0.8694	71.14	-0.2494	-0.0361	0.2133	1080.1252	0.158544	-460.176461	-460.167835	-460.166891	-460.209636	32.536	
C	 0.1154161169	 1.5485958277	 0.2269764157	-0.43722
C	 0.007521037	 0.0267240127	 0.0844027939	 0.254213
C	 0.5875858976	-0.473711922	-1.2475549304	-0.235228
C	 0.8240699823	-1.9848560579	-1.1959325244	-0.109009
O	 1.564242546	-2.3311302467	-0.0289695084	-0.226694
C	 0.8800365053	-1.9235613429	 1.1161986234	 0.003727
O	 0.7241685907	-0.5220005897	 1.1946029653	-0.278933
C	-1.4794358784	-0.3229841545	 0.2417493471	 0.124985
O	-2.2477417466	-0.5114063433	-0.6647404757	-0.250164
H	 1.1712525024	 1.8309578519	 0.2452649071	 0.137656
H	-0.37840875	 2.0478629666	-0.6108972316	 0.133856
H	-0.3436548551	 1.8849815823	 1.161616573	 0.129248
H	-0.1015408525	-0.2252956001	-2.0594938226	 0.123584
H	 1.5392035034	 0.0364357719	-1.4265050507	 0.109337
H	-0.1361198918	-2.524414792	-1.1995954085	 0.108933
H	 1.4105204245	-2.3263791142	-2.0518585566	 0.1163
H	-0.1109056236	-2.4166863251	 1.1553543799	 0.080793
H	 1.4772792995	-2.2160824598	 1.9817559227	 0.122998
H	-1.8035618276	-0.3465535047	 1.3075627507	 0.091619
