17
gdb 114723	2.4367	1.63235	1.20876	2.7146	68.87	-0.2425	-0.029	0.2135	1064.1701	0.135327	-458.955218	-458.947085	-458.946141	-458.988207	30.181	
C	 0.4642966334	 1.1006371962	 0.3556058331	-0.243949
O	 0.4307028616	-0.2872325004	 0.0537403889	-0.2336
C	 0.5176784866	-0.5659850807	-1.3121264941	 0.060912
O	 1.7926393271	-0.2804799505	-1.8591987516	-0.265035
C	 2.5514114132	-1.4719859444	-1.9424324156	 0.107641
C	 2.7456302949	-2.2558764892	-0.6953039309	-0.319074
C	 1.6669822006	-2.6751336308	-1.7143205603	-0.204474
C	 0.3161931389	-2.098352928	-1.4827443025	 0.414938
O	-0.7509681843	-2.6511029819	-1.4964050911	-0.31537
H	 1.4154310052	 1.552291375	 0.0514173423	 0.129687
H	-0.3591331537	 1.6311311094	-0.1436335319	 0.1151
H	 0.3453455263	 1.1920380808	 1.4367964625	 0.133523
H	-0.2230978798	 0.0149026902	-1.877981813	 0.101131
H	 3.2993500917	-1.4266496635	-2.7238624046	 0.117712
H	 3.5999055784	-2.9211170129	-0.6378064601	 0.12885
H	 2.4204706012	-1.8207738494	 0.2416702895	 0.152952
H	 1.7552769288	-3.6170097898	-2.2381200505	 0.119056
