20
gdb 76305	2.22105	1.44703	1.00162	5.0781	80.79	-0.2361	0.0205	0.2566	1237.5053	0.170316	-399.315278	-399.305412	-399.304468	-399.34986	36.069	
C	 0.0692914092	 1.5651728012	 0.0682883489	-0.411743
C	 0.0300822036	 0.0572089321	-0.0844580705	 0.052046
C	 0.7226495615	-0.6331270731	-1.3157989919	-0.019388
N	 1.8065444684	 0.0275696496	-2.0024034888	-0.499989
C	 1.2050524274	-1.6872464415	-0.2662271221	-0.137128
C	 2.5799638397	-2.1812380744	-0.3307111179	 0.309742
N	 3.6670741417	-2.5717166446	-0.3630578861	-0.332271
N	 0.9364378468	-0.7080728283	 0.7989853141	-0.07843
C	 0.4580285459	-1.1945108413	 2.0753587737	-0.338941
H	 1.0785476731	 1.9517220967	-0.0975407165	 0.115589
H	-0.6109079693	 2.0450429998	-0.6439248311	 0.116894
H	-0.2439285115	 1.8611344737	 1.0749111512	 0.1254
H	-1.0114754518	-0.3034525548	-0.0036392904	 0.057164
H	 0.0295518794	-1.0304634153	-2.0593095981	 0.093469
H	 1.4618065217	 0.7897882091	-2.5762190203	 0.235224
H	 2.4790088344	 0.4136760638	-1.3470044482	 0.245952
H	 0.5241858097	-2.555077654	-0.244592632	 0.102499
H	 1.2375713738	-1.7901029369	 2.5607620869	 0.138495
H	 0.2284707487	-0.3477871054	 2.7292956468	 0.128846
H	-0.4507868324	-1.8184834661	 1.9847652425	 0.096568
