18
gdb 39843	2.8968	1.75848	1.39345	2.3973	74.68	-0.2421	0.06	0.302	965.1419	0.14968	-401.889715	-401.882838	-401.881894	-401.920782	28.463	
C	-0.068905677	 1.4500388763	 0.0280186671	-0.291651
C	 1.3084397352	 0.8322025786	 0.0233353754	-0.070198
C	 1.9447472555	 0.5992290734	 1.3808785879	 0.027417
O	 1.1290467386	 0.9809184632	 2.4980012567	-0.257275
C	 1.1669935041	-0.4072982834	 2.1177773852	-0.077315
C	 0.0147817444	-0.8488563141	 1.2504262352	 0.366859
C	-0.4228550879	-2.268309386	 1.297415587	-0.302913
N	-1.2921596425	-1.207674917	 1.8280649099	-0.355092
C	 0.0721037581	-0.0493230031	-0.0349159345	-0.121025
H	-0.4123266691	 1.9026366939	 0.9492499839	 0.140378
H	-0.3901407156	 1.9456544116	-0.8815769583	 0.108663
H	 1.9645466225	 0.9634104538	-0.828450095	 0.086521
H	 3.0132026212	 0.7416054775	 1.5151451082	 0.098083
H	 1.5764407814	-1.0796246344	 2.8697436432	 0.094357
H	-0.7861799362	-2.7453013328	 0.3907798936	 0.11965
H	 0.078619549	-2.9410752887	 1.9898667474	 0.110926
H	-1.2430348397	-1.184115075	 2.8442286789	 0.235399
H	-0.2176704821	-0.5517060736	-0.9508692316	 0.087215
