16
gdb 105999	2.78765	1.60343	1.23416	3.0044	67.58	-0.2138	0.0556	0.2694	1010.9861	0.123017	-437.744187	-437.736389	-437.735445	-437.776692	29.977	
O	 0.0625130983	 1.3121225041	 0.3090402457	-0.413388
C	 0.0086477072	-0.04867164	-0.0892478322	-0.209667
C	-1.3708546606	-0.5998774665	-0.0004994565	 0.323574
C	-2.2935236959	-0.9727685256	 1.1542622222	-0.264905
C	-3.4608164931	-0.4143187777	 0.3101089985	-0.038758
C	-3.1911170163	-1.3732294137	-0.794587499	-0.15009
N	-2.535827442	-0.0141060338	-0.8077730514	-0.218893
C	-1.9877145329	-1.9650940874	 0.0127653986	 0.301058
O	-1.3598881506	-3.1762231154	 0.0232600904	-0.447118
H	-0.589043509	 1.7816583901	-0.2245751575	 0.293942
H	 0.3844145318	-0.1775600314	-1.1171547263	 0.101829
H	 0.6756276887	-0.6052013826	 0.5772128407	 0.121667
H	-2.090990907	-1.0474537539	 2.2131172572	 0.103319
H	-4.3492174832	 0.1548543083	 0.5584458029	 0.099355
H	-3.8027236652	-1.7262743518	-1.6172820938	 0.102558
H	-1.8809338803	-3.7947764629	 0.5490934604	 0.295515
