18
gdb 111618	2.92368	1.40429	1.34579	1.8628	70.69	-0.2247	0.0536	0.2783	1032.295	0.148638	-439.022492	-439.014771	-439.013827	-439.055042	29.869	
O	 0.2721417542	 1.1508704267	-0.0084323998	-0.416056
C	 0.2296707786	-0.1318988123	-0.6251503343	-0.113731
C	-1.1361151694	-0.7669116367	-0.4587161401	-0.026105
C	-1.4703773145	-2.2140002033	-0.2695392316	-0.091379
C	-0.4709119174	-3.2343965785	 0.2162190879	 0.027396
O	 0.8584165723	-2.7697523556	 0.4862214954	-0.242477
C	-0.0642540207	-2.8543996852	 1.5795480525	 0.034246
C	-0.7751180942	-1.5500909224	 1.9247571315	-0.210477
N	-1.7074434441	-1.2281961575	 0.8152164204	-0.11797
H	-0.446092357	 1.6816147091	-0.3692103887	 0.2818
H	 0.4486338519	-0.0660070703	-1.7029734816	 0.087895
H	 1.0170215263	-0.7189846938	-0.163328884	 0.14758
H	-1.8921497201	-0.2074182869	-1.0182777898	 0.084039
H	-2.3520180267	-2.6247006468	-0.7575791372	 0.090665
H	-0.5448680505	-4.2611878172	-0.1300621079	 0.104996
H	 0.2039869835	-3.5661154061	 2.3571815278	 0.103654
H	-1.3741101846	-1.6941677096	 2.8306924332	 0.113987
H	-0.0808871476	-0.7243294837	 2.1075158661	 0.141937
