15
gdb 48132	3.21147	1.26434	1.03088	1.8339	67.98	-0.2349	-0.0994	0.1355	1133.9681	0.110698	-457.771012	-457.762726	-457.761782	-457.805064	28.898	
O	-0.8377168963	 1.32221538	-0.1624340554	-0.219744
C	 0.2881100976	 0.9395849603	-0.3516660731	 0.077601
C	 1.5141889668	 1.8589984727	-0.2773568364	 0.276471
O	 2.593984278	 1.412584199	-0.5707858412	-0.264617
C	 1.2567637777	 3.3102070755	 0.1514224591	-0.022579
O	 2.4704921502	 3.9801957364	 0.4150964149	-0.254386
C	 2.7049682026	 4.9829854984	-0.5756659587	-0.117694
C	 1.4398415575	 5.029483401	-1.385217934	-0.082088
C	 0.5996963116	 4.0895422572	-0.9687941406	-0.113589
H	 0.5451239265	-0.1092818234	-0.6105874197	 0.115395
H	 0.6342910569	 3.2856627053	 1.0589022165	 0.118404
H	 2.9258384825	 5.9355846505	-0.0738051306	 0.115768
H	 3.5819731532	 4.7196375121	-1.1863957675	 0.120804
H	 1.2716151698	 5.7413862762	-2.1830177008	 0.117221
H	-0.3886624947	 3.8585563589	-1.3394578325	 0.133033
