18
gdb 37662	3.6727	2.07314	2.0536	1.8702	75.46	-0.2225	0.0889	0.3114	780.0345	0.153008	-364.766899	-364.761776	-364.760831	-364.795985	23.75	
C	-0.0656997812	 1.5602200457	-0.0389847872	-0.245125
C	 1.4815435397	 1.4438528031	 0.0142113257	-0.04633
C	 1.303080254	 0.1227852576	 0.8461664426	-0.039728
C	 2.2757400328	-0.9179426917	 0.3044466145	-0.069265
C	 2.8192563309	-0.4241099078	-0.9847884938	-0.05262
C	 1.8475980312	 0.7281884865	-1.3009684693	-0.072477
C	 0.724391293	-0.3727518986	-1.2873176026	 0.008867
C	-0.0135811695	 0.0098444565	-0.000278253	-0.03916
N	 1.7380264078	-1.4643735898	-0.9816978672	-0.162204
H	-0.483863657	 1.9841813807	 0.8773970692	 0.099835
H	-0.5212279071	 2.0435425609	-0.9088534632	 0.092024
H	 2.1194417549	 2.262148705	 0.3513258847	 0.06368
H	 1.197289019	 0.2209048101	 1.9245639757	 0.068797
H	 2.8041692645	-1.6281021262	 0.928510306	 0.091545
H	 3.808836093	-0.6142771933	-1.3862291816	 0.088157
H	 2.0002023636	 1.3329795554	-2.1923941524	 0.070067
H	 0.142715943	-0.5740923171	-2.1849319086	 0.074657
H	-0.8594602027	-0.603494947	 0.3098490704	 0.06928
