27
gdb 60041	2.37581	0.96172	0.88034	0.1499	96.43	-0.2526	0.0809	0.3335	1576.198	0.249927	-353.562062	-353.550679	-353.549735	-353.598128	43.053	
C	-0.904362852	 1.7546160079	-0.9955700699	-0.388405
C	-0.4798227132	 0.3422341753	-0.5696004939	 0.038804
C	 0.2096513019	 0.3745013227	 0.8009077442	-0.378731
C	-1.6975255757	-0.6062043566	-0.6011830083	-0.254549
C	-1.4191172614	-2.0781924703	-0.3161691346	 0.357997
C	-0.3796044645	-2.7187921859	-1.2218282803	-0.458878
C	-1.4978266408	-2.5891185721	 1.1090713893	-0.324064
C	-2.5646432397	-2.9799844053	 0.1136276515	-0.041146
C	-3.9992596184	-2.5217131145	 0.2699136597	-0.412733
H	-0.0470064385	 2.4355305254	-1.0215192727	 0.106694
H	-1.362041188	 1.7526750051	-1.9906802299	 0.107329
H	-1.6372430855	 2.1720978846	-0.2942022091	 0.109066
H	 0.2514875549	-0.0158258478	-1.3064997818	 0.073357
H	 0.5679207604	-0.6138937157	 1.1001158235	 0.121322
H	 1.067035381	 1.0560666395	 0.7903378892	 0.104938
H	-0.4814547955	 0.7259071451	 1.5770535579	 0.105951
H	-2.44003079	-0.22608825	 0.1104429768	 0.086812
H	-2.1634546187	-0.526697467	-1.5942752537	 0.086662
H	 0.6131854533	-2.2750268244	-1.0883098443	 0.116414
H	-0.2873597188	-3.789781224	-1.0160550463	 0.108711
H	-0.6526676804	-2.6058205903	-2.2783930382	 0.110268
H	-0.7822806275	-3.3373054274	 1.4360951649	 0.101086
H	-1.77811971	-1.8826386128	 1.8845578703	 0.103744
H	-2.4848575495	-3.996754081	-0.2656498171	 0.075242
H	-4.0722488396	-1.5313735662	 0.7270671605	 0.115763
H	-4.5167536741	-2.4805239105	-0.695570167	 0.114045
H	-4.5538943198	-3.2154174738	 0.9118823294	 0.114302
