16
gdb 24710	3.84431	1.50554	1.09752	1.2274	77.07	-0.2473	-0.0253	0.222	1042.3482	0.128111	-400.80865	-400.801917	-400.800972	-400.840373	25.631	
C	-0.0269605821	 1.5101651054	 0.0930095815	-0.172921
O	 1.3064377842	 1.9344299546	-0.1820314191	-0.27191
C	 2.1175795832	 0.8388731504	-0.6109351731	-0.177968
C	 1.2796319675	-0.3878438688	-0.3734323434	 0.193424
C	 1.5545599102	-1.74178666	-0.5053511672	-0.097221
N	 0.6438634666	-2.6866474766	-0.2443348475	-0.277248
C	-0.5688828209	-2.2893922182	 0.1530971033	 0.018782
C	-0.9460913739	-0.9552106926	 0.313629099	-0.260646
C	 0.0131158602	 0.0080422201	 0.0417919306	 0.247574
H	-0.3305322227	 1.8954544421	 1.0755547378	 0.12202
H	-0.724758992	 1.9224461556	-0.6532143946	 0.115265
H	 2.3847306145	 0.9561313791	-1.672873965	 0.114208
H	 3.0513333344	 0.8423643342	-0.0334666807	 0.121296
H	 2.532655754	-2.0928816129	-0.8276055687	 0.110333
H	-1.2840938577	-3.0824613501	 0.3577205262	 0.111736
H	-1.9489064854	-0.7012953721	 0.6402096111	 0.103276
