18
gdb 123872	5.03077	1.05223	0.89806	2.6379	79.4	-0.1844	0.0311	0.2155	1274.9735	0.150847	-398.119433	-398.111698	-398.110754	-398.152333	29.078	
C	-0.1961601807	 1.5372873615	 0.0574066632	-0.234191
C	 1.3122047785	 1.5335251692	-0.3029594016	-0.167657
N	 1.4256394227	 0.2116173237	 0.3373173361	-0.162716
C	-0.0330447849	 0.0266619107	 0.3655736251	-0.167072
C	 2.3015442759	-0.7679594108	-0.1067374353	 0.24029
C	 2.1382143691	-2.1433885497	-0.0685921597	-0.145161
N	 3.2847888175	-2.6705164934	-0.5855512407	-0.178562
N	 4.1745415192	-1.7451482046	-0.962566697	-0.222819
C	 3.5881522984	-0.5838638972	-0.6750164571	-0.086312
H	-0.4261463421	 2.1340582245	 0.9413999719	 0.115841
H	-0.8867213073	 1.7984137962	-0.7442550481	 0.110746
H	 1.4990684481	 1.5052628591	-1.3869731782	 0.098139
H	 1.9397612642	 2.3128280836	 0.142296438	 0.107028
H	-0.4302272653	-0.3421542324	 1.3177268988	 0.104317
H	-0.3979884077	-0.6236800881	-0.4450112848	 0.092168
H	 1.3299675226	-2.7622478247	 0.284201216	 0.122271
H	 3.508908402	-3.6424071751	-0.7086140309	 0.271159
H	 4.1000860299	 0.3448279475	-0.8781132257	 0.102531
