18
gdb 103311	2.22642	1.92173	1.19641	2.7005	73.	-0.2436	0.012	0.2556	1043.9538	0.146732	-439.01979	-439.01125	-439.010306	-439.052673	32.658	
C	 0.0078906374	 1.6896496562	 0.3879413979	-0.470733
C	-0.058082588	 0.2124275368	 0.0111978505	 0.328051
C	-1.4458958933	-0.1205851053	-0.5439032475	-0.147288
O	-1.6027553279	-1.4361149925	-1.0412930735	-0.406649
C	 1.1915885843	-0.3765423999	-0.7324518332	-0.187112
N	 1.9440049642	-0.2095372928	 0.5917942804	-0.320931
C	 0.5963485257	-0.7905125473	 1.0218248474	-0.211333
C	 0.834716468	-1.7676042679	-0.1628594244	 0.436085
O	 1.0022878525	-2.9302106318	-0.3698236185	-0.347886
H	 0.984059222	 1.9509917683	 0.7949221904	 0.15178
H	-0.1844319253	 2.3173542973	-0.489203518	 0.118478
H	-0.7570626609	 1.9290043249	 1.1352291607	 0.11564
H	-2.2000132045	 0.1130300698	 0.2233658393	 0.098514
H	-1.6461001717	 0.5428228778	-1.3932440091	 0.119147
H	-1.7150913343	-2.0472368331	-0.3069737667	 0.297522
H	 1.6306086018	-0.0782181563	-1.6830363271	 0.098396
H	 2.6840477506	-0.9117896707	 0.6773374302	 0.235426
H	 0.3610716194	-0.9644048035	 2.0717126414	 0.092893
