14
gdb 68698	2.02285	1.86229	1.13692	5.1469	68.99	-0.2705	-0.0558	0.2147	1052.735	0.098517	-436.67576	-436.667562	-436.666618	-436.708696	29.784	
C	 0.0310547792	 1.530781975	 0.0266984764	-0.495357
C	-0.0894998123	 0.0468458618	 0.1176672808	 0.317755
C	-1.3356947837	-0.8401359718	-0.0731528599	-0.410168
C	-0.7243143923	-1.8009773716	 0.9835213631	 0.383111
O	-1.1193100754	-2.7511872943	 1.5784078787	-0.267432
C	 0.5242808435	-0.9067308759	 1.1058644932	 0.139553
O	 1.0140178532	-0.772974422	-0.2492324902	-0.286532
C	 1.4236078421	-0.6977547102	 2.1919207831	 0.199162
N	 2.1180082652	-0.5377704514	 3.1027233669	-0.333167
H	 1.0105537773	 1.8567558079	 0.383858784	 0.15912
H	-0.084949625	 1.8548830037	-1.0128014834	 0.150333
H	-0.7470976164	 2.0159538666	 0.6227062786	 0.145171
H	-2.2696458198	-0.4125171568	 0.3034920975	 0.148321
H	-1.4796099357	-1.2299791011	-1.0822667887	 0.150131
