24
gdb 59957	2.63024	0.80993	0.80298	3.3613	86.13	-0.2394	0.0381	0.2775	1642.5599	0.214752	-405.6015	-405.589592	-405.588648	-405.640143	42.049	
C	 0.1061669336	 1.5460220688	-0.1904728934	-0.383888
C	-0.0163991301	 0.0352106889	 0.0534256519	 0.02498
C	 0.4814561452	-0.3254297122	 1.4606034811	-0.388343
C	-1.4547878732	-0.4801847134	-0.136770751	-0.156197
C	-2.0767715635	-0.2977112583	-1.5417174682	-0.105466
C	-1.3163570358	-1.0551782972	-2.638490493	-0.389142
C	-3.5162614721	-0.8192583933	-1.4763065315	 0.411601
N	-4.4860886966	 0.1402655049	-1.4194118616	-0.526655
O	-3.778783719	-2.0071365438	-1.4487315072	-0.376983
H	 1.1309335735	 1.8883664022	-0.0127422931	 0.111625
H	-0.1578216937	 1.8237431371	-1.2157126799	 0.11259
H	-0.5506778288	 2.1053284515	 0.4875318732	 0.107719
H	 0.6341531452	-0.4785642961	-0.6665145642	 0.078338
H	-0.1296226378	 0.1621524854	 2.2298928939	 0.110649
H	 0.4350166083	-1.4052593685	 1.635321847	 0.11385
H	 1.5179702454	-0.0045123824	 1.6081474931	 0.108326
H	-1.4922173077	-1.5494105161	 0.1029230382	 0.114554
H	-2.0998918777	 0.0205385637	 0.5995117807	 0.087699
H	-2.0947622145	 0.7711687685	-1.7883954029	 0.062338
H	-1.780122079	-0.8965411712	-3.6171359825	 0.114227
H	-0.2762814278	-0.725760236	-2.7047346646	 0.111715
H	-1.3373040165	-2.1278555752	-2.4302164069	 0.141923
H	-4.2780135323	 1.122122577	-1.4444455991	 0.256505
H	-5.445652445	-0.1530704642	-1.3340950002	 0.258036
