16
gdb 19704	5.69568	1.83024	1.66188	1.3564	68.27	-0.2175	0.0084	0.2259	790.2632	0.132032	-346.539877	-346.533848	-346.532904	-346.56956	25.127	
O	-0.0296888499	 1.4491130244	-0.0755621923	-0.442592
C	 0.0249071519	 0.0428492118	 0.0029617394	 0.124065
C	 0.0149737215	-0.6334484965	 1.3950413441	-0.094735
C	-1.4910522564	-0.2009950339	 1.5895684847	-0.051911
C	-2.1831672402	-1.3440240507	 2.3147074479	-0.112635
C	-1.6488618125	-2.4386939386	 1.7706493351	-0.105273
C	-0.6627471342	-1.8965642459	 0.7467112041	-0.069138
C	-1.3450505258	-0.6440518548	 0.0801990116	-0.063312
H	 0.8591463343	 1.7924075392	 0.0570969029	 0.282462
H	 0.7316196212	-0.3738456305	-0.7280452198	 0.059257
H	 0.797648241	-0.6365241889	 2.1594530361	 0.063646
H	-1.7274716217	 0.8338439385	 1.8232980871	 0.076807
H	-2.9335033149	-1.2514076537	 3.0871765126	 0.100707
H	-1.8406509923	-3.4822485588	 1.976699472	 0.102075
H	-0.070509089	-2.5808705882	 0.1375826609	 0.059532
H	-2.133584033	-0.6551908535	-0.6763517163	 0.071046
