20
gdb 71242	2.70824	1.80813	1.63679	2.4002	77.05	-0.2089	0.0729	0.2818	935.5764	0.173845	-403.111585	-403.104537	-403.103593	-403.142363	30.112	
O	-0.0647329514	 1.4210172498	-0.0737700295	-0.495262
C	 0.0198974988	 0.0235574413	 0.0278324993	 0.394372
C	 0.2484501242	-0.6604962243	 1.4037960323	-0.233012
N	-0.7884768227	-1.6825628568	 1.0437493956	-0.140568
C	-0.4057911117	-2.5355204075	-0.1705302269	 0.014066
C	-1.5420647395	-1.852633457	-0.9746604715	-0.250751
C	-1.361510096	-0.7101057497	 0.0288671132	-0.010914
C	 0.952459214	-2.151428203	-0.7629805857	-0.229501
C	 0.9653092414	-0.6187907784	-0.9932628644	-0.280305
H	 0.821192464	 1.7748781303	-0.2080714566	 0.273654
H	 1.2473017514	-1.0334631515	 1.6542712021	 0.090399
H	-0.1325497362	-0.0613533237	 2.2364201897	 0.108986
H	-0.4842899563	-3.6075266659	 0.0256532363	 0.07119
H	-1.3812355223	-1.6690250947	-2.0396612925	 0.097537
H	-2.506510095	-2.3440777997	-0.8303441414	 0.111971
H	-2.2015564304	-0.081907534	 0.3366918301	 0.076023
H	 1.7562109969	-2.4478748589	-0.0810612262	 0.106705
H	 1.1205624906	-2.6955228777	-1.6987392335	 0.100702
H	 0.6360937763	-0.3595600783	-2.0048293378	 0.109027
H	 1.9783784538	-0.2134649304	-0.8692600327	 0.08568
