15
gdb 22479	3.15968	0.76596	0.62121	4.6064	88.06	-0.2631	-0.0819	0.1812	1699.4215	0.110654	-416.758196	-416.748636	-416.747692	-416.793508	33.153	
C	-0.056997858	 1.5098856386	 0.0900278169	-0.382257
C	 0.046249872	-0.0060969426	-0.0743249085	-0.268436
C	 0.7606050205	-0.4567483853	-1.3308496098	 0.117312
N	 1.2147319523	 0.4333011605	-2.1431373031	-0.139894
O	 1.8423379667	-0.1136017402	-3.2443096756	-0.377883
C	 0.8957363308	-1.8552804526	-1.5520168849	 0.105344
C	 0.9832881557	-3.0549746488	-1.6917290936	 0.113089
C	 1.0869983719	-4.4039186116	-1.8581546932	 0.195743
N	 1.1739212857	-5.5545851128	-1.9974025097	-0.330412
H	 0.9319754091	 1.9730905294	 0.1267872937	 0.133985
H	-0.6020188492	 1.962777311	-0.7417280828	 0.133986
H	-0.5843236934	 1.7446069039	 1.0186304294	 0.116557
H	 0.5658350919	-0.4504674358	 0.7844458429	 0.132219
H	-0.9528782617	-0.4606911928	-0.0753394971	 0.132209
H	 2.1187082156	 0.6653826091	-3.7412465546	 0.318439
