25
gdb 63636	3.25091	0.91275	0.85828	0.1108	94.17	-0.251	0.084	0.335	1534.9104	0.22841	-352.343499	-352.333517	-352.332573	-352.378467	38.323	
C	 0.0020296066	 1.5443494142	-0.2293389808	-0.455089
C	-0.0105621229	 0.0366842439	-0.0551065385	 0.344279
C	-1.2511571588	-0.6274874228	-0.6249583317	-0.446987
C	 1.295944041	-0.7161796853	-0.1652566646	-0.345198
C	 0.6036577809	-0.6016610905	 1.1784587114	-0.043691
C	 1.2138418923	 0.1689997851	 2.316768636	 0.045254
C	 0.3179590034	 0.5868851333	 3.521580912	-0.229271
C	 1.5038615976	 0.2635173983	 4.4687522624	-0.209894
C	 2.1272126147	-0.586855089	 3.3295580654	-0.229749
H	 0.9193099923	 2.0000848182	 0.151208584	 0.114157
H	-0.0778719409	 1.8073398089	-1.2909514847	 0.111422
H	-0.8441536297	 2.0116492074	 0.2887511253	 0.112864
H	-1.3462194121	-0.4303610848	-1.6998476346	 0.110596
H	-1.224109546	-1.7131031597	-0.4875206733	 0.109856
H	-2.160015783	-0.2521437639	-0.1390695166	 0.111529
H	 1.3046191738	-1.6781832767	-0.667829744	 0.102066
H	 2.2026439963	-0.1355086551	-0.3086599937	 0.101889
H	 0.0938536417	-1.5058195865	 1.5098694987	 0.067332
H	 1.7502490103	 1.046704888	 1.9419027718	 0.061958
H	-0.0894756828	 1.6012454471	 3.5285262209	 0.091806
H	-0.5083868434	-0.1189704092	 3.6576173103	 0.095161
H	 2.1037891471	 1.1527817329	 4.6840254006	 0.098846
H	 1.2793149023	-0.2374663239	 5.4133305752	 0.093263
H	 1.8360096955	-1.6396472305	 3.4093132168	 0.095444
H	 3.2086104536	-0.5379376395	 3.1785330617	 0.092156
