16
gdb 55560	5.2672	0.76248	0.67172	6.7218	72.56	-0.2644	-0.0325	0.2319	1591.3164	0.122997	-434.119758	-434.110073	-434.109129	-434.157232	33.098	
C	-0.0452474782	 1.5732313683	-0.031629764	-0.469
C	 0.2056182827	 0.0879564646	 0.0189077819	 0.379652
N	 1.3772971202	-0.3887171812	 0.0344601234	-0.47803
N	-1.0053768796	-0.662095638	 0.0453642896	-0.392274
C	-1.1232689376	-2.0307395395	 0.0896669847	 0.458974
O	-0.1931453985	-2.8030192342	 0.1174382574	-0.321917
C	-2.5945601927	-2.4971469265	 0.0940551246	-0.493246
C	-2.7277503999	-3.9441752784	 0.1969849683	 0.299031
N	-2.8746150189	-5.0858347861	 0.2787274214	-0.287784
H	 0.9134476622	 2.0890504057	-0.0503584798	 0.165738
H	-0.6173486386	 1.8475470379	-0.9258628403	 0.13449
H	-0.6151731692	 1.9079209576	 0.8432259318	 0.134708
H	 1.3608224703	-1.4082406692	 0.0696966005	 0.255885
H	-1.8594546735	-0.1253543786	 0.0277200902	 0.256689
H	-3.1276625898	-2.0256612723	 0.9285462094	 0.176953
H	-3.0842662087	-2.1547170204	-0.8259041691	 0.180132
