16
gdb 105589	1.97773	1.50652	1.22041	2.6592	72.36	-0.2465	-0.0401	0.2063	1103.0249	0.122032	-437.830469	-437.82136	-437.820416	-437.864734	33.031	
O	 0.1660423882	 1.3613160813	-0.1824846999	-0.414256
C	 0.0802103867	 0.0558326748	 0.3283968428	-0.068692
C	-1.3485311617	-0.503243387	 0.1290515147	-0.035197
N	-1.723246724	-0.4060001046	-1.3305422253	-0.368069
C	-1.8790833578	-1.8827275657	-1.4773915841	-0.282073
C	-1.4071654693	-2.0571539905	-0.028910981	 0.338524
O	-1.1617741925	-2.9764723482	 0.685195322	-0.269889
C	-2.3203871579	 0.0498701002	 1.0489490484	 0.318368
C	-3.1504541399	 0.4870334735	 1.8014973931	-0.46139
H	-0.1427853893	 1.2980223323	-1.0970119815	 0.288969
H	 0.7917323985	-0.624340198	-0.1661279834	 0.089957
H	 0.3243990108	 0.0921103342	 1.3926577488	 0.130958
H	-2.597922551	 0.0904738376	-1.4561433303	 0.239674
H	-2.9053577074	-2.2369348571	-1.6328850998	 0.141708
H	-1.2351366752	-2.3287890453	-2.2423645656	 0.144277
H	-3.8711761983	 0.8823602125	 2.474336881	 0.20713
