17
gdb 73036	2.99591	1.18878	1.01975	3.1007	68.59	-0.2379	0.0639	0.3018	1188.7737	0.134503	-458.875014	-458.866825	-458.865881	-458.908263	30.656	
O	 0.2602234148	 1.3410630371	 0.341131674	-0.448068
C	 0.0368980236	-0.0032761432	 0.13598193	 0.284628
C	-0.8163503571	-0.5733802836	-0.997084105	-0.151128
O	-1.3530660876	-1.5923613365	-0.1070651471	-0.283244
C	-0.6689066356	-1.0095440026	 1.0071076778	 0.018681
C	 0.8289783736	-1.1068858812	 0.8234597452	-0.143318
C	 1.4948544372	-2.255180082	 0.1440499395	 0.069789
C	 2.9567082462	-2.3524826685	 0.0299282928	-0.189141
O	 2.2483097188	-3.1321683967	 0.9927574994	-0.236313
H	 1.1486431906	 1.5558786302	 0.0364828055	 0.292157
H	-1.6043843064	 0.1227667032	-1.304319805	 0.121417
H	-0.3214067071	-0.9981207295	-1.8775855667	 0.105775
H	-1.1851185798	-0.9526343435	 1.9575537524	 0.118721
H	 1.3721030526	-0.7191039941	 1.6831734989	 0.106326
H	 0.8836995164	-2.77431072	-0.5919598032	 0.112687
H	 3.4031833293	-2.9106389065	-0.7924537973	 0.114868
H	 3.5817814805	-1.5591581128	 0.4402322588	 0.106163
