23
gdb 118750	2.43544	0.9867	0.82022	2.2498	81.53	-0.2483	0.0663	0.3146	1508.8531	0.203719	-425.414383	-425.403907	-425.402963	-425.449915	39.239	
C	 0.8069476856	 1.4008345896	 0.2752350286	-0.399468
C	 0.0641203022	 0.0900915167	 0.0362757163	 0.044081
C	 0.7238021394	-0.88827693	-0.9824485876	-0.30463
C	 1.1078950838	-1.853381672	 0.1824357138	 0.418281
O	 0.7247593792	-3.2096172582	 0.0214009937	-0.48551
C	 2.5991747763	-1.8772531379	 0.5093578229	-0.235579
C	 2.9503934698	-2.6862903088	 1.7609576131	-0.070541
O	 4.334170081	-2.6083886654	 2.0790703949	-0.421491
C	 0.226697054	-0.9920181652	 1.1464625061	-0.304872
H	 1.8630399897	 1.2316410307	 0.5129912497	 0.121039
H	 0.7674546935	 2.0428418522	-0.6117281731	 0.114289
H	 0.3663961588	 1.9561813419	 1.1106467974	 0.114883
H	-0.9809950208	 0.3139286976	-0.1965800647	 0.069001
H	 0.0065281623	-1.3511030298	-1.6675071712	 0.087964
H	 1.5542575649	-0.4922750555	-1.5751817599	 0.096527
H	-0.2192968341	-3.2360782579	-0.1637394259	 0.273851
H	 3.1276095545	-2.3019636719	-0.3557437028	 0.090308
H	 2.9665390654	-0.8537651341	 0.6376382106	 0.105956
H	 2.4272898065	-2.2808828678	 2.6338046625	 0.107898
H	 2.6199440197	-3.7253536974	 1.6382626288	 0.108613
H	 4.8198577233	-3.0380127224	 1.3678669263	 0.279048
H	 0.6961155272	-0.6636618566	 2.0785799477	 0.101498
H	-0.710658462	-1.4973182677	 1.3994999529	 0.088855
