18
gdb 54796	3.58475	1.3235	1.17907	10.0611	71.56	-0.1965	0.0344	0.2309	1073.5987	0.150774	-439.058326	-439.051078	-439.050134	-439.090433	28.305	
O	-0.0297884005	 0.2625593208	 0.9097242858	-0.500444
C	 0.0729593112	 1.208771703	 0.0904259279	 0.36362
O	 0.99445506	 1.6547501263	-0.587908494	-0.443537
C	-1.2831891449	 1.9925036783	-0.0759706515	-0.109911
C	-2.1427224693	 1.863351317	-1.3597909888	-0.020683
C	-2.4571575784	 0.4400893134	-0.8427659542	-0.195399
N	-2.4081446542	 1.1231375644	 0.5168365691	-0.045216
H	-2.0579297701	 0.5718550317	 1.3132645867	 0.286041
C	-3.6066205197	 2.0163214976	 0.5023883671	-0.195043
C	-3.4357023631	 2.6099532304	-0.9416818932	-0.234576
H	-1.237621266	 2.9799223256	 0.391245662	 0.109848
H	-1.727807868	 2.0461492101	-2.3453232351	 0.117525
H	-3.4247601107	-0.0152353229	-1.0649568093	 0.123282
H	-1.6372689	-0.2702418038	-0.8982833244	 0.195864
H	-4.5187139504	 1.4335048258	 0.6411530137	 0.142396
H	-3.519113425	 2.7540228508	 1.3002449333	 0.152115
H	-3.3018431501	 3.6931339528	-0.9193205482	 0.132245
H	-4.2909466606	 2.3788562087	-1.5816448168	 0.121873
