16
gdb 79372	3.34562	1.37194	1.11101	4.7892	73.85	-0.2584	-0.0103	0.2481	1089.5567	0.123646	-400.664991	-400.657487	-400.656543	-400.696964	28.891	
C	-0.1129145895	 1.6372288382	-0.0014174585	-0.419416
C	-0.0456423816	 0.1178858568	-0.0010397299	-0.026434
C	 1.1435346628	-0.5764909933	-0.7073849459	-0.141815
C	 2.0936810344	-0.3773980665	 0.5188346799	 0.049948
O	 2.4874068214	-1.7831058496	 0.6005420083	-0.349922
C	 1.0759098374	-1.8145194307	 0.2537285581	 0.413535
C	 0.3955146014	-3.0685795513	 0.0733817298	 0.169604
N	-0.1807470056	-4.0591454628	-0.0786025008	-0.343135
C	 0.6847717509	-0.5963567543	 1.1615365833	-0.14182
H	 0.8549535802	 2.0886736563	 0.2411565928	 0.117755
H	-0.4201550055	 2.0143199855	-0.9823873426	 0.127786
H	-0.8415461376	 1.9960938677	 0.7328891625	 0.127786
H	-1.0193635876	-0.320105697	-0.2447135683	 0.093987
H	 1.4275445463	-0.6073948234	-1.7588220751	 0.103212
H	 2.850369079	 0.3779956641	 0.7126073542	 0.115717
H	 0.4498564135	-0.6497352198	 2.2241286223	 0.103213
