21
gdb 65253	3.28282	1.15207	1.12285	1.7596	83.1	-0.2391	0.0207	0.2597	1210.2825	0.182685	-387.086449	-387.077688	-387.076744	-387.120239	33.463	
C	-0.1367115263	 1.4706446765	-0.4790190922	-0.466023
C	 0.0026760797	-0.0018472912	-0.1570307974	 0.421994
C	 1.3054400324	-0.6580186187	-0.3531630496	-0.236715
O	 0.8661868574	-0.2901604572	 0.9565275443	-0.285138
C	-1.2593339448	-0.8641544811	-0.1936514701	-0.077102
C	-2.3985669473	-0.3776060296	 0.7549487885	-0.24064
C	-3.5176359724	 0.1952827362	-0.1563306237	-0.250072
C	-3.1343111235	-0.2968651701	-1.5306079169	-0.060904
C	-1.9314501042	-0.8673466548	-1.5507061687	-0.081947
H	 0.8308817245	 1.9705920327	-0.3929354401	 0.123998
H	-0.5200778776	 1.6124420856	-1.4937198536	 0.126426
H	-0.8300860719	 1.9597255862	 0.2128510463	 0.125359
H	 1.3507308013	-1.7296034614	-0.5471195989	 0.106405
H	 2.1466215446	-0.085208147	-0.7425049861	 0.107564
H	-0.9369539292	-1.8724315821	 0.0917244564	 0.07649
H	-2.7828051161	-1.23284309	 1.3167320819	 0.106647
H	-2.0395765213	 0.3440815242	 1.4925067134	 0.110144
H	-4.5134359403	-0.1478711443	 0.147742444	 0.103951
H	-3.5579438137	 1.2929559147	-0.1331418845	 0.106046
H	-3.7779664044	-0.1713180303	-2.3949818471	 0.09284
H	-1.4450449367	-1.2719278683	-2.4322503057	 0.090679
