20
gdb 118890	3.33664	1.05837	0.96986	0.7657	75.83	-0.2295	0.0743	0.3039	1307.5123	0.170042	-440.221009	-440.211926	-440.210982	-440.254967	34.252	
C	 0.0035001717	 1.3722955604	 0.0464083799	-0.224262
O	-0.0597750785	-0.0298981088	-0.069690406	-0.258314
C	 0.6956869116	-0.540681085	-1.1575179372	-0.121454
C	 0.5921095648	-2.0544543468	-1.0730335321	 0.431163
O	 1.0395517712	-2.5009518043	 0.1883273997	-0.500492
C	-0.778615056	-2.7160200633	-1.5066487535	-0.280112
C	-0.0066025711	-3.5004048122	-2.5718102375	-0.039151
N	 0.6234083674	-2.4848664829	-3.4524140519	-0.342865
C	 1.2793862021	-2.8692035586	-2.1760430137	-0.116356
H	 1.0360769733	 1.7212865001	 0.202870871	 0.107326
H	-0.39549288	 1.8707916814	-0.8499194321	 0.110231
H	-0.6025355465	 1.6584595179	 0.9096425626	 0.127216
H	 0.3094101006	-0.1769966896	-2.1179562286	 0.113192
H	 1.7510037673	-0.2340657923	-1.0643023874	 0.085361
H	 0.6523320566	-1.8893346333	 0.8282800654	 0.284558
H	-1.1484132659	-3.3439800965	-0.694878434	 0.109398
H	-1.5682384304	-2.0583769005	-1.8774832044	 0.099155
H	-0.2006836714	-4.5010044783	-2.9374737295	 0.092399
H	 1.1117113177	-2.9878603375	-4.1930147909	 0.229688
H	 2.2878377655	-3.26288524	-2.1443571099	 0.093319
