19
gdb 100545	2.94888	1.01244	0.86098	0.898	71.94	-0.2486	-0.0293	0.2193	1374.6413	0.156535	-460.145061	-460.135082	-460.134138	-460.180627	35.286	
C	-0.970954211	 1.0958523607	 0.2761793965	-0.416125
C	-0.0642644263	-0.139771697	 0.091156933	-0.071801
C	 0.9539934985	-0.2581314513	 1.2272372098	-0.085536
O	 1.7745506994	 0.9011580844	 1.1826182226	-0.426252
C	-0.8563650576	-1.4333394356	-0.0251176359	 0.327528
O	-0.8542664498	-2.2843779594	 0.8386995283	-0.31667
C	-1.6351568796	-1.7099265018	-1.2905701671	 0.001673
C	-2.8437235631	-0.9533261377	-1.671017507	-0.172555
O	-1.6093415409	-0.7586900171	-2.3528266327	-0.219625
H	-0.3387280133	 1.9568943672	 0.5016237992	 0.147811
H	-1.5384121309	 1.3146590118	-0.6298720359	 0.133525
H	-1.6669730522	 0.9547483424	 1.1104201933	 0.11708
H	 0.4818991914	-0.0064803854	-0.8514690865	 0.11486
H	 0.4264051135	-0.3461328404	 2.1875746089	 0.100314
H	 1.5471276807	-1.1743198917	 1.0987421856	 0.097735
H	 2.3667972145	 0.8770529107	 1.939219035	 0.289211
H	-1.5849266083	-2.7559415851	-1.5921547795	 0.120939
H	-3.6194113737	-1.4641012094	-2.2388481708	 0.130751
H	-3.1820105915	-0.1238566853	-1.0550459668	 0.127137
