21
gdb 97843	3.27772	0.77876	0.69556	1.7741	88.75	-0.2422	0.0435	0.2856	1724.3917	0.181624	-387.059998	-387.049967	-387.049023	-387.096707	36.33	
C	 0.0819993792	 1.4825162308	 0.1232431072	-0.363003
C	-0.0196952945	-0.0381600249	-0.0969002519	-0.31608
C	-1.3973885519	-0.5238249923	-0.0870154719	 0.069654
C	-2.5568936014	-0.8613631723	-0.0787598874	 0.052989
C	-3.9210665715	-1.3572119353	-0.0597507322	-0.226722
C	-4.548170412	-1.5710893584	-1.4791021143	-0.224633
C	-4.0939978698	-3.0530489223	-1.4362922055	-0.248741
C	-3.9663446974	-2.9271698201	 0.1058620763	 0.167555
O	-2.9343478293	-3.5700225369	 0.7872505576	-0.427838
H	 1.1287424921	 1.8002679209	 0.1068142314	 0.115475
H	-0.4560375573	 2.0248998691	-0.658804552	 0.128871
H	-0.3495893158	 1.764525992	 1.0872796165	 0.130109
H	 0.4539427068	-0.3024313288	-1.0512159255	 0.128858
H	 0.5571167249	-0.5580146734	 0.6787740149	 0.1297
H	-4.5246859891	-0.7893394112	 0.6542327454	 0.094911
H	-5.6354932545	-1.4672346299	-1.4428120709	 0.105012
H	-4.1568963399	-0.9445297427	-2.28090871	 0.109791
H	-4.7683792406	-3.816009801	-1.8308578323	 0.099202
H	-3.1071498905	-3.1811801858	-1.8906633679	 0.105966
H	-4.8990434037	-3.2164011555	 0.5994437658	 0.089845
H	-2.1146030339	-3.1148217218	 0.5513370065	 0.279079
