16
gdb 35343	3.93955	1.3693	1.24011	0.2645	76.85	-0.2312	0.0067	0.2379	1017.463	0.123086	-400.526566	-400.519352	-400.518408	-400.557937	29.201	
C	-0.1545624069	-1.2893670859	 0.0047677911	-0.441798
C	-0.0655098883	-0.0905014616	 0.0289941743	 0.396193
C	 0.0037579509	 1.3526516402	 0.0114222173	-0.195539
O	-0.3040617965	 1.9899396812	 1.3371701197	-0.348233
C	 1.0981320193	 2.3490491641	 1.3850928885	 0.361232
C	 2.2881503775	 3.3665127219	 1.4202265217	-0.241988
N	 2.817516544	 2.1470382596	 0.5891057767	-0.172407
C	 2.1700643734	 1.278371975	 1.6716649106	-0.218344
C	 1.3563836885	 2.1947843676	-0.0564613159	-0.052069
H	-0.222305572	-2.3494214821	-0.0107962726	 0.208216
H	-0.6862129304	 1.7546999935	-0.7361738712	 0.130353
H	 2.1864749765	 4.2857291143	 0.8412267674	 0.121061
H	 2.8583044514	 3.5082419248	 2.3419710839	 0.11886
H	 2.6933116623	 1.3169554859	 2.6290242462	 0.10411
H	 1.9842452396	 0.2550961242	 1.3507017589	 0.132413
H	 1.2620052909	 3.0380995474	-0.7388451367	 0.09794
