20
gdb 120568	3.97699	0.73619	0.6895	1.6512	83.69	-0.2377	0.0374	0.2752	1668.7616	0.168133	-403.086489	-403.075984	-403.07504	-403.122398	37.922	
C	 0.0719500906	 1.5245146163	-0.1872615411	-0.456981
C	-0.0272109799	 0.0315181417	 0.0686149475	 0.122922
N	 1.2603817317	-0.711996209	 0.0826504027	-0.365103
C	 0.4825479048	-0.6159078424	 1.3266210609	-0.05067
C	 1.0975279497	 0.1360523376	 2.48313829	-0.195529
C	 2.1176710216	-0.7185535985	 3.2295941048	-0.066931
O	 2.6163854087	 0.0532700929	 4.3110700036	-0.421617
C	-1.1532681531	-0.6139191802	-0.5633788658	 0.279195
C	-2.0851050379	-1.1422776206	-1.1116936446	-0.453113
H	 0.9881228263	 1.9306569502	 0.2428863897	 0.133418
H	 0.0872458114	 1.7182188618	-1.2638303732	 0.130284
H	-0.78780252	 2.0489395449	 0.2406125115	 0.126457
H	 1.1336945644	-1.6238128221	-0.3492065201	 0.236847
H	-0.0704782146	-1.5074950869	 1.6207675959	 0.091013
H	 1.5990177636	 1.042642908	 2.1361332815	 0.115069
H	 0.3123843473	 0.4431407429	 3.1844033085	 0.110521
H	 1.6384456516	-1.6448903837	 3.5888943592	 0.080056
H	 2.9205869503	-1.010225989	 2.5357228913	 0.101944
H	 3.300165063	-0.4567654572	 4.7546332727	 0.285828
H	-2.9105744794	-1.6102421067	-1.5882767349	 0.19639
