18
gdb 117470	5.9747	0.61995	0.6023	1.8461	70.76	-0.234	-0.0385	0.1955	1834.7175	0.144393	-476.244072	-476.23369	-476.232745	-476.282208	34.487	
C	 0.1772523322	 0.7219867813	-0.5099724155	-0.320821
N	-0.5216610412	 0.3425306038	 0.7168491572	-0.258917
C	-1.689118496	-0.4778363783	 0.4930913662	-0.288125
C	-1.3939130965	-1.9121729592	 0.0564801006	 0.434704
O	-0.3154327107	-2.4432232829	 0.1146782096	-0.348231
O	-2.5256178173	-2.5238980188	-0.3760466764	-0.24234
C	-2.4243683344	-3.8968773418	-0.7648918105	-0.174153
C	-3.2815587537	-4.7517599931	 0.151183893	 0.146206
O	-3.6674495672	-5.8507386188	-0.1412298968	-0.225716
H	 1.060744366	 1.3111854983	-0.2495298633	 0.124537
H	 0.5019222622	-0.1284665373	-1.1295330645	 0.113897
H	-0.4777432575	 1.3583740277	-1.1158685916	 0.121065
H	 0.1191401302	-0.160796389	 1.3218356567	 0.229869
H	-2.2845201953	-0.5479475663	 1.4136143202	 0.136898
H	-2.3418304939	-0.0120029185	-0.2529206321	 0.137621
H	-2.7665397226	-3.996983167	-1.7980747469	 0.14891
H	-1.3806519908	-4.2235358337	-0.6954826183	 0.173212
H	-3.5124727937	-4.2753636663	 1.1305840622	 0.091383
