17
gdb 12148	5.91215	1.29831	1.27829	1.4782	68.95	-0.244	0.0623	0.3063	993.7982	0.141952	-363.796845	-363.789645	-363.788701	-363.828744	27.813	
C	 0.4179715302	 1.466284969	-0.0014034565	-0.307014
N	 1.2766783523	 0.2605432389	 0.0400079135	-0.352818
C	-0.1769484371	 0.1165256831	 0.009739041	 0.347867
C	-0.9440330861	-0.6250406383	 1.1179850407	-0.3692
C	-1.580545842	-1.4763491542	 0.0099718835	 0.45364
C	-1.8711825628	-2.9093612498	-0.0106353491	-0.260661
O	-2.9198702288	-1.9282088254	 0.0214957879	-0.269078
C	-0.9843505715	-0.590832127	-1.0956281444	-0.395689
H	 0.431819125	 2.0654985016	 0.9054605482	 0.120228
H	 0.3672990847	 2.0418448109	-0.9228744531	 0.111754
H	 1.6639251832	 0.0842782863	-0.8846729286	 0.22825
H	-0.3240630377	-1.1467320364	 1.8507809469	 0.11802
H	-1.6796766261	-0.0033259502	 1.6373960927	 0.116664
H	-1.7847667661	-3.4683588007	-0.9419501191	 0.114235
H	-1.7560607205	-3.4987308374	 0.8983349304	 0.117254
H	-1.7381924315	 0.0450136599	-1.5703776109	 0.120487
H	-0.4061456552	-1.0998687704	-1.8732315233	 0.106061
