18
gdb 72825	2.72037	1.58001	1.29692	4.2495	72.72	-0.2551	0.0046	0.2597	1036.8693	0.148589	-439.082481	-439.074495	-439.073551	-439.115222	30.141	
C	-0.2804455591	 1.5287004302	-0.0346927902	-0.489457
C	 0.0439623726	 0.0449438449	-0.0165264403	 0.2459
C	-1.0864930281	-0.9104072162	 0.440506708	-0.11659
O	-0.3073061884	-1.3809967284	 1.5602274298	-0.283479
C	 0.8188467088	-0.5576886535	 1.1822567395	 0.004051
C	 1.9248381559	-1.385445886	 0.5660541739	 0.407403
N	 2.8625027594	-1.940886406	 1.1993509885	-0.533057
O	 1.723739017	-1.474409177	-0.7869823029	-0.24644
C	 0.8340033507	-0.4412278219	-1.2400343862	-0.144258
H	 0.6291228349	 2.1323199987	-0.1223431003	 0.127094
H	-0.9293200994	 1.7786111897	-0.8821804139	 0.126086
H	-0.7993155414	 1.8286179113	 0.8805351806	 0.133005
H	-2.010315955	-0.418270139	 0.7678393627	 0.105745
H	-1.3370263215	-1.7190739597	-0.2576292872	 0.107246
H	 1.1665192965	 0.0759150755	 2.0010544527	 0.100724
H	 3.4669851702	-2.4656754365	 0.5634442463	 0.224439
H	 0.2000828999	-0.8644532849	-2.0245445977	 0.12099
H	 1.4311249371	 0.3706567889	-1.6748606734	 0.110599
