18
gdb 73037	3.09502	1.34509	1.13131	1.3434	71.98	-0.2118	0.068	0.2798	1113.1272	0.146728	-438.984639	-438.97635	-438.975406	-439.017983	31.431	
O	-0.5015295408	 1.3765837483	-0.2266282897	-0.453871
C	-0.0712649288	 0.0790567717	-0.0361320726	 0.273798
C	-0.8491857964	-1.1418419623	-0.5283017722	-0.142561
O	-0.5542176752	-1.8679749897	 0.6967727944	-0.282442
C	 0.1248556167	-0.7342442743	 1.2409376744	-0.007573
C	 1.3144676556	-0.3052788957	 0.3943739966	-0.062745
N	 2.2401887148	-1.090633793	-0.3800789371	-0.109441
C	 3.300565109	-1.7636273811	 0.3769628046	-0.221018
C	 2.2184441256	-2.5558457567	-0.2582420752	-0.222268
H	 0.0873386507	 1.7997619034	-0.8609446806	 0.293913
H	-1.9235336277	-0.9451019358	-0.6059205396	 0.118909
H	-0.4862228507	-1.6582995951	-1.4229800925	 0.11358
H	-0.0117033551	-0.5232908919	 2.2960008294	 0.109471
H	 1.8055679915	 0.5527298542	 0.8545541328	 0.102199
H	 4.2902254561	-1.7173477108	-0.068284446	 0.114485
H	 3.2797209428	-1.6784961621	 1.461696284	 0.112291
H	 1.4686071138	-3.0006599362	 0.3845660267	 0.149093
H	 2.4107149281	-3.0869531728	-1.1864032875	 0.114178
