19
gdb 82246	2.36487	1.99702	1.41707	2.5245	72.97	-0.2439	0.0556	0.2995	965.5396	0.161561	-422.993923	-422.986574	-422.985629	-423.025674	29.623	
O	 0.1214064757	 1.2887731579	 0.5387575999	-0.423526
C	 0.0198856813	-0.0593167304	 0.0905002125	 0.075967
C	-1.4479404377	-0.4376637018	-0.0629510068	-0.039262
C	-2.2849935092	 0.3562988576	-1.0260910128	-0.275289
C	-1.7030047494	-0.9610314749	-1.4663333906	-0.055961
C	-0.3979669671	-0.8829122543	-2.2444511328	 0.10828
O	-0.2583892443	 0.2624467485	-3.1271201388	-0.292016
C	 0.7878676962	 0.8268291885	-2.3067155233	-0.09185
C	 0.6879547994	-0.3275261667	-1.2900758633	-0.122248
H	 1.0464837898	 1.4695133652	 0.7351044342	 0.282272
H	 0.4737037587	-0.7267615583	 0.8374697545	 0.066336
H	-1.9402316475	-0.882737084	 0.7942475134	 0.084221
H	-3.3518180644	 0.3892691189	-0.8362825754	 0.109156
H	-1.8808042628	 1.2596570915	-1.4648615455	 0.138922
H	-2.3659964824	-1.8003274844	-1.6416177151	 0.081063
H	-0.1810655642	-1.81317294	-2.7799672238	 0.072588
H	 1.7386191451	 0.8816213163	-2.8510201318	 0.095361
H	 0.5304016153	 1.8187578247	-1.9198225442	 0.111508
H	 1.5963443075	-0.923458464	-1.1888929004	 0.07448
