19
gdb 71904	3.1398	1.76721	1.75534	1.7948	73.54	-0.2444	0.0894	0.3338	900.9747	0.161453	-423.037024	-423.030304	-423.02936	-423.06759	28.7	
C	 0.0923608109	 1.4354397058	 0.0063595667	-0.474394
C	-0.052415631	-0.0616723722	 0.0082440557	 0.471579
C	-1.4373783328	-0.7305153479	 0.0834688492	-0.2675
C	-0.8290906443	-2.1198416904	 0.0433673648	-0.109089
C	 0.2767783989	-2.0330310675	-1.0718065981	 0.096733
C	 1.2975956335	-2.633273045	-0.0786095308	-0.243487
C	 0.3950822992	-2.0418475608	 1.0279466609	 0.096731
O	 0.62847702	-0.6283551188	 1.1314842864	-0.306434
O	 0.4977205862	-0.618625815	-1.1890931553	-0.306437
H	 1.149095369	 1.7058889634	-0.052020216	 0.137991
H	-0.4286476594	 1.8602655942	-0.8545661258	 0.128297
H	-0.32849444	 1.8528240927	 0.9238526014	 0.128296
H	-1.9618043693	-0.5005689675	 1.0134513231	 0.106487
H	-2.0628380204	-0.4930466001	-0.7797653525	 0.106488
H	-1.4551802387	-3.0076182445	 0.0749180468	 0.079354
H	 0.1401135718	-2.4586831983	-2.0669339611	 0.075339
H	 1.2721207	-3.7276164014	-0.081770238	 0.095967
H	 2.3250386424	-2.2693210294	-0.1349664454	 0.108739
H	 0.370864014	-2.4758508274	 2.0285409679	 0.07534
