21
gdb 62860	2.70907	1.86289	1.44189	1.7991	80.67	-0.2468	0.0904	0.3372	991.2923	0.183341	-387.034261	-387.026481	-387.025537	-387.065982	32.302	
C	-0.1056770954	 1.4986790462	 0.2299092954	-0.464716
C	-0.0760554062	-0.0252462284	 0.006059736	 0.384436
C	-1.5498324982	-0.4751497086	-0.1441931827	-0.452311
C	 1.0158451791	-0.4718369157	-1.0380813792	-0.120866
C	 2.0785017643	-0.2331476673	 0.0976228013	-0.237199
C	 0.9006370507	-0.7721341615	 0.9910215569	-0.120864
C	 0.9287711628	-2.2308051202	 0.4780371683	 0.034513
O	-0.1369435668	-2.6497885363	-0.3858165751	-0.249558
C	 1.0108902972	-2.0167549205	-0.9682977554	 0.034513
H	 0.8675825636	 1.9731435222	 0.3553619102	 0.110724
H	-0.6015967325	 1.9829031425	-0.6187698035	 0.117003
H	-0.7003893287	 1.7252993261	 1.1218881019	 0.117003
H	-1.7391628451	-0.9449381649	-1.11058796	 0.123137
H	-1.8373043075	-1.2008015295	 0.6182082152	 0.123137
H	-2.2195835613	 0.3863943618	-0.0547042014	 0.088257
H	 1.0922046819	-0.004005794	-2.0207584479	 0.05842
H	 2.9757853531	-0.857109778	 0.0562249972	 0.091575
H	 2.3670007297	 0.8016518413	 0.2671498751	 0.102327
H	 0.8599907231	-0.6092767731	 2.0690644489	 0.05842
H	 1.4373624752	-3.0169021389	 1.0266102882	 0.101024
H	 1.5899361011	-2.619206543	-1.6606156195	 0.101024
