18
gdb 119847	4.60834	0.95994	0.84469	1.7737	74.	-0.2443	0.0104	0.2547	1389.2692	0.14776	-439.077545	-439.069264	-439.06832	-439.111029	30.588	
C	 0.0474293662	 1.4921543415	-0.0792790228	-0.391972
C	-0.0356451405	-0.0209557814	-0.0385546289	-0.043149
O	 0.672570618	-0.52795455	-1.1864331835	-0.272422
C	 0.7376603894	-1.8534962599	-1.2946668854	 0.462498
N	 0.2211812086	-2.698547347	-0.4891298976	-0.335981
C	 0.5903337903	-4.0497168691	-0.9438534353	-0.187492
C	 1.3617350871	-3.8802138403	-2.2492166049	 0.035231
O	 0.5896219604	-3.2386424195	-3.2690881015	-0.245321
C	 1.4720171092	-2.431249881	-2.4684729443	-0.104806
H	 1.0877191772	 1.8277188081	-0.0412644829	 0.128245
H	-0.4073821028	 1.8835131971	-0.9936181299	 0.131655
H	-0.4831871074	 1.9156297778	 0.7785305594	 0.123245
H	 0.4184922773	-0.437849693	 0.8666830929	 0.12141
H	-1.0692946552	-0.3798606618	-0.0782341026	 0.12544
H	 1.2072154975	-4.539861575	-0.1805194219	 0.112292
H	-0.3088097575	-4.6608682319	-1.0807934912	 0.125477
H	 2.0984062711	-4.600283354	-2.5938711293	 0.105045
H	 2.2676071612	-1.9098780205	-2.9896590801	 0.110607
