15
gdb 4827	4.78043	1.38085	1.14019	1.8862	64.25	-0.2362	-0.0002	0.236	1031.4326	0.118976	-399.83523	-399.827362	-399.826418	-399.868056	27.558	
C	 0.1373062552	 1.3698375556	 0.1462677901	-0.488697
C	-0.0129289098	-0.0955591347	-0.0461222975	 0.383126
N	-0.3151309923	-0.7418891822	-1.1273639054	-0.297616
C	-0.309826232	-2.079278315	-0.7485228149	-0.198568
C	-0.0070226389	-2.1807039416	 0.5665710219	 0.311022
C	 0.1660279627	-3.2880324004	 1.5440512598	-0.185798
O	 1.5074648925	-3.4444292554	 1.9914614241	-0.40831
O	 0.1862127042	-0.8995085582	 1.0338790308	-0.218571
H	 1.1494576893	 1.6226996595	 0.4790010204	 0.145355
H	-0.061228359	 1.8714936245	-0.8009179219	 0.1597
H	-0.5612145409	 1.7426202819	 0.902547526	 0.145723
H	-0.5259921713	-2.8696830437	-1.4499411763	 0.125558
H	-0.5165969598	-3.144084753	 2.3962436479	 0.106358
H	-0.1088097568	-4.2276068404	 1.0574095008	 0.131167
H	 1.7727067268	-2.6133638471	 2.3991862941	 0.289551
