16
gdb 123949	3.57563	1.69311	1.19565	4.7152	69.41	-0.2335	0.0245	0.258	984.2814	0.129319	-434.101448	-434.094859	-434.093915	-434.132598	25.441	
C	-0.0112285321	 1.4968142577	-0.0058371193	-0.243319
C	 1.4178396768	 2.0371125134	 0.0278961538	-0.085429
O	 2.1162559361	 1.6271748378	 1.2161544972	-0.261358
C	 1.9513618565	 0.3394051523	 1.5387160991	 0.485867
N	 2.6621999678	-0.3243245812	 2.4234156149	-0.372592
C	 2.0758812983	-1.556492469	 2.3794368349	 0.033772
N	 1.0675617031	-1.6930103706	 1.5375018448	-0.275119
N	 0.991772535	-0.440955789	 0.9923137599	-0.044089
C	 0.004130912	-0.0363530634	 0.0130293853	-0.14853
H	-0.5579160636	 1.8779354976	 0.8630543971	 0.134042
H	-0.5188348922	 1.8574024433	-0.9047184702	 0.123273
H	 1.983311927	 1.6944549096	-0.849483993	 0.121628
H	 1.436452886	 3.1277000258	 0.047930188	 0.133893
H	 2.4111384797	-2.3795281313	 2.9930621242	 0.125872
H	-0.9662962485	-0.4496770357	 0.298264361	 0.142373
H	 0.2661750683	-0.4435485875	-0.9710608378	 0.129717
