14
gdb 7727	3.42535	1.90169	1.32032	3.7241	58.05	-0.2621	-0.0377	0.2243	875.7293	0.107367	-419.737189	-419.730302	-419.729357	-419.768808	25.329	
O	 0.0907447087	 0.2907098074	 0.947172884	-0.291952
C	-0.0178894031	 1.2097091807	 0.1775368561	 0.396502
C	-1.3120825927	 1.9874548239	-0.0282055237	-0.32469
C	-1.2259627433	 2.8837099872	-1.2584808718	-0.093208
O	-0.0845659858	 3.7536673295	-1.1938289768	-0.218507
C	 1.1298820514	 3.2092775389	-0.9222529219	 0.408482
O	 2.1041773757	 3.9039277	-0.8814406722	-0.311569
C	 1.1429681395	 1.7057764165	-0.6821496594	-0.450214
H	-2.1506997437	 1.2884601497	-0.0957671746	 0.14459
H	-1.474157563	 2.6004814523	 0.8673304859	 0.155819
H	-1.1814712335	 2.2893235155	-2.1804428851	 0.12125
H	-2.0876096209	 3.5488673822	-1.3317098486	 0.140093
H	 2.1004328662	 1.4087327032	-0.2568365191	 0.162799
H	 1.0428880245	 1.212944433	-1.6613641228	 0.160605
