16
gdb 42766	2.68872	1.59939	1.2716	1.7529	76.54	-0.2384	-0.0093	0.2291	1015.7329	0.12486	-400.702212	-400.694596	-400.693652	-400.734172	29.729	
O	-0.0174050207	-0.0222620871	-0.1674537655	-0.313447
C	-0.0292093873	 1.1486211778	 0.0556103219	 0.381767
C	-1.0499497138	 2.3004756842	 0.0386632753	-0.132719
C	-0.8123183911	 3.000209176	 1.384356616	-0.212201
C	 0.7530265202	 3.0107190873	 1.3922815067	-0.252025
C	 1.018950259	 2.3147637006	 0.0385401025	 0.10802
N	-0.0307720692	 3.0144849775	-0.8283546337	-0.339262
C	 2.3573572533	 2.1684300123	-0.447546562	 0.07598
C	 3.479057369	 2.0141273783	-0.8518927436	-0.329962
H	-2.0628666777	 2.190677223	-0.3418751123	 0.098758
H	-1.2277764182	 4.0095314951	 1.377053899	 0.12028
H	-1.2434347108	 2.4448799099	 2.2204940646	 0.1159
H	 1.1646231271	 4.0211118211	 1.3878141672	 0.125524
H	 1.1896250561	 2.4524900777	 2.2228060401	 0.120452
H	-0.0156172162	 2.581352784	-1.7532659885	 0.240487
H	 4.4698318804	 1.8783510521	-1.2097137378	 0.192449
