18
gdb 19587	4.23693	1.94505	1.80606	1.6213	69.99	-0.2406	0.0909	0.3315	816.0628	0.155706	-347.751089	-347.744707	-347.743763	-347.781099	26.654	
C	-0.0183149249	 1.5898412103	 0.0183681768	-0.426943
C	-0.0581980757	 0.0676578335	-0.0033083577	 0.024047
C	 1.1221027662	-0.6118667602	-0.746341599	 0.054041
O	 1.9557828995	-0.312098101	 0.4329966153	-0.306157
C	 0.7076347432	-0.6280444607	 1.1527444869	 0.054044
C	 0.5892915645	-2.144883621	 0.8980888871	-0.041462
C	-0.4089413049	-2.6702228197	-0.1031775331	-0.31077
C	 0.9138089532	-2.1322163401	-0.5888403931	-0.041461
H	 0.988085282	 1.9491895068	 0.2410137602	 0.137932
H	-0.3285189907	 1.9987065981	-0.9495922471	 0.111402
H	-0.7049418637	 1.9839998155	 0.7756851645	 0.111402
H	-1.0699049849	-0.2747726412	-0.227027987	 0.063714
H	 1.5357529064	-0.2352258695	-1.6823094076	 0.073874
H	 0.6923974295	-0.2681366666	 2.1819358253	 0.073874
H	 1.0737939483	-2.822674175	 1.5902250237	 0.095952
H	-0.5049136461	-3.7521244157	-0.1333432896	 0.111928
H	-1.3427411437	-2.1593116469	-0.3026215345	 0.118631
H	 1.6450161419	-2.8003847566	-1.027112031	 0.095952
