23
gdb 100983	2.08309	1.25814	1.1195	1.7821	82.47	-0.2513	0.0797	0.331	1303.8848	0.201734	-425.405997	-425.394927	-425.393983	-425.441973	40.091	
C	 0.6891794774	 1.7311779474	-1.0133974911	-0.233971
O	 0.0003754977	 0.5151927876	-1.1909342637	-0.248474
C	 0.7978375021	-0.6537766604	-1.0161770337	 0.041026
C	 1.1267773592	-0.952808635	 0.4477648612	-0.402407
C	 0.0721784067	-1.8033034642	-1.7344637967	 0.391479
C	 0.6880549809	-2.1874585698	-3.0631800957	-0.476425
O	-0.3307719959	-2.9195347691	-0.922850593	-0.297026
C	-1.3548122424	-2.0988246896	-1.5040571213	 0.04886
C	-2.2937214508	-1.3617864077	-0.5840291302	-0.417271
H	 1.0080995593	 1.8934434152	 0.0262005086	 0.108947
H	 1.5802312417	 1.7900728971	-1.658673307	 0.102674
H	 0.0005622029	 2.533070757	-1.2919215382	 0.126818
H	 1.751893398	-0.4926402955	-1.5459840476	 0.063324
H	 1.7453428198	-1.8523499676	 0.5112254509	 0.127998
H	 1.6865109069	-0.1255802057	 0.8936118084	 0.108198
H	 0.2269268664	-1.1303081516	 1.0384978196	 0.132647
H	 1.7207206022	-2.5281974353	-2.9261633304	 0.121869
H	 0.1240285516	-2.9936316579	-3.5384232234	 0.123792
H	 0.7054752389	-1.3244997822	-3.7378767124	 0.126333
H	-1.8654696382	-2.5920425915	-2.3359826405	 0.078229
H	-1.7692136987	-0.7972353771	 0.1845901893	 0.132701
H	-2.8957122382	-0.6554065706	-1.164493648	 0.123175
H	-2.9751859476	-2.0728200235	-0.1039302552	 0.117505
