20
gdb 59705	2.05783	1.55159	0.99595	2.9813	75.89	-0.2291	-0.0331	0.196	1227.701	0.168732	-440.249089	-440.239529	-440.238585	-440.283593	34.488	
C	-0.2601737412	 1.3983708841	-0.7980544288	-0.322653
N	-0.1245113647	 0.0096618355	-0.3741985933	-0.067975
C	 0.6261824148	-0.0790985077	 0.8771633733	-0.340484
C	-1.4129955476	-0.6376644748	-0.2598616539	 0.004784
C	-2.2674884124	-0.7646338677	-1.5381047419	-0.109027
O	-2.4188102952	-2.1878175003	-1.3428925425	-0.285701
C	-1.4439195152	-2.1976732528	-0.284610163	 0.008788
C	-0.1527219691	-2.8656828079	-0.7321325644	 0.143619
O	 0.6966401973	-3.2592780407	 0.025255383	-0.24138
H	 0.7338851331	 1.8370485621	-0.9237722496	 0.127007
H	-0.7775429325	 1.4569543136	-1.7599465163	 0.122328
H	-0.8159750243	 2.0182261912	-0.0691623018	 0.096502
H	 0.1240428569	 0.4528133325	 1.7071211528	 0.092299
H	 0.7612582761	-1.1241457461	 1.1631774429	 0.152629
H	 1.6154333589	 0.3664905637	 0.7382204384	 0.122143
H	-2.0065314233	-0.2482733192	 0.5871098459	 0.069701
H	-3.2316089365	-0.246870726	-1.5478051821	 0.113887
H	-1.7163600507	-0.5398160627	-2.4596711612	 0.110453
H	-1.8119305039	-2.6893363744	 0.6224467421	 0.107935
H	-0.0688759307	-2.9822658221	-1.8347616197	 0.095144
