19
gdb 52450	6.44132	0.46495	0.45467	3.0194	77.21	-0.2579	0.0187	0.2765	2321.3661	0.15809	-456.363206	-456.352666	-456.351721	-456.402154	34.649	
N	-0.1796646691	 1.2564651658	-0.3579682224	-0.436653
C	-0.0999455096	 0.0034981987	-0.2322067972	 0.128676
O	-1.2123735883	-0.724296299	-0.0158545927	-0.182968
C	-1.0255387558	-2.1169466992	 0.234800792	-0.072266
C	-2.3842178218	-2.7943381211	 0.1322109177	-0.201565
C	-2.30473322	-4.2884171007	 0.466638595	-0.164747
N	-3.5912452647	-4.9544308381	 0.3579536295	-0.277018
C	-3.86922252	-5.8729494656	-0.6076623404	 0.15486
O	-3.0890658342	-6.2602229966	-1.451047371	-0.319764
H	 0.743527533	 1.6465171218	-0.5356897576	 0.229832
H	 0.81641936	-0.6012446911	-0.2904797533	 0.084226
H	-0.3244908001	-2.5436612112	-0.4960047252	 0.114708
H	-0.5946212018	-2.2579046293	 1.2365488975	 0.108792
H	-3.0781478815	-2.2888406778	 0.814400478	 0.112464
H	-2.7782347372	-2.6642369911	-0.8807715223	 0.130867
H	-1.6407985579	-4.8070976067	-0.2296134447	 0.153384
H	-1.9037444522	-4.429528182	 1.4787937176	 0.110914
H	-4.3312234344	-4.6913065292	 0.9894896352	 0.248704
H	-4.9111973944	-6.2417781574	-0.5324165256	 0.077554
