17
gdb 126420	5.31023	0.85437	0.78095	2.2352	80.26	-0.2572	-0.0635	0.1937	1458.8639	0.136936	-418.054027	-418.045436	-418.044492	-418.088511	30.642	
C	 0.0249901537	 1.4608001311	-0.4330796942	-0.371533
C	-0.066880841	 0.0978066924	 0.2739527288	-0.284208
C	-1.4192003761	-0.5376816444	 0.1499635874	 0.358637
N	-2.2782550346	-0.52163937	 1.1809380859	-0.264753
N	-3.375095949	-1.1351594473	 0.7358020278	-0.238345
C	-3.2662652813	-1.5568924291	-0.5521860921	 0.3074
C	-4.3592842023	-2.2560390554	-1.2126687938	 0.082848
O	-5.4177682252	-2.5011985776	-0.6713611534	-0.294198
C	-1.9961926619	-1.1794715489	-0.9655379363	-0.384204
H	 1.0261914706	 1.8881566478	-0.3222185266	 0.116127
H	-0.1854825451	 1.3675082491	-1.5033691125	 0.11723
H	-0.696510606	 2.1665290615	-0.0107836192	 0.128949
H	 0.6912418738	-0.5782443011	-0.1385373822	 0.108175
H	 0.1561318065	 0.2171356827	 1.3383049925	 0.123129
H	-4.1781248816	-1.2632314071	 1.3311672026	 0.289452
H	-4.1557897072	-2.5541032322	-2.2614431622	 0.087922
H	-1.5558006634	-1.3513674316	-1.9352271925	 0.117373
