19
gdb 99712	1.96874	1.08943	0.73477	1.5233	81.47	-0.2515	0.0353	0.2868	1568.9235	0.155676	-422.960253	-422.949655	-422.948711	-422.997903	35.694	
C	 0.6863921989	-0.5904999316	 1.0867533836	-0.23385
O	-0.0608772233	-0.7968204706	-0.094148774	-0.234857
C	 0.6386629252	-0.4636131162	-1.283982737	-0.093752
C	 1.814184591	-1.3129359427	-1.512766669	 0.105649
C	 2.7647520655	-2.0251558458	-1.7119084062	 0.043296
C	 3.915665157	-2.8799469663	-1.962611447	-0.500315
C	-0.3682725739	-0.6025350569	-2.4141295393	 0.08604
C	-1.2115613802	 0.5266850098	-2.8107674357	-0.177975
O	-0.0810107716	 0.1343909357	-3.5966676551	-0.232828
H	 1.5906176372	-1.2127986264	 1.1110877244	 0.119378
H	 0.9849958091	 0.4639900064	 1.1953873909	 0.103098
H	 0.0384025752	-0.8632738166	 1.9226769445	 0.127465
H	 0.9615735	 0.5911211078	-1.2498186001	 0.09211
H	 4.1345426273	-2.9365744038	-3.0344596467	 0.1557
H	 4.8122274141	-2.5021159394	-1.4592896626	 0.149805
H	 3.7369584224	-3.9002126019	-1.6062531654	 0.151586
H	-0.7275122389	-1.6182804389	-2.5745875417	 0.105806
H	-2.1840835488	 0.3406731711	-3.262924511	 0.117751
H	-1.112050886	 1.4789231362	-2.2917078127	 0.115895
