26
gdb 88953	2.71345	0.97364	0.89	1.1899	93.04	-0.2194	0.0728	0.2922	1511.293	0.238239	-369.590629	-369.579677	-369.578733	-369.626102	41.956	
C	-0.3628856213	 1.3393830215	-0.0936437438	-0.314175
N	 0.0632035365	-0.0481010312	-0.0067246776	-0.079471
C	 1.4735794549	-0.3199504757	-0.2545459126	-0.26298
C	 0.8999259791	-0.5182218347	 1.1082076383	 0.010567
C	 1.3572414407	 0.3306714559	 2.2813988711	-0.224008
C	 0.5336089934	 0.1964539902	 3.5908893416	 0.265398
C	 0.6355140674	-1.234920107	 4.1517383465	-0.404077
C	 1.1268697666	 1.172803385	 4.6236543758	-0.404074
C	-0.945583275	 0.5488777365	 3.3550557266	-0.40433
H	 0.3872591948	 2.0783104197	 0.2319327915	 0.098009
H	-0.6065561706	 1.5576208991	-1.1387367543	 0.12156
H	-1.268885854	 1.4851565619	 0.5019479245	 0.122843
H	 1.7013797433	-1.165847134	-0.898994566	 0.108434
H	 2.1349956718	 0.5375188573	-0.3860290046	 0.099374
H	 0.6562489148	-1.5446533199	 1.3773593328	 0.087725
H	 2.3963141023	 0.0551439439	 2.5090135843	 0.096812
H	 1.3886534005	 1.3855372512	 1.9872439945	 0.091127
H	 1.6800769903	-1.5243448457	 4.313034178	 0.106833
H	 0.1176777514	-1.3076890237	 5.1142974222	 0.108594
H	 0.181737061	-1.9728094769	 3.4831970821	 0.115735
H	 1.0660540564	 2.2088502634	 4.271875595	 0.1068
H	 0.5887230454	 1.1116829723	 5.5758523159	 0.107447
H	 2.1811383225	 0.9491681707	 4.8221925072	 0.107008
H	-1.4053858777	-0.1156825581	 2.6169507163	 0.125619
H	-1.5169253695	 0.4599327404	 4.2856180936	 0.106136
H	-1.0562668653	 1.5781647383	 2.996960051	 0.107094
