16
gdb 66752	2.79334	2.10622	1.52363	3.0256	71.13	-0.2324	-0.0219	0.2105	878.218	0.124504	-400.67557	-400.668686	-400.667742	-400.706665	27.379	
C	-0.0287706139	 1.5386548115	-0.0098557406	-0.508623
C	-0.0385294278	 0.0463893366	 0.1034710807	 0.207043
C	-1.177539766	-0.8894430418	 0.6725459274	-0.117857
C	-1.4339617595	-1.3717448498	-0.7807095841	-0.065867
C	-0.1751138721	-2.1422800673	-0.692442449	-0.038081
C	-0.0041409205	-1.9574046173	 0.8232758284	-0.220608
C	 0.9593586356	-0.7670234061	 0.952031988	 0.430467
O	 1.9182616306	-0.5006308467	 1.613681026	-0.319315
N	-0.1680371305	-0.7100460542	-1.2104967835	-0.175141
H	 0.8355774872	 1.8609750499	-0.5991852506	 0.142865
H	-0.9323568305	 1.904346138	-0.5072647821	 0.127084
H	 0.0400362075	 2.0001469509	 0.9797879422	 0.130443
H	-1.8669116838	-0.6403994157	 1.4735725841	 0.092738
H	-2.3067727443	-1.4596390271	-1.4152551148	 0.105907
H	 0.2410883067	-2.904106833	-1.3382525055	 0.112065
H	-0.0190186387	-2.8129803279	 1.4919122634	 0.096882
