14
gdb 27868	2.02785	1.88967	0.97816	4.7585	70.03	-0.203	-0.0103	0.1926	1107.0452	0.103521	-470.071201	-470.063887	-470.062942	-470.102866	28.747	
O	 0.0184506184	 1.3277336173	 0.0080082294	-0.413093
C	-0.0096271609	-0.0173806087	 0.0008230556	 0.431624
C	-1.191359702	-0.6881301405	 0.0034248934	-0.256476
C	-1.2042280742	-2.1275972178	-0.0043490278	 0.383912
N	-2.2644655693	-2.8460243477	-0.0026437367	-0.562658
N	 0.1156521873	-2.6718950421	-0.0143075825	-0.412055
C	 1.2238373315	-1.9054752529	-0.0159974152	 0.518398
O	 2.3668037344	-2.602863612	-0.0258588	-0.402314
N	 1.2337511308	-0.6112157755	-0.0089967626	-0.483565
H	 0.9498379682	 1.5837117757	 0.0044744394	 0.299946
H	-2.136089331	-0.1655768824	 0.0112747039	 0.119955
H	-2.0511413147	-3.8437391675	-0.0092103239	 0.193521
H	 0.2294333885	-3.6751558223	-0.0203757943	 0.265305
H	 3.082869823	-1.9524438937	-0.0261065786	 0.3175
