21
gdb 39540	3.27354	1.44718	1.0575	0.359	93.24	-0.2024	-0.0051	0.1973	1167.0651	0.1865	-349.997411	-349.990037	-349.989093	-350.028971	30.456	
C	-0.011087228	 1.5930002494	-0.003938976	-0.307435
C	 1.4694378887	 1.9107448815	-0.0135655462	-0.082185
C	 2.2090221669	 0.8498623526	 0.3424762258	-0.15724
C	 1.3553419044	-0.30416579	 0.6134667727	 0.348962
C	 1.6253165733	-1.4232570146	 1.2928065837	-0.215911
C	 0.5632916554	-2.4316729817	 1.6509304472	-0.234256
C	-0.8029399599	-2.1460804867	 0.994055688	-0.207154
C	-1.117126982	-0.6416590744	 0.9142768785	-0.22296
C	-0.03076763	 0.0446825214	 0.0872584043	-0.049023
H	-0.4934476956	 2.0537089567	 0.8713534898	 0.107048
H	-0.5409756344	 1.9736078479	-0.8840477203	 0.101322
H	 1.8564375862	 2.8999165408	-0.2306250874	 0.094336
H	 3.2856776454	 0.8430079585	 0.4699579695	 0.092685
H	 2.6288291509	-1.6016123332	 1.6741446369	 0.073325
H	 0.8939282059	-3.4458952483	 1.3889646763	 0.100818
H	 0.4539847732	-2.4441201083	 2.7467090889	 0.104671
H	-0.8044044412	-2.5527383209	-0.0254734547	 0.097785
H	-1.5912927198	-2.6761494787	 1.5389770439	 0.089796
H	-2.1087681538	-0.4837441609	 0.4746006127	 0.08812
H	-1.1406674339	-0.20853442	 1.923229439	 0.093369
H	-0.096896392	-0.3355449112	-0.9432546226	 0.083928
