17
gdb 11130	6.59358	0.98988	0.92624	4.2563	67.33	-0.239	0.0278	0.2668	1224.0619	0.141864	-400.999723	-400.991159	-400.990215	-401.034337	29.27	
O	 0.0734872606	 1.2478444297	-0.410248776	-0.420705
C	 0.005661351	-0.1202215046	-0.0424606634	-0.089538
C	-1.4520602862	-0.4523999331	 0.2035280531	 0.008331
C	-2.3515487877	-0.4604910579	-1.0699123739	-0.187421
N	-2.5587844807	-1.8956244333	-0.8527270722	-0.033492
C	-1.7711225963	-1.9678714796	 0.3761136415	-0.198072
C	-3.2870062332	-2.8457958306	-1.4739255679	 0.129556
O	-3.3723591367	-3.9999226301	-1.1033533327	-0.334169
H	 0.9883370864	 1.465441664	-0.6113605251	 0.29186
H	 0.4008862686	-0.7715592813	-0.8397014338	 0.092522
H	 0.5901944968	-0.3252974694	 0.8690005749	 0.094384
H	-1.8418151349	 0.1794033528	 1.0032529715	 0.095993
H	-3.2649409712	 0.1395841935	-1.0000445863	 0.118232
H	-1.8302576074	-0.2085783626	-1.9996608688	 0.121961
H	-0.9120610412	-2.6457209152	 0.3119733324	 0.120166
H	-2.359871984	-2.2342403169	 1.2595680886	 0.124411
H	-3.8015142538	-2.4496489055	-2.3744226419	 0.065982
