15
gdb 4064	7.48406	0.96575	0.89206	2.0829	67.18	-0.2536	-0.0308	0.2228	1214.0994	0.116728	-399.752057	-399.744036	-399.743092	-399.785367	28.481	
O	-0.1263981481	 1.3119807659	 0.2030438979	-0.392226
N	 0.0118382209	-0.0859852017	 0.1606881428	-0.224157
C	-1.1019573589	-0.644693974	-0.0556819824	 0.426781
C	-2.5152231972	-0.1849526204	-0.3429411386	-0.343969
C	-2.8438150742	-1.6580578862	-0.7807564041	-0.068079
C	-1.4384843387	-2.1085807617	-0.2341697142	-0.338906
C	-4.029563534	-2.2828307169	-0.1010669672	 0.162999
O	-4.9466915138	-2.8261180092	-0.6592099159	-0.248862
H	 0.7799044415	 1.6019777272	 0.3529975909	 0.309956
H	-3.05431885	 0.1354807157	 0.5564496041	 0.132362
H	-2.6317850967	 0.5877988422	-1.1054982738	 0.142596
H	-2.9403566142	-1.7729511042	-1.8606281197	 0.1042
H	-0.8159953444	-2.6838440248	-0.9223293617	 0.137988
H	-1.505129941	-2.6547228684	 0.7142301034	 0.128963
H	-3.9997846112	-2.2033710236	 1.0135805583	 0.070356
