15
gdb 76484	3.52207	1.08209	1.0226	4.7379	62.24	-0.2526	0.0074	0.26	1167.6157	0.110643	-494.886223	-494.877943	-494.876999	-494.91926	30.747	
O	 0.0671863042	 1.4329462	 0.288976374	-0.422933
C	 0.0799534978	 0.0444324444	 0.0863619581	-0.06204
C	-0.5327129824	-0.8131788753	 1.1948289041	 0.004614
O	-0.9898420077	-0.1711290008	 2.3427970111	-0.424014
C	-1.2606296953	-0.5811601209	-0.0931848528	 0.371883
C	-2.6130473953	 0.0601818998	-0.330310437	-0.486481
C	-2.7594672054	-1.0756582359	-1.3502888465	 0.432542
O	-3.5594544603	-1.472310235	-2.1303612082	-0.304668
O	-1.5093915245	-1.6049425969	-1.0853466959	-0.263593
H	 0.9153630442	 1.6868656106	 0.6706348496	 0.30392
H	 0.9113133775	-0.3567560281	-0.4900502725	 0.118611
H	-0.1064580014	-1.7925799464	 1.3914211148	 0.125145
H	-0.8728266896	 0.7768431177	 2.1877053897	 0.289945
H	-3.3122598689	 0.0145179416	 0.5061740811	 0.158959
H	-2.608006593	 1.0603652451	-0.7659885498	 0.158109
