18
gdb 7650	4.71106	1.28943	1.09343	1.8617	68.35	-0.2325	-0.0154	0.2171	1111.7841	0.151288	-384.949364	-384.940499	-384.939555	-384.984069	31.115	
C	-0.2073634148	 1.5234777885	 0.3460837289	-0.398098
C	 0.5137972348	 0.1923112228	 0.3509289902	 0.168995
C	 0.3435382322	-0.7355024703	-0.8747960612	-0.306941
C	 1.8651425202	-0.5744739891	-1.0324397704	 0.049824
O	 1.939587447	 0.3384767608	 0.0837844888	-0.311955
C	 2.7085977997	-1.8365350287	-0.8517532804	 0.343582
C	 3.9895185896	-1.6787187587	-0.063624678	-0.474067
O	 2.351719025	-2.8817356955	-1.3452859431	-0.29764
H	-0.075267688	 2.0342589091	-0.6128927829	 0.120435
H	-1.2792286068	 1.3758970016	 0.5184974656	 0.1193
H	 0.1799276501	 2.172409399	 1.1377356333	 0.128649
H	 0.363782844	-0.3176662448	 1.3120946152	 0.080624
H	 0.014373093	-1.755980389	-0.6797020803	 0.129013
H	-0.2508207426	-0.3092406019	-1.6845365022	 0.110807
H	 2.1972653502	-0.0932526957	-1.9652155256	 0.102251
H	 3.7603437174	-1.314499475	 0.941965081	 0.156174
H	 4.520128443	-2.6302585052	-0.0203664996	 0.137112
H	 4.6246237761	-0.9146945479	-0.5270515593	 0.141935
