19
gdb 80495	2.20893	1.44848	1.20926	0.8526	83.68	-0.2306	0.0327	0.2634	1151.6309	0.156856	-385.821546	-385.812392	-385.811448	-385.854872	35.016	
C	 0.0376903559	 1.6326000329	-0.3314693278	-0.428215
C	 0.1748628642	 0.132445637	-0.1879234591	-0.077357
C	 1.4429775384	-0.6131806611	-0.4147323006	 0.030635
O	 2.5739906775	 0.1259573469	 0.0348188508	-0.302904
C	 2.1476681264	-0.0112162331	 1.4234560961	 0.10825
C	 2.2287995644	 1.2505721915	 2.2559336674	-0.422785
C	 0.8094134652	-0.6337919939	 0.9858365096	 0.048831
C	 0.1265344759	-1.6524207746	 1.7007678917	 0.193293
C	-0.4449552296	-2.5041420211	 2.3321394728	-0.4115
H	 1.0106981065	 2.1216987409	-0.2641044044	 0.140634
H	-0.3878942763	 1.8709554331	-1.3121271195	 0.118785
H	-0.6251243344	 2.0553715124	 0.4301435567	 0.122378
H	-0.6863711992	-0.4340050131	-0.537654137	 0.102919
H	 1.6086378627	-1.4088803665	-1.132613015	 0.113688
H	 2.7573774158	-0.7980171735	 1.8862452933	 0.091484
H	 3.2619586868	 1.6122708403	 2.2820767548	 0.129877
H	 1.5907266815	 2.0484760383	 1.8748560441	 0.127337
H	 1.925414135	 1.0244076578	 3.2836403209	 0.129259
H	-0.9498343068	-3.2581368641	 2.8830135552	 0.185391
