18
gdb 126373	5.50593	0.86614	0.80085	1.7625	75.92	-0.2227	-0.0007	0.222	1483.9217	0.14789	-435.282891	-435.273581	-435.272637	-435.318174	32.607	
C	 0.2926402957	 1.3952840722	-0.2489304925	-0.381394
C	-0.1337253419	-0.0376286435	 0.1141491783	-0.296879
C	 0.5965105467	-0.5736320758	 1.298788721	 0.432978
N	 0.1115416847	-0.9030697466	 2.4580484106	-0.381907
C	 1.2439274691	-1.3131708268	 3.1355191021	 0.437525
N	 1.1661822825	-1.7971576777	 4.4049199295	-0.376695
C	 2.3726895793	-1.9870062228	 5.1892564834	-0.323746
N	 2.3658493577	-1.2299342337	 2.4514455348	-0.229659
O	 1.9177892954	-0.738292252	 1.1993911909	-0.21328
H	 1.3608544075	 1.4389084316	-0.4756401741	 0.142101
H	-0.2600855321	 1.7424852421	-1.1259683108	 0.122899
H	 0.0910215447	 2.0840788282	 0.5765037265	 0.131946
H	-1.2004964128	-0.0811688498	 0.3441281395	 0.137484
H	 0.0491173963	-0.7025478287	-0.7378379997	 0.133678
H	 0.3276683038	-1.5248937742	 4.892160765	 0.255657
H	 2.9029839975	-1.0465910698	 5.3941180628	 0.126845
H	 2.1080403528	-2.4616821334	 6.1362356946	 0.125777
H	 3.0572692633	-2.6454665693	 4.6483508281	 0.156672
