19
gdb 111394	1.99694	1.63171	1.04568	3.0663	75.19	-0.243	-0.0299	0.2131	1181.8737	0.157508	-422.994648	-422.985725	-422.984781	-423.028959	32.597	
C	 0.0681727911	 1.5470249891	 0.0006056291	-0.395433
C	 0.0179375395	 0.0251858289	-0.1775363622	-0.200356
C	-1.3776346409	-0.5615187986	 0.0096433996	-0.018479
C	-1.544154613	-2.0842575039	-0.0869464484	 0.008695
O	-0.8682011489	-2.6704803463	 1.0335358267	-0.242297
C	-2.1927280627	-2.1603419349	 1.2279889987	-0.002215
C	-2.0555912899	-0.6427670269	 1.4606310073	-0.139727
C	-1.2365437267	-0.2463492301	 2.6624498071	 0.152969
O	-1.4227707914	 0.759316153	 3.3040451404	-0.261271
H	 1.083692478	 1.9247262411	-0.1510449551	 0.116876
H	-0.5851133278	 2.0487898261	-0.7220024311	 0.112976
H	-0.2538776963	 1.8466846934	 1.0022286061	 0.14264
H	 0.3599903984	-0.2357139591	-1.1880989482	 0.098743
H	 0.7132348199	-0.4647669296	 0.5124486187	 0.114688
H	-2.0892928729	-0.0636456528	-0.6579584454	 0.089324
H	-1.6547725759	-2.7036672646	-0.9694466729	 0.10976
H	-2.9385121906	-2.8426486036	 1.6178012109	 0.115599
H	-3.004295074	-0.1034803865	 1.4808154202	 0.098755
H	-0.427790246	-0.9585159946	 2.9289379887	 0.098753
