25
gdb 68186	2.81958	1.30332	1.27449	0.1024	92.28	-0.2862	0.0839	0.3701	1205.1212	0.229625	-352.364022	-352.354937	-352.353992	-352.39663	37.576	
C	-0.02024372	 1.540281674	 0.0186043268	-0.496167
C	 0.033288159	 0.0296005466	 0.0265645213	 0.356761
C	 0.9145073841	-0.7810303405	-0.9719542144	-0.270987
C	 0.719145989	-1.9144218748	 0.0777167955	-0.038814
C	 0.774746201	-0.7748264071	 1.137340998	-0.270985
C	-0.8019919168	-2.2266469162	-0.0222024526	 0.352814
C	-1.1650530415	-3.0161415079	-1.2891950937	-0.447151
C	-1.3294063456	-3.0089974366	 1.190295924	-0.447161
C	-1.308763569	-0.7367726029	-0.060097421	-0.296247
H	 0.9829886414	 1.975417965	 0.0834486143	 0.10952
H	-0.4884211086	 1.9157656078	-0.8990848551	 0.11218
H	-0.6046550711	 1.9209187105	 0.864719473	 0.112184
H	 0.5478325928	-0.9257107245	-1.9913086372	 0.085005
H	 1.9448320971	-0.4161610607	-1.0008061342	 0.08864
H	 1.3904975544	-2.774269257	 0.1247252043	 0.049687
H	 1.792397933	-0.4093938296	 1.2997459689	 0.088643
H	 0.2767269383	-0.9136683232	 2.1002341613	 0.085004
H	-0.7141602482	-4.0153022247	-1.2673494988	 0.106965
H	-2.2504975585	-3.1473607653	-1.3640669378	 0.10918
H	-0.8316341438	-2.5211321432	-2.2046267209	 0.110698
H	-1.119626677	-2.5085804824	 2.138868171	 0.110696
H	-2.4152744048	-3.1402737934	 1.1219497242	 0.109179
H	-0.8798895728	-4.0080641042	 1.233934042	 0.106965
H	-1.9693979896	-0.4988902936	 0.7810052752	 0.086696
H	-1.8525704326	-0.5040109562	-0.9823634739	 0.086695
