20
gdb 111218	3.03834	1.08868	0.92964	2.6902	77.16	-0.2355	0.0832	0.3187	1342.3082	0.16992	-440.18078	-440.171671	-440.170727	-440.215259	33.074	
C	-0.1044702632	 1.3250740678	-0.3192203362	-0.242505
O	-0.0740918592	 0.0550218972	 0.2924541986	-0.245051
C	-1.2902853801	-0.6100290729	 0.2295518113	 0.218473
C	-1.6586874183	-1.473396395	-1.0255698063	-0.143207
N	-0.5403095289	-2.4094260033	-0.6139543723	-0.311795
C	-1.2774862194	-2.0887773551	 0.6772539709	-0.140241
C	-2.6151028522	-2.2787423494	-0.0780485756	 0.147765
O	-3.7679500224	-1.7182562417	 0.4748613659	-0.2482
C	-4.8895591908	-1.7895779718	-0.3819753873	-0.243468
H	 0.8702923964	 1.7884571362	-0.151212027	 0.128965
H	-0.280800913	 1.2553156293	-1.4029728348	 0.106894
H	-0.8849332282	 1.968865335	 0.11683603	 0.10253
H	-2.1110349342	-0.0023156299	 0.6250085548	 0.083948
H	-1.8027325867	-1.1706252575	-2.0635544014	 0.077318
H	-0.7771988958	-3.3653085218	-0.905013053	 0.203985
H	-0.9727868141	-2.5006971388	 1.6395183451	 0.086005
H	-2.7926675374	-3.3101976987	-0.4199621821	 0.066711
H	-5.7403102575	-1.3733702212	 0.1618774782	 0.131831
H	-4.7384423543	-1.2111856484	-1.3049693936	 0.110685
H	-5.1186968709	-2.8298778099	-0.6592588353	 0.109357
