16
gdb 80805	2.00135	1.6949	1.22519	3.5758	70.74	-0.2655	-0.0099	0.2556	1068.3317	0.122854	-437.824359	-437.816037	-437.815093	-437.857074	31.321	
C	-0.0859526474	 1.5849683804	 0.0188300845	-0.439794
C	-0.0357476153	 0.0720790908	-0.0286374631	-0.011463
C	 1.2342704843	-0.6326527422	-0.5896396107	-0.014612
O	 1.9889074949	-0.2192336356	 0.6228747589	-0.325163
C	 0.6877233245	-0.6904987357	 1.1268667483	 0.265986
C	 0.4276830893	-0.6664203986	 2.5424633792	 0.156912
N	 0.1719146925	-0.6808042733	 3.6701116464	-0.341488
C	 0.8692207688	-1.9295071645	 0.1637640069	 0.090669
O	-0.2206331014	-2.6517895124	-0.2983779414	-0.416556
H	 0.8770481773	 1.9988136782	 0.3242666267	 0.143479
H	-0.3445826286	 1.987974592	-0.9657638374	 0.124372
H	-0.8513724951	 1.9232636192	 0.7245242205	 0.132832
H	-0.9769823665	-0.3872616453	-0.3353255032	 0.109717
H	 1.7318021818	-0.5115568266	-1.5501653716	 0.111698
H	 1.7361604535	-2.5371311239	 0.4394521285	 0.109345
H	-0.3602427525	-3.4098951227	 0.2781385176	 0.304067
