15
gdb 34903	1.96033	1.93688	1.21349	6.5339	72.65	-0.3096	-0.0044	0.3051	1023.5208	0.11371	-379.664612	-379.656903	-379.655959	-379.697242	28.449	
N	-0.2579624471	-1.2025748579	-0.0004990618	-0.320598
C	-0.1490631702	-0.0521414183	 0.0162909702	 0.303206
C	-0.0207651515	 1.3977234374	 0.0560241848	-0.189759
C	-0.2855630403	 2.097389067	 1.4008164905	-0.04811
C	 0.7391530356	 1.6887987213	 2.4176000609	-0.291485
C	 1.110896265	 2.7167680998	 1.3899995691	-0.048125
C	 1.4343149673	 2.0430949957	 0.0447302045	-0.189781
C	 2.5945372803	 1.1647088759	-0.0048771935	 0.303226
N	 3.5201255232	 0.4731158618	-0.0298629806	-0.320609
H	-0.608775795	 1.8280038158	-0.7571223223	 0.140552
H	-1.2345367222	 2.5439920798	 1.6649513683	 0.116531
H	 0.5723680409	 2.0820741124	 3.4142904237	 0.134685
H	 1.1794917472	 0.6957451969	 2.3956112138	 0.153174
H	 1.4202091256	 3.7214546348	 1.6443678544	 0.116534
H	 1.4995716912	 2.7630154375	-0.773541992	 0.140559
