18
gdb 65734	4.28602	0.98922	0.94626	1.812	72.01	-0.2484	-0.026	0.2224	1262.8793	0.145693	-439.038547	-439.029823	-439.028878	-439.072421	32.365	
O	 0.1145456176	 1.3643713243	 0.0458165632	-0.468128
C	 0.0199800325	-0.0486539548	 0.0756839814	 0.375165
C	 1.001479873	-0.6765289915	-0.9189666993	-0.357977
C	 2.4076068216	-0.143509281	-0.7310470825	 0.166888
O	 3.0857983226	 0.3070126006	-1.6171118461	-0.241066
C	 0.0913754825	-0.6032591663	 1.5231487558	-0.210691
N	-1.2389686247	-1.2964672508	 1.39073595	-0.125038
C	-2.2118066034	-0.2185690073	 1.1445136289	-0.249606
C	-1.3827618112	-0.6668262256	 0.010802984	-0.086995
H	 0.0149711791	 1.6645009874	-0.8655231041	 0.283543
H	 1.0133424355	-1.766229405	-0.7830692969	 0.136398
H	 0.6934770383	-0.4750519316	-1.9519999515	 0.115145
H	 2.7917366484	-0.1999852009	 0.3122248397	 0.082357
H	 0.8855624777	-1.3328815031	 1.6919835003	 0.11279
H	 0.1208239838	 0.159676475	 2.3060070563	 0.120465
H	-3.2405607	-0.5635395827	 1.1718331786	 0.125137
H	-2.0388207164	 0.7634034088	 1.578083576	 0.128867
H	-1.7812080969	-1.2257965254	-0.8310042038	 0.092746
