18
gdb 23222	3.58191	1.32161	1.13317	1.1623	82.92	-0.22	-0.0311	0.1889	1101.5439	0.150218	-401.90884	-401.901641	-401.900697	-401.940195	29.551	
O	-0.0842951169	 1.3482128744	 0.04069433	-0.395065
N	 0.0322646773	-0.0517029049	 0.0267561475	-0.249948
C	-1.1130415423	-0.6302524797	-0.0007423998	 0.400481
C	-2.4348335177	 0.0040186107	-0.0175367036	-0.136136
C	-3.4963784571	-0.8167364953	-0.0462906392	-0.077582
C	-3.261673415	-2.3106038164	-0.0591623042	-0.064451
C	-2.1875170971	-2.6445879393	 1.0254658665	-0.225999
C	-1.1392775961	-2.1403565597	-0.0185528416	-0.100311
C	-2.1486000572	-2.6200620869	-1.1113396946	-0.225999
H	 0.8373510495	 1.6248511376	 0.0606524068	 0.306038
H	-2.5112123611	 1.0825176251	-0.006549434	 0.116111
H	-4.5118862238	-0.4334315031	-0.0603854682	 0.100054
H	-4.1872270563	-2.8871554235	-0.0826369069	 0.064001
H	-2.2551882232	-2.1252626133	 1.983724613	 0.104798
H	-2.0929941895	-3.7215684431	 1.1867523166	 0.10073
H	-0.1292740622	-2.5497248375	-0.0048564121	 0.077748
H	-2.0478173834	-3.6930974966	-1.2937476482	 0.10073
H	-2.1815535378	-2.0788569485	-2.0592580079	 0.104798
