19
gdb 87925	3.50162	1.09425	1.0217	2.2744	77.49	-0.2541	0.0268	0.281	1244.7125	0.160341	-419.206801	-419.198367	-419.197423	-419.2401	32.026	
C	-0.2740285393	 1.4969919202	 0.0982923045	-0.399668
C	-0.0835292754	 0.0015004865	 0.1456682723	-0.048256
N	 1.2460035859	-0.5175653003	-0.2423375814	-0.391404
C	 0.780864838	-0.7074332354	 1.1288865607	 0.304688
C	 1.5439175966	-0.0229697565	 2.2557310589	-0.138229
O	 1.0490122898	-0.6203189924	 3.4653649975	-0.240404
C	 0.391131758	-1.7910325114	 3.2035711769	 0.421912
N	-0.142529849	-2.5250898409	 4.07952034	-0.540458
C	 0.4070998721	-2.059335834	 1.7139779615	-0.40457
H	 0.6423452388	 2.0201616052	 0.382062427	 0.128501
H	-0.5343690501	 1.815701549	-0.91640447	 0.126243
H	-1.0809617003	 1.8117773016	 0.7687436657	 0.123222
H	-0.9457331596	-0.5726081201	-0.1936735592	 0.088378
H	 1.1620010947	-1.3815597756	-0.7726204335	 0.233493
H	 2.6213858423	-0.2098410723	 2.1692598268	 0.119197
H	 1.3787429867	 1.0544017643	 2.3191654532	 0.122058
H	-0.0025266009	-2.1283535648	 5.0106806981	 0.221911
H	-0.5484773309	-2.4606757271	 1.3739562261	 0.139256
H	 1.1822306926	-2.8064712559	 1.4968635649	 0.13413
