19
gdb 86666	2.59046	1.19038	1.03492	2.5839	73.13	-0.2442	-0.0256	0.2185	1217.8096	0.15562	-460.158458	-460.148456	-460.147512	-460.193483	36.438	
C	-0.0662470621	 1.5126204497	 0.0683754091	-0.454327
C	-0.0022935252	-0.0071219265	-0.0322588866	 0.351568
O	-1.2446039437	-0.5535366835	-0.3979545981	-0.46518
C	 1.1370873557	-0.5297639094	-0.9370627872	 0.111067
O	 1.5696289274	 0.3746865542	-1.9219445361	-0.429594
C	 2.0152814245	-0.7638774012	 0.3192637531	-0.316226
C	 0.7290600123	-0.7323974648	 1.1858411852	-0.117334
C	 0.7655591102	-0.0200062059	 2.5038489754	 0.141229
O	 0.0784310972	-0.2975825714	 3.4559192213	-0.26016
H	 0.9066476808	 1.9526571614	 0.3017328517	 0.129086
H	-0.3997302531	 1.9231798342	-0.8873251167	 0.142842
H	-0.7713925389	 1.8157858764	 0.8514784479	 0.116331
H	-1.9348017414	-0.1299763653	 0.1244805301	 0.28371
H	 0.8142846945	-1.4836486014	-1.3724275473	 0.088288
H	 2.0857016779	-0.1027966331	-2.577541597	 0.290022
H	 2.6263141438	-1.6671546548	 0.3598358212	 0.108569
H	 2.6496838502	 0.1075695886	 0.5116674646	 0.112607
H	 0.2730736387	-1.7153646207	 1.3168982877	 0.101208
H	 1.4819576712	 0.8344743233	 2.5494548816	 0.066293
