15
gdb 42193	3.00067	1.36837	1.02531	2.0261	74.5	-0.2538	-0.0643	0.1895	1116.4628	0.110597	-420.555572	-420.547476	-420.546532	-420.588695	29.96	
O	 0.0999665267	 0.2451557386	 1.0736117638	-0.315442
C	-0.006466599	 1.2637279847	 0.4153549711	 0.168674
C	 1.1425173986	 1.8568358476	-0.2531784678	 0.252777
C	 2.094118491	 2.355684306	-0.7963716654	-0.436041
C	-1.2877697954	 1.9652083307	 0.2261173368	 0.15173
C	-2.5090774438	 1.6338635735	 1.073168201	-0.342802
C	-2.5880606996	 1.3846322562	-0.3816472063	 0.086821
O	-2.8478514729	 2.5634973231	-1.1230604206	-0.27348
C	-1.6034112708	 3.1640973462	-0.6637590159	-0.159819
H	 2.9466856527	 2.7798600028	-1.2691690514	 0.216959
H	-2.3579219429	 0.7570195824	 1.6935128731	 0.152905
H	-3.0817910481	 2.4474455307	 1.5091594886	 0.125669
H	-2.761784041	 0.4251153321	-0.8552897618	 0.129976
H	-1.7654278221	 4.1287097875	-0.170580137	 0.115258
H	-0.9059283934	 3.278626668	-1.4987483183	 0.126817
