18
gdb 7108	7.25894	0.85731	0.77774	4.8956	72.47	-0.2385	-0.0098	0.2287	1464.6879	0.152733	-381.157322	-381.147833	-381.146889	-381.19323	32.268	
C	-0.1633070525	 1.6745477656	 0.0137183847	-0.38928
C	 0.0216554745	 0.1555744945	 0.003858107	-0.154363
C	-1.3077143241	-0.5984457891	 0.0114938277	-0.318846
C	-1.1262261338	-2.1175356946	 0.0005735864	 0.428472
O	-0.0511775153	-2.6612815411	-0.0153868588	-0.305543
N	-2.3474610754	-2.7992720469	 0.0108606493	-0.329293
C	-2.596046621	-4.1698746387	 0.0052091585	 0.085615
N	-1.7012669104	-5.0663204925	-0.0084348121	-0.39799
H	 0.8030374345	 2.1875041126	 0.0079283696	 0.118272
H	-0.7250143389	 2.015987737	-0.8633418765	 0.111872
H	-0.7093586791	 2.0064612579	 0.9042187437	 0.111855
H	 0.5976502785	-0.1514411745	-0.8750087353	 0.118341
H	 0.6130613079	-0.1607879544	 0.8690955426	 0.118185
H	-1.9017364183	-0.3232149249	 0.8947907115	 0.117194
H	-1.917478158	-0.3129203723	-0.8577266175	 0.117374
H	-3.1715629606	-2.2193326277	 0.0234983797	 0.250083
H	-3.6787669728	-4.3548443264	 0.0147202324	 0.090379
H	-2.1419452253	-5.9850967444	-0.0095017129	 0.227674
