16
gdb 13826	4.4897	1.55584	1.1863	1.761	67.54	-0.2257	-0.0555	0.1702	994.9407	0.131167	-379.958248	-379.950345	-379.949401	-379.991105	27.993	
C	-0.0018911335	 1.4565726181	 0.0968829326	-0.476939
C	 0.0051864066	-0.049278358	 0.1587386598	 0.337261
O	 1.0155175568	-0.7200136402	 0.1961946599	-0.31147
C	-1.3276718188	-0.7410136389	 0.1609374809	 0.270025
N	-2.446266756	-0.1428221102	-0.0336671752	-0.300932
C	-3.475153411	-1.1990585103	 0.030303565	-0.165528
C	-2.7016168619	-2.5490261256	-0.01525645	-0.183299
N	-1.3637657051	-2.1010710492	 0.3814184682	-0.333658
H	 1.0165061464	 1.8225427179	-0.0364991438	 0.136506
H	-0.6550053813	 1.800756221	-0.7088769003	 0.160537
H	-0.423062341	 1.8575268853	 1.0253068569	 0.154182
H	-4.0307634048	-1.0898908425	 0.9711370564	 0.118857
H	-4.1947856705	-1.0881540365	-0.7850658648	 0.11677
H	-3.1008359984	-3.2951322901	 0.6765787681	 0.115799
H	-2.6995888045	-2.9825580418	-1.0256012412	 0.106297
H	-0.5363254329	-2.6314270391	 0.1528560575	 0.255593
