17
gdb 50404	3.30135	1.13922	0.87959	1.7794	76.21	-0.2446	-0.0577	0.187	1255.6214	0.135827	-421.874693	-421.866547	-421.865603	-421.908016	30.021	
O	-0.73902565	 0.9096730881	-0.6103617487	-0.241186
C	 0.1280877229	 0.9755803357	 0.2230740851	 0.145295
C	 1.3658671896	 1.8413725554	 0.1162627707	-0.11583
C	 1.4539273784	 2.5930669159	-1.2145013995	-0.252563
C	 2.5539871097	 3.6148171853	-1.2117377904	-0.064592
C	 3.1242413184	 4.097954549	-0.0996887591	-0.138923
C	 2.6777596025	 3.7047752859	 1.2523000788	 0.36724
O	 3.2289499585	 4.0981245253	 2.259156678	-0.323747
C	 1.4373077601	 2.8129696821	 1.3132616089	-0.32941
H	 0.0618393106	 0.3886092913	 1.1679966266	 0.086237
H	 2.2266474237	 1.1595619746	 0.2033334821	 0.108177
H	 1.5994651635	 1.8883881981	-2.0404332439	 0.127189
H	 0.4922663748	 3.0807980628	-1.4282890822	 0.14137
H	 2.8916116019	 3.9695993103	-2.1832124038	 0.114601
H	 3.9339703905	 4.8196610637	-0.1363052453	 0.111415
H	 0.5599029391	 3.4754728765	 1.2996534763	 0.135635
H	 1.4350359757	 2.2920064398	 2.2743081264	 0.12909
