23
gdb 121379	3.95633	0.84769	0.74644	1.0269	89.11	-0.2418	0.0233	0.2651	1623.7401	0.20642	-388.307516	-388.29812	-388.297176	-388.342145	35.422	
C	 0.016402765	 1.5572967087	-0.0458818486	-0.382567
C	 0.0163556639	 0.0272127189	-0.0066817892	-0.166235
C	 0.720704417	-0.5353340205	 1.2320714132	-0.180571
C	 0.7481987416	-2.0666483165	 1.2757519922	 0.086507
O	 1.4446116118	-2.5077343146	 0.1172162354	-0.264909
C	 1.7830285569	-3.8826192196	 0.1541946445	-0.072545
C	 2.7903652191	-4.1705536144	 1.2698092826	-0.255158
C	 2.3237899889	-3.5217524228	 2.5462873409	-0.075577
C	 1.3759075213	-2.5876367337	 2.5446072836	-0.067064
H	 1.0382108807	 1.953041459	-0.0551249143	 0.113817
H	-0.4928116753	 1.9331020819	-0.9389641692	 0.110069
H	-0.4915818617	 1.9798797205	 0.8287754408	 0.109207
H	-1.0180305502	-0.3415828272	-0.0309852646	 0.088438
H	 0.5050813003	-0.3714467433	-0.9012940615	 0.117327
H	 1.7556562524	-0.1732564597	 1.2739064559	 0.10205
H	 0.2214426361	-0.1744360432	 2.1409332651	 0.08848
H	-0.2981361211	-2.4299511321	 1.2252620539	 0.06688
H	 0.8783053514	-4.4945388844	 0.3055076607	 0.08834
H	 2.1921978245	-4.1243761595	-0.8310189259	 0.102843
H	 2.8964571324	-5.2546725521	 1.4050905617	 0.101234
H	 3.7845321743	-3.7959727666	 0.9899418169	 0.114198
H	 2.7738886353	-3.8479145098	 3.4803427914	 0.087704
H	 1.0144136056	-2.1526314891	 3.4731287544	 0.087534
