21
gdb 69853	2.22188	2.05329	1.47597	1.8407	80.94	-0.2438	0.0817	0.3255	1003.0142	0.182859	-387.059844	-387.051855	-387.050911	-387.091552	32.951	
C	-0.0526609435	 1.4760572339	 0.0488697876	-0.496694
C	 0.0698727512	-0.0165450285	-0.0314787393	 0.400282
O	-0.5500016542	-0.7796876767	 1.0266119139	-0.307996
C	 0.8710544955	-0.8915912627	 0.8234818156	-0.024586
C	 1.3203351489	-1.9783013094	-0.1759463096	-0.081161
C	 0.0155722504	-2.2559488569	-0.9670076754	-0.251438
C	 0.1741914381	-0.7678178417	-1.3982135321	 0.257768
C	-0.5432566285	-0.1949225675	-2.5996410525	-0.51195
C	 1.7234564005	-1.0613987427	-1.3817747876	-0.257609
H	 0.7048334066	 1.9660943205	-0.5723378619	 0.12293
H	-1.0358884804	 1.8107031637	-0.3004350669	 0.127529
H	 0.0723866438	 1.8122915367	 1.0811361279	 0.129522
H	 1.4990355295	-0.5602174605	 1.6447973053	 0.092844
H	 1.9624447913	-2.7789261662	 0.1895547268	 0.062705
H	 0.1897314091	-2.9319430083	-1.8071586774	 0.088313
H	-0.8757612746	-2.5396282298	-0.4105751441	 0.114661
H	-1.6275098556	-0.1782451002	-2.4404853287	 0.123193
H	-0.2237571795	 0.8313682851	-2.8124332139	 0.115789
H	-0.3482479705	-0.7942574585	-3.494885731	 0.114643
H	 2.4010313798	-0.2242423823	-1.1830020125	 0.088043
H	 2.062627312	-1.6194392078	-2.2593863643	 0.093213
