22
gdb 59092	1.9441	1.54559	0.94696	3.6461	83.1	-0.2414	0.0381	0.2794	1307.0391	0.192867	-404.386676	-404.376506	-404.375562	-404.421759	37.678	
C	-0.4963669893	 1.4537419415	-0.0628455548	-0.396339
C	-0.16206662	-0.0392862737	 0.0699266179	 0.017119
C	-1.4418341154	-0.8626496953	 0.2919838475	-0.396653
C	 0.5855727224	-0.5622503252	-1.1608889151	-0.162552
C	 2.0925783523	-0.1903918074	-1.4460409515	 0.036671
C	 2.8932345029	 0.589780357	-0.4111517417	-0.400592
N	 2.3586371705	-1.6358806487	-1.4475042543	-0.33356
C	 1.0849458698	-2.0318807117	-1.1353859169	 0.432851
O	 0.5947677108	-3.1130305726	-0.9303748628	-0.373634
H	 0.3965135876	 2.0719165579	-0.193102029	 0.111823
H	-1.1510098793	 1.6268528015	-0.9253121623	 0.113715
H	-1.0221987973	 1.8121660805	 0.8282571034	 0.114826
H	 0.4797753969	-0.1744652933	 0.9503131996	 0.075894
H	-2.1389014916	-0.7251323909	-0.5435331	 0.108803
H	-1.2193000213	-1.929007777	 0.3673171521	 0.152526
H	-1.9518783971	-0.5400520734	 1.2054905902	 0.104232
H	-0.0296721069	-0.3951110751	-2.0531187617	 0.095544
H	 2.2320994002	 0.2590081564	-2.4368295361	 0.083401
H	 2.7373107998	 0.1985975072	 0.5979147829	 0.127202
H	 3.9633516597	 0.5193454086	-0.6358734943	 0.116368
H	 2.6274141517	 1.6506611287	-0.4218430123	 0.127624
H	 3.2078993736	-2.1652465649	-1.5824237711	 0.24473
