16
gdb 74053	2.84697	1.38214	0.96253	8.1738	77.	-0.2165	-0.0598	0.1567	1165.1671	0.124959	-437.94041	-437.932106	-437.931162	-437.973472	31.094	
N	 0.0515831216	 1.3778418624	 0.1588902187	-0.557436
C	-0.0116704955	 0.0267568829	 0.0086639748	 0.388276
C	-1.1885408911	-0.6599332221	 0.0237729345	-0.296079
C	-1.2747043828	-2.1051396888	-0.0221929284	 0.287736
O	-2.314515048	-2.7327604457	 0.0636943249	-0.340405
C	 0.0643782804	-2.8667289127	-0.1953227318	 0.300751
O	 0.1603752578	-4.0360818773	 0.0763952489	-0.282034
C	 1.2133625369	-2.0484780975	-0.7643594342	-0.327584
C	 1.3229751756	-0.6703109136	-0.0980908507	-0.3162
H	 0.8959546481	 1.8715187869	-0.0732268876	 0.264044
H	-0.7973890957	 1.9188705761	 0.164889565	 0.268637
H	-2.131430978	-0.1290517783	 0.1266004259	 0.088085
H	 2.1400202165	-2.6190931003	-0.6703088249	 0.127907
H	 1.0100124825	-1.9121903771	-1.8351451077	 0.134974
H	 2.0265291546	-0.0377923873	-0.6530271072	 0.111576
H	 1.7392406669	-0.7742685376	 0.9123145897	 0.14775
