18
gdb 49388	2.54469	1.83558	1.42891	2.6881	75.63	-0.2303	-0.0326	0.1978	961.9827	0.147791	-401.866922	-401.85945	-401.858506	-401.898894	29.184	
O	-0.3327208855	 0.0574562443	 0.2403461842	-0.250535
C	-0.0872389822	 1.2044367252	-0.0309329806	 0.127778
C	 1.2015598236	 1.9565916156	 0.1311374603	-0.068323
C	 1.5927664564	 3.0074966176	 1.0989538322	-0.072683
C	 1.3606292135	 2.7093214159	 2.5866446715	-0.027536
C	 0.1389554124	 1.8498340165	 3.0273423535	-0.259706
C	 1.0086768155	 0.5553269777	 2.8771912984	-0.238666
C	 2.1902756427	 1.42608753	 2.3796935227	 0.029927
N	 2.4306779428	 1.7358308665	 0.901250532	-0.179461
H	-0.8354075412	 1.8334039009	-0.5690143576	 0.084208
H	 1.484521749	 2.259095125	-0.8847255858	 0.125717
H	 1.9485320782	 3.9690859822	 0.7377763629	 0.101041
H	 1.6839445129	 3.5103059437	 3.2500776757	 0.077696
H	-0.1824428318	 2.0504134319	 4.0516772418	 0.105194
H	-0.7414443741	 1.9152928394	 2.382983165	 0.107392
H	 1.242267768	 0.0986492998	 3.8428221512	 0.099693
H	 0.6471626327	-0.2128443748	 2.1984740596	 0.151119
H	 3.164231217	 1.2710509126	 2.843012343	 0.087144
