17
gdb 88223	3.98481	0.73224	0.65994	3.0682	82.92	-0.2365	-0.0249	0.2116	1679.265	0.134224	-417.976639	-417.966603	-417.965658	-418.013443	34.46	
C	 0.091861352	 1.4806908553	-0.3426246234	-0.317508
N	 0.0512382897	 0.049226312	-0.0605145732	-0.074952
C	 1.3157560123	-0.6524588734	-0.0236603949	-0.235259
C	 0.5476178262	-0.4178619933	 1.2498264742	-0.187764
C	 1.0657191062	 0.4939239599	 2.2269540105	 0.082832
C	 1.468942365	 1.2686628177	 3.0612452024	 0.036999
C	 1.9836732656	 2.2618643175	 3.9898126981	 0.261743
N	 2.0022864084	 1.8485927287	 5.2913290187	-0.521931
O	 2.3697721171	 3.3579840955	 3.6298122133	-0.33746
H	 0.9763600409	 1.9909469508	 0.0639219215	 0.13004
H	 0.0763645945	 1.6126810179	-1.4284446903	 0.12758
H	-0.8012373029	 1.95341513	 0.0755388603	 0.132511
H	 1.3293539335	-1.6497108017	-0.4553942705	 0.125414
H	 2.2311008717	-0.0764562399	-0.148768836	 0.12689
H	-0.0303826399	-1.2443682169	 1.6564582396	 0.11894
H	 1.6185753659	 0.9624844579	 5.5692576652	 0.265738
H	 2.3032636737	 2.5037208221	 5.9940858845	 0.266188
