14
gdb 12458	3.825	2.01476	1.39522	2.3958	60.38	-0.2584	-0.0129	0.2455	836.5582	0.11005	-415.90289	-415.896256	-415.895311	-415.934029	24.436	
O	-0.0073778171	-0.0636212291	-0.2229499247	-0.3673
C	 0.0231752326	 1.114248421	 0.0171265701	 0.471716
N	-1.1622289239	 1.8243925938	 0.2477954651	-0.380992
C	-1.5147352457	 3.1756724698	 0.1572470887	 0.10097
N	-0.8245631764	 4.2287319993	 0.0460302299	-0.235876
C	 0.6230702828	 4.1913099029	 0.0061876328	-0.165482
C	 1.2806381716	 3.0442235118	 0.760275059	-0.102192
O	 1.1819853596	 1.7854584542	 0.0780926917	-0.22881
H	-1.9443083505	 1.1849778663	 0.2382390162	 0.269243
H	-2.6002267359	 3.2802454033	 0.1983118703	 0.123685
H	 0.961998163	 4.1712621934	-1.0384976964	 0.131796
H	 0.9924587417	 5.13344459	 0.4301400316	 0.119243
H	 2.3556767881	 3.2170417885	 0.8452068949	 0.134385
H	 0.86416694	 2.9514828046	 1.769945431	 0.129615
