14
gdb 132101	3.01522	1.47215	0.99529	1.6764	71.86	-0.2279	-0.069	0.159	1104.4304	0.099997	-477.995142	-477.987381	-477.986437	-478.027714	28.515	
C	 0.038989278	 1.5497217741	 0.2125260364	-0.476737
C	-0.0167106134	 0.0728719375	-0.0367198207	 0.06419
C	-1.1410037517	-0.6602133015	 0.0408506478	 0.328822
F	-2.3300627749	-0.1854441552	 0.3425350467	-0.032263
O	-1.2099350871	-1.9780887165	-0.178038372	-0.231021
C	-0.046785053	-2.6827396273	-0.5153331804	 0.362231
N	-0.0624798329	-3.9282264714	-0.7312601514	-0.516416
C	 1.150000799	-1.8467226318	-0.5881450154	-0.03849
N	 1.1668118614	-0.5806995388	-0.3688181637	-0.261207
H	 0.7250109635	 1.77374887	 1.0360588348	 0.14253
H	 0.4128270047	 2.073985342	-0.673150237	 0.14254
H	-0.9465315693	 1.9467010187	 0.4622833049	 0.134473
H	-0.998686074	-4.3197146241	-0.6281839142	 0.235227
H	 2.0707112297	-2.3612777557	-0.8475482457	 0.146121
