16
gdb 14612	12.91478	0.59782	0.58541	2.3504	67.79	-0.2611	-0.0352	0.2259	1758.351	0.128978	-379.925322	-379.916224	-379.91528	-379.960717	29.937	
O	-0.5608523545	 0.7122492663	 0.7563528281	-0.228056
C	 0.0893787725	 0.9801390471	-0.219266868	 0.157957
C	 1.356425252	 1.8069637957	-0.2153912399	-0.289748
C	 1.2678683838	 2.9946955049	-1.1803725387	-0.133923
N	 2.5690294278	 3.6429944865	-1.3080685935	-0.297945
C	 2.5318390927	 4.803958005	-2.1906888695	-0.26255
C	 3.8432517557	 5.4537744594	-2.2597845943	 0.257324
N	 4.8704415505	 5.9801211374	-2.2970251182	-0.292597
H	-0.2150532041	 0.6159601645	-1.229090863	 0.076337
H	 1.5564549431	 2.1337197661	 0.8095627593	 0.124984
H	 2.1846049634	 1.1638800478	-0.5431642207	 0.139939
H	 0.9717936312	 2.6372679417	-2.1760616882	 0.115336
H	 0.4728905545	 3.6864549063	-0.8460908291	 0.101661
H	 2.9056563501	 3.9273432481	-0.3931573858	 0.235992
H	 2.2577914009	 4.4708628086	-3.199667052	 0.159454
H	 1.7874651604	 5.5686305348	-1.9017366367	 0.135837
