21
gdb 92159	2.20382	1.99205	1.49017	1.3164	81.27	-0.2474	0.0766	0.3241	1003.7923	0.18405	-387.074267	-387.066308	-387.065364	-387.106056	32.63	
C	 0.0159105239	 1.4338545332	-0.0133160721	-0.504898
C	 0.0079342824	-0.0757976129	 0.0274193452	 0.391242
C	-0.3459672575	-0.7922983706	-1.2710145943	-0.087321
C	-0.0900378852	-2.2950656273	-1.1903850042	-0.237842
C	-0.7702392497	-2.287780913	 0.2194702097	-0.052748
C	 0.2733735087	-2.1159034526	 1.3276042116	-0.23649
C	 0.9788097258	-0.7770158965	 0.97447109	 0.024328
O	 2.2348704155	-0.934173556	 0.3142134892	-0.435075
C	-1.2821357431	-0.8457330706	-0.0728302328	-0.132797
H	 0.9934731452	 1.8069598949	-0.3374068954	 0.129444
H	-0.7367895442	 1.818706699	-0.7088541325	 0.113071
H	-0.1949607648	 1.8604631629	 0.9744735645	 0.110248
H	-0.4483208866	-0.2135721877	-2.1826438816	 0.075189
H	-0.6960418854	-2.8375070476	-1.9214627017	 0.091911
H	 0.9468813609	-2.6381908493	-1.2431299456	 0.100222
H	-1.5065491349	-3.0709126368	 0.4004884797	 0.062422
H	-0.2187419955	-2.0323257005	 2.3039021578	 0.09094
H	 0.9887512896	-2.9443070542	 1.3800188662	 0.086387
H	 1.1187482718	-0.1647680604	 1.8783510254	 0.05524
H	 2.8612425722	-1.2898664367	 0.9523367013	 0.279266
H	-2.2728707093	-0.4351342773	 0.0763728696	 0.077261
