18
gdb 39592	3.50711	1.54984	1.12364	3.4713	79.18	-0.2141	-0.0013	0.2129	1066.034	0.151893	-398.167262	-398.160087	-398.159143	-398.198953	27.857	
C	-0.0013975512	 1.4894277295	-0.0195277857	-0.265363
N	 1.4149986635	 1.8955214492	 0.0114748292	-0.268023
C	 2.0832605631	 0.8071200081	 0.0341791923	 0.060698
N	 1.3510257423	-0.3695941922	 0.0226778176	-0.0978
C	 1.800913272	-1.7482013922	 0.0616609501	-0.172498
C	 0.6732033114	-2.5892664559	 0.6738744634	-0.226476
C	-0.6761691736	-2.254947337	 0.0143186292	-0.155227
N	-0.9974951937	-0.8258701016	-0.0107683801	-0.349273
C	-0.0062572566	-0.0328463052	-0.0030957775	 0.384397
H	-0.5375183968	 1.9022518929	 0.8416592013	 0.143309
H	-0.4918209311	 1.8815297225	-0.9172205691	 0.143278
H	 3.1680124427	 0.7553139513	 0.0624495332	 0.128826
H	 2.0372211584	-2.1031548024	-0.9509672147	 0.117806
H	 2.717828618	-1.8173516349	 0.6569093576	 0.11803
H	 0.9036041976	-3.6529744215	 0.5636194736	 0.106338
H	 0.611135594	-2.3749742885	 1.7467952175	 0.116456
H	-0.6950908692	-2.6391230549	-1.0163196613	 0.105931
H	-1.481195701	-2.7748618871	 0.5443734534	 0.10959
