21
gdb 70123	2.52375	1.66559	1.21535	0.2987	90.46	-0.2131	-0.0177	0.1953	1104.5919	0.184272	-349.960565	-349.952481	-349.951537	-349.992552	32.966	
C	-0.1041036688	 1.427453683	-0.2883166602	-0.468892
C	-0.109514064	-0.0443001878	 0.0707183249	 0.364131
C	-0.6555313758	-0.4759605037	 1.4132866546	-0.352142
C	 0.8401040945	-0.5278686295	 1.1368981318	-0.080184
C	 1.6129819844	-1.7921044274	 1.0401552035	-0.096289
C	 2.1459379083	-2.3269091819	-0.0715106054	-0.081687
C	 1.9788253677	-1.8613330271	-1.4466207322	-0.067385
C	 0.8910086039	-1.2475203094	-1.9348505017	-0.076184
C	-0.3427552343	-0.9881841623	-1.1068922737	-0.33813
H	 0.6573982238	 1.6390430678	-1.0484327427	 0.119472
H	-1.0751316057	 1.7385767012	-0.6922655805	 0.111694
H	 0.1112195044	 2.0541828471	 0.5827066903	 0.110813
H	-1.0075772892	 0.2835955908	 2.103454044	 0.105564
H	-1.1977774636	-1.4146391038	 1.4611919311	 0.107089
H	 1.3967723543	 0.2562098688	 1.6510111687	 0.091303
H	 1.8498461841	-2.2650787404	 1.9928204326	 0.087334
H	 2.7884427661	-3.1977083446	 0.0513858497	 0.084955
H	 2.7997208506	-2.0855000566	-2.1251518484	 0.084606
H	 0.8715312976	-0.969476302	-2.9852796145	 0.087455
H	-0.6907197574	-1.9522647882	-0.7119460897	 0.11247
H	-1.151935401	-0.5968046038	-1.7333647923	 0.094006
