21
gdb 36780	5.71024	0.58583	0.55164	4.2238	84.89	-0.2462	0.023	0.2692	1981.9485	0.183183	-383.260024	-383.250417	-383.249473	-383.295912	34.314	
N	 0.0700951343	-1.175658137	-0.1384305152	-0.298242
C	 0.0458610861	-0.025423381	-0.0370360613	 0.255778
C	 0.0179159334	 1.4314194211	 0.1221990133	-0.256798
N	 1.3482159482	 2.004360263	-0.0308936421	-0.297773
C	 1.3665012677	 3.4529007151	 0.1674597593	-0.149197
C	 2.7763759504	 4.000685716	 0.0369776219	 0.031462
C	 3.4785041676	 3.9622407163	-1.3489200009	-0.205109
C	 4.0533740514	 5.3743666426	-1.0541606386	-0.210722
C	 2.9739498572	 5.5430389363	 0.0501760478	-0.235901
H	-0.6375945903	 1.8497784992	-0.6522362279	 0.156115
H	-0.4654632583	 1.6572761288	 1.0915237971	 0.12946
H	 1.9845685399	 1.5589998098	 0.6231572555	 0.229253
H	 0.7276957238	 3.904051141	-0.6047431826	 0.101505
H	 0.9377965766	 3.7551765536	 1.143346092	 0.080755
H	 3.4189277143	 3.5378237512	 0.7974866593	 0.068134
H	 4.182762112	 3.1505764887	-1.5417570209	 0.101349
H	 2.7444280414	 3.9806556042	-2.1606815104	 0.101303
H	 5.060379922	 5.3231217506	-0.6303886821	 0.10341
H	 4.0595338456	 6.1009910459	-1.8695481327	 0.098583
H	 2.0856728035	 6.0593986925	-0.3293637443	 0.098946
H	 3.2695462332	 6.0113914822	 0.9920638826	 0.097687
