16
gdb 7331	4.30238	1.22473	0.96482	4.0719	63.45	-0.2626	-0.0295	0.2331	1175.4213	0.129749	-417.105655	-417.096702	-417.095758	-417.139792	31.302	
C	-0.0888816392	 1.1593151985	 0.9639739881	-0.395078
C	-0.0546188712	-0.0379416251	 0.0344434937	-0.040412
O	-1.2516262862	-0.8057779747	 0.2625211124	-0.26797
C	-1.3976716178	-1.9191530667	-0.4807680836	 0.330797
N	-0.5562437432	-2.3046917437	-1.3413732506	-0.514486
C	-2.6913891822	-2.6731329716	-0.1766752506	 0.337286
N	-3.4700709914	-2.1118979799	 0.7774004756	-0.523905
O	-2.9530328752	-3.6976155342	-0.776340474	-0.360569
H	 0.8085843315	 1.7670427222	 0.8163532517	 0.12825
H	-0.9632515863	 1.7859336881	 0.7651825999	 0.127513
H	-0.1200129032	 0.8431606242	 2.0107533026	 0.127588
H	-0.0235315712	 0.255762252	-1.0197564284	 0.128254
H	 0.812688069	-0.680598642	 0.2169974591	 0.128303
H	-0.9129394008	-3.1695085457	-1.754669246	 0.249915
H	-3.18864462	-1.2578800946	 1.2259594796	 0.276506
H	-4.3392468426	-2.5561981367	 1.0214240504	 0.268009
