22
gdb 59477	2.89352	1.07712	0.87269	1.8086	84.09	-0.231	0.076	0.307	1410.8508	0.192675	-404.298278	-404.288454	-404.287509	-404.333347	36.804	
C	 0.1331953354	 1.433992017	-0.2969364626	-0.39891
C	 0.0584712488	-0.0172336922	 0.1810975674	 0.129355
O	 0.6479069541	-0.1621343907	 1.4753779485	-0.437223
C	-1.3604204866	-0.5500601964	 0.1649277074	-0.043684
C	-1.9604867143	-1.1410751826	-1.092964328	-0.325516
C	-1.6296425097	-2.0301057465	 0.0771192515	 0.045626
N	-0.5034721516	-2.909628816	-0.0634862869	-0.058659
C	-0.1247772918	-3.6744661962	 1.1184892454	-0.207584
C	-0.7797486764	-4.3424658035	-0.041479296	-0.230633
H	 1.1649755577	 1.79384432	-0.2568227175	 0.120174
H	-0.2345844584	 1.5310185072	-1.323142609	 0.117906
H	-0.4806096804	 2.0854251129	 0.3388311208	 0.099334
H	 0.6719953979	-0.6503256434	-0.4658926134	 0.10318
H	 0.1517434968	 0.3970677675	 2.0835436175	 0.26997
H	-2.0465009831	 0.0136926019	 0.7963921521	 0.070017
H	-3.0001835709	-0.938564285	-1.3247964488	 0.107595
H	-1.3097228005	-1.2314118759	-1.9563468646	 0.120357
H	-2.4680965517	-2.4109081316	 0.6683099844	 0.06709
H	 0.9421430481	-3.7779975748	 1.2907480659	 0.120651
H	-0.7205433942	-3.543168063	 2.0197311876	 0.108432
H	-1.8143271031	-4.658383567	 0.0836695755	 0.107488
H	-0.2007687361	-4.9473834516	-0.7337168072	 0.115031
