17
gdb 88902	6.11711	0.58298	0.55865	2.2134	90.99	-0.2367	-0.0062	0.2305	1917.2095	0.133385	-384.615507	-384.605968	-384.605024	-384.65067	34.867	
O	-0.2099062778	 1.4718019854	 0.426633027	-0.41436
C	-0.0526039264	 0.0956520751	 0.22965542	 0.081542
C	-0.780393923	-0.8719163031	 1.1297550234	-0.315456
C	-1.2467772926	-0.6504606532	-0.2939143928	-0.006025
C	-2.5451755289	 0.1001201224	-0.561431196	-0.416756
C	-3.727233108	-0.7332318163	-0.3915267226	 0.393917
C	-4.7024590536	-1.4360170783	-0.2489491375	-0.254952
C	-5.7988186962	-2.2257704335	-0.0873734938	 0.29288
C	-6.7722558301	-2.9261831177	 0.0565285534	-0.556842
H	 0.2386213115	 1.7096040283	 1.2444928842	 0.291888
H	 0.925347269	-0.1979654735	-0.1513568866	 0.091453
H	-0.3073698993	-1.8123623697	 1.3894986485	 0.115905
H	-1.391486879	-0.4378312195	 1.9148601329	 0.120119
H	-1.0418692741	-1.4498100846	-0.9990897032	 0.101003
H	-2.5992404301	 0.9697446308	 0.1025944656	 0.149634
H	-2.5304898696	 0.5049493208	-1.5823680524	 0.138925
H	-7.6275009718	-3.5420668934	 0.1824037	 0.187126
