18
gdb 13794	3.59153	1.22684	1.19207	1.9369	68.84	-0.247	-0.0245	0.2225	1120.2217	0.150736	-384.943875	-384.934699	-384.933754	-384.978491	32.027	
C	 1.4861817685	 1.0375719529	 0.3040011749	-0.37871
C	 0.300611185	 0.0679947939	 0.2232484052	-0.221916
C	-0.0220011311	-0.3024211013	-1.2044010796	 0.094263
O	 0.8547752405	-1.1992060162	-1.8922348805	-0.2515
C	-0.4888693204	-1.6286269128	-1.6623781392	-0.060087
C	-0.7364688451	-2.7950813137	-0.733281748	 0.342213
C	 0.4669639154	-3.5394180445	-0.1986871799	-0.476215
O	-1.8772694599	-3.1256375431	-0.5020792434	-0.299206
H	 2.3854412928	 0.5845019225	-0.1237820169	 0.134586
H	 1.2810038862	 1.9607727143	-0.2485813695	 0.120034
H	 1.7001760981	 1.3091810308	 1.3414819423	 0.119303
H	 0.5095706371	-0.8291334252	 0.8125958331	 0.107989
H	-0.5935847648	 0.5289204795	 0.6614321835	 0.114758
H	-0.3359845716	 0.5428407862	-1.8221860744	 0.098944
H	-1.1329090892	-1.6514784085	-2.5422933622	 0.116684
H	 1.2311924251	-2.8613149922	 0.1865063269	 0.147189
H	 0.1497813049	-4.2503637139	 0.5650203388	 0.139524
H	 0.9363583982	-4.0820606787	-1.0288632611	 0.152147
