18
gdb 42465	4.29289	0.72278	0.63893	3.5046	81.08	-0.2496	-0.0386	0.211	1705.552	0.147883	-398.129725	-398.120287	-398.119342	-398.165378	33.554	
N	 0.0416745949	 1.3123501066	-0.4741881326	-0.525928
C	-0.0556399282	 0.0983935447	-0.0740787896	 0.303579
N	-1.2505461941	-0.5394993061	 0.0659635237	-0.320814
C	-2.5157317889	 0.1576436102	-0.124418193	-0.150057
C	-3.6543763734	-0.829839041	-0.174715599	-0.007548
C	-4.2318169453	-1.3792845684	 1.1115392547	-0.26484
C	-5.0282078522	-0.4106348124	 0.2744896125	-0.26953
C	 1.0973126179	-0.7321337305	 0.2487874576	 0.224343
N	 2.036355647	-1.3562806541	 0.5054148809	-0.322401
H	 1.015143027	 1.5914997057	-0.562636185	 0.238918
H	-1.2697574755	-1.4095826629	 0.5726348633	 0.262423
H	-2.6784088956	 0.8884678105	 0.681735061	 0.11188
H	-2.4427909103	 0.7335484403	-1.0521119163	 0.142663
H	-3.6103796627	-1.5188474937	-1.0136882723	 0.097868
H	-4.5421553465	-2.4176732042	 1.1359903307	 0.119857
H	-3.8227111745	-1.0142065944	 2.0483516362	 0.1174
H	-5.1522947434	 0.5991745096	 0.650963871	 0.121004
H	-5.8813782361	-0.7860102701	-0.2784759739	 0.121184
