21
gdb 105815	2.33731	1.52484	1.22812	0.9145	82.22	-0.2056	0.0796	0.2852	1145.9117	0.181121	-386.997105	-386.988039	-386.987095	-387.030794	34.67	
C	-0.0179647526	 1.3081862658	 0.1974267398	-0.255067
O	-0.0659046817	-0.0575671731	-0.1815182658	-0.271861
C	-1.3369956575	-0.5908428164	-0.1101270377	 0.406626
C	-1.915753756	-1.1125166481	 1.1824877702	-0.077196
C	-3.1856801413	-0.7644610667	 1.9594030129	-0.438709
C	-1.6990450758	-2.0522008452	-0.0009801526	-0.191749
C	-2.6643012524	-1.8973791627	-1.2104848482	-0.047904
C	-3.7309440991	-0.8421844548	-1.0766707996	-0.308169
C	-2.3075579571	-0.4234266252	-1.3220770288	-0.125764
H	 1.0157616933	 1.6390992184	 0.0741980968	 0.124889
H	-0.669103669	 1.9286257494	-0.4347089143	 0.111309
H	-0.3189278665	 1.443832837	 1.2458346321	 0.108685
H	-1.0662787424	-1.2618219103	 1.8494286786	 0.097596
H	-3.9784093138	-1.5030095764	 1.8110791104	 0.130557
H	-2.9646248912	-0.7425217124	 3.0311446244	 0.1106
H	-3.5836043531	 0.2194513955	 1.69457688	 0.126493
H	-1.034491304	-2.9028855359	 0.0839697809	 0.094593
H	-2.689330308	-2.6297313397	-2.0069814455	 0.089829
H	-4.3647708226	-0.7550600033	-1.9560074184	 0.110284
H	-4.2538020365	-0.6439991831	-0.1531970171	 0.113703
H	-1.9964658527	 0.116187247	-2.2073369283	 0.091255
