20
gdb 12964	2.21394	2.17804	1.77174	1.3218	75.34	-0.2425	0.0735	0.316	920.1213	0.176312	-348.980497	-348.971909	-348.970965	-349.01278	32.892	
C	-0.0464550183	 1.5650588109	-0.0276117737	-0.416132
C	 0.091879744	 0.0583347914	 0.071712158	-0.042529
C	 1.3353265941	-0.7377852075	-0.2208717576	-0.118538
C	 2.5857990707	-0.0058179946	 0.275054638	-0.280509
C	 1.9929166357	-0.0645350398	 1.7244215411	 0.059363
O	 1.7884772785	 1.1283044874	 2.4574974438	-0.431883
C	 0.7206021788	-0.7266282277	 1.1988034459	 0.334293
C	-0.0209984591	-1.7937144038	 1.9556882551	-0.502773
H	 0.8023985442	 2.0895217087	 0.4103891658	 0.133725
H	-0.1513078903	 1.8748201698	-1.0740967137	 0.1042
H	-0.9408379716	 1.8999171721	 0.5091183868	 0.11346
H	-0.7937721013	-0.4636401561	-0.2907634848	 0.077538
H	 1.3398806661	-1.5527677626	-0.9357509861	 0.078941
H	 3.508261985	-0.5827360992	 0.1744551609	 0.09502
H	 2.7518440618	 0.9959508842	-0.1325964376	 0.096653
H	 2.5600404059	-0.7882559998	 2.3274520272	 0.067238
H	 2.6405163448	 1.4253906663	 2.7926218178	 0.281575
H	-0.5837742666	-1.3649868609	 2.7936763744	 0.125876
H	-0.7368960567	-2.3130814181	 1.3101763164	 0.114756
H	 0.6636335343	-2.5450993708	 2.3672787924	 0.109724
