19
gdb 75830	2.42743	1.63557	1.17921	2.2245	74.52	-0.2408	-0.0186	0.2223	1084.4633	0.158196	-423.0482	-423.039549	-423.038605	-423.081156	33.545	
C	 0.1308485326	 1.660849006	-0.0126196621	-0.409866
C	 0.1205945674	 0.1335976971	 0.0212145572	-0.158624
C	 0.8500738743	-0.5061211082	-1.1736046857	 0.373355
O	 0.9289431886	-0.0254109041	-2.2739688245	-0.31172
C	 1.4707018106	-1.8396476025	-0.7293204085	-0.333891
C	 1.5338302197	-1.744405571	 0.7817824269	-0.088107
C	 2.240549952	-0.5301903992	 1.3608635371	-0.358973
C	 0.7366280183	-0.5467949783	 1.2348291939	 0.39795
O	-0.0430491193	-0.6676529889	 2.3862187061	-0.473369
H	 1.1430163514	 2.0506666533	 0.1359427213	 0.120598
H	-0.2247832334	 2.0163745831	-0.9829233065	 0.140681
H	-0.5137529916	 2.0781764285	 0.7672741062	 0.107941
H	-0.9203948766	-0.2214510134	-0.0395308634	 0.111279
H	 0.8045294007	-2.6510204134	-1.0509278613	 0.131864
H	 2.4323530895	-1.9942814737	-1.2276932742	 0.129549
H	 1.5139895569	-2.6470387014	 1.3801692441	 0.100923
H	 2.6343870856	-0.6373123128	 2.3651128267	 0.1188
H	 2.8354571416	 0.0997287232	 0.7044770508	 0.116645
H	-0.0348983384	 0.1801204257	 2.8438206458	 0.284967
