16
gdb 49518	3.7386	1.30809	1.18464	4.1221	68.29	-0.2392	-0.0234	0.2157	1041.7873	0.125321	-437.813796	-437.806958	-437.806014	-437.845358	26.967	
O	-0.0875652209	-0.0320226899	-0.2165905937	-0.263048
C	 0.0069598174	 1.1493566625	 0.0069055153	 0.141769
C	 1.3188087816	 1.8877425413	-0.0108553125	-0.094554
C	 1.237265723	 3.2694557378	-0.7265496082	 0.037751
O	 0.5487856537	 3.79243449	 0.463901082	-0.303471
C	 1.4751269033	 2.8930052744	 1.1693329683	 0.037723
C	 2.8265564591	 3.5945913356	 0.8986752085	-0.047624
N	 3.6797454151	 2.915537269	-0.1030353668	-0.325429
C	 2.6458784251	 3.8805906748	-0.5414711549	-0.047626
H	-0.8814805485	 1.7702839837	 0.242276964	 0.09659
H	 2.1432758319	 1.2202861703	-0.246876439	 0.124852
H	 0.6990388469	 3.4363660879	-1.6585430581	 0.093132
H	 1.1823986181	 2.6712646149	 2.1946646138	 0.093117
H	 3.247311275	 4.2918730694	 1.612026779	 0.109447
H	 4.5869065872	 3.3790735692	-0.1248228455	 0.237922
H	 2.917358412	 4.8141278591	-1.0178253622	 0.109449
