21
gdb 121147	2.63018	1.07278	0.92367	2.3311	75.47	-0.2466	0.0628	0.3095	1378.1325	0.179459	-461.327979	-461.317616	-461.316672	-461.363926	37.021	
C	 0.7344939214	 1.1397440881	 0.1747661722	-0.223769
O	 0.7324980415	-0.2270140016	-0.1631789938	-0.233197
C	-0.0250885837	-0.5071934625	-1.3185740551	-0.085024
C	 0.0010433775	-2.006928721	-1.5468937756	 0.098077
O	-0.7262253681	-2.3654202687	-2.7414230147	-0.301089
C	 0.3513914149	-3.2065271848	-3.2044167198	-0.110466
C	 1.2810527768	-2.7183483251	-2.0581308642	 0.3307
C	 2.4501233279	-1.8425687515	-2.4812586206	-0.466658
O	 1.6823519463	-3.711146984	-1.1368482502	-0.468902
H	 1.1688053116	 1.7587619568	-0.6263341523	 0.103837
H	-0.2825550558	 1.5094915788	 0.3791197	 0.107008
H	 1.3402208074	 1.2531065921	 1.0770239789	 0.128484
H	-1.0735132612	-0.1857429623	-1.1971350223	 0.097781
H	 0.3745286741	 0.025721414	-2.1964060361	 0.086145
H	-0.3872391958	-2.5225000419	-0.6591087408	 0.092069
H	 0.1063866084	-4.2729956898	-3.1275137146	 0.099563
H	 0.6456962732	-2.9645262745	-4.2329195357	 0.094051
H	 2.1444675356	-1.0853502012	-3.2085738101	 0.125621
H	 2.8800742124	-1.3395299904	-1.6114935135	 0.143476
H	 3.2269729005	-2.4540348619	-2.958072731	 0.104793
H	 2.5221770451	-4.0780576084	-1.4321608108	 0.277498
