19
gdb 106647	2.70697	1.30268	1.04982	1.8704	78.4	-0.2372	0.0229	0.2601	1217.5694	0.158872	-419.184232	-419.175106	-419.174162	-419.218074	34.388	
C	 0.0042354221	 1.5067371543	-0.0924119179	-0.37932
C	-0.0407107781	-0.0022437023	 0.1867768345	-0.288746
C	-1.4069612658	-0.5822903474	 0.0361360006	 0.448371
C	-2.1377397901	-0.9994315566	-1.1922478151	-0.3646
C	-1.9574423727	-2.0019216866	-0.0440115237	 0.099606
N	-1.3075732446	-3.2416362253	-0.2541949299	-0.598065
C	-2.8471926811	-1.5642865422	 1.0807710048	 0.385013
N	-3.632150036	-2.1464428938	 1.866464615	-0.564742
O	-2.4099663373	-0.24086845	 1.0502514834	-0.314439
H	 1.0169528869	 1.8962271406	 0.0459524655	 0.115646
H	-0.3078888381	 1.7263730132	-1.1181772388	 0.120972
H	-0.6632483658	 2.0467291871	 0.585351981	 0.135893
H	 0.6263342538	-0.5382631582	-0.4980710154	 0.119691
H	 0.3165696863	-0.2055641927	 1.2033410657	 0.112645
H	-3.1145252935	-0.5841910978	-1.4194240783	 0.124759
H	-1.5141433699	-1.2388305555	-2.0485466984	 0.130424
H	-1.0616767845	-3.672860786	 0.6314288043	 0.244633
H	-1.9154223829	-3.8908124064	-0.7443807836	 0.244016
H	-4.0064968286	-1.5004275343	 2.5635914065	 0.228243
