18
gdb 29295	5.37562	0.91313	0.83216	1.9983	80.87	-0.1764	0.0453	0.2217	1382.0921	0.148458	-401.965035	-401.95648	-401.955536	-401.998486	32.637	
O	 0.066293363	 1.3893581824	-0.0959497838	-0.451104
C	 0.0579060981	 0.0240831067	-0.0364517241	 0.332365
C	 0.0175303954	-0.7946720001	-1.1383729877	-0.18055
N	 0.0223015396	-2.0969795707	-0.6678449449	-0.334807
C	 0.0647620201	-2.1147270423	 0.7009293008	 0.374498
C	 0.0877753042	-0.7987217639	 1.12457478	-0.405169
C	 0.0802810115	-3.3528809865	 1.5008130258	-0.074641
C	-0.6949875428	-4.5885895916	 1.0859027003	-0.274478
C	 0.8087132585	-4.6002733944	 1.038724053	-0.274505
H	 0.097033589	 1.7285294733	 0.802720838	 0.294191
H	-0.0133851217	-0.5660508884	-2.1894981421	 0.113808
H	-0.0021000795	-2.9092748	-1.2573888913	 0.255421
H	 0.1221775582	-0.4691929236	 2.1529551366	 0.082367
H	 0.1152652721	-3.1553385933	 2.566753093	 0.090311
H	-1.1936185451	-5.162263385	 1.8593318179	 0.11754
H	-1.2412147418	-4.5453420188	 0.149193404	 0.108613
H	 1.2957811191	-4.5651151581	 0.0696050371	 0.108597
H	 1.345876152	-5.1819833755	 1.7796673075	 0.117542
