23
gdb 87137	2.63059	1.19662	1.13055	1.2788	85.46	-0.2439	0.0729	0.3167	1266.0459	0.203401	-388.266893	-388.256721	-388.255777	-388.301551	39.22	
C	-0.1167905092	 1.2685902904	-0.3021216397	-0.416469
C	 0.248292255	-0.1751667607	-0.0341084965	-0.012467
C	 1.6819453221	-0.6172079408	 0.1404237146	-0.351168
C	 0.7229263619	-0.6945895317	 1.3085670394	 0.294943
C	 0.9343034738	 0.2650177611	 2.4692124787	-0.484321
C	 0.1800752816	-2.0319364352	 1.7529370386	 0.357644
O	-1.1022607474	-1.9522208567	 2.3374612891	-0.473142
C	 0.3820276137	-3.3001578188	 0.9837657383	-0.31713
C	 1.1004536638	-3.0954934005	 2.3045360518	-0.326295
H	 0.5622870536	 1.9667022582	 0.1951756836	 0.111917
H	-0.0722394876	 1.4832778357	-1.3757858153	 0.116581
H	-1.1340828301	 1.4926217894	 0.0377610803	 0.120014
H	-0.3784279305	-0.8850002862	-0.5685174623	 0.088991
H	 2.0184790086	-1.5239108159	-0.3497404406	 0.107257
H	 2.4423872464	 0.1568750363	 0.1897352361	 0.101738
H	 1.379691782	 1.2090175082	 2.1477434115	 0.117635
H	-0.012373898	 0.5075859441	 2.9665248218	 0.110501
H	 1.6049226674	-0.1776955867	 3.2149263006	 0.116505
H	-1.0048498849	-1.5499824873	 3.2069486597	 0.280052
H	-0.4612941074	-3.9807418001	 0.9803829211	 0.121825
H	 0.9642737784	-3.2952398623	 0.0701402218	 0.113682
H	 2.1696615053	-2.9132851367	 2.2779229765	 0.112014
H	 0.7510714615	-3.6672604039	 3.1572158309	 0.109691
