22
gdb 121895	3.39448	0.66279	0.61888	3.7583	80.34	-0.242	0.0352	0.2772	1883.6721	0.191577	-441.513659	-441.502069	-441.501125	-441.552225	39.591	
C	-0.0033229586	 1.3510685422	 0.3175743953	-0.227645
O	-0.0833242896	-0.0513567716	 0.3859122024	-0.22952
C	-1.316020669	-0.5553713795	-0.0808908325	-0.064552
C	-1.2647389526	-2.076589515	 0.0037604048	-0.186308
C	-2.6061608969	-2.772618666	-0.3145098479	-0.096469
C	-3.0724891893	-2.5562043927	-1.7603669031	-0.390147
C	-2.4230193313	-4.2735329536	-0.0598273115	 0.408045
N	-2.9141719627	-4.7279055252	 1.130854329	-0.525444
O	-1.8644933909	-5.0060340883	-0.8537670288	-0.372081
H	 0.9801865094	 1.6425085907	 0.694363919	 0.127105
H	-0.1109110367	 1.7183911424	-0.7156985457	 0.103331
H	-0.7775220427	 1.8368230717	 0.9336139994	 0.100476
H	-2.1474721985	-0.1628575107	 0.5330957736	 0.07734
H	-1.4953262468	-0.21903379	-1.1150771999	 0.090333
H	-0.4937566099	-2.4558579778	-0.6750294153	 0.127596
H	-0.9469316106	-2.3397709604	 1.0196098406	 0.104986
H	-3.3698754605	-2.3829665545	 0.3726864853	 0.063595
H	-3.1998419945	-1.4942304165	-1.9856222347	 0.110931
H	-2.3424826447	-2.9824557001	-2.4528358758	 0.144604
H	-4.0305475086	-3.0536545406	-1.9395758495	 0.1176
H	-3.3175412446	-4.1139455802	 1.8156959931	 0.25689
H	-2.7375582503	-5.6866475443	 1.3838965621	 0.259335
