15
gdb 46140	4.89793	1.02994	0.88088	1.4165	68.4	-0.2694	0.0059	0.2753	1228.5244	0.11411	-453.964651	-453.956778	-453.955834	-453.997724	28.369	
N	-0.0770405812	 1.2668118557	 0.3986865718	-0.528065
C	-0.0088823701	 0.0811952455	-0.016504019	 0.459646
O	 1.1741430662	-0.5754144919	-0.206317286	-0.26344
C	 1.2579157402	-1.7044216634	-1.0708833367	-0.08228
C	 0.0360750955	-2.6137091387	-0.8835274414	-0.197594
C	-1.2001991337	-1.7226892105	-1.0707439855	-0.079187
O	-1.1527369684	-0.6262461732	-0.1695484287	-0.231142
C	 0.0491117374	-3.7228328904	-1.829877876	 0.267273
N	 0.0596723374	-4.5905017552	-2.5927423317	-0.301669
H	 0.8601982455	 1.6422117251	 0.5275682303	 0.23419
H	 1.3185428378	-1.3740996485	-2.1160198753	 0.135125
H	 2.1874400406	-2.2142720974	-0.8127618666	 0.148536
H	 0.0355999544	-3.0125192101	 0.1373165088	 0.152387
H	-1.2502037068	-1.3648734817	-2.1076908745	 0.135031
H	-2.1233975748	-2.2572024353	-0.8431467394	 0.151188
