16
gdb 19554	4.16956	1.82887	1.67188	1.0904	64.1	-0.2266	0.0792	0.3058	831.1875	0.13024	-383.650092	-383.643216	-383.642272	-383.681234	26.18	
C	 0.0996842323	 1.3552445677	-0.2265672522	-0.25564
O	 0.0130174412	-0.0028162277	 0.1943313889	-0.274332
C	-1.2437031833	-0.5112291571	 0.1293482874	 0.365588
C	-1.7094109177	-1.9446019845	 0.0405361914	-0.182689
C	-2.6187113799	-1.7956117572	 1.2577940521	-0.226878
C	-2.6259504766	-0.2827792001	 0.9202487695	-0.015456
O	-3.3384892148	-0.2097643058	-0.3416743465	-0.279939
C	-2.221445945	-0.8469339406	-0.9497040192	-0.012241
H	 1.1503354037	 1.6417436926	-0.152351353	 0.131691
H	-0.2417132226	 1.4688523969	-1.263013343	 0.121799
H	-0.5007442585	 2.0101586214	 0.4180325018	 0.120859
H	-1.1549313396	-2.8057562251	-0.309164074	 0.097459
H	-3.5959907853	-2.2874883796	 1.2570329659	 0.102252
H	-2.0799224463	-2.0022812698	 2.1857943311	 0.108707
H	-2.9161246468	 0.4886409101	 1.6302422798	 0.087955
H	-2.1666270209	-0.922820601	-2.0271612398	 0.110865
