23
gdb 101831	3.30599	0.74495	0.68881	2.2541	83.23	-0.2522	0.0809	0.3331	1751.134	0.204154	-425.403567	-425.393049	-425.392105	-425.440391	38.1	
C	-0.3988342351	 1.4213340482	-0.0128908374	-0.398736
C	-0.0359041473	-0.0636931274	-0.0753997395	 0.12382
C	 1.0098479845	-0.3604014995	-1.1537462646	-0.059435
O	 2.2401691085	 0.2787621499	-0.8722781467	-0.423661
O	 0.5660229133	-0.5260033462	 1.1320766559	-0.278781
C	-0.300045098	-0.6807631144	 2.2415699409	-0.073953
C	 0.4465111858	-1.3778101938	 3.3452919728	 0.012623
C	 1.3198022257	-0.5829984401	 4.2815870688	-0.250305
C	 0.0216163104	-1.1680787553	 4.7769557722	-0.272441
H	 0.5072611775	 2.0190901926	 0.1128214085	 0.134469
H	-0.888403356	 1.7278263567	-0.9430044987	 0.115042
H	-1.0860395496	 1.6387222325	 0.809215799	 0.113138
H	-0.9395698598	-0.6609491293	-0.2847616236	 0.061028
H	 1.1354306621	-1.451492058	-1.2313396137	 0.086918
H	 0.6672276473	 0.0124444158	-2.124620695	 0.102358
H	 2.4483307182	 0.0419209978	 0.0398942051	 0.29074
H	-0.6644710213	 0.2947305917	 2.6012717814	 0.085504
H	-1.1847405507	-1.2675249555	 1.9416662663	 0.087105
H	 0.7973350879	-2.3711335572	 3.0811589616	 0.089324
H	 2.2488492182	-1.0282753212	 4.6190281763	 0.114018
H	 1.3692395456	 0.4908335229	 4.1344829309	 0.114733
H	-0.8014041838	-0.4874228343	 4.9696649158	 0.111941
H	 0.0582891065	-2.0173237059	 5.4497020038	 0.114552
