19
gdb 44419	3.34765	1.43655	1.40881	3.025	80.61	-0.2384	-0.0099	0.2285	1006.1875	0.161519	-385.827549	-385.82063	-385.819686	-385.858652	28.957	
O	-0.006798713	-0.0355388442	-0.1552779534	-0.29062
C	-0.0594969912	 1.150479086	-0.0655742723	 0.306852
C	-1.2751803336	 2.1741194204	 0.1702027355	-0.409161
C	-0.2124306252	 2.9538430122	 0.9959197146	 0.026106
C	 0.7635623992	 4.1958659789	 1.0189013279	-0.07808
C	 1.9153732124	 3.0944591446	 1.100862387	-0.32618
C	 0.9118053038	 2.3333927991	 0.1647447365	 0.167015
C	 0.9792382907	 3.2453306298	-1.1049355389	-0.238166
C	 0.8472948035	 4.6465778745	-0.4406823028	-0.207187
H	-1.6271149323	 2.6340931591	-0.7532706971	 0.129622
H	-2.125412857	 1.7607251634	 0.7156170568	 0.12324
H	-0.2001526304	 2.5134581389	 1.9982315614	 0.092008
H	 0.6713716931	 4.9600225708	 1.7919306453	 0.0717
H	 2.8970963486	 3.3689652768	 0.7042293782	 0.099365
H	 2.0088824711	 2.6525178569	 2.0936174471	 0.114097
H	 1.9379191331	 3.0957328204	-1.608705228	 0.108767
H	 0.1974228052	 3.0404952076	-1.8382754149	 0.10462
H	-0.0482863696	 5.1847146303	-0.76243493	 0.103097
H	 1.7117237415	 5.2894422045	-0.6281787829	 0.102906
