15
gdb 45971	3.02577	1.4958	1.16092	1.6694	66.15	-0.2497	-0.0389	0.2107	1021.7463	0.114742	-453.971702	-453.964332	-453.963388	-454.003808	27.923	
O	 0.040778942	-0.0284196249	 0.220329812	-0.312032
C	 0.0055568822	 1.1654961701	 0.0449625066	 0.441142
C	-1.3128342746	 1.9364031779	-0.0586565523	-0.268908
N	-1.2776220023	 2.9516628149	-1.1028766484	-0.340802
C	-0.1814829348	 3.6252266502	-1.5574370865	 0.455737
O	-0.229063694	 4.4483647876	-2.4514448934	-0.376153
C	 1.1186493534	 3.2682176606	-0.8837590855	-0.151242
N	 1.1172846956	 3.3273044742	 0.5801212234	-0.32991
C	 1.2308245071	 2.0069766787	-0.0763193645	-0.160011
H	-2.1002846104	 1.2119833178	-0.2757022807	 0.141306
H	-1.5137768718	 2.3785908937	 0.9283316269	 0.148419
H	-2.1500190836	 3.2393415422	-1.5205717076	 0.257278
H	 1.991374441	 3.6127127303	-1.4280339413	 0.125006
H	 2.0311632406	 3.6180046431	 0.9178251719	 0.255241
H	 2.1753053196	 1.4729723936	-0.0583037705	 0.114929
