19
gdb 67804	2.34091	1.93747	1.56495	1.4906	79.79	-0.2201	0.0206	0.2407	962.6261	0.15959	-385.862195	-385.854408	-385.853464	-385.89371	31.887	
C	-0.0818840823	 1.4626465712	 0.0267573244	-0.495546
C	-0.0267275396	-0.0437436423	-0.0522527375	 0.278913
C	 0.9627239137	-0.7377823735	-0.9273773978	-0.146934
C	 0.5525814132	-1.9855471217	-1.1854972413	-0.090622
C	-0.684432091	-2.2703032384	-0.3730745424	-0.178514
C	-0.2442670397	-2.3058152935	 1.148069182	-0.227942
C	-0.5196864438	-0.8147886955	 1.2362462479	-0.192852
C	-1.2913581866	-0.8452372413	-0.0634535981	 0.343077
O	-2.5088008029	-0.3284223437	-0.4450515227	-0.460826
H	 0.8262278679	 1.871547326	 0.4833451454	 0.11455
H	-0.1837114908	 1.901361138	-0.9715444086	 0.124677
H	-0.9384287071	 1.7958144687	 0.6193642941	 0.120649
H	 1.8787268792	-0.2729084997	-1.2727944779	 0.090301
H	 1.0858133496	-2.7349206444	-1.7576511652	 0.092892
H	-1.3389780824	-3.0736359588	-0.7097671414	 0.067281
H	-0.9645357816	-2.8665393423	 1.7507862309	 0.096258
H	 0.7682804243	-2.6704571235	 1.3475733806	 0.093685
H	-0.6868105575	-0.2372722576	 2.1385386523	 0.085175
H	-3.1978283927	-0.7287096178	 0.0967646953	 0.285779
