20
gdb 91785	2.45173	1.65741	1.19557	1.9112	78.84	-0.2356	-0.0207	0.2149	1109.0072	0.170499	-403.160511	-403.151564	-403.15062	-403.194062	33.745	
C	 0.5567471608	 1.5674786288	-0.0164835784	-0.406055
C	 0.0616452927	 0.115490785	-0.0518150401	-0.100677
C	 0.5181146988	-0.7593293021	-1.244000977	-0.194163
N	 1.2957638045	-1.9230754218	-0.7339033218	-0.134658
C	 2.5012089253	-1.5136282842	-0.0264340601	-0.281644
C	 1.2723210461	-1.8877677266	 0.7450441755	 0.2161
C	 1.1725545837	-3.1563498286	 1.5494245773	-0.48154
C	 0.4893958214	-0.6854291344	 1.1913986895	 0.357822
O	 0.1966436969	-0.4197462962	 2.3311618399	-0.336704
H	 1.6477650582	 1.6258322315	-0.0880502755	 0.120481
H	 0.1375772888	 2.1426844008	-0.8475176139	 0.120567
H	 0.2528482384	 2.0428608976	 0.9203567088	 0.142328
H	-1.0335795463	 0.134966466	-0.0133853669	 0.114207
H	-0.3409959596	-1.1581835068	-1.7899580215	 0.115016
H	 1.1343981493	-0.205662543	-1.9595964431	 0.110865
H	 3.3215880168	-2.2262952559	-0.0493500481	 0.125599
H	 2.8083656628	-0.4706409842	-0.0677195537	 0.118511
H	 1.8332646623	-3.9270172746	 1.1457966948	 0.125357
H	 1.448960581	-2.956448037	 2.5887368111	 0.140801
H	 0.1488257579	-3.5437253143	 1.5436170033	 0.127788
