16
gdb 18137	3.35852	1.88778	1.51259	4.8074	68.37	-0.2368	0.0149	0.2517	867.9665	0.131465	-342.745508	-342.738164	-342.73722	-342.777033	27.669	
C	-0.0537861616	 1.5261535316	-0.1449881537	-0.420463
C	 0.051538964	 0.0278328996	 0.0332062256	 0.006597
C	 1.304164445	-0.768341356	-0.1600301769	-0.035024
N	 2.4671143718	 0.0374480777	 0.2871041124	-0.321785
C	 1.9700244518	-0.0583086065	 1.6980304478	-0.137886
C	 1.930522909	 1.2008565876	 2.4506131428	 0.30307
N	 1.8987678772	 2.1752430748	 3.0713089998	-0.329077
C	 0.6561350975	-0.6999492024	 1.220156398	-0.121066
H	 0.8993572502	 2.0188330465	 0.0535504099	 0.153189
H	-0.3419740472	 1.7616100323	-1.1750250887	 0.114939
H	-0.8086823446	 1.9522500349	 0.5227665601	 0.125477
H	-0.8210792534	-0.5243748467	-0.3129912595	 0.095378
H	 1.4199905803	-1.5920111398	-0.854096484	 0.102037
H	 3.3419586954	-0.4647876842	 0.1863884207	 0.233581
H	 2.543469721	-0.7816697725	 2.2875622108	 0.125643
H	 0.1106409034	-1.4349416669	 1.7969467448	 0.105388
