19
gdb 95152	2.67914	1.74952	1.45915	2.048	74.16	-0.2365	0.011	0.2475	967.2959	0.161966	-423.033351	-423.02608	-423.025136	-423.064598	29.961	
O	-0.074180031	 1.4548926049	 0.0538153862	-0.445247
C	 0.0076207579	 0.0379127136	-0.0040086908	 0.13599
C	 0.8232622668	-0.5456155773	 1.1714397973	-0.248398
C	 0.5464645982	-2.0484267466	 1.4170961509	-0.211905
C	-0.958328222	-2.3448863579	 1.2393929893	 0.03643
O	-1.3042668734	-1.9388892062	-0.0914822693	-0.258824
C	-1.4324734607	-0.5199563702	 0.0207417261	 0.0178
C	-2.083748467	-0.3387052642	 1.3821780911	-0.072483
C	-1.8120749868	-1.4242955634	 2.1005055831	-0.084311
H	 0.8211640106	 1.8077030252	 0.0683103757	 0.28268
H	 0.4477685585	-0.2888249986	-0.9585839474	 0.071036
H	 1.8939010708	-0.3828825307	 0.9978199832	 0.085578
H	 0.5555411581	 0.0282418413	 2.0635270664	 0.112036
H	 1.090002091	-2.6635692406	 0.6918774183	 0.107159
H	 0.8943223385	-2.337627929	 2.4156901712	 0.095053
H	-1.1778470519	-3.4112157427	 1.3431477283	 0.078272
H	-2.0114842084	-0.1405468028	-0.8251179262	 0.084434
H	-2.5999450012	 0.5582971547	 1.6945672421	 0.112482
H	-2.059313168	-1.6146226893	 3.1368310745	 0.102219
