15
gdb 131691	2.63669	1.48593	0.95596	1.5958	72.69	-0.2356	-0.054	0.1817	1146.9997	0.112965	-453.91167	-453.903662	-453.902718	-453.944614	29.308	
O	-0.0245133231	 1.3989073366	-0.055303081	-0.425065
C	-0.0105521071	-0.0168642429	-0.0646086803	-0.163776
C	-1.4170904622	-0.5252456733	 0.0275072884	 0.156636
C	-2.4782445165	 0.2956266736	 0.1068856083	 0.02786
O	-3.7682194767	-0.1049720227	 0.1917019189	-0.239373
N	-4.0727439637	-1.456787317	 0.2011917049	-0.06664
C	-3.0866121485	-2.2779261904	 0.1270027071	-0.008088
C	-1.6589751044	-1.954969272	 0.0323019089	 0.197667
N	-0.6979009377	-2.8084106012	-0.0400474953	-0.53597
H	 0.8836944613	 1.7081850793	-0.1042538679	 0.296856
H	 0.4490939964	-0.4221990082	-0.9797270381	 0.121651
H	 0.5679400847	-0.4327003832	 0.7752542109	 0.121548
H	-2.408095616	 1.3749618615	 0.1110306184	 0.16662
H	-3.3912500061	-3.3232214612	 0.1390302358	 0.136392
H	-1.0592429201	-3.764583159	-0.0232232789	 0.213682
