21
gdb 81795	2.04077	1.7748	1.28597	1.0925	82.92	-0.2352	0.0737	0.309	1106.2364	0.181391	-387.045932	-387.037032	-387.036088	-387.078844	35.262	
C	-0.1484680451	 1.5315025825	 0.0075637631	-0.404715
C	 0.0035043722	 0.0161996939	-0.038355122	-0.069161
C	 1.1320072681	-0.4850754874	-0.9605509391	-0.111041
C	 1.2785752759	-1.9885495854	-0.8495556577	-0.365991
C	 1.8553144711	-1.1107925264	 0.2250510173	 0.333628
O	 3.2059899603	-1.0769844401	 0.5297564967	-0.459668
C	 0.7639417911	-0.6194030418	 1.1576144593	 0.311401
C	 1.0224920334	 0.002259285	 2.4938501923	-0.329573
C	 0.2441105266	-1.2927147227	 2.3949107447	-0.341797
H	 0.8127932347	 2.0170712706	 0.2047059797	 0.122355
H	-0.5307742117	 1.9109688507	-0.9465848318	 0.111244
H	-0.849008141	 1.8398205597	 0.7910780104	 0.111043
H	-0.9671244569	-0.4528141252	-0.243925842	 0.064739
H	 1.5394838586	 0.0650638033	-1.8002659623	 0.089933
H	 0.4133972115	-2.6209158286	-0.6598201948	 0.104323
H	 2.0169740154	-2.4146478009	-1.5227244018	 0.108019
H	 3.487302647	-1.9686361356	 0.7598209235	 0.286935
H	 2.0418437972	-0.039666972	 2.8636705284	 0.118417
H	 0.4834855131	 0.9041364265	 2.7647723413	 0.109752
H	-0.8236912835	-1.2566735222	 2.5877735796	 0.108468
H	 0.7234108719	-2.2097720937	 2.7250988851	 0.101688
