17
gdb 41344	3.11171	1.90731	1.58362	0.8264	65.9	-0.2509	0.056	0.3069	868.9322	0.138874	-458.91903	-458.912885	-458.911941	-458.94923	26.04	
C	 0.0093069641	 1.4895477793	-0.1705834872	-0.16262
O	 1.4548817072	 1.4647555916	 0.0929926095	-0.357186
C	 1.3003692816	 0.2135427512	 0.7618250299	 0.384159
C	 2.1234730384	-1.0646763368	 0.7058081774	-0.148348
O	 1.1950743647	-1.9323274618	 1.4263859995	-0.285173
C	 0.1841034149	-1.1081076676	 2.0239079485	 0.213441
C	 0.9072967413	 0.2068347434	 2.2641075828	-0.318625
O	-0.8285876104	-0.7365208092	 1.064372735	-0.279709
C	-0.0471407175	-0.0410755875	 0.1019490977	 0.066966
H	-0.5233386064	 2.1159546916	 0.5524796278	 0.117913
H	-0.2004153205	 1.821221765	-1.1898467577	 0.119968
H	 2.2597922049	-1.4589475114	-0.3051394498	 0.116715
H	 3.0890564598	-1.0271728522	 1.2243415313	 0.106964
H	-0.2917030851	-1.6659438538	 2.8267608692	 0.099987
H	 1.7640480815	 0.1359114945	 2.9368133015	 0.111334
H	 0.2411494769	 1.0143530378	 2.563584216	 0.117329
H	 0.0003089047	-0.6079104943	-0.8323431315	 0.096886
