17
gdb 6813	3.07573	1.74966	1.44452	4.4165	68.18	-0.278	0.0002	0.2782	930.4054	0.14091	-363.860668	-363.852265	-363.85132	-363.893887	30.329	
C	-0.270236774	 1.5543315614	 0.027555018	-0.45581
C	-0.0647402103	 0.0447631963	 0.0008020238	 0.250728
C	-1.3305910725	-0.6965562279	-0.4235122339	-0.448429
C	 1.2207990312	-0.4468880525	-0.7148358324	-0.102589
O	 1.6998115838	-1.1062547355	 0.4810350697	-0.273681
C	 0.604691403	-0.6070174158	 1.2637779067	-0.046579
C	 1.0403877819	 0.2977662189	 2.3327241594	 0.290144
N	 1.3673091518	 1.0189092772	 3.1748178765	-0.330267
H	 0.6301671104	 2.0821321101	 0.3526263579	 0.141169
H	-0.5336207966	 1.9136859494	-0.973101808	 0.120944
H	-1.0837694509	 1.8306365586	 0.7062206737	 0.130702
H	-1.6428804295	-0.3805432802	-1.4244823802	 0.125547
H	-1.1709399809	-1.7792994475	-0.4464759379	 0.127824
H	-2.1561943145	-0.4878179226	 0.2653226399	 0.127037
H	 1.0741789818	-1.1573685234	-1.535805024	 0.110049
H	 1.9046611889	 0.3471506424	-1.037405225	 0.11251
H	 0.0246852664	-1.4208862589	 1.7164395958	 0.120703
