17
gdb 37060	3.29151	1.78118	1.53495	3.068	70.79	-0.2255	0.0146	0.2401	892.7595	0.139445	-417.993464	-417.986861	-417.985917	-418.024004	27.3	
C	 0.0691568642	 1.4543256555	-0.0563018131	-0.361111
C	 1.3966975723	 0.726624864	 0.0291308965	 0.226192
C	 1.9851691611	 0.4809988844	 1.4023535229	-0.134342
O	 0.8831170281	 0.0224245864	 2.1960641275	-0.264452
C	-0.0365425908	-0.6992980225	 1.3676933456	-0.147078
C	 0.0854557186	-0.0514195698	 0.0042800198	 0.287061
N	 0.020871311	-0.7909873098	-1.2373209261	-0.308245
C	 1.1007088404	-0.4899743785	-1.8632067782	 0.027663
N	 2.0274521625	 0.3025115495	-1.1910992145	-0.36299
H	-0.2487156295	 1.9811161538	 0.8367945634	 0.12935
H	-0.2028903495	 1.914757363	-0.9991568588	 0.114255
H	 2.7791755094	-0.2775268162	 1.3213936897	 0.097518
H	 2.3859008756	 1.3616229784	 1.9143358942	 0.10558
H	 0.230110875	-1.7639009373	 1.2886071949	 0.103208
H	-1.0191090851	-0.6146253852	 1.8408892662	 0.11198
H	 1.336489701	-0.8464833827	-2.8619436687	 0.128775
H	 2.6434733256	 0.9101786869	-1.7098968113	 0.246635
