19
gdb 47420	2.75824	1.33812	1.00673	2.3575	76.2	-0.2452	0.021	0.2662	1198.1183	0.161729	-419.197882	-419.189683	-419.188739	-419.231451	30.629	
N	 0.107515873	 1.3482943138	-0.2712571676	-0.539384
C	 0.0356922617	 0.0895322791	-0.2128887573	 0.407277
O	 1.108931417	-0.7550940961	-0.230692992	-0.237888
C	 0.6799476748	-2.123322641	-0.1189938387	-0.084101
C	-0.7978490684	-2.1222119702	-0.5312534136	-0.25569
C	-1.254862035	-0.7117162786	-0.1073757954	-0.117595
C	-1.8150968758	-0.6598279671	 1.3034305849	 0.032575
C	-2.7202431062	 0.4369550729	 1.7079231809	-0.237244
N	-3.2401594143	-0.9369955968	 1.5460674499	-0.333901
H	 1.0819967945	 1.6518094404	-0.3172786213	 0.221897
H	 1.3194338323	-2.7281998062	-0.7655984086	 0.122418
H	 0.819633597	-2.4548480384	 0.9172409408	 0.117458
H	-0.8839532484	-2.2397099371	-1.6153393089	 0.11642
H	-1.3684017735	-2.9213474283	-0.0533089073	 0.122555
H	-1.9936615345	-0.2865791417	-0.7920359679	 0.096376
H	-1.1639536917	-1.090072484	 2.0634875876	 0.092741
H	-2.7097726956	 0.8045031543	 2.7294985272	 0.121847
H	-2.9656760389	 1.1852733692	 0.9597639887	 0.127204
H	-3.732505988	-1.0111049641	 0.6580075287	 0.227036
