20
gdb 11667	3.27664	1.65863	1.37783	1.4543	75.76	-0.263	0.0752	0.3381	991.1457	0.177235	-348.951087	-348.942922	-348.941978	-348.983508	31.27	
C	-0.1515869846	 1.5797462788	-0.0124174673	-0.444308
C	 0.0260693302	 0.068506941	 0.0288149936	 0.012962
C	 1.1993328676	-0.6498046658	-0.716009823	-0.062179
C	 2.1625775396	-0.1577005834	 0.4024224025	-0.260382
C	 0.8753336279	-0.645372916	 1.1375138875	 0.364911
C	 0.6181384155	-0.6465068649	 2.6173230815	-0.225217
O	 1.6295137373	-1.4265298632	 3.2413231588	-0.42068
C	 0.9114505147	-1.881311322	 0.1884968391	-0.250148
H	 0.7770339359	 2.1329477128	 0.1481797416	 0.117905
H	-0.5537192181	 1.8869683723	-0.9844480757	 0.116766
H	-0.8672838653	 1.9066249557	 0.7505460361	 0.113582
H	-0.9440209231	-0.416925603	-0.1380268066	 0.056839
H	 1.3870530773	-0.655246105	-1.7908788117	 0.064141
H	 3.0592987486	-0.7587315047	 0.5687728738	 0.097684
H	 2.3974833004	 0.907089446	 0.4432666009	 0.085819
H	 0.6242190683	 0.39026113	 2.9934251202	 0.084677
H	-0.3856069935	-1.0594722927	 2.8142169945	 0.08334
H	 1.4719868758	-1.4176930615	 4.1898907703	 0.287482
H	-0.0379270187	-2.401080865	 0.026284644	 0.080819
H	 1.7352914139	-2.5816436395	 0.34159159	 0.095986
