12
gdb 3689	5.99624	2.81573	1.93894	2.2358	57.57	-0.2342	-0.0709	0.1633	628.3686	0.091389	-319.573117	-319.567234	-319.56629	-319.603096	20.75	
C	-0.0133133284	 1.4819279436	 0.0157867399	-0.452822
C	-0.0077349148	-0.017564506	-0.002974869	 0.394772
N	 0.1410381769	-0.6264391347	-1.1937380547	-0.262497
C	 0.1392286903	-1.9483803277	-1.1553369372	-0.005974
C	-0.0091134845	-2.6273758263	 0.0545656769	 0.015024
N	-0.1524590752	-1.9705338709	 1.2002820218	-0.16542
N	-0.1521611832	-0.6407373088	 1.1737926936	-0.223031
H	 0.9238856976	 1.867349045	-0.3977399922	 0.146306
H	-0.821949322	 1.8635883368	-0.6153233129	 0.146299
H	-0.141072203	 1.8454591262	 1.035254387	 0.14771
H	 0.2568613536	-2.4816052101	-2.0964671238	 0.129702
H	-0.0141801673	-3.710940107	 0.1146151607	 0.129932
