14
gdb 14321	5.55166	1.7355	1.43837	5.1423	65.02	-0.266	-0.0448	0.2212	833.7315	0.108878	-382.55754	-382.55152	-382.550576	-382.587642	23.484	
O	-0.0194400895	 0.0273180502	 0.1998981147	-0.336082
C	 0.0149449504	 1.2029662845	-0.012469363	 0.435624
O	-1.1409860112	 1.9250266217	-0.3306966631	-0.246616
C	-0.7701271191	 3.2621041501	-0.5690241103	 0.082772
C	-0.9096431213	 4.4499062423	 0.4588134541	-0.260394
C	 0.6037386093	 4.8009202542	 0.1725955414	-0.309012
C	 0.6870593422	 3.3631510711	-0.279470311	 0.240081
C	 1.1492039835	 2.1684017073	 0.0894638166	-0.370567
H	-1.105734703	 3.5646160303	-1.5654850159	 0.112113
H	-1.6549182659	 5.211659012	 0.2243053952	 0.120888
H	-1.0437347967	 4.0770810854	 1.474908787	 0.137323
H	 0.7028126033	 5.5287368089	-0.6370165348	 0.131687
H	 1.2324446459	 5.0991855575	 1.0116081346	 0.132737
H	 2.0846763022	 1.8867632844	 0.5497348945	 0.129448
