15
gdb 27428	2.58576	1.71652	1.18889	5.9042	75.19	-0.2499	-0.089	0.1609	1032.0877	0.11327	-416.850159	-416.84253	-416.841586	-416.882319	28.35	
C	-0.3583211622	 1.4636433387	 0.1115065587	-0.47148
C	-0.0455290669	 0.0009836009	-0.0852621665	 0.29662
N	-0.4304259516	-0.5721205179	-1.1707535874	-0.271164
C	-0.0375501794	-1.8905657755	-1.4358373483	 0.351132
O	 0.6901884881	-2.1863355287	-2.3450944888	-0.299406
N	-0.6623990907	-2.8614205605	-0.6262116894	-0.208655
C	-0.3204494747	-2.9159137582	 0.6084372938	-0.00569
C	 0.5293297826	-1.9768955006	 1.3264355709	-0.088474
C	 0.6609183785	-0.6675963478	 1.0103986187	-0.113321
H	-0.9239423446	 1.6253965431	 1.035567973	 0.140213
H	 0.5709448328	 2.0390701173	 0.1995177033	 0.143716
H	-0.929773333	 1.838032574	-0.7374541722	 0.156118
H	-0.7303539907	-3.7387524964	 1.1992193678	 0.128963
H	 0.9834700598	-2.3398222517	 2.2448697738	 0.122714
H	 1.218074432	-0.0266124767	 1.6892402624	 0.118713
