19
gdb 58380	1.77886	1.36379	0.95532	4.3563	76.98	-0.2646	0.0028	0.2674	1310.5026	0.157653	-419.245459	-419.235288	-419.234343	-419.281736	35.573	
C	 0.0978764603	 1.4245399395	-0.062019149	-0.38781
C	-0.0677529179	-0.0941650549	 0.0829838214	 0.022105
C	 0.6796438792	-0.6574914887	 1.2990699519	-0.389877
N	-1.4914798507	-0.4943853759	 0.075999894	-0.054425
C	-1.9882761693	-1.3602054269	-0.9799463365	-0.31271
C	-1.3341028136	-2.6765961603	-0.9846920999	 0.274532
N	-0.7939630167	-3.697941317	-0.9935026341	-0.310287
C	-2.3758096706	-0.0926349446	 1.0369989328	 0.160902
O	-3.5513014037	-0.3934865283	 1.0755728322	-0.338569
H	 1.1565382196	 1.6759611094	-0.1764737965	 0.128535
H	-0.4403588097	 1.7964664598	-0.9385087248	 0.125396
H	-0.2756115067	 1.9569449257	 0.8181092833	 0.128111
H	 0.3585265264	-0.5626170562	-0.8096567279	 0.110325
H	 1.7476735918	-0.4336382205	 1.2187206597	 0.126178
H	 0.3170747934	-0.2168362471	 2.2329933723	 0.124291
H	 0.5591630519	-1.7421034419	 1.3586884264	 0.147543
H	-3.0617242431	-1.4831694059	-0.8083798606	 0.197831
H	-1.8485031578	-0.90064427	-1.9664625976	 0.156327
H	-1.903311633	 0.5573145237	 1.7933104128	 0.091601
