13
gdb 131296	4.27286	1.02062	0.90978	1.2703	65.82	-0.2631	-0.0297	0.2334	1227.4786	0.089304	-448.869713	-448.861903	-448.860959	-448.90302	28.002	
O	 0.2593687962	 1.2730005491	-0.1341088617	-0.394858
C	 0.1147677105	-0.0496093384	-0.0704635928	 0.485905
N	 0.2636606041	-0.835885537	-1.1266987091	-0.31279
N	 0.0218625514	-2.0266795566	-0.5714471211	 0.15757
C	 0.0751478016	-3.2797383622	-1.3170464225	-0.294155
C	 1.4307149654	-3.669359	-1.6843398813	 0.327606
C	 2.5387957349	-4.0081318142	-1.9953403722	-0.43727
N	-0.253370416	-1.9853378737	 0.7188056285	-0.118613
N	-0.2012799633	-0.7190388389	 1.0620130657	-0.30089
H	 0.1023913024	 1.6202436785	 0.7532520397	 0.321176
H	-0.3877315542	-4.0266343818	-0.6666985408	 0.179369
H	-0.5485865559	-3.1627079305	-2.2086598559	 0.171521
H	 3.5224757929	-4.3028921244	-2.2676668364	 0.215427
