18
gdb 99011	5.12389	0.69843	0.62329	3.5087	71.04	-0.2374	-0.0245	0.2129	1754.3313	0.146671	-472.442728	-472.431868	-472.430924	-472.481104	36.056	
N	-0.2193590365	 1.3064948316	-0.3625425282	-0.483887
C	 0.0248063337	-0.0799143063	-0.0215917234	-0.278657
C	 0.8764831377	-0.2950061553	 1.2440961009	 0.393847
O	 1.3066939131	 0.6167194635	 1.9017728093	-0.304007
N	 1.0873005431	-1.6492150634	 1.5353141532	-0.387732
C	 1.8073700943	-2.2071062307	 2.599921302	 0.393848
O	 2.3697503419	-1.5666042675	 3.4498324936	-0.304007
C	 1.8108093837	-3.747600334	 2.578796427	-0.278658
N	 2.5444214598	-4.3695102348	 3.6618650718	-0.483887
H	-0.6593549821	 1.7658472426	 0.4306274835	 0.239885
H	 0.6742540961	 1.7804023187	-0.4654098585	 0.239855
H	-0.9346843444	-0.5978044837	 0.1142931405	 0.129602
H	 0.5218796241	-0.5816893586	-0.86326341	 0.129543
H	 0.6658450893	-2.3081997677	 0.8953222535	 0.255369
H	 0.7690845116	-4.0966731521	 2.5945570933	 0.129585
H	 2.2258555305	-4.0801210712	 1.6173162629	 0.12956
H	 3.5004286627	-4.0236253131	 3.6504814501	 0.239863
H	 2.1662417114	-4.0384276779	 4.5456538986	 0.239878
