23
gdb 113545	2.95123	1.00679	0.93234	1.6603	86.63	-0.2212	0.0823	0.3036	1436.4479	0.204285	-388.266622	-388.256681	-388.255737	-388.301834	36.916	
C	 0.3249537985	 1.4520247945	 0.3380897781	-0.370438
C	-0.2309540143	 0.1463838668	-0.2405346242	-0.194046
C	 0.6232684837	-0.4204813131	-1.3564925003	-0.078123
C	 1.8921554001	-1.2054659824	-1.0281364937	-0.36952
C	 0.6934938179	-1.8991294837	-1.5838689224	 0.443299
O	-0.0691180384	-2.813545068	-0.7900544652	-0.308542
C	-0.3917806201	-3.5996427304	-1.959479098	-0.082579
C	 0.4987564651	-2.7155552086	-2.864541051	-0.117348
C	-0.1556014591	-2.0405898118	-4.0607897108	-0.408117
H	 1.3285915787	 1.303058272	 0.7498911869	 0.116376
H	 0.396372789	 2.2290222984	-0.431309502	 0.109552
H	-0.3150777738	 1.8347273761	 1.1395189516	 0.108998
H	-0.326733916	-0.6065316418	 0.5493392927	 0.113502
H	-1.2479899819	 0.3151551892	-0.6180474127	 0.093636
H	 0.6760052128	 0.197980034	-2.2513504897	 0.078492
H	 2.7693334929	-1.0829996759	-1.6563935907	 0.106746
H	 2.10784211	-1.3816416049	 0.0218128117	 0.118148
H	-0.0878356481	-4.6454888215	-1.8414081463	 0.102701
H	-1.4637677015	-3.5587902274	-2.1933956847	 0.097882
H	 1.4158831392	-3.22861014	-3.1701614353	 0.0819
H	-1.0743409784	-1.522756757	-3.766721757	 0.121991
H	 0.5137799617	-1.3038232663	-4.5178763377	 0.11879
H	-0.4116892878	-2.7749199284	-4.8321440991	 0.116701
