22
gdb 109743	2.5847	1.09247	0.99833	1.6517	85.5	-0.2219	-0.0203	0.2015	1369.2174	0.191273	-404.345864	-404.335277	-404.334333	-404.381587	38.261	
C	 2.5437033205	 2.2532315165	-1.0403503423	-0.377889
C	 1.3020230018	 1.4484498514	-0.660649262	-0.122006
N	 1.3751992455	 0.1242687622	-1.2859960117	-0.102074
C	 1.9677929017	-1.0092101113	-0.6164318826	 0.007265
C	 2.5474765019	-0.9761422968	 0.7804381556	-0.434105
C	 0.4722451455	-0.9684836465	-0.8977451559	-0.143082
C	-0.5192006286	-0.8809897718	 0.2195962707	 0.393787
C	-1.75697853	-1.7445584073	 0.0393956807	-0.48195
O	-0.3778652752	-0.1792856692	 1.202975199	-0.331914
H	 3.4515036859	 1.7959967447	-0.6332540636	 0.116689
H	 2.6534473665	 2.3085718563	-2.1271609825	 0.122903
H	 2.4738457257	 3.2703515818	-0.6425009999	 0.112956
H	 1.1753170511	 1.4144800205	 0.4254921666	 0.126455
H	 0.4073904328	 1.9357545882	-1.0650377221	 0.101153
H	 2.5264250071	-1.6509284714	-1.2994346989	 0.095519
H	 1.8899213174	-0.4805984792	 1.4938220254	 0.163776
H	 2.7207012128	-2.0002418986	 1.1274306845	 0.11923
H	 3.5167174329	-0.4656101886	 0.7745756684	 0.123728
H	 0.1129271955	-1.5467478903	-1.7476245872	 0.086419
H	-1.4774914383	-2.7856749369	-0.1581472333	 0.138705
H	-2.3777119608	-1.688589472	 0.9339769531	 0.140613
H	-2.3325972616	-1.4013781917	-0.8282879219	 0.143822
