13
gdb 2146	3.85814	3.21877	1.84763	3.0757	55.92	-0.2473	-0.0559	0.1914	653.1331	0.102496	-344.484341	-344.478222	-344.477278	-344.514346	22.742	
O	 0.1479778064	 1.3493780013	 0.2974686195	-0.438799
C	-0.0177001829	-0.0182188164	 0.0273953505	 0.059032
C	-1.4822678365	-0.4631632756	-0.1235526944	-0.289613
C	-1.4362019474	-1.410019712	-1.2998409471	-0.047482
C	-0.2655543281	-1.3919581252	-1.9548844218	-0.175101
C	 0.6302132043	-0.4136964339	-1.3109714781	 0.344816
O	 1.6586463065	 0.0796396113	-1.7195720415	-0.348633
H	 0.9753354138	 1.5998794034	-0.139459063	 0.292422
H	 0.4634925648	-0.6375477334	 0.8056020891	 0.094882
H	-1.8972693608	-0.9331148709	 0.7734839404	 0.12067
H	-2.1081151998	 0.4088234634	-0.3488792805	 0.143351
H	-2.2910708897	-2.0183541649	-1.576777136	 0.121574
H	-0.0087726807	-1.9410175569	-2.8513077172	 0.122882
