13
gdb 125462	7.17647	0.86128	0.78018	4.4358	62.6	-0.2905	-0.0425	0.248	1368.203	0.087888	-489.908492	-489.900363	-489.899419	-489.942624	27.251	
C	-0.0613127892	 1.4498648607	 0.0561283502	-0.495142
C	-0.0287395596	-0.0307645538	-0.0400627818	 0.431731
N	-0.9918230577	-0.8423313145	-0.367838981	-0.348745
C	-0.3670952916	-2.0532365275	-0.2847496563	 0.449522
O	-1.0419815322	-3.1814381649	-0.572343426	-0.213722
C	-0.6484543626	-4.3550878457	 0.0470283424	 0.170475
O	-1.1211821525	-5.3943751489	-0.2717305714	-0.234618
N	 0.8955602951	-2.0296189838	 0.0578140399	-0.211825
O	 1.1239648269	-0.6583045589	 0.2376237323	-0.191778
H	 0.6406467611	 1.8947148527	-0.6556047269	 0.166913
H	-1.0691471415	 1.8014564243	-0.1621204655	 0.171762
H	 0.2310544543	 1.7754100317	 1.058617525	 0.165275
H	 0.1011175495	-4.1790972114	 0.8318659689	 0.140153
