17
gdb 64989	2.54836	1.28807	1.00044	0.6317	70.21	-0.2569	-0.0571	0.1998	1202.9011	0.132259	-458.968549	-458.959085	-458.958141	-459.003693	33.139	
C	-0.0957097284	 1.4274952575	-0.8983354217	-0.463283
C	-0.1584788619	 0.2549638415	 0.048668806	 0.29305
C	 0.4591464204	-1.0460292814	-0.3067109247	-0.236171
O	 1.0846511484	-0.1742960497	 0.6266597919	-0.256668
C	-1.3403824537	 0.2394546403	 0.9924363212	 0.323217
O	-2.2924244079	 0.9609903943	 0.8089146942	-0.300711
C	-1.2980862106	-0.7462856508	 2.1696001628	-0.387134
C	-2.1914636874	-1.9333733761	 1.841537032	 0.148703
O	-1.7800773063	-2.990373449	 1.4370404733	-0.225164
H	 0.7871870702	 1.3464746013	-1.5358100703	 0.127533
H	-0.9922350318	 1.4608075167	-1.5217804623	 0.144586
H	-0.0438379633	 2.3683476378	-0.3432012484	 0.138905
H	 0.0699167582	-1.9764557795	 0.1022931956	 0.154203
H	 0.9451373092	-1.1200922185	-1.2783425242	 0.128907
H	-0.2810884589	-1.0858199893	 2.3632364322	 0.157581
H	-1.7072930472	-0.219420111	 3.0358817781	 0.142751
H	-3.277637229	-1.7471934439	 1.9715327043	 0.109695
