21
gdb 109237	2.52579	1.37452	1.02739	1.533	84.45	-0.2147	0.034	0.2487	1233.8187	0.182339	-387.089243	-387.080161	-387.079217	-387.122743	34.874	
C	-0.0178872069	 1.5448709998	-0.0042688353	-0.492276
C	 0.0524543938	 0.0347963465	-0.0268128186	 0.263777
C	-0.8336436699	-0.7918580856	 0.888763364	-0.318935
C	 0.6624621076	-0.7985727414	 1.0908101389	-0.078619
C	 1.4735186695	-1.9253182048	 0.4546412531	-0.277569
C	 1.1880873408	-1.7703321772	-1.0236406246	-0.17568
C	 0.4420057565	-0.6935032246	-1.2846200454	 0.258025
C	-0.0333162527	-0.2373487196	-2.6267742462	-0.189675
O	 0.4411505018	-1.1173253766	-3.6302456167	-0.414072
H	 0.9231811679	 1.9958513959	-0.3400364888	 0.117764
H	-0.8191529103	 1.9253732341	-0.6492348892	 0.114472
H	-0.2178599638	 1.9087768795	 1.0084234155	 0.11499
H	-1.4232581377	-0.2579612729	 1.6283235959	 0.101419
H	-1.3137106284	-1.6751689299	 0.47908565	 0.10758
H	 1.0476577276	-0.3137688325	 1.9811557413	 0.079151
H	 2.5458768697	-1.8202866442	 0.6709625661	 0.102509
H	 1.1822487699	-2.9151553301	 0.8308442776	 0.10483
H	 1.5310278743	-2.4722323874	-1.7727045626	 0.104416
H	-1.1376948554	-0.1916105363	-2.6224554364	 0.095055
H	 0.3125366685	 0.7958933818	-2.8066270239	 0.094682
H	 0.1403930875	-0.7875193846	-4.4814194746	 0.288156
