19
gdb 126982	3.15504	1.06231	0.80678	1.683	79.8	-0.1999	0.0267	0.2266	1430.5916	0.159409	-419.226754	-419.21723	-419.216285	-419.262196	33.61	
C	-0.0515146499	 1.5390994681	 0.0398804654	-0.391439
C	 0.0077334264	 0.0226543103	 0.0191820902	-0.049879
O	-1.3261018438	-0.4696386517	 0.0236590986	-0.282009
C	-1.4582220228	-1.8217412569	 0.0035541435	 0.215106
C	-2.6834375893	-2.4677840403	-0.0024431875	 0.248605
C	-4.0706870577	-1.9221750494	 0.01042956	-0.512934
N	-2.3731196734	-3.7942691455	-0.0230870219	-0.245883
N	-1.0556622589	-4.0511658056	-0.0308866317	-0.234871
C	-0.4837496083	-2.8462534179	-0.014666265	-0.121986
H	 0.9598522604	 1.9560222588	 0.0369268359	 0.118909
H	-0.5850109134	 1.9154912857	-0.8374101795	 0.129328
H	-0.5700975059	 1.8919500481	 0.9356989803	 0.12938
H	 0.533842722	-0.3374558363	-0.8773439261	 0.102892
H	 0.5484628632	-0.3609021576	 0.8970996472	 0.102889
H	-4.6461336688	-2.2340650847	-0.8693215038	 0.131455
H	-4.6303889969	-2.2341201841	 0.9003571322	 0.131938
H	-4.0240435637	-0.8311513009	 0.0103269764	 0.153456
H	-3.0178511998	-4.5662231598	-0.0331188735	 0.26812
H	 0.5917023105	-2.7632401702	-0.0169005408	 0.106922
