19
gdb 6523	2.7467	1.96367	1.38722	2.3083	73.38	-0.2478	-0.034	0.2138	964.9242	0.162756	-365.063781	-365.0545	-365.053555	-365.09711	33.876	
C	-0.0695535426	 1.466262253	-0.0774433267	-0.434809
C	 0.0121014742	-0.0450066179	 0.0507560905	 0.284473
C	-1.1702923287	-0.7537546539	-0.5843009504	-0.478413
N	 1.3533302048	-0.6089185014	-0.0915237756	-0.393839
C	 0.7431925879	-0.6466494464	 1.2500776503	 0.18749
C	 1.3680969385	 0.1946114468	 2.3472284176	-0.476534
C	 0.2902630679	-1.9865540093	 1.7268256212	 0.106196
O	 0.2337194458	-2.981381114	 1.0395901646	-0.274114
H	 0.8595275134	 1.9541998878	 0.2165502138	 0.131915
H	-0.2621762384	 1.7307279863	-1.1231402991	 0.124396
H	-0.8913821905	 1.8699419605	 0.5236236801	 0.118218
H	-1.1804816244	-0.5417522103	-1.6597086065	 0.123427
H	-1.1316688394	-1.834673842	-0.4514918925	 0.152299
H	-2.114185852	-0.3817175556	-0.1708533284	 0.119625
H	 1.2904186899	-1.5535215956	-0.4761916601	 0.240044
H	 1.6789540416	 1.1717298355	 1.9806510755	 0.136509
H	 0.6626509487	 0.3461453537	 3.1719841661	 0.121102
H	 2.2564513424	-0.3026904655	 2.7518475869	 0.130789
H	 0.019061531	-2.0260095818	 2.8045026425	 0.081225
