11
gdb 1587	3.90224	2.30719	1.66527	2.0069	48.54	-0.2489	-0.1149	0.134	724.9332	0.074142	-380.412093	-380.404359	-380.403414	-380.444969	24.694	
C	 0.6229471181	 1.3282558676	-0.1839722772	-0.490342
C	 0.1385833142	-0.086536362	-0.0192148185	 0.318312
O	 0.0427027379	-0.6798237118	 1.0271228374	-0.264069
C	-0.3669906624	-0.797886412	-1.2883183077	 0.213855
O	-1.0187790524	-0.227230664	-2.1295277466	-0.259693
C	-0.0553641445	-2.2912151053	-1.4602157677	 0.088822
O	 0.9001620272	-2.8215007246	-0.9645019024	-0.1984
H	 1.5573286311	 1.3294571934	-0.7585369396	 0.156532
H	-0.1052093998	 1.9039261519	-0.7630735269	 0.167516
H	 0.7924150301	 1.7820067667	 0.7927772283	 0.152897
H	-0.7474900094	-2.79691416	-2.1664280991	 0.114569
