17
gdb 87420	3.74358	1.33776	1.30279	1.1804	71.27	-0.2298	0.0711	0.3009	1035.194	0.134958	-421.727952	-421.720642	-421.719698	-421.759635	28.905	
C	-0.0702161356	 1.5249547867	-0.0777132663	-0.416992
C	-0.0750495636	 0.0321338336	 0.1185802867	-0.041103
O	 1.2066178068	-0.64272632	-0.0123812396	-0.313389
C	 0.569384053	-0.6217422791	 1.2506651122	 0.527217
C	 1.2869543083	-0.1575490416	 2.4972574036	-0.254462
C	 0.4895837613	-0.8254279492	 3.6318586528	 0.094877
O	-0.64067217	-1.4913683313	 3.0591906343	-0.292227
C	 0.2664440664	-1.9263990668	 2.0042028058	-0.068175
C	 1.5178426693	-1.620360794	 2.9170750111	-0.135573
H	 0.7546186839	 1.9884997283	 0.4693997614	 0.123746
H	 0.0369638611	 1.7754750847	-1.1381419298	 0.130082
H	-1.0119628469	 1.9566573492	 0.2777705555	 0.127383
H	-0.8906944775	-0.5016562075	-0.372600605	 0.09163
H	 1.9360171172	 0.6952276424	 2.6418510639	 0.102746
H	 0.4231798192	-0.4455927713	 4.6428391566	 0.116025
H	-0.0194528241	-2.8512167463	 1.5086841351	 0.097112
H	 2.4035938713	-2.1662584079	 3.2070276116	 0.111101
