19
gdb 63042	2.60579	2.04027	1.55031	0.2803	73.09	-0.2385	0.0621	0.3007	925.8656	0.159337	-422.973742	-422.966306	-422.965362	-423.005046	30.493	
C	 0.0227944151	 1.500349749	 0.0185124038	-0.453696
C	 0.0237666074	-0.0301440421	 0.0086936943	 0.325354
C	-1.3945639872	-0.5782669883	-0.1656848114	-0.453696
C	 1.0480501781	-0.6445057084	-0.9867652992	-0.013652
O	 2.2883878593	 0.041123011	-0.639098348	-0.286709
C	 2.2514652049	-0.736813302	 0.5546877888	 0.055136
C	 1.5214893719	-1.9020269281	-0.1053663569	 0.055136
O	 0.6270383755	-2.0864239668	 0.9889960938	-0.286709
C	 0.787201856	-0.653151587	 1.2114249976	-0.013653
H	 1.0296103165	 1.905909983	 0.1252216214	 0.134613
H	-0.4027885323	 1.893995859	-0.9109727283	 0.113936
H	-0.5952330621	 1.8700436809	 0.8444575918	 0.109991
H	-1.8192621063	-0.2262500739	-1.1125390087	 0.109991
H	-1.4118035879	-1.668763342	-0.1576378496	 0.134614
H	-2.048792713	-0.2245074327	 0.6385909465	 0.113936
H	 0.8385085606	-0.6655750215	-2.0551527813	 0.080338
H	 3.1552805635	-0.7476285782	 1.1605831083	 0.097366
H	 1.9329704536	-2.8015954098	-0.5587626811	 0.097366
H	 0.5695063963	-0.336369652	 2.2302778981	 0.080338
