21
gdb 85981	2.66719	1.23947	1.02317	1.4308	78.23	-0.2599	0.0713	0.3311	1262.668	0.18066	-424.193958	-424.184586	-424.183641	-424.228034	35.663	
C	-0.7181116169	 0.886327396	-0.7770013518	-0.408689
C	 0.3491816088	-0.0893687307	-0.3068302462	 0.066957
C	 1.6670978614	-0.1996258066	-1.1250342328	-0.30784
C	 2.4582030785	-0.2759360002	 0.2148480392	 0.361601
O	 3.6698426113	 0.44642541	 0.3085215357	-0.483155
C	 1.1980531509	 0.2789316594	 0.9411413142	-0.306485
C	 2.8362886027	-1.6962017545	 0.5848563849	 0.080161
C	 2.855263463	-2.1812196795	 1.9663387459	-0.183639
O	 1.8054162292	-2.5570032674	 1.0660683403	-0.236493
H	-0.3005899121	 1.890242487	-0.9201053455	 0.103602
H	-1.1562352752	 0.5699496648	-1.7302696575	 0.115432
H	-1.5323892789	 0.9665408806	-0.0482095963	 0.116387
H	-0.0804137784	-1.0846099303	-0.1671072142	 0.095817
H	 1.7787921341	-1.0306525084	-1.8271619263	 0.102438
H	 1.8906511396	 0.7352601384	-1.6542202673	 0.082915
H	 3.5237511111	 1.3210409574	-0.0656355766	 0.27686
H	 1.2882163835	 1.3640049672	 1.0659393444	 0.084585
H	 0.9141590282	-0.165340863	 1.8970760687	 0.107238
H	 3.5181156018	-2.1629661493	-0.1280481198	 0.096367
H	 3.5374060787	-2.9825512939	 2.2441352859	 0.117903
H	 2.5600681488	-1.5170881568	 2.7761258249	 0.118038
