19
gdb 116252	1.95656	1.55911	0.97404	2.9995	75.43	-0.2303	0.0226	0.2528	1237.5395	0.160511	-419.207809	-419.198672	-419.197728	-419.242871	32.629	
C	-0.0541176121	 1.5273870468	-0.1319907011	-0.323254
N	-0.0566676727	 0.1124342638	 0.2182713113	-0.293793
C	-1.3255439087	-0.5530559179	 0.0561000468	 0.034236
C	-1.9058507387	-0.7632430665	-1.3598842254	-0.105883
O	-2.9165964683	-1.7378619941	-1.1781507934	-0.239614
C	-2.4034485312	-2.7270713514	-0.2978009644	-0.089632
C	-1.3351263049	-2.0226873709	 0.6007147596	-0.213803
C	-0.025968353	-2.6586980885	 0.4829171114	 0.279083
N	 1.0081158786	-3.1622736407	 0.3630407599	-0.336022
H	 0.9413088057	 1.9396614949	 0.0543079144	 0.129602
H	-0.3231121506	 1.749115976	-1.1783919735	 0.103458
H	-0.7605518673	 2.062610003	 0.5127298374	 0.125568
H	 0.6779627474	-0.3842966582	-0.2747330804	 0.235069
H	-2.0708668699	 0.0054424379	 0.6345146254	 0.1
H	-2.3729325692	 0.1277670609	-1.7847604602	 0.118324
H	-1.1166245189	-1.1136955419	-2.048221771	 0.095678
H	-3.2362469617	-3.1243098652	 0.2874090257	 0.123112
H	-1.9459886957	-3.5518002937	-0.859886319	 0.121714
H	-1.6206537088	-2.0345448644	 1.6547733665	 0.136156
