17
gdb 110692	2.35929	1.67292	1.30361	2.9605	74.24	-0.239	-0.0513	0.1877	1030.7364	0.136023	-421.826732	-421.818801	-421.817856	-421.859459	29.768	
C	 0.1575694449	 0.9576765755	 0.4528931991	-0.248183
O	-0.1937972229	 0.0528424295	-0.5834372398	-0.230077
C	-1.372813692	-0.6187343751	-0.3338321068	 0.129565
C	-1.5892022714	-1.9936899616	-0.9098290699	-0.17122
C	-0.3585415491	-2.7272503739	-1.3385805515	-0.040301
C	 0.4517972521	-3.0114165545	-0.3115724079	-0.193518
C	-0.1376241541	-2.508101881	 0.9580603464	 0.412122
O	 0.3202746826	-2.611395771	 2.0735807579	-0.348021
C	-1.4472090043	-1.8317025474	 0.5927321441	-0.241555
H	 1.0864377115	 1.4425529721	 0.1465816114	 0.133577
H	-0.6177153579	 1.7250538744	 0.5943450851	 0.109104
H	 0.314929284	 0.4325834584	 1.4035328678	 0.136933
H	-2.254018298	 0.0267248913	-0.2957284463	 0.097635
H	-2.5359363457	-2.209432692	-1.3920087605	 0.10524
H	-0.156224604	-2.9414712676	-2.3816125377	 0.121256
H	 1.4219623461	-3.4882625259	-0.3525080076	 0.116796
H	-2.2732038817	-1.9029075911	 1.2889404863	 0.110647
