19
gdb 120531	4.14976	0.79975	0.72496	5.2005	78.18	-0.2309	0.0293	0.2603	1548.8652	0.159235	-419.18731	-419.178006	-419.177062	-419.222136	33.388	
O	 0.1065032611	 1.4156927942	 0.0037944844	-0.412326
C	 0.0456044584	-0.0042040747	-0.0225638439	-0.076268
C	-1.4164294254	-0.4148427153	 0.0605127123	-0.135974
N	-2.1603682265	-0.0389453428	-1.125585537	-0.078169
C	-2.5321750788	 1.3769069272	-1.3294488541	-0.161038
C	-3.8757936831	 0.8865486588	-1.9453018059	-0.161341
C	-3.5711267035	-0.4530433524	-1.2131976302	-0.179961
C	-5.0949452402	 1.5955437365	-1.6096185969	 0.266709
N	-6.0657811649	 2.1601580591	-1.3342154826	-0.327555
H	 1.0153428321	 1.6848721493	-0.1563446555	 0.290977
H	 0.4773460308	-0.4063905039	-0.9505372709	 0.09775
H	 0.5905410325	-0.441370101	 0.8287847382	 0.089106
H	-1.463582789	-1.5063074198	 0.1572016941	 0.105822
H	-1.8558249907	 0.0179392915	 0.9799319288	 0.091138
H	-2.6902201636	 1.92645401	-0.3907899266	 0.115599
H	-1.8627182727	 1.9509643985	-1.9717518818	 0.120663
H	-3.800178365	 0.7727075125	-3.0286425656	 0.131541
H	-3.7562551389	-1.3810765144	-1.7623580055	 0.116181
H	-4.0809905827	-0.4982826234	-0.2379807513	 0.107148
