18
gdb 38884	3.76792	1.47055	1.17668	1.9492	77.79	-0.2218	0.004	0.2258	1043.4562	0.150012	-401.891524	-401.884618	-401.883674	-401.922676	27.968	
C	 0.0003326696	 1.4769034531	-0.0857446094	-0.237347
C	 1.2928415428	 0.7368870756	 0.0154691639	-0.036918
C	 2.0966843414	 0.7676872026	 1.2728870621	-0.263349
C	 1.8700756078	-0.2324141143	 2.1103699485	 0.264095
C	 1.969734459	-0.6409642399	 3.5570726785	-0.168926
O	 0.7403441929	-1.4078355461	 3.4070042489	-0.305625
C	 0.7608411113	-1.2326692572	 1.9612972141	 0.085947
C	-0.4482544725	-0.5646905798	 1.3102737921	-0.195276
N	 0.0004901796	 0.0178911302	 0.0239749135	-0.107286
H	-0.3126656078	 2.0472982489	 0.7875577522	 0.111145
H	-0.3305279133	 1.8835011841	-1.0386981367	 0.114482
H	 1.8522728244	 0.5840933953	-0.9073077019	 0.102609
H	 2.7798496857	 1.5898974147	 1.4660550017	 0.099909
H	 2.8175850939	-1.2904224363	 3.8157274052	 0.112631
H	 1.8828450062	 0.151781391	 4.30939625	 0.120613
H	 1.0188925586	-2.1756359846	 1.4610833223	 0.092549
H	-1.2626922756	-1.2652452755	 1.0981659692	 0.108923
H	-0.8233403838	 0.1932131481	 2.0104348355	 0.101825
