23
gdb 15427	4.92561	0.85108	0.78307	1.2181	83.57	-0.219	0.0892	0.3082	1572.7636	0.210818	-330.306256	-330.296381	-330.295436	-330.341481	35.623	
C	-5.0526270027	 0.0358586626	-0.7373989224	-0.381518
C	-4.1983729479	-1.1960157807	-0.4274136978	-0.162511
C	-2.7752504609	-1.0979968796	-0.9953023847	-0.197088
C	-1.9384135665	-2.3111471879	-0.6383482838	 0.016942
C	-1.8485166024	-3.4921255246	-1.5467012982	-0.254501
N	-0.677867236	-2.6575607576	-1.2948213492	-0.090855
C	-0.1686449483	-1.8431515572	-2.3936652555	-0.110464
C	 0.9166084618	-2.6054057205	-3.1511339783	-0.373154
H	-6.0589865086	-0.0605405653	-0.318163895	 0.112203
H	-4.6034485722	 0.9441293069	-0.3205135909	 0.114455
H	-5.1552159643	 0.1851602034	-1.8180899798	 0.113544
H	-4.143484593	-1.3405536524	 0.659558384	 0.097445
H	-4.6835557433	-2.094923869	-0.8282019724	 0.099946
H	-2.829450006	-0.9710244927	-2.082058189	 0.095992
H	-2.292277752	-0.1926652729	-0.6010448303	 0.097187
H	-1.9088403548	-2.506542264	 0.4346214962	 0.083724
H	-1.8128916896	-4.5065248768	-1.1570565923	 0.10941
H	-2.3374140663	-3.3987257711	-2.5175369675	 0.099274
H	-0.9547852379	-1.5316685468	-3.1016505937	 0.080415
H	 0.2526386628	-0.9266306043	-1.9627143108	 0.100115
H	 1.3335710613	-1.990319708	-3.9548263982	 0.107595
H	 1.7254840224	-2.8944207442	-2.4744336039	 0.125295
H	 0.5102171545	-3.5182397675	-3.5991200568	 0.116548
