22
gdb 63264	2.02522	1.5195	1.37549	2.8423	83.03	-0.2545	0.037	0.2915	1146.4331	0.191413	-404.37231	-404.36197	-404.361026	-404.406983	38.943	
C	-0.3229020864	 1.5494647465	 0.0964854483	-0.432716
C	-0.0019360246	 0.063017674	 0.034545783	 0.381994
C	-1.1526162467	-0.7205801485	-0.580497562	-0.432717
O	 1.2270721654	-0.1461742783	-0.7703372951	-0.304605
C	 1.8930553054	-0.7059512946	 0.2906225121	 0.422947
N	 3.0613341206	-1.1587562009	 0.3772033343	-0.561441
C	 0.7430432363	-0.5789371233	 1.2741743622	 0.090632
C	 1.0450338419	 0.3419598232	 2.4605885904	-0.443607
C	 0.2168370756	-1.9239790511	 1.7848584756	-0.443606
H	 0.5400888515	 2.1394595508	 0.408531412	 0.128482
H	-0.6321365643	 1.9025550762	-0.8919949262	 0.125907
H	-1.1444667869	 1.7383273954	 0.7952384912	 0.121881
H	-1.4287995951	-0.2782054007	-1.542485001	 0.125917
H	-0.8868444963	-1.764162361	-0.7551953376	 0.128473
H	-2.0323115279	-0.6899498036	 0.070726068	 0.121878
H	 3.5586549677	-1.0755172054	-0.5114752207	 0.221738
H	 1.5005042455	 1.286614907	 2.1574884852	 0.123501
H	 0.1331550492	 0.5634392674	 3.0258622847	 0.113714
H	 1.7482529253	-0.1568100591	 3.1335005755	 0.137205
H	 0.944501914	-2.355450163	 2.4779930732	 0.137199
H	-0.7291028987	-1.7953876625	 2.3222332721	 0.113716
H	 0.0621875786	-2.6492957084	 0.9837986948	 0.123508
