23
gdb 57597	2.27623	1.23648	1.11116	2.5324	85.36	-0.2446	-0.0215	0.2231	1278.4336	0.203631	-388.296933	-388.286711	-388.285766	-388.332451	37.807	
C	 0.3524889763	 1.5245623104	 0.174886494	-0.411127
C	-0.0137434835	 0.0370061566	 0.0777541552	 0.126186
C	 0.5768086167	-0.7605375738	 1.2575239589	-0.430532
C	-1.5284543469	-0.1278197411	 0.1179504309	 0.147469
O	-2.3303136233	 0.758322659	-0.0367601327	-0.260114
C	 0.5275300636	-0.5423361688	-1.2519625149	 0.052037
C	 0.1919920752	-1.988880879	-1.7294088159	-0.25279
C	 0.1764170515	-1.4503908582	-3.1858519817	-0.212932
C	 0.0023518293	-0.0159578417	-2.6182911932	-0.247329
H	 1.4385253626	 1.6533107441	 0.1244173698	 0.105656
H	-0.1046394982	 2.096007382	-0.6359962695	 0.134665
H	 0.0000916396	 1.9544036326	 1.1171791198	 0.117924
H	 0.2317374102	-0.3653721422	 2.2188226966	 0.121215
H	 0.2976435168	-1.8182573035	 1.2067186545	 0.121589
H	 1.6698240276	-0.7025326306	 1.2441288558	 0.121086
H	-1.874545062	-1.1701246464	 0.3109143965	 0.072925
H	 1.6186462544	-0.429924073	-1.2215163567	 0.073332
H	 0.9036189825	-2.7802515085	-1.4820527427	 0.097888
H	-0.8045946316	-2.3130962818	-1.4172467438	 0.10317
H	 1.1466643236	-1.5780319046	-3.674347013	 0.103294
H	-0.6001923661	-1.8277569098	-3.8544817702	 0.10041
H	-1.0516509866	 0.2725844093	-2.5614593171	 0.117915
H	 0.5565789082	 0.795378389	-3.0956542306	 0.098062
