18
gdb 48414	3.06073	1.04358	0.87056	1.4544	72.76	-0.2608	-0.0425	0.2182	1328.702	0.14645	-439.042397	-439.033558	-439.032613	-439.076917	31.806	
O	-0.5289158636	 0.6014872553	 0.5808556862	-0.272004
C	-0.1502908699	 1.6017302729	 0.0175583939	 0.104621
C	 1.2878287191	 2.0003098305	-0.0760913642	 0.229694
C	 1.6774210485	 2.9568564605	-1.1851208588	-0.333049
C	 1.6416983081	 2.2931997028	-2.5448395781	 0.103386
C	 0.4944966255	 2.4180640492	-3.4558986877	-0.179162
O	 1.6953836231	 3.1592670601	-3.6768730295	-0.234268
C	 2.0021413481	 2.0031739914	 1.2483826904	-0.262477
N	 2.2614038529	 0.9516584016	 0.2766933078	-0.337385
H	-0.8697360197	 2.2978377681	-0.464354169	 0.085116
H	 1.0111371164	 3.8280655839	-1.1861453994	 0.110285
H	 2.6907094724	 3.3270457688	-0.9983951432	 0.123558
H	 2.2650230582	 1.402706526	-2.6294915028	 0.113675
H	 0.2874444804	 1.6324749731	-4.1809586945	 0.121233
H	-0.369704945	 3.011618532	-3.1579144532	 0.111316
H	 2.8060687973	 2.719987504	 1.3925150174	 0.129719
H	 1.4179359939	 1.7642376383	 2.1324244249	 0.135438
H	 1.7275446842	 0.1228207913	 0.5426269696	 0.250303
