21
gdb 98683	3.23892	0.90778	0.86559	1.6819	80.9	-0.2411	-0.0113	0.2298	1475.0801	0.179046	-424.243612	-424.23316	-424.232216	-424.279282	38.238	
C	 0.1119135294	 1.5058730851	-0.0538954975	-0.379006
C	-0.0822445309	-0.005678229	-0.1262721608	-0.285123
C	-1.5079985142	-0.4551694455	 0.1613953507	 0.381783
O	-2.3812042759	 0.3368191997	 0.4591510146	-0.336008
C	-1.7589002954	-1.9212524275	 0.0542486927	-0.155832
C	-2.9526485375	-2.5280543657	 0.7874579873	-0.344725
C	-2.9663615277	-2.4675857395	-0.7049306187	 0.408737
C	-3.9236427602	-1.5681400515	-1.4490998147	-0.464641
O	-2.6336104155	-3.6509127429	-1.3876846875	-0.463151
H	 1.152780791	 1.7731195877	-0.2567557553	 0.108182
H	-0.5247971727	 2.0160369304	-0.7813065948	 0.129347
H	-0.1585696219	 1.8860186519	 0.9343696601	 0.131613
H	 0.199094409	-0.4016808447	-1.1122133954	 0.125482
H	 0.576548465	-0.5265210533	 0.5833052054	 0.123604
H	-0.8799300666	-2.5485736259	-0.0433852291	 0.098035
H	-2.7987992336	-3.4934856998	 1.2551898027	 0.115772
H	-3.5641502017	-1.8158975155	 1.3314665461	 0.134979
H	-4.0740654732	-0.6277779604	-0.9177659675	 0.159581
H	-3.543142094	-1.3556503302	-2.4531390316	 0.122537
H	-4.8962387215	-2.0648291104	-1.5548632971	 0.105697
H	-3.4412446317	-4.1691275132	-1.4810555398	 0.283135
