17
gdb 26301	3.86124	1.04415	0.85172	4.3265	71.22	-0.1955	0.0264	0.2219	1314.4373	0.136486	-455.205572	-455.19671	-455.195765	-455.239317	33.062	
C	 0.3967795761	 0.9434526674	 0.8494231744	-0.404612
C	-0.2682460277	-0.0170391008	-0.1346857609	 0.005208
O	-1.518051467	 0.4870112701	-0.6181124447	-0.427991
C	 0.6191188583	-0.3844776919	-1.2826603646	 0.315015
C	 1.9317363437	-0.1764962902	-1.5303167019	-0.201594
N	 2.2264761332	-0.7677999109	-2.7558313558	-0.342021
C	 1.0936786735	-1.3439077186	-3.3256923195	 0.444162
O	 0.9917237355	-1.906557397	-4.3968343948	-0.430476
N	 0.117132262	-1.1089211792	-2.3660060562	-0.396612
H	 1.2849764216	 0.4923068095	 1.302394332	 0.125183
H	 0.7013666948	 1.8675148281	 0.34599668	 0.115396
H	-0.3081329014	 1.1963074267	 1.6444655524	 0.131522
H	-0.5578113161	-0.9297804953	 0.4033331274	 0.106345
H	-1.3298180387	 1.2874389252	-1.1227410734	 0.281641
H	 2.6827953332	 0.3119537705	-0.934498895	 0.138971
H	 3.113059339	-0.7672250574	-3.2273885773	 0.268097
H	-0.8562403501	-1.3096141262	-2.5172924622	 0.271766
