19
gdb 99341	6.30353	0.53913	0.51482	6.7088	78.63	-0.2567	0.0191	0.2757	2081.9846	0.158183	-419.262392	-419.251787	-419.250843	-419.300182	35.624	
C	 0.0774378036	 1.4426405	 0.1272027203	-0.33493
N	-0.0828203288	 0.0009506232	 0.1098891642	-0.314557
C	-1.2463892442	-0.6053184502	-0.2603148199	 0.420727
O	-2.2481106751	 0.0097334138	-0.5809953425	-0.371668
C	-1.2000370912	-2.1348403015	-0.2718039456	-0.32951
C	-2.5456110631	-2.7365856372	 0.1414711766	-0.165323
C	-2.5815077494	-4.2613849768	-0.0734795492	-0.347465
C	-3.8487107916	-4.8583937489	 0.3436520117	 0.259318
N	-4.8529617965	-5.3196951436	 0.6810138608	-0.302335
H	 0.3350336445	 1.8017420313	 1.1294993954	 0.128202
H	 0.8558011295	 1.7667819512	-0.5725407764	 0.127631
H	-0.8761598204	 1.8775230052	-0.1735295319	 0.175044
H	 0.7013700528	-0.5751883058	 0.3657115821	 0.245491
H	-0.9585245446	-2.440427079	-1.2991493898	 0.13196
H	-0.38974847	-2.5102607932	 0.3649626969	 0.098161
H	-2.7480739783	-2.5137568582	 1.1941197422	 0.12564
H	-3.3364199552	-2.254198836	-0.4373005042	 0.15375
H	-2.4180475527	-4.4996360595	-1.1314053603	 0.152054
H	-1.7733540892	-4.7495173749	 0.4848274997	 0.147808
