19
gdb 85360	2.87986	1.31785	1.0679	3.5749	77.82	-0.2387	-0.0526	0.1861	1158.9153	0.159154	-423.061301	-423.052562	-423.051618	-423.094465	33.389	
C	-0.2211366464	 1.5960936783	 0.1014238451	-0.394526
C	-0.003270753	 0.0777743805	 0.0348394322	-0.022067
C	 0.735430058	-0.3481638253	-1.2479009709	-0.338637
C	 2.2009203342	 0.0760971466	-1.2795908695	 0.386071
O	 2.7805330092	 0.3311506647	-2.3158249621	-0.332186
C	 2.8902856305	 0.1226905357	 0.0301339899	-0.149966
C	 2.2416824402	-0.1163407395	 1.1751456978	-0.080359
C	 0.7732704318	-0.4660961056	 1.2477303147	 0.083759
O	 0.1666313946	 0.039955655	 2.4296744696	-0.435725
H	 0.724490286	 2.1463354197	 0.0792486021	 0.123183
H	-0.8187548417	 1.9249413047	-0.7544069403	 0.113548
H	-0.7479947027	 1.8689249872	 1.0174587198	 0.137484
H	-0.9882005861	-0.4028370821	 0.0438581439	 0.08495
H	 0.7247233305	-1.4448708713	-1.3334589418	 0.120291
H	 0.2482415026	 0.0427498219	-2.1450030409	 0.123827
H	 3.9470033461	 0.3700182046	 0.0030721277	 0.109552
H	 2.7733162121	-0.0774043292	 2.1251369905	 0.101203
H	 0.6902532942	-1.5683641684	 1.231176017	 0.083792
H	 0.56550775	-0.3952729574	 3.189651175	 0.285806
