22
gdb 110968	2.38051	1.27004	1.08294	2.9189	82.91	-0.2328	0.0713	0.304	1262.5954	0.193809	-404.268826	-404.259321	-404.258377	-404.30307	36.14	
C	 0.0828967271	 1.4894149913	-0.434782065	-0.446918
C	 0.1211267598	 0.00122422	-0.1341800797	 0.050465
N	 1.283468797	-0.8417986952	-0.7171045361	-0.190663
C	 2.1093945232	-0.2900606762	 0.4571766035	-0.214764
C	 0.7588135193	-0.6132891765	 1.148959918	 0.263942
C	 0.3620245078	-0.4351665326	 2.5941072178	-0.524042
C	 0.8594732308	-1.9225834458	 0.3103071089	 0.020241
C	-0.2822808673	-2.8292066181	-0.1209558142	-0.114812
O	 0.0731716863	-3.4855526083	-1.3276191385	-0.422415
H	-0.0202825554	 1.6435757492	-1.5142320643	 0.132521
H	-0.7946514641	 1.9352122933	 0.0460774512	 0.12123
H	 0.9606367125	 2.04577808	-0.1002222706	 0.120609
H	-0.8459334539	-0.4197917246	-0.4163710369	 0.068694
H	 2.9702954951	-0.9154943358	 0.7099144113	 0.100004
H	 2.4138464921	 0.7497864284	 0.3418749898	 0.100764
H	 0.4192506328	 0.6176928102	 2.8914316525	 0.122771
H	-0.6642553984	-0.7766498674	 2.7681255666	 0.12247
H	 1.0222847604	-1.0057669514	 3.2563267684	 0.12311
H	 1.7172480413	-2.5584705816	 0.5571668951	 0.077034
H	-0.4292709236	-3.6089296951	 0.6354385468	 0.104893
H	-1.2411010748	-2.3023353305	-0.2242633632	 0.09024
H	 0.4900353819	-2.8140510033	-1.8827871714	 0.294623
