21
gdb 89506	2.56786	1.56298	1.17361	1.4643	85.22	-0.2237	0.0105	0.2341	1144.1319	0.182074	-387.073499	-387.064816	-387.063872	-387.106306	33.985	
C	 0.1213579324	 1.5754855782	 0.1574747158	-0.40713
C	 0.0188954269	 0.062998574	 0.0459487556	-0.055368
C	 0.727748126	-0.6832961329	-1.1559634655	-0.295863
C	 1.1279532048	-1.833403842	-0.1541809621	 0.387837
C	 0.2080624405	-3.0468785595	-0.2265560713	-0.439533
O	 2.4819081705	-2.2524593489	-0.0106751487	-0.322831
C	 2.9457022862	-1.8077688978	 1.2770592763	-0.124861
C	 1.9688330178	-0.7230965408	 1.7090348782	-0.241302
C	 0.9081544445	-0.8041758389	 0.9147658369	 0.186012
H	 1.166257825	 1.897939328	 0.1058153446	 0.118661
H	-0.4280007255	 2.0659239439	-0.6531515075	 0.117703
H	-0.2955521666	 1.9320452294	 1.105469465	 0.119871
H	-1.0304288145	-0.2506579564	 0.0917297495	 0.085406
H	 0.1011575092	-0.9558841623	-2.0098705499	 0.09502
H	 1.6116586561	-0.1359178235	-1.489849316	 0.111955
H	 0.4507597022	-3.6427602197	-1.1123781551	 0.124547
H	 0.3330715419	-3.679676869	 0.6569910901	 0.119461
H	-0.8433520263	-2.7499452377	-0.2945895896	 0.111463
H	 3.0052349961	-2.6601457732	 1.9732697005	 0.100296
H	 3.9619478662	-1.4066369173	 1.1664989099	 0.108373
H	 2.2226799267	 0.0470929465	 2.426697913	 0.100281
