14
gdb 127910	3.96392	1.20946	0.93202	0.5093	72.29	-0.256	-0.0816	0.1744	1179.8121	0.101796	-466.191579	-466.183543	-466.182599	-466.224908	28.591	
C	 0.0111151888	 1.4473514285	 0.0821307737	-0.330557
N	 0.1524283799	 0.0045917635	 0.0566152139	-0.307505
C	 0.6004861967	-0.5863822501	-0.9679501954	 0.495309
N	 0.7184570865	-1.9844240994	-0.9434503248	-0.428272
C	 1.185041816	-2.7443759579	-1.9786400499	 0.521099
O	 1.2976228915	-3.9452613871	-1.9900763468	-0.372296
N	 1.5321161612	-1.9382025251	-3.0694168099	-0.297925
N	 1.4384722359	-0.5876866935	-3.1463725937	-0.017151
N	 1.0024517443	 0.0653628618	-2.1673573758	-0.241702
H	 0.5974966438	 1.8417098421	 0.9199816995	 0.131607
H	 0.3200863778	 1.9482380149	-0.8397766423	 0.142487
H	-1.0364223454	 1.6928103603	 0.2913781447	 0.131602
H	 0.4356345381	-2.4607077537	-0.0979406479	 0.280904
H	 1.890867835	-2.3868977342	-3.8983855753	 0.292399
