20
gdb 97444	3.22113	0.84601	0.79685	3.1874	79.87	-0.2449	0.0284	0.2732	1555.1544	0.16781	-440.259811	-440.249627	-440.248683	-440.295959	35.895	
C	 0.6229100623	 0.6971462228	 0.4906406881	-0.314238
N	-0.1026127014	-0.0935463864	-0.4817709929	-0.208943
C	 0.5573385436	-0.9232627819	-1.1558013219	 0.131216
O	-0.0583950024	-1.6721308895	-2.1036844315	-0.209019
C	 0.7452881881	-2.6600604229	-2.7434578562	-0.157895
C	 0.9010214406	-3.9085177854	-1.8978277703	 0.401425
C	-0.3750657287	-4.5693741686	-1.4320984976	-0.461304
C	 2.1473757629	-4.6773684948	-2.0266501305	-0.228011
O	 1.9430083063	-3.809490587	-0.9096090612	-0.269669
H	 1.7010597361	 0.4729738165	 0.5383023149	 0.098039
H	 0.5029913504	 1.7623642938	 0.2614289634	 0.125647
H	 0.1950218948	 0.5371109687	 1.4868863832	 0.12703
H	 1.6353873066	-1.1134471945	-1.0576438373	 0.094579
H	 0.2257721804	-2.894795514	-3.6773468447	 0.122783
H	 1.7350958105	-2.2544293073	-2.9870316888	 0.110707
H	-0.9575405844	-4.9303579788	-2.2866110881	 0.123201
H	-0.1483644692	-5.414911435	-0.7789586148	 0.128458
H	-0.9936529826	-3.8553067669	-0.8821300135	 0.154012
H	 2.1388213132	-5.7424196988	-1.7998149501	 0.118747
H	 2.9179763629	-4.3625618597	-2.7300255803	 0.113235
