16
gdb 30331	2.98028	1.63437	1.14268	2.1736	71.38	-0.1969	0.0089	0.2058	1031.5112	0.126869	-437.890297	-437.882954	-437.88201	-437.922471	28.357	
O	 0.0755376751	 1.4562414225	 0.0398937632	-0.427208
C	 0.0825160198	 0.0299611095	 0.0133357608	-0.024013
C	-1.3536185884	-0.6308020772	-0.0544177138	-0.198987
N	-1.5046818511	-1.3618593565	-1.3528661717	-0.41587
C	-0.2493612339	-1.2449581608	-1.9711891742	 0.233757
C	 0.6542802171	-0.5734801369	-1.21664187	 0.26494
O	 1.8819013627	-0.5652762827	-1.806505749	-0.195937
C	 1.7201933139	-1.2459965136	-2.9758809975	-0.008154
C	 0.439443237	-1.6964126241	-3.1404944337	-0.323856
H	-0.1214197784	 1.7573538067	-0.8544898497	 0.273842
H	 0.5795067839	-0.2515617566	 0.9461131264	 0.102231
H	-1.4737314066	-1.3451588802	 0.7657147771	 0.121298
H	-2.1123806014	 0.1480229126	 0.0598114509	 0.115779
H	-2.2780736309	-1.0255706723	-1.9143614309	 0.231842
H	 2.605496734	-1.3354518003	-3.5845650266	 0.13608
H	 0.0681029472	-2.2662135701	-3.9773536512	 0.114256
