18
gdb 126707	1.94806	1.92878	1.06876	5.2039	74.01	-0.2003	0.0464	0.2466	1136.5284	0.149384	-431.468221	-431.458902	-431.457958	-431.503175	33.775	
C	-0.0697949098	 1.620364525	 0.0083938856	-0.380689
C	 0.0194641425	 0.0931278578	 0.0033737883	-0.150653
N	-1.2898097836	-0.5458799052	 0.0125038995	-0.088661
C	-2.1005743916	-0.7946949418	 1.0983153045	 0.373339
N	-1.667147303	-0.5846445273	 2.4082761207	-0.606346
N	-3.2951186833	-1.1577099129	 0.7260893342	-0.292292
N	-3.3064861206	-1.1542347335	-0.671363959	-0.292205
C	-2.1181818599	-0.7893147907	-1.0612284762	 0.373108
N	-1.7060520998	-0.5725155056	-2.3770016969	-0.606364
H	 0.934090089	 2.0560725964	 0.0009955157	 0.118334
H	-0.6082342358	 1.9731343533	-0.8748840061	 0.145707
H	-0.5930406368	 1.9683155453	 0.9026531165	 0.145701
H	 0.5610620369	-0.2561541948	-0.8802618021	 0.117471
H	 0.5759228401	-0.2611561718	 0.8757306535	 0.117385
H	-0.8806438304	-1.1724757931	 2.6663993729	 0.248801
H	-2.4388987592	-0.7766284119	 3.0373986497	 0.264285
H	-2.488645355	-0.759174922	-2.9942384953	 0.264271
H	-0.9254981499	-1.1608318073	-2.6516205556	 0.248807
