24
gdb 6806	5.9807	0.65124	0.6112	0.9388	83.52	-0.2496	0.0843	0.3339	1919.5747	0.221086	-351.407679	-351.396826	-351.395882	-351.444251	37.98	
C	-0.0148269352	 1.4384842981	 0.0648065282	-0.226223
O	 0.0135990887	 0.035881475	-0.0207532469	-0.230421
C	-1.2731181734	-0.5435257811	 0.0135374428	-0.048859
C	-1.1319434361	-2.05700994	-0.0788984717	-0.20743
C	-2.4868094137	-2.7731508228	-0.0623245189	-0.167968
C	-2.4093984177	-4.3109720701	-0.0371632424	 0.043053
C	-3.8045136336	-4.9136280745	 0.1771016599	-0.388579
C	-1.7618711087	-4.8875310887	-1.304262853	-0.381226
H	 1.0189680582	 1.7916980875	 0.0309623712	 0.12443
H	-0.5712826612	 1.8902406167	-0.7725966534	 0.100426
H	-0.476614921	 1.7837311443	 1.0042497153	 0.100436
H	-1.7950338049	-0.261349153	 0.9454036857	 0.08047
H	-1.8869794385	-0.1623556095	-0.8222173118	 0.080769
H	-0.5763085162	-2.2912034339	-0.9932429613	 0.108646
H	-0.5141057078	-2.4000961811	 0.7603617493	 0.102626
H	-3.0522284071	-2.4405309748	 0.8191980067	 0.088253
H	-3.0788480711	-2.4614411161	-0.9353447888	 0.089554
H	-1.7842281974	-4.5970663722	 0.8214703718	 0.070851
H	-4.4743270921	-4.6547496351	-0.6519496906	 0.11025
H	-3.7608223679	-6.0061247945	 0.2375058667	 0.108414
H	-4.2622138136	-4.5439695414	 1.1009152447	 0.107878
H	-1.7260918881	-5.9812615111	-1.2621716701	 0.109028
H	-2.3369239727	-4.6099717618	-2.1963708533	 0.109165
H	-0.7377715889	-4.52975277	-1.4429579301	 0.116458
