19
gdb 83325	2.2054	1.72249	1.44072	2.8392	75.15	-0.2235	-0.0176	0.206	1027.3502	0.158508	-423.020945	-423.012346	-423.011402	-423.053765	32.632	
C	-0.1038142218	 1.5959954307	-0.0408056213	-0.440953
C	 0.0198146491	 0.0800442907	 0.0025889899	-0.028992
C	 1.1853389413	-0.6052188181	-0.7770146017	-0.043823
O	 2.3609294868	 0.0157381822	-0.2331463477	-0.277129
C	 2.0989618521	-0.0021640044	 1.1952807786	-0.118641
C	 0.6981795295	-0.6390404818	 1.2449503863	 0.129252
C	 0.027125594	-0.8562767734	 2.5752098748	-0.506543
C	 0.9419245228	-1.7664971888	 0.2101488614	 0.418532
O	 0.8063230865	-2.9521503498	 0.1831470275	-0.321564
H	 0.8756143049	 2.0782894842	-0.0189990425	 0.142095
H	-0.6070959518	 1.9088833659	-0.9609799691	 0.125489
H	-0.6953961023	 1.9678624145	 0.8024604231	 0.121747
H	-0.9359224589	-0.4049849172	-0.2225895563	 0.093535
H	 1.2542500341	-0.6871035359	-1.8585324287	 0.097491
H	 2.8544361439	-0.6077971711	 1.7103948859	 0.114354
H	 2.1331383376	 1.0184196218	 1.5933252752	 0.10593
H	-0.1806529669	 0.0946668054	 3.0781872761	 0.123315
H	-0.9195608461	-1.3909292088	 2.4528289761	 0.132814
H	 0.6607429152	-1.453317826	 3.2396402025	 0.133093
