18
gdb 120181	5.10301	0.83246	0.8072	2.592	74.67	-0.2506	0.0005	0.2511	1450.768	0.147149	-439.009095	-439.00051	-438.999566	-439.043183	31.013	
C	 0.0244434983	 1.3458094759	 0.154045502	-0.223984
O	-0.0324510499	-0.0604426075	 0.1751192295	-0.239094
C	-1.3182891052	-0.5610081312	-0.134977766	-0.106926
C	-1.2303718924	-2.0737183565	-0.0921725324	 0.028037
C	-1.1650922719	-2.7651796234	 1.3053104324	-0.154642
N	-2.6424834492	-2.3992302527	 1.4597787277	-0.317375
C	-2.5503837135	-2.8946096329	 0.015552086	-0.18232
C	-1.6888616582	-4.0402233542	 0.6047299531	 0.43778
O	-1.6235035737	-5.2283729146	 0.6502076061	-0.323094
H	 1.0466918792	 1.6359122332	 0.4086926749	 0.127821
H	-0.2220615383	 1.7504011139	-0.8407331062	 0.103377
H	-0.6662031088	 1.7942711999	 0.8855286231	 0.106183
H	-2.0678440411	-0.1907185934	 0.5760121225	 0.116863
H	-1.6211235606	-0.2381978935	-1.1463640862	 0.085286
H	-0.5053919496	-2.443930504	-0.8205067563	 0.09707
H	-0.4447741717	-2.6167280418	 2.1061656135	 0.109323
H	-3.1298181006	-3.0776638242	 2.0515997958	 0.23369
H	-3.4128466627	-2.903125513	-0.6485377095	 0.102005
