19
gdb 57871	2.25467	1.20476	0.9101	2.0301	73.34	-0.262	-0.0605	0.2015	1323.3359	0.154952	-460.19274	-460.182141	-460.181197	-460.229222	36.861	
C	 0.0770026101	 1.6529421663	-0.3110071983	-0.412589
C	-0.0799953659	 0.1803507203	 0.1081448726	 0.05278
O	-1.4347444578	-0.1653732008	 0.2059255213	-0.436
C	 0.6273002009	-0.7533960531	-0.8700953036	 0.353152
O	-0.0174687764	-1.5519321825	-1.5179663916	-0.339827
C	 2.1435270374	-0.6443465787	-1.0230477693	-0.166793
C	 2.7820355533	-2.0445527136	-1.0806116692	-0.409934
C	 2.4316436011	 0.0990365601	-2.3288032469	 0.169381
O	 2.9413109144	 1.1850168778	-2.3923110588	-0.239865
H	 1.1238244688	 1.9645110235	-0.3602792699	 0.137961
H	-0.384448202	 1.8146883591	-1.2896283893	 0.131144
H	-0.4423138904	 2.2793637008	 0.4178525685	 0.138226
H	 0.4101777166	 0.0422564401	 1.087696804	 0.094461
H	-1.5738358624	-0.8663497403	-0.4501937631	 0.293533
H	 2.5622846443	-0.044626933	-0.2113531829	 0.1087
H	 3.8597512707	-1.9708210541	-1.2491035891	 0.13283
H	 2.6174235659	-2.5783147907	-0.1408570922	 0.136673
H	 2.3334024039	-2.6321219758	-1.8847825059	 0.151943
H	 2.1288007177	-0.4638090856	-3.2386644563	 0.104224
