16
gdb 47289	3.24205	1.30721	1.02078	2.5503	66.75	-0.2749	-0.0108	0.2641	1124.7805	0.12565	-475.062716	-475.054894	-475.05395	-475.096067	28.779	
N	-0.1252186651	 1.2845885078	-0.8047424207	-0.4933
C	 0.0604804397	 0.2366135216	-0.1256876312	 0.401012
C	-1.0143908343	-0.8033727416	 0.0454548818	-0.329786
C	-1.4618061925	-0.9766308738	 1.5075921876	-0.320199
C	-0.5030853034	-1.5103594611	 2.5693138409	 0.386596
O	-0.9089570128	-1.9726812932	 3.5965295036	-0.295268
O	 0.8488963939	-1.3676560742	 2.4164565012	-0.217854
C	 1.4728822783	-1.217870772	 1.1561775151	 0.012037
O	 1.2471129292	 0.0225207895	 0.5386492012	-0.23414
H	 0.710526026	 1.873152177	-0.786779988	 0.228084
H	-1.866481304	-0.4614143422	-0.5427860536	 0.151026
H	-0.7015079611	-1.7634283822	-0.3803477367	 0.12986
H	-1.792842432	-0.002742417	 1.8908762756	 0.16343
H	-2.3362088096	-1.6294747094	 1.5542121083	 0.150827
H	 2.5407407588	-1.2502729392	 1.3704612392	 0.147565
H	 1.2019798291	-2.04766806	 0.4956983055	 0.12011
