24
gdb 80394	2.12722	1.56305	1.34482	0.9155	89.61	-0.2221	0.0802	0.3023	1163.7213	0.215547	-368.376545	-368.366558	-368.365614	-368.410112	39.202	
C	-0.1165973783	 1.4853308241	-0.2965613307	-0.319563
N	 0.1745067712	 0.0829139285	-0.0483631818	-0.122814
C	 1.4524908236	-0.5381214212	-0.2928086722	-0.099098
C	 2.6321297512	 0.3392217193	 0.1630595261	-0.310318
C	 2.0761526535	 0.2982610748	 1.6316357739	 0.281675
C	 2.9648489111	-0.6024793677	 2.4996148848	-0.43234
C	 1.8230681634	 1.6155201553	 2.3687805592	-0.461482
C	 0.842470073	-0.5044894138	 1.0964277598	 0.297676
C	 0.0890532846	-1.5471605172	 1.8767626939	-0.489835
H	 0.7463441622	 2.1633988661	-0.2661351646	 0.107209
H	-0.5649226598	 1.5681596342	-1.2928217006	 0.117483
H	-0.8548860221	 1.8364724005	 0.4311502117	 0.121033
H	 1.5107634823	-1.352639684	-1.0091906142	 0.083465
H	 3.6005406053	-0.1580114162	 0.0696482751	 0.098276
H	 2.7072000245	 1.3229653451	-0.310705605	 0.0949
H	 3.9327856055	-0.1213919282	 2.6796317189	 0.110243
H	 2.5056908953	-0.7990082309	 3.4748391885	 0.111818
H	 3.1545524178	-1.5669607252	 2.0170842304	 0.113233
H	 1.2258980193	 2.3215534379	 1.7910265745	 0.114993
H	 1.298484762	 1.4330144987	 3.3140949925	 0.11208
H	 2.7722311976	 2.1067366358	 2.6148141417	 0.11018
H	-0.5394687293	-1.0832847758	 2.647278187	 0.115748
H	-0.5681173056	-2.1071022245	 1.2068732293	 0.129132
H	 0.7610308518	-2.2502563256	 2.3777781416	 0.116306
