15
gdb 20180	3.93134	2.64863	1.99304	3.6455	64.3	-0.2313	-0.0277	0.2036	691.691	0.120638	-362.575098	-362.569467	-362.568523	-362.604439	23.411	
C	-0.0589594	 1.418455493	 0.0184208225	-0.168077
C	 1.3620122514	 2.0879924768	 0.0453233852	-0.233103
C	 2.2052705719	 1.5329062503	-1.127300424	-0.050483
C	 2.8093880394	 0.1016481941	-1.3715465627	 0.079787
O	 2.2558005768	-0.9675992125	-0.5434022539	-0.267046
C	 1.020928334	-0.3421257567	-0.7641611704	 0.308549
N	 0.2451302013	-0.0152137458	 0.1700667359	-0.211876
C	 1.5087537429	 0.4811174339	-1.9582491027	-0.248037
H	-0.6802689677	 1.7477871501	 0.8533220293	 0.113027
H	-0.569573281	 1.6815572795	-0.9188249385	 0.10609
H	 1.2816617778	 3.1763797957	-0.058969314	 0.101267
H	 1.8202407915	 1.8830678579	 1.0170943439	 0.130095
H	 2.7598805732	 2.2806452174	-1.6918885163	 0.100148
H	 3.7885175402	-0.0756683601	-1.7967832164	 0.123117
H	 1.1279940481	 0.5353406463	-2.9681115077	 0.116544
