17
gdb 35477	3.98346	1.18182	0.98898	3.8856	78.38	-0.2375	-0.0118	0.2257	1168.941	0.138208	-380.860357	-380.852865	-380.851921	-380.892504	28.92	
N	-0.1281276346	-1.1638202114	-0.2492968539	-0.319834
C	-0.0700274014	-0.015512682	-0.1331622043	 0.263215
C	 0.0021381511	 1.4373396013	 0.0268790688	-0.19338
C	-0.7336910177	 1.8655503606	 1.3211851229	-0.165392
N	-0.6328524809	 3.3155998888	 1.5378848142	-0.106894
C	 0.2090113607	 3.7493259229	 2.6570915458	-0.246909
C	 0.6731809216	 3.9241040789	 1.2509691731	-0.052497
C	 1.7368718431	 3.0808667832	 0.6545048437	-0.087511
C	 1.440362121	 1.9307813387	 0.0537746279	-0.064957
H	-0.5179039528	 1.8824389494	-0.8335106023	 0.148523
H	-1.7935772769	 1.6025738092	 1.2498093825	 0.127479
H	-0.30639451	 1.2930247559	 2.1539057464	 0.118438
H	-0.1603417564	 4.6011670124	 3.2216445328	 0.12221
H	 0.6954312614	 2.9777252824	 3.2505330852	 0.119579
H	 0.5978185338	 4.9247090893	 0.8244420878	 0.108321
H	 2.7563743389	 3.4561909209	 0.67083908	 0.108688
H	 2.1978460888	 1.3188739295	-0.4230088107	 0.120921
