17
gdb 72626	2.55144	1.48978	1.21965	2.9762	74.96	-0.2397	0.0145	0.2542	1066.6074	0.134916	-417.978342	-417.969509	-417.968565	-418.011512	32.91	
C	 0.0476178692	 1.5761149454	-0.0236537623	-0.489978
C	 0.1250109712	 0.0832630006	 0.038926364	 0.256576
N	 0.6236211017	-0.7045215095	-1.0860874145	-0.349855
C	 1.1977297844	-1.737730242	-0.1653220603	-0.237827
C	 0.6939608801	-0.9291699706	 1.0169944058	 0.374406
O	 1.399434011	-0.8385114826	 2.1863080003	-0.451246
C	-0.8290544278	-0.795856065	 0.906388798	-0.32637
C	-1.4349949664	-0.1753753685	 2.0433101327	 0.26665
N	-1.8573966628	 0.331346332	 2.996851745	-0.347376
H	 1.0086433345	 1.9846611985	-0.3481401753	 0.140285
H	-0.7179859944	 1.8981432623	-0.7390103787	 0.129829
H	-0.2066681347	 2.0000746748	 0.9511285128	 0.145235
H	-0.1000171169	-1.0566436256	-1.7088888937	 0.219831
H	 0.8034965152	-2.7548654324	-0.2675872692	 0.110286
H	 2.2894452943	-1.7621534033	-0.2298716863	 0.133616
H	 0.8329509741	-0.4830755911	 2.8832570399	 0.307818
H	-1.4215492028	-1.578465083	 0.4356391518	 0.118121
