25
gdb 86463	1.76432	1.5415	0.88065	1.0939	90.12	-0.2413	0.0872	0.3284	1432.1432	0.22879	-389.527176	-389.517252	-389.516308	-389.56122	38.628	
C	-0.0397468837	 1.5865646041	 0.0109570863	-0.403212
C	 0.0208220323	 0.0571084957	 0.0023211459	 0.009457
C	 0.7129378703	-0.4883732572	-1.2560505994	-0.186239
C	 0.8415552622	-2.0153622657	-1.2054602819	 0.136519
C	 1.6215540559	-2.5906256869	-2.379010154	-0.401677
O	 1.5133637069	-2.4250030103	-0.0197160403	-0.273555
C	 0.8552655202	-2.0282791909	 1.178048003	 0.13652
C	 1.6486764415	-2.6161797344	 2.3362439181	-0.401677
C	 0.7273341464	-0.5019362689	 1.246661453	-0.186239
H	 0.9677428337	 2.0191272735	 0.0075008756	 0.112923
H	-0.5680614635	 1.9685287335	-0.8693996469	 0.108911
H	-0.557867233	 1.9589342513	 0.9014249381	 0.108911
H	-1.0117522974	-0.3246446254	 0.006191987	 0.06642
H	 0.1585906819	-0.1945536578	-2.1559335052	 0.087287
H	 1.7194239253	-0.0552686545	-1.3396839497	 0.092812
H	-0.1763028057	-2.4485369278	-1.2012765676	 0.055602
H	 2.6368249718	-2.182075653	-2.398579249	 0.1206
H	 1.6931328962	-3.6782339524	-2.293121761	 0.119964
H	 1.1303442073	-2.3462022666	-3.3257998586	 0.110205
H	-0.1626002658	-2.4614465851	 1.1808788361	 0.055602
H	 2.6641322049	-2.2078060878	 2.3485567008	 0.1206
H	 1.1684078887	-2.3820587535	 3.291215222	 0.110205
H	 1.719190798	-3.7027893187	 2.2377579386	 0.119964
H	 1.7347429	-0.0697013556	 1.323400286	 0.092812
H	 0.1833939958	-0.2179215055	 2.1559934929	 0.087287
