19
gdb 126901	3.20087	1.03448	0.79462	4.2573	80.35	-0.1953	0.0097	0.205	1452.5862	0.159951	-415.391508	-415.382009	-415.381065	-415.426727	33.7	
C	 0.0852153999	 1.4829847837	 0.0865599182	-0.400642
C	-0.0098146641	-0.0326238678	-0.0475552819	-0.100087
N	-1.4029294162	-0.4644868616	 0.0609570071	-0.405111
C	-1.6589837162	-1.8313422602	 0.0179058461	 0.308373
C	-2.8859435696	-2.4737496916	 0.0148084154	 0.2371
C	-4.2859057719	-1.9646027298	 0.0155973892	-0.518583
N	-2.5299208591	-3.7879835718	 0.0218929242	-0.222337
N	-1.2030901674	-3.960308088	 0.0465707905	-0.136156
N	-0.6673177057	-2.7655228157	 0.0358334559	-0.269518
H	 1.1278465923	 1.8074177005	 0.0256147572	 0.121386
H	-0.4643388145	 1.9898945303	-0.716172026	 0.108311
H	-0.3283459121	 1.8177455337	 1.0424842484	 0.125592
H	 0.4507025152	-0.3636895436	-0.9914859268	 0.10045
H	 0.5514611806	-0.5247183081	 0.7517144643	 0.13179
H	-2.0136280869	 0.0664221978	-0.5460910881	 0.226704
H	-4.7112978324	-1.8870895411	-0.9931670302	 0.137829
H	-4.9495926959	-2.60733683	 0.6034566216	 0.134058
H	-4.3142172605	-0.9668954703	 0.4639493343	 0.146695
H	-3.1297272355	-4.5976703364	 0.0254531006	 0.274145
