19
gdb 39939	2.92917	1.58982	1.21509	2.3615	81.99	-0.2252	0.0247	0.2499	1061.62	0.162352	-382.030358	-382.022998	-382.022054	-382.062105	29.919	
C	-0.2855928275	 1.4437503987	 0.0056576257	-0.276046
N	 1.1238487922	 1.0335067629	-0.0121861686	-0.36798
C	 0.0585432653	-0.0065970883	 0.0322867993	 0.373205
C	-0.0012767576	-0.7704535346	 1.301260758	-0.0889
C	-0.1250265984	-2.0946557068	 1.367678384	-0.069858
C	-0.1970072297	-3.0112674812	 0.1761994979	-0.283268
C	-0.3314874318	-2.2831973177	-1.1463024532	-0.026985
N	-1.5341058561	-1.4463563422	-1.3006290553	-0.337005
C	-0.2083136122	-0.8029560543	-1.2113218225	-0.160668
H	-0.6072227983	 1.9389669654	 0.9182970532	 0.11816
H	-0.7362731152	 1.8364622028	-0.9029039862	 0.108664
H	 1.4965376917	 1.10151691	-0.957212025	 0.226517
H	 0.0811634976	-0.1812131796	 2.2100578213	 0.088858
H	-0.1573285481	-2.5758237085	 2.3419949268	 0.088216
H	 0.7088207628	-3.6344490921	 0.1498448142	 0.11027
H	-1.0355384777	-3.7119629645	 0.2911711708	 0.114465
H	-0.0017145877	-2.8452371917	-2.017782518	 0.082444
H	-1.8480857017	-1.457946161	-2.2673204289	 0.229295
H	 0.1977601625	-0.3671638173	-2.1239860336	 0.070617
