22
gdb 94811	2.84893	1.3289	1.12064	1.0735	81.8	-0.2369	0.0736	0.3105	1198.1282	0.19465	-404.332727	-404.323608	-404.322664	-404.366504	35.019	
C	-0.3678487089	 1.4074249756	-0.017180558	-0.412615
C	 0.0562254065	-0.0430446158	 0.1206048605	 0.144418
O	 0.8215418034	-0.4077392556	-1.0359102035	-0.271262
C	 1.5251189646	-1.6057073139	-0.7469397447	-0.145862
C	 1.5271530739	-1.7450145743	 0.7823508297	 0.317905
C	 1.2911303191	-3.0571745316	 1.4322736562	-0.300987
N	 2.615287874	-2.4053779769	 1.5035625899	-0.364094
C	 0.9644687732	-0.4229818807	 1.3087904568	-0.082562
C	 2.0761847555	 0.5894666969	 1.6031315649	-0.401539
H	 0.4991066216	 2.0673057862	-0.0992999334	 0.127229
H	-0.9789908474	 1.5347295768	-0.9151049248	 0.124661
H	-0.9627176334	 1.714824082	 0.8486576614	 0.114398
H	-0.8480196596	-0.6757133439	 0.1661560523	 0.061288
H	 1.0432040269	-2.4696884338	-1.2294926202	 0.093998
H	 2.5406873324	-1.512954831	-1.1540401872	 0.103644
H	 0.761142053	-3.1149343023	 2.3799472068	 0.117398
H	 1.173967561	-3.931319529	 0.7953596905	 0.109087
H	 3.2586507726	-2.84714435	 0.8504753073	 0.229172
H	 0.3687251768	-0.5881669033	 2.2121972147	 0.07083
H	 2.6165240354	 0.859376727	 0.6899004773	 0.121391
H	 1.6763826007	 1.5076023746	 2.0434797269	 0.109545
H	 2.7931528985	 0.152855013	 2.3027668666	 0.133957
