19
gdb 108390	2.38687	1.42115	1.1222	0.7016	82.28	-0.2299	0.0499	0.2799	1168.3232	0.157367	-385.815983	-385.806917	-385.805973	-385.849723	34.155	
C	-0.2171144832	 1.3407200289	 0.1113250285	-0.260253
O	 0.1595858649	-0.0155141966	-0.0782877849	-0.276209
C	 0.7833349082	-0.5664177645	 1.014185568	 0.432888
C	 2.2476097785	-0.3308150454	 1.4110133829	-0.310405
C	 2.337766597	-1.8469214389	 1.7983517677	-0.229658
C	 0.8763113654	-2.0293050656	 1.3725077307	-0.157376
C	-0.028500439	-1.1012947867	 2.1904988466	-0.292207
C	 0.2094097429	-0.7648877507	 3.5632293983	 0.347593
C	 0.4231203052	-0.4713260512	 4.7112599265	-0.468498
H	 0.6556251404	 1.9795006645	 0.3037882406	 0.117283
H	-0.7008444901	 1.6678054049	-0.8112645722	 0.129316
H	-0.9202432203	 1.4459052351	 0.9486862418	 0.118391
H	 2.863952629	-0.0915003936	 0.5418674476	 0.110438
H	 2.4317958238	 0.3963103155	 2.2056795379	 0.109191
H	 3.0348660572	-2.398060195	 1.1647164347	 0.10741
H	 2.5531176174	-2.0628594378	 2.8474711606	 0.115151
H	 0.4510508989	-2.8916886425	 0.8739181457	 0.098888
H	-1.0743329831	-1.2183450296	 1.9167332151	 0.115211
H	 0.6022324269	-0.2150725006	 5.7258049538	 0.192846
