19
gdb 102125	2.65296	1.16666	0.94528	2.7915	71.52	-0.2424	-0.0205	0.2218	1282.9921	0.157251	-460.140437	-460.13077	-460.129825	-460.176041	33.658	
O	 0.024767831	 1.426079464	-0.0727421393	-0.423485
C	 0.0653076975	 0.013115424	 0.0640301623	-0.106225
C	-1.3788363975	-0.4764331841	 0.0609345685	-0.091222
C	-2.0707405878	-0.0659209597	-1.2352546235	 0.184221
O	-3.2658369524	 0.0259061707	-1.3587260496	-0.266919
C	-1.4509152145	-1.9971807828	 0.2416748648	 0.130052
C	-2.8264714675	-2.697405925	 0.2099546223	-0.307954
C	-2.231087176	-3.4991417694	-0.9650583792	-0.062837
O	-1.0171689446	-2.7097515881	-0.944446755	-0.30305
H	 0.9203160585	 1.7466436667	-0.2141883307	 0.291936
H	 0.6088166582	-0.4594311059	-0.7685854456	 0.112371
H	 0.5617876966	-0.2893430209	 0.9986430915	 0.09361
H	-1.9248198903	-0.0100124377	 0.8902331137	 0.111163
H	-1.3900141479	 0.1261473294	-2.0915090623	 0.089382
H	-0.8351864102	-2.2812290184	 1.1079809484	 0.075365
H	-3.0855801043	-3.2670375317	 1.1031079302	 0.108705
H	-3.6499261194	-2.0388654269	-0.0648249954	 0.14582
H	-2.0264851051	-4.5562158607	-0.7558737557	 0.10353
H	-2.7512315843	-3.4167543135	-1.9252026654	 0.115538
