20
gdb 109958	2.63332	1.27872	0.97495	1.808	75.08	-0.2382	0.0537	0.2919	1238.367	0.170885	-440.234504	-440.22541	-440.224466	-440.268347	34.64	
O	 0.3091603206	 1.2130852463	-0.5063767519	-0.430247
C	 0.2415356016	-0.1737337698	-0.2400678158	-0.06
C	-1.1855114821	-0.6276554776	 0.0811100495	-0.148657
C	-2.1446740378	-0.6196910441	-1.1469074781	 0.120265
O	-1.6626541386	 0.165958678	-2.2243066318	-0.437785
C	-2.0220376637	-2.167919783	-1.2543376422	-0.328983
C	-1.3809079619	-2.1535263548	 0.1375893675	 0.349717
C	-0.570257122	-3.1735300301	 0.8346151537	-0.308446
N	-1.9604984781	-2.8958754426	 1.2562826299	-0.364365
H	-0.2392061422	 1.3524819575	-1.2886548151	 0.292252
H	 0.6444990375	-0.7667879842	-1.0752743696	 0.088524
H	 0.8858429055	-0.3594910009	 0.6265313062	 0.100035
H	-1.5512473803	-0.0660512429	 0.946897547	 0.075501
H	-3.1583481273	-0.3099862216	-0.8647693178	 0.080379
H	-2.2897371656	 0.1202675822	-2.952023957	 0.292216
H	-2.9461565264	-2.7413688461	-1.3525049286	 0.109964
H	-1.3204018204	-2.4556942158	-2.0430895915	 0.107894
H	-0.4175105936	-4.1497391868	 0.3814996555	 0.118316
H	 0.2452044612	-2.8402233425	 1.4721391976	 0.114181
H	-1.9545222264	-2.3202420214	 2.0959900324	 0.229239
