17
gdb 73581	2.26865	2.20637	1.60443	2.3451	66.33	-0.234	0.065	0.299	899.0705	0.135907	-458.917558	-458.910285	-458.90934	-458.948972	28.597	
C	-0.1157079144	 1.4795200075	-0.0231513728	-0.468629
C	 0.0281023738	-0.0269705428	-0.008674261	 0.375325
O	-1.1479203491	-0.6461780375	-0.4833896516	-0.300814
C	-1.387712933	-1.8134571078	 0.2869652564	 0.030765
O	-0.7093850725	-1.6720640051	 1.5293416041	-0.264824
C	 0.3319701053	-0.7511693284	 1.3415376444	 0.001137
C	 1.6692284932	-1.2453325208	 0.7396821969	-0.011389
O	 1.3509055677	-1.9922821611	-0.4371512431	-0.236584
C	 1.3830227831	-0.5703135907	-0.5465888126	-0.042559
H	 0.7955506014	 1.9614286314	 0.3449953169	 0.119999
H	-0.2998348355	 1.8320894288	-1.0428391066	 0.134276
H	-0.9559957169	 1.7882013536	 0.6045684759	 0.132767
H	-2.4635253716	-1.8862583497	 0.4858180059	 0.107002
H	-1.0285987151	-2.7024746825	-0.2432310555	 0.114748
H	 0.4397391462	-0.1193222566	 2.2264924159	 0.09243
H	 2.6111612245	-1.4620664617	 1.22952396	 0.11007
H	 2.053263243	-0.1375221467	-1.2811298431	 0.106279
