16
gdb 27095	2.92866	1.13842	0.89248	1.7215	72.6	-0.2352	-0.0344	0.2008	1271.6591	0.123088	-437.933895	-437.925148	-437.924204	-437.969213	30.104	
C	-0.1118635982	 1.5694243787	 0.0614211925	-0.49373
C	-0.0100227595	 0.0826843587	 0.0052238327	 0.180079
C	 0.037003537	-0.7496216528	-1.0694021748	 0.235045
C	 0.0448916042	-0.5674046389	-2.54608949	-0.392186
C	 1.4524924572	-0.653517013	-3.1340744776	 0.163564
O	 1.8950864028	 0.1231973511	-3.9365049292	-0.228262
O	 0.1325359977	-2.0398154632	-0.5960783525	-0.180244
C	 0.1299567297	-1.9042695881	 0.7483892185	 0.063157
N	 0.0458688279	-0.6877156449	 1.1685543851	-0.297876
H	 0.7579149549	 1.9992621327	 0.5690667642	 0.14545
H	-0.1707624565	 2.0051414235	-0.9389492331	 0.128475
H	-0.9989872156	 1.875625485	 0.6253247486	 0.143529
H	-0.5567871006	-1.3577352928	-3.0161918038	 0.146163
H	-0.3861233659	 0.3961704353	-2.8260648221	 0.14259
H	 2.0535549794	-1.5097076823	-2.7552399954	 0.092366
H	 0.1952610654	-2.8121005489	 1.3276611969	 0.15188
