21
gdb 96428	2.30272	1.42816	1.04569	1.4821	78.22	-0.2472	-0.0288	0.2185	1207.1333	0.182586	-424.244322	-424.235209	-424.234265	-424.278844	33.896	
C	-0.0480454362	 1.5623418713	-0.0711919275	-0.409964
C	 0.0475055223	 0.0359967265	-0.0112531352	-0.003142
C	 0.6610691774	-0.5478256715	-1.2907308041	-0.080665
O	 0.6754315763	-1.9640687295	-1.2787196328	-0.242775
C	 1.4617046036	-2.4771239451	-0.2193538428	-0.075215
C	 0.9350874915	-2.0335171358	 1.1501464704	-0.247405
C	 0.794902999	-0.498505307	 1.248130056	-0.086051
C	 2.1405557228	 0.1759635217	 1.454814588	 0.158359
O	 2.2989454112	 1.1752046553	 2.1106589011	-0.257324
H	 0.9319684128	 2.0288724321	-0.2113470541	 0.12853
H	-0.6902090171	 1.8729710266	-0.901827882	 0.113811
H	-0.4686133589	 1.9673724258	 0.8537471591	 0.127964
H	-0.9688184747	-0.3745673808	 0.0563310363	 0.08834
H	 0.0670932556	-0.2556839984	-2.1621972098	 0.110107
H	 1.6832127494	-0.1562090335	-1.441079829	 0.085669
H	 1.4270185	-3.566698902	-0.3094097245	 0.111727
H	 2.5133836272	-2.1692004978	-0.3503656398	 0.09071
H	-0.0508666599	-2.4844554196	 1.3076624973	 0.113886
H	 1.5922347742	-2.4174939912	 1.9400824708	 0.102877
H	 0.199750412	-0.2272444458	 2.1272462027	 0.095951
H	 3.0123100816	-0.3131348415	 0.96281865	 0.07461
