20
gdb 62824	2.37289	1.4183	1.30053	1.9558	80.08	-0.223	-0.0363	0.1867	1114.7273	0.169324	-403.072482	-403.063254	-403.062309	-403.106999	34.159	
C	-0.0459780707	 1.5010462754	 0.0978538393	-0.473115
C	 0.0389527101	-0.029252726	 0.0688852407	 0.327571
C	-1.3501965657	-0.554730857	-0.2962632744	-0.475911
N	 1.2176349438	-0.6154384682	-0.7797121646	-0.181658
C	 2.1371652109	-0.1578441667	 0.374112994	-0.216337
C	 0.9446253427	-0.7658942457	 1.1386945337	 0.185249
C	 1.0612062421	-1.8883078429	 0.0763388686	-0.226955
C	 0.7282726089	-0.8719780503	 2.6130792374	 0.025165
O	 1.4546220226	-0.3760106475	 3.4396597329	-0.24647
H	-0.0032679538	 1.8833564643	-0.9280084918	 0.137353
H	-1.0028771683	 1.8126768755	 0.5258746956	 0.121179
H	 0.7384176899	 1.9899988285	 0.6747315473	 0.131022
H	-1.6647350942	-0.096139221	-1.2400366346	 0.134719
H	-1.4260000987	-1.6341483501	-0.4177806099	 0.122648
H	-2.073012368	-0.2539483249	 0.4689797429	 0.12448
H	 3.0765673111	-0.7125451778	 0.4097525938	 0.108314
H	 2.3237080363	 0.9114947424	 0.4147446928	 0.113695
H	 0.2021186479	-2.509875326	-0.1613030995	 0.107967
H	 1.9723057889	-2.4896762501	 0.1059274404	 0.110979
H	-0.181535946	-1.4423625617	 2.9160222353	 0.070104
