20
gdb 87362	2.01735	1.62343	1.10445	3.9359	81.37	-0.2264	-0.0251	0.2013	1185.0126	0.16877	-403.127784	-403.118444	-403.1175	-403.161981	34.736	
C	-0.4683584303	 1.4087063365	 0.0380204883	-0.408592
C	 0.0897998469	-0.0034650135	-0.0894763078	-0.076848
C	 1.4389947315	-0.1553958362	-0.870306484	-0.377106
C	 2.0323793323	-0.8919462418	 0.3477926156	 0.353628
O	 3.0724327351	-1.440555608	 0.5709542143	-0.302796
C	 0.7741244867	-0.6397167306	 1.1494083435	 0.233879
C	 0.6887580071	-0.2173092001	 2.5840151491	-0.299906
N	 0.2469503814	-1.535269736	 2.174329609	-0.12065
C	-1.1902836704	-1.7776018032	 2.1615292097	-0.32047
H	 0.2782735601	 2.089408	 0.4614421695	 0.119381
H	-0.7642666996	 1.8007123585	-0.9409662959	 0.121546
H	-1.3509816043	 1.4381093598	 0.685706754	 0.118804
H	-0.6737553693	-0.6734226365	-0.4986502701	 0.084766
H	 1.4095803895	-0.7434249066	-1.7910891573	 0.131294
H	 1.9454996014	 0.7928207477	-1.0786091591	 0.129285
H	 1.5946001468	-0.1826317296	 3.1835395929	 0.133128
H	-0.0653727607	 0.5312670034	 2.8278744775	 0.112864
H	-1.7923571728	-0.8920131462	 1.9025261327	 0.105158
H	-1.4170763208	-2.5724442599	 1.4445467899	 0.130028
H	-1.4943516404	-2.1192135075	 3.1554413585	 0.132608
