17
gdb 56787	2.95184	1.32569	1.05394	4.4866	72.09	-0.2526	0.0052	0.2578	1141.1184	0.136009	-417.961319	-417.952873	-417.951929	-417.994792	31.295	
O	 0.0682922012	 1.4046958367	-0.1530239607	-0.398972
C	 0.0264349985	-0.0022197446	 0.0199009265	-0.138239
C	 0.4715833162	-0.7075969271	-1.2001041216	 0.2824
N	 0.8522292226	-1.2201749727	-2.1628963912	-0.329256
C	 0.8126345342	-0.4298782175	 1.2407526534	 0.337862
C	 2.1989989165	-0.9465581781	 1.2223994138	-0.298395
N	 1.1087637249	-1.8742139773	 1.5844372853	-0.15591
C	 0.7658528385	-1.5498385428	 3.0191221901	-0.151773
C	 0.3675647001	-0.0932907442	 2.6640909287	-0.317187
H	 0.9896536454	 1.6594450205	-0.2839634095	 0.296005
H	-1.0325668628	-0.2389392358	 0.1751523946	 0.141746
H	 2.643211354	-1.1809321799	 0.2602632353	 0.147912
H	 2.901545774	-0.6308631519	 1.9914390985	 0.11491
H	-0.0663705873	-2.1712176219	 3.3531396358	 0.121726
H	 1.6096029947	-1.6837728937	 3.7028280451	 0.113271
H	 0.8932552962	 0.7259693257	 3.1604180973	 0.11259
H	-0.7072202569	 0.0829471345	 2.7421399986	 0.121311
