20
gdb 9545	3.31021	1.56164	1.37441	2.5504	70.36	-0.2453	0.0749	0.3202	1006.9329	0.175748	-386.128481	-386.119506	-386.118562	-386.162003	33.302	
C	-0.2346406187	 1.480630375	-0.0956585734	-0.415292
C	 0.0447054227	-0.0145535378	-0.0223246872	-0.092286
C	 1.3401783408	-0.5099029916	-0.7010640193	-0.079914
O	 1.8991926869	-0.9531467722	 0.5542033039	-0.337092
C	 0.6720876143	-0.6085019095	 1.2756616732	 0.394804
C	 0.9704067778	 0.3100200639	 2.4479402483	-0.441307
C	 0.0318624092	-1.924757887	 1.7313796617	-0.088039
O	 0.9470203039	-2.6844150745	 2.494069948	-0.423589
H	 0.6450447419	 2.0734502319	 0.1726960119	 0.123736
H	-0.5253570283	 1.7628771105	-1.1133514974	 0.119046
H	-1.0522797996	 1.7697418698	 0.5727162739	 0.12091
H	-0.8455222746	-0.5684919039	-0.336295934	 0.075598
H	 1.2223406097	-1.3344928589	-1.4148308637	 0.100782
H	 1.957446871	 0.2708201338	-1.163159881	 0.101369
H	 1.5804030757	 1.1619042985	 2.1403429233	 0.11711
H	 0.0418586408	 0.6845248534	 2.8922596304	 0.114467
H	 1.5119888897	-0.2505084357	 3.2145137346	 0.137759
H	-0.841756565	-1.7336867419	 2.3651206324	 0.103669
H	-0.310324555	-2.4853990697	 0.8461613637	 0.077615
H	 1.7524189868	-2.7164943939	 1.9604993107	 0.290654
