15
gdb 125399	2.43637	1.81507	1.04728	0.8674	72.38	-0.2317	-0.0527	0.1789	1077.3315	0.112558	-453.958249	-453.950024	-453.94908	-453.990878	30.706	
C	-0.0166682582	 1.4894775096	 0.0469225933	-0.482186
C	-0.025239721	-0.0097279822	-0.0001945303	 0.075494
C	-0.0911668494	-0.7168694282	-1.1554450089	 0.053058
O	-0.0912708629	-2.0418950224	-1.2641583381	-0.223064
N	-0.0316849327	-2.8613280329	-0.1347458589	-0.201564
C	 0.0129995352	-2.2465685788	 1.0139506892	 0.314618
N	 0.0215180707	-2.9689410877	 2.1588121417	-0.541598
C	 0.0468135303	-0.7674355902	 1.2195758627	 0.286773
O	 0.1381124949	-0.3085233141	 2.3545059189	-0.385715
H	 0.8905800719	 1.8541368032	 0.5394016182	 0.147114
H	-0.0695723129	 1.9230432147	-0.9550992252	 0.119798
H	-0.861653414	 1.8622499274	 0.6349208682	 0.147092
H	-0.1472861096	-0.2600137855	-2.1391976892	 0.143078
H	 0.2045991545	-3.9568507129	 2.1237045212	 0.268576
H	 0.2443090134	-2.4420579401	 2.9896989171	 0.278525
