18
gdb 22146	3.22375	0.72712	0.70362	3.0087	76.3	-0.2458	0.0047	0.2505	1652.8577	0.145595	-435.228101	-435.217771	-435.216827	-435.26492	35.653	
C	-0.5756911795	 0.9201658821	-0.4479534098	-0.475864
C	 0.1004312398	-0.3845445193	-0.1328317042	 0.362434
C	-0.0766584304	-0.9660022515	 1.2466338507	-0.229806
N	 0.7883685063	-2.1077227406	 1.4932889696	-0.276585
C	 0.3918827528	-2.9475828692	 2.6042074605	-0.28364
C	-0.9453247684	-3.5747049079	 2.4715885558	 0.24647
N	-1.9925955201	-4.0405551259	 2.3197560152	-0.311443
N	 0.7971674496	-1.0577363675	-0.962935547	-0.168865
O	 0.8683469716	-0.4342161435	-2.2153973207	-0.399425
H	-1.2163618325	 1.244384934	 0.374987458	 0.124476
H	 0.1708571101	 1.6984391114	-0.6395105899	 0.152148
H	-1.1752629417	 0.8284648057	-1.3579160224	 0.155695
H	 0.1356403013	-0.1805727125	 1.9879253547	 0.118833
H	-1.1517599248	-1.2044685925	 1.3626346122	 0.124291
H	 0.9028886598	-2.6382519756	 0.6369207599	 0.244277
H	 1.1312914392	-3.7440807646	 2.7358261095	 0.155887
H	 0.3960086039	-2.3595377092	 3.5301384637	 0.152858
H	 1.4121298929	-1.0481748933	-2.7201162757	 0.308258
