24
gdb 78117	2.58466	1.33173	1.08314	1.3301	90.92	-0.2055	0.0914	0.2969	1280.0232	0.214998	-368.380226	-368.370083	-368.369138	-368.414104	39.494	
C	-0.2302639569	 1.2979753214	-0.0886947353	-0.323303
N	 0.0660071474	-0.1178363955	 0.0994725396	-0.142856
C	 1.4898763883	-0.4571155929	-0.0981629605	-0.131839
C	 0.8983891828	-0.4639859274	 1.2764769008	 0.367567
C	 1.0690482708	 0.4126604232	 2.4807494328	-0.512311
C	 0.9157699693	-2.0028204096	 1.2963464784	-0.335704
C	 1.6079172427	-1.9945209629	-0.1243331559	 0.332619
C	 0.8555780073	-2.7030886304	-1.246472193	-0.445628
C	 3.0673206792	-2.4417864369	-0.0466134558	-0.446379
H	 0.6006590765	 1.9828180572	 0.1452644977	 0.097986
H	-0.5061539824	 1.4569539947	-1.1362606267	 0.122288
H	-1.0871362249	 1.5792598236	 0.532396536	 0.11994
H	 2.1528368265	 0.2614778186	-0.5714722533	 0.073469
H	 1.1886076023	 1.4667661864	 2.2203149587	 0.123254
H	 0.2031109665	 0.3271168279	 3.1493823983	 0.12369
H	 1.9535030261	 0.1094940568	 3.0508044894	 0.122631
H	 1.5607016981	-2.4232224982	 2.073266502	 0.09188
H	-0.0718288705	-2.4686909365	 1.3469860654	 0.095602
H	-0.1652051531	-2.320448982	-1.3189889476	 0.131175
H	 1.3520741471	-2.5495182205	-2.2121428518	 0.102016
H	 0.8096142317	-3.7835144211	-1.066672498	 0.105005
H	 3.135402079	-3.5145653106	 0.1663101363	 0.112419
H	 3.5868044709	-2.2559059044	-0.9941666382	 0.109006
H	 3.6091521054	-1.907173001	 0.7414420105	 0.107473
