18
gdb 45423	2.57368	1.73197	1.70229	2.6176	71.48	-0.2577	0.0292	0.287	924.0721	0.151784	-439.118055	-439.111143	-439.110198	-439.149394	27.719	
N	-0.0497676971	 1.2870996812	-0.0116610342	-0.546916
C	-0.0263105461	 0.0241117652	 0.0049334073	 0.43067
O	 1.1270452794	-0.7169152007	 0.0224438248	-0.259077
C	 0.8665071186	-2.1344617367	 0.003790612	 0.195061
C	 0.1152226469	-2.5151530874	 1.2819545685	-0.238823
C	-1.2129175658	-1.7108253227	 1.2966065019	-0.228142
C	-1.2506413175	-0.8557939259	 0.0094659312	-0.128917
C	-1.1306033096	-1.8078520592	-1.1924938064	-0.076826
O	 0.1408930101	-2.4758211722	-1.144529211	-0.261184
H	 0.9031235381	 1.6581809602	-0.0084319662	 0.219699
H	 1.8423797381	-2.6118339222	-0.0856063161	 0.099664
H	-0.0592109305	-3.5942793569	 1.27554719	 0.11679
H	 0.7414926486	-2.2841938147	 2.1476417394	 0.118483
H	-2.0800061256	-2.3777032072	 1.3141381806	 0.108559
H	-1.2788329184	-1.0661590889	 2.1762821761	 0.121424
H	-2.1470022529	-0.2402318714	-0.059251643	 0.102988
H	-1.9327799086	-2.5574087288	-1.170082953	 0.103737
H	-1.1899279478	-1.2640192116	-2.1413806518	 0.12281
