19
gdb 82787	2.95555	1.86993	1.731	1.2278	76.71	-0.2369	0.0736	0.3106	885.8332	0.162652	-385.850462	-385.843991	-385.843047	-385.880886	27.955	
O	 0.0930445434	 1.4531370761	-0.1289147678	-0.430005
C	 0.0215648446	 0.0547407532	 0.0291531379	 0.141281
C	 0.2532307353	-0.5856016237	 1.4389106159	-0.126268
C	-0.2556962048	 0.3600511382	 2.534733248	-0.216909
C	-1.7646235307	 0.2306578141	 2.4282129314	-0.043853
C	-2.3920064347	 0.0204229214	 1.0588807774	-0.067059
C	-2.1597402139	-1.1541356678	 2.0095121907	-0.087906
C	-0.9523076861	-1.5704423853	 1.133111563	-0.047338
C	-1.3847526447	-0.5489469657	 0.0329489966	-0.067251
H	 1.0200641892	 1.7104567023	-0.1562618772	 0.281338
H	 0.6358841426	-0.460717324	-0.7241563591	 0.059967
H	 1.241140472	-1.006505778	 1.6350081848	 0.055576
H	 0.080576289	 0.0393307876	 3.5277705183	 0.085933
H	 0.0956962592	 1.3825457245	 2.3659367399	 0.099437
H	-2.3968033778	 0.748666352	 3.142313116	 0.078659
H	-3.3204598143	 0.5148062703	 0.7999979448	 0.081209
H	-2.8594850541	-1.798160784	 2.5264014108	 0.07974
H	-0.7433341084	-2.6147606031	 0.9158959173	 0.062903
H	-1.8426034057	-0.862874618	-0.9062752587	 0.060548
