15
gdb 54810	2.68636	1.6699	1.12255	1.8978	66.81	-0.2598	-0.0166	0.2432	1035.3559	0.113195	-453.982728	-453.974822	-453.973877	-454.015487	29.417	
N	-0.0750543167	 1.2647068423	 0.0894047451	-0.560107
C	 0.040151643	-0.0893629028	 0.0395421171	 0.443223
O	 1.0538888827	-0.7307423923	 0.2108298515	-0.383476
N	-1.1804419589	-0.7157390592	-0.2891040904	-0.165188
C	-1.5101138039	-2.1388246932	-0.1889583797	 0.012838
C	-2.1338986876	-2.4326969729	 1.1315389279	-0.282828
C	-2.9694992394	-1.7577540801	 0.0357266567	-0.223312
C	-2.5146719335	-0.3164359912	-0.0821934976	 0.435992
O	-3.0018642677	 0.7811240592	-0.0223118348	-0.370337
H	 0.7241692851	 1.7838076293	 0.4084104358	 0.268052
H	-0.9853996	 1.7007334001	 0.0492540257	 0.281551
H	-1.091846516	-2.8552855059	-0.8800618433	 0.137054
H	-2.4046126933	-3.4676584571	 1.3192544603	 0.136419
H	-1.8303726582	-1.8737854398	 2.0109689508	 0.140379
H	-3.8720620355	-2.1914699564	-0.3675868552	 0.12974
