19
gdb 53687	1.87355	1.20934	0.88142	2.0883	79.15	-0.2319	-0.0091	0.2228	1403.6164	0.154644	-423.007657	-422.996541	-422.995597	-423.046514	36.953	
C	-1.4210454742	 0.2575724644	 0.4250370347	-0.500486
C	-0.6847015992	-0.988224348	 0.2706872684	 0.054091
C	-0.0782280377	-2.0206382706	 0.1362154464	 0.06766
C	 0.6370487849	-3.2825075024	-0.0577929347	-0.224334
O	-0.1676531414	-4.4487324589	 0.0627354794	-0.227416
C	-1.2175039408	-4.5361421126	-0.8811335312	-0.174752
C	-2.5720895843	-3.9997159281	-0.3962994017	 0.370431
C	-2.8264030854	-4.0325118707	 1.0953503739	-0.473139
O	-3.3979945772	-3.6405343277	-1.202536976	-0.300593
H	-1.0085179131	 1.0415031085	-0.2191356371	 0.154086
H	-2.4727640895	 0.1227213334	 0.1504524632	 0.163377
H	-1.3870099522	 0.6197763083	 1.458060473	 0.150829
H	 1.1313736665	-3.2714443403	-1.0427205928	 0.123143
H	 1.4214441762	-3.3970086609	 0.6976401292	 0.139107
H	-0.970578713	-4.0484134048	-1.8322166556	 0.122416
H	-1.3629529735	-5.6061714928	-1.0852991454	 0.130812
H	-3.8665147209	-3.7709044387	 1.2938092449	 0.132435
H	-2.5991823254	-5.024561416	 1.5004812026	 0.137212
H	-2.1579074699	-3.329097022	 1.5993976387	 0.15512
