20
gdb 85135	2.23734	1.64185	1.16965	2.6752	80.05	-0.2566	0.0293	0.286	1134.6111	0.171213	-403.147823	-403.139152	-403.138207	-403.181223	32.867	
C	-0.1855898057	 1.5537760276	-0.2437586712	-0.407571
C	 0.1757047513	 0.0872716078	-0.1796228577	 0.06818
O	 1.5426754806	-0.1643774399	-0.6726599982	-0.285229
C	 1.9106423917	-0.7333215268	 0.5265483746	 0.400228
N	 3.0002401234	-1.2347857523	 0.8975983475	-0.554883
C	 0.562531374	-0.5348494524	 1.1797266811	 0.18427
C	 0.5083016685	 0.1832927255	 2.5553241524	-0.278856
C	 0.2749386432	-1.2006796243	 3.2195207339	-0.209941
C	-0.1282379512	-1.7615647951	 1.8296316914	-0.282143
H	 0.5170624311	 2.1571764639	 0.3380890797	 0.130047
H	-0.1695786413	 1.9057815204	-1.279467939	 0.133165
H	-1.1935914515	 1.7136258857	 0.1534684366	 0.123971
H	-0.5272398306	-0.5251851704	-0.7552055069	 0.089627
H	 3.7021383029	-1.1946742059	 0.1565802576	 0.224383
H	 1.3941846301	 0.7480789827	 2.8515817776	 0.116454
H	-0.3711806279	 0.8302106262	 2.6298511235	 0.101865
H	 1.2137617148	-1.6371088893	 3.5660030593	 0.131368
H	-0.4641819901	-1.2569358157	 4.0210902702	 0.097565
H	-1.2108903527	-1.732434557	 1.6701857466	 0.100613
H	 0.2493731492	-2.7456508706	 1.545197181	 0.116887
