21
gdb 99280	4.6276	0.61572	0.58624	0.5829	76.61	-0.2674	0.0198	0.2872	1954.9018	0.179498	-461.40304	-461.39202	-461.391076	-461.440711	38.198	
C	-0.1445522968	 1.3589673567	 0.0619821592	-0.238822
O	-0.1443749602	-0.0592468712	-0.1392594884	-0.231774
C	 0.7131093715	-0.5086594928	-1.0798660872	 0.443472
O	 1.4218327348	 0.2182643803	-1.7318043089	-0.362461
C	 0.6723496648	-2.0182164396	-1.1708512813	-0.330104
C	 1.2353087302	-2.5524669859	-2.4882140607	-0.189775
C	 1.479861201	-4.0661668838	-2.4515465167	 0.133711
C	 1.9897720101	-4.6007594756	-3.7893163446	-0.404528
O	 2.3585887734	-4.4219703311	-1.3834797009	-0.428414
H	 0.8437069158	 1.7058707374	 0.3749201742	 0.138555
H	-0.4216560429	 1.8799486742	-0.8580718105	 0.139201
H	-0.8802317089	 1.5481533309	 0.8439230335	 0.131627
H	 1.2685104343	-2.4159719869	-0.3400264299	 0.14792
H	-0.3532654699	-2.357112559	-0.9939806889	 0.12303
H	 0.5566624555	-2.3121316514	-3.3152779822	 0.10161
H	 2.1773597776	-2.0351151182	-2.7082292558	 0.11089
H	 0.5394613673	-4.574261283	-2.2009659055	 0.0872
H	 2.9274335926	-4.1057976467	-4.0723921789	 0.109224
H	 2.1760658856	-5.6759673964	-3.7229262543	 0.12423
H	 1.2660282603	-4.4206415964	-4.5906987783	 0.11769
H	 3.2273827239	-4.0589200314	-1.5911571035	 0.277515
