14
gdb 28150	5.15266	1.29801	1.0435	2.4753	70.67	-0.1935	-0.0162	0.1773	1062.8644	0.102574	-436.717502	-436.710736	-436.709792	-436.748512	26.459	
O	 0.0376738136	 1.2719271883	 0.0074397265	-0.398701
C	-0.0555924696	-0.055790779	 0.0005930956	 0.428053
N	-1.1443003228	-0.7548944602	 0.0031530076	-0.415823
C	-0.6541996143	-2.0557167604	-0.0067709813	 0.238151
C	 0.6956736487	-2.0542721313	-0.014613885	 0.29293
O	 1.1294895826	-0.7488447977	-0.0100111566	-0.257734
C	 1.2535909191	-3.3889082649	-0.0253097761	-0.211216
C	 0.1948192951	-4.2334399815	-0.0239041314	-0.086166
C	-1.131375355	-3.4733004557	-0.0118930792	-0.410493
H	 0.972054834	 1.5125189467	 0.0021862737	 0.318609
H	 2.3002188821	-3.6573677139	-0.0328758106	 0.113444
H	 0.2481067492	-5.3132807151	-0.0302012132	 0.105794
H	-1.7317664999	-3.7322148866	 0.8693961352	 0.141577
H	-1.7420704928	-3.7223758385	-0.8889250054	 0.141575
