15
gdb 69014	2.76883	1.40478	1.17224	2.977	73.52	-0.2812	-0.0246	0.2565	1069.7868	0.111678	-416.794079	-416.785893	-416.784949	-416.826911	30.211	
C	-0.0365837968	 1.5847546202	 0.039275287	-0.486929
C	 0.0169418827	 0.0885873157	-0.0060499497	 0.10566
C	-0.9002144088	-0.841134413	 0.7836765561	-0.364412
C	 0.581949506	-0.9609748779	 0.956299887	 0.304755
O	 1.1260870531	-1.7330085147	-0.1439252319	-0.298342
C	 0.7022095101	-0.7476851759	-1.0463052588	 0.414694
N	 0.904773346	-0.6276477549	-2.2723819464	-0.544116
C	 1.3344199035	-0.8375542764	 2.1566002843	 0.227266
N	 1.9291715152	-0.7195293066	 3.1419335945	-0.3382
H	 0.9350627653	 2.0193896701	-0.2095281293	 0.149583
H	-0.7693354587	 1.9576942202	-0.6830680267	 0.151926
H	-0.3307728847	 1.9349338176	 1.0325113986	 0.137153
H	-1.43532674	-0.353226368	 1.5924688272	 0.150964
H	-1.4214284241	-1.6620033859	 0.3016856708	 0.147029
H	 1.4568683911	-1.3999770004	-2.6480741028	 0.24297
