21
gdb 74388	3.11409	1.52901	1.18265	0.2235	88.56	-0.2075	0.0169	0.2244	1125.8574	0.182764	-349.913061	-349.905022	-349.904078	-349.944985	32.779	
C	-0.0533695548	 1.4995233358	 0.0202550439	-0.50598
C	-0.0062888184	 0.0109397929	-0.0302586098	 0.325297
C	-0.0320629968	-0.8433611545	-1.0560594684	-0.29745
C	 0.0480458477	-2.2303015305	-0.4226717455	 0.347451
C	 0.0402411315	-3.4389931609	-1.3335896592	-0.512798
C	-0.8275160392	-2.1580036354	 0.8968135233	-0.069903
C	 0.1853042481	-3.0601505031	 1.640466226	-0.269294
C	 1.0513502797	-2.0950295162	 0.7971401112	-0.069908
C	 0.088873331	-0.9135442779	 1.1790023229	-0.114441
H	 0.8397132937	 1.912894191	 0.5070906982	 0.124912
H	-0.1226936281	 1.9326747786	-0.981608691	 0.123584
H	-0.9135621977	 1.8542000792	 0.603110416	 0.124876
H	-0.0953117247	-0.6370666763	-2.1167829559	 0.089683
H	 0.8873269308	-3.4073149818	-2.0282695062	 0.11749
H	 0.1009122196	-4.380612387	-0.7804566938	 0.11635
H	-0.8755175413	-3.4661571742	-1.935075286	 0.117489
H	-1.9203895914	-2.1808414973	 0.9490316452	 0.060355
H	 0.2386875949	-2.9351921719	 2.7257331922	 0.086066
H	 0.2068537292	-4.120148671	 1.3769674497	 0.090225
H	 2.1426957364	-2.0446667278	 0.7334947766	 0.060351
H	 0.1283082701	-0.4952095416	 2.1867572804	 0.055644
