19
gdb 73547	2.56657	1.9376	1.5996	1.4838	74.6	-0.2294	0.0693	0.2987	927.0801	0.160502	-422.949666	-422.94231	-422.941366	-422.981203	30.341	
O	 0.1818659169	 1.3275651379	-0.204013702	-0.498028
C	 0.1295007569	-0.0739107638	-0.047615949	 0.450531
C	 0.6628104812	-0.653303152	-1.3641390344	-0.349937
C	-0.6789116269	-0.809564495	-2.1734270213	-0.083257
O	-1.7973227311	-0.8884337689	-1.2377434263	-0.326842
C	-1.2161770258	-0.8018546698	 0.0109792501	 0.404036
C	-1.4964977929	-0.1450225625	 1.3888427615	-0.333121
C	 0.0166825155	-0.6527119872	 1.410720374	-0.179085
C	-0.5210736836	-1.9668795438	 0.7997612671	-0.297073
H	-0.1672326192	 1.752284146	 0.5845855789	 0.280158
H	 1.3446111659	 0.0381351225	-1.8598891639	 0.118997
H	 1.1668419999	-1.6123519559	-1.2519383935	 0.115705
H	-0.8511050189	 0.0555525074	-2.8210042572	 0.120377
H	-0.6813851135	-1.7148630532	-2.7880246724	 0.108119
H	-1.6919525321	 0.928868361	 1.4118467902	 0.09006
H	-2.1723100573	-0.6706643815	 2.06651651	 0.104836
H	 0.7089209019	-0.5528033824	 2.2458111528	 0.081875
H	-1.1747578007	-2.5550548855	 1.4462642965	 0.096812
H	 0.186369044	-2.6029010833	 0.2693600088	 0.095837
