16
gdb 30425	3.3333	1.17555	0.87929	3.2413	71.64	-0.1746	0.0494	0.224	1276.6409	0.123599	-471.208473	-471.199115	-471.19817	-471.242787	33.553	
C	-0.0283420375	 1.4120671952	 0.0065568129	-0.319492
N	-0.0152033822	-0.0395551306	-0.0051199452	-0.374906
C	 0.4813212275	-0.6281124187	-1.0034262354	 0.50445
N	 0.5760805587	-2.0041007881	-1.1850287592	-0.407028
C	 1.3510797805	-2.2507384024	-2.3347095187	 0.186076
N	 1.7349794994	-3.5548088399	-2.661819347	-0.61142
C	 1.5792459262	-1.0651979644	-2.9066185834	 0.275088
O	 2.1133053095	-0.7360196489	-4.0966794311	-0.423775
O	 1.0425137467	-0.0394098329	-2.1240693151	-0.250832
H	 0.8575817205	 1.8618021791	-0.4626642635	 0.107964
H	-0.9107448077	 1.8067974357	-0.5165564405	 0.115816
H	-0.0833464954	 1.7597994034	 1.0423526198	 0.114893
H	 0.6240751941	-2.5993310307	-0.3732674728	 0.26749
H	 0.933121257	-4.1463504536	-2.8654801659	 0.251562
H	 2.3413530622	-3.550429627	-3.4736080301	 0.256074
H	 2.8659083605	-0.1448877562	-3.9608653049	 0.308042
