17
gdb 49284	3.03986	1.37612	1.01021	4.6329	76.48	-0.2513	-0.0596	0.1917	1150.8306	0.136589	-421.834072	-421.826282	-421.825338	-421.86705	29.019	
O	-0.0592486029	-0.0696288985	-0.1496382643	-0.26907
C	-0.0014109486	 1.1357118562	-0.0645047699	 0.086219
C	 1.2461072816	 1.903382358	 0.0927907345	 0.231543
C	 1.208104222	 3.2442181815	 0.0915693	-0.129488
C	 2.4241807307	 4.1188653139	 0.1614831545	-0.272084
C	 3.6786074067	 3.4359779715	 0.7498509095	-0.241973
C	 3.7532050429	 1.9339872442	 0.5050596096	 0.032106
O	 3.1368261381	 1.1163068331	 1.5049951232	-0.250748
C	 2.5354521836	 1.1694663164	 0.1988206864	-0.064747
H	-0.9199751063	 1.7639080492	-0.1164199714	 0.067031
H	 0.2443794327	 3.7415429121	-0.0123076336	 0.108157
H	 2.6268973415	 4.4703601071	-0.8621318363	 0.132458
H	 2.1933229738	 5.0272069732	 0.7288964453	 0.123436
H	 4.574570366	 3.9193417308	 0.3488858522	 0.107277
H	 3.6996665458	 3.5840316531	 1.8345252779	 0.130173
H	 4.7084404423	 1.5478189362	 0.1508354464	 0.097534
H	 2.5911410302	 0.2351449421	-0.354418954	 0.112179
