18
gdb 84572	3.26873	1.52829	1.31239	0.9841	75.46	-0.2299	-0.0049	0.225	999.0709	0.149749	-401.899468	-401.892361	-401.891417	-401.930775	29.028	
O	 0.1298566918	 1.4434260763	-0.1265129934	-0.432834
C	 0.0996218798	 0.0201834721	-0.0444146614	 0.090253
C	 0.715984445	-0.4926168062	 1.2445666728	-0.123194
C	-0.1377988244	-1.1925538302	 2.0002607722	-0.08221
C	-1.4766895145	-1.3297255868	 1.34345516	-0.016347
C	-1.3238713116	-0.5833466436	-0.0057229403	-0.08456
C	-1.6099804771	-1.930271017	-0.6809398722	-0.038372
C	-0.7110827811	-3.0117237111	-0.2393301168	-0.245236
N	-1.8380554435	-2.6508037924	 0.6404808132	-0.154481
H	-0.2321872352	 1.7860702076	 0.6983598174	 0.274664
H	 0.6552552491	-0.3156693649	-0.9276606479	 0.095429
H	 1.7422731517	-0.2555402959	 1.5064952253	 0.105229
H	 0.0974455756	-1.6300719463	 2.9648834985	 0.105768
H	-2.3202741998	-1.0634906454	 1.9834644208	 0.086804
H	-2.0780063992	 0.1736331458	-0.2226839005	 0.083689
H	-2.2975310382	-2.0588733357	-1.5108852532	 0.095023
H	-0.8548480757	-3.9847199995	-0.6992332245	 0.121043
H	 0.3086658575	-2.8060734366	 0.0712277901	 0.119332
