17
gdb 46676	2.99988	1.73701	1.33316	2.4793	72.33	-0.2182	0.016	0.2343	958.6956	0.13942	-417.931307	-417.924637	-417.923693	-417.962216	27.261	
O	-0.0526637719	-0.0462347489	 0.1775573347	-0.370773
C	 0.0023944724	 1.1505693729	 0.0196106915	 0.303545
N	-1.0886209557	 2.0117263458	-0.0397256461	-0.321347
C	-0.8271046367	 3.4527935857	-0.2331294808	-0.241805
C	 0.611934977	 3.3721065722	-0.7684407535	 0.052017
N	 1.9652331228	 3.898144336	-0.175990202	-0.178837
C	 1.5918618895	 3.0654869368	 1.0595579527	-0.196178
C	 1.1613547158	 2.125855427	-0.1006455631	 0.159516
C	 2.5158154106	 2.5475490015	-0.7243344804	-0.248409
H	-2.0099923555	 1.6499285792	 0.1517410577	 0.253256
H	-1.5188155545	 3.8739164498	-0.9684457418	 0.119947
H	-0.94232087	 4.0205265575	 0.6969902169	 0.124628
H	 0.6306870451	 3.4027105385	-1.8607595536	 0.08903
H	 2.453992943	 2.7587309846	 1.6554892831	 0.111056
H	 0.8286867835	 3.5191424175	 1.6926558191	 0.112044
H	 2.6053860515	 2.5191083634	-1.8124465994	 0.115926
H	 3.4377969832	 2.2368637004	-0.229319785	 0.116383
