21
gdb 62685	2.39382	1.68821	1.28301	1.1594	82.6	-0.2019	0.0734	0.2753	1086.4416	0.180547	-387.010699	-387.001599	-387.000655	-387.04368	36.099	
C	-0.2305697177	 1.6165238858	 0.0167392735	-0.493803
C	 0.0608920852	 0.1185762181	 0.0286519291	 0.321668
O	-1.0628476121	-0.6138710999	-0.4380230917	-0.459199
C	 1.3300176441	-0.6557615327	-0.3328660599	-0.187176
C	 2.6897279353	-0.1556416607	 0.2057647231	-0.05196
C	 2.6497188916	 1.1523126161	 0.9316767312	-0.318174
C	 2.1018189947	-0.0861661573	 1.6090700259	-0.121921
C	 0.7578251709	-0.6878328505	 1.0906108424	 0.307386
C	 0.1194132702	-1.8115758082	 1.8546084044	-0.494342
H	 0.1974451802	 2.1202924486	-0.8568896735	 0.117722
H	-1.3170651351	 1.7367441148	-0.0184532916	 0.121335
H	 0.122531977	 2.1227239823	 0.915619768	 0.137347
H	-1.1263522535	-0.465454232	-1.3879506976	 0.280356
H	 1.2504208326	-1.4326602478	-1.084616429	 0.081225
H	 3.6199230441	-0.6153385218	-0.1046319352	 0.087274
H	 3.613235085	 1.448821715	 1.3394388659	 0.109073
H	 2.0544199671	 1.9917664036	 0.6042162346	 0.11171
H	 2.5395276306	-0.4457029008	 2.5324705488	 0.087732
H	-0.2617848706	-1.458620151	 2.8217372342	 0.111866
H	-0.7137758972	-2.2357078521	 1.2924703824	 0.14117
H	 0.8446206977	-2.6080562396	 2.060063815	 0.11071
