19
gdb 37216	3.31423	1.57103	1.26752	1.2458	81.77	-0.2257	0.0156	0.2413	1032.496	0.161439	-385.851094	-385.84388	-385.842936	-385.882712	29.144	
C	-0.0427606096	 1.4232623796	-0.2797947324	-0.273921
C	 1.3091001838	 0.8505649315	 0.00958995	-0.090583
C	 0.0463091373	-0.0459812489	 0.0893490228	-0.181371
C	 0.5004385581	-0.7656447009	-1.1414700707	 0.334415
C	 0.0946560292	-1.4957382907	-2.1702356524	-0.264258
C	 1.049511981	-1.4800759236	-3.3483808445	-0.268283
C	 1.6322983974	-0.0583538204	-3.5181107376	-0.05489
O	 2.2904106379	 0.4666839507	-2.3614702869	-0.283516
C	 1.8262156286	-0.0482955247	-1.1297840241	 0.075281
H	-0.4424655838	 2.0701090046	 0.4955146756	 0.114512
H	-0.3225407767	 1.7077784981	-1.2897202182	 0.119593
H	 1.9223224556	 1.2161867723	 0.8234593836	 0.089002
H	-0.4497426152	-0.4531320073	 0.9607162169	 0.097995
H	-0.8649045324	-1.9991978483	-2.2317857852	 0.090266
H	 1.8673015889	-2.2026645993	-3.2205095554	 0.114139
H	 0.5354949429	-1.7522711202	-4.2764022322	 0.104314
H	 2.3806031539	-0.0443481235	-4.3179692702	 0.101049
H	 0.8122898455	 0.6138293381	-3.8128843814	 0.091354
H	 2.6052926976	-0.705139377	-0.7115635874	 0.0849
