17
gdb 37274	3.64686	1.97724	1.87855	1.7779	72.05	-0.246	0.0739	0.3199	797.9068	0.139162	-384.613985	-384.608501	-384.607556	-384.64344	24.55	
O	-0.0231244871	 1.4340304597	 0.0473316605	-0.244937
C	 1.269687565	 0.8126936031	 0.0401317535	 0.022134
C	 0.0379740279	 0.000944176	 0.0480575163	 0.022136
C	-0.0433592604	-0.6539389047	-1.333314795	-0.074901
C	-0.2231320275	 0.3183191128	-2.5113355203	-0.046901
C	 1.0580855935	 1.1626491966	-2.5195997463	-0.046898
C	 1.0106811383	-0.1666898785	-3.232775495	-0.129683
C	 1.4309730234	-0.7909798563	-1.8580977478	-0.073279
C	 1.8911580125	 0.620960441	-1.345760554	-0.074906
H	 1.8792847334	 1.001569604	 0.920115439	 0.091814
H	-0.3680846974	-0.4795338222	 0.9345735652	 0.091812
H	-0.6536008549	-1.5559738883	-1.3900686349	 0.063713
H	-1.1449049517	 0.7048443751	-2.9248603449	 0.087936
H	 1.0627213994	 2.1596764846	-2.9391048224	 0.087936
H	 1.1861921511	-0.4430854266	-4.261029175	 0.090995
H	 2.0237589017	-1.6888609587	-1.6938048666	 0.069318
H	 2.9601932328	 0.8256111723	-1.4133159521	 0.063711
