17
gdb 15617	3.45728	1.73777	1.2797	1.2353	67.05	-0.2525	0.0232	0.2757	978.7651	0.141718	-401.01234	-401.003961	-401.003017	-401.045705	29.143	
C	-0.0683589584	 1.4652279677	 0.0451802564	-0.335285
N	-0.1089885021	 0.0117634144	 0.0468353558	-0.319758
C	 0.619628404	-0.6351191104	 0.8384946484	 0.410427
O	 1.5146030892	-0.116662219	 1.739104265	-0.245754
C	 2.0084120373	-1.1918198337	 2.5323222806	 0.015654
O	 1.79048609	-2.3738957438	 1.8130551828	-0.255775
C	 0.6577524929	-2.148139276	 0.9688512711	 0.011266
C	-0.6349421587	-2.728002968	 1.5406918575	-0.397855
H	 0.5116594634	 1.9003987215	 0.8668432334	 0.12302
H	 0.3566863117	 1.8125227669	-0.9038455087	 0.128616
H	-1.0933000905	 1.8485153575	 0.0917905037	 0.125635
H	 3.0819739932	-1.0557849374	 2.6921807878	 0.12794
H	 1.4770716187	-1.1903756603	 3.4978241685	 0.102571
H	 0.8772038	-2.6037555586	-0.0007983066	 0.117739
H	-0.8653370169	-2.2947979735	 2.5190158774	 0.119939
H	-1.4627240804	-2.5033738198	 0.8629334024	 0.144271
H	-0.5455071135	-3.8116637477	 1.6518619144	 0.127348
