18
gdb 15366	6.00022	0.87075	0.84061	3.158	69.9	-0.2508	-0.0259	0.225	1387.8945	0.151117	-384.932559	-384.923489	-384.922545	-384.967581	31.234	
C	-0.1634134553	 1.4477773042	-0.5159098247	-0.376262
C	 0.0610138475	 0.1414760371	 0.2568812766	-0.214997
C	-1.2417620984	-0.5594635211	 0.5554876234	 0.080992
O	-1.8981627847	-1.2304259617	-0.5297788011	-0.263048
C	-1.4507138278	-2.0177646621	 0.5813265659	 0.036521
C	-0.3824910181	-3.0551446368	 0.3033367278	-0.31184
C	-0.9386791764	-4.21298842	-0.5065526579	 0.160348
O	-0.8178857127	-5.3729488275	-0.2090721878	-0.236367
H	 0.7861820551	 1.948673771	-0.7242133356	 0.117237
H	-0.6622601603	 1.249308989	-1.469030756	 0.136116
H	-0.790995096	 2.1418538081	 0.0533111635	 0.118556
H	 0.7198895363	-0.5155151313	-0.3183071907	 0.104977
H	 0.5673716301	 0.3498824376	 1.2082928068	 0.106034
H	-1.9289231415	 0.0298741208	 1.1685422713	 0.091049
H	-2.2656350997	-2.3840337766	 1.2096597328	 0.101285
H	 0.4284990388	-2.6078191045	-0.282925143	 0.126924
H	 0.0347908576	-3.4486594998	 1.2352657008	 0.12569
H	-1.4807927345	-3.9037153066	-1.4272064822	 0.096784
