13
gdb 27831	2.08998	1.95529	1.01655	3.1112	63.31	-0.2859	-0.0659	0.22	1076.1475	0.089426	-489.972849	-489.96524	-489.964296	-490.005515	27.329	
C	 0.020397762	 1.4632068882	-0.01448886	-0.471627
C	-0.0674208234	-0.0258184664	-0.0023643633	 0.433287
N	-1.1958292708	-0.64269669	-0.1577640906	-0.338278
C	-1.0880312689	-2.0040009624	-0.1191040319	 0.455504
O	-2.2459214846	-2.6280256341	-0.2786927849	-0.361405
N	-0.0128523914	-2.724649421	 0.0508843172	-0.425753
C	 1.1734966162	-2.0806949931	 0.2143265993	 0.446782
O	 2.2578606393	-2.5393473022	 0.3812611485	-0.321802
O	 1.1012823809	-0.6259743593	 0.1793559844	-0.232019
H	 0.6992223731	 1.786459271	-0.8096858598	 0.166081
H	-0.9691378762	 1.8905857894	-0.167838569	 0.163469
H	 0.4419555253	 1.8158531691	 0.9318688074	 0.166094
H	-2.0565237815	-3.5778581489	-0.2349501272	 0.319668
