24
gdb 102476	1.91636	1.20192	0.82433	3.4335	87.45	-0.2301	0.0379	0.268	1533.7188	0.215519	-405.592893	-405.581508	-405.580564	-405.630109	40.442	
C	 0.0043034761	 1.5092453552	 0.0710711	-0.375505
C	 0.0431477652	-0.0180759933	-0.0296930781	-0.153117
N	 0.7081287968	-0.4933484927	-1.2449670045	-0.079256
C	 2.1378212505	-0.7686720208	-1.1630988591	-0.16497
C	 2.4674613162	-2.1601773872	-0.6086170438	-0.374001
C	-0.0536159187	-0.627035274	-2.3779133447	 0.420096
O	-1.2454176694	-0.3542510259	-2.3766974402	-0.389995
C	 0.640585402	-1.1256607729	-3.6482691781	-0.31369
C	-0.359262786	-1.3888699872	-4.7736969839	-0.371801
H	 1.0112994051	 1.9396469021	 0.0501122573	 0.109775
H	-0.5689132754	 1.9231700332	-0.7619423768	 0.144302
H	-0.4740830627	 1.817882954	 1.006273847	 0.113693
H	 0.5686126906	-0.4456370512	 0.8308723554	 0.095494
H	-0.9748713325	-0.4116735545	-0.0334691017	 0.136951
H	 2.5898808239	-0.6449440827	-2.1488026928	 0.119003
H	 2.5922113912	-0.0016050769	-0.5244207948	 0.109912
H	 2.0424046137	-2.2996138727	 0.3899283001	 0.126375
H	 2.0664525562	-2.9459879451	-1.2557737056	 0.126352
H	 3.551497636	-2.2953795935	-0.5355787878	 0.117795
H	 1.3748492583	-0.3734850454	-3.966381801	 0.122304
H	 1.2177406345	-2.0314056565	-3.428946791	 0.115822
H	-1.0773770096	-2.1605761922	-4.4854969827	 0.128157
H	-0.9302073751	-0.4871595418	-5.0036347695	 0.135476
H	 0.1616651731	-1.7179954579	-5.6776842336	 0.100828
