16
gdb 64858	3.5527	0.97798	0.87456	3.0503	76.45	-0.2713	0.0068	0.2781	1310.2155	0.122408	-400.712336	-400.703502	-400.702557	-400.745946	33.094	
O	-0.0954553951	 1.4916761643	 0.0079340106	-0.465961
C	 0.0055533046	 0.0810414356	-0.0056160702	 0.251551
C	 0.2356291077	-0.5294626367	 1.4118399276	-0.276945
C	-1.3161802437	-0.6307673435	 1.57265785	-0.175148
C	-1.4322531487	-0.5011151483	 0.0188796061	-0.25111
C	-1.8639270346	-1.8081504957	 2.2093192535	 0.324686
C	-2.3090600301	-2.7986010964	 2.725701883	-0.456724
C	 0.9081487426	-0.3724091667	-1.0706087529	 0.232837
N	 1.6404216773	-0.7240110261	-1.8931509104	-0.33197
H	 0.7823550616	 1.8599229591	 0.1632673986	 0.293692
H	 0.6992104495	-1.5161466628	 1.3633138613	 0.137737
H	 0.7783530198	 0.1037885688	 2.1162711507	 0.118735
H	-1.7016409626	 0.2742514856	 2.0495098256	 0.122883
H	-2.1972564822	 0.1644373628	-0.3812233412	 0.136232
H	-1.486342225	-1.4772867601	-0.4638086509	 0.138321
H	-2.705027351	-3.67054992	 3.1846629286	 0.201185
