21
gdb 103539	2.39868	1.42105	1.10587	2.2163	79.73	-0.2385	0.0259	0.2644	1190.3046	0.181682	-424.236023	-424.226515	-424.225571	-424.269906	36.461	
C	-0.5909210435	 1.1952512506	 0.1609888054	-0.397429
C	 0.1801810919	-0.0972780454	-0.1003219546	-0.021885
C	 1.2715786511	 0.0118276634	-1.1967562947	-0.277141
C	 2.3439703533	-0.9341187896	-0.7194040395	-0.0835
C	 2.1454238572	-1.3274219754	 0.5360660842	-0.101126
C	 0.9123872997	-0.6817815869	 1.1433547407	 0.36549
O	 1.2837060966	 0.3780509089	 2.0277452022	-0.483373
C	 0.035014347	-1.6634322806	 1.9232291371	-0.140277
O	 0.7700246458	-2.0344576839	 3.0889970573	-0.438625
H	 0.0796231657	 1.9834828502	 0.5104788157	 0.136314
H	-1.0844108874	 1.5370361608	-0.7550704594	 0.102578
H	-1.3633528516	 1.057029481	 0.9243432882	 0.107047
H	-0.5279724932	-0.8690126817	-0.4303193244	 0.070249
H	 0.8836359426	-0.2439559441	-2.1897694241	 0.098452
H	 1.6634628033	 1.0360794113	-1.2739766094	 0.110371
H	 3.1891970331	-1.2187315507	-1.3376550517	 0.091161
H	 2.7911700037	-1.9761581837	 1.1166470527	 0.097391
H	 1.4973553853	-0.0514594429	 2.866268614	 0.281937
H	-0.9088172485	-1.1691688258	 2.1965297102	 0.093847
H	-0.1944365859	-2.5420447251	 1.3035346531	 0.09365
H	 0.1756625037	-2.4685782904	 3.7065508971	 0.29487
