18
gdb 15844	5.5217	0.94272	0.88468	1.498	64.39	-0.2614	0.0799	0.3413	1304.0238	0.152292	-422.04267	-422.033753	-422.032809	-422.076689	31.799	
O	-0.1659361026	 1.4565370078	 0.1090985047	-0.423626
C	-0.0110532938	 0.0446159622	 0.0906280753	-0.079873
C	-1.3987865025	-0.5719032391	-0.020147752	-0.184786
C	-1.3625106843	-2.1048666724	-0.0746209718	 0.081664
O	-0.7108152763	-2.6617342431	 1.0555734381	-0.436754
C	-2.7684646589	-2.6756498814	-0.1991562449	 0.066648
C	-3.0869204355	-4.0348807664	 0.2438733333	-0.188175
O	-3.4232284083	-2.897681556	 1.0577462092	-0.250007
H	 0.6987862432	 1.8496071146	 0.2579005593	 0.285333
H	 0.605781768	-0.2772210706	-0.7657059618	 0.079989
H	 0.4787092935	-0.3236879712	 1.0021078594	 0.103639
H	-2.0050245929	-0.2501949182	 0.8357571211	 0.112314
H	-1.8893152697	-0.1842524236	-0.9217402889	 0.10239
H	-0.7775596595	-2.4224747307	-0.9486874123	 0.092382
H	-1.3674648916	-2.6404426025	 1.7665469563	 0.289912
H	-3.4005392144	-2.2138740448	-0.958166305	 0.098597
H	-3.9383615276	-4.5573891351	-0.1875015278	 0.120404
H	-2.2906160468	-4.6600866594	 0.639400038	 0.129948
