11
gdb 20327	5.97085	1.32906	1.2141	2.4383	57.12	-0.2857	-0.076	0.2096	933.882	0.07066	-393.487631	-393.480808	-393.479863	-393.519619	23.834	
C	-0.0212508824	-1.210448505	-0.1291773024	-0.432135
C	-0.006508042	-0.0139169218	-0.0385569502	 0.30092
C	 0.0154483079	 1.4415369202	 0.0736130588	-0.433078
C	 1.4062277692	 1.9985152567	 0.0632005647	 0.421984
N	 1.9601405408	 2.6329457757	 1.0546544597	-0.137687
O	 3.194215344	 2.9574309499	 0.6072572083	-0.13701
N	 3.337279126	 2.4837182657	-0.6970468278	 0.05271
N	 2.2670261373	 1.9118554246	-1.0179159366	-0.189312
H	-0.0348784626	-2.2693633411	-0.2114963131	 0.211972
H	-0.5451512505	 1.8876278002	-0.7571992051	 0.169035
H	-0.4700708977	 1.764337735	 1.0000028638	 0.172601
