19
gdb 104107	2.91537	1.14691	1.08096	4.1126	70.95	-0.2619	0.0162	0.2781	1201.2801	0.158762	-460.210198	-460.20115	-460.200206	-460.243866	33.725	
C	-0.3309978964	 1.6843709297	 0.0009593453	-0.454997
C	 0.0478248257	 0.2018636695	 0.0258056324	 0.262828
C	-1.2105573112	-0.6785919849	-0.0337373847	-0.109688
O	-1.90243109	-0.3909243853	-1.238339457	-0.424357
C	 0.9986251065	-0.1811170489	-1.1318910238	-0.104714
O	 1.7944205959	-1.2809650823	-0.6580360145	-0.221435
C	 1.8028936287	-1.3216748954	 0.7023770525	 0.426124
O	 2.4435388372	-2.1232370946	 1.3170735462	-0.336918
C	 0.8965122477	-0.2164133619	 1.2368733755	-0.416442
H	 0.5604614711	 2.3188788181	 0.0336501594	 0.113743
H	-0.8958888789	 1.9233885017	-0.9035127087	 0.142542
H	-0.9576431289	 1.9394553611	 0.8622517714	 0.118726
H	-0.9204557685	-1.7397328188	 0.012491073	 0.103031
H	-1.8369952789	-0.4657246177	 0.8471316423	 0.092602
H	-2.6389431337	-1.002820437	-1.3221054662	 0.294768
H	 0.4612520958	-0.5066858286	-2.0233158479	 0.138044
H	 1.6666875073	 0.6469802095	-1.3964561881	 0.107403
H	 1.5304627792	 0.6062389034	 1.5872171011	 0.134972
H	 0.3270973212	-0.5772825077	 2.0965284419	 0.133768
