19
gdb 109847	2.23441	1.22872	0.98296	4.9052	73.47	-0.2549	0.0133	0.2682	1287.2792	0.156311	-460.15118	-460.141211	-460.140267	-460.186561	34.679	
C	-0.1383218129	 0.9644518222	 0.1626638071	-0.236697
O	-0.5555624696	-0.1516800869	-0.6056614617	-0.234783
C	 0.4493551954	-0.6775537489	-1.404555693	 0.063423
C	 1.3517345308	-1.778613355	-0.8708675552	-0.095861
C	 1.2479462205	-2.2505510939	 0.5633517962	-0.404622
C	 0.2497570553	-2.102805186	-1.8538792908	 0.036552
O	-0.8418393264	-2.8312351419	-1.3445130743	-0.186
C	-2.0808788517	-2.3972969862	-1.6854866204	 0.188788
O	-3.0680431285	-2.9598857452	-1.3225545019	-0.278936
H	 0.6706941745	 0.6992677033	 0.8553794776	 0.119104
H	 0.2059243581	 1.7855174337	-0.4828992502	 0.112616
H	-1.0070788841	 1.2993400926	 0.7327981092	 0.138239
H	 0.8670195517	 0.0262049283	-2.1270314847	 0.092027
H	 2.3531820376	-1.8018196097	-1.2926485583	 0.093511
H	 0.2373861129	-2.1149882923	 0.9506041316	 0.147259
H	 1.4966533622	-3.3133907615	 0.6400644212	 0.128931
H	 1.942301199	-1.6952692912	 1.2017736782	 0.116099
H	 0.510195919	-2.3753238612	-2.8728676421	 0.109685
H	-2.0581496538	-1.4978679001	-2.3239551585	 0.090667
