18
gdb 57939	2.34194	1.25915	1.02307	3.8184	69.48	-0.237	-0.028	0.209	1227.4799	0.1458	-476.280188	-476.27033	-476.269386	-476.315644	35.62	
C	-0.4061916263	 1.1680461059	 1.1433870887	-0.403973
C	-0.1458247779	 0.1430653441	 0.029633844	 0.04042
O	-0.0249536407	-1.1755352152	 0.5075746514	-0.441315
C	-1.201247771	 0.2911373114	-1.0822010543	 0.353612
O	-1.3838628391	 1.3384945841	-1.6529489515	-0.303864
C	-2.0183580125	-0.9617987604	-1.445595847	-0.408705
C	-3.0623861821	-1.2435420458	-0.3687673302	 0.4112
N	-4.3515814367	-1.2233245315	-0.7813784249	-0.49795
O	-2.7597403728	-1.4644043501	 0.7981168407	-0.377587
H	 0.406119714	 1.1271491428	 1.8729717629	 0.124502
H	-0.4705794597	 2.1758481651	 0.7262122342	 0.1333
H	-1.3449305807	 0.9385411068	 1.6574908856	 0.128974
H	 0.8110699737	 0.3841098764	-0.4526794964	 0.114946
H	-0.8852201226	-1.412852887	 0.9001552626	 0.301474
H	-2.4690023508	-0.7989180162	-2.4256335474	 0.116133
H	-1.3428224351	-1.8213449635	-1.4712723525	 0.164513
H	-4.6119528317	-0.9807162938	-1.7205299931	 0.273341
H	-5.0753747182	-1.3582446233	-0.0935978827	 0.270981
