20
gdb 9689	3.4268	1.28172	1.10972	1.0211	72.14	-0.2439	0.0809	0.3248	1157.9907	0.17438	-386.110654	-386.100945	-386.100001	-386.1451	34.814	
C	 0.0859050929	 1.2251317908	-0.3527102234	-0.246042
O	-0.0869988106	-0.0022855796	 0.3271903948	-0.280681
C	-1.3558083899	-0.5860880898	 0.1745691634	 0.417116
C	-2.4622840537	 0.1033458189	 0.9446838323	-0.45237
C	-1.6538663248	-1.2550213307	-1.1464677057	-0.339945
C	-1.3485589387	-2.0883704314	 0.0853406112	-0.051973
C	-0.0640517743	-2.869588623	 0.1562969806	-0.099006
O	-0.2341060307	-4.0639256419	-0.6018580355	-0.423257
H	 1.1337846173	 1.5095246581	-0.2293105235	 0.124604
H	-0.1360639901	 1.1301947874	-1.425007348	 0.107927
H	-0.5432787727	 2.0247502058	 0.0622763547	 0.108697
H	-2.64490282	 1.1172862442	 0.5728014223	 0.117082
H	-3.3989171469	-0.4534834397	 0.8536803363	 0.119193
H	-2.2027382884	 0.1709334079	 2.0063505131	 0.123828
H	-2.6677696204	-1.23660079	-1.5313301009	 0.108149
H	-0.8808442623	-1.2190638916	-1.9069756208	 0.116892
H	-2.1942466168	-2.5908586038	 0.5471131097	 0.086674
H	 0.7601405733	-2.2568851728	-0.2311509832	 0.095788
H	 0.1678371311	-3.1027779416	 1.2079488831	 0.084537
H	 0.5736753457	-4.579736677	-0.5208470603	 0.282788
