18
gdb 35290	3.34343	0.91277	0.82722	3.7307	76.76	-0.2848	-0.0025	0.2823	1423.5058	0.146923	-401.922544	-401.913745	-401.912801	-401.957235	31.889	
N	-0.0060298489	-1.1078040014	 0.4307835073	-0.327779
C	 0.0673410632	 0.0435258074	 0.3586142208	 0.302632
C	 0.130735249	 1.4855447505	 0.2477978771	-0.109687
O	 0.9800800305	 2.1645209518	 1.1741110159	-0.227824
C	 1.3662559179	 2.1672848877	-0.2011824544	 0.089123
C	 2.6331060564	 1.435235715	-0.5727786786	-0.272434
C	 3.8741647609	 2.2452666643	-0.2514917128	 0.02774
C	 4.4095735169	 2.2761369457	 1.1580003955	-0.247958
C	 5.16932523	 1.5476777443	 0.0773437065	-0.279905
H	-0.8333311924	 1.9583533788	 0.0688987149	 0.139614
H	 1.2150588446	 3.1312470791	-0.6912164601	 0.107981
H	 2.6605208428	 0.4780414532	-0.0415486168	 0.12626
H	 2.5977591732	 1.2040715407	-1.6458643822	 0.114423
H	 3.9623752222	 3.170647696	-0.8158639644	 0.084605
H	 4.8151475569	 3.2083631278	 1.5345436604	 0.113829
H	 3.8901770029	 1.6847229998	 1.9037616396	 0.127383
H	 5.1685026983	 0.462727805	 0.0986721527	 0.117179
H	 6.0931169657	 1.9821597444	-0.2878511915	 0.114817
