12
gdb 16606	3.25257	2.39855	1.55955	4.4623	54.71	-0.2442	-0.0959	0.1483	761.7475	0.083389	-418.483318	-418.476985	-418.476041	-418.514086	23.316	
O	 0.010498958	 0.0070656173	-0.1886169788	-0.266633
C	-0.0457247868	 1.1843012712	 0.0252976274	 0.308623
C	-1.3005717676	 2.0361637975	 0.2369975797	-0.358819
C	-0.7643269292	 3.3731851175	 0.7075289329	 0.037695
O	 0.0642098614	 3.237496675	 1.8567610562	-0.237316
C	 0.7104028511	 3.4491780488	 0.5828663749	-0.089029
C	 1.1991173504	 2.1344233003	 0.0502286751	 0.332664
O	 2.2957926186	 1.8452508818	-0.3402876049	-0.281444
H	-1.839817206	 2.1228874566	-0.7143248931	 0.145868
H	-1.9753884863	 1.5744041279	 0.9629018252	 0.156235
H	-1.370854491	 4.2733955308	 0.6659921743	 0.121394
H	 1.2726115673	 4.3688933853	 0.4638686212	 0.130762
