19
gdb 99856	2.08286	1.2938	1.2086	4.6677	71.61	-0.2479	0.0145	0.2624	1186.937	0.156657	-456.340498	-456.329841	-456.328897	-456.375555	38.803	
C	 0.0488796735	 1.5388895402	-0.0592277858	-0.417706
C	-0.0024007499	 0.0199710498	 0.0788764799	 0.080918
O	 0.6803461234	-0.4430103063	 1.2295731613	-0.427635
C	-1.4578741628	-0.5493880118	 0.041109857	 0.182948
O	-2.1621337779	-0.082496872	-1.1093627985	-0.459222
C	-1.4475763343	-2.0892643923	 0.0704337355	-0.182414
N	-2.80823786	-2.5946831932	 0.1260360027	-0.50209
C	-2.1786553274	-0.0261400799	 1.2184498387	 0.320087
N	-2.6284142617	 0.4176423202	 2.1856066182	-0.347571
H	 1.0908391761	 1.8672056734	-0.0818643652	 0.12808
H	-0.451461937	 1.8689387098	-0.9722547238	 0.129833
H	-0.4503642383	 2.0210373746	 0.7882441996	 0.139552
H	 0.5238644464	-0.4432640804	-0.7668497994	 0.086213
H	 0.3161271605	 0.0190667256	 1.9952650646	 0.296332
H	-1.668190605	-0.3825829269	-1.8821519253	 0.289268
H	-0.862908935	-2.4093416491	-0.814466171	 0.073699
H	-0.8934313116	-2.4192019188	 0.9522967919	 0.13953
H	-3.3222093043	-2.3032921654	-0.6985081555	 0.234724
H	-2.8167222947	-3.6074107975	 0.1572661451	 0.235455
