16
gdb 81258	2.86626	1.49603	1.2205	3.818	70.91	-0.2212	-0.0783	0.1429	1040.3645	0.125188	-437.879344	-437.87181	-437.870866	-437.911316	28.742	
C	-0.1169123598	 1.5233901645	-0.0067596281	-0.423599
C	-0.0142701996	 0.0035641541	 0.0058783719	 0.006915
C	 1.2032438677	-0.5980024142	-0.7662762212	-0.125639
N	 2.0230938807	-0.2952156531	 0.4631679794	-0.315316
C	 0.7559095806	-0.611717918	 1.2177784033	-0.125638
C	 0.6506070899	-2.1092859085	 0.9472879307	 0.327568
O	 0.4057276314	-3.0353538655	 1.6669023088	-0.304425
C	 0.9965314161	-2.0986836861	-0.5868574877	 0.327567
O	 1.0867593063	-3.0144629292	-1.3540731437	-0.304424
H	 0.8463550208	 1.9874203225	 0.2137118036	 0.147058
H	-0.4555495278	 1.8727516568	-0.9874239024	 0.12641
H	-0.844746366	 1.8608157481	 0.7381102023	 0.12641
H	-0.9813378513	-0.4575336574	-0.2153482983	 0.097204
H	 1.5479663922	-0.2273844687	-1.7303094874	 0.1015
H	 2.7902578912	-0.9504940293	 0.6316071669	 0.236908
H	 0.6525195076	-0.2548397061	 2.2412527222	 0.101501
