18
gdb 115092	2.57814	1.47914	1.08519	4.207	73.97	-0.226	-0.0161	0.2099	1124.3354	0.149632	-439.131781	-439.123494	-439.12255	-439.165038	31.408	
O	-0.0848541477	 1.5270847393	-0.1943561469	-0.431104
C	 0.0306320218	 0.1312548284	-0.0780785446	-0.047023
C	-1.3465511585	-0.5752863884	 0.0383140496	-0.140813
C	-1.252371215	-2.1108414278	-0.1044660877	-0.302531
C	-1.0480937708	-2.8198798012	 1.2064278291	-0.103528
C	-1.4212710415	-2.2518488838	 2.3508990704	 0.013998
N	-1.9644986611	-0.9595490797	 2.3941476194	-0.324803
C	-1.9644648124	-0.0836939039	 1.3419069438	 0.403145
O	-2.3533597079	 1.0687551304	 1.4762962555	-0.389676
H	-0.7948421261	 1.8074777276	 0.4031355239	 0.296751
H	 0.526594929	-0.2316752644	-0.986154323	 0.103959
H	 0.6644066176	-0.1617066555	 0.7772583457	 0.091357
H	-1.9638285276	-0.1621583753	-0.7645520429	 0.116362
H	-2.1706723183	-2.489439587	-0.5760281919	 0.121853
H	-0.4445224784	-2.3561479457	-0.8045375449	 0.113488
H	-0.6377266167	-3.8219758102	 1.2150478629	 0.10139
H	-1.3332956962	-2.7345095099	 3.3164288986	 0.119539
H	-2.2727666903	-0.571758223	 3.2733688429	 0.257636
