18
gdb 38525	3.41634	1.63751	1.33695	1.7016	76.69	-0.2344	0.0053	0.2397	975.9835	0.150575	-401.919681	-401.912906	-401.911962	-401.950786	27.408	
C	 0.0679550981	 1.4621054668	-0.0447792122	-0.244962
C	 1.3035189851	 0.6434946698	-0.0339260653	-0.051038
C	 1.9934267628	 0.4356970366	 1.3063149206	 0.083904
O	 2.6728757694	 1.5306868634	 1.9033744595	-0.280962
C	 2.2578194354	 1.6185945648	 3.2719816099	-0.113711
C	 0.9649204715	 0.8351987236	 3.3436250004	-0.25509
C	 0.8253244606	 0.1445167012	 2.2194166005	 0.266306
C	-0.2476170599	-0.5145935055	 1.4130067408	-0.265594
N	-0.0469676649	-0.0014865207	 0.0231284368	-0.112141
H	-0.1600574626	 2.0476631139	 0.8429515526	 0.11824
H	-0.2760230821	 1.8951643036	-0.9788637572	 0.118366
H	 1.8624980135	 0.4809066468	-0.949652917	 0.091819
H	 2.6833005968	-0.4220376102	 1.2170007297	 0.077118
H	 3.0391720619	 1.2125971702	 3.9367202551	 0.10424
H	 2.1226460078	 2.6757402387	 3.5356079111	 0.114074
H	 0.2733306044	 0.9058107522	 4.1738640407	 0.107929
H	-0.1337939402	-1.6045775414	 1.3743611177	 0.120542
H	-1.2617664076	-0.2939056638	 1.7580476263	 0.120961
