19
gdb 110269	2.10193	1.45099	0.9642	2.527	71.84	-0.248	0.069	0.317	1227.9664	0.158082	-460.083713	-460.074644	-460.0737	-460.117975	34.406	
O	-0.1409174425	 1.2951800457	 0.9258435792	-0.436559
C	 0.0126020095	 0.2287028742	-0.0098604096	-0.12952
C	-1.3527670072	-0.4596199836	-0.1037134467	 0.040497
C	-2.0005040694	-0.8894491371	-1.4643576177	-0.152276
C	-1.0513038757	-2.1096426395	-1.4790806138	 0.151812
O	 0.2880953155	-1.8346449641	-1.8061449269	-0.432965
C	-1.5370580058	-2.0107253384	 0.0033733271	-0.181626
C	-2.951668826	-1.809481375	-0.6282491543	 0.187058
O	-4.0246408914	-1.2980099852	 0.1021822001	-0.447573
H	 0.6982779398	 1.761177391	 0.9842401896	 0.282825
H	 0.3257907404	 0.6065406094	-0.9914736755	 0.103203
H	 0.7844296141	-0.4771805866	 0.3237645944	 0.08582
H	-2.0118906539	 0.1232768982	 0.5479883613	 0.062462
H	-2.2605687681	-0.2503673962	-2.3094855624	 0.075675
H	-1.4160830953	-2.9854442002	-2.0334487831	 0.065908
H	 0.8108135497	-2.6174316348	-1.6063028538	 0.285696
H	-1.2665888808	-2.6580583562	 0.8401073801	 0.069056
H	-3.3483093996	-2.6739055819	-1.1666087802	 0.081717
H	-3.7351127832	-0.5314487299	 0.6074709923	 0.28879
