19
gdb 51564	3.75854	0.84412	0.76881	4.1366	76.86	-0.2419	-0.0158	0.2261	1489.8542	0.157579	-422.99539	-422.986295	-422.985351	-423.030542	32.559	
O	-0.4623411284	 0.4405828442	 0.3452748822	-0.241644
C	 0.0653016554	 1.5189953578	 0.2535906174	 0.165162
C	 1.459163286	 1.7612451567	-0.2866400679	-0.313365
C	 1.4544683928	 2.8181744937	-1.3782403433	-0.024868
C	 1.4498983471	 4.2927571789	-1.0387265311	-0.302841
C	 2.6669273457	 3.6764344324	-1.6763348105	-0.057283
C	 3.9442578819	 3.5379936224	-0.9067721928	 0.059486
C	 4.5754966739	 4.6833622627	-0.2346084823	-0.17663
O	 3.8826657655	 3.6821178867	 0.5153705785	-0.228595
H	-0.4659736262	 2.4462137304	 0.57197096	 0.073574
H	 2.0830680315	 2.1009037531	 0.5493267736	 0.152038
H	 1.8587016701	 0.8071155232	-0.6444912365	 0.117163
H	 0.8715451912	 2.5394372976	-2.2525639062	 0.096949
H	 0.834606557	 4.964562005	-1.626055869	 0.114921
H	 1.5419929064	 4.5562736606	 0.0097272913	 0.132439
H	 2.8346195007	 3.8924169084	-2.7287604512	 0.095536
H	 4.5990574803	 2.727724614	-1.232438401	 0.098792
H	 5.654484901	 4.7044855861	-0.0923354512	 0.119868
H	 4.084905368	 5.6542757262	-0.2733501998	 0.119299
