16
gdb 8697	2.4553	1.74631	1.39207	1.3297	62.29	-0.2514	0.0246	0.2759	954.5765	0.127527	-420.824845	-420.815716	-420.814772	-420.858162	33.624	
O	 0.0739522671	 1.4542513327	 0.003333701	-0.418017
C	 0.0124901142	 0.042991978	-0.0066993938	-0.108112
C	-1.4392491475	-0.5034010922	 0.0009465272	 0.115683
O	-1.392793138	-1.9214037842	-0.0210927257	-0.458717
C	-2.200696359	-0.0360515215	 1.2663850553	-0.111173
O	-1.702692003	-0.718873579	 2.4116066939	-0.430244
C	-2.1329008994	-0.0083437911	-1.1903905003	 0.331578
C	-2.6678437006	 0.475496836	-2.152709073	-0.464128
H	-0.363362043	 1.7622449213	-0.7997759363	 0.28919
H	 0.5356598495	-0.3995058715	-0.8643916587	 0.112358
H	 0.5185306615	-0.301241698	 0.9019338264	 0.094892
H	-1.3379483331	-2.1786543332	 0.9112444625	 0.291335
H	-2.1230816197	 1.0508849822	 1.3662855493	 0.12262
H	-3.2524252638	-0.3167532991	 1.1720879217	 0.127823
H	-0.9201879388	-0.2546842892	 2.7255237554	 0.299861
H	-3.1592708565	 0.8702256987	-3.0080976951	 0.205052
