15
gdb 108742	3.69678	1.22934	0.93019	4.0893	77.94	-0.2267	-0.0677	0.159	1197.6586	0.113377	-454.003722	-453.995409	-453.994465	-454.03729	29.884	
C	 0.001617857	 1.4757370273	 0.0488733459	-0.3442
N	-0.0742306585	 0.031341544	-0.1303197292	-0.396598
C	-1.1923199801	-0.7270570084	-0.0466483952	 0.266808
C	-1.3270367721	-2.073905481	 0.0535704176	-0.328545
C	-2.7345693459	-2.4025030259	 0.0541925138	 0.422433
N	-3.2910206836	-3.533230936	 0.1347960224	-0.535038
O	-3.4613903859	-1.2004356361	-0.0482899695	-0.226964
C	-2.583550811	-0.1556553959	-0.1196467663	 0.413495
O	-2.9433170492	 0.9829487658	-0.2239307808	-0.335899
H	 0.8839589831	 1.8468564531	-0.4783629044	 0.132004
H	-0.8884208734	 1.9439202191	-0.3654243469	 0.18915
H	 0.0827191155	 1.7591830313	 1.1070274059	 0.129832
H	 0.7915905471	-0.4708492612	-0.0077805738	 0.254093
H	-0.5552798453	-2.8248462286	 0.1243875945	 0.123869
H	-4.3070065577	-3.4394152275	 0.114150996	 0.235562
