18
gdb 54038	2.16837	1.62671	0.97299	2.9365	75.63	-0.2461	-0.0058	0.2403	1192.9361	0.148357	-435.285051	-435.276039	-435.275095	-435.31927	33.407	
N	-0.1296668227	 1.2898532588	 0.659760335	-0.564681
C	 0.0082613313	-0.0271890425	 0.2368430958	 0.452823
O	 1.093997291	-0.5548202935	 0.1360393663	-0.37129
N	-1.1915143154	-0.6799772927	-0.1060959384	-0.128258
C	-2.4092714576	-0.0066606523	-0.1571854322	 0.057003
N	-3.5249414823	-0.6177775117	-0.1535788525	-0.44555
C	-1.1795071788	-2.1200612613	-0.2499540088	 0.05269
C	-1.7412526238	-2.7322896511	-1.5032336429	-0.253891
C	-0.2600802557	-2.765194676	-1.2496476885	-0.258224
H	 0.752964483	 1.6529218695	 0.9896688047	 0.26483
H	-0.9107757476	 1.5242032612	 1.2530318271	 0.257854
H	-2.2875937261	 1.0760429356	-0.2389943206	 0.116035
H	-4.2845781948	 0.0548088624	-0.2445663664	 0.226182
H	-1.362452915	-2.6485503365	 0.6808238196	 0.104863
H	-2.3263006007	-3.6373917811	-1.3907738184	 0.117565
H	-2.1112870297	-2.0540892218	-2.2620915862	 0.121551
H	 0.3749532261	-2.1100826951	-1.8301433141	 0.134018
H	 0.2096203087	-3.6967742716	-0.9552259296	 0.11648
