18
gdb 131819	5.64016	0.68665	0.6602	4.2822	73.76	-0.2606	0.0104	0.271	1678.0978	0.14943	-435.282769	-435.273924	-435.27298	-435.317965	30.752	
O	-0.1024859048	 1.453645436	-0.1056666294	-0.416574
C	-0.0176065553	 0.0553361773	 0.1055552971	-0.071515
C	-1.4229791672	-0.5151524034	-0.0405684271	-0.173225
C	-1.4495383128	-2.0343085287	 0.1430035164	-0.16887
N	-2.7940625442	-2.5782031131	 0.0581586714	 0.056622
C	-3.3652652435	-3.3177825165	-0.9141527801	 0.012974
N	-4.6243104871	-3.5856307669	-0.6177202619	-0.277393
C	-4.7768736912	-2.9648262594	 0.5829188695	 0.039502
N	-3.7010650622	-2.3406233525	 1.0369367199	-0.253401
H	 0.7744149611	 1.8312080288	 0.0088589571	 0.289096
H	 0.6590950939	-0.4195660912	-0.625150525	 0.084595
H	 0.3755201468	-0.1767911224	 1.1091459078	 0.091397
H	-2.0808938141	-0.0526322768	 0.7007851678	 0.142262
H	-1.8139272011	-0.2537953866	-1.0299939167	 0.117517
H	-0.8520657316	-2.534628277	-0.6257354735	 0.123114
H	-1.0388095257	-2.3128116221	 1.118715922	 0.136139
H	-2.8321444494	-3.6333536088	-1.7987495979	 0.140655
H	-5.7017559817	-2.9753956766	 1.1401610827	 0.127106
