22
gdb 117942	2.8228	0.79723	0.66939	3.9805	80.82	-0.2535	0.0233	0.2768	1765.9514	0.192318	-441.527671	-441.516474	-441.51553	-441.565194	39.078	
C	 0.0307220388	 1.5807343922	 0.0183030537	-0.384551
C	 0.0150682086	 0.0502855421	 0.0301056352	-0.162602
C	-1.3995799962	-0.532580926	-0.0377537541	-0.173571
C	-1.4058675094	-2.0717272223	 0.0418015661	 0.01721
O	-0.7916775944	-2.5203451264	 1.2219763123	-0.435886
C	-2.8422218685	-2.6229218799	 0.0115162633	 0.393478
O	-3.3192806295	-3.1196369981	 1.0236830803	-0.397673
N	-3.5111218709	-2.5111916779	-1.1602480704	-0.308309
C	-4.8800507797	-2.9598869283	-1.3383220998	-0.336961
H	 1.0533015271	 1.9673873599	 0.0700458198	 0.113424
H	-0.4296295888	 1.9796550986	-0.8930673603	 0.10767
H	-0.5221246572	 1.9886016066	 0.871829927	 0.116195
H	 0.6040111256	-0.3314373353	-0.8150930926	 0.088315
H	 0.499162746	-0.3258354661	 0.9367059659	 0.125407
H	-2.0023607052	-0.1465698333	 0.7946110303	 0.10503
H	-1.8941706067	-0.2074746844	-0.9637326465	 0.075641
H	-0.8549065621	-2.4740106271	-0.8246633877	 0.076353
H	-1.520598446	-2.9020273481	 1.7419808604	 0.291925
H	-3.0270616579	-2.1114252933	-1.9473779547	 0.252211
H	-5.2158112492	-3.3697745354	-0.3856146232	 0.174983
H	-5.5360701679	-2.130120405	-1.6227785613	 0.130742
H	-4.9450409163	-3.7387566023	-2.1056388138	 0.130971
