19
gdb 90957	2.68355	1.68202	1.40674	2.8904	74.5	-0.2237	0.0688	0.2924	995.1204	0.159296	-422.974959	-422.967138	-422.966194	-423.006899	31.329	
C	 0.0723902506	 1.49062642	-0.1404400545	-0.523696
C	 0.0095602742	 0.0040683859	 0.007214682	 0.439042
O	 0.6157092125	-0.8475944101	-1.0409574523	-0.355188
C	 0.0548271862	-1.7842508959	-0.0627488764	 0.032884
C	 0.5863228732	-0.9323588923	 1.1215432028	-0.073608
C	-0.3945972465	-1.0236805458	 2.2826067442	-0.287325
C	-1.7489839355	-0.9732525813	 1.502219316	 0.089434
O	-2.4988667629	 0.2136712093	 1.7352190436	-0.437836
C	-1.238251714	-0.9361804708	 0.0725149679	-0.072203
H	 1.1088855362	 1.8415697561	-0.1260364601	 0.125731
H	-0.3849226879	 1.7973084186	-1.0861395548	 0.133221
H	-0.4797143399	 1.9623154358	 0.6770121359	 0.139903
H	 0.166775186	-2.8513902017	-0.2577684134	 0.086295
H	 1.661179629	-0.9127012902	 1.3001193611	 0.074192
H	-0.2735087155	-1.9470406738	 2.8589707809	 0.098956
H	-0.3189555542	-0.1789190418	 2.9747689658	 0.100517
H	-2.3686216448	-1.8596019096	 1.6996751983	 0.06693
H	-2.8154052888	 0.1943525584	 2.6438595771	 0.283657
H	-1.9497762878	-0.9190629309	-0.7516270642	 0.079093
