20
gdb 73467	2.80032	1.82529	1.55436	0.7839	77.44	-0.2201	0.0862	0.3064	956.0932	0.17376	-403.146015	-403.138717	-403.137773	-403.177277	29.91	
C	 0.0123031564	 1.4879577499	-0.045057075	-0.469818
C	-0.0003709125	-0.0216161381	 0.0258441774	 0.293665
C	-1.245787527	-0.6632105154	-0.5720479574	-0.133385
O	-1.2802124695	-2.0831054552	-0.4648420001	-0.277102
C	-0.0455412965	-2.6368343565	-0.0205468953	 0.084755
C	 0.242652267	-2.1486155492	 1.4091796311	-0.244521
C	 0.7097080426	-0.7313507429	 1.1250394958	-0.081117
N	 1.3026571475	-0.670395186	-0.2443568501	-0.158073
C	 1.1186973431	-2.0238519675	-0.8134116386	-0.180493
H	 0.9646727193	 1.8744873132	 0.3250383168	 0.131037
H	-0.1111336894	 1.8321903586	-1.078329208	 0.119732
H	-0.7971929375	 1.9184335216	 0.5550260697	 0.115831
H	-2.1407836177	-0.2624072931	-0.0769579203	 0.10552
H	-1.314406747	-0.3767228315	-1.6341634054	 0.098762
H	-0.1451512997	-3.7192237787	-0.1177980273	 0.08059
H	-0.6511711045	-2.2065258183	 2.0356440322	 0.110937
H	 1.0403209572	-2.731173807	 1.8843428761	 0.102912
H	 1.2257694553	-0.1653763784	 1.8952289219	 0.08338
H	 2.0469771151	-2.5881526473	-0.6731497269	 0.10562
H	 0.9043968477	-1.9724036581	-1.8849275565	 0.111769
