20
gdb 112870	3.25342	1.10649	0.88321	5.1868	76.06	-0.2497	0.0229	0.2727	1336.6997	0.172431	-440.342438	-440.333546	-440.332602	-440.376123	33.723	
C	-0.0764652973	 1.5720908325	 0.0574432167	-0.401327
C	 0.0578132055	 0.0531645409	 0.0192087487	 0.051439
C	 0.8038918855	-0.4924000257	-1.2229005374	-0.248949
C	 1.5244779938	-1.7561981842	-0.7273039066	-0.138407
C	 2.869507069	-2.0847678843	-1.3903610067	-0.064947
O	 3.4399375414	-3.2555291374	-0.8573516842	-0.427938
C	 1.7029394692	-1.495292906	 0.771058129	 0.436307
O	 2.452632626	-2.0951083294	 1.5254769432	-0.411006
N	 0.883203045	-0.4642098309	 1.1076610796	-0.317302
H	 0.9085794132	 2.0478883471	 0.0216974983	 0.127598
H	-0.6619239278	 1.9206534927	-0.799112731	 0.127513
H	-0.587983167	 1.9067008217	 0.9662674817	 0.119019
H	-0.9477995055	-0.3918893408	 0.0694403734	 0.086057
H	 0.1253570733	-0.6754244446	-2.0585702651	 0.112511
H	 1.5427489732	 0.2501600195	-1.5492143221	 0.109593
H	 0.8799971002	-2.640250279	-0.8205059554	 0.109081
H	 2.725940384	-2.2502763591	-2.4643855646	 0.101443
H	 3.5397298517	-1.2130579374	-1.2835751254	 0.081275
H	 3.4226074698	-3.1398300298	 0.1064283904	 0.297068
H	 0.7698791667	-0.1881205659	 2.0710232777	 0.250973
