16
gdb 11231	4.1993	1.43149	1.30873	3.5588	68.41	-0.2283	-0.0253	0.203	983.6426	0.12892	-383.752119	-383.744194	-383.74325	-383.784911	28.056	
C	-0.077632938	 1.4943533031	 0.0463700727	-0.494634
C	 0.0124058651	 0.0045294321	 0.0062501205	 0.313327
C	-0.0919829522	-0.8157941715	-1.0371167063	-0.230167
C	 0.0233013828	-2.2487086242	-0.5663850533	-0.008265
O	 0.3688063239	-2.1658155273	 0.7995923512	-0.250894
C	 0.2398319441	-0.8205415493	 1.2491813014	-0.150768
C	-1.3061895367	-2.9763075793	-0.7834605808	 0.152488
O	-2.0753131036	-3.2734879998	 0.0883680152	-0.233207
H	 0.845995946	 1.9362566134	 0.4400388549	 0.134701
H	-0.2620090766	 1.9142600006	-0.9452611098	 0.132207
H	-0.8878761402	 1.8192314148	 0.7108728059	 0.137831
H	-0.2706950049	-0.5383925466	-2.0679421243	 0.107953
H	 0.7984144138	-2.8137919527	-1.1126097576	 0.099746
H	 1.1552677659	-0.5318823781	 1.7863570776	 0.108086
H	-0.5994488375	-0.7274932612	 1.9568743517	 0.115797
H	-1.5173604919	-3.196586424	-1.8580631991	 0.065798
