19
gdb 107443	2.75006	1.43851	1.28859	1.9973	73.72	-0.2334	0.0597	0.2932	1068.1456	0.15955	-422.979993	-422.971954	-422.97101	-423.012578	31.614	
O	 0.1131749219	 1.3945631136	 0.3212961229	-0.415612
C	-0.0132199951	 0.0430385089	-0.0975521542	-0.177483
C	-1.4301164759	-0.482978491	-0.040683732	 0.304844
C	-1.9282565725	-1.4281572358	-1.1227869367	-0.386442
C	-2.5017022409	-0.0385467876	-1.0047351989	 0.076389
O	-3.7186620923	 0.1456777366	-0.3217972911	-0.26104
C	-3.5315789103	-0.0425918464	 1.0601511746	 0.114201
C	-3.2877561498	-1.4350865063	 1.5792481293	-0.337426
C	-2.118950431	-0.5027702462	 1.3137928579	-0.151782
H	-0.1244534292	 1.445714569	 1.2519462281	 0.285077
H	 0.3406445914	 0.0254679339	-1.1331319728	 0.108082
H	 0.6539650152	-0.6156058767	 0.481582986	 0.091811
H	-1.2552774686	-1.6064563489	-1.9564109947	 0.112025
H	-2.5421732402	-2.2811486899	-0.8624051689	 0.117903
H	-2.3437444402	 0.6938366636	-1.7892026634	 0.107071
H	-4.0641805773	 0.6869154189	 1.6609938627	 0.100671
H	-3.5337851661	-1.6140512262	 2.6212010154	 0.11342
H	-3.467217108	-2.2833725509	 0.930570526	 0.122685
H	-1.5465676311	-0.1487173987	 2.1648750898	 0.075607
