17
gdb 126104	6.63524	0.64865	0.59523	2.2901	88.58	-0.2142	0.0082	0.2224	1837.9887	0.137535	-380.875972	-380.867232	-380.866288	-380.911104	31.156	
C	 0.0720966483	 1.5549085466	 0.0095088101	-0.364143
C	 0.00234323	 0.0167276993	 0.0025757972	-0.326852
C	-1.3639706448	-0.4927588809	 0.0120179817	 0.213039
C	-2.5022924048	-0.8947085044	 0.019963671	-0.126588
C	-3.8245440889	-1.3942260958	 0.0296207921	 0.126011
C	-5.012340994	-0.6755763739	 0.0413027817	-0.167245
N	-6.010705082	-1.58630404	 0.04717375	-0.177482
N	-5.5733441626	-2.8615994986	 0.0401286658	-0.208248
C	-4.2524464246	-2.7519517035	 0.0294327046	-0.129453
H	 1.1138501242	 1.8889542145	 0.002014889	 0.114462
H	-0.4297369351	 1.9705357222	-0.8685296363	 0.127506
H	-0.4142411001	 1.96186909	 0.9002360657	 0.127515
H	 0.5301440643	-0.3685839062	-0.8799605695	 0.129042
H	 0.5454073486	-0.3772070776	 0.8719430462	 0.129051
H	-5.1981554419	 0.3861206473	 0.0456260726	 0.139117
H	-7.0012115709	-1.4119697403	 0.0558929513	 0.278201
H	-3.6318042757	-3.6351668987	 0.0218386868	 0.116066
