16
gdb 3597	5.65801	1.70571	1.46835	2.6024	61.29	-0.2467	0.0728	0.3195	851.6809	0.13652	-325.725069	-325.717869	-325.716925	-325.756657	26.014	
C	-0.4521897645	 1.420874791	 0.2381948831	-0.392968
C	-0.0152432434	-0.0227863779	 0.1533358954	 0.001765
N	 1.2854992564	-0.3002346595	-0.4725494481	-0.34241
C	 1.0955728296	-0.6147288942	 0.9543360893	-0.04134
C	 1.9221302231	 0.1548689355	 1.9298506702	 0.095016
C	 1.8523494266	-0.1180154373	 3.3712721544	-0.182099
O	 2.9548054198	-0.5845135513	 2.594459979	-0.236987
H	 0.3962057245	 2.0838836316	 0.4209702607	 0.127921
H	-0.9211773605	 1.7331732868	-0.7009269407	 0.122031
H	-1.1828053913	 1.5608875888	 1.0421991996	 0.117228
H	-0.8250806468	-0.7161490299	-0.0741087342	 0.08349
H	 1.2535620266	-1.1461967963	-1.0340396303	 0.233956
H	 0.9877729506	-1.6619119068	 1.2341423253	 0.08764
H	 2.2283953148	 1.1468557832	 1.6024752055	 0.102622
H	 2.0778517715	 0.6737349919	 4.0845982665	 0.114587
H	 1.179076593	-0.8920783958	 3.7393117144	 0.109547
