21
gdb 77657	2.07826	1.38038	1.24494	3.5025	85.76	-0.2372	-0.0156	0.2217	1189.3739	0.181073	-387.089849	-387.08042	-387.079476	-387.123649	35.46	
C	-0.0105170894	 1.5577324074	 0.0121863806	-0.422521
C	 0.1072057089	 0.0500246771	-0.077577591	-0.117369
C	 0.6890359841	-0.7290621342	-1.2066638791	 0.284363
C	-0.0328945254	-1.8550374377	-1.8927424123	-0.49161
C	 1.9234403942	-0.0303419858	-1.8011488022	-0.282174
C	 2.6135912659	-0.014270371	-0.4026211376	-0.302471
C	 1.3972127462	-0.7090994011	 0.2073044445	 0.221071
C	 1.4573839929	-1.802432709	 1.1761948386	 0.05308
O	 2.4725251353	-2.2013057319	 1.7029638434	-0.277752
H	 0.8494101288	 2.0719871344	-0.4224743176	 0.126623
H	-0.905110955	 1.9023462555	-0.5177140149	 0.122421
H	-0.0962078849	 1.8774101917	 1.0558194009	 0.126249
H	-0.7497576102	-0.465772762	 0.3569233131	 0.090008
H	-0.5920745374	-1.4764705032	-2.7578564885	 0.126543
H	 0.6647130998	-2.6157096771	-2.2596319893	 0.125939
H	-0.7507889433	-2.3447708371	-1.2280314118	 0.123101
H	 2.4492248182	-0.6693236892	-2.5142900203	 0.108824
H	 1.7397400867	 0.9371119886	-2.2790433454	 0.100625
H	 3.4981077532	-0.6507957421	-0.3571835767	 0.127583
H	 2.8701013045	 0.9643847664	 0.0127215287	 0.102156
H	 0.472350267	-2.2774269298	 1.3989313569	 0.05531
