12
gdb 130380	7.14568	0.86113	0.77572	8.1861	63.75	-0.2478	-0.043	0.2048	1346.6839	0.077739	-505.970009	-505.962331	-505.961387	-506.002743	27.059	
N	 0.092267096	 1.3683896786	-0.0099256123	-0.478974
C	 0.1029651576	 0.0334406275	 0.0962794219	 0.149909
N	 1.1650879365	-0.6566251596	-0.1546318381	-0.34922
C	 1.042341522	-2.0067822182	-0.1550009833	 0.495059
N	 0.0095088734	-2.7250552521	-0.4558211841	-0.224648
O	 0.4676540004	-4.0676847818	-0.3056709022	-0.23383
C	 1.7722199662	-4.055311905	 0.056092534	 0.51001
O	 2.4700407517	-4.9933799722	 0.2572378035	-0.365882
O	 2.1514947283	-2.7309850072	 0.1521198604	-0.225276
H	 0.9300857845	 1.8502833295	-0.29587098	 0.284705
H	-0.7124353814	 1.9059064236	 0.2571086463	 0.284066
H	-0.8427146952	-0.4172977132	 0.4094395339	 0.154079
