16
gdb 105561	2.09018	1.44821	1.22539	3.7248	70.48	-0.2801	-0.0596	0.2205	1114.7563	0.121747	-437.892186	-437.883094	-437.882149	-437.926493	31.962	
C	 0.0490604916	 1.5533981211	 0.1709165917	-0.401409
C	-0.2458314768	 0.0796075154	-0.1198302518	-0.219721
C	 0.633136476	-0.4930620023	-1.2350257192	 0.129154
O	 2.0440037038	-0.5156563768	-0.8978251116	-0.303708
C	 2.1683526745	-1.9518758532	-0.9935482009	-0.190344
C	 0.6783969534	-2.0558762333	-1.3169269056	 0.313789
O	-0.1212212945	-2.9129264781	-1.4989782632	-0.251348
C	 0.4019089338	 0.1575712985	-2.527430543	 0.283374
N	 0.2109962062	 0.6515215045	-3.554953424	-0.328297
H	 1.0979240874	 1.6894063791	 0.4476244843	 0.142972
H	-0.1586208787	 2.1784974873	-0.7025343124	 0.145413
H	-0.5725368016	 1.9074658528	 0.9975956809	 0.126447
H	-0.0743295641	-0.5280707631	 0.7755489786	 0.115085
H	-1.2916911718	-0.06485671	-0.4131164571	 0.136028
H	 2.8339867916	-2.2681492101	-1.8059034917	 0.154272
H	 2.4860952992	-2.4184395517	-0.0540915448	 0.148293
