16
gdb 54489	2.57187	1.59165	1.11328	2.4073	70.48	-0.2506	-0.029	0.2216	1073.0131	0.123011	-437.901534	-437.893118	-437.892174	-437.935092	30.749	
C	 0.1367018685	 1.2987744094	-0.5798918153	-0.49477
C	 0.0117498293	 0.0206976796	 0.2182143827	 0.298077
O	 0.8800968694	-0.3877797212	 0.9597529076	-0.318967
C	-1.256536671	-0.7377686447	 0.0356637189	 0.055606
C	-1.7239942888	-1.7682655776	 1.0856464148	-0.31619
C	-1.4228803106	-2.234823742	-0.2853096251	-0.027635
N	-2.4804423976	-1.8937367691	-1.2390760812	-0.346909
C	-2.4146294661	-0.521500538	-0.9316402975	 0.362646
O	-3.0493653952	 0.4182045815	-1.3187839624	-0.343463
H	 1.029842174	 1.8428457085	-0.2718022916	 0.1401
H	 0.2052460193	 1.0571084033	-1.6477198886	 0.150854
H	-0.7599414366	 1.9151718458	-0.4623964246	 0.162218
H	-0.9656280843	-1.9511693463	 1.8409178989	 0.159091
H	-2.7509257211	-1.7269141296	 1.4351014152	 0.131523
H	-0.6260332544	-2.9141871021	-0.5564684914	 0.13773
H	-3.3501474948	-2.4069314675	-1.3286673404	 0.250087
