16
gdb 30395	3.9387	1.11676	0.87484	4.0362	79.78	-0.2049	-0.0231	0.1818	1274.1044	0.124125	-437.910484	-437.902107	-437.901162	-437.943852	30.802	
C	-0.0467504854	 1.4458810956	-0.0363010403	-0.319993
N	-0.0112621502	-0.0054991823	-0.0274883735	-0.317497
C	 0.5724326871	-0.6052834113	 0.9490499839	 0.318583
C	 1.2359228176	 0.0200637362	 2.104491403	-0.238402
C	 1.8085873019	-0.7211948948	 3.0571490033	 0.049186
O	 1.8286146476	-2.0874908488	 3.0441215692	-0.244161
C	 1.22589463	-2.7078749994	 1.992176855	 0.476288
O	 1.3133717513	-4.0422220015	 2.0950243067	-0.409774
C	 0.6228979026	-2.0592722965	 0.9840578924	-0.331732
H	 0.95675699	 1.8981730263	-0.0737670135	 0.106202
H	-0.5874455251	 1.7834077508	-0.924918554	 0.117458
H	-0.5628606908	 1.8685748967	 0.8400580815	 0.105728
H	 1.2731271419	 1.0963485627	 2.2043380272	 0.116374
H	 2.3148141969	-0.3413252017	 3.9348020842	 0.140721
H	 1.7922864283	-4.2519787624	 2.9061971076	 0.308916
H	 0.1663066263	-2.6248506795	 0.1837262271	 0.122103
