16
gdb 75784	2.47087	1.28997	1.19897	2.9986	66.	-0.2551	-0.0406	0.2145	1105.0103	0.120822	-475.042521	-475.032925	-475.031981	-475.077535	33.506	
C	 0.1289620348	 1.6224260568	-0.1470004219	-0.441524
C	 0.0111539463	 0.1054913385	-0.0467355972	 0.210063
N	 1.0434378324	-0.6637951353	-0.7853041732	-0.385176
C	 1.674069431	-1.1388733231	 0.3416622546	 0.411858
O	 2.7150155495	-1.7085433287	 0.5307208428	-0.363234
C	 0.57643218	-0.5456147009	 1.2596722089	-0.074822
O	 1.0488457988	 0.3599102609	 2.2213063166	-0.427522
C	-1.3853245464	-0.354106828	-0.4398626117	 0.132878
O	-2.2405200559	-0.6799465776	 0.3390404229	-0.235923
H	 1.1361406879	 1.9387256926	 0.1307052346	 0.14383
H	-0.0856913846	 1.9642265357	-1.1654488889	 0.119398
H	-0.580231676	 2.1004338173	 0.5343024431	 0.153261
H	 1.3939341148	-0.5609562245	-1.7284052987	 0.254135
H	-0.1136667367	-1.2824616472	 1.6859103584	 0.117936
H	 1.8591583582	-0.0115248018	 2.5898059257	 0.304784
H	-1.5630421242	-0.3656036046	-1.5409420661	 0.080056
