20
gdb 8112	3.06328	1.84595	1.45167	1.5996	75.33	-0.2364	0.0757	0.3121	965.9186	0.176337	-348.979917	-348.971412	-348.970468	-349.01203	32.836	
C	-0.2985708192	 1.5699280976	 0.0941690507	-0.41318
C	 0.0224472633	 0.0794834072	 0.0579537702	 0.053339
C	 1.1413545311	-0.4608306605	-0.8922145192	-0.303214
C	 1.7796683497	-1.2154941969	 0.2872470097	 0.284112
C	 2.3168461853	-2.6168685012	 0.2085295235	-0.496675
C	 2.1826451317	-0.2283876309	 1.3411845186	 0.059686
O	 2.6345889483	 1.0718532257	 1.0660155295	-0.417151
C	 0.7330660288	-0.5796936733	 1.2501700177	-0.155524
H	 0.6012866953	 2.1608548133	 0.2724281207	 0.140884
H	-0.7486103695	 1.8923332209	-0.8521772405	 0.102019
H	-1.0163856026	 1.7928842471	 0.8920464755	 0.105999
H	-0.8970957498	-0.4807687213	-0.1435349786	 0.070015
H	 0.7599601516	-1.1235343995	-1.6727203967	 0.094479
H	 1.7783795377	 0.2991736207	-1.355152241	 0.087929
H	 3.2203106813	-2.6636630257	-0.413152272	 0.114873
H	 2.5784787495	-3.0003606407	 1.2004664689	 0.116126
H	 1.5833655593	-3.3033702979	-0.2304148177	 0.117127
H	 2.6778780323	-0.6892123668	 2.1987667085	 0.079324
H	 3.5095626452	 1.0019804281	 0.6693214437	 0.283467
H	 0.2217576508	-1.025298406	 2.0978128183	 0.076366
