18
gdb 15672	3.26565	1.65641	1.21268	1.0624	68.65	-0.2506	0.0114	0.262	999.5175	0.154251	-384.94034	-384.932192	-384.931247	-384.972973	30.461	
O	-0.2977782151	 1.5516422512	 0.1533167637	-0.426183
C	-0.0880428146	 0.1629686218	 0.3829109204	-0.085909
C	-1.3238762762	-0.5721640818	-0.1090549962	-0.00594
C	-1.6188905933	-0.4058875477	-1.6222267743	-0.262832
C	-2.1697731109	-1.7551107697	-2.0131409307	-0.064019
C	-2.0336024288	-2.6638932282	-1.0465237597	-0.112417
C	-1.2892064183	-2.1093735936	 0.1442630947	 0.068409
O	 0.0271182068	-2.6690090429	 0.2441304989	-0.431293
H	 0.4955713123	 2.0218645341	 0.4252003955	 0.285298
H	 0.8014654936	-0.1992849274	-0.1534942771	 0.079348
H	 0.0731720901	-0.0478380236	 1.4511348557	 0.091798
H	-2.1837933611	-0.1739708191	 0.4416209337	 0.086878
H	-2.3220567171	 0.4102140818	-1.8154829404	 0.11736
H	-0.7151609771	-0.1632475763	-2.1990546221	 0.105118
H	-2.6146386483	-1.9431617322	-2.9851909701	 0.096654
H	-2.3299899094	-3.7053541625	-1.1032153374	 0.096722
H	-1.753323776	-2.3593855578	 1.1037508723	 0.085988
H	 0.3797402833	-2.7260598859	-0.6509067768	 0.275021
