18
gdb 9953	3.21	1.41979	1.33065	1.9116	63.56	-0.2361	0.0512	0.2873	1008.284	0.151446	-422.044159	-422.034815	-422.03387	-422.077751	34.077	
C	-0.0187518235	 1.5746733637	 0.1685457137	-0.483233
C	-0.0447440253	 0.0633108314	 0.0819190366	 0.225385
C	-1.31161836	-0.5389629969	-0.4916720067	-0.137022
O	-1.5168740154	-0.2238690333	-1.8644443729	-0.420329
C	 1.2387309747	-0.6899872341	-0.2356505442	-0.006489
O	 2.4605472997	-0.0033066099	-0.3013207309	-0.432416
C	 0.6717969976	-0.7463179812	 1.1578975398	 0.061883
O	 1.3790321525	-0.0961512722	 2.1649629677	-0.4351
H	 0.8290321117	 1.9252614269	 0.7584937516	 0.131906
H	 0.038340101	 2.0392284021	-0.8239900915	 0.103208
H	-0.9282740688	 1.9432518778	 0.6569364031	 0.121279
H	-1.263054836	-1.6325559156	-0.4488694408	 0.105165
H	-2.1756616053	-0.2304055113	 0.1185540837	 0.091825
H	-1.7241726749	 0.713600269	-1.9228189097	 0.284834
H	 1.1774871106	-1.5620904896	-0.8843660985	 0.09658
H	 2.4279912548	 0.6222720837	-1.0321073216	 0.298996
H	 0.2064113669	-1.6664717087	 1.5026671191	 0.095653
H	 2.2251408397	 0.1622799783	 1.7735526314	 0.297876
