22
gdb 112793	2.06692	1.25955	0.86107	2.5817	83.64	-0.2115	-0.0294	0.1821	1419.5699	0.191897	-404.331535	-404.321226	-404.320281	-404.367537	36.714	
C	 0.3886823812	 2.0307733447	-0.2257875686	-0.387716
C	 0.3062606862	 0.5217491181	 0.0290094277	-0.203023
C	 0.8828163049	-0.2908000264	-1.1230414979	 0.018827
C	 2.418145964	-0.344446826	-1.337196173	-0.187981
N	 2.2906211923	-1.7733159602	-1.6515121454	-0.063225
C	 3.3556816217	-2.7043746143	-1.3455786188	-0.333538
C	 0.9503595851	-1.8620305409	-1.0394657563	-0.105582
C	 0.8853252245	-2.3860528205	 0.3796833547	 0.147968
O	-0.0296356062	-3.0428086275	 0.810918576	-0.252759
H	 1.4263992749	 2.3566957555	-0.3560603028	 0.12061
H	-0.1618520986	 2.3085811862	-1.1313109237	 0.118823
H	-0.0346188178	 2.5962763661	 0.6094925622	 0.118238
H	 0.831924581	 0.2820471808	 0.9616114214	 0.098922
H	-0.7397610988	 0.2299289882	 0.1858266799	 0.113179
H	 0.3801153488	-0.018517466	-2.0555741795	 0.093732
H	 2.8533577973	 0.2652425619	-2.1375331078	 0.102243
H	 2.9737304565	-0.1390928613	-0.4046892231	 0.081644
H	 3.7320973233	-2.6488691325	-0.3089478686	 0.098504
H	 3.0112173716	-3.7275045443	-1.5292151926	 0.129891
H	 4.2032656448	-2.5152453487	-2.0140084284	 0.125408
H	 0.2098033046	-2.4121221283	-1.6314570186	 0.089187
H	 1.7500162087	-2.1198470346	 1.0295656334	 0.076649
