16
gdb 75979	2.0808	1.94191	1.11531	4.7408	66.59	-0.2476	-0.0308	0.2168	1054.6579	0.12433	-475.049681	-475.041712	-475.040768	-475.082457	30.161	
O	 0.5524852866	 0.2685892926	-0.9655922798	-0.418522
C	-0.0846620107	-0.4452018289	 0.0329407341	-0.039064
C	 0.602443571	-0.286338632	 1.3827305201	 0.371028
N	 1.6605936484	 0.4022417158	 1.4451791725	-0.544224
O	 0.0166426764	-0.8755600234	 2.4494320614	-0.237541
C	-1.2142774829	-1.5846667611	 2.2137821735	-0.103039
C	-2.2099062119	-0.7298626184	 1.433799875	-0.328697
C	-1.5736789509	-0.0834424334	 0.2009698311	 0.363952
O	-2.1700600556	 0.6353128893	-0.5520227158	-0.282001
H	 1.2993885004	 0.7120778721	-0.5282368213	 0.302456
H	-0.0837794205	-1.5291938794	-0.202658212	 0.11614
H	 2.0341830799	 0.4592443739	 2.3914402768	 0.235241
H	-0.9961696777	-2.5244609785	 1.6916577626	 0.126638
H	-1.5903899733	-1.8336443259	 3.2071722	 0.136992
H	-3.0726347352	-1.3283292402	 1.1232047427	 0.146362
H	-2.5952847638	 0.0811500875	 2.0617720892	 0.154277
