23
gdb 119002	3.60886	0.87618	0.8578	1.2677	81.38	-0.2462	0.0709	0.3171	1506.9731	0.205614	-425.438378	-425.428541	-425.427597	-425.473438	36.84	
C	-0.3285392396	 1.5893234994	-0.0316259759	-0.383067
C	-0.1084221655	 0.0749741943	 0.0056551834	-0.172681
C	 0.7447823251	-0.4264828283	-1.1665714807	-0.219934
C	 0.9068764203	-1.9431047944	-1.2209140639	 0.399291
O	-0.3996270915	-2.507153734	-1.3477674053	-0.483158
C	 1.8153470285	-2.4448659269	-2.3773913145	-0.294088
C	 2.4814418019	-3.7157360245	-1.7918595061	-0.089166
O	 1.9289773042	-3.8923537568	-0.4824146624	-0.265638
C	 1.6099686112	-2.5873653589	-0.0149446343	-0.136827
H	 0.6221731012	 2.1332129254	 0.0104769123	 0.109817
H	-0.8396975116	 1.8913545306	-0.9526039641	 0.114996
H	-0.9398580301	 1.9236325961	 0.8124041309	 0.111
H	 0.3716707996	-0.1978213289	 0.954615545	 0.091635
H	-1.0704010836	-0.4463104732	-0.0145825606	 0.119951
H	 0.289573536	-0.1006774549	-2.1106019788	 0.103255
H	 1.7418884392	 0.0303877015	-1.1268314483	 0.088966
H	-0.3044773405	-3.4543581844	-1.1890396737	 0.282051
H	 1.2039186608	-2.6489002484	-3.2582682276	 0.11562
H	 2.5639266787	-1.695083146	-2.6477676468	 0.101389
H	 2.2765948802	-4.626206217	-2.360802095	 0.110987
H	 3.5722012687	-3.5946896733	-1.7222116484	 0.097019
H	 2.5194751951	-2.0296679592	 0.265438523	 0.083601
H	 0.9629764117	-2.6871195881	 0.8587071616	 0.114982
