17
gdb 125099	2.92479	1.48003	1.03138	5.1435	75.77	-0.2156	0.0111	0.2267	1133.5749	0.136985	-414.157813	-414.149456	-414.148512	-414.191945	30.039	
C	-0.4963117397	 1.4013816353	-0.1096264802	-0.506888
C	-0.1886212235	-0.060325842	-0.0735129591	 0.245793
C	 0.0998425862	-0.9405393576	-1.1011350404	 0.282148
N	 0.3264126196	-2.1200592505	-0.4699979284	-0.236506
N	 0.1899952139	-1.9986767853	 0.8710731014	-0.133836
N	-0.1212418905	-0.7578578692	 1.0997430789	-0.24289
N	 0.2740612066	-0.7751685813	-2.4740407844	-0.160739
C	-0.5183846351	-1.5888146182	-3.4037376509	-0.237718
C	-0.7860998337	-0.1334421182	-3.2508075684	-0.221182
H	-0.4852617971	 1.7887989189	 0.9114450755	 0.149374
H	 0.2419694194	 1.9574151695	-0.6968182639	 0.130436
H	-1.483399446	 1.614938813	-0.5361493861	 0.122541
H	 0.6025604569	-3.0023389972	-0.8699486471	 0.276184
H	 0.0239672627	-1.9604633267	-4.2671519583	 0.132753
H	-1.2468329131	-2.2751491316	-2.9785442506	 0.13006
H	-1.6938707639	 0.1505061919	-2.7261040802	 0.13699
H	-0.4431247226	 0.5693134092	-4.0031936178	 0.133481
