17
gdb 72837	2.73135	1.56465	1.3027	2.3104	69.42	-0.2402	0.0137	0.2539	1012.3123	0.137644	-455.127664	-455.119932	-455.118987	-455.159877	29.906	
O	 0.1722449299	 1.3896242459	-0.0965925587	-0.475694
C	 0.048470443	 0.0012540066	-0.0070867658	 0.367351
C	 0.2938181942	-0.7421990323	-1.3316061785	-0.215841
N	-0.7828855909	-1.684913171	-0.9403438251	-0.318872
C	-1.3395763208	-0.6985553096	 0.0271925309	-0.147936
C	-1.5115475149	-1.2295197094	 1.4227861581	 0.437286
N	-2.5858131347	-1.6483553819	 1.9361999633	-0.548311
O	-0.3086619749	-1.1586793542	 2.0750494372	-0.247808
C	 0.7288031034	-0.6375064126	 1.2282714701	-0.147972
H	-0.067198924	 1.7832818612	 0.7499586893	 0.286912
H	 0.0495195319	-0.0887880416	-2.1785693608	 0.110615
H	 1.2742255403	-1.2019930242	-1.4944237892	 0.107112
H	-1.4191279638	-1.9669754483	-1.6758761065	 0.23373
H	-2.1937603352	-0.1123203634	-0.3199894251	 0.096821
H	-2.4288079698	-1.9569924697	 2.8981575154	 0.221217
H	 1.3997719282	-1.4560534342	 0.9502299232	 0.127431
H	 1.2939289779	 0.1063676987	 1.7983817122	 0.11396
