15
gdb 124303	4.93944	0.94464	0.80544	4.1312	66.93	-0.267	-0.0361	0.2308	1347.8023	0.110512	-453.945319	-453.936871	-453.935927	-453.980153	29.352	
C	 0.0294197096	 1.512869078	 0.0323810948	-0.476162
C	-0.3831066583	 0.0585797064	-0.0778658624	 0.388601
O	-1.3361336661	-0.3860470413	 0.5194755564	-0.28954
C	 0.4758580822	-0.7984582562	-1.0037754885	-0.43843
C	 0.2410242826	-2.2698382943	-0.9229955735	 0.256076
C	-0.774563253	-3.0239308111	-0.4230046302	-0.026507
O	-0.490246753	-4.3104360326	-0.6136869548	-0.164799
N	 0.7746260708	-4.3519537356	-1.2689749961	-0.00659
N	 1.161840574	-3.1664876116	-1.4295070649	-0.183373
H	 0.976672981	 1.5845944286	 0.5799008752	 0.151843
H	 0.1996185366	 1.9513602517	-0.9564626023	 0.141608
H	-0.7368600225	 2.0753518119	 0.5662692071	 0.150353
H	 0.2935745452	-0.4343075893	-2.0264914486	 0.155222
H	 1.5352970819	-0.5834701442	-0.820467656	 0.150017
H	-1.694791841	-2.7751053405	 0.0733092539	 0.19168
