21
gdb 61805	3.21848	0.90413	0.80016	2.0297	79.55	-0.2488	-0.0216	0.2272	1474.3555	0.179198	-424.219383	-424.209123	-424.208179	-424.255328	37.535	
C	 0.1212307843	 1.511270672	-0.3647253368	-0.420446
C	-0.0471607258	 0.0183243542	-0.0529363806	-0.044083
C	 0.5853500438	-0.3296478591	 1.3155542717	-0.283486
C	 2.0814286079	-0.1259649073	 1.3290675221	 0.15659
O	 2.6865004424	 0.5436959852	 2.1262458771	-0.242681
C	-1.4875783424	-0.4939871295	-0.1093252131	 0.41936
O	-1.5632344044	-1.8988128672	-0.004208086	-0.47067
C	-2.6508940294	 0.2781169387	 0.4596349625	-0.326215
C	-2.5157652863	 0.0800755866	-1.0389035923	-0.312288
H	 1.1778071327	 1.7934390351	-0.32689675	 0.130931
H	-0.2466913531	 1.7612587985	-1.3627515013	 0.124273
H	-0.4018638276	 2.1398652856	 0.3637292764	 0.125882
H	 0.4954948819	-0.5547001749	-0.8182829824	 0.09024
H	 0.1402519894	 0.2558801016	 2.1263087417	 0.116562
H	 0.4149143799	-1.3964350941	 1.5168624166	 0.10801
H	 2.6184739228	-0.6652356484	 0.5120142883	 0.072173
H	-1.609493522	-2.1291616853	 0.9292216032	 0.284212
H	-3.4170024091	-0.2939133403	 0.9719928509	 0.113119
H	-2.483254426	 1.2707374812	 0.8618877957	 0.11716
H	-2.2699938037	 0.9407834983	-1.6483983007	 0.116127
H	-3.1762103452	-0.6394341009	-1.5077591031	 0.12523
