18
gdb 127057	5.64012	0.72934	0.65375	3.9993	74.66	-0.2526	-0.0067	0.2459	1681.8279	0.146991	-439.06958	-439.060612	-439.059668	-439.105081	31.135	
C	-0.6428035785	 1.3296191947	-0.2964949175	-0.387929
C	 0.1003193241	 0.0378589764	-0.0037852327	-0.025285
O	 0.5613220551	-0.5021182743	-1.2281975794	-0.246398
C	 1.2696714169	-1.7088587948	-1.0739788485	-0.186716
C	 1.7029802778	-2.1813015828	-2.4234748231	 0.129108
C	 1.4839824542	-1.5944229173	-3.6288452955	 0.013121
O	 2.0301080288	-2.3213896932	-4.6165879218	-0.166951
N	 2.6418929084	-3.440904602	-4.0680041909	-0.13338
C	 2.441846175	-3.3460565432	-2.7766886784	-0.053254
H	 0.018388829	 2.0498766414	-0.7863494041	 0.129251
H	-1.4947954977	 1.1409901526	-0.9556129769	 0.129255
H	-1.0133899403	 1.7736732378	 0.6319788466	 0.119055
H	 0.952451222	 0.2235543527	 0.671370336	 0.090459
H	-0.5608925331	-0.6853485467	 0.5023936017	 0.090471
H	 2.1457797291	-1.5641904881	-0.4169236828	 0.10374
H	 0.6377156021	-2.4707897205	-0.5837722802	 0.103724
H	 0.9737482912	-0.6914712169	-3.9198143574	 0.162598
H	 2.8343629558	-4.1187511357	-2.1297939352	 0.129131
