18
gdb 121198	2.29683	1.30742	0.91541	2.2539	72.38	-0.2647	0.0191	0.2837	1285.2242	0.146558	-439.061739	-439.052302	-439.051358	-439.097506	32.294	
C	-0.7258301004	 1.3301112068	-0.2376323466	-0.228835
O	-0.6902141682	-0.0643948971	-0.4509983686	-0.239469
C	-0.7563077126	-0.8099613448	 0.7397510167	-0.084089
C	-0.8978614923	-2.2643878713	 0.3370323006	 0.118047
O	-0.9450980749	-3.1440833742	 1.4759593469	-0.283529
C	-2.2332878616	-3.6655865154	 1.1059292869	-0.076177
C	-2.296069684	-2.7576299545	-0.1547686174	-0.226205
C	-3.3742130382	-1.7862918546	-0.2021722953	 0.29668
N	-4.2441057612	-1.0248167347	-0.2150108519	-0.335305
H	-0.6746451028	 1.808578671	-1.2180694781	 0.132272
H	-1.656123992	 1.6368680551	 0.2622094163	 0.122457
H	 0.1272275439	 1.6688958351	 0.3702620648	 0.106477
H	 0.1566865389	-0.6951477226	 1.3479791101	 0.103378
H	-1.611784722	-0.502006424	 1.3611494017	 0.106831
H	-0.0909737918	-2.5325358697	-0.3548643569	 0.101973
H	-2.2007074615	-4.7388259419	 0.8896824428	 0.119568
H	-2.9968976162	-3.4663052353	 1.8643915393	 0.129691
H	-2.2580034231	-3.303544038	-1.0984745913	 0.136236
