21
gdb 108618	2.71266	1.37343	1.07289	1.3998	85.71	-0.2012	0.033	0.2341	1203.6143	0.182878	-387.059291	-387.050425	-387.049481	-387.093038	33.77	
C	-0.0283293948	 1.5133028398	 0.1932600853	-0.522805
C	 0.0073673947	 0.0310572546	 0.0341955803	 0.221872
C	-0.010456896	-0.7814541644	-1.0323784737	 0.242469
C	-0.0719446947	-0.5651432983	-2.5035515936	-0.217114
O	-0.122619902	 0.8177898623	-2.8161037349	-0.410622
C	 0.0526528813	-2.1905438091	-0.4084803842	-0.113665
C	-0.9751938924	-2.0284082967	 0.7609565148	-0.206991
C	 0.0799693752	-0.9647527392	 1.2138672336	-0.098987
C	 1.1555281645	-1.9688074639	 0.6800417986	-0.206992
H	 0.8603282339	 1.8729991897	 0.729593205	 0.115217
H	-0.0777996486	 2.0123316344	-0.773881975	 0.151645
H	-0.8941463844	 1.82380155	 0.7938644122	 0.115261
H	 0.8060760431	-1.0439580572	-2.9756276221	 0.093637
H	-0.9546248315	-1.0934936993	-2.9094452663	 0.093624
H	-0.1606320566	 0.9047510543	-3.7726591341	 0.288211
H	 0.0514741694	-3.0543550419	-1.0755485818	 0.050907
H	-1.9757632262	-1.6698739942	 0.5067370022	 0.088541
H	-1.02810575	-2.9018333011	 1.4197007798	 0.086815
H	 0.1070113408	-0.557989507	 2.2256374424	 0.053619
H	 1.3069111518	-2.8365166173	 1.3310243195	 0.086816
H	 2.1123572924	-1.5554885755	 0.3514721219	 0.08854
