22
gdb 82546	2.94436	1.38561	1.28008	1.5213	85.	-0.2165	0.0872	0.3036	1120.9629	0.195714	-367.18303	-367.174708	-367.173763	-367.215615	33.345	
C	 0.2760794896	 1.7750394004	-0.191476062	-0.435075
C	 0.0796531114	 0.2783892932	-0.099462934	 0.017428
C	 0.4810347685	-0.7077507932	-1.1403581996	-0.042655
C	 1.4533078518	-0.3086553529	-2.2418101278	-0.318062
C	 2.7071261175	 0.1778167114	-1.5029286635	 0.362786
C	 4.062757475	 0.1357627214	-2.155222543	-0.335077
C	 3.3998629765	 1.4639687981	-1.885676643	-0.298853
C	 2.5323430165	-0.2259731193	-0.0274823859	-0.241695
N	 1.1531273032	-0.6981012332	 0.1796534495	-0.120055
H	 1.1045930058	 2.0666405751	-0.8373261766	 0.140837
H	-0.6358099285	 2.2392737136	-0.5828200266	 0.119178
H	 0.4553734559	 2.2003795919	 0.8027639036	 0.12162
H	-0.8179088609	 0.0183047913	 0.4617294959	 0.086051
H	-0.1688451485	-1.5567247455	-1.3396691285	 0.082626
H	 1.6758283698	-1.1868870506	-2.8583597157	 0.106004
H	 1.0435159449	 0.4567103967	-2.910372481	 0.103968
H	 4.914650362	-0.1435393511	-1.5422885476	 0.111398
H	 4.1262631749	-0.2047432256	-3.1841631704	 0.110379
H	 3.015812264	 2.0234885604	-2.7335040931	 0.109858
H	 3.8041751079	 2.0838946943	-1.0906547126	 0.11126
H	 3.1967955891	-1.0603890009	 0.2259510753	 0.105534
H	 2.7661209335	 0.5950422946	 0.6604022566	 0.102545
