19
gdb 95006	3.03947	1.63604	1.33549	1.2152	74.02	-0.2359	0.0692	0.3051	1002.2533	0.160557	-422.960832	-422.953573	-422.952629	-422.992341	29.273	
C	-0.2186747465	 1.5865335736	-0.0021901311	-0.399092
C	 0.0224019218	 0.0743571945	-0.0520532755	 0.085915
O	 0.7125894563	-0.3112076021	-1.239689797	-0.267971
C	 2.1265196121	-0.2533864687	-1.1543074246	-0.1235
C	 2.6386805054	-0.7481889513	 0.189998241	-0.028221
C	 1.7007926929	-1.658147115	 1.0328740496	 0.031335
O	 2.4120111334	-1.2270308745	 2.2550843147	-0.316092
C	 2.1980198749	 0.00518294	 1.4712337807	 0.032135
C	 0.7391648514	-0.4466233957	 1.1902382114	-0.022262
H	 0.7245761967	 2.1393123639	 0.0601921432	 0.116964
H	-0.7476658018	 1.9126344774	-0.9015152442	 0.126269
H	-0.8220235306	 1.854120608	 0.8716693566	 0.117439
H	-0.9478294827	-0.4319273133	-0.1291569419	 0.088433
H	 2.4984433252	-0.8897884792	-1.9642494638	 0.114281
H	 2.5014836243	 0.7664300556	-1.3455621997	 0.092945
H	 3.6887069224	-1.0473662351	 0.1861364674	 0.083628
H	 1.4742377754	-2.719074458	 0.9261212806	 0.094724
H	 2.5720551422	 0.9402741676	 1.8901808258	 0.090057
H	 0.1078544472	-0.4801584276	 2.080521677	 0.083013
