14
gdb 28389	3.2594	1.41798	0.98919	2.4292	71.91	-0.1895	-0.0355	0.154	1101.8768	0.101533	-473.889907	-473.882172	-473.881228	-473.921859	29.827	
N	 0.0000257889	 1.4058986951	 0.144997504	-0.58281
C	-0.0726612905	 0.0177392595	 0.0460430781	 0.107316
C	-1.2167338551	-0.7268057768	 0.0241124585	-0.13551
C	-1.1829303979	-2.1517116248	-0.0120525578	-0.291884
C	 0.0269877647	-2.7508187118	-0.0190534192	 0.471315
O	 0.2284322762	-4.0763690268	-0.0435741599	-0.405302
O	 1.1742607419	-2.0488649193	-0.0046525672	-0.258566
C	 1.2173093119	-0.6496367102	 0.0150613462	 0.411604
O	 2.2997734722	-0.11664815	-0.0013377274	-0.363008
H	 0.9126849307	 1.7552187945	-0.1169728039	 0.263889
H	-0.7528286452	 1.9087532042	-0.3014375767	 0.247617
H	-2.180796167	-0.2278371622	 0.0392068049	 0.104002
H	-2.0816294622	-2.750124324	-0.0290237224	 0.118
H	 1.1814477414	-4.2328372573	-0.0497016373	 0.313338
