19
gdb 104514	2.2869	1.17701	1.04562	4.6494	76.13	-0.2365	0.0305	0.2669	1253.4141	0.157812	-419.181982	-419.172181	-419.171237	-419.216861	35.491	
C	 0.0392644642	 1.3732498972	-0.0025120368	-0.33924
N	 0.1899131183	-0.071869249	 0.1554090694	-0.103277
C	 1.5184589447	-0.6546784298	 0.0083054062	-0.300324
C	 0.8445968895	-0.6154860098	 1.3400800183	 0.283455
C	 1.3844632741	 0.2811190903	 2.4590580103	-0.155254
O	 2.3920601408	 1.1964359496	 2.068809339	-0.400475
C	 0.1851697755	-1.8994042378	 1.8531666633	-0.397664
C	-0.9065824545	-1.6334225858	 2.7918836681	 0.270565
N	-1.7565711369	-1.4028902734	 3.540165677	-0.314366
H	 0.8909652467	 1.9558801073	 0.3681851465	 0.13734
H	-0.1022275745	 1.5866736569	-1.0662391625	 0.124751
H	-0.8648829312	 1.6921778478	 0.5251005336	 0.131717
H	 1.5780373934	-1.5828371986	-0.5569035618	 0.111819
H	 2.3546599086	 0.0254556369	-0.1409175913	 0.110307
H	 0.5678449487	 0.8882125352	 2.863543642	 0.143704
H	 1.7327818157	-0.3625068828	 3.2808281707	 0.102799
H	 3.1937356629	 0.6967984313	 1.8841560888	 0.286673
H	-0.215769442	-2.4545902096	 1.0008881012	 0.161966
H	 0.9235714463	-2.5388586559	 2.3519365783	 0.145502
