19
gdb 97533	2.66304	0.77419	0.72052	1.3109	86.91	-0.2528	0.0282	0.281	1679.3017	0.155007	-385.8214	-385.810364	-385.80942	-385.858784	39.198	
C	 0.0405234409	 1.5103177671	 0.0378051673	-0.392614
C	-0.0056909277	-0.0404536037	-0.0249042102	-0.131706
C	 0.7366311667	-0.6358859839	 1.2018436072	-0.39164
C	-1.4083026967	-0.4861710907	-0.0082370992	 0.364716
C	-2.5568943568	-0.8358100387	 0.0366571464	-0.497697
C	 0.6468956202	-0.4976855143	-1.2619927256	 0.121277
C	 1.2155704566	-0.84750215	-2.2645863174	 0.009775
C	 1.8699687621	-1.3364885195	-3.4782622817	-0.192704
O	 2.4321475261	-2.6337935002	-3.3359434759	-0.401693
H	 1.0796959579	 1.8500031739	 0.030394877	 0.124744
H	-0.4774815097	 1.9461566675	-0.8188029134	 0.134466
H	-0.4432596051	 1.8583350358	 0.9544862761	 0.125136
H	 0.2571448246	-0.2990980427	 2.124980899	 0.12452
H	 0.7137232113	-1.7271364133	 1.1737672735	 0.133097
H	 1.7791680758	-0.3068904563	 1.1986033158	 0.125844
H	-3.5706767049	-1.1509536147	 0.0633541592	 0.197853
H	 1.1543378143	-1.299146689	-4.3152971313	 0.119298
H	 2.7042723215	-0.6795170607	-3.7483822994	 0.139254
H	 1.7405528128	-3.2096011365	-2.9932537875	 0.288074
