22
gdb 102107	1.80966	1.45047	0.99078	3.6451	83.77	-0.2343	0.0294	0.2637	1324.7629	0.193124	-404.362176	-404.352047	-404.351103	-404.39775	36.931	
C	 0.9456231015	 0.0093699077	 0.414806796	-0.377109
C	-0.0351072964	-0.8874820167	-0.3484925746	-0.16162
N	-1.4399283506	-0.5432116198	-0.1383082616	-0.046833
C	-2.0902098346	 0.2290502319	-1.0663438796	 0.146469
O	-3.1890129531	 0.724989705	-0.9518393916	-0.336026
C	-2.0057369085	-0.7892130275	 1.1604148425	 0.020695
C	-3.435018597	-1.2345967588	 1.2868474913	-0.290552
C	-2.3320248766	-2.2076884228	 1.6084118109	-0.014501
C	-2.1068876072	-3.411183382	 0.720045355	-0.408827
H	 1.9757495311	-0.294207423	 0.2033565647	 0.12015
H	 0.8285614994	 1.0566977257	 0.1196350251	 0.127313
H	 0.7937338105	-0.0593732109	 1.4958780854	 0.12765
H	 0.1646036795	-0.8199274355	-1.4230700009	 0.115144
H	 0.1144572411	-1.9329836021	-0.0624625808	 0.116192
H	-1.4804454535	 0.3387190905	-1.9870800773	 0.066634
H	-1.6415315186	-0.1191198618	 1.9365286884	 0.09712
H	-4.02542368	-0.803552373	 2.0870401549	 0.116513
H	-3.9806570683	-1.3834275179	 0.3637687247	 0.137856
H	-2.1486681661	-2.3896578794	 2.6643173337	 0.084857
H	-2.2116492547	-3.1477066403	-0.336494962	 0.123542
H	-1.1114246268	-3.8455817258	 0.8647733865	 0.114184
H	-2.8413040111	-4.1934427036	 0.9401048493	 0.12115
