19
gdb 112484	2.32555	1.18804	0.8792	1.1267	74.93	-0.2449	0.0166	0.2615	1357.569	0.158612	-456.324083	-456.314045	-456.313101	-456.359736	35.257	
C	 0.3400992601	 1.386854522	-0.2259084734	-0.338067
N	 0.4784927116	-0.0557419796	-0.0801075736	-0.329695
C	 0.5399779427	-0.774895093	-1.0998474216	 0.434405
O	 0.508688152	-0.4431786191	-2.4510768273	-0.297293
C	 0.8585736791	-1.8192975213	-2.8411488357	 0.098903
C	 2.2257749825	-1.8419027717	-3.4935584652	-0.059568
O	 2.2280171232	-1.0802372178	-4.6854655579	-0.420302
C	 0.7402904427	-2.2653739428	-1.356142444	-0.157429
N	 1.8343826487	-2.9963528807	-0.7555924638	-0.513584
H	 1.0789878182	 1.8823959221	 0.4124054401	 0.126603
H	 0.4607992549	 1.7449062253	-1.2551328154	 0.122792
H	-0.6489032904	 1.6925647232	 0.1339359384	 0.131698
H	 0.0998542691	-2.2079146597	-3.5258378572	 0.098058
H	 2.9864008594	-1.480171842	-2.7838189878	 0.082792
H	 2.4880522228	-2.8694050592	-3.7623594469	 0.127678
H	 1.9152475655	-0.1990934102	-4.4490062411	 0.29219
H	-0.1860093716	-2.822148905	-1.1916824722	 0.114994
H	 2.6070037264	-2.3739576585	-0.5412343186	 0.240252
H	 1.540165403	-3.396896202	 0.1280411832	 0.245572
