20
gdb 34026	3.12059	1.29808	1.08161	2.3393	85.21	-0.2346	0.0434	0.278	1178.7936	0.172642	-365.972937	-365.964734	-365.963789	-366.005373	32.871	
C	 0.0069343294	-1.200784282	 0.0439648685	-0.413272
C	 0.0150021189	 0.0017986188	 0.0513453091	 0.290257
C	 0.0062436709	 1.4438045912	 0.0115008178	 0.082024
C	-1.2156704805	 2.0694807799	-0.6799397552	-0.28905
C	-0.8699917163	 3.2180956481	-1.6402808602	-0.186846
C	 0.140807073	 4.1953114057	-1.0327488765	-0.218474
C	 1.4732884364	 3.484196751	-0.7548242833	-0.225083
C	 1.3194266367	 2.1800876167	 0.0024913122	-0.029749
N	 0.5423654841	 2.0964524417	 1.2406723549	-0.355666
H	 0.0063790517	-2.2623929831	 0.05522122	 0.18922
H	-1.7491542415	 1.2846647137	-1.222134082	 0.117503
H	-1.9076427186	 2.4243722953	 0.0955773466	 0.107479
H	-0.444636283	 2.802014807	-2.563041117	 0.10291
H	-1.7894004248	 3.7394772943	-1.927232182	 0.09725
H	 0.3155500393	 5.0385230153	-1.7086570669	 0.100952
H	-0.2667924397	 4.6288009484	-0.1090407726	 0.095157
H	 1.965480003	 3.2625047163	-1.7109216755	 0.10835
H	 2.1563401846	 4.142060532	-0.2025735479	 0.105529
H	 2.2189763527	 1.5686937034	 0.0334769941	 0.098198
H	 0.0309822038	 2.9641928863	 1.3941938558	 0.223312
