20
gdb 82805	2.95469	1.62462	1.59131	0.1782	77.76	-0.2067	0.0795	0.2862	970.3715	0.173605	-403.076386	-403.069205	-403.06826	-403.107561	29.928	
C	-0.0679641981	 1.5575423822	-0.0621578166	-0.430907
C	 0.0374716084	 0.0459395071	 0.0233171238	-0.045403
C	 1.3061702503	-0.7285669651	-0.2838929712	 0.052449
O	 2.5438156657	-0.0508368552	-0.2729035252	-0.275421
C	 3.1537547553	 0.0488958535	 1.017487982	 0.117181
C	 2.2276765992	 0.8012601724	 1.9930793145	-0.198433
N	 1.4952888528	-0.4993983156	 2.2256405739	-0.143193
C	 2.8271835666	-1.1703551359	 1.9075108067	-0.193199
C	 0.6584361753	-0.8595843815	 1.0782787264	-0.05183
H	 0.9074690022	 2.0246811841	-0.2134855719	 0.13789
H	-0.6861193619	 1.8225059181	-0.9257193353	 0.115469
H	-0.5375049047	 1.9997778605	 0.8221796897	 0.125067
H	-0.8406430217	-0.4481073942	-0.3878848899	 0.090566
H	 1.2915008329	-1.5240476046	-1.0237808191	 0.09024
H	 4.1834606897	 0.3677906305	 0.8415124143	 0.076215
H	 2.7335852979	 1.0821893816	 2.9219445683	 0.106663
H	 1.6408273376	 1.6405574844	 1.6339473292	 0.114868
H	 2.753097491	-2.1577753741	 1.4475356212	 0.110349
H	 3.4498227266	-1.2145748399	 2.8048360362	 0.108058
H	 0.0922362648	-1.7633474281	 1.2883213029	 0.09337
