16
gdb 10973	2.72223	2.52692	1.8312	2.4603	64.28	-0.2437	-0.0104	0.2333	791.6215	0.130439	-383.740538	-383.733439	-383.732495	-383.771628	27.049	
C	 0.0447136159	 1.5352288916	 0.0702907171	-0.498734
C	-0.0127664618	 0.0405165765	-0.0154908741	 0.292537
C	 0.5657922024	-0.7161518256	-1.2309483068	-0.261505
C	 0.4412847742	-2.1814521733	-0.6919780337	-0.232039
C	-0.1751190985	-1.8586130814	 0.6810423116	-0.037463
O	 0.6000263839	-0.6935956408	 1.113288366	-0.328123
C	-1.2570079622	-0.8128733818	 0.3403535457	 0.407832
O	-2.4245836448	-0.6427514978	 0.5043679603	-0.317722
H	 1.0785071479	 1.889502248	 0.0068412892	 0.132799
H	-0.5178442706	 1.9752883955	-0.7587484101	 0.136439
H	-0.3913813445	 1.887791553	 1.0081750512	 0.14202
H	-0.0098899211	-0.538775742	-2.1436707847	 0.113409
H	 1.6028826816	-0.4228004396	-1.4111790333	 0.114399
H	-0.2025036203	-2.8189024261	-1.3040613083	 0.1153
H	 1.4121190298	-2.6686061645	-0.5808693793	 0.118225
H	-0.2854368218	-2.6342411616	 1.4357882591	 0.102625
