19
gdb 84134	2.55287	1.53754	1.10318	1.6089	77.02	-0.2171	0.0585	0.2756	1144.151	0.159831	-419.223211	-419.214622	-419.213678	-419.256549	33.373	
C	-0.1853413108	 1.5235617984	-0.0010558508	-0.37984
C	 0.0295724023	 0.0083420661	-0.0363519202	-0.058927
N	 0.9266923974	-0.37316626	-1.1367316558	-0.353238
C	 1.9511203787	-0.9046775295	-0.5958832233	 0.450967
N	 3.0942197174	-1.3160853626	-1.2286645123	-0.581214
O	 1.9928533679	-1.0539051602	 0.7566630456	-0.277539
C	 0.7218545177	-0.5768458532	 1.2135391039	 0.420596
C	 0.6817154606	-0.0405055499	 2.60645511	-0.33444
C	 0.0536642565	-1.3868871447	 2.2781153931	-0.325409
H	 0.7566796312	 2.0456444359	 0.1928268652	 0.118246
H	-0.5705495567	 1.8601781225	-0.9671657871	 0.125555
H	-0.9060392972	 1.8072148227	 0.7734667752	 0.103898
H	-0.944352157	-0.4772270583	-0.1825708416	 0.079481
H	 2.9844170013	-1.4326153014	-2.2240844321	 0.266746
H	 3.5932563058	-2.0627769922	-0.7699368314	 0.260546
H	 1.6109589907	-0.0482215871	 3.1650984309	 0.125999
H	 0.0328831951	 0.8020337949	 2.8187004332	 0.120904
H	-1.0290740342	-1.4626067469	 2.2526552698	 0.116944
H	 0.5665854833	-2.2760900645	 2.6273891878	 0.120725
