25
gdb 101656	2.51063	0.82036	0.72264	2.5834	89.9	-0.2459	-0.019	0.2268	1739.1307	0.225628	-389.516947	-389.50525	-389.504306	-389.554807	41.561	
C	-0.0752396633	 1.5618192118	 0.2044434388	-0.392949
C	 0.018859696	 0.0411846416	 0.0438693874	-0.168918
C	 0.868591832	-0.435564241	-1.1508194611	 0.036788
C	 2.3525490481	-0.073458122	-0.9921919312	-0.399537
C	 0.6587938226	-1.9504601396	-1.3518920826	-0.200925
C	 1.4229516815	-2.5979502456	-2.5284423163	-0.074934
C	 1.0961207585	-4.0972578698	-2.6369039	-0.412153
C	 1.0506437932	-1.9054243957	-3.8229005543	 0.177249
O	 1.7967597068	-1.2536139861	-4.508037936	-0.258265
H	 0.8961037562	 2.0152525493	 0.4227682663	 0.120011
H	-0.4635564684	 2.0316724935	-0.7063002887	 0.115474
H	-0.7491331092	 1.8249235085	 1.0258429742	 0.112217
H	 0.420486455	-0.4024135928	 0.9657858086	 0.09177
H	-0.9958104023	-0.3631439324	-0.0670944654	 0.089717
H	 0.4936506479	 0.0812996334	-2.0468249121	 0.079183
H	 2.4827360555	 0.9936208271	-0.7927201565	 0.115576
H	 2.8040107166	-0.6257484419	-0.1584814829	 0.106578
H	 2.9190437886	-0.3018236339	-1.8987973084	 0.134303
H	 0.9483932498	-2.4802000636	-0.4341030997	 0.099118
H	-0.4148484172	-2.143859919	-1.4852087179	 0.093629
H	 2.5006817814	-2.4676424787	-2.3937706241	 0.097551
H	 0.0330427188	-4.2560536813	-2.8515579418	 0.120668
H	 1.6764442245	-4.5774128704	-3.4306016513	 0.126761
H	 1.3239143376	-4.6060928322	-1.6953288271	 0.124875
H	-0.0203009299	-2.0412568691	-4.1145533479	 0.066212
