19
gdb 72548	2.58756	1.67149	1.65451	0.986	69.27	-0.2521	0.0602	0.3123	941.9997	0.161529	-460.172636	-460.165049	-460.164105	-460.204755	30.267	
O	-0.0382766046	 1.411460979	 0.0122697348	-0.489514
C	 0.0001423182	-0.0001395179	-0.0004217368	 0.294782
C	-1.4331469621	-0.5352885447	 0.0067942592	-0.228414
C	-1.3433631043	-2.0865956012	-0.0083015474	-0.248503
C	 0.1400517312	-2.4725407904	-0.0231517936	 0.204565
O	 0.767173196	-1.9767050576	-1.1897745024	-0.268129
C	 0.7102487684	-0.5477798732	-1.2493592825	-0.097248
O	 0.7850502124	-1.9971913439	 1.1422636198	-0.268143
C	 0.7308417528	-0.5694175206	 1.2267800905	-0.097177
H	 0.8682299234	 1.7403113302	 0.0071683312	 0.279679
H	-1.9513980196	-0.1652671044	 0.8957916431	 0.109493
H	-1.966329479	-0.1489663975	-0.8662947907	 0.109496
H	-1.8153900986	-2.5260120326	 0.8743227976	 0.112126
H	-1.8287584153	-2.5096168312	-0.8916948777	 0.112111
H	 0.2948736876	-3.5527407296	-0.0338362931	 0.08985
H	 0.1794988128	-0.2319743131	-2.1571917193	 0.104245
H	 1.7382957081	-0.1581763235	-1.3020789769	 0.088265
H	 1.7600457549	-0.1815031205	 1.2685196756	 0.088223
H	 0.2159545177	-0.2686028473	 2.1487060185	 0.104294
