11
gdb 132725	6.03786	1.02362	0.87524	2.9366	67.39	-0.2927	-0.0907	0.202	1155.4125	0.067165	-455.749659	-455.743049	-455.742105	-455.781111	24.056	
F	-0.0045331428	 0.0510612391	 0.0039175158	-0.045904
C	-0.0232838559	 1.3702950652	 0.0107737418	 0.336568
N	-1.1973285898	 1.9543547765	 0.0291227264	-0.280587
C	-1.1858042044	 3.2883609077	 0.0356426722	-0.045758
C	 0.0128404911	 4.0068752125	 0.0234866641	 0.201935
N	 1.2062889831	 3.3892795614	 0.0047072331	-0.271117
C	 1.1923745078	 2.0667829932	-0.0017271536	-0.138167
C	-0.0062565739	 5.4421983584	 0.0309175594	 0.247037
N	-0.0617464525	 6.5973716894	 0.0374258268	-0.312346
H	-2.1440913709	 3.7979300718	 0.0507850327	 0.156632
H	 2.1396922584	 1.5371729347	-0.0168343987	 0.151708
