14
gdb 42621	2.83978	1.92489	1.38389	3.874	65.66	-0.2403	-0.0914	0.1489	892.1673	0.102113	-436.659497	-436.652971	-436.652027	-436.690535	25.4	
O	-0.0095361914	-0.0011674971	 0.318088998	-0.291633
C	-0.0379810255	 1.1769668946	 0.0820956655	 0.314643
C	-1.2329791514	 2.0698759945	-0.0146746185	-0.146978
C	-0.7831113969	 3.491663862	 0.1035009598	-0.062915
C	 0.6476132399	 3.4450015738	-0.5023282807	-0.187444
C	-0.0928609737	 3.2136799322	-1.8535478396	-0.171168
N	-1.4148349779	 3.0324202834	-1.1587592713	-0.135797
C	 1.2104968307	 2.1042582823	-0.0705247053	 0.332567
O	 2.3492416078	 1.7824504826	 0.1185259195	-0.287074
H	-2.1762052941	 1.7306638551	 0.3937089633	 0.132617
H	-1.2140526738	 4.2307828815	 0.7679500743	 0.122022
H	 1.326579291	 4.288406918	-0.4097567825	 0.11098
H	-0.1501670969	 4.1234615608	-2.4533458027	 0.138407
H	 0.2236982422	 2.3774310562	-2.4848427198	 0.131774
