25
gdb 104150	2.40119	1.14079	1.00622	0.3456	95.67	-0.2251	0.0321	0.2572	1404.7956	0.228151	-352.388907	-352.378569	-352.377625	-352.423838	39.486	
C	-0.3154710364	 1.4257994571	 0.0134266933	-0.394562
C	-0.0005654304	-0.0652257469	-0.1478129196	-0.194104
C	 0.9521782812	-0.4375936401	-1.3176720292	 0.287118
C	 2.3594905751	 0.1328383089	-1.0731222505	-0.43867
C	 0.988026557	-1.9885989058	-1.4966074645	-0.258163
C	 0.0008948273	-2.3158059547	-2.6413085842	-0.302316
C	-0.1447335075	-0.9945405465	-3.3691896063	 0.316548
C	-0.8280951148	-0.9017177219	-4.6969981457	-0.489598
C	 0.3775558003	 0.0025868996	-2.6528744998	-0.194255
H	 0.583833252	 2.0164533125	 0.214077111	 0.115073
H	-0.7902567428	 1.8336346928	-0.8846329168	 0.116279
H	-1.0031295403	 1.5852584415	 0.8501158776	 0.109808
H	 0.4381650061	-0.4447969197	 0.7850690472	 0.087229
H	-0.9425582936	-0.6103254192	-0.2883889285	 0.090459
H	 2.7819547486	-0.2507721866	-0.1368006633	 0.107373
H	 3.0366348721	-0.1458220033	-1.8869451579	 0.109977
H	 2.3535143028	 1.2258177454	-1.0108173085	 0.11071
H	 1.9976490758	-2.293566275	-1.791037136	 0.093065
H	 0.7530561282	-2.5160883688	-0.5671523941	 0.088961
H	 0.3684228873	-3.1159828025	-3.2957234862	 0.095824
H	-0.9750348809	-2.6587259275	-2.2682131472	 0.100423
H	-1.8594380568	-1.2736647749	-4.6381896626	 0.122582
H	-0.8598560396	 0.1269015798	-5.0668682833	 0.120395
H	-0.3203314111	-1.5196158762	-5.448964455	 0.122129
H	 0.3755253804	 1.0433156019	-2.9629127801	 0.077717
