20
gdb 40182	3.05461	1.52877	1.31464	1.3706	78.04	-0.219	0.085	0.304	1043.6206	0.172734	-403.100065	-403.092461	-403.091517	-403.131877	30.86	
C	-0.0075253015	 1.5281296146	-0.0868458903	-0.324362
C	 1.3087614164	 0.7746209037	-0.0459757813	-0.332923
C	 0.0251627646	 0.0183464918	 0.0242193379	 0.412164
C	-0.3744545349	-0.717440379	 1.2869958245	-0.206162
N	-1.7393341189	-1.2553345491	 1.2794763185	-0.094341
C	-2.8502566679	-0.3521667609	 1.0009691687	-0.247906
C	-2.4130041776	-1.3458028161	-0.0228336189	-0.024164
C	-1.6999274665	-0.8590905897	-1.2870320834	-0.116867
O	-0.2930907271	-0.7240200978	-1.1226765274	-0.281224
H	-0.2956310755	 2.113400229	 0.7801340562	 0.112624
H	-0.3036300683	 1.950324687	-1.040751448	 0.120035
H	 1.8637826437	 0.6956605585	-0.9737083636	 0.126044
H	 1.9191614919	 0.8381033572	 0.8488709164	 0.114323
H	 0.2985069415	-1.5755408729	 1.4067471039	 0.113332
H	-0.2565708171	-0.0782439106	 2.1684990323	 0.102003
H	-3.7443720545	-0.5233905386	 1.5950647411	 0.111959
H	-2.6376745474	 0.6931659044	 0.7862558894	 0.115029
H	-2.9972339923	-2.2549433291	-0.1474744965	 0.093941
H	-1.8331651343	-1.5859907818	-2.0920976089	 0.112792
H	-2.1260730242	 0.0984572195	-1.6236996804	 0.093704
