21
gdb 42145	2.0009	1.88461	1.10726	0.9704	75.58	-0.2471	0.0934	0.3405	1139.7176	0.184568	-461.34586	-461.337521	-461.336576	-461.378506	32.367	
C	-0.088810876	 1.5671935432	 0.0237036996	-0.213368
C	 1.2945799518	 2.2229796243	 0.0467655777	-0.063549
O	 2.0717910899	 1.6375951199	 1.0817674424	-0.242396
C	 3.3888936445	 1.2524192864	 0.7551085442	-0.065218
C	 3.4972689818	 0.1394040432	-0.2931069051	-0.100501
O	 2.7172239682	-0.9871425264	 0.086580729	-0.229738
C	 1.7357322876	-1.3666234524	-0.8436623277	 0.000426
O	 0.8018410795	-0.362414623	-1.1250813457	-0.243371
C	-0.0008309212	 0.0427922602	-0.0120917701	-0.067171
H	-0.6561851235	 1.855008486	 0.9167389474	 0.105321
H	-0.6405842604	 1.9414879962	-0.8467077561	 0.102211
H	 1.772159899	 2.0921162115	-0.9295094692	 0.102587
H	 1.2022499403	 3.3038435003	 0.2268241122	 0.091751
H	 3.994900934	 2.1091632753	 0.413419785	 0.083456
H	 3.8189456315	 0.8960086093	 1.6966910232	 0.1153
H	 3.1902352552	 0.4994705511	-1.2809298788	 0.110866
H	 4.5529943396	-0.1601427885	-0.3621021486	 0.098748
H	 2.1795704492	-1.6188611388	-1.8170024624	 0.096364
H	 1.2645884973	-2.2564099962	-0.4043861134	 0.099629
H	 0.4513014701	-0.3090754046	 0.9186597137	 0.126825
H	-1.0014888682	-0.3992599869	-0.1117727375	 0.091828
