14
gdb 1263	7.67229	1.09743	0.97167	3.9461	64.39	-0.2494	-0.015	0.2344	1161.1068	0.111834	-324.588418	-324.579753	-324.578809	-324.623838	28.356	
C	 0.0110024783	 1.5468463682	 0.0098498812	-0.366288
C	-0.0208929309	 0.0074684389	 0.0054723038	-0.323095
C	-1.3726405691	-0.5369334067	 0.0106985947	 0.055322
C	-2.5021856296	-0.9594881127	 0.0149929935	 0.031807
C	-3.888272146	-1.4025441251	 0.0247040442	 0.263575
N	-4.0325200522	-2.7607988802	-0.0141116344	-0.520304
O	-4.8298270828	-0.6333486653	 0.0544935231	-0.335894
H	 1.0451006901	 1.9030698127	 0.0057521245	 0.118238
H	-0.4974880715	 1.9477634823	-0.8705566826	 0.13686
H	-0.4887839215	 1.9426132033	 0.8975429873	 0.136795
H	 0.5139812626	-0.3738439595	-0.8739029842	 0.137563
H	 0.5224622582	-0.378828203	 0.8774728616	 0.137363
H	-3.2389236273	-3.3749915582	 0.0341199945	 0.263878
H	-4.9623541484	-3.1420723247	 0.0462036027	 0.26418
