14
gdb 29097	3.14702	1.46615	1.00555	3.9589	69.91	-0.2147	-0.0467	0.168	1093.5455	0.10241	-470.046818	-470.038914	-470.03797	-470.079442	29.481	
N	-0.081820892	 1.439618966	 0.1841746707	-0.568098
C	-0.1290601914	 0.0494685703	 0.0621242022	 0.262643
C	-1.2238424096	-0.6520606321	-0.2372129996	-0.05502
N	-1.1846399034	-2.0311647937	-0.3401376573	-0.353553
C	-0.0396903993	-2.7679091514	-0.1444910159	 0.247966
N	-0.0327221134	-4.03737305	-0.24475801	-0.51528
C	 1.202870921	-1.9648533479	 0.1963625779	 0.369899
O	 2.2628140011	-2.4918094798	 0.3886525718	-0.319273
O	 1.0870908346	-0.6137882263	 0.2786029229	-0.235956
H	 0.5658517152	 1.8540714209	-0.4808792426	 0.250958
H	 0.21728207	 1.7258260124	 1.112694611	 0.250935
H	-2.1695969871	-0.1613590055	-0.4074184511	 0.148671
H	-2.0175444639	-2.5524921662	-0.5662328291	 0.270417
H	 0.9140944182	-4.3707108465	-0.0609988209	 0.245693
