21
gdb 87562	2.39707	1.47125	1.23776	1.5918	82.37	-0.2431	0.0695	0.3126	1138.6327	0.181954	-387.047316	-387.038422	-387.037478	-387.08052	34.682	
C	-0.0812943857	 1.5411903668	 0.0615443678	-0.40399
C	-0.0213084197	 0.0303763459	 0.1018994577	-0.05804
C	 1.2737919106	-0.6946005281	-0.1995955211	-0.38503
C	 0.7175454782	-0.6977986139	 1.1913979093	 0.333838
C	 1.3387575252	-0.1385240838	 2.4572424707	-0.134564
C	 0.2589431641	 0.0681903219	 3.4808667912	-0.300536
C	 0.7821924594	-1.3277208228	 3.2562185729	-0.08211
C	 0.2266545021	-1.9454863963	 1.9674795996	 0.051519
O	-1.1259543712	-2.3295804181	 1.8944368852	-0.43162
H	 0.8372491862	 1.9830915009	 0.4614053924	 0.11473
H	-0.2065002108	 1.905745419	-0.9641099945	 0.117395
H	-0.9171151782	 1.9281634847	 0.6552155022	 0.112467
H	-0.9220094855	-0.4757860653	-0.2396495568	 0.087984
H	 1.2377119518	-1.6177789568	-0.7705364552	 0.110964
H	 2.1541848207	-0.0869165482	-0.3907462879	 0.105833
H	 2.3185046385	 0.3151937967	 2.5388128829	 0.089336
H	 0.5668929544	 0.5195854174	 4.4186781583	 0.114376
H	-0.7404446512	 0.3608751624	 3.164221328	 0.097968
H	 1.2535015948	-1.8828987175	 4.0579669644	 0.087303
H	 0.7961582637	-2.833884317	 1.6787696705	 0.093241
H	-1.6572771174	-1.6016399779	 2.234568152	 0.278938
