25
gdb 109677	2.53098	0.99544	0.91966	1.1001	89.95	-0.2358	0.0766	0.3124	1499.1125	0.225752	-389.478096	-389.466603	-389.465659	-389.514504	41.772	
C	-0.5379801711	 2.2413579835	 2.2828641495	-0.372075
C	-0.1710473597	 1.294111969	 1.1331890389	-0.210489
C	 0.637325984	 0.1014835673	 1.604145539	-0.067992
C	 0.0186873992	-1.1929483602	 2.1285893985	-0.07972
C	-1.4740248409	-1.4343609515	 2.2137020394	-0.415384
C	 0.7966791943	-1.1768231594	 0.825910465	 0.383832
C	 0.1346118258	-1.3887355541	-0.5193544875	-0.458857
O	 2.1114954346	-1.6817500012	 0.8935968499	-0.278486
C	 2.2049446913	-3.0907976554	 0.9243732407	-0.245322
H	 0.3599087113	 2.6138972512	 2.7880312474	 0.115298
H	-1.1001118893	 3.1074991522	 1.9195445363	 0.108023
H	-1.150669115	 1.7321097539	 3.0339223198	 0.118129
H	-1.0874428441	 0.9727259455	 0.6268420694	 0.092251
H	 0.4092108912	 1.844134108	 0.3805995087	 0.100018
H	 1.551867021	 0.3824289184	 2.1216847007	 0.08824
H	 0.5749065198	-1.6342135505	 2.9522412929	 0.085618
H	-2.0250092157	-0.9695042096	 1.3924013633	 0.115318
H	-1.7005431752	-2.50637241	 2.1911337015	 0.115433
H	-1.8822719544	-1.0324674101	 3.1479579777	 0.118207
H	-0.8353636926	-0.8927066277	-0.5835959265	 0.117968
H	 0.7734786664	-0.9885605533	-1.3135457135	 0.124359
H	-0.0304726715	-2.4521418107	-0.7231316962	 0.115141
H	 1.8898057947	-3.5556260786	-0.0207210953	 0.10471
H	 3.2566967959	-3.3352877376	 1.0940683441	 0.123404
H	 1.6043059	-3.522268659	 1.7385197663	 0.102375
