17
gdb 53827	3.91583	0.84846	0.7515	1.6529	69.67	-0.2443	-0.0869	0.1573	1507.1869	0.131872	-458.968888	-458.9591	-458.958156	-459.005834	33.194	
C	-0.3269383849	 1.3939618709	 0.5994993449	-0.474956
C	-0.2132457513	-0.0673940955	 0.2482547828	 0.308597
O	 0.8307600542	-0.6456060875	 0.0549589192	-0.273114
C	-1.5486648121	-0.8455178117	 0.1317776003	 0.279072
O	-2.5971609024	-0.2669270543	 0.2935986743	-0.279373
C	-1.4353495841	-2.3180346888	-0.2201421552	-0.342409
C	-2.7134183533	-3.0781594414	 0.0276696922	 0.10223
C	-2.704574174	-4.5237985343	 0.2766133892	-0.185064
O	-2.8883727617	-3.5971386889	 1.3478533405	-0.231947
H	 0.6665471868	 1.8398924006	 0.6469977469	 0.142953
H	-0.9451850003	 1.911396271	-0.1408250121	 0.157479
H	-0.8435250858	 1.5079164446	 1.5580094691	 0.160016
H	-1.1526472432	-2.3720471609	-1.2819648578	 0.143405
H	-0.598243611	-2.7595598789	 0.3278434067	 0.149319
H	-3.6111308152	-2.628400946	-0.3935111808	 0.111002
H	-3.5767696372	-5.1223352859	 0.0179200954	 0.118173
H	-1.7578824346	-5.063152113	 0.2822698544	 0.114616
