17
gdb 61037	2.40414	1.30216	0.90097	3.2016	70.23	-0.2556	-0.0453	0.2103	1258.7966	0.132458	-458.962879	-458.953562	-458.952618	-458.998192	32.315	
C	-0.1060959178	 1.406731906	 0.0724086844	-0.41677
C	 0.0467688952	-0.1230616127	-0.0422271211	-0.092873
C	 0.7055370193	-0.460363769	-1.3698701594	 0.170914
O	 0.142650606	-0.9682242681	-2.3022355872	-0.240469
C	 0.8858026582	-0.6551825455	 1.1230437582	 0.002237
O	 0.3145925592	-0.3621222403	 2.4224878568	-0.293116
C	 0.2138626835	-1.7496136715	 2.8106553056	-0.192118
C	 0.7915898462	-2.1554172091	 1.4493915901	 0.340847
O	 1.0456034497	-3.1700768785	 0.8797061744	-0.263566
H	 0.8611544111	 1.9099369066	-0.0379469374	 0.123902
H	-0.7800818643	 1.7844153324	-0.7007988272	 0.136581
H	-0.5128715673	 1.6625347022	 1.0532607664	 0.152839
H	-0.9397891258	-0.5967309107	-0.0340172869	 0.104408
H	 1.7769528346	-0.1555640593	-1.438930885	 0.076293
H	 1.9215671583	-0.2891303959	 1.053329741	 0.110291
H	 0.8430967775	-1.9987488465	 3.674083281	 0.139139
H	-0.8175505336	-2.0674226802	 3.0056225465	 0.141461
