16
gdb 56755	2.99335	1.38599	1.13771	4.6618	68.84	-0.2635	0.0105	0.274	1073.8677	0.123587	-437.817878	-437.809876	-437.808931	-437.850803	30.069	
O	 0.1898764449	 1.4521162745	 0.0758789685	-0.402131
C	 0.0517429666	 0.0509692255	 0.0422906126	-0.162142
C	 0.6556552236	-0.537287208	-1.1762532875	 0.272063
N	 1.1259411366	-1.0000253935	-2.1243225949	-0.321438
C	 0.6641632949	-0.5640771976	 1.2828058172	 0.414696
C	 0.3188619132	-0.2856886785	 2.7670466949	-0.265806
C	 1.6747826724	-1.0239150183	 2.6779401931	 0.048146
C	 1.0770924105	-2.0108803308	 1.6446713898	-0.269858
O	 2.0589534201	-0.1266211214	 1.5535286276	-0.351636
H	 1.0998284738	 1.6330803031	 0.3501502297	 0.308562
H	-1.0226435792	-0.164970525	 0.0225123761	 0.146864
H	 0.3739105407	 0.7603445007	 3.0666582361	 0.121395
H	-0.5294183463	-0.8178168731	 3.203297686	 0.105834
H	 2.4219846658	-1.1977617356	 3.4498182741	 0.113021
H	 0.2967038832	-2.6966224939	 1.981185756	 0.1073
H	 1.7957295892	-2.4683467582	 0.9654069207	 0.135129
