16
gdb 128018	4.86557	0.93936	0.7912	5.0057	80.7	-0.2151	-0.0098	0.2053	1408.4726	0.124384	-434.054179	-434.045698	-434.044753	-434.088459	30.174	
C	-0.1592780661	 1.6086302662	-0.0599536176	-0.311942
N	 0.0785723509	 0.1823058343	-0.0564674511	-0.179679
C	-0.9142974944	-0.5740640501	 0.1227766547	 0.090224
N	-0.8567239321	-1.9616257308	 0.1537401728	-0.432757
C	 0.2201728683	-2.803456165	 0.0067055038	 0.562056
C	 0.2652483762	-4.173737115	 0.0392720328	-0.386205
C	 1.6374640191	-4.441780512	-0.1715702272	 0.048105
N	 2.3566265259	-3.3566720409	-0.3175466285	-0.149367
O	 1.4351125259	-2.2947523172	-0.2014786162	-0.186704
H	 0.4445512903	 2.0834243465	 0.7218854205	 0.132044
H	 0.1691703366	 2.0333254443	-1.0154674653	 0.132054
H	-1.2149241092	 1.8866469613	 0.0993890713	 0.092494
H	-1.9452847199	-0.2222343038	 0.2761411362	 0.084118
H	-1.7330612437	-2.4319525099	 0.3065152661	 0.265742
H	-0.5460387692	-4.8655657474	 0.1886028221	 0.109419
H	 2.1322231915	-5.4019957403	-0.2225656244	 0.130399
