22
gdb 7497	3.4541	1.30383	1.16406	0.9499	78.92	-0.2516	0.0812	0.3328	1167.381	0.199128	-350.18965	-350.18036	-350.179416	-350.223519	34.215	
C	-0.0646896457	 1.3770610152	-0.0270580468	-0.224188
O	-0.1036650066	-0.027818229	-0.0613109951	-0.236875
C	 0.7366277282	-0.5816646286	-1.0523293747	-0.09413
C	 0.6387674633	-2.1036811628	-1.0032093641	 0.330589
C	 1.1208875895	-2.6388506165	 0.3407418683	-0.460165
C	-0.7533729007	-2.6063332683	-1.5049280933	-0.243105
C	-0.1400870767	-2.8625178916	-2.9080515524	-0.209492
C	 1.2760335092	-2.7311514142	-2.2838422667	-0.265077
H	 0.9466102454	 1.7537670614	 0.1957687569	 0.10212
H	-0.3891825019	 1.8197406452	-0.9826992678	 0.101428
H	-0.7449495047	 1.7064536634	 0.7624270109	 0.125319
H	 0.4423750998	-0.2072483588	-2.0483601718	 0.078063
H	 1.7834510963	-0.2688629531	-0.8865105001	 0.079589
H	 0.5369810371	-2.2115265401	 1.1609541673	 0.130742
H	 1.0301992313	-3.7292062816	 0.3830880556	 0.103216
H	 2.1743251843	-2.3837913461	 0.5110052434	 0.104943
H	-1.0505213643	-3.5336187495	-1.0068955643	 0.092767
H	-1.5786711417	-1.8948183377	-1.4300095694	 0.102919
H	-0.3808232271	-3.8137016085	-3.388138064	 0.094964
H	-0.3616683358	-2.0610368378	-3.6177347128	 0.100671
H	 2.0101956215	-2.1222593084	-2.8212634691	 0.089575
H	 1.7297597491	-3.7032315528	-2.0706909998	 0.096126
