19
gdb 80183	2.28252	1.65631	1.38204	4.0472	74.19	-0.2661	0.0107	0.2768	1043.7405	0.159568	-423.062908	-423.054506	-423.053561	-423.095729	32.024	
C	-0.3853162748	 1.405013256	-0.1485807824	-0.426179
C	-0.0447694535	-0.0608663017	 0.0156163611	-0.046569
C	 1.3073547573	-0.6316283334	-0.3080031801	 0.059378
O	 2.3768478566	 0.2939576996	-0.4014815525	-0.217205
C	 2.6584209481	 0.8401822183	 0.8204651511	 0.423563
O	 3.463445358	 1.713970943	 0.9573440517	-0.340458
C	 1.8005599012	 0.1731530094	 1.9049729758	-0.147823
C	 1.2641397545	 1.1785329826	 2.9281282552	-0.400327
C	 0.8176780893	-0.6720019773	 1.1178975389	-0.112725
H	 0.4656952663	 2.0629779073	 0.0388319555	 0.145724
H	-0.7215372549	 1.5978564982	-1.1727697513	 0.126349
H	-1.1939575516	 1.6980634194	 0.5284446341	 0.124593
H	-0.8564927214	-0.7264978612	-0.2701775582	 0.096974
H	 1.4557703996	-1.4913384889	-0.9491459827	 0.111211
H	 2.4834625778	-0.5100299408	 2.4299154748	 0.116275
H	 0.5340958807	 1.8579925418	 2.4825657132	 0.12809
H	 0.7802368373	 0.6591919158	 3.7598941718	 0.11742
H	 2.0896992757	 1.7771444604	 3.3218143299	 0.143511
H	 0.4798694337	-1.6021329784	 1.559067694	 0.098196
