18
gdb 31739	6.17944	0.86608	0.77386	1.5022	77.39	-0.1741	0.0482	0.2223	1487.284	0.148372	-435.290975	-435.281609	-435.280665	-435.32535	33.484	
C	 0.1333732533	 1.3825067345	-0.1037321283	-0.326427
N	-0.0685605428	-0.0414847758	 0.071524588	-0.376291
C	 0.569480809	-0.6623913778	 1.1256566462	 0.308722
C	 1.1251133653	-0.1404168555	 2.2499962385	-0.161572
O	 1.58098612	-1.2247440669	 3.014481893	-0.196233
C	 1.2688704121	-2.2988930842	 2.2744912055	 0.504225
N	 1.550874059	-3.5285758308	 2.7947590874	-0.383505
C	 2.5723782003	-3.6942892465	 3.8154657813	-0.32872
N	 0.6778591171	-2.0498977612	 1.1404207083	-0.434168
H	 1.1945163	 1.6676490782	-0.1910116329	 0.110012
H	-0.3960668721	 1.7161138582	-0.9988738112	 0.124252
H	-0.2882301113	 1.9221670789	 0.752186337	 0.131502
H	-0.0217125144	-0.5922067386	-0.7733551368	 0.241246
H	 1.2815849574	 0.8359553458	 2.6659084838	 0.123584
H	 1.4731450257	-4.2606072982	 2.1059440933	 0.257453
H	 3.5892753063	-3.4830198603	 3.4545104967	 0.122317
H	 2.3626812695	-3.025231305	 4.652356339	 0.153815
H	 2.5363905658	-4.7224369849	 4.1817944512	 0.129788
