15
gdb 15705	3.32863	1.79869	1.28208	2.7496	58.16	-0.2673	0.011	0.2783	918.6387	0.119614	-436.939095	-436.931575	-436.930631	-436.971474	26.805	
O	 0.0520846528	 1.3442790548	-0.2452363488	-0.417969
C	 0.0283434855	-0.0596368394	-0.1188022193	-0.064882
C	-1.3761215721	-0.5495844268	 0.245729568	-0.010218
O	-2.3266404405	-0.1488390939	-0.7493896997	-0.269237
C	-2.5714332948	-1.267951702	-1.5651487223	 0.015945
O	-2.2741577548	-2.4272134775	-0.7925938347	-0.232063
C	-1.4957522761	-2.0571444141	 0.2673039168	 0.388316
N	-0.9597314966	-2.8262634923	 1.1073918495	-0.533561
H	-0.6574357062	 1.5771637158	-0.8557356027	 0.290253
H	 0.3661884692	-0.5603432903	-1.0414592372	 0.087919
H	 0.7206396774	-0.3359707459	 0.6811251251	 0.139514
H	-1.6825874358	-0.1065096169	 1.1966458612	 0.129197
H	-3.6277304545	-1.2858022508	-1.8484907591	 0.134125
H	-1.9354303369	-1.2700066803	-2.4635219471	 0.110946
H	-1.1637580265	-3.8044164904	 0.8985815603	 0.231716
