17
gdb 31743	6.13917	0.82931	0.74207	1.8855	72.51	-0.1959	0.0334	0.2294	1490.2413	0.135075	-458.971141	-458.962042	-458.961098	-459.006227	32.188	
C	-0.1960919708	 1.4663090733	-0.0174182471	-0.245588
O	-0.0358672936	 0.0667972297	-0.2424224273	-0.268136
C	-1.1092019518	-0.7084206141	-0.0669599064	 0.488124
C	-1.2616503783	-2.0473605522	-0.2545610829	-0.465477
C	-2.6269137955	-2.3301147353	 0.1058970926	 0.231464
C	-3.3185833419	-3.6611073638	 0.0799051075	-0.164052
O	-4.5218753803	-3.6721679945	 0.8311221248	-0.410821
C	-3.1813243609	-1.1492278592	 0.4806182689	-0.13525
O	-2.2493252868	-0.1360871402	 0.3796442803	-0.196611
H	 0.7775684276	 1.9105712776	-0.225399589	 0.1386
H	-0.9501612866	 1.8913617306	-0.6877571565	 0.135585
H	-0.4848379947	 1.6709288369	 1.0184403556	 0.135723
H	-0.5064611424	-2.73455536	-0.5981457518	 0.110232
H	-3.6109307085	-3.9233991609	-0.9440938167	 0.127246
H	-2.6232400304	-4.4473955939	 0.4161174232	 0.097146
H	-4.2934482516	-3.4224540895	 1.7330732737	 0.281391
H	-4.1616305934	-0.8531123645	 0.807859651	 0.140424
