23
gdb 91359	2.04907	1.91603	1.38154	1.4298	83.89	-0.2543	0.0721	0.3264	1073.1112	0.209029	-388.313022	-388.304832	-388.303888	-388.345222	33.774	
C	-0.1213424363	 1.5684687854	-0.0281203634	-0.412
C	 0.0228058146	 0.0461365206	 0.0002721668	 0.070866
C	 0.7260367422	-0.5744578076	-1.2535983784	-0.229407
C	 1.720837195	-1.5897748173	-0.6452385902	 0.006555
C	 2.8992642858	-0.8024164347	-0.028984106	-0.258151
C	 2.2745401746	-0.1857889421	 1.2670275199	 0.148811
O	 2.4253744959	 1.2191935742	 1.3983272934	-0.43698
C	 0.7940398358	-0.6111829461	 1.179614844	-0.045202
C	 0.9694263842	-2.0459767782	 0.6288015401	-0.228061
H	 0.8417293145	 2.0640272649	-0.1522663671	 0.130035
H	-0.7785933983	 1.8662998696	-0.8533587744	 0.096697
H	-0.5659190952	 1.9413194073	 0.9010125909	 0.105215
H	-0.991404624	-0.3700527773	 0.0564671637	 0.065075
H	 0.0035752267	-1.0664028865	-1.9125678063	 0.088002
H	 1.2410186023	 0.1861996895	-1.8499843215	 0.091468
H	 2.0282554375	-2.3788061447	-1.3346585683	 0.052323
H	 3.7415343472	-1.4598895615	 0.2100111516	 0.086403
H	 3.2667283187	-0.0130074256	-0.6926004473	 0.093441
H	 2.7100519983	-0.67643102	 2.1509764678	 0.062665
H	 3.365025089	 1.4075252106	 1.4820070916	 0.280229
H	 0.2729845377	-0.5190200938	 2.1353189934	 0.054766
H	 0.0169253243	-2.5427891825	 0.4217329262	 0.090896
H	 1.5689784193	-2.6947185642	 1.2758931636	 0.086353
