18
gdb 96405	2.1015	1.72922	1.21198	4.8241	71.84	-0.2795	0.0314	0.3109	1079.0416	0.148733	-439.104527	-439.096265	-439.095321	-439.137325	31.002	
C	-0.0298677046	 1.527620646	-0.0863106284	-0.419286
C	 0.0497277069	 0.0141722576	-0.0006333138	 0.1203
O	 0.6824938318	-0.4621489527	-1.1791505875	-0.241124
C	 0.7547580513	-1.862845282	-1.2148986997	 0.020376
O	 1.5036538767	-2.3938650332	-0.1522958995	-0.225002
C	 0.9352235669	-2.0589278788	 1.0949530554	-0.102701
C	 0.8125372737	-0.5235112742	 1.2427021713	-0.183538
C	 2.1293381214	 0.0988638051	 1.3880239755	 0.30126
N	 3.1627087851	 0.5970871679	 1.5264666739	-0.33097
H	 0.9711766082	 1.962828008	-0.1395496746	 0.158198
H	-0.5839404303	 1.817077639	-0.9825390855	 0.133094
H	-0.5437279758	 1.9355193641	 0.7895251462	 0.120451
H	-0.9676813213	-0.411111538	 0.0595982046	 0.075463
H	-0.2665218163	-2.290419806	-1.2001848145	 0.080107
H	 1.2701544642	-2.1347262111	-2.1369650943	 0.130785
H	-0.0727484886	-2.4950975002	 1.1939666979	 0.099603
H	 1.578779207	-2.4851981361	 1.8668166945	 0.136592
H	 0.2286791137	-0.2970595954	 2.1432280084	 0.126393
