18
gdb 99058	3.15805	0.86997	0.78498	4.0823	73.92	-0.2895	-0.0038	0.2857	1529.8796	0.144643	-439.141593	-439.13123	-439.130286	-439.180301	35.113	
C	-0.3420982885	 1.3968681862	 0.0244292687	-0.37474
C	 0.2833617211	 0.0044493444	 0.0023872204	-0.307099
C	 0.8066867319	-0.3813821201	-1.3622140494	 0.461219
O	 0.7337399848	 0.2772583319	-2.365046948	-0.340755
O	 1.3964028943	-1.6118765343	-1.3088857415	-0.255039
C	 1.9199548182	-2.1283190151	-2.5441866315	-0.012713
C	 3.2081245269	-2.8861117668	-2.2343632456	-0.398489
C	 0.9092547975	-3.0007417612	-3.1661371448	 0.273937
N	 0.1323147664	-3.6984564441	-3.6596689544	-0.313302
H	 0.3866541145	 2.1597390503	-0.2609450823	 0.133728
H	-1.1769184119	 1.4615862581	-0.6774828612	 0.139245
H	-0.7124677832	 1.6303399364	 1.0260466294	 0.117929
H	 1.1131949596	-0.0804601054	 0.7137187106	 0.136525
H	-0.4364548764	-0.765955398	 0.3040884973	 0.144234
H	 2.1020371312	-1.2888667071	-3.2212892746	 0.160867
H	 3.9357994372	-2.1971984975	-1.799381087	 0.13798
H	 3.0169104966	-3.6962119984	-1.5272609779	 0.150257
H	 3.6240184496	-3.3098169091	-3.1517510082	 0.146217
