21
gdb 94810	2.31717	1.6352	1.23401	1.4625	77.93	-0.2403	0.0591	0.2993	1106.7207	0.182013	-424.214947	-424.205671	-424.204727	-424.249879	34.913	
C	 0.9010753456	 1.3457237977	-0.1944325992	-0.38171
C	-0.0021281117	 0.1419288316	 0.0608220669	 0.095004
O	 0.029840425	-0.7780219514	-1.0339215463	-0.280469
C	 0.8575127761	-1.9058519592	-0.7270303655	-0.140812
C	 1.4053855061	-1.6746303489	 0.6695455526	 0.325729
C	 2.1069197494	-2.7360945855	 1.4613821727	-0.34249
C	 2.8820507091	-1.5471172347	 0.9432116581	-0.297301
C	 0.413068547	-0.7050851753	 1.2902201227	 0.008052
O	 0.9959921946	 0.0101616484	 2.3624383031	-0.428261
H	 1.9490536729	 1.0436060351	-0.2712083987	 0.125043
H	 0.608663897	 1.8295713917	-1.130381984	 0.117532
H	 0.8184399528	 2.0738917272	 0.6178460164	 0.105858
H	-1.0419173832	 0.4825420391	 0.1519585848	 0.066376
H	 0.2392380351	-2.8140526684	-0.7765239356	 0.096262
H	 1.6515639111	-1.9992276458	-1.4789964687	 0.099986
H	 1.9106342486	-2.7786727825	 2.5279232362	 0.117644
H	 2.268164617	-3.7023990917	 0.993542331	 0.109476
H	 3.5630644507	-1.702644457	 0.112529889	 0.107158
H	 3.1965074048	-0.8018049891	 1.6633770369	 0.13446
H	-0.4657477832	-1.2678169779	 1.6424807282	 0.072556
H	 0.2924459251	 0.4374735867	 2.8592333296	 0.289908
