14
gdb 2756	4.24362	2.37095	1.73766	2.9068	57.48	-0.2688	0.0162	0.285	720.6476	0.113438	-324.573866	-324.566881	-324.565937	-324.605498	24.323	
C	-0.2736635638	 1.5160300117	-0.0323727421	-0.403319
C	 0.0936431936	 0.04907293	-0.0295741931	 0.152942
O	 1.2991164091	-0.2297759334	-0.7773100008	-0.279101
C	 1.9494474287	-0.8309448907	 0.3513547432	-0.072807
C	 0.7185299621	-0.5768985644	 1.2642400834	-0.231468
C	 0.9206933335	 0.2985480375	 2.4039425526	 0.284524
N	 1.0879203386	 1.0017925265	 3.3064714836	-0.326941
H	 0.5321627945	 2.1270412801	 0.3823047856	 0.141748
H	-0.4641958312	 1.8399003951	-1.059861205	 0.134576
H	-1.1800704762	 1.6870049313	 0.5574338473	 0.130294
H	-0.7395751728	-0.558579037	-0.4053285901	 0.09138
H	 2.1784698086	-1.890266333	 0.1891772674	 0.116731
H	 2.8623252846	-0.3000034824	 0.6402503869	 0.12827
H	 0.2152618308	-1.4871627014	 1.5947983312	 0.133171
