18
gdb 35340	3.6764	1.36022	1.21519	2.0317	84.28	-0.2127	0.0324	0.2452	1061.393	0.14758	-364.616194	-364.608792	-364.607848	-364.647685	30.424	
C	-0.1002995037	-1.3071063146	-0.0421500882	-0.466986
C	-0.0484788127	-0.1052323123	-0.0090007768	 0.361253
C	-0.0312867005	 1.3392486582	 0.0169039988	-0.258506
C	-0.359179053	 2.0586867298	 1.4276690698	-0.354535
C	 1.1493620256	 2.4058538625	 1.4690366207	 0.25155
C	 2.4233978712	 3.3105845792	 1.3747082846	-0.250494
N	 2.8100830734	 2.0698262017	 0.4973192667	-0.180794
C	 2.1786541371	 1.259657995	 1.6358459731	-0.196601
C	 1.318084607	 2.2119978241	-0.0027423132	 0.024059
H	-0.129196808	-2.3681792486	-0.0723523014	 0.199222
H	-0.6824460774	 1.7081895244	-0.7810760879	 0.119007
H	-1.02226172	 2.9132035162	 1.2728351814	 0.114925
H	-0.7563396941	 1.4195198155	 2.2188659548	 0.118502
H	 2.3391381598	 4.2415452308	 0.8084773468	 0.108337
H	 3.0813197819	 3.4176111009	 2.2423488505	 0.107079
H	 2.7772134763	 1.2563812626	 2.5513726956	 0.093502
H	 1.89848116	 0.2479066108	 1.3468510795	 0.130551
H	 1.2146176972	 3.0547459937	-0.6898435447	 0.079931
