13
gdb 35024	2.89359	1.3404	1.09744	2.3941	68.75	-0.2904	-0.0261	0.2643	1063.7361	0.089514	-415.580303	-415.5728	-415.571856	-415.612654	27.179	
N	 0.0506769798	-1.1466973454	 0.006681325	-0.326081
C	 0.0345910534	 0.0088071367	 0.0324390421	 0.325336
C	 0.035238064	 1.4457508852	 0.0637909061	-0.277823
C	 0.5295888572	 2.2283807778	 1.2547994397	 0.071491
O	 1.5191009547	 1.5355282563	 1.9746671511	-0.260659
C	 2.4142988748	 1.5541780212	 0.8264676438	-0.140673
C	 1.3465879937	 2.244744297	-0.0320644345	 0.114208
C	 1.5616759147	 3.2453786209	-1.0191193394	 0.201183
N	 1.7402889369	 4.0613149824	-1.8199459797	-0.330648
H	-0.7828764151	 1.9217046043	-0.4686185844	 0.166318
H	-0.0546043415	 2.9918363289	 1.7545535314	 0.152272
H	 3.2736180619	 2.1989284983	 1.0242394814	 0.149897
H	 2.7299192854	 0.5532127163	 0.5220120574	 0.15518
