19
gdb 86512	3.84029	0.93437	0.8368	2.6829	83.6	-0.2602	-0.0551	0.2052	1421.5443	0.157037	-385.863797	-385.854333	-385.853389	-385.898933	34.54	
C	-0.7738354568	 1.0586330198	 0.0597137515	-0.411269
C	 0.2721426673	-0.0339142447	 0.2091060331	 0.068636
C	 1.3008336979	-0.2485738315	-0.9387793597	-0.254485
C	 2.4216558687	-0.4154760811	 0.1164998	-0.111424
C	 1.4565735863	 0.2075642353	 1.1876338466	-0.243765
C	 2.7605229942	-1.8537127303	 0.441235722	 0.226546
O	 2.199095131	-2.8112738069	-0.0482460177	-0.296163
C	 3.8114854223	-2.0236886218	 1.4357066959	 0.257666
C	 4.6857602322	-2.1458884828	 2.2543607991	-0.40493
H	-0.3064949445	 2.020874754	-0.1807877361	 0.1095
H	-1.4814812497	 0.822458	-0.7427397355	 0.118567
H	-1.3497564719	 1.1892913901	 0.9828313863	 0.115427
H	-0.2121316371	-0.9867604436	 0.4453281605	 0.089097
H	 1.1396631724	-1.1025712221	-1.5978472622	 0.121797
H	 1.4455329567	 0.6561005326	-1.5363197588	 0.093614
H	 3.3526982892	 0.1370914825	-0.0371992895	 0.093295
H	 1.6661451256	 1.2716832793	 1.3291595556	 0.105213
H	 1.4200223802	-0.2737736467	 2.1682782144	 0.109582
H	 5.455703326	-2.273459422	 2.9760890843	 0.213096
