23
gdb 53115	1.98775	1.2053	0.85176	0.1376	95.14	-0.2363	0.0563	0.2926	1491.0222	0.203766	-351.135932	-351.125096	-351.124152	-351.173356	38.824	
C	 0.0113431816	 1.5774811569	-0.0264963161	-0.497958
C	 0.0067433028	 0.1208750144	-0.0085959328	 0.010691
C	 0.0111249073	-1.0851242013	-0.0033905528	 0.137993
C	 0.0178555285	-2.5369754587	 0.001096739	-0.227483
C	 0.2484412742	-3.1971314562	 1.415430637	 0.049768
C	 1.0207766726	-2.4512698045	 2.4889659274	-0.41307
C	-1.287917423	-3.357252077	 1.545924851	-0.239479
C	-1.4095409151	-3.2091625629	 0.0076295134	 0.049773
C	-2.6003098212	-2.4775382789	-0.5857277986	-0.413075
H	 1.0192604215	 1.975372425	 0.1371085322	 0.145971
H	-0.3438732872	 1.9658889216	-0.9877123911	 0.145969
H	-0.6364081229	 1.9902986411	 0.7550372833	 0.144711
H	 0.6883439211	-2.8989741638	-0.7854525886	 0.085735
H	 0.701713663	-4.180373945	 1.2467750546	 0.071411
H	 0.6175234182	-1.4451163127	 2.6366206902	 0.123134
H	 0.9666184147	-2.985493206	 3.4442978496	 0.108566
H	 2.0787970787	-2.3496448411	 2.2228699508	 0.112247
H	-1.6725132053	-4.2710451574	 2.0066726196	 0.089598
H	-1.7281695794	-2.4937172497	 2.0570348823	 0.100142
H	-1.3082919129	-4.1949608632	-0.4599353032	 0.071411
H	-2.6890890867	-1.4690912069	-0.1711026523	 0.123136
H	-2.5101130361	-2.3829741815	-1.6735998888	 0.112242
H	-3.5297016342	-3.0180818325	-0.3735223661	 0.108567
