16
gdb 131497	3.81282	1.28524	1.0642	4.3649	69.71	-0.2535	0.0128	0.2663	1104.1641	0.126218	-434.060361	-434.052661	-434.051717	-434.093418	28.276	
O	-0.1239913647	 1.2242614361	 1.2389648509	-0.411604
C	 0.024628466	 0.1179738274	 0.4064698391	 0.078353
C	-0.6405206567	-1.1877679357	 0.7504416094	-0.324727
C	-1.1901054559	-0.3313178006	-0.3673107082	 0.00777
N	-2.4354321603	 0.3333738057	-0.1517660389	 0.038275
C	-2.7163664056	 1.6558101022	-0.1719387325	 0.034696
N	-4.0079899677	 1.8583152228	-0.0002669929	-0.284789
C	-4.4894384656	 0.5890252239	 0.1190333401	 0.037628
N	-3.5858129955	-0.3712015648	 0.0341855463	-0.248978
H	 0.33209707	 1.0460068811	 2.0677665394	 0.298455
H	 0.9684686101	 0.0760053625	-0.1365759726	 0.101685
H	-0.1521401723	-2.1203854825	 0.4937924212	 0.127886
H	-1.2406892095	-1.2066960698	 1.6526654719	 0.143651
H	-1.0383784836	-0.6650593245	-1.3890166945	 0.123743
H	-1.9519931831	 2.407356392	-0.2870112061	 0.153669
H	-5.5349785157	 0.3678373344	 0.2753123572	 0.124286
