19
gdb 71741	2.83404	2.19577	1.65291	1.8109	76.22	-0.2373	0.0906	0.3279	878.7536	0.162132	-385.870811	-385.864403	-385.863458	-385.90104	27.893	
C	 0.0255415716	 1.5007941312	-0.0129798444	-0.499106
C	 0.0590988073	-0.009683783	-0.0589983061	 0.324533
C	 0.5300206881	-0.7167969647	-1.3207565125	-0.301767
C	 0.3698948703	-2.1488412516	-0.8414691411	-0.071209
C	-0.7940948596	-2.2067106105	 0.1245565069	-0.081315
C	 0.6335062463	-2.1909656341	 0.6485511635	-0.081314
C	 0.6436955328	-0.7499928811	 1.1955762677	 0.02424
O	-0.641777347	-0.6011147967	 1.8682896717	-0.302618
C	-1.1837209331	-0.7701474663	 0.5248317844	 0.024243
H	 1.0227318218	 1.9244103	-0.1771664353	 0.11309
H	-0.6368168051	 1.9060920071	-0.7861631307	 0.113091
H	-0.3356932318	 1.8417434293	 0.9611371625	 0.134367
H	-0.1009251094	-0.4863637092	-2.1874170237	 0.097782
H	 1.5671605589	-0.4679655728	-1.5751504311	 0.097782
H	 0.610442304	-2.9973323849	-1.471334916	 0.084106
H	-1.4579376104	-3.0543064706	 0.2212713594	 0.090537
H	 1.0935041075	-3.0261667717	 1.1577670496	 0.090537
H	 1.492011424	-0.3958484554	 1.7810405759	 0.071509
H	-2.2160396762	-0.436742215	 0.4200194893	 0.071509
