25
gdb 57460	2.78985	1.16358	1.02529	0.1415	92.83	-0.2331	0.0323	0.2654	1332.3381	0.228684	-352.379323	-352.369456	-352.368512	-352.413399	38.875	
C	 0.063054434	 1.5800690008	 0.2502811578	-0.409984
C	 0.0054587617	 0.0559112263	 0.032516729	 0.239806
C	 0.7501684762	-0.6410569272	 1.188363758	-0.403923
C	-1.4683264573	-0.3955279898	 0.0559610901	-0.403946
C	 0.6448658915	-0.3799148968	-1.3144876293	 0.051234
C	-0.0270546549	 0.1694391318	-2.6089686904	-0.28742
C	 1.1236556577	 0.307753367	-3.5743286618	-0.063669
C	 2.3036188463	 0.1772707648	-2.9719149663	-0.063674
C	 2.1625509962	-0.0727599688	-1.4911102978	-0.287404
H	 1.0913227763	 1.9539928478	 0.2706024328	 0.111901
H	-0.4757424298	 2.1274809553	-0.5292018134	 0.111895
H	-0.397642612	 1.8407668826	 1.2094847241	 0.108379
H	 0.2846015433	-0.4020540134	 2.1508853796	 0.104855
H	 0.7308712057	-1.7305732861	 1.0707921526	 0.105685
H	 1.7978487172	-0.328572866	 1.2410739868	 0.111837
H	-2.0548911553	 0.0979532066	-0.7253630405	 0.111835
H	-1.5525032439	-1.4778426784	-0.0948880706	 0.105689
H	-1.9327296183	-0.15680861	 1.0191144223	 0.10486
H	 0.5455316042	-1.4724519699	-1.356589448	 0.069563
H	-0.8131960263	-0.498746076	-2.9786210463	 0.100743
H	-0.5107187894	 1.1432932701	-2.448947007	 0.103543
H	 0.9782506204	 0.5255162554	-4.627105339	 0.086954
H	 3.2690280204	 0.2721953013	-3.4575838217	 0.086952
H	 2.4797093182	 0.8125023655	-0.9222058756	 0.103543
H	 2.7920237178	-0.8975334928	-1.1380463253	 0.100745
