18
gdb 107260	2.45641	1.80023	1.26213	4.1006	71.18	-0.225	0.0526	0.2776	1019.2542	0.14678	-438.981404	-438.973283	-438.972339	-439.013611	32.424	
O	-0.1275774195	 1.467052742	 0.0608971179	-0.420798
C	-0.0646608352	 0.0640928461	-0.1001437438	-0.155974
C	-1.4032091397	-0.6114169897	 0.0277790844	 0.222584
C	-1.8531106239	-1.7832723575	-0.7522104368	-0.306235
N	-2.4799912073	-0.4666560287	-1.0144671186	-0.16243
C	-3.4462335871	-0.1002158163	 0.0972179541	-0.049539
C	-3.6076773073	-1.0696303509	 1.2533813953	-0.371358
C	-2.3919877574	-0.1955639511	 1.1545255034	 0.314496
O	-2.0340964851	 0.7500599949	 2.109718197	-0.455207
H	-0.5787725833	 1.6328055512	 0.8986266594	 0.292075
H	 0.3339021307	-0.1223865692	-1.1029344698	 0.11561
H	 0.6359013193	-0.3959151672	 0.6202129909	 0.078513
H	-1.2226018826	-2.0965041377	-1.5804246591	 0.125413
H	-2.4173054014	-2.5937597925	-0.3057214251	 0.117584
H	-4.1777671152	 0.6657286267	-0.1225877455	 0.11826
H	-4.3254283049	-0.6963606582	 1.9788406595	 0.125321
H	-3.5965104563	-2.150926924	 1.1675163993	 0.116267
H	-1.7410453139	 0.288366162	 2.9039111575	 0.295416
