19
gdb 71954	2.90973	1.8821	1.64744	0.4755	72.95	-0.2404	0.084	0.3244	909.7462	0.161823	-423.036292	-423.029562	-423.028618	-423.066927	28.505	
C	 0.0311985401	 1.531458642	 0.1126775879	-0.489492
C	-0.0165012466	 0.0318026811	-0.0287070494	 0.40264
C	 0.7471945206	-0.6038444764	-1.2131787343	-0.255321
C	-0.0587765122	-1.9125872599	-1.382567016	 0.045107
C	 0.0169498477	-2.7321844734	-0.0726022094	-0.226959
C	-0.598843902	-1.7084445729	 0.8978473979	 0.063578
O	 0.3570524433	-0.6658402515	 1.1945910802	-0.339601
C	-1.355894831	-0.7796561757	-0.1005058165	 0.011149
O	-1.4165202624	-1.428029926	-1.3486108861	-0.258112
H	 1.0607060518	 1.8746756392	 0.2611470617	 0.12817
H	-0.3620660286	 2.0136074828	-0.7879363247	 0.123163
H	-0.5615893377	 1.8560187572	 0.9726793383	 0.123961
H	 0.6625487693	 0.0038648577	-2.1189837207	 0.103073
H	 1.8013883806	-0.751945931	-0.9692257104	 0.108372
H	 0.1066330648	-2.4641341133	-2.3073375901	 0.079992
H	-0.6029623967	-3.6295740918	-0.157802511	 0.105526
H	 1.0286567829	-3.0120391823	 0.2282290579	 0.109537
H	-1.0712333557	-2.1122508156	 1.7943639946	 0.078703
H	-2.300916428	-0.3133385401	 0.1671042601	 0.086514
