17
gdb 55054	3.9674	0.86709	0.79741	6.863	74.48	-0.2633	0.0091	0.2724	1417.7768	0.135843	-418.050402	-418.041079	-418.040134	-418.085354	33.227	
N	-0.029641541	 1.311647434	 0.20656001	-0.534909
C	-0.0000734884	 0.072259277	-0.3596444682	 0.428101
O	 0.9817102788	-0.3416732382	-0.9570688377	-0.379007
C	-1.2530575102	-0.7302125383	-0.1827683656	-0.153883
C	-1.591471954	-1.7522878754	-1.2520788354	-0.273302
C	-1.1794695397	-2.227419702	 0.1024785522	-0.000686
C	 0.1520184847	-2.9333552499	 0.3195893925	-0.376938
C	 0.0489900576	-4.3659872624	 0.042652745	 0.261973
N	-0.046853134	-5.4973335522	-0.1728345228	-0.311459
H	 0.7697679489	 1.9101279422	 0.0779964505	 0.26584
H	-0.8502269227	 1.6868621717	 0.6474382015	 0.262212
H	-2.0835086573	-0.2122870004	 0.2865151636	 0.085775
H	-2.6271829892	-1.8509823447	-1.5544183762	 0.124348
H	-0.8605127709	-1.8378215569	-2.0487120793	 0.150219
H	-1.9763584894	-2.5912105152	 0.7441217654	 0.111574
H	 0.9166246018	-2.4874131947	-0.3224696057	 0.19354
H	 0.4897354351	-2.8063861446	 1.3550767903	 0.146602
