18
gdb 67682	2.21877	2.19416	1.66299	3.3478	75.39	-0.2447	-0.0237	0.221	915.8951	0.149165	-401.894724	-401.887558	-401.886614	-401.9259	28.827	
C	-0.0659239981	 1.5784966797	-0.1297741428	-0.513845
C	-0.096364336	 0.0806731136	-0.0270060909	 0.271954
C	-0.1941812181	-0.9548008943	-1.0947327201	-0.150713
C	 1.2087655961	-1.6400313719	-1.1330343348	-0.09098
O	 1.9985986777	-1.0182530317	-0.0546881128	-0.259427
C	 0.9168925043	-0.7616384486	 0.7572391567	 0.215666
N	 0.4904212108	-1.5975601006	 1.6125264855	-0.218983
C	-0.9836826414	-1.5978538502	 1.4528867374	-0.185797
C	-1.2163656084	-0.8878805991	 0.1104745451	-0.119433
H	 0.9072362332	 1.9250939769	-0.4934272317	 0.133829
H	-0.8309166011	 1.9308119379	-0.8288397936	 0.122167
H	-0.2523214878	 2.0535341468	 0.8394709005	 0.128006
H	-0.6422408184	-0.7276902314	-2.0577188524	 0.097016
H	 1.1853117934	-2.7187843259	-0.9525082727	 0.12627
H	 1.7159807823	-1.4213841749	-2.0762334987	 0.122637
H	-1.2970772194	-2.6475261074	 1.4693061494	 0.121245
H	-1.520009818	-1.0838307578	 2.2626293011	 0.112364
H	-2.2284090412	-0.6242597312	-0.1842202254	 0.088026
