18
gdb 35899	2.78485	1.51433	1.20122	2.9128	77.23	-0.2436	0.0524	0.296	1069.7382	0.148947	-401.883014	-401.875147	-401.874203	-401.915436	30.753	
C	-0.1490383328	-1.2402767228	-0.3116587412	-0.491917
C	-0.0556473868	-0.0575532258	-0.121008423	 0.369641
C	 0.0240168842	 1.3840823337	 0.0920446822	-0.190969
C	-0.6777476919	 1.8400530423	 1.3995579112	-0.086949
O	 0.1401135154	 1.700643386	 2.5382975722	-0.228661
C	 1.216196191	 2.616906019	 2.5386707904	-0.083173
C	 2.0589513402	 2.5216326301	 1.2835924867	-0.044354
N	 2.4467796567	 1.1654794484	 0.8875908662	-0.305729
C	 1.4725041743	 1.8952442726	 0.0662513205	-0.046716
H	-0.2177208387	-2.2880090356	-0.4684013998	 0.193279
H	-0.5097800466	 1.8762101332	-0.7324371546	 0.101942
H	-0.9819721942	 2.8937325398	 1.2790112986	 0.08249
H	-1.5720169626	 1.2391698127	 1.5775141399	 0.120193
H	 0.8389654274	 3.6504151589	 2.637795534	 0.084463
H	 1.8159221052	 2.3844536349	 3.4241797707	 0.116149
H	 2.7710996185	 3.3339427643	 1.1471704541	 0.085677
H	 3.3562737607	 1.1657496187	 0.4350400009	 0.233137
H	 1.8090296302	 2.2582137595	-0.901394839	 0.091499
