15
gdb 132046	2.32219	1.82656	1.0289	4.929	72.74	-0.2145	-0.0324	0.1821	1082.6904	0.112988	-461.985925	-461.978051	-461.977107	-462.018617	29.312	
C	-0.0240984316	 1.5341705369	 0.0180914197	-0.49765
C	-0.0040884067	 0.0292433372	 0.0075023759	 0.178498
C	-0.1069457953	-0.6764140277	-1.1529862766	 0.05944
F	-0.229491809	-0.0543132159	-2.3263254348	-0.063978
C	-0.0947629616	-2.1305908195	-1.23633131	 0.35265
O	-0.1838104606	-2.7996014796	-2.2502150878	-0.389648
N	 0.0360427016	-2.7253289856	 0.026761632	-0.378158
C	 0.141745245	-2.0555297243	 1.2116195939	 0.035159
C	 0.1250990324	-0.7002650882	 1.2340784199	-0.234124
H	 0.898314051	 1.9280543498	 0.4589615263	 0.139771
H	-0.1265805303	 1.9369824763	-0.9893747966	 0.149194
H	-0.8561528507	 1.90359995	 0.6276014713	 0.139815
H	 0.0479184835	-3.7355733527	 0.004059318	 0.264939
H	 0.2364468051	-2.6680224413	 2.0991697966	 0.136259
H	 0.2090197571	-0.1701650855	 2.1736058823	 0.107832
