19
gdb 82632	2.32239	1.7412	1.34368	1.6398	75.42	-0.2292	0.0692	0.2984	1031.4719	0.158459	-422.972147	-422.963582	-422.962638	-423.004628	33.549	
C	-0.1293456988	 1.4299671691	 0.0296379404	-0.516261
C	 0.0126697488	-0.0621635659	 0.0495772724	 0.283681
C	-0.0833981924	-0.9178180883	-1.2496058984	-0.199066
C	 0.6135626449	-2.2482254572	-0.9735144033	-0.223949
C	 0.0240130152	-2.1531855479	 0.4573018024	-0.20681
C	 0.7424359995	-0.9132073024	 1.0727210788	 0.095797
O	 2.1508849166	-0.8371012975	 1.0434419278	-0.441624
C	-1.0500483116	-1.1143259368	-0.1031781998	 0.321631
O	-2.4037304337	-0.967368745	 0.0493377844	-0.453395
H	 0.8177889263	 1.9154056208	-0.2288406208	 0.128173
H	-0.88005019	 1.7432651853	-0.7029952894	 0.121014
H	-0.4456687866	 1.8088403167	 1.0080102199	 0.118545
H	-0.2543140705	-0.419984329	-2.1959957703	 0.083396
H	 0.1698079546	-3.0672695065	-1.5469858893	 0.086677
H	 1.7044967432	-2.2824268802	-1.0427423817	 0.102473
H	-0.1712672558	-3.0408886203	 1.0566584754	 0.062876
H	 0.3504139367	-0.704029096	 2.0790309697	 0.06598
H	 2.5003629157	-1.3958227082	 1.7452193991	 0.280083
H	-2.8487265022	-1.6165454907	-0.5073019471	 0.290781
