21
gdb 88204	3.45099	1.17618	1.01141	1.7523	78.84	-0.2441	0.0853	0.3294	1247.7831	0.183223	-424.224563	-424.216009	-424.215065	-424.257535	33.216	
C	-0.0257038599	 1.5179347448	-0.1697026	-0.425085
C	-0.0026773745	 0.0336709346	 0.0930720623	 0.004316
O	 1.2637185905	-0.6373720233	 0.000878884	-0.309206
C	 0.5842156261	-0.6185032911	 1.2745905012	 0.396472
C	 1.3000882448	 0.1283561261	 2.3849814602	-0.281095
C	 2.3561454681	-0.7918008524	 3.0149168412	-0.074858
O	 1.7891295482	-2.0088676276	 3.4684005861	-0.248231
C	 1.213941899	-2.7508150155	 2.4055075535	-0.076338
C	 0.0746546887	-1.9742785234	 1.7331536322	-0.274624
H	 0.7754752093	 2.0413310422	 0.3551649364	 0.126519
H	 0.0917437131	 1.7100091615	-1.2414005637	 0.130837
H	-0.9854341505	 1.9442618966	 0.1422898	 0.121999
H	-0.8125805911	-0.5131482484	-0.3975479551	 0.08
H	 1.7800069929	 1.0338125693	 2.0057115034	 0.10343
H	 0.5752218908	 0.420423964	 3.1547677115	 0.105343
H	 3.1499623802	-0.993549965	 2.276886686	 0.100988
H	 2.8144219015	-0.3205738044	 3.8888236415	 0.105616
H	 1.9820909393	-2.9963907688	 1.6538425399	 0.101012
H	 0.8518134073	-3.6856944181	 2.8420841247	 0.105602
H	-0.7394799633	-1.8347960833	 2.4550293642	 0.104497
H	-0.3168234004	-2.5368100878	 0.8796855005	 0.102804
