15
gdb 18537	4.05155	2.07406	1.63527	2.7493	66.45	-0.2565	-0.0049	0.2516	791.873	0.121326	-362.67391	-362.667757	-362.666813	-362.704252	24.09	
N	 0.1540796509	 1.0593805289	 0.4734940389	-0.545497
C	 0.044141538	-0.1055068685	 0.0216581404	 0.42929
O	 0.9630651552	-0.9097955583	-0.618631083	-0.272136
C	-0.0145046679	-2.0228083591	-0.6879389254	 0.073867
C	 0.2459708494	-3.1026377075	 0.3168604542	-0.085697
C	-0.5321318628	-2.9647684569	 1.3922068692	-0.051539
C	-1.4816193044	-1.7907247937	 1.3044731623	-0.278278
C	-1.0849012065	-1.118447601	-0.0267384405	-0.167926
H	 1.0961207577	 1.4263849707	 0.3267768421	 0.226667
H	-0.1257433826	-2.341583185	-1.7259322167	 0.094495
H	 0.9934256188	-3.8729380531	 0.1706624778	 0.107009
H	-0.5090058284	-3.6163524757	 2.259525886	 0.107367
H	-2.5269155416	-2.1227731295	 1.2941221561	 0.116461
H	-1.3798471885	-1.107774949	 2.1549483079	 0.138196
H	-1.9290844573	-0.8057063221	-0.6405804394	 0.10772
