15
gdb 67933	2.2347	1.50728	1.06025	4.2335	67.43	-0.2595	-0.0444	0.2152	1122.5184	0.110298	-457.772175	-457.76395	-457.763006	-457.805357	29.827	
C	-0.1258116871	 1.5174382448	 0.1149365758	-0.488636
C	 0.0399735154	 0.0371084548	 0.0825110671	 0.430922
O	-1.175398883	-0.7712423244	-0.0160465866	-0.293032
C	-0.6663954316	-1.6600499914	 0.9299143379	 0.461498
O	-1.2313091972	-2.564340783	 1.4470682172	-0.312141
C	 0.6688187899	-0.9670986606	 1.0084935692	-0.345227
C	 1.1979999821	-0.7577796821	-0.4397057634	-0.177367
C	 1.0984924781	-1.8036647968	-1.5014011643	 0.152314
O	 1.973592516	-1.9891622573	-2.3092414502	-0.254726
H	 0.8369428562	 2.0026037833	 0.2952094874	 0.141664
H	-0.5178628636	 1.878703803	-0.8408849544	 0.153057
H	-0.822902222	 1.8066527817	 0.9063503885	 0.149678
H	 1.3150236009	-0.87340734	 1.86886247	 0.141574
H	 2.1425580277	-0.220112261	-0.4593134396	 0.128873
H	 0.1658078682	-2.4011289509	-1.5047667647	 0.111548
