13
gdb 5441	3.77157	1.90088	1.26563	1.5496	70.03	-0.1882	0.0163	0.2044	889.4459	0.09554	-361.461077	-361.453828	-361.452884	-361.492236	27.604	
N	 0.065111111	 1.3430371721	 0.1821301777	-0.605196
C	-0.0398951773	-0.02206912	 0.0608982975	 0.295562
C	-1.1316016552	-0.8609922808	 0.0219882349	 0.07953
C	-0.5740110373	-2.1964810516	-0.0176307717	-0.285448
C	 0.7679663903	-2.0599431159	-0.0105057303	-0.027093
O	 1.1090742626	-0.7215099129	 0.0417535068	-0.171754
C	-2.4795422847	-0.4520818945	 0.0147332887	 0.186137
C	-3.6264683267	-0.0776423896	 0.0008762721	-0.435415
H	 0.8687651058	 1.7428592886	-0.2829932015	 0.261101
H	-0.7947481066	 1.8228973962	-0.045710225	 0.267798
H	-1.1329993498	-3.1175872982	-0.0549376272	 0.116411
H	 1.5976614302	-2.7440962798	-0.0365284698	 0.137505
H	-4.6388177722	 0.2407667064	 0.0005058277	 0.180864
