12
gdb 130679	5.47883	1.3367	1.07454	3.482	62.54	-0.2117	-0.0082	0.2035	989.642	0.080758	-465.006119	-464.999315	-464.99837	-465.037404	25.354	
O	 0.0074786757	-0.0372370272	 0.0033435973	-0.395885
C	-0.0021540735	 1.1691909628	 0.0089053636	 0.441695
N	-1.1571358147	 1.999445613	 0.0293297812	-0.490989
C	-0.7505411329	 3.3109630295	 0.0312875896	 0.449363
C	 0.6198787154	 3.3583664191	 0.0129465519	 0.385311
N	 1.0835691259	 2.0484541471	-0.0005646622	-0.46785
N	 1.0511061945	 4.6300951531	 0.0139125584	-0.289861
N	-0.0092713115	 5.4067705419	 0.0321404694	-0.140932
N	-1.1281297	 4.5992559471	 0.04323515	-0.340362
H	-2.0821451498	 1.6078891138	 0.0413250296	 0.279651
H	 2.0323535054	 1.718408394	-0.0139159248	 0.284033
H	-2.0375558645	 5.028731916	 0.0580714359	 0.285825
