15
gdb 67419	2.80145	1.55929	1.30119	4.3902	71.32	-0.2448	0.0054	0.2503	986.9881	0.113762	-416.744691	-416.737455	-416.736511	-416.776276	28.307	
O	-0.1229213495	 1.3954970849	 0.0984872158	-0.436963
C	-0.0006089893	 0.0490184342	 0.0076884088	 0.353038
C	-1.0536430985	-1.0078438529	-0.0744488415	-0.168949
C	-0.4083229658	-1.644633476	-1.2984394651	-0.24066
C	 0.9135195417	-0.9606833401	-0.8330441584	-0.119455
N	 1.3028066544	-1.6161123241	 0.4473230666	-0.342509
C	 0.0859246456	-1.061196066	 1.0353122547	 0.151023
C	-0.2160172314	-1.0517394259	 2.4240513092	 0.184
N	-0.4655640848	-1.0345273767	 3.5546361773	-0.351048
H	 0.6575988872	 1.7557745919	 0.5377636053	 0.307737
H	-2.0927558752	-0.9457026495	 0.2194543244	 0.120528
H	-0.3939280379	-2.7361840558	-1.387909574	 0.101904
H	-0.7924794313	-1.1966180808	-2.2180785595	 0.123808
H	 1.7166659474	-0.724337342	-1.5272614861	 0.095624
H	 1.3007021274	-2.6360608711	 0.3864449824	 0.221922
