19
gdb 55108	4.39454	0.95604	0.85843	3.6661	77.91	-0.2331	0.0555	0.2887	1368.841	0.160067	-419.215326	-419.206588	-419.205644	-419.249076	33.01	
N	-0.0927899884	 1.3385836832	 0.2124160443	-0.557299
C	-0.0092312809	-0.0489533049	 0.1847355784	 0.411282
O	 1.0472267379	-0.6532071319	 0.1511689299	-0.393856
N	-1.2289974331	-0.6830814063	 0.1714586644	-0.111409
C	-2.5006913511	-0.2146250404	-0.41437993	-0.260278
C	-2.8002523062	-1.675292613	-0.7815276355	 0.344149
C	-4.0878593303	-2.4127060062	-0.5873470409	-0.320403
C	-3.5322559233	-2.1917694836	-1.9785685377	-0.317703
C	-1.4056691439	-2.0744626652	-0.2735073601	-0.234576
H	 0.7836590764	 1.7729680907	 0.4593498672	 0.259398
H	-0.8974585731	 1.7481411127	 0.6629668993	 0.251408
H	-3.1852234903	 0.2493402234	 0.3072710749	 0.104356
H	-2.3646368099	 0.4628309224	-1.2670175875	 0.117824
H	-4.0436869478	-3.4141685231	-0.1709933546	 0.11919
H	-4.9641219595	-1.8447900892	-0.2905153429	 0.115311
H	-4.033006323	-1.4746546349	-2.6214702348	 0.116092
H	-3.1121239017	-3.0433028482	-2.5043249528	 0.120022
H	-0.6845914617	-2.3676268448	-1.0444937085	 0.123371
H	-1.3774668902	-2.8075928306	 0.5396237269	 0.113123
