18
gdb 18251	4.29283	1.66761	1.37141	0.892	73.21	-0.2304	0.0113	0.2418	944.6502	0.154503	-347.783888	-347.776467	-347.775523	-347.815698	28.248	
C	 0.0004751849	 1.3922995165	-0.082070036	-0.232587
O	-0.0017888367	 0.0151276578	 0.2087018649	-0.243015
C	-1.2806606976	-0.5998347944	 0.0900793384	 0.088417
C	-1.71371072	-0.855858182	-1.3498741503	-0.111396
C	-1.9681944492	-2.146272193	-1.5695438966	-0.074636
C	-1.7143810736	-2.9760505226	-0.3534924917	-0.081097
C	-0.2711680255	-2.9871879313	 0.1133603355	-0.266674
C	-1.2450922491	-1.9976734412	 0.7015513241	-0.067507
H	 1.008372666	 1.7632602288	 0.1213551385	 0.125446
H	-0.2417186161	 1.6044507802	-1.1344650059	 0.103354
H	-0.7136546373	 1.9443082204	 0.5503967705	 0.100537
H	-2.0178534812	 0.0339674103	 0.61358698	 0.063576
H	-1.7633825787	-0.0681265626	-2.0922044484	 0.094596
H	-2.2792503845	-2.574051201	-2.5167193624	 0.096663
H	-2.3565224144	-3.8162378433	-0.1155991731	 0.086484
H	 0.0425541909	-3.8012534209	 0.7585637041	 0.107721
H	 0.4883223116	-2.6213064516	-0.5677223642	 0.124763
H	-1.5276592096	-2.1118208801	 1.7403936325	 0.085355
