19
gdb 102096	2.2239	1.31234	1.03031	2.4608	71.62	-0.2479	-0.0327	0.2152	1227.2542	0.156558	-460.147544	-460.137771	-460.136827	-460.182571	35.577	
O	 0.0129487445	 1.3857190069	 0.0066099152	-0.430163
C	 0.0113973642	-0.0210749946	 0.2047863381	-0.089767
C	-1.4182969232	-0.5322114939	-0.0497694067	-0.166823
C	-1.8576677964	-0.1189618166	-1.4464218169	 0.163396
O	-1.9813197059	-0.8872445644	-2.3737352671	-0.267785
C	-1.5148322516	-2.0370802866	 0.1458332897	 0.44417
O	-0.7129005393	-2.7761005131	-0.7328909134	-0.485058
C	-1.6312372033	-2.6086284173	 1.5258777927	-0.321105
C	-2.8223637709	-2.6479047097	 0.5869776625	-0.328906
H	 0.9187466708	 1.7004651763	 0.0768260582	 0.293259
H	 0.6979837059	-0.535069057	-0.4804891387	 0.11698
H	 0.3008699922	-0.287204071	 1.2318373585	 0.102675
H	-2.0774546022	-0.0137958416	 0.6592288911	 0.097455
H	-2.0492911368	 0.9628270584	-1.5830802886	 0.113526
H	-1.0554770517	-2.5741158569	-1.6164250572	 0.291219
H	-1.1048424339	-3.5390949271	 1.7035576413	 0.126968
H	-1.6616834897	-1.931336797	 2.3730371496	 0.110141
H	-3.6673916259	-1.9996018987	 0.7944260187	 0.107976
H	-3.0764896268	-3.6057500861	 0.1486004429	 0.12184
