15
gdb 55982	3.46979	0.95788	0.88199	3.6293	63.27	-0.2819	-0.0117	0.2702	1325.7032	0.11062	-494.953141	-494.944337	-494.943393	-494.988937	29.748	
C	-0.0517143066	 1.4636926035	-0.0560501748	-0.483327
C	 0.1146741269	-0.0201290693	 0.1321342019	 0.438256
O	 1.0977905101	-0.5836532808	 0.5282600536	-0.33222
O	-1.0383809352	-0.6675067918	-0.2225593233	-0.248877
C	-1.0308982202	-2.0769876443	-0.1536084408	-0.077377
C	-2.174157448	-2.7349046418	 0.6379154097	-0.101325
O	-2.6146296554	-3.4276480193	-0.5746306932	-0.238248
C	-1.6917229487	-2.777422088	-1.3573128255	 0.442408
O	-1.5591693388	-2.8246160003	-2.5342011014	-0.308414
H	 0.8445620111	 1.9760444247	 0.2902533875	 0.15592
H	-0.2210029788	 1.6817811012	-1.1145462314	 0.164894
H	-0.9281730487	 1.8179693214	 0.4929250034	 0.155251
H	-0.0295266761	-2.4411879798	 0.0809629205	 0.158611
H	-1.8933266683	-3.4461889866	 1.4158541124	 0.136464
H	-2.9370801832	-2.0384004888	 0.9901516014	 0.137983
