20
gdb 101266	2.36188	1.16085	1.00255	2.4308	82.22	-0.2414	0.0255	0.2668	1295.0862	0.168694	-403.080331	-403.070492	-403.069547	-403.115016	36.751	
C	 0.2748671638	 1.7278566122	 1.2894028062	-0.385445
C	 0.0115701777	 0.6520201141	 0.2357163126	 0.027721
C	 0.8250638096	-0.62331793	 0.5000370561	-0.059013
O	 0.4963508911	-1.2089158269	 1.7453034373	-0.423988
N	-1.406814981	 0.2608796905	 0.2905052261	-0.099229
C	-2.3913126414	 1.1472295436	-0.2968042768	-0.246317
C	-2.0866141718	-0.1693262318	-0.950134339	-0.183578
C	-1.4104409019	-0.2043185944	-2.2183255744	 0.346727
C	-0.8557007937	-0.2764839662	-3.2835638105	-0.467881
H	 1.317387388	 2.0560537301	 1.2374261122	 0.116406
H	-0.3633895507	 2.6025571393	 1.1332048583	 0.110081
H	 0.0897732001	 1.3314821831	 2.290401451	 0.134557
H	 0.2812454964	 1.0351723761	-0.7607005361	 0.075681
H	 0.6639308308	-1.3279973589	-0.3310080667	 0.091639
H	 1.8933315901	-0.383438915	 0.5287457885	 0.101974
H	-0.4692521275	-1.2125299676	 1.7786865176	 0.285711
H	-3.3206066596	 1.2728094556	 0.2525653009	 0.124204
H	-2.0363288769	 2.0352521898	-0.8164372621	 0.12582
H	-2.7834686136	-0.9892273268	-0.7926894071	 0.12084
H	-0.3692561796	-0.3316186668	-4.226061674	 0.204088
