19
gdb 38651	2.67362	2.09649	1.47608	1.5742	79.25	-0.2323	0.0243	0.2566	932.0788	0.162581	-385.873965	-385.867339	-385.866395	-385.904767	27.723	
C	 0.0615694644	 1.3880439572	-0.5858979884	-0.249806
C	 1.4694744315	 1.5751153349	 0.0034528044	 0.130094
O	 1.4377519725	 2.054201069	 1.368371384	-0.320595
C	 1.6656630836	 0.7182660524	 1.8995486449	 0.141573
C	 0.6831169931	 0.3265635918	 2.993392694	-0.286335
C	-0.6822005937	-0.0461577686	 2.4812420679	-0.047798
C	-0.9776719973	-0.2178943776	 1.1938076741	-0.067272
C	 0.0039062165	-0.0431742885	 0.0763576964	-0.053535
C	 1.4991130292	 0.1067395962	 0.4997142574	-0.135547
H	-0.6805053973	 2.1138766533	-0.2468892723	 0.109409
H	 0.0611183704	 1.3449692106	-1.6789768512	 0.096942
H	 2.244728964	 2.0669567403	-0.5905948684	 0.070761
H	 2.6958338392	 0.645207377	 2.275162145	 0.068726
H	 1.1040838555	-0.5070062489	 3.5747469256	 0.107035
H	 0.6058322128	 1.1657795167	 3.6978182835	 0.120627
H	-1.4575971321	-0.1810303019	 3.2315466651	 0.085217
H	-1.9960531192	-0.4726644631	 0.9079200556	 0.083755
H	-0.1385443737	-0.825978085	-0.6735463993	 0.077229
H	 2.1989568606	-0.659402426	 0.1706958218	 0.06952
