20
gdb 12098	3.33854	1.53499	1.46996	0.8402	75.08	-0.224	0.078	0.302	988.1665	0.17651	-345.120965	-345.1123	-345.111356	-345.154151	32.497	
C	-1.8004922664	 0.1849889552	 1.7365387153	-0.316753
N	-0.8279986267	-0.6873031962	 1.0965943066	-0.082864
C	-0.0814301483	-0.1727671086	-0.0426447301	-0.259276
C	 0.6083189226	-0.4291490139	 1.2556022713	-0.070562
C	 1.2008117448	 0.6665037679	 2.1201595723	 0.331562
C	 1.2162881306	 2.0915202101	 1.6023647772	-0.458651
C	 1.1744368654	 0.4267283529	 3.5933096979	-0.267187
N	 2.438881523	 0.3160976772	 2.8511378273	-0.359169
H	-1.5496360812	 1.2557408241	 1.7148606222	 0.10528
H	-2.7646448046	 0.0551706874	 1.2345865338	 0.124072
H	-1.9226840798	-0.1141719461	 2.7821872785	 0.123347
H	 0.0446004072	-0.8515008348	-0.8829928312	 0.113127
H	-0.2357105324	 0.8672867993	-0.3258957557	 0.109013
H	 1.1689531357	-1.3616924434	 1.3384570086	 0.082988
H	 0.2095494345	 2.5002804452	 1.4736579232	 0.118317
H	 1.7565162168	 2.7285828299	 2.3069458322	 0.128013
H	 1.7291610981	 2.1471898757	 0.6365623289	 0.122588
H	 1.115972806	 1.2681064674	 4.2791766837	 0.114569
H	 0.6982677696	-0.4824562662	 3.9519398666	 0.11411
H	 2.6677838252	-0.6646677031	 2.7055162514	 0.227475
