21
gdb 115037	1.97847	1.43111	0.90912	2.8898	84.18	-0.2362	-0.027	0.2092	1328.5885	0.182056	-387.115692	-387.106375	-387.105431	-387.150525	34.247	
C	 0.3243291684	 1.7185123777	 0.0783912795	-0.390221
C	 0.4838131812	 0.2040378164	-0.0892009733	-0.199428
C	 0.5780109187	-0.5432896309	 1.2462768038	 0.020103
C	-0.6912060595	-0.4870243465	 2.1409912406	-0.265766
C	-0.6386367118	-1.7939692894	 2.8934032693	-0.061344
C	 0.2559084865	-2.6372777443	 2.3792317405	-0.095133
C	 0.9322008782	-2.067943923	 1.1473492896	-0.148143
C	 0.3585705991	-2.7382847751	-0.0926756601	 0.162493
O	 1.0093554687	-3.3090266224	-0.9295542366	-0.254542
H	 1.1629417699	 2.1427530431	 0.6421021979	 0.116075
H	 0.2879634873	 2.2207187643	-0.8929287921	 0.116621
H	-0.5962530354	 1.9694444364	 0.6155995019	 0.119194
H	-0.3579572346	-0.1858552176	-0.6762570754	 0.09953
H	 1.3856272085	-0.0032714534	-0.6786679858	 0.109162
H	 1.396629106	-0.0961962399	 1.8242720233	 0.086967
H	-0.6950976039	 0.3850904846	 2.8040022339	 0.108782
H	-1.6100778956	-0.4169127812	 1.5400452529	 0.107968
H	-1.2742053141	-2.0059240789	 3.7464670792	 0.099956
H	 0.4555222046	-3.6420833584	 2.7338902824	 0.105867
H	 2.0135723643	-2.234001916	 1.1201573914	 0.089003
H	-0.7525814064	-2.6837022456	-0.1668019426	 0.072857
