15
gdb 62414	2.36982	1.60545	1.38372	5.1483	70.6	-0.2675	-0.0535	0.214	993.2034	0.111359	-416.783846	-416.775671	-416.774727	-416.816519	30.069	
C	-0.1474648482	 1.6274340686	 0.0010776421	-0.449098
C	 0.0341684683	 0.1121465368	-0.014958276	-0.004844
C	-1.2432447313	-0.5557009707	 0.2373026919	 0.298276
N	-2.2527546065	-1.0705281469	 0.4628949342	-0.323264
N	 0.6671694458	-0.5269175687	-1.2469148981	-0.123816
C	 2.0354496455	-0.0263713266	-1.3254606277	-0.247329
C	 1.762958869	-1.1465077793	-0.3790651011	-0.147517
C	 1.1484882897	-0.5857148959	 0.8642908745	 0.396913
O	 1.2997150713	-0.7318210909	 2.0358703439	-0.282312
H	 0.7999734211	 2.1533291085	-0.1261365069	 0.133183
H	-0.8331354572	 1.9329376933	-0.7940131836	 0.156336
H	-0.5741187193	 1.9288967463	 0.9610119626	 0.163835
H	 2.5307386232	-0.2954203385	-2.2530386838	 0.152246
H	 2.2934362485	 0.9574603367	-0.947194114	 0.136138
H	 2.14465378	-2.1502961026	-0.5202284682	 0.141252
