20
gdb 110644	2.52013	1.52582	1.1824	2.2855	79.87	-0.2144	0.0672	0.2816	1137.4189	0.169556	-403.04536	-403.036541	-403.035597	-403.078696	33.549	
C	 0.0946295748	 1.253483284	-0.3744601656	-0.243446
O	-0.0305905392	 0.1726443938	 0.5313495157	-0.239365
C	-1.1897803344	-0.5724065271	 0.3092021818	 0.083173
C	-1.4421881448	-1.6019617803	-0.7622967559	-0.199626
C	-0.3375481967	-2.6555989878	-0.9110072443	-0.036711
C	 0.8540437355	-2.484440519	-0.0515602709	-0.260312
N	-0.3881192157	-3.0420389707	 0.5385943259	-0.185894
C	-1.4515344817	-1.9753880851	 0.7432210512	 0.277625
C	-2.5478104345	-2.3741364484	 1.6832566572	-0.468544
H	 1.009059622	 1.7894700131	-0.1115276406	 0.12959
H	 0.1630801468	 0.9037534739	-1.4138802247	 0.116945
H	-0.7592260088	 1.9433879618	-0.294774186	 0.108998
H	-2.0917229492	 0.0322888285	 0.4553270059	 0.089607
H	-2.2696473414	-1.5241250185	-1.4573806974	 0.087685
H	-0.3978206474	-3.4223595689	-1.6771610552	 0.097171
H	 1.6157562407	-3.2557023319	-0.1382320197	 0.114194
H	 1.2032895008	-1.5073941401	 0.2446597519	 0.15501
H	-2.1658788576	-2.4231060697	 2.7100547068	 0.130576
H	-3.3732378753	-1.6566010495	 1.6585842092	 0.113814
H	-2.9347969438	-3.364896928	 1.4263266445	 0.129511
