18
gdb 40842	5.88347	0.8552	0.833	2.1012	83.21	-0.2306	0.0211	0.2518	1433.5279	0.147625	-401.897061	-401.889194	-401.88825	-401.930128	30.147	
C	-0.1758996198	 1.3021602784	-0.1149044498	-0.269903
C	 1.2696616269	 0.9701088701	 0.1340669176	-0.269973
C	 0.2432775412	-0.1384017156	 0.0718544321	 0.044874
N	-0.1107139887	-0.7538695006	 1.3092937427	-0.34918
C	-0.3877221529	-1.9720741914	 1.3429716198	 0.487658
O	-0.4413823474	-2.9173485642	 0.3005532829	-0.289274
C	-0.9734242268	-3.8958268072	 1.2268595805	 0.098631
C	 0.0355000999	-4.1978550978	 2.2736600199	-0.290593
C	-0.8328725428	-2.937745535	 2.3878255686	-0.235843
H	-0.7356988389	 1.7497541336	 0.697581958	 0.120826
H	-0.4775334116	 1.6151969098	-1.1081805317	 0.111316
H	 1.974487006	 1.051344984	-0.6858402864	 0.111551
H	 1.6760520874	 1.1962333497	 1.1126186511	 0.121305
H	 0.2507277733	-0.7701199129	-0.8128706363	 0.100614
H	-1.7940757841	-4.5109804477	 0.8850738763	 0.124058
H	-0.2294439261	-4.9784999822	 2.9803929732	 0.127232
H	 1.0924153412	-4.1171829196	 2.0405255778	 0.134326
H	-1.4691694167	-2.7304908115	 3.2351417736	 0.122375
