16
gdb 13613	4.51799	1.25718	1.1288	3.0678	63.17	-0.2537	-0.0353	0.2184	1059.9647	0.128988	-420.876078	-420.868042	-420.867098	-420.908717	29.759	
O	 0.0743112521	 1.3589508957	-0.0615525846	-0.419312
C	 0.02231139	-0.0336266128	-0.0200589365	-0.13366
C	-1.4083453525	-0.5416328952	 0.0534430737	 0.386184
O	-2.322483004	 0.2790423995	 0.0673840763	-0.394949
C	-1.640958581	-1.9878294982	 0.0654226235	-0.1983
C	-2.8720615299	-2.5139384577	 0.8214160309	-0.323957
C	-2.9303713833	-2.4783430749	-0.6571156433	 0.159811
O	-3.7271970535	-1.6010240351	-1.3563167548	-0.413588
H	-0.8521044906	 1.64788616	-0.0398231461	 0.295734
H	 0.4955990705	-0.4833143819	-0.9097815264	 0.121041
H	 0.5698983659	-0.4309554184	 0.8514499722	 0.119329
H	-0.7616481078	-2.6208973892	 0.0214788254	 0.101068
H	-2.755246128	-3.4646533423	 1.3292819459	 0.129
H	-3.4394070216	-1.7615673748	 1.3594271136	 0.141525
H	-2.8166863936	-3.4118207934	-1.1984953851	 0.123416
H	-3.6595217125	-0.7343373315	-0.9216842947	 0.30666
