14
gdb 27584	3.64157	1.20518	0.90597	3.7781	80.2	-0.2346	-0.0622	0.1724	1187.7116	0.103968	-395.81302	-395.805659	-395.804715	-395.844805	28.163	
N	 0.0005311569	 1.3759627006	 0.151235896	-0.565782
C	-0.0116627337	 0.005084007	 0.0582626911	 0.413253
C	-1.2211533073	-0.7136947741	 0.0477389394	-0.283026
C	-1.1601650525	-2.1016981801	 0.0022784965	 0.219388
C	 0.0878824518	-2.7411281754	-0.0264129124	-0.232569
C	 1.2144254113	-1.9316419507	-0.0134237946	 0.01394
N	 1.1841768879	-0.5984392205	 0.022941546	-0.329349
C	-2.3688586643	-2.8705825245	-0.0142129011	 0.211552
N	-3.3441535649	-3.49310107	-0.028824352	-0.325603
H	 0.8851339211	 1.8056035152	-0.0716612934	 0.262892
H	-0.8161048831	 1.8806443184	-0.1517809211	 0.258716
H	-2.1759703602	-0.2028271581	 0.0787248762	 0.115382
H	 0.1645444113	-3.8193893181	-0.0621724297	 0.12165
H	 2.2045865359	-2.3801160896	-0.038338021	 0.119555
