18
gdb 23292	2.61913	1.38538	1.1824	1.5024	75.01	-0.2488	0.0089	0.2577	1117.6833	0.147587	-439.01201	-439.003886	-439.002942	-439.044603	31.443	
C	-0.125222852	 1.54122857	 0.0047561319	-0.41769
C	 0.0589117999	 0.0263055583	 0.0317214432	 0.023903
C	 0.9998324484	-0.5573676293	-1.0853807357	-0.246145
C	 2.0221780304	-1.2605513027	-0.1673035045	-0.016615
O	 1.142548767	-1.8934273078	 0.8309271357	-0.305889
C	 0.8469855792	-0.5150203636	 1.2531695661	-0.022206
C	 2.2854756991	-0.2116563598	 0.8999635843	 0.503043
N	 3.2140825825	 0.4500379128	 1.4352841175	-0.310579
O	 4.4300594179	 0.2739736456	 0.7394665106	-0.397141
H	 0.8387842415	 2.0578869155	 0.0605003154	 0.13014
H	-0.6234518745	 1.8574848831	-0.9170705443	 0.121104
H	-0.7373506488	 1.8821395218	 0.8468219045	 0.117693
H	-0.9145165083	-0.4716834272	 0.0064809788	 0.085625
H	 0.4937326429	-1.2740408574	-1.7353779385	 0.112765
H	 1.4578029365	 0.2204723382	-1.7032253298	 0.111475
H	 2.787503491	-1.9117246	-0.5821605767	 0.105365
H	 0.4305900026	-0.4213210814	 2.2543940289	 0.096982
H	 5.0400197746	 0.799756334	 1.2680276327	 0.308169
