18
gdb 88399	2.07922	1.34329	0.89944	3.358	77.48	-0.2719	-0.0509	0.221	1293.5557	0.145529	-401.956096	-401.94644	-401.945496	-401.991634	33.851	
C	 0.2419890368	 1.5796345432	-0.3421088269	-0.413706
C	 0.0448196839	 0.1082368885	-0.0412642734	-0.006757
C	 1.2028716074	-0.8586833516	-0.082499886	-0.30114
C	 0.5278875392	-0.5516043643	 1.2326166946	-0.007242
C	 1.2557385154	 0.2380172359	 2.3236580248	-0.261771
C	 0.2049939456	 0.9103604638	 3.2251487499	 0.17157
O	-0.0996214535	 2.0658837812	 3.1264121921	-0.232177
C	 2.1168693506	-0.6364674095	 3.1222821732	 0.270207
N	 2.768944324	-1.3292649508	 3.7784774228	-0.309178
H	 1.2478491173	 1.9226055605	-0.0826492193	 0.119021
H	 0.1068309182	 1.7644373221	-1.4127219715	 0.124064
H	-0.4716524588	 2.2030007407	 0.2046725016	 0.141704
H	-0.9030860063	-0.2850552828	-0.399261284	 0.097625
H	 1.0653779725	-1.8461430401	-0.5080345451	 0.125906
H	 2.1916409081	-0.4401587356	-0.243747386	 0.122883
H	-0.1068449301	-1.334767158	 1.6375614817	 0.106766
H	 1.8609482104	 1.0349229062	 1.8839888854	 0.143578
H	-0.2841689306	 0.2266743906	 3.9512617961	 0.108644
