22
gdb 112479	2.38538	1.13183	0.84904	2.2699	86.06	-0.243	0.0349	0.278	1467.5572	0.192542	-404.359924	-404.349431	-404.348487	-404.395967	37.189	
C	-0.1673629238	 1.5454815281	 0.3526107794	-0.385336
C	-0.0958665707	 0.0286489841	 0.1478199734	-0.189623
C	 0.9170899619	-0.6277496048	 1.0661262894	 0.136949
O	 0.526515025	-0.5122969757	 2.479449805	-0.287519
C	 0.5013793654	-1.8909912093	 2.6250935026	 0.469346
N	 0.1891146514	-2.600451721	 3.6065710502	-0.334136
C	-0.2250937186	-1.9560969495	 4.8454046671	-0.33844
C	 0.9571655871	-2.1777592106	 1.2091109401	-0.186747
C	 0.0689921622	-3.0703091182	 0.3506861488	-0.407533
H	 0.7959422127	 2.0207028281	 0.1370870912	 0.11556
H	-0.9174060414	 1.9960498243	-0.3036660574	 0.11536
H	-0.4332208318	 1.7803359515	 1.387081139	 0.138199
H	-1.0826982431	-0.4154139512	 0.3184744324	 0.107075
H	 0.1811869638	-0.2015720702	-0.8891551402	 0.102793
H	 1.9052210573	-0.1725427718	 0.9330679195	 0.084893
H	-0.3036858099	-0.8645342507	 4.7788543662	 0.1236
H	-1.1954931045	-2.361295592	 5.1523919826	 0.12362
H	 0.4891715592	-2.2062578417	 5.6382404145	 0.12533
H	 1.9850423537	-2.5534752173	 1.1936536196	 0.103656
H	-0.9718554614	-2.7368161864	 0.3532243283	 0.125106
H	 0.4199724798	-3.0977515037	-0.6856977733	 0.11749
H	 0.0889922956	-4.090484222	 0.7437386516	 0.140357
