20
gdb 13394	5.35492	1.06733	0.96461	1.3755	77.58	-0.2294	0.0187	0.2481	1274.0221	0.176952	-349.014953	-349.006448	-349.005504	-349.048603	30.941	
C	 0.1083366056	 1.5393581142	-0.082905955	-0.382689
C	 0.0228985622	 0.0141821725	 0.0139235184	-0.161608
C	 0.706238312	-0.545363006	 1.2657538641	-0.171159
C	 0.643088767	-2.0749711526	 1.3521155751	 0.08635
O	 1.3003243742	-2.6658043508	 0.2218004379	-0.276867
C	 2.3081957136	-3.5777213193	 0.6462437616	-0.112696
C	 2.2993550815	-3.501738271	 2.1471119368	-0.097137
C	 1.3515791549	-2.6618883354	 2.544607831	-0.09442
H	 1.1505970932	 1.8764070368	-0.1134887358	 0.113177
H	-0.3867475373	 1.9101388314	-0.986009816	 0.110631
H	-0.3676603473	 2.0209314694	 0.7790037049	 0.109458
H	-1.0306923756	-0.2965016887	 0.0094866986	 0.089902
H	 0.4814835677	-0.4450180578	-0.868290741	 0.116813
H	 1.760334308	-0.2404196652	 1.2880448816	 0.094648
H	 0.2351962655	-0.1276122157	 2.1666300858	 0.085719
H	-0.419020574	-2.3791305884	 1.3360823723	 0.075555
H	 2.0791200239	-4.591791728	 0.2792049138	 0.102521
H	 3.2793328161	-3.2919180436	 0.2124072463	 0.104203
H	 2.9753767055	-4.0692855311	 2.7740269253	 0.104624
H	 1.0944216432	-2.4031628907	 3.564017214	 0.102973
