18
gdb 15947	3.51851	1.74659	1.43286	2.4986	67.27	-0.2388	0.0588	0.2976	918.7502	0.153853	-384.89636	-384.888579	-384.887634	-384.928803	28.871	
O	-0.0693527444	 1.4207423267	 0.1671733292	-0.424477
C	 0.006487087	 0.0001887139	 0.1731932128	-0.201281
C	-1.3940597767	-0.5235179966	 0.0059258248	 0.343654
C	-2.3949155293	-0.3714356051	 1.1891027309	-0.281708
C	-2.7330999329	-1.8938786568	 1.1055251137	-0.230062
C	-1.7846435579	-2.0280309131	-0.1070875201	 0.054594
O	-2.4453334393	-1.8018879328	-1.3678139301	-0.295622
C	-2.0602800363	-0.4054440378	-1.3773793628	-0.114744
H	 0.8199978863	 1.7721866484	 0.2700151131	 0.289791
H	 0.6436989606	-0.3699367454	-0.6468635911	 0.087551
H	 0.4358802531	-0.3726771228	 1.1178838466	 0.084012
H	-1.9112489773	-0.0784077975	 2.1238986944	 0.104908
H	-3.2232767331	 0.3168076333	 1.0055833188	 0.104877
H	-2.4039587516	-2.4606945356	 1.9810083857	 0.09926
H	-3.768977963	-2.1573597924	 0.8820214373	 0.111242
H	-1.0856966586	-2.8694212946	-0.1487185404	 0.068498
H	-2.9234303057	 0.2667148965	-1.4530222464	 0.10178
H	-1.365004071	-0.1885346982	-2.1992341964	 0.097727
