17
gdb 32512	1.97632	1.55462	0.92678	3.2389	76.68	-0.2398	-0.0494	0.1904	1244.9281	0.135736	-421.871932	-421.863374	-421.86243	-421.905711	30.823	
C	 0.0222934112	 1.5462848968	-0.132455836	-0.370407
C	-0.0226722124	 0.0190598707	 0.0516130334	-0.308771
C	-1.4139551028	-0.5455565878	 0.023079761	 0.143341
C	-2.1363825004	-0.9848918541	 1.0844230996	-0.097734
O	-3.3786214654	-1.4113908642	 0.6951725275	-0.137088
C	-3.4524790784	-1.2432782072	-0.6345115644	-0.052714
C	-2.2867294617	-0.7160782671	-1.1220517616	 0.059994
C	-2.0235872884	-0.4269467923	-2.5318334827	 0.064353
O	-2.8233689199	-0.5930714277	-3.4276458942	-0.276662
H	 1.0537659941	 1.9095829684	-0.0957057964	 0.118719
H	-0.4061169559	 1.8466445967	-1.0936196384	 0.12472
H	-0.5465779776	 2.049387143	 0.6551343508	 0.124276
H	 0.5863769695	-0.4584906674	-0.7252878852	 0.114474
H	 0.4446096493	-0.2432939396	 1.0071219606	 0.110077
H	-1.9272296626	-1.065946682	 2.1384309427	 0.145228
H	-4.3708650931	-1.5383687738	-1.1141579054	 0.170346
H	-1.0057364156	-0.0339552423	-2.7474749012	 0.067852
