17
gdb 66754	2.76832	2.04128	1.48803	3.0356	74.55	-0.2208	-0.0059	0.2149	907.044	0.136367	-384.635468	-384.628476	-384.627532	-384.666644	28.179	
C	 0.0088726647	 1.5166094241	 0.0179920344	-0.515282
C	 0.0533131444	 0.0143520219	 0.0031901874	 0.194215
C	-1.1568044963	-0.8278139756	 0.4651602429	-0.111407
C	-0.5992155888	-2.2633368626	 0.3470780662	-0.068
C	-0.4438889323	-1.4765800597	 1.625343346	-0.11424
C	 0.8771365732	-0.9155170639	 1.0073642577	-0.100238
C	 0.827608786	-1.9850141323	-0.1641668896	-0.201937
C	 0.7009025892	-0.7998611846	-1.1363277359	 0.408066
O	 1.1357351151	-0.5289944968	-2.2181298986	-0.331
H	 0.985565121	 1.9412727147	-0.2347349395	 0.128783
H	-0.7125803838	 1.8881859383	-0.7181271753	 0.130445
H	-0.2900448099	 1.8968851012	 1.0006253607	 0.121131
H	-2.2080752811	-0.6037891043	 0.3386571738	 0.093363
H	-1.2339749801	-3.1123788332	 0.1330069392	 0.098219
H	-0.762637369	-1.6852867059	 2.6370581364	 0.096081
H	 1.7924192028	-0.6003031815	 1.4998997833	 0.086101
H	 1.5362242951	-2.7982884898	-0.296863469	 0.085701
