18
gdb 52177	6.16154	0.6091	0.5852	1.2379	74.99	-0.255	-0.0301	0.2249	1813.3261	0.146092	-439.118191	-439.1089	-439.107956	-439.153948	32.561	
O	-0.0671249331	-0.0659943991	 0.0657123913	-0.231877
C	-0.0333624469	 1.1291246308	-0.0687297811	 0.16024
C	 1.2250826387	 1.9681004822	-0.0487161732	-0.278699
C	 1.3853457802	 2.7881031055	-1.3409573185	-0.207414
C	 2.6074526927	 3.6997049661	-1.3170695133	 0.060268
C	 2.7097619689	 4.7775534544	-2.4379781723	-0.41242
C	 2.7082129767	 5.8147230942	-1.2888041103	 0.432505
O	 2.8233895055	 7.0049035038	-1.1922496484	-0.34992
N	 2.5441671119	 4.8134277274	-0.3545512386	-0.329121
H	-0.969151082	 1.7147411318	-0.2306907589	 0.075288
H	 1.1443438903	 2.6601022793	 0.8025497646	 0.117477
H	 2.0813175376	 1.3085993894	 0.1219478645	 0.123576
H	 1.4739447013	 2.109589571	-2.1984024925	 0.120174
H	 0.4895903574	 3.4004872889	-1.5039620321	 0.110118
H	 3.5229577583	 3.1043550689	-1.2124075873	 0.090213
H	 3.631393742	 4.7674185346	-3.0217789477	 0.137076
H	 1.8499149811	 4.836840766	-3.10826738	 0.132135
H	 2.6680526493	 4.8379884448	 0.6474199639	 0.250382
