20
gdb 112885	2.65177	1.25441	0.96235	4.7731	76.	-0.2416	0.0594	0.301	1296.385	0.171189	-440.350935	-440.341544	-440.340599	-440.38598	33.699	
C	-0.153981974	 1.4877093968	 0.062097628	-0.385855
C	 0.0554782605	-0.0295223974	 0.0126651464	-0.150287
N	 0.696296563	-0.4992979574	-1.2017574982	-0.132442
C	 0.0901390578	-0.4575763835	-2.5144023935	-0.209001
C	 1.2123640499	-1.0729931094	-3.3765035413	 0.131728
C	 1.4094211037	-0.4314169336	-4.7363065412	-0.404794
O	 2.4010770995	-0.9055002906	-2.580964514	-0.260097
C	 2.0613329669	-0.6373649911	-1.2834091952	 0.483673
O	 2.8635316183	-0.549964746	-0.3918087296	-0.410187
H	 0.8053341385	 2.0088652587	-0.0043857076	 0.139792
H	-0.7958082337	 1.8374026418	-0.7530151744	 0.116476
H	-0.6320260581	 1.7699505187	 1.0051826869	 0.122291
H	 0.7013718644	-0.3442155551	 0.8358990649	 0.146012
H	-0.9036346506	-0.550413816	 0.1214595458	 0.103216
H	-0.833221128	-1.0453779773	-2.5587785781	 0.115741
H	-0.1449979706	 0.5691221653	-2.8344520288	 0.105601
H	 1.0447545736	-2.1521270694	-3.4872678548	 0.096
H	 1.6046421616	 0.6398675465	-4.6307330877	 0.130862
H	 2.2543593174	-0.8879547632	-5.2579208557	 0.138811
H	 0.5127578598	-0.5649284578	-5.3504520219	 0.122459
