17
gdb 2579	2.99162	2.69303	1.76658	2.1303	60.25	-0.252	0.08	0.3321	776.0873	0.146925	-346.821929	-346.813955	-346.813011	-346.853955	28.922	
C	 1.1714594126	-0.6924504629	-1.1221968177	-0.25239
O	 0.3114072584	-0.2376703878	-0.0895898434	-0.291067
C	 0.6229186061	-0.7233458157	 1.1957125287	 0.401136
C	 1.7981957618	-0.0050589751	 1.8216343743	-0.108645
O	 1.586913047	 1.3943453622	 1.8479162314	-0.424077
C	-0.5707731275	-1.073439511	 2.0268022358	-0.304943
C	 0.3389828753	-2.1692288507	 1.5033708436	-0.330385
H	 1.180542484	-1.7886366248	-1.1839911932	 0.112861
H	 0.7803617673	-0.285242821	-2.0574291646	 0.129831
H	 2.2043526815	-0.3431381101	-0.9913989472	 0.115247
H	 1.9315597926	-0.339214943	 2.8558118968	 0.103071
H	 2.7267691807	-0.2538974059	 1.2802360214	 0.082477
H	 1.1601539983	 1.611270254	 1.0100425751	 0.286921
H	-0.5477299383	-0.8322389041	 3.0835591774	 0.120218
H	-1.5392821063	-0.9681958144	 1.5522970113	 0.124356
H	-0.0433454048	-2.7843168427	 0.6963773437	 0.119451
H	 0.9881821014	-2.690302707	 2.1992705465	 0.115937
