21
gdb 80239	2.259	1.5753	1.25393	3.1893	82.55	-0.2288	-0.0029	0.226	1127.8172	0.18327	-387.106834	-387.098387	-387.097443	-387.139429	33.386	
C	 0.0644340395	 1.6293663691	 0.83929496	-0.440625
C	 0.1081828293	 0.1456623616	 0.498743492	 0.029407
C	 0.739361351	-0.396231159	-0.8270999561	-0.051175
C	 2.1711135643	 0.1686269024	-0.7792340789	-0.344512
C	 2.4606368116	-0.1391689062	 0.711071499	 0.432673
O	 3.4564986785	 0.0943865109	 1.341789734	-0.34269
C	 1.1682389764	-0.8091438225	 1.1554059342	-0.148945
C	 0.9368637259	-1.7579155517	-0.0835278889	 0.033981
C	-0.2318908313	-2.7332733378	-0.0157912653	-0.438332
H	 1.0419848093	 2.1155025677	 0.7755514217	 0.129051
H	-0.6177677234	 2.1596710176	 0.1656323542	 0.118249
H	-0.3035339132	 1.7747921863	 1.860681217	 0.123297
H	-0.8891781702	-0.2759699926	 0.6337806585	 0.080234
H	 0.2046887332	-0.3379337877	-1.776236733	 0.063019
H	 2.8720167642	-0.3608318719	-1.4322599811	 0.121135
H	 2.2545474843	 1.2379008028	-0.9914703818	 0.122005
H	 1.1145566129	-1.1472270631	 2.1891852111	 0.072742
H	 1.8315008675	-2.3093123267	-0.3961873335	 0.073799
H	-1.16892735	-2.271371115	 0.3049160773	 0.122837
H	-0.404977391	-3.1812325478	-1.0006165235	 0.120463
H	-0.0098024088	-3.5479620663	 0.6814434633	 0.123388
