20
gdb 88694	3.22746	0.99066	0.83199	4.2692	84.83	-0.2646	0.0317	0.2963	1419.1944	0.170707	-366.006645	-365.997415	-365.99647	-366.041507	34.211	
C	-0.1112307345	 1.5530820549	-0.0980463424	-0.404497
C	 0.0079484025	 0.0482128017	 0.0104401533	-0.006588
C	 1.3268361161	-0.6482976222	-0.2197395818	-0.304682
C	 0.7129341178	-0.6405500527	 1.1621021931	-0.007902
C	 1.3486863252	 0.1240475244	 2.2778242944	-0.009609
C	 0.7375053969	 0.1486996536	 3.6471340827	-0.298383
C	 2.0405759821	-0.6092973591	 3.4292149495	-0.183195
C	 2.0396883741	-2.0435880491	 3.4761615756	 0.292444
N	 2.0380190976	-3.2005034098	 3.5109896463	-0.348288
H	 0.8049409864	 2.0614259876	 0.2170721868	 0.112616
H	-0.3047184244	 1.8499278469	-1.1345041231	 0.121096
H	-0.9330130219	 1.9367780975	 0.5167544166	 0.119395
H	-0.8676914931	-0.4832838851	-0.3536956294	 0.089188
H	 1.3496237517	-1.5812702948	-0.77140064	 0.119379
H	 2.1975929779	-0.0186314468	-0.3789970217	 0.108934
H	 0.2694333334	-1.5791526649	 1.4826322569	 0.102652
H	 1.8725085916	 1.0267542039	 1.9800252007	 0.098453
H	 0.791365212	 1.0549048214	 4.2393568578	 0.127761
H	-0.151458042	-0.4497940101	 3.8116299946	 0.139677
H	 2.9452068705	-0.1591137574	 3.8234902703	 0.131549
