14
gdb 43511	3.14701	1.29632	0.95503	2.1728	69.67	-0.2777	-0.0224	0.2553	1154.2121	0.100269	-436.703683	-436.695779	-436.694834	-436.736724	29.114	
N	-0.0668510163	 1.2619397855	 0.5232537748	-0.509375
C	-0.0216267266	 0.0653142961	 0.1502428737	 0.407392
C	-1.1883565307	-0.8064597637	-0.2451701274	-0.31059
C	-0.6101564596	-2.2340430462	-0.1676712942	-0.343833
C	-1.1081352607	-3.1790521253	-1.1500042805	 0.321518
C	-1.5388450359	-3.9422963121	-1.9701950833	-0.418383
C	 0.9103740519	-1.9937832473	-0.2555027741	 0.439699
O	 1.7828242603	-2.7682527364	-0.4759954	-0.297255
O	 1.1558107298	-0.6645463042	 0.0201636572	-0.215295
H	 0.866881554	 1.6280319234	 0.7152866488	 0.241247
H	-2.0483277797	-0.6340806587	 0.4008530469	 0.157366
H	-1.4832767802	-0.5699754586	-1.2718920936	 0.160827
H	-0.7724035296	-2.6396024357	 0.8413318425	 0.15701
H	-1.9081973367	-4.6260781268	-2.6943559307	 0.209672
