19
gdb 33133	3.19748	1.09657	0.86048	1.4748	79.26	-0.177	0.0551	0.2321	1366.482	0.159489	-419.224696	-419.215074	-419.21413	-419.259688	35.188	
C	 0.1614207704	 1.5270338216	-0.2129419679	-0.385113
C	-0.1190181153	 0.1082745133	-0.6740714345	-0.058431
O	 1.0848047808	-0.6540273789	-0.5244460569	-0.29881
C	 0.9854719451	-1.9514610062	-0.9546055178	 0.249352
C	 0.7840391051	-3.0716455693	-0.1781336312	-0.178522
N	 0.8048316136	-4.1522324552	-1.0175320961	-0.241481
C	 1.0201507987	-3.7419827126	-2.3194220671	-0.164352
C	 1.1354544922	-2.36923557	-2.3117071488	 0.169042
N	 1.2999504888	-1.4779688499	-3.3902700376	-0.618579
H	 0.4892998225	 1.5350686385	 0.8305936548	 0.125082
H	 0.9481288334	 1.9833025007	-0.8211282023	 0.121106
H	-0.7413153859	 2.13940855	-0.2989497373	 0.114411
H	-0.9170703256	-0.351364239	-0.073366237	 0.092331
H	-0.4421841918	 0.0892884581	-1.7238571835	 0.111172
H	 0.6492787377	-3.1723506141	 0.88578222	 0.117109
H	 0.7075973944	-5.1075365315	-0.728052204	 0.259597
H	 1.0694732889	-4.4515573071	-3.1289734696	 0.104756
H	 1.7782037882	-1.9024966976	-4.1751327045	 0.237164
H	 1.8229710386	-0.6613302509	-3.0941867086	 0.244167
