21
gdb 83889	2.43272	1.40207	1.17422	1.0613	89.59	-0.2303	0.0549	0.2851	1178.5227	0.182651	-349.930035	-349.920885	-349.91994	-349.963786	35.058	
C	 0.004288857	 1.5929603707	 0.1084614167	-0.428837
C	 0.1188428198	 0.0838575583	 0.0826785849	-0.044962
C	 1.3186709729	-0.7248274409	-0.3368355252	-0.098304
C	 2.707250087	-0.1051043258	-0.3843970375	-0.222243
C	 2.9541320566	 0.5407566432	 1.0040217964	-0.231072
C	 1.9395540795	-0.1067921028	 1.9806583619	-0.283749
C	 0.8510767062	-0.7655016464	 1.1226930222	 0.1555
C	 0.173326611	-1.9020000312	 1.6731465185	 0.195073
C	-0.3894329376	-2.8520476368	 2.153264933	-0.411992
H	 0.8966084359	 2.0943799014	 0.484290331	 0.122218
H	-0.1889359465	 1.9760334141	-0.900046462	 0.121158
H	-0.8356224001	 1.8989424756	 0.7415194774	 0.124215
H	-0.8125902381	-0.3876309284	-0.2219311517	 0.094444
H	 1.1322817792	-1.581727256	-0.9751988634	 0.091698
H	 3.4356973196	-0.9013748805	-0.5725206546	 0.105871
H	 2.8197134394	 0.6211763607	-1.1972248335	 0.100913
H	 3.9828311375	 0.3847583966	 1.3404768066	 0.101139
H	 2.813107936	 1.6230355291	 0.9569308527	 0.109637
H	 2.4181478565	-0.8909060487	 2.574907344	 0.113415
H	 1.5281256142	 0.6190148364	 2.6899495846	 0.10421
H	-0.8881863961	-3.6904236585	 2.571317298	 0.181668
