19
gdb 68548	2.36462	1.9086	1.51869	1.4867	79.69	-0.2324	0.0119	0.2443	971.488	0.158977	-385.837398	-385.82966	-385.828716	-385.869054	31.36	
C	-0.0436396582	 1.5486763318	 0.0209108482	-0.517382
C	-0.0035783962	 0.0407180438	 0.0060283657	 0.200402
C	 0.3293300831	-0.8021069771	-1.28182875	-0.255371
C	-0.3416882177	-1.9565451464	-0.4642087522	-0.178703
C	 0.5849600687	-2.0234654132	 0.749814322	-0.096147
C	 0.8039696463	-0.7373521022	 1.0516218138	-0.124778
C	-1.2997620073	-0.8378399691	 0.0421916131	 0.509957
C	-2.5235778991	-0.8089310257	 0.8253784736	-0.311291
O	-2.4981217909	-0.470631497	-0.5872538301	-0.301464
H	 0.9344314553	 1.9728829499	-0.2298455026	 0.120196
H	-0.7735698868	 1.9224282077	-0.7035805669	 0.131292
H	-0.3268905864	 1.9287251827	 1.0090533647	 0.116293
H	-0.2581944713	-0.4939391124	-2.1523396845	 0.10881
H	 1.3863159525	-0.9234644878	-1.5307162046	 0.091625
H	-0.7035848802	-2.8745765023	-0.9232551538	 0.070818
H	 0.9150844838	-2.9193516283	 1.2560544002	 0.101939
H	 1.3597584349	-0.3016632948	 1.8706685876	 0.098903
H	-3.0436976058	-1.7348608823	 1.0652238216	 0.11808
H	-2.7305521447	 0.0270166827	 1.4916269441	 0.116822
