16
gdb 24365	3.72442	1.63655	1.15876	2.5375	80.3	-0.163	-0.0063	0.1567	1003.7161	0.129004	-396.973348	-396.966557	-396.965613	-397.004323	27.255	
C	 0.1646392397	 1.4290318526	 0.3613608762	-0.228645
N	 1.0711297698	 2.1373104091	-0.5515506178	-0.393313
C	 2.1622407037	 1.4010769648	-0.975489833	 0.307215
C	 2.0965569244	 0.0246500429	-1.0722059701	 0.262745
N	 3.3077464026	-0.3340633303	-1.6436485668	-0.358818
C	 4.0136183018	 0.8128534699	-1.8328227008	-0.005456
N	 3.3446328165	 1.8890441466	-1.4446996335	-0.343209
C	 0.8957141912	-0.6892764162	-0.7419103836	-0.166249
C	-0.0687818246	 0.0016079537	-0.1068381167	-0.085686
H	 0.5538112249	 1.4120065109	 1.4018188388	 0.0899
H	-0.7832102044	 1.9763587002	 0.3934858473	 0.109414
H	 1.2844251822	 3.0897165526	-0.2927814013	 0.240536
H	 3.6274641469	-1.2673248408	-1.838654597	 0.263904
H	 5.0117226702	 0.8128573733	-2.2432648376	 0.128642
H	 0.7537221596	-1.7252847984	-1.0334754975	 0.086607
H	-1.0134864744	-0.461951571	 0.1520990633	 0.092413
