19
gdb 32742	3.0752	1.06401	0.82723	1.1551	80.32	-0.186	0.0301	0.2161	1415.3775	0.160107	-419.224377	-419.215168	-419.214224	-419.258974	34.108	
C	-0.0775884982	 1.4916756038	-0.1213443494	-0.393308
C	-0.2408932077	-0.0032573023	-0.3744711133	-0.113766
N	-1.3110510838	-0.5577376095	 0.4691964527	-0.408599
C	-1.6349038485	-1.8949579997	 0.2731132231	 0.275318
C	-2.8231231926	-2.4742085043	-0.0686716698	 0.188531
N	-4.0488224892	-1.8162087002	-0.2346684855	-0.612527
C	-2.5852201573	-3.8889984081	-0.1307346956	-0.244764
C	-1.2733889638	-4.062055648	 0.1795330816	-0.009202
O	-0.6705841267	-2.8811614558	 0.4398346913	-0.180584
H	 0.7037923105	 1.9093099063	-0.7629645149	 0.118251
H	-1.01302245	 2.024207718	-0.3170104169	 0.122698
H	 0.2100843008	 1.6869133066	 0.9185306784	 0.113817
H	-0.5247567375	-0.1837321585	-1.4172588412	 0.107883
H	 0.7187749421	-0.5182000858	-0.2141752145	 0.100535
H	-1.1401958321	-0.3347737591	 1.4461258483	 0.225866
H	-3.907121867	-0.8143004514	-0.29679366	 0.242404
H	-4.5632122706	-2.1394088321	-1.0446612715	 0.239607
H	-3.3011807722	-4.6617285682	-0.3646331727	 0.100952
H	-0.6485187162	-4.9379813117	 0.2496917798	 0.126889
