17
gdb 68268	2.46843	1.492	1.44521	2.6119	73.24	-0.256	0.0161	0.2722	1014.3222	0.135031	-417.952552	-417.944127	-417.943182	-417.985066	32.54	
C	 0.031073729	 1.4788157477	 0.1216263915	-0.517542
C	 0.018664568	-0.0032247288	-0.0587852495	 0.38336
C	 0.7053027539	-0.9187397006	-1.1011804109	-0.291732
C	 0.1071277465	-1.8121580462	-0.0009241411	-0.002644
O	 0.6115242909	-0.8640313549	 1.012367302	-0.355931
C	-1.2300784372	-0.9673998557	-0.0254631519	 0.184551
N	-2.0460780547	-0.852068616	 1.1530827923	-0.581238
C	-2.0624209173	-1.058706773	-1.2223267925	 0.236373
N	-2.7137586479	-1.1525857975	-2.1727515554	-0.340731
H	 1.0544901536	 1.8375334804	 0.2628132526	 0.14095
H	-0.3917772269	 1.96400715	-0.7631914579	 0.145112
H	-0.5697502936	 1.7601240019	 0.9909488719	 0.14841
H	 0.2874456366	-0.9678652976	-2.1078635262	 0.134013
H	 1.7933240904	-0.8658664462	-1.0865486649	 0.118512
H	 0.23646898	-2.8764044353	 0.1948175773	 0.106262
H	-2.7208353036	-1.6072179078	 1.2115859628	 0.243118
H	-1.4299147278	-0.8972183103	 1.9600288898	 0.249158
