17
gdb 46077	3.45731	1.20845	1.01377	3.9258	68.13	-0.2546	0.0448	0.2994	1168.6193	0.138624	-455.165618	-455.157817	-455.156872	-455.198616	28.945	
O	 0.086491905	-0.0426706408	 0.1809251206	-0.381709
C	 0.0024430833	 1.150241959	 0.1218223983	 0.471042
N	-1.1154054341	 1.9416652724	 0.260831365	-0.364818
C	-0.8633091307	 3.297855774	-0.1865481677	-0.205726
C	 0.6749531304	 3.3514044517	-0.0288746996	 0.090644
O	 1.081464588	 1.9747606236	-0.0956325528	-0.256743
C	 1.3836923947	 4.1636123175	-1.0862069281	-0.009656
C	 2.7607197195	 3.8293384183	-1.5132510425	-0.242859
N	 1.6170788464	 3.6053427048	-2.4229193746	-0.321459
H	-2.010768213	 1.4944030884	 0.1493180137	 0.265883
H	-1.161417183	 3.4613292887	-1.2314108011	 0.125471
H	-1.3619072048	 4.041274385	 0.4409802299	 0.126099
H	 0.9344621549	 3.7307064847	 0.9683472517	 0.105427
H	 1.074063934	 5.2080353718	-1.0885171859	 0.098453
H	 3.4401991987	 4.6208055337	-1.8148775554	 0.122025
H	 3.2282625077	 2.9597547388	-1.0623875054	 0.137067
H	 1.3926988431	 2.6117123585	-2.405205666	 0.240857
