15
gdb 124305	4.77384	0.96227	0.93297	3.9074	67.17	-0.2655	-0.0298	0.2357	1273.7604	0.111416	-453.968063	-453.959617	-453.958673	-454.003109	28.806	
C	 0.0142839884	 1.5030905754	-0.0500242853	-0.478051
C	 0.0348170591	-0.0055421992	 0.0844429783	 0.387499
O	 0.0781664848	-0.572298091	 1.1462128639	-0.264493
C	-0.0042024326	-0.7829725258	-1.2464901063	-0.448404
C	-0.0478118449	-2.2550427825	-1.050861218	 0.462479
N	-1.0831596688	-3.040290525	-1.0871320517	-0.312406
C	-0.5142600891	-4.2602273298	-0.8164363499	 0.041605
N	 0.7765731897	-4.2465345075	-0.6315672547	-0.109784
O	 1.0981364848	-2.8932934061	-0.7888850335	-0.191821
H	 0.8513685645	 1.8447165767	-0.6690175526	 0.144712
H	-0.9054431685	 1.825868631	-0.5509495476	 0.147559
H	 0.0740136201	 1.9609409667	 0.9375276373	 0.153573
H	-0.8863439893	-0.4754776219	-1.8156553241	 0.16283
H	 0.8763056015	-0.5025092732	-1.835870547	 0.156489
H	-1.0775417496	-5.1802118577	-0.7604017488	 0.148212
