18
gdb 39886	3.96646	1.5356	1.41794	3.2083	75.13	-0.2319	0.0739	0.3058	956.3035	0.15001	-401.860671	-401.854275	-401.853331	-401.89118	26.967	
C	 0.0281182907	 1.5515045711	 0.0364343419	-0.302618
O	 1.1798241383	 0.6856673581	-0.0350874078	-0.292559
C	-0.0993266418	 0.0999821192	 0.0083151536	 0.545594
C	-0.5415956769	-0.9551926242	 1.0207294337	-0.116753
C	-2.077063877	-0.8854953138	 0.8304353017	-0.23014
C	-2.025093736	-1.3984836911	-0.6292188369	-0.065954
C	-1.3700128602	-2.7713767546	-0.3933721206	-0.162974
N	-0.1173157647	-2.0272376201	-0.0209565161	-0.153402
C	-0.5608858795	-0.9269623885	-1.0020467575	-0.10939
H	-0.0881499305	 2.0899921965	 0.9762216025	 0.117798
H	-0.1687431889	 2.1361291628	-0.8611492645	 0.117665
H	-0.1127912755	-1.0372072554	 2.0173083567	 0.087775
H	-2.6466935545	-1.5508318108	 1.4845004439	 0.100863
H	-2.4626286067	 0.1312772934	 0.9424270787	 0.101426
H	-2.8958225542	-1.2428202048	-1.2676746898	 0.066171
H	-1.7915201317	-3.4336624036	 0.3701439937	 0.09862
H	-1.1707356195	-3.3385783725	-1.3069599734	 0.110061
H	-0.2135986012	-0.9782103617	-2.0334885698	 0.087816
