18
gdb 104384	2.64007	1.52836	1.20115	2.8105	68.73	-0.2593	0.0111	0.2704	1065.3457	0.148952	-476.243735	-476.235475	-476.23453	-476.27638	31.881	
O	-0.1152477513	 1.4484086592	-0.4124325456	-0.433381
C	 0.0351353706	 0.0762508181	-0.0989794026	-0.131232
C	-1.3476884674	-0.5583880782	 0.0678769746	 0.277058
O	-2.1386811467	-0.2875954069	-1.0826486731	-0.477547
C	-1.3982788528	-2.0609322143	 0.3390045652	-0.279008
C	-2.712855303	-2.200470339	 1.1155942589	-0.095547
O	-2.8495429328	-0.9627932009	 1.8539660237	-0.240212
C	-2.0772707793	-0.0044219435	 1.296995409	 0.4284
N	-1.9737976835	 1.1904089402	 1.7075690922	-0.580656
H	-0.5886923667	 1.8334500231	 0.3480006125	 0.302019
H	 0.5509526971	-0.3929674244	-0.9433788513	 0.112314
H	 0.6377088928	-0.0792165722	 0.8080326562	 0.094364
H	-1.9196828586	 0.6266542514	-1.318908801	 0.291044
H	-1.3847621082	-2.6369976034	-0.5869436508	 0.129151
H	-0.5511364456	-2.3618773888	 0.9639305665	 0.115697
H	-3.5719473281	-2.2998084473	 0.4453564594	 0.135172
H	-2.7228592913	-3.0158022418	 1.8411034923	 0.124048
H	-2.5674782853	 1.3712000685	 2.5173279339	 0.228315
