18
gdb 94598	3.25818	1.07774	0.88114	3.2831	68.44	-0.2486	0.0487	0.2973	1314.0814	0.146454	-476.249294	-476.239809	-476.238865	-476.284955	33.531	
C	-0.2065685456	 1.5665183211	 0.0335818207	-0.392852
C	 0.0916635164	 0.0819241894	-0.0324858646	 0.114688
O	 1.3591447453	-0.2064765169	-0.6745431208	-0.295272
C	 1.8663573198	-0.8809469574	 0.4974636702	-0.089137
C	 0.5510773422	-0.644182859	 1.2528135811	 0.078607
O	 0.6177651373	 0.2209454209	 2.3824809283	-0.266028
C	 1.1345130459	-0.3531359924	 3.5020611087	 0.497673
N	 1.1681905771	 0.5563982002	 4.5175331118	-0.565621
O	 1.5297524085	-1.493845199	 3.5633332641	-0.398444
H	 0.5741261278	 2.1004233181	 0.5793837359	 0.126378
H	-0.2634186292	 1.9691076064	-0.9821889307	 0.127203
H	-1.1658563804	 1.7463217388	 0.5298884656	 0.115981
H	-0.7235039069	-0.446819069	-0.5449671228	 0.078886
H	 2.1169011397	-1.9290750513	 0.3026774651	 0.11316
H	 2.7356659417	-0.3717169474	 0.9287287824	 0.110659
H	-0.0010380852	-1.5459188915	 1.5189088073	 0.105636
H	 0.6353574154	 1.4050908601	 4.4362473326	 0.26691
H	 1.3607798504	 0.1973299391	 5.4362518649	 0.271573
