16
gdb 98925	3.24837	0.98424	0.84118	2.182	74.06	-0.2754	-0.0495	0.2259	1395.121	0.120647	-437.886703	-437.876861	-437.875917	-437.92298	33.835	
C	 0.2687195542	 1.1323549514	-0.4096426597	-0.375723
C	-0.3090441447	 0.0783414061	 0.5313580535	-0.303621
C	 0.7302688468	-0.5117880382	 1.454350074	 0.451135
O	 1.901906887	-0.2622169865	 1.4724813859	-0.328906
O	 0.1344426972	-1.3971541319	 2.3221142806	-0.227366
C	 0.9389505365	-2.1325938285	 3.1770809646	 0.262152
N	 0.6830932852	-2.0599995939	 4.4122361257	-0.452144
C	 1.9079489638	-2.9793230558	 2.5493021467	 0.326448
C	 2.7072948341	-3.7353454783	 2.0641239433	-0.489428
H	 1.0603822325	 0.7092644011	-1.0328042985	 0.135529
H	-0.5134134843	 1.5274564207	-1.0631854974	 0.116976
H	 0.7021137526	 1.9635952791	 0.1521308765	 0.136313
H	-1.1127912644	 0.4853486951	 1.1556373977	 0.144157
H	-0.7646316139	-0.7520096216	-0.021977617	 0.139017
H	 1.2826059596	-2.6993808256	 4.9335896267	 0.245494
H	 3.4228325377	-4.390243893	 1.6298613473	 0.219968
