17
gdb 96817	3.17183	1.07355	0.91206	3.2248	79.05	-0.2312	0.0198	0.251	1307.8917	0.133128	-417.949424	-417.939493	-417.938549	-417.984806	35.035	
C	 0.088115661	 1.4300319351	 0.4824255631	-0.339639
N	 0.0587106367	-0.0246172794	 0.4584503666	-0.31664
C	-0.986124066	-0.5836664647	 0.0315045527	 0.354285
N	-2.2073276221	-0.1514570293	-0.4900774097	-0.324487
C	-2.7685060875	-1.4961807341	-0.6892201625	-0.248944
C	-3.0797086059	-1.8394144594	-2.0659184562	 0.341972
C	-3.3005750789	-2.1469422051	-3.2071612391	-0.427794
C	-1.3801046911	-2.0593184088	-0.1333204631	 0.041394
O	-0.6219084123	-2.9059423701	-0.9267463488	-0.405212
H	 1.1238004713	 1.7730229947	 0.4047974777	 0.127859
H	-0.4869134283	 1.8946254339	-0.3339319259	 0.100335
H	-0.3080939508	 1.8135876139	 1.4329097286	 0.119067
H	-2.7205809573	 0.6931094236	-0.2926709149	 0.251318
H	-3.6149309035	-1.7297483121	-0.0327557462	 0.106886
H	-3.5141704969	-2.4118255426	-4.2134669099	 0.204744
H	-1.5131458986	-2.5618303401	 0.827537361	 0.122884
H	-0.4785564199	-2.4816553055	-1.7809070335	 0.291973
