19
gdb 115935	3.65136	1.14241	0.95686	2.3007	71.03	-0.2615	0.0773	0.3388	1230.6754	0.160346	-460.143181	-460.135097	-460.134153	-460.175976	31.124	
O	 0.0761934528	 1.3966948884	 0.1467417142	-0.425664
C	 0.0551458844	-0.0109461765	 0.048770845	-0.07067
C	-1.3702278048	-0.5445479229	-0.0342380654	 0.102178
C	-1.4487554778	-2.0712000896	-0.1495723755	-0.250762
C	-2.8402658148	-2.5849161282	 0.1807882961	 0.035524
O	-3.1569797966	-2.6986390124	 1.5743668828	-0.244493
C	-3.8182518081	-1.6889289335	 0.8190683744	 0.043146
C	-3.4191455885	-0.2615184226	 1.123612229	-0.118038
O	-2.0177975053	-0.0861090794	 1.1523876898	-0.267982
H	-0.539783378	 1.6138470078	 0.8569868995	 0.288788
H	 0.6066289044	-0.2831155733	-0.8573209887	 0.107168
H	 0.5578577182	-0.4862539727	 0.9070034684	 0.094734
H	-1.8675848694	-0.0839122712	-0.9047306891	 0.071707
H	-1.1766173777	-2.3727424412	-1.1670070461	 0.105926
H	-0.7325175392	-2.5408826807	 0.5347131929	 0.122344
H	-3.2069667412	-3.4171901385	-0.4191485855	 0.095639
H	-4.8857488267	-1.8484580579	 0.6594693364	 0.093124
H	-3.8829755794	 0.3999542485	 0.3711214728	 0.094933
H	-3.7881155721	 0.0357178658	 2.1107833389	 0.122398
