21
gdb 11574	4.09238	1.11176	0.93171	0.8376	76.05	-0.2332	0.0921	0.3253	1295.5449	0.186912	-366.218841	-366.209324	-366.20838	-366.253572	33.952	
C	 0.0257153851	 1.1066469516	 0.7264095409	-0.237659
O	 0.8498471517	 0.1229752004	 0.1463692858	-0.243088
C	 0.4546207461	-0.2996594384	-1.1546732809	 0.127474
C	 1.7128194786	-0.7860546262	-1.8629434368	-0.396042
C	-0.6356281971	-1.3787048607	-1.0452698913	-0.152333
N	-1.1913566211	-1.7177789576	-2.3509227423	-0.066753
C	-0.6855071614	-2.9251806806	-2.998253199	-0.216588
C	-2.0466642778	-2.8979911639	-2.3988800303	-0.220535
H	-0.0292574086	 2.0111270932	 0.1004860987	 0.104727
H	-1.0011684877	 0.755309492	 0.9075946353	 0.104116
H	 0.4710508462	 1.3723999468	 1.6887967664	 0.124929
H	 0.0320222999	 0.5521929504	-1.7103238248	 0.072749
H	 2.1541777276	-1.6280381952	-1.3192094567	 0.116872
H	 1.4853766434	-1.1058287205	-2.8826833283	 0.126212
H	 2.453589964	 0.0168008871	-1.9043100153	 0.118427
H	-0.2195756598	-2.2557881624	-0.5170285168	 0.084219
H	-1.455662001	-0.9912090162	-0.4303455861	 0.100376
H	-0.5534944903	-2.8677440119	-4.0751358235	 0.116281
H	 0.0748345378	-3.5033982881	-2.475679125	 0.112267
H	-2.1930723957	-3.4592899909	-1.4770671869	 0.108777
H	-2.9286948399	-2.8187349288	-3.0282899733	 0.115574
