20
gdb 110444	2.87778	1.41249	1.14502	3.0608	78.17	-0.2351	0.0828	0.318	1133.8082	0.171825	-403.068756	-403.060701	-403.059757	-403.101218	31.903	
C	 0.0699318092	 1.6306921593	 0.0981032923	-0.424248
C	 0.1581169736	 0.1148034452	 0.0603531961	 0.072854
C	 0.7672704242	-0.6531044997	-1.1068516225	-0.12187
C	 2.2810537225	-0.7678726476	-0.8115648616	-0.096591
C	 1.2863752964	-1.6619130464	-0.1322476784	-0.027049
N	 1.1545095775	-0.5922397108	 0.9790899971	-0.208941
C	 2.5044814688	-0.0598657939	 0.5130879442	 0.010549
C	 3.5740302075	-0.6460446138	 1.4258863289	-0.06914
O	 3.3429861163	-0.2452962952	 2.7611610811	-0.424971
H	 0.9594916258	 2.1196424702	-0.3050379089	 0.125186
H	-0.787547737	 1.9634513735	-0.4962638109	 0.119435
H	-0.080845028	 1.9772966571	 1.1263384815	 0.129812
H	-0.8202541839	-0.3119309562	 0.3065889448	 0.083607
H	 0.3764094488	-0.8272128479	-2.102251325	 0.092516
H	 2.9842742868	-1.0213255383	-1.5956182706	 0.092312
H	 1.1671083966	-2.7280047046	-0.0072015398	 0.102522
H	 2.5782077451	 1.031540767	 0.5349909582	 0.074921
H	 3.5866009942	-1.7439065401	 1.3256460153	 0.081257
H	 4.5652352356	-0.2760432824	 1.1412215207	 0.100915
H	 2.4006760101	-0.4100376955	 2.9060655373	 0.286925
