15
gdb 2954	4.61639	2.27939	2.13711	1.9197	52.89	-0.2475	0.0774	0.3248	678.5549	0.12607	-382.782995	-382.776289	-382.775345	-382.813994	24.045	
O	-0.2100825692	 1.4366118596	 0.3903563511	-0.419579
C	-0.0365133575	 0.0499130615	 0.1961764287	-0.086549
C	-1.3653933943	-0.6502907348	-0.0837545808	 0.215378
O	-2.2366709957	-0.6354018011	 1.0323768061	-0.262403
C	-3.2778567218	 0.2948636554	 0.7639267197	-0.094333
C	-3.371694031	 0.2418608586	-0.7583208316	-0.092004
O	-2.012060163	 0.0517208821	-1.1407883942	-0.282963
H	-0.6886396166	 1.7454019383	-0.3884728559	 0.28525
H	 0.6561324753	-0.1690203425	-0.6330126417	 0.090516
H	 0.3914052533	-0.3613481767	 1.1149649189	 0.121044
H	-1.1977502521	-1.7030923781	-0.3613240829	 0.077974
H	-4.1848109519	-0.0394878714	 1.2740652229	 0.113347
H	-3.005867681	 1.2986438634	 1.1153464173	 0.111588
H	-3.9909109421	-0.6021958685	-1.0932556207	 0.106358
H	-3.7361395724	 1.162837534	-1.219706797	 0.116375
