19
gdb 106459	2.33465	1.76035	1.27016	1.9667	75.73	-0.2281	0.0075	0.2356	1053.348	0.158801	-422.982044	-422.973667	-422.972723	-423.014723	32.619	
C	 0.1627547309	 1.5064487197	-0.0092042604	-0.521963
C	 0.0544925065	 0.0225587278	-0.0161820039	 0.333413
C	-0.1145330068	-0.8782001799	-0.9886769772	-0.209077
C	-0.1343065488	-2.1949386796	-0.1970726965	 0.021589
C	 1.090717642	-2.0186254027	 0.7476600942	-0.273335
C	 0.1147978212	-0.9026427183	 1.233520283	 0.286497
C	 0.0380272098	-0.33008578	 2.6235433609	-0.18443
O	-1.1766887227	 0.3810662372	 2.8009170492	-0.41856
O	-0.9890478147	-1.841672529	 0.9477242645	-0.333775
H	 1.1455299629	 1.8333056506	 0.3560442322	 0.126088
H	 0.0235921724	 1.9217099275	-1.0110131732	 0.124357
H	-0.5815231014	 1.9415891555	 0.6662067116	 0.152694
H	-0.2138909977	-0.7513465092	-2.0569789003	 0.104822
H	-0.3980599598	-3.1319784659	-0.6847834985	 0.081304
H	 1.193895481	-2.8312394817	 1.471796073	 0.104305
H	 2.0486199746	-1.7266991476	 0.3131071929	 0.097905
H	 0.1414750097	-1.1412155117	 3.3598735819	 0.09877
H	 0.8539269676	 0.381656796	 2.7903407889	 0.110646
H	-1.8786603267	-0.2009117887	 2.4849120878	 0.29875
