14
gdb 20345	5.15508	2.13551	1.52417	1.6642	69.92	-0.2067	-0.0007	0.206	776.458	0.111229	-341.611251	-341.60556	-341.604616	-341.640732	22.989	
C	-0.0682454264	 1.4756097207	 0.0106680166	-0.406009
C	 1.3946135033	 1.9042849273	-0.0009448919	-0.085059
C	 2.2345851973	 0.849356493	-0.0148218674	-0.216394
C	 1.4464093756	-0.3762814986	-0.0140705235	 0.249616
C	 1.446546059	-1.7528840927	-0.0216595736	-0.227455
N	 0.1268282375	-2.1119179711	-0.0108929308	-0.185597
N	-0.7350744378	-1.0618617167	 0.0030154405	-0.328886
C	 0.0753996545	-0.019345477	 0.0010281709	 0.331635
H	-0.5969912549	 1.8496940142	 0.8965208963	 0.133577
H	-0.6137744746	 1.8594095982	-0.8607347757	 0.133577
H	 1.6927075136	 2.9450657145	 0.0019533948	 0.097897
H	 3.3155020102	 0.905329155	-0.0248631462	 0.099035
H	 2.2267233777	-2.4970784876	-0.0332493845	 0.132679
H	-0.250184445	-3.0439950193	-0.0123327955	 0.271385
