18
gdb 93756	2.06138	1.65594	0.98476	5.3192	79.62	-0.2218	-0.0387	0.1831	1191.325	0.146602	-439.112963	-439.103662	-439.102717	-439.14743	33.731	
C	 0.1739210217	 1.5684140255	-0.1798563044	-0.394886
C	-0.0140986182	 0.0746594706	 0.0634814183	 0.046485
O	 0.4834147917	-0.6719515295	-1.0688659682	-0.279332
C	 1.4414541496	-1.6208870361	-0.6674473085	-0.139506
C	 1.5896969548	-1.4542532547	 0.8237376382	 0.226661
N	 2.5034377937	-2.1978496284	 1.5010731307	-0.581631
C	 0.7429534426	-0.4807092417	 1.2496397369	 0.119976
C	 0.5253410772	-0.0589802236	 2.6095451241	 0.049229
O	-0.2638818922	 0.7994440118	 2.9634060627	-0.299116
H	 1.2365230313	 1.811940421	-0.2767655773	 0.106726
H	-0.3386202273	 1.8671076437	-1.0989011207	 0.116814
H	-0.2431872538	 2.1281911047	 0.6608931817	 0.144974
H	-1.0904966994	-0.1325176641	 0.1602506371	 0.091004
H	 1.1121334589	-2.6456016125	-0.9150417099	 0.106288
H	 2.3999787108	-1.456057354	-1.1859748926	 0.117227
H	 2.8428084309	-3.0451004081	 1.0762064636	 0.26681
H	 2.486730865	-2.2030189219	 2.5078330943	 0.27009
H	 1.1412208627	-0.5918463328	 3.3749430942	 0.032188
