16
gdb 128610	2.73928	1.24564	0.8665	4.4501	67.52	-0.2382	-0.0107	0.2275	1280.4364	0.123303	-474.991176	-474.982322	-474.981378	-475.025471	31.049	
C	 0.2987472731	 1.5011033199	-0.1213793035	-0.257496
O	 0.1210587087	 0.0928653571	-0.111289488	-0.259384
C	 0.5315053566	-0.5275312855	 1.0124896506	 0.161106
C	 1.1018316106	-0.0692044887	 2.1605905783	-0.056435
O	 1.3284890564	-1.1078291971	 2.9961898731	-0.177887
N	 0.8957269468	-2.2734980029	 2.3893587981	-0.212014
C	 0.4232133749	-1.9367610849	 1.2164239165	 0.260953
C	-0.0985226196	-2.9849901242	 0.2778684722	-0.140256
O	-0.2159636971	-4.2522875962	 0.8776057537	-0.417651
H	 1.3603746297	 1.7632834732	-0.02276353	 0.128761
H	-0.077347836	 1.8576727763	-1.0806673546	 0.145871
H	-0.2658305047	 1.9733948117	 0.6932370161	 0.129367
H	 1.3908558597	 0.9030100413	 2.5219120421	 0.151
H	-1.0891176855	-2.6846667168	-0.0863678068	 0.128414
H	 0.5597559338	-3.0126810503	-0.6077521089	 0.112805
H	 0.4258338826	-4.2956501329	 1.596410181	 0.302846
