21
gdb 110867	2.00565	1.51899	1.36327	1.9621	78.67	-0.242	0.0749	0.3169	1133.8103	0.1814	-424.188922	-424.179455	-424.178511	-424.2229	35.593	
C	 0.2807116172	 0.9856099023	-0.3171998295	-0.251979
O	-0.3803377511	-0.0924170424	 0.3259511555	-0.259622
C	 0.4289326989	-0.7126165185	 1.2940336678	 0.077094
C	 0.0512643994	-2.0345438182	 1.8615542441	-0.171937
C	-0.5969280956	-2.9132912436	 0.7907185809	-0.272166
C	 0.6892402791	-2.7592545566	-0.0864575188	 0.086527
O	 0.5684773082	-2.251051452	-1.3930564644	-0.444925
C	 1.3387053682	-1.8683155975	 0.9916511178	 0.262998
C	 2.796241898	-1.9038170231	 1.355539108	-0.509109
H	 1.1601081127	 0.6406913472	-0.8786494197	 0.123056
H	-0.4357050492	 1.4365906707	-1.0079647758	 0.130267
H	 0.6016165737	 1.7467379795	 0.4084061063	 0.114126
H	 0.8361532718	-0.0039632197	 2.0184610393	 0.083989
H	-0.0324334974	-2.185938861	 2.931697499	 0.086918
H	-0.7659876027	-3.9423397059	 1.1148444874	 0.101974
H	-1.5179543583	-2.523776646	 0.3487231396	 0.105966
H	 1.223766232	-3.7090522158	-0.1783394434	 0.086117
H	-0.0010003801	-1.4760266398	-1.3166958192	 0.289541
H	 3.4139124	-1.5278490036	 0.5310074201	 0.12775
H	 3.0077422099	-1.2878544519	 2.2361672575	 0.114891
H	 3.1291566053	-2.924612734	 1.5768591475	 0.118525
