18
gdb 68261	2.38338	1.50701	1.46243	3.1931	76.81	-0.2855	0.0184	0.3038	1029.2094	0.147	-401.916651	-401.908177	-401.907233	-401.949207	32.825	
C	-0.025290643	 1.4738416992	 0.0509060823	-0.520903
C	 0.0454233481	-0.0271410384	 0.0164047249	 0.293678
C	 0.698581985	-0.9503956013	-1.0608467402	-0.288865
C	 0.0828639365	-1.9274175054	-0.0216126077	-0.115485
C	 0.6603202053	-0.9971144814	 1.0830033174	-0.284762
C	-1.1808360654	-1.0000650001	-0.0160281476	 0.3123
O	-1.9963116249	-0.9390698728	 1.1276522937	-0.480769
C	-2.0219883114	-1.0039869135	-1.2213055058	 0.209374
N	-2.7267706964	-1.0285326873	-2.1378541906	-0.348887
H	 0.9785996406	 1.9075557408	 0.1027540666	 0.125489
H	-0.517587521	 1.8641944656	-0.8459793017	 0.13511
H	-0.5892480332	 1.8146789456	 0.9248509895	 0.13726
H	 0.2678103978	-0.937220069	-2.0644090879	 0.124722
H	 1.7892899607	-0.9290039595	-1.0935843025	 0.10334
H	 0.0802045626	-3.0168303839	-0.0515110866	 0.086348
H	 1.7497016214	-0.9770766299	 1.158186496	 0.096911
H	 0.1809302645	-1.024740993	 2.0596673609	 0.119254
H	-2.6482014972	-1.6472360757	 1.0842082093	 0.295883
