21
gdb 90619	3.95451	1.20443	1.12865	1.6412	82.41	-0.2356	0.0757	0.3113	1194.8706	0.182237	-387.042102	-387.033729	-387.032785	-387.074517	33.286	
C	 0.0127908349	 1.5226156842	-0.0334180122	-0.407182
C	-0.0267749565	 0.009049013	 0.055182648	 0.128384
O	 0.9364856044	-0.6067611623	-0.857419319	-0.319517
C	 1.7075118376	-1.1398562653	 0.2454922893	 0.049678
C	 0.6864200552	-0.6275662305	 1.2719037648	-0.073408
C	 0.3696001526	-2.0908495608	 1.652635329	-0.134091
C	-0.0082473221	-2.9313757205	 0.4588887477	-0.343706
C	 1.4402470556	-2.6101037299	 0.6694867013	 0.357205
C	 2.5168636083	-3.6436831698	 0.837479467	-0.507931
H	 1.0089112281	 1.9044206972	 0.2125042682	 0.117638
H	-0.237630138	 1.8511874024	-1.0468390865	 0.125724
H	-0.7109279629	 1.9648711274	 0.6606760988	 0.112703
H	-1.0409924834	-0.3600029775	-0.143403566	 0.075549
H	 2.7589023269	-0.8405339878	 0.2138248152	 0.07085
H	 0.964861408	 0.0275116787	 2.0967425659	 0.072551
H	 0.15719186	-2.4242229082	 2.6619472357	 0.08401
H	-0.2834449633	-3.9530813238	 0.7030904438	 0.105701
H	-0.5433324561	-2.5174634999	-0.3885166915	 0.128867
H	 2.8853541424	-3.9940275954	-0.1346349866	 0.124251
H	 3.3747729897	-3.2485431987	 1.3940605782	 0.114973
H	 2.1421286584	-4.5168059627	 1.3819629989	 0.117751
