17
gdb 81105	2.46977	1.6642	1.23473	3.2903	73.79	-0.2422	-0.0306	0.2116	1027.355	0.135405	-421.793732	-421.785924	-421.78498	-421.826125	30.397	
O	 0.3561786326	 1.2605475566	-0.3219237046	-0.436568
C	 0.0453599582	-0.0747235828	-0.0874634959	 0.149903
C	 0.1538738411	-0.6478954494	 1.3820172802	-0.128091
C	-1.2508346264	-0.013315561	 1.6309374045	-0.294755
C	-1.5039722334	-0.4942869905	 0.1565448557	 0.173632
C	-2.5904057174	 0.0482266567	-0.7047846413	 0.044958
O	-3.3097371049	-0.6237760552	-1.4042474318	-0.252328
C	-1.3011623685	-1.9934704076	 0.2951824056	-0.12752
C	-0.2320178397	-2.0977260136	 1.0944803939	-0.100557
H	 0.0743024017	 1.8005499786	 0.4238900618	 0.288337
H	 0.5366849225	-0.6553003297	-0.8700237346	 0.106012
H	 1.015699374	-0.4398964935	 2.016000233	 0.072144
H	-1.8768214989	-0.4651060614	 2.4031170925	 0.114237
H	-1.2473149215	 1.0770437925	 1.7493550645	 0.085717
H	-2.6921206357	 1.1570468932	-0.6814633098	 0.06881
H	-1.888412072	-2.7464442868	-0.2082786787	 0.126495
H	 0.2995669583	-2.9775753061	 1.4275901651	 0.109576
