18
gdb 34253	4.17729	1.31192	1.18537	1.2239	83.05	-0.2238	0.0374	0.2612	1073.7648	0.149273	-364.740628	-364.733379	-364.732434	-364.772003	29.678	
C	 0.0636726517	-1.1895779344	-0.0689921245	-0.374537
C	 0.0310026255	 0.0129438577	-0.0201500037	 0.107645
C	-0.0323019388	 1.4311731043	 0.0603162473	 0.205398
C	-1.2069023286	 2.2665141106	 0.5732631761	-0.242314
N	-0.8212167589	 3.3952049405	-0.3482759927	-0.12263
C	 0.0147859634	 4.3613533475	 0.3962367318	-0.163573
C	 1.2415262116	 3.5610461096	 0.9304873159	-0.260904
C	 1.2208392233	 2.3309414515	 0.0280486381	-0.087913
C	 0.1620254191	 2.4945547256	-1.0156216677	-0.09456
H	 0.0950156287	-2.2496120768	-0.1165567723	 0.181619
H	-2.1722791168	 1.8456679471	 0.2819818783	 0.119858
H	-1.2279698988	 2.5219609281	 1.6390228142	 0.100049
H	 0.3387203232	 5.1406242125	-0.3014907031	 0.108068
H	-0.5753143063	 4.837126077	 1.1842071056	 0.107068
H	 2.178086818	 4.1156857587	 0.8196111235	 0.10488
H	 1.1415038338	 3.3021596382	 1.9892281049	 0.108531
H	 2.1365389046	 1.8107812975	-0.226189732	 0.100952
H	 0.2577817555	 2.4163841047	-2.0906825697	 0.102364
