21
gdb 101009	2.31265	1.3343	1.0429	1.633	74.7	-0.2458	0.0674	0.3132	1248.332	0.179419	-461.326099	-461.31577	-461.314826	-461.361786	37.062	
C	-0.0585259127	 1.3989231132	-0.0181488409	-0.235318
O	-0.0673873801	 0.0076114629	 0.2034464847	-0.247728
C	-1.3218022565	-0.6254092942	 0.0044308847	 0.099925
C	-1.6624494423	-0.7935920452	-1.4779336769	-0.411186
C	-1.2445313496	-1.9695581662	 0.7346990703	 0.329002
O	-2.5037339964	-2.5819240863	 0.5624281326	-0.489255
C	 0.0013480481	-2.8502434787	 0.4509331794	-0.123926
O	 0.4173558458	-2.7802842579	 1.828408459	-0.27174
C	-0.6972084909	-1.9390353101	 2.1837419645	-0.127835
H	 0.9312684318	 1.7614724851	 0.2697180212	 0.130889
H	-0.2322979824	 1.660357498	-1.0714894703	 0.110508
H	-0.8163106033	 1.911458741	 0.5946221592	 0.105206
H	-2.1145426421	-0.0348901454	 0.4945061389	 0.07388
H	-0.8754221855	-1.3578733191	-1.9886950177	 0.120566
H	-2.6057790775	-1.3321171467	-1.5844207258	 0.141734
H	-1.7620210101	 0.1759070353	-1.9733706077	 0.113309
H	-2.4902571148	-3.4341559019	 1.0099100934	 0.285923
H	-0.2350417624	-3.8756362528	 0.1340707929	 0.087248
H	 0.7460964694	-2.4176342467	-0.2250465803	 0.113911
H	-0.374175354	-0.9596097069	 2.5499341318	 0.109415
H	-1.3622232946	-2.4112909376	 2.9204296769	 0.085474
