18
gdb 28936	2.83017	1.28864	1.02641	1.7129	84.4	-0.1954	0.0293	0.2247	1201.5895	0.147147	-364.812409	-364.803511	-364.802567	-364.846451	33.177	
C	-0.094816361	 1.4837614	 0.0758095274	-0.509651
C	-0.0216232603	-0.0037039038	-0.0351649379	 0.295831
C	-0.013220899	-0.8177186071	-1.1460044235	-0.229151
C	 0.0634970234	-2.1679463249	-0.7040153088	-0.164629
C	 0.099426937	-2.1424643199	 0.667066825	-0.107061
N	 0.056217111	-0.8263959924	 1.0734261007	-0.015541
C	 0.0110164421	-0.3924320825	 2.4590174809	-0.340521
C	-1.332044755	-0.049675975	 2.9321734505	 0.333861
C	-2.4310322884	 0.2395257773	 3.3211754274	-0.454411
H	 0.7966000761	 1.9155368823	 0.5501518936	 0.122602
H	-0.1735546335	 1.9182770245	-0.9232350021	 0.133873
H	-0.9641882287	 1.8156174701	 0.6558444369	 0.138395
H	-0.050733471	-0.4716636294	-2.1682703856	 0.087953
H	 0.0975698594	-3.0525470504	-1.3211181001	 0.092239
H	 0.1514669138	-2.9365900022	 1.3951784056	 0.112548
H	 0.4260985962	-1.1975397182	 3.0740378648	 0.149093
H	 0.6749547351	 0.4700573649	 2.5891304704	 0.148568
H	-3.4055405072	 0.4880521468	 3.6627310848	 0.206003
