18
gdb 106480	2.57795	1.74284	1.30539	3.2246	71.79	-0.2279	0.0177	0.2456	1012.7765	0.148523	-439.083553	-439.075629	-439.074685	-439.115837	30.79	
C	-0.0026138245	 1.3778204719	 0.0833929181	-0.274465
O	-0.0660090236	-0.0389777762	-0.0449969816	-0.293026
C	 0.6253396543	-0.5472528712	-1.1152546818	 0.31433
C	 2.1949080087	-0.5572752466	-1.2665482012	-0.282899
C	 1.8346825853	-1.661041371	-2.293068864	-0.017973
C	 0.6954477136	-2.0961433193	-1.3237088062	-0.283732
N	 1.1300414032	-0.8467488461	-3.3131272864	-0.313892
C	 0.2003480985	-0.1426247771	-2.5546156586	 0.360119
O	-0.7126103377	 0.5514732083	-2.9271183717	-0.383878
H	 1.0322661679	 1.7161801993	 0.2354525609	 0.107383
H	-0.4240433827	 1.8745401672	-0.7956810345	 0.15019
H	-0.5902709406	 1.6346884169	 0.9666831947	 0.129392
H	 2.6964711822	 0.332016313	-1.6517488486	 0.111654
H	 2.6836970634	-0.9437462042	-0.3701302326	 0.11158
H	 2.5691855497	-2.3469297362	-2.7065387858	 0.090653
H	 1.047133074	-2.6130651728	-0.4282792079	 0.113796
H	-0.1772147272	-2.5958121315	-1.7509852043	 0.110296
H	 0.8484802555	-1.2386195944	-4.2006307986	 0.250474
