16
gdb 66275	2.07854	1.66413	1.43639	4.6006	69.6	-0.2683	-0.0115	0.2568	1004.6071	0.12581	-434.087476	-434.079091	-434.078147	-434.120456	30.927	
N	 0.2279402358	 1.514142425	 0.3468340781	-0.546204
C	-0.0135293737	 0.1305140938	-0.0326868541	 0.036665
C	-1.4985890185	-0.185376583	-0.3216497802	-0.251372
C	-1.3939261904	-1.3962550386	-1.2506447376	-0.102925
O	-0.1767873947	-1.1942486815	-2.0027093392	-0.235541
C	 0.6393887608	-0.3236132035	-1.3584744072	 0.388655
N	 1.7499367923	 0.1103811115	-1.7612867328	-0.536008
C	 0.4800813948	-0.7531988755	 1.0414615195	 0.302403
N	 0.8488720554	-1.4731211134	 1.8663240274	-0.332404
H	 1.234898562	 1.6606655472	 0.3837315544	 0.259685
H	-0.1040807593	 2.11199382	-0.406299039	 0.238107
H	-2.0814771764	-0.3763285151	 0.5789975117	 0.145479
H	-1.9344446261	 0.6696372784	-0.8483198262	 0.123416
H	-1.3104863358	-2.3344726769	-0.6915508193	 0.141658
H	-2.2145595341	-1.4773163182	-1.9650971478	 0.133277
H	 2.0064298377	-0.2884269102	-2.6651373977	 0.235109
