18
gdb 56989	2.99737	1.20483	0.97062	4.8464	75.66	-0.2354	0.0237	0.2591	1220.1457	0.149237	-398.079173	-398.070755	-398.069811	-398.112518	31.956	
N	 0.0826481288	 1.4090921605	 0.1494927824	-0.510586
C	-0.0926009938	-0.0408235289	 0.0301372141	-0.119197
C	-1.5215020671	-0.382923261	 0.0365077787	 0.290612
N	-2.6393069941	-0.6720448122	-0.0074240985	-0.321603
C	 0.5804578837	-0.6572091585	-1.2138069794	 0.008142
N	 2.0538386441	-0.3607488456	-1.2770638841	-0.353058
C	 2.3103167801	-1.8040420972	-1.5226181112	-0.000216
C	 1.9309228041	-2.566105684	-0.2986493285	-0.270502
C	 0.8518493066	-2.1645319076	-1.2842066346	-0.099171
H	 1.0828700799	 1.5904540821	 0.1029061129	 0.245884
H	-0.3416922969	 1.8757760038	-0.6482366746	 0.233424
H	 0.3582030379	-0.4942112891	 0.9202789122	 0.132215
H	 0.0547750317	-0.3112911599	-2.1112339157	 0.087366
H	 2.2630294954	 0.1877932083	-2.1044744097	 0.226131
H	 3.0204192603	-2.1407681146	-2.267422034	 0.102492
H	 2.1609040859	-3.6264955034	-0.3125383332	 0.121402
H	 2.0239380625	-2.0929910485	 0.674853056	 0.118525
H	 0.208717121	-2.8896058445	-1.7636741526	 0.108141
