17
gdb 128429	3.44722	1.08249	0.86049	5.083	71.76	-0.2369	-0.0242	0.2127	1320.9691	0.137263	-451.278772	-451.270228	-451.269284	-451.312244	31.455	
C	 0.3116860136	 1.4383983947	-0.0406458457	-0.314039
N	 0.4021112379	-0.0197488454	-0.0463593141	-0.299158
C	 0.3853134832	-0.5996647561	 1.3012298682	-0.263288
C	 0.5953997734	-2.0767112572	 1.2229464507	 0.298775
N	-0.1237501524	-2.9570080607	 1.8579958422	-0.154419
O	 0.3912790545	-4.1752712125	 1.5404504497	-0.165986
N	 1.4566223946	-4.0593543204	 0.6597384183	-0.177779
C	 1.5953791397	-2.7732769098	 0.4636409189	 0.293258
N	 2.5704779369	-2.1820969165	-0.3021564251	-0.59246
H	 1.2071511467	 1.8559794162	 0.4317235795	 0.132326
H	 0.2725620689	 1.8047282855	-1.0698692586	 0.127186
H	-0.5666106489	 1.8275948976	 0.500470079	 0.108487
H	-0.3761975168	-0.4030055804	-0.5746238394	 0.231496
H	 1.2155976783	-0.1460959739	 1.8592923105	 0.132786
H	-0.5347456838	-0.3886015669	 1.8684344833	 0.120845
H	 3.0276456817	-2.8007926181	-0.9562503124	 0.260905
H	 2.2578920726	-1.3032872761	-0.7003582551	 0.261065
