16
gdb 52024	3.2973	0.80512	0.6676	3.8194	74.62	-0.2586	-0.0341	0.2245	1600.9494	0.120187	-437.843866	-437.833715	-437.832771	-437.88211	33.641	
N	 0.0899366215	 1.2759531535	 0.0104148436	-0.430712
C	 0.0845416628	 0.0162117928	 0.0024384747	 0.130372
O	-1.0920765085	-0.6483708843	-0.0046213041	-0.191032
C	-1.0155983207	-2.0695611557	-0.0744691056	-0.092592
C	-2.4546106599	-2.6119744083	 0.0453776846	-0.312575
C	-3.3202712894	-2.1002790213	-1.1187696522	 0.156837
O	-3.9864746795	-2.7987462052	-1.8311605549	-0.226179
C	-2.4514527759	-4.0611444949	 0.1666819158	 0.326488
C	-2.4133236275	-5.2570686147	 0.2644476158	-0.424339
H	 1.04673356	 1.6225516328	 0.0258453508	 0.235372
H	 0.9609451152	-0.6463722515	 0.0066683533	 0.093011
H	-0.5685763696	-2.3885336062	-1.0244985677	 0.132781
H	-0.4083116525	-2.4677804019	 0.7464927349	 0.132051
H	-2.8792191845	-2.1546226083	 0.9523205161	 0.145387
H	-3.275666799	-0.9995903367	-1.2403518402	 0.119763
H	-2.4003100026	-6.3158820301	 0.3481756451	 0.205366
