17
gdb 35080	3.41302	1.43373	1.259	1.9633	78.28	-0.2407	-0.0041	0.2366	1029.6957	0.136729	-384.633528	-384.626223	-384.625278	-384.665137	29.415	
C	-0.0222637593	-1.2300080438	-0.1014914788	-0.452919
C	-0.0083144872	-0.030118086	-0.0347059316	 0.324247
C	 0.0106815554	 1.4284848615	 0.0429451718	-0.220119
C	-0.6746484473	 1.9357498288	 1.3114973721	-0.073781
C	 0.0146785369	 2.7127756612	 2.1441280084	-0.058214
C	 1.4461284932	 3.0154189148	 1.7512733516	 0.043779
C	 1.4784465733	 3.5137957299	 0.2853357981	-0.255482
C	 1.4585292397	 1.9931895869	 0.0162428063	 0.081385
O	 2.0719101399	 1.768608182	 1.3097637539	-0.285502
H	-0.0298313623	-2.2904041882	-0.1548267683	 0.195421
H	-0.5230046838	 1.8248084436	-0.8344468897	 0.111611
H	-1.697649823	 1.6246284433	 1.4941939929	 0.108859
H	-0.4091004025	 3.1215897465	 3.0549941875	 0.098449
H	 2.0319148346	 3.524363623	 2.5182884212	 0.079638
H	 0.6526630028	 4.1326584398	-0.0698805591	 0.10283
H	 2.4416161363	 3.9491614428	 0.0142521449	 0.111043
H	 2.0446455333	 1.5770065839	-0.8059086711	 0.088756
