12
gdb 20478	6.46886	1.43302	1.27102	3.1552	56.06	-0.2918	-0.0522	0.2397	891.0676	0.084159	-414.58819	-414.581945	-414.581001	-414.619352	22.151	
C	 0.8576609942	 1.0455971669	-0.0571482693	-0.174239
O	 0.0238398658	 0.2019224893	-0.8467319133	-0.22332
C	-0.4815848886	 0.6478703988	 0.41369546	-0.02672
C	-0.6525248757	-0.4033218632	 1.4344601452	 0.34568
N	-1.4593699661	-0.2732247953	 2.4542876583	-0.163216
O	-1.3481775104	-1.4333206484	 3.1664285806	-0.142993
N	-0.4722916345	-2.2990884978	 2.576365832	-0.058055
C	-0.0359069423	-1.6861901318	 1.5131085533	-0.109534
H	 1.7385137572	 0.5703750947	 0.3710645821	 0.12754
H	 1.0045463901	 2.0542688478	-0.4390184717	 0.135635
H	-1.2866380731	 1.3777549559	 0.3669763408	 0.126688
H	 0.6662695034	-2.1508476469	 0.8398093422	 0.162534
