20
gdb 69006	2.92966	1.27759	1.15948	1.3064	80.47	-0.213	0.0826	0.2956	1163.4079	0.170196	-403.077344	-403.068618	-403.067674	-403.110901	33.501	
O	-0.1388487515	 1.3960912384	 0.5740186135	-0.460741
C	-0.0472985442	 0.0697565712	 0.1970673731	 0.371017
C	-0.0134537655	-0.4400110653	-1.2113922865	-0.408619
C	-1.0764413769	-0.9762088675	-0.2604471125	 0.312116
C	-0.4259480098	-2.0279414778	 0.6583610971	-0.297233
C	 0.5909617768	-0.9364553093	 1.1425321328	-0.261811
N	-2.4415629674	-0.7852697535	-0.6131796806	-0.153579
C	-3.2311294986	-1.9509395639	-1.0110495442	-0.231738
C	-3.4904109877	-1.2583371649	 0.2827379119	-0.233448
H	-0.4930589189	 1.9024427515	-0.163736203	 0.287543
H	-0.4321705609	 0.2402056385	-1.9485881117	 0.108465
H	 0.7944387603	-1.0696459271	-1.5841858632	 0.098455
H	-1.0687189106	-2.3744423204	 1.4706166059	 0.104222
H	 0.0064695461	-2.9003910116	 0.1566661351	 0.093455
H	 1.6543676074	-1.1437645402	 0.984872805	 0.096632
H	 0.4303061224	-0.6654401679	 2.1883341255	 0.111846
H	-3.8933114089	-1.8061779269	-1.8601695588	 0.11568
H	-2.7570135567	-2.9290490885	-0.9623605339	 0.115973
H	-3.2069826172	-1.7800302747	 1.1936991123	 0.11484
H	-4.3427561583	-0.59328552	 0.3899365422	 0.116924
