20
gdb 6186	3.51941	1.5165	1.40766	2.8792	74.29	-0.2343	-0.0122	0.2222	997.3116	0.176309	-349.052602	-349.044282	-349.043338	-349.084961	32.286	
C	 0.2077491412	 1.4243415571	 0.1345533267	-0.418497
C	-0.0683172781	-0.0846151674	-0.000870525	 0.286323
C	-1.5786117548	-0.3269008683	-0.0801987744	-0.433874
C	 0.6733748583	-0.6614708334	-1.2435653784	-0.236497
C	 2.1253698891	-0.8818430279	-0.7954787469	-0.326853
C	 2.0421149161	-1.1074303053	 0.7207479105	 0.401294
O	 2.9550688236	-1.432054165	 1.4347344306	-0.313673
C	 0.5989296852	-0.850012842	 1.1630657882	-0.341067
H	 1.2787758523	 1.6440151551	 0.201083574	 0.116007
H	-0.1912448792	 1.9727710939	-0.7255474278	 0.11388
H	-0.264750188	 1.8262105916	 1.0372693876	 0.116388
H	-2.0109045941	 0.1756306957	-0.9529925985	 0.112289
H	-1.804535611	-1.3955502968	-0.1632363944	 0.109687
H	-2.0906170408	 0.0565076181	 0.8092171063	 0.11382
H	 0.2201357473	-1.6211379626	-1.5189539573	 0.098309
H	 0.584274557	-0.0034523612	-2.1129435257	 0.09923
H	 2.6307137733	-1.7216715154	-1.2795062534	 0.127695
H	 2.7535351211	 0.000117172	-0.9678645368	 0.133199
H	 0.5657600915	-0.3413534573	 2.1301696988	 0.120879
H	 0.1258572699	-1.8328545608	 1.2999429957	 0.121463
