16
gdb 29080	3.09385	1.45565	0.99603	4.2332	78.84	-0.2016	-0.0308	0.1709	1145.5912	0.125615	-434.100478	-434.092303	-434.091359	-434.133317	30.819	
C	 0.048593504	 1.5225119204	 0.194625413	-0.471773
C	-0.0808391759	 0.0475861122	 0.0437444635	 0.33015
C	-1.1632745109	-0.6380838236	-0.3293277124	-0.128417
N	-1.1378109588	-2.0209248707	-0.4269221434	-0.357994
C	-0.0198488278	-2.7758040136	-0.1530109273	 0.321219
N	-0.0434595197	-4.0448703069	-0.2571631475	-0.52447
C	 1.1915539358	-1.9829746813	 0.2668207996	 0.328772
N	 2.2660574678	-2.5918947776	 0.5396455405	-0.510325
O	 1.098354445	-0.6216192264	 0.342421864	-0.272459
H	 0.8266570279	 1.9215307438	-0.4667492144	 0.139082
H	-0.8963109725	 2.0131428989	-0.0489106892	 0.132918
H	 0.325015684	 1.7927779251	 1.2205624352	 0.139083
H	-2.0953796927	-0.1479153489	-0.5684060676	 0.132676
H	-1.9574024406	-2.5344478779	-0.7093139548	 0.264656
H	 0.8776713175	-4.407666107	-0.0117271336	 0.245554
H	 2.9995585967	-1.9350076566	 0.8073020343	 0.231328
