18
gdb 97779	3.03421	0.78051	0.65668	1.4417	89.26	-0.2355	0.0241	0.2596	1735.8567	0.145431	-364.722685	-364.712779	-364.711835	-364.759128	35.271	
C	-0.2255143012	 1.6143040708	 0.1101137946	-0.364899
C	 0.2329984941	 0.1610319637	-0.1110228377	-0.318265
C	 0.8836239569	-0.4197291662	 1.0577439544	 0.152035
C	 1.4031573256	-0.8862296021	 2.0394285521	 0.099584
C	 2.0628732568	-1.4350908858	 3.1886224777	-0.262888
N	 1.2294826169	-1.9860193856	 4.2761383219	-0.316519
C	 2.0689972676	-2.9152233578	 3.495147675	-0.245721
C	 1.4099888137	-3.8778422651	 2.6598551769	 0.389583
C	 0.8975361784	-4.7052616608	 1.954982386	-0.42924
H	 0.6248391891	 2.2575814954	 0.3521891629	 0.126526
H	-0.706670666	 2.0033705851	-0.7921840336	 0.114077
H	-0.9394374072	 1.6740697289	 0.935852458	 0.131691
H	-0.6297974687	-0.4591291455	-0.3855914641	 0.134398
H	 0.9188532562	 0.1180805411	-0.9670150977	 0.129315
H	 2.9742148651	-0.9167147922	 3.4828877833	 0.110276
H	 1.6742643966	-1.8022097262	 5.172578161	 0.239046
H	 2.9811119399	-3.2781719805	 3.9656494889	 0.113606
H	 0.4308319061	-5.4280053071	 1.3327961604	 0.197394
