15
gdb 64842	3.41528	1.16321	1.15419	3.129	68.93	-0.2691	-0.07	0.1991	1101.9216	0.110758	-457.822193	-457.813986	-457.813042	-457.855331	29.814	
C	 0.0500404631	 1.6664406862	-0.0891215976	-0.425856
C	 0.0474239542	 0.1411205262	-0.073715089	 0.210968
O	 0.8310563916	-0.383388361	-1.1489846264	-0.251348
C	 1.7906970066	-1.255517823	-0.6719508741	 0.405122
O	 2.5542459139	-1.8281521027	-1.3915408918	-0.33203
C	 1.6480503493	-1.2918639445	 0.8047037405	-0.229515
C	 0.6561330248	-0.4786726892	 1.1619095391	-0.103831
C	-1.3770717469	-0.4300289856	-0.2318383135	 0.129304
O	-2.3655299154	 0.1200070041	 0.1669088846	-0.233385
H	 1.0534206669	 2.0483364959	 0.111081906	 0.133862
H	-0.2801437398	 2.0274920053	-1.0659989182	 0.14698
H	-0.6431210247	 2.0382505831	 0.668404008	 0.147518
H	 2.2958160386	-1.8898087894	 1.4285254067	 0.146167
H	 0.2830864653	-0.264234257	 2.1548174602	 0.146573
H	-1.3927128274	-1.4194250485	-0.7362885543	 0.109472
