21
gdb 95008	3.01488	1.67376	1.27201	1.3713	83.37	-0.206	0.0866	0.2926	1055.1439	0.185329	-383.192302	-383.184967	-383.184023	-383.223638	30.433	
C	-0.0430182052	 1.4925344425	-0.0377617395	-0.329651
N	-0.0112262236	 0.0420577084	 0.0189545596	-0.07919
C	-1.33928387	-0.5427058683	-0.1230730552	-0.152425
C	-1.2794974281	-2.0389604002	 0.1987863632	-0.176923
N	-0.4376933866	-2.3618261046	 1.3622078162	-0.125776
C	-0.1542122073	-1.2026927972	 2.3251805227	-0.066851
C	 1.1377611283	-1.9538653704	 2.7036014505	-0.223529
C	 1.0278415033	-2.0001740101	 1.1647147466	-0.045578
C	 0.6677304199	-0.4898724401	 1.1743236495	 0.072812
H	 0.9732240335	 1.8928626497	 0.0294412806	 0.118212
H	-0.4674266105	 1.8096566474	-0.9963941214	 0.117435
H	-0.6498238402	 1.9529671858	 0.7652155167	 0.092613
H	-2.0537920524	-0.0567533543	 0.5699425195	 0.077376
H	-1.7163217054	-0.3710105028	-1.1381654205	 0.097531
H	-2.2926594161	-2.4120229816	 0.3852296886	 0.101766
H	-0.8794233536	-2.602614878	-0.652859658	 0.105788
H	-0.9207448488	-0.8091886043	 2.9952653216	 0.07834
H	 1.9518481416	-1.3652110787	 3.1305229675	 0.091198
H	 0.9845232617	-2.9097488364	 3.2036950551	 0.106951
H	 1.6478407091	-2.5419194954	 0.4467327807	 0.0737
H	 1.4615260904	 0.1948777686	 1.4899690261	 0.0662
