21
gdb 100840	3.34451	0.83803	0.70641	3.8024	77.39	-0.2652	0.008	0.2732	1610.7122	0.178397	-461.382867	-461.371776	-461.370831	-461.420301	38.148	
C	 0.0930486854	 1.3488307898	 0.1010522798	-0.238394
O	-0.0777885177	-0.0377877433	-0.0907945111	-0.250176
C	 0.6084773728	-0.5766766443	-1.2110927873	 0.131497
C	 2.1031726697	-0.7540902608	-0.9425632626	-0.418854
C	-0.1006756737	-1.9092231044	-1.5060679555	 0.098224
C	-1.5747483761	-1.7442962114	-1.848636232	-0.401338
O	 0.5814847241	-2.5153895642	-2.6220809595	-0.191609
C	 0.8718125469	-3.827002486	-2.5579805606	 0.169631
O	 1.399107577	-4.4184390785	-3.4516569848	-0.277955
H	 1.1279616094	 1.6155129879	 0.3570237975	 0.11276
H	-0.2007047582	 1.9201281016	-0.7928819259	 0.108739
H	-0.5539569879	 1.6378401253	 0.9327694341	 0.13093
H	 0.468402984	 0.0832643654	-2.0837624448	 0.077321
H	 2.2599834766	-1.4089742858	-0.0788917319	 0.120242
H	 2.5996140037	-1.1899065715	-1.8121198392	 0.143348
H	 2.5795895474	 0.2068468488	-0.7314304321	 0.120443
H	 0.012711441	-2.5531121701	-0.6228030967	 0.095326
H	-2.0471175338	-2.7189766785	-2.001435108	 0.119955
H	-2.0857658782	-1.2252045837	-1.0360423818	 0.142742
H	-1.6874049427	-1.1620678733	-2.7683620308	 0.129491
H	 0.5761325299	-4.2851647031	-1.5935117069	 0.077678
