17
gdb 51869	4.44598	0.9518	0.82766	5.104	72.68	-0.2659	-0.0037	0.2621	1355.7679	0.13601	-458.989524	-458.981347	-458.980402	-459.02315	29.667	
O	-0.1437273013	 0.0227872187	-0.3403338313	-0.270222
C	-0.072020389	 1.2125305958	-0.3158923951	 0.181215
O	 1.0927475646	 1.8655613817	-0.0932010241	-0.189344
C	 1.0093444687	 3.2809459379	-0.0080929116	 0.176
O	 0.4944527578	 3.5795458794	 1.2625536468	-0.254351
C	 0.6747130223	 4.9435007993	 1.6297574717	-0.080759
C	 2.1601232187	 5.2841444685	 1.7582791279	-0.25929
C	 2.9138382201	 4.7478174245	 0.5708289516	-0.062242
C	 2.3835946216	 3.8405481836	-0.2437936007	-0.08764
H	-0.9233158915	 1.8988765648	-0.482232216	 0.088569
H	 0.305880495	 3.6363540996	-0.7862435906	 0.078834
H	 0.2023366572	 5.6019575157	 0.8834222752	 0.099554
H	 0.1437117522	 5.0697029445	 2.5758857516	 0.120373
H	 2.2860908201	 6.3710488207	 1.8353585335	 0.112408
H	 2.5703508067	 4.8583264106	 2.683686971	 0.129353
H	 3.917985082	 5.1221847537	 0.3918726716	 0.104861
H	 2.9086603748	 3.457026101	-1.1121242914	 0.11268
