19
gdb 48367	2.49869	1.37894	1.02767	2.1557	75.99	-0.2563	-0.0363	0.22	1199.4791	0.158105	-423.003168	-422.994483	-422.993539	-423.037184	32.016	
O	-1.0784239648	 1.5236986372	-0.0298449144	-0.257557
C	-0.0089344052	 1.0853896879	 0.3076823675	 0.131346
C	 1.309634958	 1.7011065771	-0.0582500058	 0.267366
C	 2.3404228259	 1.6685440048	 1.0053153826	-0.221836
O	 2.3767851229	 0.7321911588	-0.0587940692	-0.259834
C	 1.3081385781	 2.7373385434	-1.1483862169	-0.039165
C	 2.6518515592	 3.366323822	-1.6069619003	-0.249919
C	 2.1376354319	 3.2957857579	-3.0707013119	-0.218371
C	 1.0800749641	 2.2565406031	-2.6129349564	-0.227825
H	 0.0914320088	 0.1666604788	 0.9281496498	 0.086316
H	 3.1111771328	 2.4370137235	 0.9887970119	 0.131365
H	 2.1072121759	 1.2566876686	 1.9867739791	 0.123381
H	 0.5748262358	 3.5054175909	-0.8864453293	 0.092926
H	 2.9198239248	 4.3451802713	-1.2021998472	 0.095758
H	 3.4796470136	 2.6701651341	-1.4444179812	 0.116643
H	 1.6735898531	 4.2356198529	-3.3828729815	 0.10497
H	 2.8499721371	 2.9879709108	-3.8389392096	 0.101032
H	 1.4387184121	 1.2319968881	-2.7484021916	 0.112084
H	 0.0683017859	 2.3354154886	-3.0137247956	 0.11132
