21
gdb 94986	2.74023	1.72569	1.32541	1.4566	80.55	-0.2237	0.0814	0.305	1039.5221	0.185261	-387.063226	-387.055711	-387.054767	-387.094805	30.892	
C	-0.0279425219	 1.5504678242	-0.0224182845	-0.406975
C	 0.0012365051	 0.0196788801	-0.006571553	-0.002945
C	 0.6134521872	-0.5116198484	-1.3116620573	-0.067977
O	 0.8333635482	-1.9157234957	-1.3352220474	-0.273843
C	 1.2315266354	-2.5249483555	-0.1401115939	 0.139054
C	 2.2903390613	-2.0815869788	 0.8407675719	-0.109829
C	 2.337780941	-0.5693919137	 1.0630977774	-0.254666
C	 0.7752997322	-0.5471309509	 1.1920995984	-0.026486
C	 0.7785490934	-2.0903352704	 1.2053685474	-0.138672
H	 0.9863307318	 1.96525905	-0.0459867587	 0.118168
H	-0.5632589025	 1.932856931	-0.8985072347	 0.113525
H	-0.5263448559	 1.9419127992	 0.870231583	 0.114238
H	-1.030058261	-0.353708523	 0.0636081226	 0.077538
H	-0.0536125016	-0.3037603564	-2.154843077	 0.101572
H	 1.558760133	 0.0156435748	-1.5115239222	 0.091725
H	 1.2354635453	-3.5989063181	-0.3014116758	 0.099952
H	 3.0659564928	-2.7719540707	 1.1548252113	 0.08102
H	 2.8006343061	-0.3323140974	 2.024453534	 0.101191
H	 2.8124249162	 0.0487780639	 0.2951946141	 0.09558
H	 0.4337920949	-0.0933061771	 2.124930286	 0.066955
H	 0.2232819187	-2.7167591768	 1.8940642584	 0.080875
