19
gdb 76860	2.39811	1.83992	1.59146	2.7718	73.2	-0.2452	0.0634	0.3086	952.0754	0.159664	-422.961206	-422.95355	-422.952606	-422.992892	30.98	
C	-0.2761813865	 1.5757963228	-0.0379189588	-0.420115
C	 0.0115832638	 0.0814525879	 0.0077935248	-0.025006
C	 1.1195967375	-0.5249872594	-0.9465967455	 0.110944
O	 1.9003607149	 0.3418552638	-1.7181215715	-0.432243
C	 1.782777902	-1.2318996557	 0.2894575018	-0.104394
C	 2.8959605738	-0.4540533114	 1.0263087873	 0.015229
O	 2.6257119937	 0.9529897755	 0.8884563249	-0.258066
C	 1.9081164796	 0.216691398	 1.8951251659	 0.010824
C	 0.7356644412	-0.5502258586	 1.2335894603	-0.081224
H	 0.6204849471	 2.1717467601	 0.1426235495	 0.129763
H	-0.6781191437	 1.8589520081	-1.0159703867	 0.12291
H	-1.0189620648	 1.8478948654	 0.7201206145	 0.108587
H	-0.9233428349	-0.4649247158	-0.1594934697	 0.073797
H	 0.6945411882	-1.2482923408	-1.6478260671	 0.084928
H	 2.3009989809	 0.9663646908	-1.0996924876	 0.296988
H	 1.9123692958	-2.3135073478	 0.2611793164	 0.073261
H	 3.9314186989	-0.7278250293	 1.1933406489	 0.111226
H	 1.9900479045	 0.6003417672	 2.9058927638	 0.108763
H	 0.1488623082	-1.1398580709	 1.9384369389	 0.073828
