14
gdb 16788	3.4776	2.05109	1.45585	2.7406	62.3	-0.2443	-0.0302	0.2141	825.3072	0.107606	-382.578612	-382.572146	-382.571202	-382.609329	24.893	
O	 0.0677397311	-0.0115055483	-0.0223877122	-0.316056
C	 0.0142438231	 1.191034707	-0.0385450249	 0.415758
C	-1.2609595793	 2.0377242338	-0.131722388	-0.462004
C	-0.7932204414	 3.3640676307	-0.7430730935	 0.415757
O	-1.4736119746	 4.1365446411	-1.3672303742	-0.316055
C	 0.6851041252	 3.4917437096	-0.5148819381	-0.143532
C	 1.1408768501	 3.266619364	 0.9058867108	-0.292935
C	 1.196285757	 2.1160623681	-0.0688649545	-0.143532
H	-2.03058298	 1.5555684648	-0.7368079967	 0.160595
H	-1.6872623005	 2.2025724675	 0.8653208159	 0.157282
H	 1.2537949059	 4.1475646499	-1.1616721593	 0.122529
H	 2.0919060545	 3.7086324032	 1.179240271	 0.14328
H	 0.4090293844	 3.254026211	 1.7058149751	 0.136385
H	 2.1560526246	 1.7194219277	-0.3744335714	 0.122529
