20
gdb 86582	2.84477	1.18762	0.90784	2.9135	75.33	-0.2325	0.0332	0.2657	1316.1836	0.169646	-440.315523	-440.305612	-440.304668	-440.351306	35.998	
C	 0.1334404501	 1.6147799174	-0.290082271	-0.401501
C	 0.6515148108	 0.1930226796	-0.2166181302	 0.145606
O	 2.1083624752	 0.1440700195	-0.2143470878	-0.324788
C	 2.1337725971	-0.608375667	 1.018471604	 0.044311
C	 0.5892283105	-0.597166339	 1.1244874413	-0.054837
C	-0.0102317021	 0.0546269386	 2.3615232467	-0.42079
C	 2.7772609666	-1.9860218545	 0.9084561212	 0.353802
N	 3.2651881526	-2.2672390585	-0.3247718693	-0.521581
O	 2.8095605275	-2.7377242248	 1.8651365955	-0.377086
H	 0.5140214937	 2.2275509839	 0.5310866266	 0.124511
H	 0.4505312987	 2.0752566662	-1.2310678902	 0.127615
H	-0.9613455704	 1.6274502624	-0.2590861411	 0.119574
H	 0.2617663046	-0.3845736005	-1.065403725	 0.078027
H	 2.6473426922	-0.0609878659	 1.8185388742	 0.103462
H	 0.1621881344	-1.5943636459	 0.9943209399	 0.09537
H	 0.4149790235	 1.0449979146	 2.5510625312	 0.1203
H	-1.0958244977	 0.1639798907	 2.2687006522	 0.118009
H	 0.1896094345	-0.566593959	 3.2401355246	 0.138422
H	 3.2222314315	-1.5605205913	-1.0405866684	 0.271099
H	 3.7402610766	-3.1396067764	-0.4833066742	 0.260474
