17
gdb 28467	3.04616	1.41168	0.97625	0.7097	80.52	-0.2302	-0.0365	0.1938	1190.153	0.136186	-418.086179	-418.077634	-418.076689	-418.119506	31.539	
C	-0.0977775561	 1.4875926766	 0.0076248559	-0.471552
C	 0.0118565461	-0.0122854979	-0.0142326352	 0.297846
C	 0.235649496	-0.7275240894	-1.1827568546	-0.079188
N	 0.332398679	-2.0645837307	-1.1956731202	-0.340303
C	 0.2038732927	-2.6761966175	-0.0354212041	 0.369438
O	 0.2944320307	-4.0236815345	-0.001663096	-0.412462
C	-0.0246342774	-1.9838384053	 1.1753491528	 0.238541
C	-0.1652277699	-2.719510053	 2.476315344	-0.476151
N	-0.1159695497	-0.6617447781	 1.1591257666	-0.345223
H	 0.0207898031	 1.9106043234	-0.9932804321	 0.120439
H	-1.0704289574	 1.7988886014	 0.4023279342	 0.138377
H	 0.66652964	 1.9220811377	 0.6601626997	 0.138377
H	 0.3415594718	-0.2229820714	-2.1392771251	 0.109197
H	 0.4497572672	-4.3069679062	-0.9137780593	 0.298543
H	 0.7335930076	-3.3065246298	 2.6950835448	 0.138572
H	-0.335398588	-2.0045967256	 3.2822799562	 0.136978
H	-0.9987561859	-3.4295065296	 2.4383355725	 0.138572
