18
gdb 77034	2.52493	1.15231	0.91656	3.4891	79.48	-0.2472	0.0066	0.2538	1306.3589	0.144894	-401.909608	-401.899904	-401.89896	-401.944656	34.596	
C	 0.16836863	 1.4490740836	 0.4550841027	-0.409208
C	-0.1308952806	 0.0300951271	 0.0290416205	-0.020786
C	 0.3653557329	-0.5946307278	-1.258809929	-0.025947
C	 1.2195630038	 0.1639316084	-2.2671952792	-0.379945
C	 2.0805904728	-0.7242868753	-3.0426680794	 0.298344
C	 2.7805014199	-1.4732793106	-3.6695196727	-0.435093
N	 0.8935063089	-0.9911588668	 0.0275805388	-0.061785
C	 2.1800045957	-0.9196303062	 0.5131833802	 0.13222
O	 2.489314857	-0.4306543982	 1.5752958513	-0.308502
H	 1.1191976575	 1.8165979518	 0.064961038	 0.130246
H	-0.6301712569	 2.1163296254	 0.1149607639	 0.12239
H	 0.2254220834	 1.5049394937	 1.5451200987	 0.153135
H	-1.0967704929	-0.334954342	 0.3784901473	 0.10518
H	-0.2748346022	-1.3431299166	-1.7242454143	 0.112062
H	 0.5512844883	 0.7104673883	-2.9455968234	 0.14342
H	 1.8325812096	 0.9170734356	-1.7610690036	 0.142394
H	 3.4052540838	-2.1269692244	-4.2264666531	 0.203874
H	 2.897827169	-1.432880076	-0.1540724567	 0.098001
