15
gdb 83201	3.05832	1.47998	1.29493	4.0208	61.07	-0.2491	-0.0051	0.244	983.0792	0.112718	-494.890984	-494.883552	-494.882608	-494.923228	28.107	
O	 0.3126950304	 1.2160915196	 0.2672253702	-0.416978
C	 0.0984747913	-0.1283643356	 0.0275460084	 0.08556
C	-1.32967806	-0.6283908689	-0.0246469558	-0.03275
O	-2.2743982142	 0.3977303518	 0.0882551869	-0.254096
C	-2.9921080885	 0.5863563844	-1.1260965628	-0.229504
C	-2.0853401993	 0.8947145431	-2.3127176361	 0.404252
O	-2.4355703663	 1.5542966115	-3.2481799059	-0.310777
O	-0.8272095582	 0.3917459148	-2.2552268693	-0.204992
C	-0.5065040797	-0.5837184223	-1.289068194	 0.016979
H	-0.5527088551	 1.6108888558	 0.4419554373	 0.298668
H	 0.8556686801	-0.7707961266	 0.4672395104	 0.115179
H	-1.6290286647	-1.5768583496	 0.4165251247	 0.109654
H	-3.6030204285	-0.2967284818	-1.3628432925	 0.137918
H	-3.658096034	 1.4380480166	-0.9849599969	 0.158562
H	-0.1647485733	-1.5063859128	-1.7463157146	 0.122323
