15
gdb 27842	2.05851	1.84589	0.97435	7.3712	73.94	-0.2105	-0.0057	0.2048	1131.489	0.115209	-450.214545	-450.206483	-450.205539	-450.246758	31.386	
N	 0.0359979936	 1.3926729725	 0.1572032943	-0.582589
C	-0.0459737507	 0.0223836146	 0.0614423028	 0.471944
C	-1.220875723	-0.6854045051	 0.0702705669	-0.31552
C	-1.1096351977	-2.1051891866	 0.0400372995	 0.420062
N	-2.2490116258	-2.8569990262	 0.0949522035	-0.556366
N	 0.0273881638	-2.776544517	-0.0136053191	-0.420819
C	 1.2088644107	-2.099340715	-0.0204071101	 0.425175
O	 2.3207381758	-2.5859436276	-0.0534567769	-0.405573
N	 1.1186507981	-0.6676400594	 0.0089131111	-0.411521
H	 0.8418698254	 1.8278296586	-0.267039272	 0.260202
H	-0.8218362505	 1.8889500751	-0.028903809	 0.265189
H	-2.1773032298	-0.1825354855	 0.1133735002	 0.078419
H	-3.1313503643	-2.4387621378	-0.1442445286	 0.253595
H	-2.1319500341	-3.8360399273	-0.1131559072	 0.264226
H	 2.0106757786	-0.1973813034	 0.0543509345	 0.253578
