17
gdb 58930	2.89092	1.59968	1.26259	1.4146	67.18	-0.2547	0.0318	0.2865	1013.2678	0.133048	-458.839653	-458.831413	-458.830469	-458.873146	31.075	
C	-0.0686052106	 1.6189157394	 0.1287676111	-0.399706
C	-0.0608663854	 0.093812937	 0.0321638747	 0.000574
O	 0.6694481888	-0.4994256702	 1.1032034414	-0.446323
C	-1.4454471585	-0.4834111732	 0.0228195925	 0.433485
O	-2.4037378395	-0.2460762829	-1.0468263545	-0.357206
C	-3.1496476658	-1.1093819125	-0.1370351448	 0.025547
C	-1.907082154	-1.9564767051	 0.2733506041	-0.016228
O	-2.0951644587	-1.7627595666	 1.710273725	-0.329142
C	-2.5375537889	-0.4880197558	 1.1517139743	-0.018367
H	 0.9580328208	 1.9934294895	 0.1316830942	 0.127883
H	-0.6039031306	 2.0569021134	-0.7194494213	 0.131113
H	-0.5551142411	 1.9428100985	 1.0545167406	 0.113559
H	 0.438419609	-0.204287322	-0.9002602386	 0.098005
H	 0.0435687384	-0.838511528	 1.7553200695	 0.297333
H	-4.1696994488	-1.3910731869	-0.392918683	 0.111898
H	-1.5214140942	-2.9078267497	-0.0893693108	 0.114864
H	-2.9000036809	 0.2901938852	 1.8221778857	 0.11271
