12
gdb 11218	4.84563	1.49981	1.32605	3.59	50.62	-0.284	-0.0621	0.2219	875.4769	0.083483	-455.66435	-455.657522	-455.656578	-455.696451	23.26	
O	-0.8105300894	 0.8145324211	 0.5219375636	-0.220509
C	 0.2394150149	 0.8085125915	-0.0614884453	 0.12805
C	 1.2771861328	 1.9226373693	 0.0871732473	-0.004981
C	 1.3752361909	 2.492740305	 1.5104936424	-0.118949
O	 2.5579277634	 1.873048478	 2.0225051926	-0.238802
C	 3.2741735635	 1.315619359	 1.0165296446	 0.508396
O	 4.3469800425	 0.8220224225	 1.1277671013	-0.358684
O	 2.5804645008	 1.3993558364	-0.1603728511	-0.250697
H	 0.5370435446	 0.0022718628	-0.7640144069	 0.119217
H	 1.0591080428	 2.6911788634	-0.6628606879	 0.139881
H	 1.5038429703	 3.5783575785	 1.524201291	 0.135692
H	 0.5161055928	 2.2103107424	 2.1208397284	 0.161384
