19
gdb 36137	3.79602	1.08315	0.97505	1.5459	80.44	-0.2517	0.0488	0.3006	1249.0633	0.159237	-385.848191	-385.839815	-385.83887	-385.88137	32.312	
C	-0.0962434018	-1.1745204556	 0.3373879735	-0.456024
C	-0.0540307609	 0.0018218836	 0.0947488591	 0.318887
C	 0.0259033446	 1.4300563982	-0.2062661534	-0.467274
C	 1.4382236478	 1.9784755191	-0.1128390593	 0.345007
C	 2.0044581999	 2.4710181522	 1.1934239425	-0.319029
C	 1.7453845854	 3.4474594672	 0.0708802131	-0.124937
C	 2.9259043672	 3.7345763274	-0.838586186	-0.091486
O	 3.5144081287	 2.4646059296	-1.1075691865	-0.255342
C	 2.4790341968	 1.4876706076	-1.1101932965	-0.136084
H	-0.1424608764	-2.2131315804	 0.55304687	 0.197072
H	-0.3717566189	 1.6076932218	-1.2153670358	 0.13037
H	-0.627098361	 1.9835950365	 0.4798594462	 0.130052
H	 1.3320478723	 2.5013591724	 2.0440890328	 0.112099
H	 3.0344275873	 2.2276651058	 1.4351749898	 0.123839
H	 0.9588795127	 4.1877889595	 0.1652502357	 0.08795
H	 2.5814649584	 4.2213975318	-1.7660169789	 0.090343
H	 3.7026919959	 4.3617183147	-0.3884675861	 0.109882
H	 2.9329536321	 0.52710418	-0.8486525185	 0.117919
H	 2.0192333899	 1.3927063486	-2.1091285317	 0.086757
