18
gdb 62518	1.68086	1.56143	1.03025	4.5297	78.84	-0.2613	-0.04	0.2214	1230.8766	0.145127	-401.969398	-401.959764	-401.95882	-402.003848	34.696	
C	-0.0736474732	 1.5595741309	 0.0401404404	-0.462898
C	 0.0146701865	 0.0452636206	-0.0157476648	 0.282073
C	-1.1899045587	-0.6669780709	 0.5711252056	-0.447739
C	 0.6835525633	-0.6424388477	-1.2010633571	-0.157743
C	 1.2635340002	 0.1147470485	-2.343377274	 0.152518
O	 1.1086896795	-0.2211893567	-3.4912153605	-0.259952
C	 1.3574713895	-0.6305538354	 0.1828181706	-0.238955
C	 2.5476157115	 0.1439320958	 0.4042369072	 0.299971
N	 3.4999549222	 0.7714828247	 0.5996434367	-0.33897
H	 0.8437368887	 2.0537859204	-0.2837582792	 0.146358
H	-0.8963615342	 1.9161551584	-0.5879404332	 0.133549
H	-0.2732125747	 1.8810527955	 1.0676108445	 0.134497
H	-2.0988227084	-0.3950441698	 0.0242928254	 0.135818
H	-1.0823257069	-1.754544097	 0.5247946322	 0.125026
H	-1.3310620717	-0.3830716026	 1.6195404403	 0.133435
H	 0.2628841011	-1.5960125564	-1.5027827347	 0.119829
H	 1.8572944589	 1.0143169066	-2.0811266614	 0.101613
H	 1.3602091665	-1.584428105	 0.700575382	 0.141569
