20
gdb 72961	2.59595	1.51827	1.19015	1.9102	86.2	-0.2269	0.0437	0.2706	1126.3437	0.168604	-365.939383	-365.930058	-365.929114	-365.972629	36.115	
C	-0.3936757067	 1.3514851495	 0.0499447994	-0.498483
C	-0.1267595356	-0.1248551086	 0.047884878	 0.312778
C	-0.8927916888	-1.1176425663	-0.8337784699	-0.31786
C	-0.9658590742	-2.0280774169	 0.4156895139	-0.155958
N	-0.2632911481	-1.0129107902	 1.2763038554	-0.203567
C	 1.0837102292	-0.7683388764	 0.6571697237	 0.065696
C	 1.9083670556	-1.8608849102	-0.0095277789	-0.487577
C	 1.8993266004	 0.0730747682	 1.505621628	 0.28417
C	 2.6291134895	 0.7488601837	 2.1814229144	-0.405777
H	-0.0575220365	 1.7990998434	-0.8931981757	 0.120457
H	-1.4662335641	 1.5490076532	 0.1513513418	 0.119617
H	 0.1310862053	 1.8470576494	 0.8687986893	 0.144479
H	-1.8696633221	-0.7299626329	-1.1306034711	 0.112069
H	-0.3847251499	-1.4914878919	-1.7272844265	 0.104554
H	-1.9795941449	-2.1689406445	 0.795403238	 0.114654
H	-0.4736667017	-3.0033591134	 0.3700118545	 0.107283
H	 1.3514565768	-2.4286520726	-0.7552210886	 0.123449
H	 2.7700533067	-1.4081353367	-0.5078217085	 0.134691
H	 2.2884298726	-2.5579904804	 0.7439520942	 0.136102
H	 3.2597140164	 1.3460270936	 2.7922968586	 0.189224
