19
gdb 71084	2.99333	1.56766	1.40812	3.2465	79.05	-0.2316	-0.0033	0.2283	1003.5617	0.160819	-385.883297	-385.876068	-385.875124	-385.914594	29.741	
C	-0.0728294779	 1.4883003	 0.0745851183	-0.502565
C	-0.0565159984	-0.018662586	-0.0013275915	 0.326906
C	 0.3843394109	-0.781021812	-1.2842209522	-0.274585
C	-0.4220017605	-1.9357025104	-0.6780365404	-0.038528
C	 0.0399726819	-2.1653057907	 0.8279361904	-0.170814
C	 0.7318233811	-0.8046418859	 1.0810131883	-0.256165
C	-1.4040918038	-1.78527085	 1.2003953697	 0.441091
O	-2.2247821815	-2.1882058008	 1.9730432339	-0.334933
C	-1.4036867674	-0.8795948031	-0.0164048649	-0.209022
H	 0.9466365685	 1.8878868808	 0.0138031513	 0.120662
H	-0.6520282478	 1.9261229596	-0.7449090594	 0.118157
H	-0.5090461476	 1.8337815703	 1.0183297008	 0.123964
H	-0.1007991151	-0.3909944281	-2.1837148353	 0.101823
H	 1.4569909983	-0.9045986635	-1.4678161245	 0.093082
H	-0.7819678307	-2.8013270738	-1.2294157822	 0.086401
H	 0.5103558902	-3.0820758075	 1.1754275385	 0.08343
H	 1.8073342818	-0.8099003491	 0.8793331367	 0.100002
H	 0.5712784657	-0.4364929423	 2.0996224677	 0.106848
H	-2.287139098	-0.4684060077	-0.4996942352	 0.084247
