17
gdb 63294	1.92349	1.65479	1.10504	3.3109	75.3	-0.2395	-0.0258	0.2137	1135.8534	0.131672	-421.799933	-421.790558	-421.789614	-421.833872	35.226	
C	 0.3401290964	 1.4784578917	-0.3204212639	-0.448679
C	-0.0185620715	 0.0270925405	-0.0376382604	 0.379894
O	-1.3933502477	-0.138806909	 0.2329754929	-0.474294
C	 0.5975053328	-0.9884970016	-1.062733829	-0.408432
C	 1.6418965374	-1.3516665996	-0.0050076939	 0.400299
O	 2.7110784988	-1.879712099	-0.0295362637	-0.284717
C	 0.8254690397	-0.6421271328	 1.1120035139	-0.330168
C	 1.4971648485	 0.1516449952	 2.1097053546	 0.321645
C	 2.077985186	 0.8275361915	 2.9169044396	-0.438751
H	 1.4147155961	 1.6018722145	-0.4834099519	 0.135008
H	-0.1762118938	 1.8265869913	-1.2233042244	 0.109682
H	 0.0487553325	 2.1120503739	 0.5210627278	 0.141814
H	-1.8949242759	 0.3412112426	-0.4348706196	 0.281854
H	-0.0874125434	-1.8211327844	-1.2519079234	 0.139026
H	 0.9811646258	-0.606436537	-2.0115486954	 0.129329
H	 0.1772175307	-1.3985287872	 1.5747152385	 0.14649
H	 2.5911907975	 1.4143823591	 3.6378849482	 0.199999
