19
gdb 75178	4.57344	0.96047	0.82338	4.7034	82.68	-0.2419	0.0091	0.251	1384.4882	0.160822	-382.094229	-382.085532	-382.084588	-382.127564	32.704	
C	-0.0006430365	 1.5334087725	 0.052360768	-0.475878
C	-0.021707999	 0.0334749596	-0.0378356673	 0.310493
C	-0.0532027018	-0.6280364971	-1.1966808411	-0.166821
C	-0.0195564227	-2.1306341902	-1.3042428274	-0.257251
C	 0.4230956088	-2.7484424395	 0.0418650192	-0.120983
N	-0.2482506338	-2.1525809085	 1.1999573516	-0.293184
C	 0.013344203	-0.7137659141	 1.2811141742	-0.260285
C	 0.2284437507	-4.2041977066	 0.0451059101	 0.274226
N	 0.0576884374	-5.3463328494	 0.0156114283	-0.320041
H	 0.8847199023	 1.8846231672	 0.598223127	 0.127844
H	 0.0068423011	 1.9971230895	-0.9374470034	 0.125416
H	-0.8729556529	 1.9114453973	 0.6010974477	 0.125688
H	-0.0947623598	-0.0745030448	-2.1321117049	 0.086829
H	-1.0050423312	-2.5276802085	-1.5852370994	 0.122719
H	 0.6675020967	-2.4440890031	-2.0996191819	 0.123286
H	 1.4980591495	-2.5618304584	 0.1682080216	 0.132817
H	-1.2478786021	-2.3096508566	 1.1103774958	 0.229001
H	 0.9934104486	-0.5592919782	 1.7596031816	 0.119882
H	-0.7196199985	-0.2820340811	 1.9734544305	 0.116244
