19
gdb 85441	2.58352	1.44458	1.09072	4.7267	75.84	-0.2372	0.0341	0.2713	1146.5546	0.160659	-419.231367	-419.223005	-419.222061	-419.264392	32.335	
C	 0.4803873995	 1.6359478072	-0.2433487199	-0.385643
C	 0.0505252031	 0.2037082681	 0.0997948252	-0.051031
N	 0.3476724078	-0.7362127548	-0.9714019659	-0.312533
C	 1.4356828124	-1.5500191835	-0.7687311997	 0.413278
O	 1.9087742105	-2.3119507481	-1.5806722009	-0.377224
C	 1.9216697857	-1.282749613	 0.6589624995	-0.410735
C	 0.825485656	-0.4280301495	 1.2717854363	 0.331159
C	 0.8957127366	 0.2132521717	 2.6019967712	-0.294822
N	 0.1010481142	-1.0163739189	 2.4093332658	-0.347274
H	 1.5608948916	 1.6893233952	-0.4084453559	 0.128111
H	-0.0187462218	 1.9798813832	-1.1554767673	 0.116855
H	 0.2181535775	 2.328143922	 0.5623424826	 0.12086
H	-1.0260429131	 0.1974393193	 0.3198767007	 0.082713
H	-0.0454433229	-0.6512781141	-1.8961974608	 0.248006
H	 2.0705222064	-2.2149998205	 1.2055739653	 0.147171
H	 2.8849510713	-0.763147941	 0.6032340729	 0.129922
H	 1.784547918	 0.0938529184	 3.2159698213	 0.122464
H	 0.37151364	 1.1542473961	 2.7524238455	 0.110953
H	-0.8881007029	-0.7810867479	 2.360599724	 0.227771
