12
gdb 21363	5.48716	2.21161	1.57629	3.6123	60.96	-0.217	-0.0003	0.2166	725.9104	0.087163	-377.520646	-377.515168	-377.514224	-377.549981	21.658	
N	-0.0365879491	 1.3326461238	 0.0099715238	-0.409125
C	 1.271773821	 1.8380793512	 0.0000418194	-0.050741
C	 2.1729511061	 0.8043199817	-0.0145183228	-0.340348
C	 1.399362853	-0.4037665163	-0.0137254406	 0.180739
C	 0.0774201722	-0.0160498877	 0.0013137247	 0.484219
O	-0.7854166777	-1.0253203203	 0.0040746399	-0.251193
N	 0.0172356687	-2.2158380231	-0.0104438151	-0.153691
C	 1.2711171956	-1.8193003082	-0.0203695482	-0.114325
H	-0.8824357451	 1.8742760161	 0.0212555627	 0.277886
H	 1.4314622495	 2.9041469108	 0.0044476672	 0.131579
H	 3.2457628984	 0.9113652506	-0.0243708642	 0.111211
H	 2.0324301676	-2.5874258987	-0.0320753168	 0.133789
