16
gdb 32865	6.41913	0.83814	0.7483	2.2849	68.3	-0.2031	0.0318	0.2348	1477.2314	0.123746	-475.052141	-475.043515	-475.042571	-475.086135	31.025	
C	-0.0847364788	 1.4393867073	 0.0143952922	-0.390199
C	-0.0082255659	-0.0740878173	 0.0311802667	-0.053061
O	-1.3601341469	-0.5706913572	-0.0342811679	-0.261146
C	-1.5332476742	-1.8814328635	-0.0322871632	 0.510798
N	-2.6806330551	-2.4854839753	-0.0865571862	-0.44755
C	-2.3328432761	-3.8252780749	-0.0573478921	 0.338229
O	-3.2769817781	-4.7815602583	-0.0981673242	-0.428697
C	-0.9903018774	-3.9747008946	 0.0133449362	-0.172813
O	-0.4580132117	-2.6804925595	 0.0300399777	-0.195267
H	 0.9240921075	 1.8593058583	 0.062873615	 0.126115
H	-0.5649859819	 1.7933346327	-0.9016192773	 0.13769
H	-0.6563699587	 1.8083563642	 0.8700228116	 0.137691
H	 0.5574019099	-0.461194234	-0.8232419458	 0.124309
H	 0.4662319432	-0.4461782605	 0.9456550449	 0.12431
H	-4.1258033378	-4.3251709246	-0.1459324547	 0.307262
H	-0.2966143279	-4.7915870328	 0.0560525472	 0.14233
