20
gdb 91962	2.45893	1.69407	1.4135	3.172	78.43	-0.2425	0.07	0.3125	1021.4761	0.173301	-403.122767	-403.115157	-403.114213	-403.154422	31.507	
O	 0.0861178316	 1.392838212	-0.1292205274	-0.437683
C	 0.0322764423	-0.0158503304	 0.0061442506	 0.009656
C	 0.6196093767	-0.4925164381	 1.3646782933	-0.237136
C	-0.5793732937	-0.528729021	 2.295840833	-0.031704
N	-1.428631588	 0.6835768133	 2.1787802533	-0.363731
C	-1.8132590651	-0.5685903059	 1.471532554	-0.132246
C	-1.4131455361	-0.5442609541	 0.0257905796	 0.411728
C	-2.3637801339	-0.2313306855	-1.0919237375	-0.312812
C	-1.8613309225	-1.642820732	-0.9069922798	-0.332859
H	-0.4418874685	 1.7344613138	 0.6089134072	 0.286327
H	 0.5957933228	-0.4176898305	-0.8406179917	 0.073638
H	 1.0366257054	-1.5026838972	 1.2761073142	 0.099851
H	 1.4143538124	 0.1818915193	 1.6944521752	 0.109425
H	-0.5159749579	-1.0225305187	 3.2600297333	 0.08665
H	-1.9913743817	 0.7911138667	 3.0184682524	 0.233697
H	-2.7113780948	-1.0906200024	 1.7866494264	 0.083678
H	-3.3987619694	-0.0205663475	-0.8430662265	 0.108117
H	-1.9765176995	 0.3524820563	-1.9195987146	 0.126335
H	-1.1393577849	-2.0304700372	-1.6185211822	 0.113003
H	-2.5531490852	-2.3889992109	-0.5278943427	 0.106063
