19
gdb 108218	2.25862	1.53647	1.1862	1.0155	71.57	-0.226	0.0503	0.2763	1118.0503	0.157681	-460.10937	-460.100211	-460.099267	-460.142986	34.546	
C	-0.0990925919	 1.583560166	 0.1153283143	-0.496763
C	 0.0619376021	 0.0956267254	 0.0480803675	 0.158041
C	 0.6733562952	-0.7083261518	-1.0961194474	-0.137816
O	 1.274826092	-1.6640831577	-0.1747720456	-0.331973
C	 0.7785745234	-0.9123357731	 0.9395563804	 0.351549
C	 1.5593692798	-0.8464301012	 2.2190281355	-0.207008
O	 0.9573209117	-1.6099586512	 3.273521938	-0.416495
C	-0.7269073606	-0.8800215293	 0.9079140973	-0.01133
O	-1.3380510964	-0.3124021375	 2.0255605128	-0.435589
H	 0.8430474144	 2.1038586501	-0.0893675122	 0.115121
H	-0.8382557078	 1.9294330536	-0.6173134628	 0.123423
H	-0.4555061692	 1.8764662019	 1.1055203122	 0.144211
H	-0.0134982756	-1.1922410874	-1.8007751593	 0.10565
H	 1.4502052061	-0.1669623204	-1.649123403	 0.109203
H	 2.5899437061	-1.1724293516	 2.0268090381	 0.120642
H	 1.5957417928	 0.1782940307	 2.5969535859	 0.133594
H	 0.9599180183	-2.533933515	 3.00096391	 0.294542
H	-1.2630438387	-1.7081503409	 0.4365213247	 0.082921
H	-0.9704607017	-0.7682717206	 2.7965204235	 0.298077
