16
gdb 13920	3.54725	1.79735	1.46886	3.1724	64.87	-0.2433	-0.0338	0.2095	882.1565	0.129835	-383.721169	-383.713676	-383.712732	-383.754727	26.714	
O	-0.0946111325	 0.0829905212	-0.386241578	-0.291701
C	-0.0945207624	 1.2398035139	-0.0786107326	 0.344115
C	-1.1595519837	 2.2200730273	 0.439548534	-0.34489
C	-0.0550155979	 3.3235727473	 0.4663332004	-0.324672
C	 1.0018061074	 2.3131489419	-0.0581465116	 0.176014
C	 2.3551749359	 2.0368942202	 0.6365992232	-0.120813
O	 3.0942105383	 2.277699043	-0.5737482824	-0.268849
C	 1.8857999756	 2.5532444279	-1.3037538279	-0.120801
H	-1.9858233241	 2.3835933402	-0.258447272	 0.136489
H	-1.5832059805	 1.940031911	 1.4084398255	 0.136485
H	-0.2391735036	 4.162910216	-0.2079229541	 0.11451
H	 0.1642154679	 3.7185678654	 1.4607889042	 0.114515
H	 2.6138863407	 2.7481471216	 1.4318259899	 0.105222
H	 2.4853094812	 1.0108915427	 1.0018378192	 0.119579
H	 1.7290210887	 1.842886347	-2.1246238948	 0.119575
H	 1.858104069	 3.5795644033	-1.692467433	 0.105223
