16
gdb 66528	2.91783	1.68845	1.26224	2.2526	80.12	-0.2137	0.0159	0.2297	1003.4557	0.122379	-363.459101	-363.451422	-363.450478	-363.490962	30.17	
C	 0.0463161719	 1.532658776	-0.0222630197	-0.525941
C	 0.0005284468	 0.0432060521	-0.0048897034	 0.27516
C	 0.5760640351	-0.9919129382	-0.9843477527	-0.178119
C	 0.976692429	-0.9986646219	 0.4719290996	-0.068669
N	-0.1252078016	-1.9935752156	 0.8377243347	-0.215338
C	-0.5555476745	-1.9691585057	-0.5966414152	-0.120437
C	-1.1424260877	-0.9656291501	 0.3488867114	 0.293922
C	-2.4403621189	-0.797929766	 0.8825824596	 0.030624
C	-3.5487149076	-0.6175978104	 1.3171759548	-0.377933
H	 1.0446589089	 1.8823160353	-0.3067858839	 0.126884
H	-0.6701911558	 1.9475693728	-0.7398706793	 0.130826
H	-0.185930378	 1.9487745255	 0.9643764407	 0.13433
H	 1.1490423938	-0.8332755725	-1.8865668948	 0.100081
H	 1.9322881518	-0.9303506138	 0.9762834153	 0.104067
H	-1.0183068307	-2.8209660061	-1.0808037002	 0.107726
H	-4.5245249525	-0.4684396113	 1.708190483	 0.182819
