20
gdb 70360	2.65795	1.76202	1.37324	2.6707	77.58	-0.2257	0.0688	0.2945	1016.7338	0.173073	-403.118235	-403.110636	-403.109692	-403.149939	30.613	
C	-0.251481893	 1.4325275258	 0.0483938334	-0.512154
C	 0.1378684985	-0.0209392941	-0.0258459692	 0.33522
N	-0.6479346519	-1.0331929422	 0.714727587	-0.361279
C	 0.7520932716	-0.7821040196	 1.1038155833	-0.07998
C	 1.7004745546	-1.8530759918	 0.5844878207	-0.243253
C	 1.5256072966	-1.8369577991	-0.9470940583	-0.078184
C	 0.3778797617	-2.6191639163	-1.6305029544	-0.075917
O	-0.2437984138	-1.3968901541	-2.0925981441	-0.290626
C	 0.6825790234	-0.5945323268	-1.3345330917	 0.075573
H	 0.56499275	 2.0801273364	-0.2898769902	 0.123026
H	-1.1210493579	 1.6370265205	-0.5867144974	 0.135362
H	-0.5063600685	 1.7241073171	 1.0731250973	 0.111621
H	-1.2749009548	-0.554896703	 1.3579985543	 0.225498
H	 0.952525826	-0.3041287963	 2.0591212853	 0.080428
H	 2.7312894802	-1.5976070972	 0.8545173097	 0.097969
H	 1.481495803	-2.8340837574	 1.0201464776	 0.108669
H	 2.4753990835	-1.9376109097	-1.4740937083	 0.078704
H	 0.6709333686	-3.2599097553	-2.4705592494	 0.090852
H	-0.2739810922	-3.1719139049	-0.9466016396	 0.113077
H	 1.1392011144	 0.1868211978	-1.953526156	 0.065395
