21
gdb 106421	2.72714	1.34402	1.1511	1.3364	83.76	-0.2617	0.0728	0.3345	1169.5273	0.182475	-387.014025	-387.00544	-387.004496	-387.047177	33.664	
O	-0.0873311808	 1.4116271598	-0.0049926213	-0.419922
C	-0.0375338678	-0.0086932094	 0.005114212	-0.223944
C	-1.4462179703	-0.5254538939	 0.0181480418	 0.279431
C	-2.5457910327	-0.2691685102	 1.0991689595	-0.25041
C	-3.2174344419	-1.1887765367	 0.0347558955	-0.137293
C	-2.5595122963	-0.2863955048	-1.0527205209	-0.250444
C	-1.9080409351	-1.9992068546	 0.0329000635	 0.417527
C	-1.4710816731	-3.202534341	-0.7261326164	-0.374695
C	-1.4612917551	-3.1902299962	 0.8055134895	-0.374685
H	 0.8155883572	 1.7422335597	-0.0144254863	 0.28806
H	 0.4869236109	-0.397095157	-0.8839651061	 0.086115
H	 0.4985538468	-0.3840377188	 0.8928773147	 0.086105
H	-2.3706163676	-0.7066540313	 2.0853066977	 0.088075
H	-2.9207353933	 0.7547783077	 1.165341711	 0.095192
H	-4.2356883483	-1.5793757593	 0.0443681315	 0.068747
H	-2.9354003284	 0.7363912626	-1.1304956949	 0.095181
H	-2.3968850788	-0.739633929	-2.0338824713	 0.088065
H	-2.2217867867	-3.8121384249	-1.2200626769	 0.111339
H	-0.5109328913	-3.1900375621	-1.2335822605	 0.108106
H	-0.4947245209	-3.1696434823	 1.3003617308	 0.108111
H	-2.2055249563	-3.7917617885	 1.3187553471	 0.11134
