17
gdb 124949	2.99924	1.2824	0.96038	3.8424	75.82	-0.2276	0.0202	0.2479	1209.3456	0.137023	-418.009037	-418.000683	-417.999739	-418.043005	30.083	
C	-0.3010933642	 1.5423099057	 0.2807933778	-0.506492
C	-0.0615985667	 0.0888819986	 0.0318153536	 0.263349
C	 0.191697977	-0.6269452247	-1.1286235082	 0.145665
C	 0.3457385724	-1.9671448703	-0.6966207438	-0.087095
N	 0.2072098089	-2.0870675866	 0.6173419304	-0.227771
N	-0.0326577286	-0.8273845115	 1.034969377	-0.248345
C	 0.2778842631	-0.1133642742	-2.5074102214	-0.050277
C	 1.3513661683	-0.5063469623	-3.4400225616	-0.181401
O	 0.0418272545	-1.0572054868	-3.562030332	-0.233255
H	 0.6265033051	 2.0790636168	 0.5127922474	 0.144031
H	-0.7426284116	 2.0172287416	-0.5991711696	 0.146011
H	-0.9899203316	 1.6941743138	 1.1182463261	 0.132195
H	 0.5271357645	-2.8390277404	-1.3069091862	 0.121986
H	-0.186595139	-0.6604533196	 2.0154101307	 0.268438
H	-0.1856573391	 0.8596800831	-2.6772587957	 0.083445
H	 1.652661681	 0.1712444671	-4.2387549082	 0.113677
H	 2.1201437561	-1.1963815101	-3.0952782065	 0.115839
