17
gdb 43386	2.3958	1.90719	1.23749	2.675	74.37	-0.2378	-0.0549	0.1828	1005.325	0.137835	-421.840242	-421.832939	-421.831995	-421.872514	27.85	
O	 0.0207753211	 0.0029727549	-0.2061013564	-0.344737
C	-0.0069726455	 1.2176735501	-0.149116297	 0.380841
C	-1.2651339689	 1.958881843	 0.0570802225	-0.155257
C	-1.3634517174	 3.28702367	-0.0809650938	-0.033453
C	-0.2260749155	 4.1831359391	-0.4755635027	-0.297867
C	 1.1481865511	 3.5674505017	-0.2584401331	 0.123561
O	 1.5636291903	 3.6482921227	 1.1242946006	-0.288669
C	 1.9293265568	 2.2557369454	 1.1430836663	-0.076266
C	 1.277432725	 2.0225420011	-0.2459301262	-0.196697
H	-2.1307814174	 1.3462293142	 0.2887751557	 0.109609
H	-2.33255183	 3.7638060848	 0.0516306342	 0.111813
H	-0.3506762105	 4.4666641687	-1.5309651741	 0.124604
H	-0.2680330869	 5.1222199154	 0.0901407022	 0.133866
H	 1.8886590757	 4.0538982767	-0.9077143329	 0.077073
H	 3.0170660079	 2.1119529375	 1.1532448648	 0.108512
H	 1.4869813461	 1.7212489882	 1.9906700175	 0.119346
H	 1.925615068	 1.5712034765	-0.9971648078	 0.10372
