21
gdb 38653	3.01905	1.83319	1.56031	0.2547	85.7	-0.2297	0.0288	0.2585	950.7222	0.187732	-349.961783	-349.955336	-349.954392	-349.992117	28.434	
C	-0.0709517379	 1.5940392237	 0.0852724691	-0.240151
C	 1.4744415358	 1.4540198156	-0.0222341257	-0.030765
C	 1.8019416611	 0.8143394615	 1.3390326826	-0.224366
C	 0.746004283	-0.3560456362	 1.3160756307	-0.036915
C	 1.4052944603	-1.6998529125	 1.1266870202	-0.081938
C	 2.0778793298	-1.956630844	 0.0052633959	-0.045183
C	 2.1809236514	-0.9421005938	-1.107483652	-0.31286
C	 1.1907697594	 0.2223051986	-0.9482817493	 0.031046
C	-0.0157471665	 0.0476187044	 0.0233457335	-0.028321
H	-0.4770855966	 2.0633868222	 0.9867985027	 0.083497
H	-0.5268152177	 2.0327400817	-0.8058626033	 0.092427
H	 2.1077435061	 2.2794365673	-0.3520201975	 0.052749
H	 2.8247355468	 0.4372566242	 1.4110032446	 0.098073
H	 1.639413612	 1.5152223748	 2.1639787967	 0.091261
H	 0.1017878016	-0.3474751427	 2.1982871222	 0.058755
H	 1.3344084969	-2.4405124864	 1.9180891515	 0.080131
H	 2.5680414849	-2.9148674712	-0.1467083581	 0.082117
H	 3.2091787601	-0.5547366115	-1.1750712859	 0.107372
H	 2.0057037338	-1.4468984428	-2.0671599464	 0.102115
H	 0.8531608121	 0.5742712387	-1.9271304758	 0.065819
H	-0.8818958465	-0.5626045118	-0.2346067256	 0.055137
