16
gdb 52745	3.00436	0.82559	0.66851	4.2139	84.42	-0.2683	0.0114	0.2798	1646.0374	0.120921	-363.565058	-363.554696	-363.553752	-363.602647	35.01	
C	-0.0460949432	 1.4849873384	 0.0209478667	-0.500538
C	-0.0149654302	 0.0302847507	 0.0212120477	 0.128592
C	 0.0260514909	-1.1717631714	 0.018375595	 0.051184
C	 0.0353667034	-2.6342701502	 0.0209943905	-0.334134
C	-1.4129910546	-3.2114509589	-0.114201091	-0.353181
C	-1.4580489029	-4.6578924371	 0.0321463863	 0.295434
C	-1.4677823083	-5.8513857029	 0.16698528	-0.420577
C	 0.9089563445	-3.1577799702	-1.0431197661	 0.303602
N	 1.5915765211	-3.5655396813	-1.88054471	-0.321757
H	 0.5960480648	 1.8893016706	-0.7685761803	 0.161431
H	-1.0611903048	 1.8589133719	-0.1495023992	 0.155367
H	 0.3037216382	 1.8885726893	 0.9769608451	 0.156119
H	 0.4421163261	-2.9967509001	 0.974067035	 0.163559
H	-2.0236869015	-2.727739688	 0.6552221991	 0.150597
H	-1.8203535254	-2.90555015	-1.083238699	 0.158139
H	-1.484183368	-6.9080537507	 0.2727891803	 0.206162
