16
gdb 30386	4.10514	1.1316	0.89268	4.327	81.55	-0.2032	-0.0202	0.183	1262.6874	0.125157	-434.095325	-434.086954	-434.086009	-434.128425	30.938	
C	 0.0319300288	 1.4691902688	-0.0250928049	-0.326523
N	 0.1248715294	 0.0246434293	-0.0608842992	-0.321674
C	 0.6198982805	-0.6143091399	 0.9275317173	 0.369736
C	 0.7165424171	-2.0643940432	 0.9115856366	-0.289672
C	 1.2541422242	-2.722878865	 1.9542453767	 0.431296
N	 1.5038407928	-4.070671757	 2.076808332	-0.574775
O	 1.6997670652	-2.054707191	 3.0667413649	-0.224395
C	 1.5744422242	-0.6933388088	 3.0389009429	 0.11674
N	 1.1034687668	 0.0201543429	 2.1116065458	-0.307735
H	 0.5831674632	 1.8836322037	-0.8790104631	 0.115323
H	-1.01628469	 1.7632156095	-0.1650377935	 0.114508
H	 0.4085408541	 1.9289160262	 0.8951581108	 0.121746
H	 0.3576717812	-2.6008478202	 0.0433182536	 0.104482
H	 0.9901006363	-4.6545706236	 1.4341136272	 0.266323
H	 1.4884472205	-4.4130160893	 3.0272509173	 0.2627
H	 1.9541370056	-0.2749322925	 3.9670942656	 0.141918
