25
gdb 93098	2.06836	1.64386	1.1837	0.1638	92.97	-0.2348	0.0335	0.2683	1209.0889	0.229361	-352.386426	-352.376841	-352.375897	-352.419642	38.654	
C	-0.0367698188	 1.5742372782	-0.0928976579	-0.421713
C	 0.0588983829	 0.0457598652	 0.0020702199	 0.029465
C	 0.6756831579	-0.5310586214	-1.2865441971	-0.266267
C	 0.9487748182	-2.0066482861	-1.2012694939	-0.054848
C	 0.928960552	-2.6791617579	-0.0519936348	-0.058953
C	 0.6454942069	-2.0339284567	 1.2782583635	-0.271581
C	 0.7861512048	-0.4910025216	 1.2723960318	 0.278005
C	 2.2820866942	-0.1176151628	 1.2842005763	-0.421649
C	 0.1265239474	 0.0559721536	 2.5506098863	-0.43053
H	 0.9525397957	 2.0421323788	-0.1385117117	 0.114516
H	-0.572253924	 1.8620131006	-1.0042712397	 0.10931
H	-0.575273783	 2.0086496247	 0.7534742067	 0.113265
H	-0.968999221	-0.3418726603	 0.0628541821	 0.068292
H	 0.0012490508	-0.3276350529	-2.1294431077	 0.098111
H	 1.6049778561	 0.0062331662	-1.5324614412	 0.102974
H	 1.1717221927	-2.5248832188	-2.1312563902	 0.079632
H	 1.1173047659	-3.7505587676	-0.0480825182	 0.079991
H	-0.3701931011	-2.3069544883	 1.6039596024	 0.098315
H	 1.3137063921	-2.453658901	 2.0425982464	 0.094075
H	 2.8254958289	-0.5810195375	 0.4563355906	 0.120846
H	 2.4306357592	 0.9651197532	 1.2269745026	 0.109121
H	 2.7482668473	-0.4601509954	 2.2147587711	 0.106545
H	 0.5214266916	-0.4574349384	 3.4346591447	 0.1063
H	 0.3137778708	 1.1256438809	 2.6843866479	 0.111015
H	-0.9586758775	-0.0974224247	 2.5351089603	 0.105765
