19
gdb 95477	2.39098	1.85637	1.10607	3.8183	77.1	-0.2299	0.024	0.2539	1095.5717	0.161498	-419.183199	-419.175461	-419.174517	-419.215199	30.098	
C	-0.0366771446	 1.5004273781	-0.0839202629	-0.322471
N	-0.0249548932	 0.0470613003	-0.0412269332	-0.088783
C	-1.3846802919	-0.519874032	 0.0314787023	-0.16356
C	-1.3986494922	-2.0691706047	-0.038095257	-0.162525
N	-0.2786346869	-2.7718588978	 0.606295435	-0.308564
C	 0.5660055127	-1.9840116767	 1.0855657081	 0.441996
O	 1.8644740286	-2.2125444265	 1.4737346714	-0.269871
C	 2.1855351144	-0.8032184032	 1.1814098798	-0.132424
C	 0.6701649421	-0.4877743332	 1.1040491963	-0.09232
H	 0.98988077	 1.8774459955	-0.1304354749	 0.121275
H	-0.5633709222	 1.8401058179	-0.9808123945	 0.124822
H	-0.5294222784	 1.9533583772	 0.797589501	 0.095739
H	-1.8858989046	-0.1834937756	 0.9604314718	 0.082624
H	-1.9701270965	-0.1256369961	-0.8051295422	 0.10658
H	-2.346511405	-2.4298786402	 0.3771450087	 0.112091
H	-1.3819364992	-2.3849190174	-1.0882369657	 0.120712
H	 2.7546767887	-0.3492028779	 1.9941383936	 0.121655
H	 2.7138650622	-0.7264752703	 0.2278523713	 0.130261
H	 0.3283654757	-0.0494015276	 2.0605159811	 0.082764
