16
gdb 29399	4.98387	0.85992	0.75471	3.3838	74.7	-0.211	-0.0068	0.2043	1456.1535	0.123778	-437.943351	-437.934676	-437.933732	-437.97738	31.018	
C	-0.3774314147	 1.3694507524	 0.2952393578	-0.498888
C	-0.0534170107	-0.0672570055	 0.0178185149	 0.293677
C	 0.2059007123	-0.6247007983	-1.2117144328	-0.173659
N	 0.4573997729	-1.9693030031	-1.0363080917	-0.307416
C	 0.3695625687	-2.2596164154	 0.2944742416	 0.387254
O	 0.6199014296	-3.543451458	 0.7014669826	-0.216729
C	-0.3402636937	-4.1605836227	 1.4555571305	 0.156574
O	-0.1737093583	-5.2428706696	 1.9199327963	-0.255098
C	 0.0559436764	-1.1175636175	 0.9861845953	-0.363257
H	 0.351002648	 1.8253270794	 0.9757230745	 0.128087
H	-0.3795929263	 1.9563029538	-0.6278109085	 0.121153
H	-1.3636774672	 1.4811709379	 0.7605892873	 0.126489
H	 0.2386023325	-0.178049851	-2.1922789267	 0.122103
H	 0.6919339944	-2.637175554	-1.7499169626	 0.271853
H	-1.2408842487	-3.5316928272	 1.5641721057	 0.10237
H	-0.0563508551	-1.0328763511	 2.0558815158	 0.105486
