15
gdb 12597	3.28536	2.19939	1.34163	3.9366	63.57	-0.2267	0.0069	0.2336	871.7356	0.120317	-396.041088	-396.03345	-396.032506	-396.072834	27.944	
C	-0.0667487343	 1.4687633562	 0.0108315299	-0.363297
N	 0.0101177624	 0.0255700453	 0.0288488434	-0.129032
C	-0.002908842	-0.7650100413	-1.1188086949	 0.387752
O	-0.0279102882	-0.3542655842	-2.254455347	-0.374756
C	 0.008664677	-2.1940976184	-0.5703321911	-0.292543
N	 0.0292673048	-2.0835048486	 0.8852211318	-0.331037
C	 0.015470148	-0.8264922186	 1.1394149889	 0.430525
N	-0.0627754879	-0.2719847439	 2.3956896802	-0.582339
H	 0.846468902	 1.9312341085	 0.4043800513	 0.129342
H	-0.181736848	 1.7643031134	-1.0343685047	 0.173531
H	-0.9256557373	 1.8255612365	 0.5878176889	 0.144267
H	-0.8748746957	-2.7365231113	-0.9284691798	 0.141394
H	 0.8850562304	-2.7348777617	-0.9468176105	 0.140541
H	 0.103935829	-0.9539056447	 3.1226615904	 0.268068
H	 0.4426763699	 0.5904958028	 2.5363820134	 0.257586
