19
gdb 105309	2.40093	1.50564	1.16284	4.7972	79.11	-0.2548	0.0207	0.2754	1131.6802	0.159249	-382.038551	-382.029876	-382.028931	-382.071729	32.871	
C	-0.0445881261	 1.6170488669	 0.0763794606	-0.398703
C	-0.1217986657	 0.0897322844	-0.0221295929	-0.238957
C	 0.7076539053	-0.4917602135	-1.1739698828	 0.157835
C	 2.2744654283	-0.4470847953	-1.1028090264	-0.308528
C	 2.233566204	-1.9675647158	-1.2202740444	-0.002765
C	 1.4331685046	-2.5593058222	-0.1377346613	-0.246163
N	 0.7138227971	-2.0103361373	-1.3072063516	-0.154613
C	 0.2258113342	 0.0500698234	-2.4498213765	 0.298398
N	-0.1460399007	 0.5085799849	-3.4433337048	-0.351325
H	 0.9856153127	 1.955587887	 0.23056472	 0.121096
H	-0.4239447986	 2.0958291287	-0.8306525694	 0.149742
H	-0.6407546729	 1.9727859234	 0.9211012117	 0.123871
H	 0.2244784945	-0.3526514852	 0.9163428794	 0.105143
H	-1.1603285861	-0.2317595191	-0.1600768596	 0.128869
H	 2.7252206862	 0.059952048	-1.9551220434	 0.139854
H	 2.7012493179	-0.0462375718	-0.1791606487	 0.114589
H	 2.8501538575	-2.5571119893	-1.8893622798	 0.108695
H	 1.3542110137	-3.6410172974	-0.0991274953	 0.134581
H	 1.3750396642	-2.07140463	 0.8307720454	 0.118381
