14
gdb 17720	4.855	2.66826	2.17774	1.9493	64.21	-0.2265	-0.0087	0.2178	637.7608	0.107967	-345.25976	-345.254705	-345.253761	-345.288426	22.041	
O	-0.1089255643	 1.4878486919	-0.0024992804	-0.395138
C	 1.3806357818	 1.2372680546	-0.0307183907	-0.006074
C	 1.3066376361	 0.1106583113	 1.0228139801	-0.063907
C	 1.7469313165	-1.0984578295	 0.1347139439	-0.175082
C	 0.5443705724	-2.0764771857	 0.2469923629	-0.07313
C	-0.5683345951	-1.3221081065	 0.2250306238	-0.238744
C	 0.0571711523	 0.0520301354	 0.1010659202	 0.435418
C	 1.2458240203	-0.0347679555	-0.8958196874	-0.063907
H	 2.0054307621	 2.1232911662	-0.1176786071	 0.098253
H	 1.285307796	 0.2024709007	 2.1087939841	 0.088495
H	 2.7547858914	-1.5105161085	 0.1340015533	 0.071109
H	 0.6148444751	-3.1520292857	 0.3263156209	 0.109738
H	-1.6086260554	-1.6017301176	 0.2791885374	 0.124474
H	 1.1557160607	-0.107426451	-1.979719281	 0.088495
