19
gdb 61277	2.19253	1.06599	0.81993	3.1549	78.05	-0.2442	0.0476	0.2918	1444.9588	0.157125	-419.220376	-419.209833	-419.208889	-419.256898	38.097	
C	-0.0186565703	 1.5606251294	 0.0331422523	-0.400013
C	-0.0195570138	 0.0270579149	 0.0094035272	 0.062671
C	 0.745205492	-0.551447792	 1.219594884	-0.387932
C	 0.867253889	-2.003616967	 1.2071188692	 0.311681
C	 0.9721212857	-3.2005616474	 1.1896305586	-0.440096
N	-1.3656506788	-0.5278613392	-0.0293721674	-0.329563
C	-2.0659158174	-0.5790964712	-1.2126630564	 0.459505
N	-3.3853569001	-1.0014561163	-1.0667826836	-0.570389
O	-1.5900605897	-0.2641538988	-2.2885077804	-0.396617
H	 1.0034741925	 1.9532085381	 0.017006991	 0.114636
H	-0.5464271578	 1.9390528519	-0.8448370936	 0.147049
H	-0.5156270104	 1.9423293217	 0.9328874959	 0.10464
H	 0.465977468	-0.309225824	-0.9100311977	 0.128157
H	 1.7431290771	-0.097659648	 1.2434277446	 0.137647
H	 0.2501426871	-0.2290722489	 2.1473645738	 0.120992
H	 1.0696082114	-4.2576253519	 1.172575528	 0.195211
H	-1.8944814559	-0.5131861632	 0.8293981639	 0.235898
H	-3.5694220411	-1.6853964429	-0.3470417609	 0.247507
H	-3.8039757675	-1.2325688752	-1.9556013485	 0.259016
