17
gdb 7095	3.01051	1.29611	0.96523	3.153	71.73	-0.244	0.0319	0.2758	1211.6206	0.140075	-363.869336	-363.859972	-363.859027	-363.904995	32.672	
C	-0.2676456381	 1.0495683211	 0.7316509125	-0.371976
C	 0.0809637926	-0.1988463486	-0.081515701	-0.147248
N	-0.9830086171	-1.1897221653	-0.076902541	-0.318481
C	-1.7235483651	-1.4767402217	-1.1744747862	 0.429416
O	-1.5660073996	-0.9687895876	-2.2692423408	-0.379177
C	-2.8312254063	-2.537269889	-0.9805311646	-0.480107
C	-2.9832370298	-3.0967845102	 0.3536135087	 0.287837
C	-3.0870531054	-3.5442933428	 1.4654944088	-0.431319
H	 0.5637338144	 1.7612351442	 0.7114299933	 0.120476
H	-1.1537219461	 1.5430425702	 0.3222619156	 0.132985
H	-0.4696541192	 0.8002466869	 1.779089765	 0.11322
H	 0.2512430182	 0.0582472591	-1.129083062	 0.150255
H	 0.9994331429	-0.657719188	 0.3046480484	 0.107266
H	-1.2187358673	-1.6590365819	 0.7845735849	 0.252666
H	-3.7642701319	-2.0658474674	-1.3089138927	 0.165028
H	-2.6244086391	-3.3295720649	-1.7087811004	 0.165493
H	-3.1955800533	-3.9510990241	 2.4406063515	 0.203667
