20
gdb 79179	2.78714	1.70606	1.34142	2.1818	76.9	-0.2253	0.0629	0.2882	1016.6995	0.172827	-403.108489	-403.100817	-403.099872	-403.140194	31.244	
C	-0.0628058996	 1.5761242848	-0.0341330554	-0.439783
C	 0.0268563808	 0.0483432982	-0.0019997811	-0.023991
C	 0.8176508785	-0.5118705873	-1.1840151928	-0.014588
C	 2.0120160974	-1.2538374606	-0.7423755551	-0.039745
C	 1.5513798085	-1.7163702941	 0.6620526456	-0.066813
C	 0.5832562079	-2.6531068479	-0.0958534418	-0.173185
N	 0.8766561494	-1.9886864713	-1.4126719166	-0.166175
C	 0.7934226506	-0.524363497	 1.2402707431	 0.110081
O	 1.7665180057	 0.3654658224	 1.7654574158	-0.434726
H	 0.9327727432	 2.028350162	-0.0511023255	 0.132439
H	-0.6032009283	 1.9119775866	-0.9244224198	 0.121638
H	-0.6034850054	 1.9647597985	 0.8371171176	 0.106272
H	-0.9937344424	-0.3542065097	-0.0057591464	 0.08003
H	 0.8242375395	 0.0362115918	-2.1207955965	 0.089607
H	 3.0119176643	-1.2025160611	-1.1551296439	 0.090405
H	 2.2676777125	-2.1602540937	 1.3514539225	 0.078571
H	 0.9402456334	-3.6837409495	-0.1495320457	 0.111336
H	-0.4720087322	-2.6593964345	 0.2029424797	 0.094663
H	 0.0907473572	-0.8375493622	 2.0283801593	 0.059418
H	 1.3137036088	 1.1342596648	 2.125385627	 0.284547
