17
gdb 46265	3.01462	1.52411	1.24638	1.2878	72.72	-0.242	-0.0328	0.2092	1030.3645	0.135373	-421.789733	-421.782168	-421.781223	-421.822011	29.112	
O	-0.0782098204	 0.0437645933	-0.4522038923	-0.284624
C	-0.0590294262	 1.1992005259	-0.1522395599	 0.281436
C	-1.0641593731	 2.2311643771	 0.3744791992	-0.198912
O	-0.01020426	 3.2175684886	 0.3854314235	-0.332404
C	 0.996254725	 2.307527479	-0.1174467447	 0.337826
C	 2.3246564949	 2.243212923	 0.6973733612	-0.308069
C	 3.096842987	 2.6611125741	-0.5617558494	-0.042388
C	 2.8155464227	 1.6950365235	-1.6739080476	-0.282158
C	 1.7884241642	 2.7512000237	-1.348612344	-0.119585
H	-1.8835754871	 2.4848701279	-0.3094026381	 0.132745
H	-1.4705703998	 2.0267527012	 1.3727210541	 0.132788
H	 2.2887842695	 3.0233380884	 1.4608736573	 0.129181
H	 2.5925481687	 1.2866309701	 1.157272878	 0.108523
H	 3.9465991986	 3.3313743039	-0.580214821	 0.093951
H	 3.3616664048	 1.8659730349	-2.5959352145	 0.118539
H	 2.6073512059	 0.6495113272	-1.4639667428	 0.1332
H	 1.4416818953	 3.4863777384	-2.063519959	 0.099951
