19
gdb 82025	2.26819	1.45858	1.38689	1.5568	75.44	-0.2474	-0.0244	0.2229	1070.937	0.157263	-423.003373	-422.994238	-422.993294	-423.037248	34.053	
C	-0.0225086703	 1.6997262782	-0.3346442882	-0.462755
C	 0.0038256081	 0.1836837553	-0.1526928171	 0.161755
C	-1.4127702793	-0.3344392241	 0.0018979943	 0.1138
O	-1.7928897433	-1.1225403847	 0.8307847414	-0.254191
C	 0.7394893575	-0.6599797144	-1.2246492003	-0.087686
C	 2.2075328259	-0.3429621258	-1.2403834977	-0.302718
C	 1.6739256416	-1.2439940149	-0.1624015519	-0.042602
C	 0.98482293	-0.4316380101	 0.923052048	 0.047983
O	 1.8454349887	 0.4517718637	 1.6089581625	-0.430418
H	 0.9782835914	 2.0939378095	-0.5164764548	 0.137649
H	-0.6590885171	 1.9811011723	-1.1812663089	 0.118749
H	-0.4156597807	 2.1971922012	 0.5593150618	 0.11595
H	-2.1232482544	 0.075678201	-0.7546727783	 0.074669
H	 0.2515997693	-1.1737188653	-2.0448227447	 0.090651
H	 2.7717595467	-0.845449711	-2.0196027767	 0.115697
H	 2.5775340823	 0.6461668549	-0.9924446564	 0.127362
H	 2.014465883	-2.2650905057	-0.04650476	 0.090972
H	 0.4164820318	-1.0646426491	 1.6109764476	 0.099099
H	 1.3790208488	 0.791978189	 2.3785568894	 0.286034
