17
gdb 102365	1.65868	1.52558	1.20022	3.5195	70.93	-0.255	-0.037	0.2181	1151.7148	0.132197	-458.919868	-458.909705	-458.908761	-458.95537	36.065	
O	 0.2608776699	 1.0942180562	-0.3476834905	-0.432493
C	-0.0213095597	-0.2252782883	 0.0945756859	-0.11214
C	-1.5369180942	-0.5362428707	 0.0682816425	-0.080277
C	-2.1750342924	-0.0030222709	-1.2654436608	-0.085237
O	-1.3845393513	-0.2881023972	-2.3893988179	-0.418473
C	-1.7639528665	-2.0537192362	 0.1425608552	 0.15535
O	-0.8865827385	-2.8727195298	 0.1327314863	-0.245032
C	-2.2349047565	 0.0819425445	 1.1905503308	 0.300685
C	-2.8140975603	 0.6076181833	 2.1049457812	-0.476842
H	-0.1208552571	 1.7101852278	 0.2877763372	 0.294284
H	 0.4785392805	-0.899859963	-0.6009384738	 0.143979
H	 0.3802074797	-0.415761858	 1.0963515706	 0.117727
H	-3.1473985253	-0.4841365377	-1.4154892184	 0.122086
H	-2.3527416311	 1.071909684	-1.1452399428	 0.107336
H	-0.6307171722	 0.3135801011	-2.3499164814	 0.302806
H	-2.8369285523	-2.340231777	 0.2001759685	 0.097602
H	-3.3245689927	 1.0622736019	 2.9183503374	 0.20864
