14
gdb 5038	3.56656	2.32415	1.41955	4.0599	67.36	-0.2262	-0.0563	0.1698	822.6726	0.109211	-378.777619	-378.770826	-378.769882	-378.808817	24.88	
C	-0.0105377695	 1.4583836152	 0.0083370213	-0.337238
N	 0.0063599523	 0.0000393069	-0.0288276365	-0.100645
C	-0.100323109	-0.6966717373	-1.195138502	 0.006059
C	-0.0809583187	-2.0567609618	-1.1935106286	-0.075094
N	 0.0448382697	-2.7723615431	-0.0354987495	-0.229774
C	 0.1469650865	-2.1141227916	 1.079725164	-0.081635
C	 0.1393061827	-0.6581866702	 1.2088349263	 0.372263
O	 0.2342686129	-0.0258746099	 2.2486701594	-0.398901
H	 0.9149982082	 1.8283697993	 0.455743892	 0.163008
H	-0.1173740561	 1.8420082074	-1.0066283519	 0.131855
H	-0.8392807403	 1.8035611369	 0.63099983	 0.163007
H	-0.1991278891	-0.1106466869	-2.1013151996	 0.13448
H	-0.1653767592	-2.6146188461	-2.1173519959	 0.119232
H	 0.2477978496	-2.6665901889	 2.0108733911	 0.133383
