21
gdb 40906	3.35125	1.24109	1.21288	2.1141	81.43	-0.2384	0.0687	0.3071	1142.9449	0.185068	-387.067756	-387.060017	-387.059072	-387.100032	30.594	
C	-0.1825707433	 1.4922820453	-0.1665582155	-0.148774
O	 1.165195844	 1.6437395008	 0.3298542752	-0.2796
C	 1.3480041683	 0.2154646945	 0.4339540293	-0.152265
C	-0.0662429381	-0.029169631	-0.0847512867	 0.302737
C	-1.028546424	-1.0750658239	 0.3961691328	-0.114695
C	-2.5176994946	-0.7618782285	 0.3383868284	-0.217011
C	-2.7503279327	-0.1808703479	-1.0771300253	-0.223992
C	-1.6606014535	-0.8205234142	-1.9708383628	-0.217012
C	-0.4993703201	-1.1112733811	-1.0295588288	-0.114696
H	-0.918673699	 1.9586549016	 0.5022057743	 0.100368
H	-0.2966890832	 1.9161048687	-1.173508299	 0.100368
H	 2.164851471	-0.1420962731	-0.2080695983	 0.098204
H	 1.5425972545	-0.099548611	 1.4684505898	 0.098205
H	-0.6736467109	-1.7763164671	 1.145765702	 0.07948
H	-3.0813435602	-1.6931771567	 0.4696576842	 0.101441
H	-2.8478331699	-0.075000979	 1.1254397413	 0.099179
H	-3.7598093787	-0.378140381	-1.4468019651	 0.097712
H	-2.6325699878	 0.9071303381	-1.0610532706	 0.11025
H	-2.0176534707	-1.7659581519	-2.3961750149	 0.101441
H	-1.3862428806	-0.1750070532	-2.8124303042	 0.099179
H	 0.2468149094	-1.8392963093	-1.3341759861	 0.07948
