14
gdb 973	3.70058	3.2529	1.74999	0.8011	59.47	-0.1768	0.0585	0.2353	694.6721	0.113634	-324.613156	-324.605898	-324.604954	-324.644885	25.999	
C	 0.0620916311	 1.5252983137	 0.0034146185	-0.513689
C	 0.0511421676	 0.0265304646	 0.0095529298	 0.150327
C	-0.0337274132	-0.8044044199	-1.0846776405	 0.29296
O	-0.1216368387	-0.5738181433	-2.4226614463	-0.43758
N	-0.0173470185	-2.1051605587	-0.6712887344	-0.287972
C	 0.0784998904	-2.1399725402	 0.7077923609	-0.094876
C	 0.120871343	-0.8442502324	 1.1479574525	-0.224035
H	 0.9191692151	 1.928599514	 0.5551102083	 0.129081
H	 0.1293751163	 1.9305110055	-1.0142544277	 0.092026
H	-0.8417542472	 1.9533269861	 0.45467506	 0.127249
H	-0.1592719016	 0.3775502656	-2.5603716665	 0.30338
H	-0.0660990429	-2.8939985478	-1.2912951819	 0.263333
H	 0.1089306032	-3.0780411469	 1.2361227949	 0.113369
H	 0.1966278254	-0.5300332803	 2.1784302625	 0.086425
