18
gdb 44751	3.04232	1.65156	1.28563	4.1796	80.43	-0.2386	-0.0379	0.2007	1007.4343	0.150648	-401.945063	-401.938	-401.937056	-401.976636	28.658	
N	-0.0880519675	 0.9728320093	-1.0120963632	-0.486717
C	-0.0135533514	 0.0661111559	-0.1167189056	 0.362868
O	-1.2102741416	-0.2765309779	 0.4331449169	-0.253175
C	-1.4038638533	-1.2517470729	 1.4462105153	 0.133199
C	-0.4974085468	-1.1197487283	 2.6956837762	-0.246888
C	 0.45709857	-2.1749398512	 2.0494645733	-0.079342
C	-0.7599640107	-2.6363793938	 1.1846550508	-0.246814
C	 1.5001471499	-1.5117720484	 1.2029865175	-0.091153
C	 1.2647479667	-0.5615812821	 0.2907414151	-0.132925
H	 0.8403327061	 1.1762465218	-1.376782436	 0.219388
H	-2.4815444861	-1.2304693687	 1.6123025331	 0.095508
H	-0.0859768993	-0.1334137322	 2.9168491445	 0.116775
H	-1.0032382493	-1.5157353671	 3.580091663	 0.109329
H	 0.9011224107	-2.9156797899	 2.7157593759	 0.071979
H	-1.3337020681	-3.4258921853	 1.6768840578	 0.109321
H	-0.5671882264	-2.9130676728	 0.1466955366	 0.116764
H	 2.5298591598	-1.829940549	 1.3434053771	 0.103641
H	 2.1111868274	-0.1601052674	-0.2587528081	 0.098243
