16
gdb 55013	3.15804	1.21873	0.96821	4.3679	67.16	-0.2424	0.0198	0.2621	1181.7793	0.124797	-471.247983	-471.2392	-471.238255	-471.282179	32.349	
N	 0.7379377573	-0.4774988159	 0.2335309322	-0.538688
C	-0.2839332995	 0.2128294522	-0.3227188053	 0.368359
O	-0.2304966484	 1.3771296073	-0.672409782	-0.365253
C	-1.5923429849	-0.5371687736	-0.5378640442	-0.101043
C	-1.8069157424	-1.2952839327	-1.8205075779	-0.247816
N	-1.8139806217	-1.9685839935	-0.5378901297	-0.117595
C	-0.9885312019	-3.0082082025	-0.129039341	 0.432707
N	-1.0137759885	-4.0858141034	-0.9761668532	-0.528496
O	-0.331944349	-2.9960739907	 0.9022541578	-0.398074
H	 1.5780589995	 0.0437106677	 0.4307625487	 0.255666
H	 0.5691634975	-1.3667703932	 0.6975006843	 0.292905
H	-2.4352634295	 0.0360252848	-0.1608519268	 0.135058
H	-2.7587243256	-1.2215116595	-2.3399792817	 0.131082
H	-0.9371591215	-1.441062134	-2.4574136225	 0.144894
H	-1.7803380766	-4.1841217339	-1.6216868144	 0.26595
H	-0.6306296647	-4.9361552991	-0.5954019541	 0.270343
