19
gdb 104242	2.97298	1.14173	0.99525	2.3245	77.38	-0.2531	0.0222	0.2753	1244.9719	0.1562	-422.963431	-422.953516	-422.952572	-422.998525	36.021	
C	-0.3445604618	 1.617400236	 0.0737203996	-0.465506
C	-0.1275637044	 0.1122500374	 0.0352831729	 0.270904
C	-1.3872876407	-0.6361519419	-0.3888327998	-0.129351
O	-1.7236557286	-0.2156457847	-1.7017034136	-0.42465
C	 1.133797942	-0.3948441873	-0.7007614775	-0.102533
O	 1.581068845	-1.1280580569	 0.4619393515	-0.280315
C	 0.5265559638	-0.5747850425	 1.2851617446	-0.141249
C	 1.0154149528	 0.2809860875	 2.3549631204	 0.355155
C	 1.4118541435	 0.9832462045	 3.2467861585	-0.44742
H	 0.5671469723	 2.1418365917	 0.3694906846	 0.125788
H	-0.6542497083	 1.971935254	-0.9127567447	 0.136392
H	-1.1297658401	 1.881917111	 0.7904514279	 0.1163
H	-1.1957564809	-1.720417206	-0.3574264392	 0.095718
H	-2.2001130959	-0.4195792621	 0.324355435	 0.089876
H	-2.4942412378	-0.7115018867	-1.9926405528	 0.291907
H	 0.9580676045	-1.0488109495	-1.5610231048	 0.110056
H	 1.8459443069	 0.390851619	-0.9817072295	 0.102075
H	-0.0857673176	-1.3776520245	 1.7195241147	 0.096366
H	 1.7667255854	 1.5991387311	 4.0360235723	 0.200488
