23
gdb 41571	2.69223	1.7103	1.64694	0.1367	86.6	-0.2697	0.0762	0.3458	994.6838	0.2113	-351.164052	-351.15716	-351.156216	-351.195188	30.042	
C	-0.0326074305	 1.586610822	 0.2316098582	-0.247411
C	 1.526169417	 1.6169017038	 0.2158094525	-0.247422
C	 1.5576160167	 0.0840507451	-0.0645825325	 0.013349
C	-0.0101577612	 0.053541025	-0.0484283662	 0.013344
C	-0.3669235524	-0.5565824035	-1.4282861604	-0.024133
C	-0.0411463807	 0.4080289022	-2.5908533157	-0.213478
C	 1.5222114364	 0.4384893259	-2.6070659707	-0.213479
C	 1.9093584484	-0.5121518387	-1.4518172247	-0.024155
C	 0.790309431	-1.5794480581	-1.5673981603	-0.210181
H	-0.4686304114	 1.8421006041	 1.2005121141	 0.093856
H	-0.5233246071	 2.2070390506	-0.5214614936	 0.098104
H	 1.9770366596	 2.2557623143	-0.5466932352	 0.098097
H	 1.9714906863	 1.8893605266	 1.1758223758	 0.093866
H	 2.0500254969	-0.4925131901	 0.7232469623	 0.061099
H	-0.4634673389	-0.5413324524	 0.7491970031	 0.061095
H	-1.3773516227	-0.9687660443	-1.4793970896	 0.050193
H	-0.4346257612	 0.0040031987	-3.5288215545	 0.09174
H	-0.4854899662	 1.3981042009	-2.4668965715	 0.095879
H	 1.9116042332	 0.0496984102	-3.5531446471	 0.091753
H	 1.9301097956	 1.4451748217	-2.4919872656	 0.095872
H	 2.9338239842	-0.8846255449	-1.5239781107	 0.050198
H	 0.8130867025	-2.317639963	-0.7592575399	 0.087096
H	 0.7906858845	-2.1069093965	-2.5271266875	 0.08472
