20
gdb 71305	2.55826	1.89205	1.42219	2.1534	77.58	-0.2247	0.0739	0.2986	980.5168	0.173174	-403.111643	-403.104254	-403.10331	-403.142837	30.994	
O	-0.0475376156	 1.3464361524	 0.0345925315	-0.488659
C	 0.0379537144	-0.0601094804	-0.0182499542	 0.404069
C	 0.2575078196	-0.6551465533	-1.458457192	-0.322922
C	-1.0964817935	-1.3765146511	-1.3318347194	-0.042974
C	-1.3854034212	-0.6668229401	-0.0340110458	-0.08958
N	-1.3089790038	-2.1030917904	-0.0919187141	-0.085359
C	-0.3085419812	-2.836278211	 0.6858703186	-0.136579
C	 1.0625857425	-2.1638386463	 0.9076881278	-0.228826
C	 0.931602455	-0.6425988842	 1.0764668775	-0.263183
H	 0.8472812506	 1.7025902493	 0.0029686057	 0.273789
H	 0.1804922585	 0.1609078533	-2.18151668	 0.108547
H	 1.1494247883	-1.2485093915	-1.6765149944	 0.08895
H	-1.7660056945	-1.5975015831	-2.1563461553	 0.093044
H	-2.2762366304	-0.1657730434	 0.3305189092	 0.09055
H	-0.7797873391	-3.0128274712	 1.6611240952	 0.107512
H	-0.17633071	-3.8190891067	 0.2211528513	 0.105148
H	 1.5357533975	-2.6082139442	 1.7900596479	 0.095279
H	 1.7266941221	-2.37860349	 0.0650136914	 0.104852
H	 1.9254573014	-0.1755298437	 1.0354277959	 0.081629
H	 0.4996069192	-0.3872029443	 2.0525105531	 0.104714
