18
gdb 71129	2.90351	1.94535	1.64154	1.088	69.22	-0.2	0.0733	0.2733	891.5038	0.149678	-439.064314	-439.057217	-439.056273	-439.095474	28.952	
C	-0.0105169623	 1.4931710019	 0.1218484317	-0.455716
C	 0.0179833496	-0.0111230476	-0.0101624233	 0.403832
C	 0.6728345054	-0.534355143	-1.2975659906	-0.165429
N	 0.5754553537	-2.0083523954	-1.3633321704	-0.320546
C	-0.0012121194	-2.5894257163	-0.1735693518	-0.079896
C	 0.2270004192	-1.9029401297	 1.1565518079	 0.032312
O	 0.7250651552	-0.5901896266	 1.0886925938	-0.2811
C	-1.1435347044	-1.8677215909	 0.5292098887	 0.015884
O	-1.3111153816	-0.5419118186	 0.0714374756	-0.292936
H	 1.0026423471	 1.8972373054	 0.0572585143	 0.131502
H	-0.6171190378	 1.9277539801	-0.6761368052	 0.129868
H	-0.4420992258	 1.7657134932	 1.0869222315	 0.13676
H	 0.185392751	-0.0802881736	-2.166128942	 0.101029
H	 1.7252656919	-0.2209251875	-1.2984519472	 0.106357
H	 0.01062279	-2.2756762807	-2.1604831126	 0.226491
H	-0.0032262192	-3.6754008332	-0.1645791746	 0.0968
H	 0.5116704157	-2.4258484124	 2.0599919646	 0.11078
H	-2.0524432983	-2.314916455	 0.9113132696	 0.104008
