18
gdb 8334	5.40632	1.31186	1.28388	2.559	67.71	-0.2474	0.0644	0.3118	1018.1531	0.153099	-384.906395	-384.898614	-384.89767	-384.939047	28.701	
C	-0.7051591642	 1.3496488937	 0.1915254331	-0.397956
C	 0.0499043394	 0.0447533892	 0.0497268859	 0.159577
C	 0.7952405064	-0.2370919915	-1.2730436235	-0.375849
C	 2.0544912839	-0.298687013	-0.3928474779	 0.379972
C	 2.9793509917	-1.5313036646	-0.3351257733	-0.128508
O	 4.1075025152	-0.7501218398	-0.7798236838	-0.274743
C	 3.350956288	 0.4746918258	-0.6908415199	-0.128119
O	 1.3085088543	 0.0496404973	 0.7782846002	-0.321491
H	-0.0975679583	 2.1909844067	-0.1564310568	 0.118698
H	-1.6306362391	 1.3206908194	-0.3942087428	 0.117892
H	-0.9691234914	 1.526796818	 1.2387988517	 0.13007
H	-0.5744593148	-0.7938245757	 0.3856370775	 0.078701
H	 0.5326688562	-1.1607501836	-1.7919918847	 0.112819
H	 0.7814525124	 0.5926322251	-1.9841969406	 0.110955
H	 3.111370728	-1.9181056411	 0.6838036852	 0.109095
H	 2.7522102384	-2.3585290641	-1.0188795397	 0.099502
H	 3.3829657279	 1.0525215724	-1.6228601976	 0.099892
H	 3.671436406	 1.1073559858	 0.1474320472	 0.109494
