17
gdb 131823	5.77273	0.69442	0.66983	3.8492	70.59	-0.2802	-0.0223	0.2579	1643.5468	0.137136	-451.304102	-451.295362	-451.294418	-451.339411	29.867	
O	-0.0927276734	 1.4365424824	 0.0898522062	-0.416211
C	 0.008596972	 0.0265530861	 0.0057726933	-0.072178
C	-1.4090166948	-0.5326296345	 0.0457392451	-0.181522
C	-1.4182716353	-2.0602035179	-0.035215202	-0.153814
N	-2.7688499723	-2.6021447992	 0.0172073306	 0.149543
N	-3.5130385843	-2.6021252156	 1.1162230149	-0.250069
C	-4.6360189834	-3.1501615576	 0.667555788	 0.078513
N	-4.576212538	-3.4673446692	-0.6444796147	-0.208907
N	-3.3802214855	-3.1107800388	-1.0456280823	-0.126045
H	 0.7942088484	 1.8068379626	 0.059161727	 0.290462
H	 0.508281036	-0.2860734434	-0.9261351943	 0.091463
H	 0.5956460015	-0.3853738865	 0.8434799669	 0.090955
H	-1.8957475374	-0.2119005698	 0.9717225719	 0.138614
H	-1.9827747618	-0.1158246471	-0.7884423981	 0.129829
H	-0.9943892846	-2.4168202157	-0.976388648	 0.151051
H	-0.8562351334	-2.5025536799	 0.7923556323	 0.141158
H	-5.4984196637	-3.3256307559	 1.2897846932	 0.147154
