19
gdb 41894	2.20995	2.05284	1.77435	0.6277	75.09	-0.2382	0.0144	0.2526	913.8974	0.162564	-423.025359	-423.018296	-423.017352	-423.056609	28.628	
C	 0.0673163606	 1.5513520092	-0.0977911486	-0.082107
O	 1.36127066	 2.0824672381	 0.1610765812	-0.273759
C	 2.2385828604	 1.1557540472	 0.8104460226	 0.030329
C	 1.4519783196	 0.3463445184	 1.8454921054	-0.079254
O	 0.4380912467	-0.4462884713	 1.2371419506	-0.276312
C	 0.0237194399	 0.0245872819	-0.0454166728	 0.069465
C	 0.8276271462	-0.6766841936	-1.1568597004	-0.258084
C	 2.3202875041	-0.5165010204	-1.0584404258	-0.039439
C	 2.9555313339	 0.2689258284	-0.1917623186	-0.062455
H	-0.647171745	 1.9422522711	 0.6427012543	 0.098846
H	-0.2499963453	 1.9051307198	-1.086190442	 0.104474
H	 2.9711672362	 1.7741787017	 1.3389263519	 0.081736
H	 2.1168511026	-0.3332605585	 2.3896376655	 0.108467
H	 1.0047364812	 1.0435112068	 2.5707642406	 0.096473
H	-1.0263442418	-0.2751457278	-0.1490676102	 0.08261
H	 0.5880652462	-1.7479338242	-1.119981688	 0.114955
H	 0.4705695586	-0.3281755157	-2.1377917564	 0.105188
H	 2.9028914009	-1.1093076367	-1.7608076661	 0.091051
H	 4.0413969551	 0.3040534055	-0.1896506931	 0.087814
