15
gdb 9810	3.56703	1.70146	1.27543	4.1643	67.37	-0.2907	-0.0843	0.2064	938.2275	0.117399	-362.677855	-362.669734	-362.66879	-362.710695	29.108	
C	 0.0988838312	 1.496387517	-0.288237692	-0.489648
C	 0.0465487404	-0.0023076552	-0.0670200521	 0.211909
C	 1.3538103235	-0.7936735852	 0.0232495428	-0.272744
C	 0.5499710106	-0.583622776	 1.2565350557	-0.27277
C	-1.0758995631	-0.7693738562	-0.6680968621	 0.254912
O	-1.2338425571	-1.9651862527	-0.5667524259	-0.299278
C	-2.0605976922	 0.0189894366	-1.4452654311	 0.229986
N	-2.8368727095	 0.6216185898	-2.0547337209	-0.318641
H	 0.9754385937	 1.9169607349	 0.2115690737	 0.123126
H	 0.1693909944	 1.7467316299	-1.3513782274	 0.141518
H	-0.7869208648	 1.9966374774	 0.1155146887	 0.141502
H	 1.3459984472	-1.7829517408	-0.4189096875	 0.146478
H	 2.2634385154	-0.2211580227	-0.1182770943	 0.128587
H	 0.888571174	 0.1380868985	 1.9911848765	 0.128578
H	-0.0008038338	-1.4310344754	 1.6474036458	 0.146486
