20
gdb 104824	1.99763	1.40412	1.19964	0.9326	75.04	-0.2405	-0.0275	0.213	1188.26	0.169207	-440.276632	-440.266635	-440.26569	-440.312082	36.001	
C	-0.0121586123	 1.5716247431	 0.1712372655	-0.3959
C	-0.2150139101	 0.0800770449	-0.115916122	-0.205884
C	 0.6641452992	-0.453276198	-1.2566481401	 0.170596
C	 0.3035674198	 0.1451262733	-2.6208704192	-0.141085
O	 1.0856340151	-0.3969443394	-3.6772372784	-0.428927
N	 2.1321519259	-0.4145030261	-0.9334325568	-0.354943
C	 2.2708771796	-1.8981004007	-1.0169062128	-0.280939
C	 0.7709078925	-1.9937058161	-1.3072385715	 0.338568
O	 0.0006790323	-2.8759755763	-1.5530677188	-0.307021
H	 1.0479343966	 1.7806387003	 0.3423805545	 0.136737
H	-0.3581625726	 2.2037207994	-0.6526194435	 0.116061
H	-0.5666239674	 1.8691053285	 1.066101861	 0.116837
H	 0.0225417717	-0.4905583518	 0.7890366534	 0.104065
H	-1.2645074616	-0.1339451855	-0.3527383099	 0.106334
H	-0.77196131	 0.0136351362	-2.8029952554	 0.111448
H	 0.5113974972	 1.2202410237	-2.6174530191	 0.122742
H	 0.7320492118	-1.2665672291	-3.8921254616	 0.297741
H	 2.650233587	 0.0315839902	-1.6836293876	 0.230586
H	 2.8883804915	-2.2731185975	-1.8421887081	 0.129563
H	 2.6059628839	-2.3677984891	-0.0852567895	 0.13342
