17
gdb 83529	2.89533	1.78071	1.61847	1.9023	65.02	-0.2551	0.0719	0.327	884.6072	0.138532	-458.93339	-458.926886	-458.925942	-458.963883	27.311	
O	 0.0623770385	 1.3953869455	 0.0753011572	-0.467032
C	 0.0194188875	-0.008435298	 0.0363275726	 0.174641
C	-1.366492586	-0.6238079412	-0.3195954934	-0.146936
C	-1.5099742684	-0.0858843935	-1.7617431733	-0.098967
O	-0.1481240132	-0.0535700886	-2.2660260598	-0.301355
C	 0.6814824755	-0.6098053767	-1.2161956712	 0.000449
C	 0.3276904842	-2.0930054384	-1.1237219785	 0.034909
O	 0.1230841742	-2.5809499379	 0.2112267721	-0.255871
C	-1.012528437	-2.0992743273	-0.5161772275	 0.048139
H	 0.056452892	 1.7054782667	-0.8388301673	 0.292134
H	 0.4165877477	-0.384833487	 0.9753977727	 0.114123
H	-2.1929620484	-0.3855379486	 0.3486708653	 0.083132
H	-2.1225807351	-0.7306939327	-2.4013736306	 0.109051
H	-1.9238551048	 0.9276836007	-1.7869531331	 0.109432
H	 1.7158973537	-0.3371373184	-1.422141733	 0.085648
H	 0.6722004626	-2.8133246595	-1.8580977443	 0.110859
H	-1.7731325931	-2.8383803252	-0.750658358	 0.107643
