19
gdb 114434	3.8922	1.31038	1.17487	2.5533	74.04	-0.2269	0.0732	0.3001	1101.3056	0.160131	-422.97428	-422.9667	-422.965755	-423.006499	29.646	
C	 0.0862707033	 1.3563419902	 0.0762218596	-0.234709
O	-0.2053375332	-0.0028949254	-0.1513756387	-0.248287
C	 0.5696444863	-0.5889650738	-1.1648793273	 0.176795
C	 2.0736767595	-0.827758507	-0.8181351677	-0.27137
C	 2.378404934	-2.1768080962	-1.4635728029	-0.092693
C	 1.5217360132	-3.3407530996	-1.0054499179	 0.104445
O	 0.3648940948	-2.8610908241	-0.3199225397	-0.301409
C	 0.0723364128	-1.9991744696	-1.4688720283	 0.043872
C	 1.192832349	-2.6579413108	-2.2947785819	-0.16375
H	 1.1120732238	 1.50659566	 0.4439886067	 0.108352
H	-0.0434589154	 1.9582372679	-0.8378733681	 0.10084
H	-0.6127875154	 1.7145589382	 0.8357162485	 0.128533
H	 0.4949897056	 0.0095803927	-2.0915361203	 0.060694
H	 2.7207743344	-0.0398632017	-1.2118549942	 0.097574
H	 2.1902908208	-0.8576099097	 0.2695704109	 0.119504
H	 3.3786898381	-2.4119674842	-1.8098001076	 0.087856
H	 1.8826796762	-4.3346805366	-0.7682282442	 0.102389
H	-0.9699339217	-2.0818055653	-1.778022256	 0.084048
H	 1.190688804	-2.9807531048	-3.325974001	 0.097315
