17
gdb 67254	3.13094	1.55997	1.30545	1.7401	72.12	-0.2187	0.0712	0.29	994.6418	0.137254	-417.890076	-417.882908	-417.881964	-417.921353	29.238	
O	-0.0848091346	 1.4355238336	-0.0340108387	-0.449972
C	 0.0145751173	 0.0768985634	 0.0136114129	 0.394772
C	 0.0562866448	-1.0174823833	-0.9998598701	-0.133092
N	 1.2611605692	-1.6252420887	-0.4238590753	-0.300422
C	 0.9008562584	-0.9572972803	 0.8626605918	-0.233863
C	-0.4295589094	-1.5901004157	 1.309885322	 0.418686
C	-0.6663795515	-2.824846601	 2.0818646646	-0.331367
N	-1.0095483484	-1.4885350026	 2.6406473367	-0.37626
C	-1.0717924071	-0.9676266926	 0.0943410333	-0.228549
H	 0.6846594739	 1.7820337885	-0.5016172982	 0.296138
H	-0.1666998109	-1.0103012832	-2.0595363459	 0.101175
H	 1.2054588157	-2.6432561082	-0.3462742727	 0.209668
H	 1.7054645383	-0.7549876666	 1.5707286818	 0.073158
H	-1.5243032185	-3.4564234276	 1.8671866551	 0.120541
H	 0.1928537356	-3.3532353972	 2.489865911	 0.108372
H	-0.3001444326	-1.2068893724	 3.3147050592	 0.229571
H	-2.11937777	-0.8708939661	-0.1560081373	 0.101444
