17
gdb 57023	2.45043	1.36306	0.91698	7.0508	73.35	-0.2606	0.0184	0.279	1232.8095	0.135739	-418.043798	-418.034682	-418.033738	-418.078358	32.254	
C	 0.0630613265	 1.6120191797	-0.0879868646	-0.396943
C	 0.0196316714	 0.0720845869	-0.0058535183	-0.162123
C	 0.6254400535	-0.5057085622	-1.2119261458	 0.290551
N	 1.1105858431	-0.9120456455	-2.1784489463	-0.317891
C	 0.7152302134	-0.4614332372	 1.2557199964	-0.142473
C	 0.0233675673	-0.1686561348	 2.6227925181	-0.1916
N	-0.0798202461	-1.6170114799	 2.8049243696	-0.320627
C	 0.4831682794	-1.963404178	 1.6005196408	 0.422464
O	 0.684641284	-3.012986877	 1.0577562011	-0.342177
H	 1.096589155	 1.9675247176	-0.1214720772	 0.141392
H	-0.4492786036	 1.9665208758	-0.985429572	 0.14436
H	-0.427089099	 2.0499610449	 0.7857677381	 0.126656
H	-1.0293463776	-0.2516697225	 0.0153379206	 0.132366
H	 1.7766944698	-0.2010763038	 1.2434852976	 0.121561
H	 0.6467796924	 0.339744281	 3.3642137942	 0.121897
H	-0.9436249259	 0.3413721769	 2.5481555261	 0.115404
H	-0.4748666738	-2.1786279518	 3.5443965617	 0.257182
