23
gdb 104188	2.39559	1.25697	1.19661	2.0122	81.02	-0.238	0.0677	0.3057	1225.2016	0.202877	-425.413148	-425.40258	-425.401636	-425.447862	39.849	
C	-0.4654743929	 1.5217005868	 0.216681938	-0.475231
C	-0.0992766485	 0.0519993476	 0.0319832964	 0.253214
C	-1.2975167265	-0.7263049992	-0.5140734729	-0.134061
O	-1.6676148881	-0.1315198009	-1.7529747967	-0.426895
C	 1.1736811062	-0.286083176	-0.7752551573	-0.112503
O	 1.6258530543	-1.2078617487	 0.2366841525	-0.327167
C	 0.6539348129	-0.6990193831	 1.1967902086	 0.357814
C	 1.3568966618	 0.2179740346	 2.1996427917	-0.426442
C	-0.0434143962	-1.8378660982	 1.9322986183	-0.440168
H	 0.3950688633	 2.1282682934	 0.5070996568	 0.111738
H	-0.867951394	 1.9229538148	-0.7164249362	 0.140579
H	-1.2370673964	 1.6399864768	 0.9869039309	 0.108826
H	-1.0223750727	-1.7791394935	-0.6631930254	 0.096754
H	-2.1314955066	-0.6925423579	 0.2055966363	 0.083946
H	-2.3783492212	-0.653469677	-2.1355603215	 0.288596
H	 1.0228501649	-0.7715797989	-1.7447099751	 0.106524
H	 1.8664874238	 0.5575365619	-0.9021658842	 0.088103
H	 1.9468470982	 0.9878038314	 1.697119107	 0.119189
H	 0.6396297519	 0.7114959695	 2.8638598607	 0.111995
H	 2.0397537431	-0.3764716039	 2.8145441693	 0.119409
H	 0.6900268663	-2.3783183447	 2.539660929	 0.122971
H	-0.8167817901	-1.453283467	 2.605854203	 0.114512
H	-0.4985883735	-2.5563387279	 1.2490095806	 0.118296
