18
gdb 33754	2.51122	1.59919	1.25481	1.3064	83.53	-0.2441	0.0322	0.2763	1063.2716	0.147171	-364.679065	-364.67124	-364.670296	-364.711099	31.471	
C	 0.040575887	-1.1945825518	 0.0044711784	-0.343292
C	 0.0252073871	 0.0084619834	 0.0105072395	 0.007775
C	 0.0014550867	 1.4452881953	 0.0044788028	 0.15911
C	-0.6749113735	 2.4406923776	 0.9911988655	-0.201396
N	-0.0480120181	 3.4012744809	-0.0370067464	-0.200125
C	 1.174504255	 2.4673074489	 0.0410969947	-0.201383
C	-0.5601782457	 2.4047814252	-1.0619112048	 0.41499
C	-0.455938291	 2.5035216424	-2.5353664033	-0.378208
C	-1.8206916091	 2.4838759766	-1.8342671943	-0.378211
H	 0.0544768281	-2.2565850554	 0.0006496697	 0.18443
H	-1.7658085013	 2.4689303209	 1.0103766696	 0.113094
H	-0.2413847148	 2.529525314	 1.9903455157	 0.104659
H	 1.7322067455	 2.5579305127	 0.9764504657	 0.104665
H	 1.8244815328	 2.5206115291	-0.8340664071	 0.113099
H	-0.1282308691	 3.4466140618	-2.9603876369	 0.127067
H	-0.1623622744	 1.6226942787	-3.0974891308	 0.123331
H	-2.4284138214	 1.5900775827	-1.933378852	 0.123329
H	-2.3783805038	 3.4142263769	-1.8044374159	 0.127066
