16
gdb 44471	4.32681	1.44425	1.33159	4.6045	68.84	-0.2641	0.0343	0.2984	956.4524	0.127343	-437.853316	-437.847109	-437.846165	-437.883734	25.965	
O	-0.0132625303	 0.0197204232	 0.2123788058	-0.360354
C	-0.0194965424	 1.1838581468	-0.0498614854	 0.442431
N	-1.1571149291	 2.0155322274	-0.2081767752	-0.485937
C	-0.6460108768	 3.3445742743	-0.1065074411	 0.327315
C	-0.6808496565	 4.7823552279	-0.6990949832	-0.300953
C	 0.7435585578	 4.6000946777	-0.0087886014	-0.105786
C	 0.0110348973	 3.9549784836	 1.1855735239	-0.271038
C	 0.7272292111	 3.2072352747	-0.7182079542	 0.131002
O	 1.1432808754	 1.9245656065	-0.2412709108	-0.266379
H	-1.9663331675	 1.6959131516	 0.3051973745	 0.257525
H	-0.697759209	 4.8727432355	-1.7874071505	 0.114249
H	-1.3387993756	 5.5070510524	-0.2165958312	 0.111417
H	 1.5367219362	 5.344806267	 0.0154788627	 0.094789
H	-0.6186094569	 4.614629398	 1.7860442871	 0.096207
H	 0.5920167686	 3.2698200931	 1.8034656018	 0.123041
H	 0.8159202677	 3.2264624002	-1.8078129728	 0.092472
