21
gdb 115773	3.15377	0.89686	0.76912	3.4224	80.44	-0.2449	-0.0166	0.2283	1525.5384	0.180346	-424.21459	-424.204608	-424.203664	-424.25104	35.025	
C	 0.2120672145	 1.545209878	-0.1660442421	-0.239229
O	-0.3395107344	 0.3122051901	-0.5728700256	-0.240538
C	 0.5910468884	-0.546436105	-1.1706990562	 0.15554
C	 1.6319880788	-1.2883133013	-0.284695683	-0.257398
C	 1.3285164809	-2.577107682	-1.1002055598	-0.234903
C	 0.013009548	-1.9168562446	-1.6141868177	-0.066058
C	-1.2427645938	-2.3391618595	-0.8353755363	-0.268028
C	-1.7053207946	-3.7032153249	-1.285515833	 0.155153
O	-1.7274403283	-4.6911380852	-0.5962732183	-0.243166
H	 0.9939948382	 1.4146110667	 0.5963931215	 0.111676
H	 0.647833872	 2.0932555077	-1.0162160472	 0.105702
H	-0.5991895961	 2.1398331611	 0.2602536689	 0.12927
H	 1.0877333956	-0.0402100593	-2.0141781203	 0.066006
H	 2.6590849834	-0.9175134286	-0.2815240966	 0.098237
H	 1.2777862228	-1.3636714802	 0.747142553	 0.114096
H	 2.0506931349	-2.7425329812	-1.9033312113	 0.105371
H	 1.2158056287	-3.5059288578	-0.5371823037	 0.120105
H	-0.1785046315	-2.0063939566	-2.688507231	 0.072893
H	-1.0614736246	-2.363894479	 0.2420968959	 0.11987
H	-2.0409349858	-1.6124658652	-1.0329647863	 0.127101
H	-2.0226646571	-3.7482715831	-2.3552014508	 0.068301
