16
gdb 46890	3.39277	1.41416	1.08437	2.2675	71.	-0.2489	-0.0405	0.2084	1065.3032	0.12643	-437.89828	-437.890969	-437.890025	-437.930126	28.361	
O	 0.1039947827	-0.0721158621	-0.4746957104	-0.371339
C	-0.0471127002	 1.0769966077	-0.0945932337	 0.368981
N	-1.2498114926	 1.7225689173	-0.2143792538	-0.315065
C	-1.5821385717	 3.0184547225	 0.3533266923	-0.220518
C	-0.8364321196	 4.1462164022	-0.3398003126	 0.053771
O	-0.1598114471	 5.0740216838	 0.5109929898	-0.253275
C	 0.6270164882	 4.1563513271	-0.2743379254	 0.009305
C	 1.3970142765	 3.1125122909	 0.4533933507	-0.090986
C	 1.0948734286	 1.8135174181	 0.5340598772	-0.140575
H	-1.9826003291	 1.1494068816	-0.6041311977	 0.25124
H	-2.6623023778	 3.1559634064	 0.2632936004	 0.120495
H	-1.3311631921	 3.0603030077	 1.4189951987	 0.137726
H	-1.3198531116	 4.5939613716	-1.2076497216	 0.100964
H	 1.1767066887	 4.6487209051	-1.0781140717	 0.109275
H	 2.3234508461	 3.4578231688	 0.9085880054	 0.114823
H	 1.783609811	 1.1354666312	 1.0288395822	 0.12518
