14
gdb 48832	2.73081	1.63332	1.15062	4.8062	62.62	-0.2532	-0.0571	0.196	1011.3367	0.100617	-473.841975	-473.834269	-473.833325	-473.874636	27.79	
O	-0.9756489246	 1.2799976556	-0.2208530053	-0.250166
C	 0.1152681231	 0.9288427168	 0.1472582355	 0.073438
C	 1.3477601576	 1.7533072277	-0.0558368489	 0.191751
O	 1.1891686188	 3.1868736424	-0.0628071842	-0.26213
C	 1.6173371393	 2.5742493556	-1.2593754784	-0.016983
C	 3.1251728764	 2.6286809948	-1.4641844528	-0.193103
N	 3.6360068619	 1.9189986211	-0.3013537197	-0.337779
C	 2.6972555483	 1.3315686867	 0.5028170367	 0.388614
O	 2.894485106	 0.6054084469	 1.4514786122	-0.371377
H	 0.2931864733	-0.0373622488	 0.6590751441	 0.114915
H	 0.9281926143	 2.615769906	-2.0969801519	 0.135033
H	 3.4035591289	 2.1314911526	-2.4019928551	 0.126451
H	 3.4794045545	 3.6655277567	-1.5017809486	 0.138082
H	 4.6159901722	 1.8561059659	-0.0764585737	 0.263254
