12
gdb 5657	5.44656	2.28515	1.60976	1.7223	61.5	-0.2026	0.0002	0.2027	714.2851	0.087839	-377.557247	-377.551846	-377.550902	-377.586527	21.32	
N	-0.0300050298	 1.3455501384	 0.010072761	-0.382429
C	 1.277576173	 1.8060845233	-0.0001085448	-0.054443
C	 2.170002867	 0.7453835413	-0.0148037097	-0.332369
C	 1.3408047533	-0.399060036	-0.0132018936	 0.320426
C	 0.0226910812	-0.0207239212	 0.0018069394	 0.312849
N	-0.8142976506	-1.1106489067	 0.003769252	-0.355427
C	 0.0317056695	-2.0997149251	-0.0100839097	 0.04019
O	 1.3630366261	-1.7669700391	-0.0211948904	-0.208326
H	-0.8529127775	 1.921126167	 0.0214088265	 0.27182
H	 1.4781276197	 2.8653653317	 0.003926759	 0.12667
H	 3.244274603	 0.8221630206	-0.0248497261	 0.113367
H	-0.190166705	-3.1547099343	-0.0139031037	 0.147672
