22
gdb 76449	2.95834	0.96619	0.90635	3.3678	83.91	-0.2205	-0.0171	0.2034	1418.547	0.19013	-404.332909	-404.321904	-404.32096	-404.369559	38.874	
C	 1.6295565643	-4.0621642632	 1.6075890069	-0.424387
C	 1.059367143	-2.8625943989	 0.881378218	-0.041439
N	 0.3832430776	-1.7488930845	 1.5537785026	-0.129679
C	 0.235256385	-1.727718606	 3.0008481361	-0.319243
C	 1.678143737	-1.4948542852	 0.9046761323	 0.274283
C	 2.9387548712	-1.2110690521	 1.703151073	-0.463703
C	 1.5504423584	-0.6246830905	-0.3476385606	-0.318156
C	 1.2849866169	 0.8215429521	 0.0095895366	 0.158771
O	 1.9444887344	 1.7603988343	-0.3593800415	-0.247169
H	 2.1851840576	-3.8072701908	 2.5111429416	 0.120811
H	 0.8280786851	-4.7525631221	 1.8930804834	 0.127038
H	 2.3095274024	-4.6067859123	 0.9439121428	 0.126557
H	 0.5603225486	-3.1459040217	-0.0473067719	 0.082167
H	 1.0720137644	-2.1445203859	 3.5778234628	 0.101571
H	 0.0885012824	-0.6922813734	 3.3248037304	 0.12545
H	-0.6661255455	-2.2895555385	 3.2666410055	 0.125897
H	 3.8230412769	-1.4142085482	 1.0896955151	 0.128834
H	 2.9848866765	-0.1561503563	 1.9959795391	 0.133322
H	 3.0206972182	-1.8106996934	 2.6097032296	 0.121396
H	 2.4482824405	-0.6788995566	-0.97129244	 0.111577
H	 0.6915016799	-0.9795660814	-0.9302922746	 0.120661
H	 0.4013390751	 0.9628029848	 0.6719853127	 0.085443
