20
gdb 104373	2.15727	1.55397	1.36409	4.2895	74.43	-0.2313	0.0141	0.2454	1094.3814	0.171227	-440.32275	-440.313565	-440.312621	-440.356334	34.362	
C	-0.1637586197	 1.3762079602	 0.0597219532	-0.333992
N	-0.0465566592	-0.0665826427	-0.1548701717	-0.323841
C	 0.8350168727	-0.5141322547	-1.2490660988	 0.13288
C	 2.2675640069	 0.0231450043	-1.2003755493	-0.450605
C	 0.7242744359	-2.0445110062	-1.3342620942	-0.272043
C	-0.5845200416	-2.2373633933	-2.1075979347	-0.077167
O	-0.6672526421	-1.1065178963	-2.9944122959	-0.223976
C	 0.1222379594	-0.0973834061	-2.5564357496	 0.473738
O	 0.2071644191	 0.9521824579	-3.1293938626	-0.357372
H	 0.7730481661	 1.8743968189	 0.3538544439	 0.10208
H	-0.522766953	 1.855885421	-0.8535115098	 0.156366
H	-0.9021208815	 1.5497883311	 0.8479718411	 0.11841
H	 0.2620679188	-0.513094367	 0.7030090987	 0.215791
H	 2.7443913042	-0.241999063	-0.2503780933	 0.107148
H	 2.871973152	-0.3908093755	-2.0133848232	 0.120543
H	 2.2747964925	 1.1100684167	-1.3070295012	 0.144264
H	 1.567272708	-2.4514556732	-1.9008497892	 0.113826
H	 0.7065684265	-2.5274031742	-0.3536071749	 0.10547
H	-0.6085662069	-3.1402799972	-2.7208368414	 0.120577
H	-1.453854068	-2.2213854206	-1.4442624971	 0.127904
