18
gdb 23014	2.2625	1.20969	1.06681	0.7746	81.57	-0.2321	0.0074	0.2395	1238.7817	0.144394	-401.8653	-401.85545	-401.854505	-401.900787	35.876	
C	-1.0646430116	 0.7746560873	 0.1504298957	-0.484174
C	 0.2295185181	 0.0094677727	 0.1151259516	 0.349051
N	 1.0625815066	-0.0742046948	 1.0818575751	-0.166822
O	 0.6335188308	 0.6245160518	 2.2187829929	-0.396225
C	 0.5562452786	-0.7438793512	-1.1256510405	-0.08254
C	 1.5578695978	-1.8540345589	-1.1393364315	-0.304827
C	 0.0862679099	-2.2018295678	-1.2867055411	-0.187803
C	-0.6226927819	-2.8644457891	-0.2333952989	 0.345842
C	-1.2394085305	-3.4227425796	 0.6358391711	-0.474828
H	-1.3158452428	 1.1558236676	-0.8434076103	 0.119406
H	-1.8770413704	 0.1067883977	 0.4613505236	 0.153508
H	-1.0147161993	 1.6004848689	 0.8603979224	 0.150407
H	 1.3733627525	 0.4977141885	 2.8216777824	 0.305717
H	 0.4536678128	-0.1567137016	-2.0349084762	 0.099173
H	 2.1853915486	-1.9701685438	-2.0154644237	 0.117404
H	 2.0275803197	-2.0963209038	-0.1952743821	 0.147598
H	-0.242304497	-2.4657239457	-2.2879814046	 0.113321
H	-1.7709785018	-3.9193048282	 1.408985564	 0.195792
