19
gdb 19906	4.57155	1.44875	1.31984	1.67	74.77	-0.2176	0.0666	0.2842	1008.9989	0.166198	-327.827648	-327.820241	-327.819297	-327.859418	29.025	
C	-0.9163475095	 1.3406595968	 0.5352438389	-0.40335
C	-0.1309384072	 0.1638180635	-0.0584498054	-0.215192
C	 0.6736642084	-0.566790243	 1.0202381552	 0.011372
C	 0.6004104621	-1.9987152172	 1.4800677019	-0.11413
C	 0.7684111809	-3.0421829079	 0.3572999181	-0.034519
C	 1.0345749339	-2.5281254747	-1.0065980632	-0.248963
N	 2.1295362465	-2.5239457512	-0.0188647433	-0.140914
C	 1.923732677	-1.426613072	 1.0059939289	-0.047894
H	-0.2427505451	 2.0798209417	 0.9825605639	 0.118008
H	-1.5078800422	 1.8486575178	-0.2324623234	 0.113067
H	-1.6032136003	 0.9997765611	 1.317417551	 0.119983
H	-0.8362557316	-0.5204515534	-0.5390306872	 0.112639
H	 0.5353741383	 0.5385913412	-0.8452011598	 0.109263
H	 0.7710444734	 0.0640771268	 1.9064485775	 0.091356
H	 0.2995901517	-2.2894526	 2.4786582453	 0.090389
H	 0.6257595087	-4.1014302652	 0.547577978	 0.098103
H	 1.1954163623	-3.2827114433	-1.7730530793	 0.118843
H	 0.6251766801	-1.6021880999	-1.3789287259	 0.123777
H	 2.8064105526	-1.1441881213	 1.5669505888	 0.09816
