18
gdb 82408	2.58084	1.67266	1.22838	4.6048	70.73	-0.2531	0.0133	0.2665	1037.2979	0.149446	-439.096926	-439.088984	-439.088039	-439.129622	30.267	
C	 0.2236549521	 1.5597621625	 0.1237233143	-0.394375
C	 0.100545444	 0.0294258434	-0.013902668	-0.140925
C	 0.7554225916	-0.5450376018	-1.2692474644	-0.045592
N	 1.8491710363	 0.2153594323	-1.8940295671	-0.326306
C	 2.1562876063	-1.0191534947	-1.1504543178	-0.06189
C	 2.7880808942	-0.8076501408	 0.2078626075	-0.08387
O	 1.8849904822	-1.1040138109	 1.2905905949	-0.22791
C	 0.6079706809	-0.6505211852	 1.2627680135	 0.414473
O	-0.0859552161	-0.7980573149	 2.2328505293	-0.336765
H	 1.2660182574	 1.8816355163	 0.1676304646	 0.136184
H	-0.2324286524	 2.0499600025	-0.7403781028	 0.12279
H	-0.2897776663	 1.8891966851	 1.0302358761	 0.136019
H	-0.9641145815	-0.2166707955	-0.0333286005	 0.110964
H	 0.0940240897	-1.1008752984	-1.9278531482	 0.099867
H	 1.8666536008	 0.0357311661	-2.8944034217	 0.238039
H	 2.4606717667	-1.900671378	-1.706350192	 0.099842
H	 3.6380643086	-1.4726145578	 0.37231992	 0.126947
H	 3.1346138954	 0.2269563197	 0.2967674824	 0.132508
