24
gdb 105368	2.38741	1.13861	0.91399	0.9226	89.88	-0.2308	0.0831	0.3139	1423.854	0.216808	-368.371458	-368.36156	-368.360616	-368.406732	37.442	
C	-1.6458116999	-0.9507518076	-0.5957614371	-0.383764
C	-0.2616602212	-0.4385858116	-0.1799422027	-0.24224
C	 0.8226995724	-0.6504235475	-1.228582215	 0.393474
C	 0.6270929942	 0.081300003	-2.5458325973	-0.229617
N	 0.4705347433	 1.5197667441	-2.3477701428	-0.057445
C	 1.6793938158	 2.3317422833	-2.4071762442	-0.214164
C	 0.6829832484	 2.3658915415	-3.5138227335	-0.221516
C	 2.2408790127	-0.8389628407	-0.7415924801	-0.311159
C	 1.4728255805	-2.0118034743	-1.302501667	-0.312894
H	-2.0374824643	-0.3978387408	-1.4550085313	 0.12268
H	-1.6135811091	-2.0123456662	-0.8644902721	 0.110838
H	-2.3642722127	-0.83370738	 0.2216537405	 0.10833
H	-0.3246677261	 0.6305444621	 0.050368866	 0.112154
H	 0.046502632	-0.943753427	 0.7437786125	 0.08378
H	 1.4709084378	-0.1523631419	-3.2215241271	 0.069788
H	-0.2827712503	-0.2774630506	-3.0427406917	 0.10385
H	 1.7430165468	 3.1468393769	-1.6919022631	 0.11494
H	 2.6240379265	 1.8290782512	-2.6086036052	 0.107243
H	 0.9664963982	 1.8856540755	-4.4498219025	 0.105764
H	 0.0021513066	 3.2055913857	-3.6229835435	 0.114895
H	 3.0514596748	-0.4333865959	-1.3378921359	 0.103851
H	 2.4215914734	-0.8086162421	 0.3277842717	 0.107939
H	 1.1283549452	-2.7748513133	-0.6121190013	 0.108542
H	 1.7660309549	-2.396434094	-2.2742819473	 0.104729
