20
gdb 66485	3.00402	1.7191	1.39041	1.8209	82.27	-0.2184	0.0828	0.3013	1016.5216	0.171195	-365.94187	-365.934176	-365.933232	-365.973403	31.372	
C	 0.1244161029	 1.5257771761	 0.0554590282	-0.526395
C	-0.0391705647	 0.0511898577	-0.0905649956	 0.366565
C	 0.7299046658	-1.0000341633	-0.8017345885	-0.156928
N	 0.7233659248	-0.9649196057	 0.7046780487	-0.194978
C	-0.5311776085	-1.7958845766	 0.9466951222	 0.007962
C	-0.4829378868	-2.9833507365	-0.0247722224	-0.283323
C	-0.5006792334	-1.8795653598	-1.117543915	 0.33882
C	-0.9013768775	-2.1140072185	-2.5498516301	-0.510207
C	-1.2600033606	-0.9120249562	-0.1075207382	-0.191074
H	 1.1866850172	 1.780174549	 0.1257919704	 0.133007
H	-0.3009106951	 2.0593262282	-0.8020186451	 0.119502
H	-0.3713534121	 1.8922413096	 0.9616088324	 0.123763
H	 1.6908290758	-0.9619962795	-1.3030666367	 0.083794
H	-0.789327275	-1.8832277524	 2.0009436598	 0.072061
H	 0.3707055206	-3.6661369176	 0.024987278	 0.099212
H	-1.4214862411	-3.5480172128	-0.0105425481	 0.097069
H	-1.870307287	-2.6201790971	-2.616215141	 0.116592
H	-0.9770722033	-1.1685212115	-3.0989770873	 0.118753
H	-0.16337461	-2.7385357492	-3.0678943566	 0.119525
H	-2.3235886119	-0.689310224	-0.158428385	 0.066279
