22
gdb 61587	3.02068	1.02276	0.85731	2.5836	82.69	-0.2356	0.0803	0.316	1432.268	0.193456	-404.296342	-404.28675	-404.285806	-404.331574	35.742	
C	 0.3215914795	 1.4355745362	-0.3138960355	-0.399603
C	 0.0294712063	-0.0438480326	-0.045527255	 0.096544
O	 0.4978976128	-0.8865083485	-1.0969049057	-0.269935
C	-0.27824286	-0.8956493887	-2.255430321	 0.152475
C	 0.0962539628	-0.0221032123	-3.4271521171	-0.283447
C	 0.3452746409	-1.5173598679	-3.4619127266	-0.298512
C	 0.6975182365	-0.5183125503	 1.2350017512	 0.014676
C	 0.9689039689	-1.9526135802	 1.47742585	-0.246667
N	 2.0803185524	-1.016282588	 1.2073266416	-0.324172
H	 1.3982649151	 1.5977292879	-0.422701701	 0.127546
H	-0.1790758079	 1.7796984113	-1.2217891254	 0.123642
H	-0.0341101645	 2.046090495	 0.5223228117	 0.116983
H	-1.0600273954	-0.1796760931	 0.0597979915	 0.073269
H	-1.3380740778	-1.0762235764	-2.0729634953	 0.086925
H	-0.6943914658	 0.394204315	-4.0421901748	 0.113218
H	 0.9643473721	 0.6149240868	-3.30524329	 0.122145
H	 1.3723748556	-1.8477863238	-3.356192249	 0.125691
H	-0.2697439673	-2.1411807896	-4.1003106067	 0.11672
H	 0.4778314307	 0.1196722738	 2.0893502507	 0.085855
H	 0.9365267566	-2.3472767671	 2.48911316	 0.110384
H	 0.6942083903	-2.6516825783	 0.6941138606	 0.118629
H	 2.3489047782	-1.1287202292	 0.2314927157	 0.237634
