17
gdb 9530	2.76721	1.90312	1.59518	4.3713	63.94	-0.2346	0.0109	0.2455	898.5033	0.141518	-401.010983	-401.00258	-401.001636	-401.043715	30.264	
C	-0.1236729266	 1.4947367673	-0.0104721964	-0.336753
N	 0.0978418733	 0.0473016771	 0.0170392394	-0.329785
C	 0.7578634038	-0.5087757625	-1.1583704438	 0.100208
C	 2.1751943538	-0.0047544133	-1.4471490137	-0.459998
C	 0.5521547098	-2.0378633032	-1.2748956083	-0.110313
O	-0.30624815	-1.8501211074	-2.4474853945	-0.240297
C	-0.1816207204	-0.4904761101	-2.3848939555	 0.472834
O	-0.6790795612	 0.3229612492	-3.0967820617	-0.33512
H	 0.7951867336	 2.101878153	-0.0298406466	 0.101082
H	-0.7149726632	 1.7495586334	-0.8931017403	 0.160343
H	-0.697019075	 1.776558891	 0.8770467438	 0.123328
H	 0.6342038642	-0.2017704042	 0.8431883034	 0.21888
H	 2.831702754	-0.2105057545	-0.5940261162	 0.117047
H	 2.6014206899	-0.4900097911	-2.3308214362	 0.129654
H	 2.1738996027	 1.0731233527	-1.628009343	 0.143556
H	 1.4306770325	-2.632238649	-1.5342766474	 0.1187
H	-0.0103611313	-2.4867427186	-0.455190893	 0.126633
