17
gdb 110345	2.32491	1.49071	1.37468	5.0076	69.14	-0.2547	-0.0116	0.2432	1032.3768	0.135828	-455.08114	-455.072612	-455.071668	-455.114385	31.87	
O	-0.0104104186	 1.1522829658	 0.7616177808	-0.423458
C	 0.0662221536	 0.027509725	-0.0914866675	-0.101489
C	-1.288254739	-0.651426539	-0.226332707	-0.02615
C	-1.5470231878	-2.1078158666	-0.223399534	-0.110424
C	-0.6171145154	-2.9162278083	 0.6965160048	 0.008924
O	 0.7393994941	-3.1264966103	 0.4094599122	-0.416762
C	-0.9118429449	-1.8400907037	 1.7391881061	 0.328662
N	-0.4687727057	-1.4449050908	 2.847053054	-0.512369
N	-1.9753856658	-1.2334584279	 0.9711240746	-0.150147
H	-0.2024499193	 0.822017677	 1.6492372868	 0.302717
H	 0.3647615569	 0.4023468384	-1.0765183345	 0.109527
H	 0.8338982882	-0.6848401515	 0.229837728	 0.122519
H	-2.0083083378	-0.0711631191	-0.7991630543	 0.117286
H	-2.300997304	-2.5555857946	-0.8622425108	 0.105056
H	-1.1241736508	-3.8500813311	 0.979839923	 0.112389
H	 0.8259337197	-3.8951193697	-0.163278128	 0.295682
H	 0.3041470264	-2.0376856737	 3.1561164858	 0.23804
