17
gdb 124077	4.87356	0.99615	0.9407	3.2856	73.97	-0.242	0.0183	0.2603	1249.6068	0.138872	-418.002711	-417.995106	-417.994162	-418.036232	27.857	
C	-0.0241292935	 1.3645631058	-0.3623697616	-0.082259
O	 1.3101563998	 1.641965974	 0.1039064136	-0.27472
C	 1.4418261518	 0.3180122639	 0.6557191642	-0.082253
C	 0.0635771742	-0.1178319143	 0.0898646276	-0.138874
C	-0.9628927758	-0.6341348871	 1.0371692438	 0.33682
N	-1.6000828974	-1.7774226237	 0.7797831017	-0.295176
N	-2.4392575833	-1.9414314916	 1.8197180706	-0.182338
C	-2.3593948652	-0.9425158246	 2.730924249	-0.014447
C	-1.4071699359	-0.0669875605	 2.2595372984	-0.291174
H	-0.7797783096	 1.9579787849	 0.1687054122	 0.099355
H	-0.1291829664	 1.533553589	-1.4404971424	 0.10388
H	 2.3151437027	-0.2114579518	 0.257060037	 0.103882
H	 1.4998870266	 0.3305037069	 1.7519212166	 0.099356
H	 0.1477977222	-0.8130362481	-0.7460441352	 0.095778
H	-3.0335505774	-2.7523517266	 1.8422797843	 0.275935
H	-2.9704306626	-0.9336905722	 3.61973244	 0.134372
H	-1.0792607601	 0.847472176	 2.7270158903	 0.111861
