17
gdb 105775	2.21918	1.51013	1.18134	1.703	69.83	-0.2593	0.0261	0.2854	1099.7765	0.134638	-458.913603	-458.904787	-458.903843	-458.947455	32.443	
O	 0.0585391525	 1.3166040208	 0.2403644833	-0.417961
C	-0.0390847249	-0.0692821029	 0.0350796714	-0.081338
C	-1.5039429767	-0.5218499083	-0.129659384	 0.121257
C	-1.6518330714	-2.064134733	 0.021395115	-0.170748
O	-1.9540343282	-2.2325070482	 1.3956230731	-0.231147
C	-2.7644041336	-1.1305764728	 1.7047555639	 0.01457
O	-2.2103237824	-0.0161044272	 1.028471284	-0.295083
C	-2.1048582747	-0.0183503469	-1.3609596922	 0.347791
C	-2.5855070682	 0.3593967667	-2.3951845795	-0.463255
H	-0.5569495235	 1.5243402842	 0.9544265653	 0.293347
H	 0.5277849787	-0.3067450783	-0.870438866	 0.115532
H	 0.384018162	-0.6432400925	 0.8753692347	 0.09501
H	-2.4614493738	-2.4385507145	-0.6183661887	 0.114455
H	-0.7283878741	-2.6025499245	-0.2021865339	 0.131302
H	-3.8023496849	-1.296131055	 1.3670990151	 0.096937
H	-2.7361685962	-0.9539635001	 2.7831781689	 0.126538
H	-3.0086589207	 0.7109538327	-3.3038773006	 0.202795
