18
gdb 112242	2.05839	1.417	0.91905	3.3561	74.25	-0.2537	-0.032	0.2217	1276.4852	0.145817	-439.119054	-439.109612	-439.108668	-439.154276	33.272	
C	-0.0048733897	 1.5246664757	 0.0077201849	-0.393978
C	-0.2057861593	 0.0095224426	-0.1047358729	-0.169798
C	 0.6236536622	-0.5904996201	-1.2343068025	 0.046564
N	 2.0842856097	-0.5927286112	-1.0090394511	-0.329769
C	 2.2772742178	-1.9359280499	-1.1661014877	 0.42452
O	 3.2414519913	-2.64904772	-1.1437490102	-0.352277
C	 0.7406867316	-2.1394873256	-1.4087935204	-0.293331
C	 0.0670412116	-3.1277227672	-0.4965621609	 0.146055
O	-0.8000625805	-2.8854791928	 0.3038537397	-0.243419
H	 1.0353538397	 1.7761185255	 0.2437794624	 0.110892
H	-0.2684030352	 2.0350716983	-0.9257779634	 0.115485
H	-0.6288662531	 1.9425459461	 0.8026362364	 0.125432
H	 0.0516624482	-0.4796031191	 0.8379899302	 0.117148
H	-1.2599248126	-0.2185795428	-0.2913016189	 0.117638
H	 0.3616023734	-0.1028287341	-2.1824871412	 0.088186
H	 2.7569835469	 0.1569150761	-0.9420294734	 0.256571
H	 0.5845912102	-2.4769537739	-2.4402964662	 0.129669
H	 0.4581438278	-4.1610237276	-0.6273821548	 0.104411
