18
gdb 106254	2.79419	1.24184	1.04366	2.1395	73.44	-0.2338	-0.0238	0.21	1186.5705	0.145881	-439.045784	-439.036761	-439.035817	-439.079913	33.168	
C	-0.1299281508	 1.5234462199	 0.1184253755	-0.325573
N	 0.058990481	 0.0777560051	 0.2190536388	-0.123509
C	 1.3038576854	-0.5740699006	-0.1781769865	-0.237849
C	 2.5087419187	 0.2182978382	 0.2969281591	 0.416741
O	 3.5476491886	 0.5216858391	-0.2142286506	-0.306703
C	 1.9858780805	 0.2752906881	 1.7567598106	-0.42397
C	 0.7949087551	-0.5756476984	 1.2714147903	 0.305303
C	 0.1404470699	-1.6948451671	 2.0288531445	-0.164081
O	-0.6714910056	-1.2093213753	 3.0883993353	-0.411397
H	 0.7336278306	 2.1354905447	 0.407736058	 0.12415
H	-0.3822912543	 1.7609542686	-0.9185427623	 0.138516
H	-0.9790969485	 1.8075392083	 0.7473985438	 0.125944
H	 1.2773466045	-1.3310573309	-0.955184061	 0.112147
H	 2.6711810662	-0.2679645163	 2.4142801662	 0.137664
H	 1.76729457	 1.248819907	 2.2007022739	 0.126649
H	-0.4346895734	-2.3132660264	 1.3256919538	 0.102831
H	 0.901113861	-2.3268699705	 2.4985582601	 0.114949
H	-1.4017244689	-0.7261033135	 2.6870125504	 0.288186
