20
gdb 62040	4.28705	0.71398	0.66848	3.8047	80.64	-0.2628	0.0359	0.2987	1704.3076	0.169322	-403.142567	-403.132669	-403.131725	-403.178568	35.28	
C	 0.1498841237	 1.3084433687	 0.5358504243	-0.389382
C	-0.0671798536	-0.1060858192	-0.0329678105	-0.150243
C	-1.5424760006	-0.5392354331	 0.0255346949	-0.058187
O	-1.9127336603	-0.5718980724	 1.3881737924	-0.254323
C	-3.2425197408	-0.9464259578	 1.5899103703	 0.144118
C	-3.8923767036	-0.4407395512	 2.8343812855	-0.287104
C	-4.3251570518	 0.0968766851	 1.4836510387	-0.287513
C	 0.4169366488	-0.2038848846	-1.4123230368	 0.256481
N	 0.7874301257	-0.2734218865	-2.5048466976	-0.319828
H	 1.210510851	 1.56978131	 0.5380524923	 0.135376
H	-0.3848958264	 2.0515405492	-0.0629993989	 0.13276
H	-0.2291209252	 1.3428875787	 1.5583936308	 0.143876
H	 0.5038638094	-0.8232586215	 0.5694816888	 0.137697
H	-2.1682780814	 0.1697891539	-0.5369040204	 0.109685
H	-1.6622421785	-1.5308386687	-0.4360223675	 0.109815
H	-3.4725252245	-1.9586790725	 1.2558738892	 0.090163
H	-4.5572756571	-1.1037078556	 3.3758464264	 0.119486
H	-3.295310063	 0.2150340671	 3.4575129311	 0.127204
H	-4.0127639514	 1.1050738067	 1.2351875405	 0.121222
H	-5.2919415304	-0.1921771565	 1.0869751666	 0.118701
