17
gdb 61717	3.98167	0.80545	0.74514	1.2651	80.57	-0.2525	-0.0223	0.2302	1515.1691	0.133495	-418.000773	-417.990871	-417.989927	-418.036659	34.645	
C	 1.4508999509	-1.2295237028	-0.6851515747	-0.465356
C	 0.0242291681	-0.7667564959	-0.5686661619	 0.391927
N	-0.555141327	-0.7959093827	 0.7132769922	-0.323141
C	-0.0372209699	-1.2042179105	 1.9171487261	 0.160671
O	 1.0703143267	-1.6448634637	 2.1199266124	-0.306355
N	-0.7590142188	-0.3360952493	-1.4772294163	-0.281713
C	-0.3005093607	-0.2559987747	-2.8641705672	-0.319873
C	 0.5947896994	 0.8737612562	-3.1157651104	 0.328672
C	 1.3326339011	 1.8029337057	-3.3071057422	-0.466865
H	 2.0932756477	-0.6326064436	-0.0336942181	 0.165441
H	 1.5488449249	-2.2612312324	-0.3396727974	 0.159101
H	 1.8058949851	-1.1411425044	-1.7104527345	 0.135588
H	-1.5078724651	-0.4555369945	 0.7102609703	 0.258306
H	-0.7890692854	-1.0775919406	 2.7204377697	 0.091371
H	 0.1877865141	-1.1853325682	-3.193420555	 0.130974
H	-1.1927034315	-0.1453957081	-3.4905901451	 0.140467
H	 1.9808850303	 2.6257378496	-3.4814583779	 0.200787
