14
gdb 129427	2.84598	1.54634	1.00888	3.6075	68.17	-0.2176	-0.0413	0.1763	1080.373	0.103302	-466.219849	-466.211911	-466.210966	-466.252325	29.895	
N	-0.0401861934	 1.3873381068	-0.0377570674	-0.555699
C	 0.0369891917	 0.0096577939	-0.1034308548	 0.332839
O	 1.1006806237	-0.576511163	-0.2599705778	-0.37782
C	-1.2157430469	-0.7284857967	-0.0271286364	 0.198511
C	-1.3888721148	-2.1036477497	 0.0885947794	 0.315002
N	-0.4300277299	-3.0625597583	 0.2306784625	-0.592734
N	-2.7245133336	-2.3794300047	 0.1013213931	-0.263621
N	-3.3893928355	-1.2566780637	-0.0099208333	-0.100599
N	-2.5073406998	-0.2627850333	-0.0701910967	-0.292104
H	 0.8583833194	 1.8421103854	 0.0425888585	 0.265162
H	-0.7724172096	 1.8034766936	 0.5173628972	 0.252626
H	 0.4875021541	-2.7798144974	-0.0843358005	 0.277039
H	-0.7182439977	-4.0009722686	 0.0022644477	 0.26214
H	-2.8394365178	 0.6692051856	-0.2597689815	 0.279258
