23
gdb 115293	2.70702	1.19655	0.87639	1.0852	90.57	-0.2212	0.0326	0.2538	1407.8924	0.204256	-388.309635	-388.299241	-388.298297	-388.34516	37.754	
C	-0.2121479591	 1.4416866664	 0.0654340103	-0.237498
O	 0.0731862248	 0.0700161558	-0.0756246399	-0.249387
C	 0.7559676901	-0.522898626	 1.0284261025	 0.057179
C	 0.1711116209	-1.9168425576	 1.3224310931	-0.242366
C	 1.379127931	-2.7812508821	 1.7333531709	-0.298179
C	 2.5644451706	-2.0366998874	 1.151082819	 0.211584
C	 3.9107193276	-2.6902504616	 1.1136133618	-0.494973
C	 2.2262300255	-0.8018117036	 0.7562708728	 0.226977
C	 3.0905808345	 0.2601156714	 0.1521837321	-0.509437
H	 0.6952390789	 2.0615400659	 0.1211463858	 0.101885
H	-0.7827723283	 1.7442842233	-0.817058621	 0.122974
H	-0.8195751014	 1.644301904	 0.9615434064	 0.103115
H	 0.6535172291	 0.1474342606	 1.899007094	 0.060431
H	-0.6291837061	-1.8962969201	 2.0663968719	 0.091649
H	-0.2559197185	-2.2834334891	 0.3842098612	 0.117199
H	 1.4720218484	-2.8566367946	 2.8267110144	 0.099784
H	 1.3119294879	-3.8125597916	 1.3648421644	 0.097017
H	 4.2397444798	-2.9697601957	 2.1232389828	 0.12333
H	 3.8762435729	-3.6208950895	 0.5323837213	 0.124282
H	 4.6804665257	-2.0490865453	 0.6776748109	 0.121332
H	 4.1066786984	-0.0893261196	-0.0460779109	 0.118322
H	 2.6606847878	 0.6075246447	-0.7941483855	 0.136861
H	 3.1627091594	 1.1378755219	 0.8088064317	 0.11792
