17
gdb 91685	3.3308	1.30306	1.15035	5.5769	72.36	-0.246	0.0174	0.2634	1080.8374	0.138086	-417.9744	-417.966919	-417.965975	-418.006242	29.291	
O	-0.1588262715	 1.4039157403	-0.001230866	-0.43562
C	-0.0385888208	-0.0066128362	 0.0100212294	 0.097113
C	 0.4201276275	-0.6087407425	 1.3887131449	-0.215576
N	-0.778711953	-1.3792842436	 1.8327128033	-0.121989
C	-1.1290974363	-2.0589542373	 0.5145851544	-0.20931
C	-1.4344367958	-0.6396912452	-0.0159571963	-0.035957
C	-1.8642006644	-0.3690611051	 1.4610412017	-0.126149
C	-3.2012818143	-0.8127324194	 1.8288628895	 0.296458
N	-4.2759173431	-1.1340002222	 2.1074405405	-0.329858
H	 0.7226687005	 1.7876044038	 0.0349565225	 0.290105
H	 0.5754754261	-0.3539846661	-0.8315581752	 0.078252
H	 1.2731617457	-1.2868012604	 1.3112108694	 0.114554
H	 0.6537523342	 0.181963074	 2.1065807116	 0.114842
H	-0.3121270062	-2.6288065242	 0.0640798482	 0.109711
H	-2.0108992585	-2.6890741946	 0.6350735751	 0.144071
H	-2.07295282	-0.423208564	-0.8714525829	 0.094916
H	-1.6933817002	 0.6392849127	 1.8435234899	 0.134436
