23
gdb 120310	2.67254	1.05133	0.93009	0.7181	87.2	-0.2417	0.0855	0.3272	1425.5515	0.204967	-388.253607	-388.243827	-388.242883	-388.28864	36.34	
C	-0.466612766	 1.2453810888	-0.5411515694	-0.222227
O	-0.6633645888	-0.145952466	-0.5784742408	-0.232611
C	-0.9615766178	-0.6910876761	 0.6946842943	-0.088713
C	-1.0939008931	-2.1849418904	 0.5531875883	-0.070331
C	-1.9449715931	-3.0736486566	 1.4281829045	-0.132419
C	-3.2704908149	-2.4029204787	 1.8079424863	-0.225843
C	-3.5828974403	-2.19691968	 0.2914196716	-0.289922
C	-2.2635884044	-2.901839704	-0.0686499289	 0.366156
C	-2.1071680955	-3.8565805532	-1.217333645	-0.497673
H	-0.2446075086	 1.5741955306	-1.5596696981	 0.123941
H	-1.363087827	 1.7790483237	-0.1848264727	 0.099395
H	 0.3755378241	 1.5249201884	 0.1128844265	 0.100042
H	-0.1546771175	-0.449268912	 1.4085823232	 0.081108
H	-1.881074652	-0.2346488906	 1.0926850609	 0.085095
H	-0.1496016673	-2.6563573713	 0.2861830715	 0.085191
H	-1.5117014081	-3.925727385	 1.9407980776	 0.077696
H	-3.9675690312	-3.1025869219	 2.2746778722	 0.100278
H	-3.213732867	-1.5094931189	 2.438427435	 0.093791
H	-4.4583673024	-2.7677151341	-0.0283337237	 0.097805
H	-3.6954177463	-1.1685112744	-0.0661819883	 0.0991
H	-2.1224943727	-3.3247752305	-2.1764952182	 0.124971
H	-1.156564279	-4.3971053458	-1.1574930797	 0.115002
H	-2.914677321	-4.5981259818	-1.2352111869	 0.110168
