19
gdb 91774	2.4001	1.87586	1.61434	1.5862	68.6	-0.2639	0.0753	0.3392	933.7954	0.162865	-460.174713	-460.167598	-460.166654	-460.205909	29.318	
O	 0.1087546552	 1.3844679893	 0.2640704419	-0.446892
C	 0.0066045404	-0.0102414137	 0.0663381957	 0.113675
C	-1.4492323372	-0.5501956517	-0.0435739181	-0.27284
C	-1.45127126	-1.2895205496	-1.4006650993	 0.07958
C	-1.8127061385	-0.4002983847	-2.5950323116	-0.218227
C	-0.8993578138	 0.8332906665	-2.5941028653	-0.090897
O	 0.4688412072	 0.5125058351	-2.2840416834	-0.288044
C	 0.6231406875	-0.4786488186	-1.2789835106	 0.146259
O	-0.0657176574	-1.6574394402	-1.5850930075	-0.248909
H	 0.5101327039	 1.7442131837	-0.5372938197	 0.294839
H	 0.5281369906	-0.5145634266	 0.8874312552	 0.086904
H	-1.6737076289	-1.2449624393	 0.7682573685	 0.109129
H	-2.1659734732	 0.2727336313	 0.0039072834	 0.114984
H	-2.0346983739	-2.2119063506	-1.3940517912	 0.082041
H	-1.6659669898	-0.9851085602	-3.5080410224	 0.11554
H	-2.8597683922	-0.0797609114	-2.5588441583	 0.102447
H	-0.8743855717	 1.3125380295	-3.5759106762	 0.11618
H	-1.2707288253	 1.5678743885	-1.8678232452	 0.108479
H	 1.6923725972	-0.6928887875	-1.2433191859	 0.095751
