22
gdb 58806	3.41423	1.02804	0.96635	2.2418	82.21	-0.2468	0.0695	0.3163	1356.7554	0.193201	-404.312764	-404.303031	-404.302087	-404.347138	36.912	
C	 0.1190675267	 1.4554077123	-0.2060127833	-0.41721
C	 0.0378608743	-0.0332144656	 0.1362020538	 0.021739
O	 0.7256862431	-0.3325488533	 1.3499425373	-0.427947
C	-1.3874730763	-0.5235119057	 0.183558381	 0.368598
C	-2.4092338256	-0.2608057762	 1.3068863828	-0.342584
C	-2.987695133	-1.7026878008	 1.0727367253	 0.028306
C	-4.4712820973	-1.8705334293	 0.7695011923	-0.406957
C	-1.9703545463	-1.8841044386	-0.0701012371	-0.117768
N	-2.0638362288	-0.8244155522	-1.072799386	-0.369949
H	 1.1621460543	 1.781809477	-0.2394751522	 0.122323
H	-0.3446969749	 1.6526013974	-1.1768303842	 0.132398
H	-0.4055460125	 2.0585903359	 0.5465157527	 0.104618
H	 0.5561632518	-0.6079241405	-0.6391177201	 0.097006
H	 0.4437849316	 0.3085752096	 2.0108555225	 0.27705
H	-1.9609178115	-0.1542696679	 2.2978855026	 0.098544
H	-3.0922537885	 0.5793636135	 1.1368905407	 0.090549
H	-2.7091893903	-2.3433833067	 1.9153175601	 0.083242
H	-4.7845768675	-1.2618267508	-0.0864857647	 0.107904
H	-4.710638172	-2.9142611125	 0.5386857303	 0.120081
H	-5.0840319257	-1.5674068738	 1.6253821502	 0.117494
H	-1.4844012483	-2.8099981489	-0.3591973518	 0.091433
H	-2.9926389333	-0.4120425228	-1.1404927726	 0.221133
