24
gdb 100781	3.13794	0.89559	0.74278	1.5617	85.66	-0.2453	0.0718	0.3171	1610.1314	0.215838	-405.524308	-405.513376	-405.512432	-405.560794	39.992	
C	 0.0687395296	 1.5566722608	-0.2435079252	-0.393547
C	-0.0170016821	 0.0501577483	 0.0199514961	-0.173748
C	-1.4493665081	-0.5158734156	 0.0361096503	 0.020214
C	-2.1016274194	-0.483989843	-1.3539471713	-0.402168
C	-1.4630275336	-1.9412015075	 0.6300140987	 0.091523
O	-0.8460226678	-1.9843706399	 1.9202586328	-0.431303
C	-2.8562273298	-2.54061285	 0.6943128754	-0.01009
C	-3.253333958	-3.6556681913	-0.2036515131	-0.238749
N	-3.0218151578	-3.899662383	 1.2266414095	-0.320407
H	 1.1066913406	 1.9007003895	-0.1952797108	 0.11342
H	-0.3190410272	 1.8298337418	-1.2299710814	 0.115338
H	-0.5008367079	 2.1213720177	 0.5037429805	 0.110722
H	 0.56677109	-0.4896353186	-0.7390533548	 0.087693
H	 0.448498701	-0.1779162987	 0.9831300947	 0.112745
H	-2.0531064061	 0.1118133085	 0.7127714741	 0.058007
H	-3.1357123332	-0.8373726313	-1.3295278873	 0.120683
H	-2.1095630283	 0.5299567199	-1.7627785321	 0.11747
H	-1.5491045691	-1.1192194375	-2.0568411975	 0.112921
H	-0.8264416314	-2.5891072542	 0.0113309991	 0.078064
H	-1.4324193356	-1.5372151868	 2.5412854931	 0.280231
H	-3.6314049187	-1.8496679742	 1.0292590978	 0.084895
H	-4.2858899063	-3.7571956824	-0.526395545	 0.117714
H	-2.5196005482	-4.0099349212	-0.9237070492	 0.111258
H	-2.1017551027	-4.3086966314	 1.3770293255	 0.237114
