19
gdb 99150	2.57818	1.23231	1.00967	0.6401	71.56	-0.2354	0.0029	0.2382	1238.9922	0.157777	-460.171403	-460.161745	-460.160801	-460.206756	34.563	
C	 0.099214488	 0.0333656324	-0.9581273446	-0.24657
O	-0.5335791624	-1.0416757542	-0.2451141815	-0.236293
C	-1.5508660223	-0.6766565358	 0.5871577485	 0.42111
O	-1.8956988189	 0.466786135	 0.718167322	-0.339141
C	-2.1410331015	-1.8795547834	 1.2915636372	-0.33759
C	-3.0006145301	-2.8042423284	 0.4203292419	-0.066611
C	-3.1153519286	-2.6775026418	-1.094886606	-0.34354
C	-2.3421187518	-3.8154416969	-0.4887060377	 0.15185
O	-0.9542253966	-3.9047921661	-0.5748724778	-0.434689
H	 0.874867372	-0.4296717167	-1.5675795784	 0.138915
H	-0.62542132	 0.5555617702	-1.5868912135	 0.14658
H	 0.536164961	 0.7466129636	-0.2559680187	 0.148597
H	-1.31680314	-2.458925651	 1.7253901454	 0.136319
H	-2.7460635719	-1.4812138564	 2.1067698919	 0.135164
H	-3.9023576707	-3.1329217692	 0.9273151521	 0.096624
H	-4.0805595932	-2.8731878822	-1.5494547229	 0.11379
H	-2.5461229936	-1.898745589	-1.5907800298	 0.117169
H	-2.7746920431	-4.8096285669	-0.5341597743	 0.102708
H	-0.5898882366	-3.0110018435	-0.6228296539	 0.295608
