22
gdb 89471	2.31327	1.51601	1.3935	2.2306	82.4	-0.2036	0.0737	0.2773	1115.8344	0.19208	-404.310049	-404.30047	-404.299525	-404.343744	36.455	
C	-0.1464998408	 1.5563125871	 0.031832493	-0.330131
N	 0.0195207425	 0.1257451678	 0.1326039704	-0.105033
C	-1.1832880685	-0.6995103603	 0.3716278087	-0.220595
C	-0.4024302458	-1.5424734894	 1.4030750894	 0.396244
C	-1.0810027202	-2.0352127238	 2.6534107984	-0.475918
O	 0.4232746611	-2.5550658942	 0.7795375083	-0.340384
C	 1.5835434895	-1.6873256419	 0.7616635568	-0.096737
C	 0.7504946127	-0.4957895743	 1.2750632618	 0.23557
C	 1.2936089319	 0.386441143	 2.3733140595	-0.507781
H	 0.8286215942	 2.0489205938	-0.0374029741	 0.119093
H	-0.6957684779	 1.788327261	-0.8874751083	 0.123159
H	-0.7030295275	 2.0140860306	 0.8722478132	 0.086346
H	-2.0107369873	-0.1376106678	 0.8368933225	 0.079724
H	-1.56004221	-1.2336697522	-0.507430625	 0.10425
H	-1.7935483921	-2.8297950685	 2.4032727275	 0.131643
H	-0.3519279768	-2.4498445901	 3.3557439261	 0.122874
H	-1.6311995722	-1.2301981704	 3.1503603395	 0.116173
H	 2.3563064367	-2.0493744652	 1.4544975783	 0.085889
H	 2.0027435157	-1.5669467564	-0.2422529113	 0.101011
H	 2.1119159058	 1.0166236341	 2.0055455202	 0.126686
H	 0.5252069482	 1.0463111321	 2.7876125426	 0.123772
H	 1.690885091	-0.223560815	 3.1903194224	 0.124144
