12
gdb 9978	2.66258	1.57711	1.04022	3.7015	59.58	-0.3042	-0.075	0.2293	1032.7939	0.08217	-377.549596	-377.541524	-377.540579	-377.583211	26.71	
O	-0.406631338	 0.6394749826	-0.7186791814	-0.215096
C	 0.1946328251	 0.9948634021	 0.2545212793	 0.158003
C	 1.3575635633	 2.0090821064	 0.1936765728	-0.247559
C	 1.4205785442	 2.6970322654	-1.1898701141	-0.347745
C	 2.6775107574	 3.4055224926	-1.405642233	 0.269344
N	 3.6809408702	 3.9526422515	-1.5717259504	-0.28602
C	 1.2442730413	 2.9499579684	 1.3066065446	 0.276166
N	 1.1083909854	 3.6747860408	 2.1957756846	-0.288627
H	-0.0225186987	 0.6078263723	 1.2694604051	 0.134729
H	 2.2738054158	 1.4202302902	 0.3499348583	 0.179705
H	 1.291804379	 1.9265956483	-1.9551321518	 0.185878
H	 0.583265535	 3.3928199895	-1.297241754	 0.181222
