22
gdb 103977	2.50306	1.48094	1.15633	1.5993	82.05	-0.226	0.0728	0.2988	1177.5072	0.192734	-404.29446	-404.284919	-404.283975	-404.328214	36.437	
C	-0.0782604138	 1.407728122	 0.0732570449	-0.253988
O	-0.1553297634	 0.0034521389	-0.0617528467	-0.288024
C	 0.5775828372	-0.5466843948	-1.1439686103	 0.414589
C	 0.0808020276	-0.0403086838	-2.4982216531	-0.45088
C	 2.1335118655	-0.5759432208	-1.0401893688	-0.238269
N	 2.1611559776	-2.0754975578	-1.1808377509	-0.154225
C	 1.4515244883	-2.6408571145	-0.0130389184	 0.016375
C	 1.5706171316	-2.1442558257	 1.4107154949	-0.427619
C	 0.6288778202	-2.0711809228	-1.1016040635	-0.105521
H	 0.9624699661	 1.7648790225	 0.0784555842	 0.107068
H	-0.6218534066	 1.9382648294	-0.7203065985	 0.112116
H	-0.5367424672	 1.6583691403	 1.0330217633	 0.128222
H	 0.2898469511	 1.0247940312	-2.6358949137	 0.116928
H	 0.5761679266	-0.5833284086	-3.3077428177	 0.133323
H	-0.9994625696	-0.1966011725	-2.5848973264	 0.122779
H	 2.6474784514	-0.1144118538	-1.8858720203	 0.105666
H	 2.5680678128	-0.2010152613	-0.1094998373	 0.103262
H	 1.5102212449	-3.7272681405	-0.0781596666	 0.094319
H	 1.3105540234	-1.0930581799	 1.5184184052	 0.139655
H	 0.8859088234	-2.7153719149	 2.0462080048	 0.121518
H	 2.5867607266	-2.308797234	 1.7871343664	 0.117537
H	 0.0280855164	-2.6981955685	-1.7552603116	 0.085167
