17
gdb 52054	2.85346	0.8972	0.73866	2.8183	75.81	-0.2528	-0.0239	0.2288	1496.6835	0.131895	-421.775126	-421.765545	-421.764601	-421.810879	33.721	
O	-0.1961124566	 0.0369422627	 0.1290354139	-0.233354
C	-0.1019443974	 1.2036620533	-0.1501806881	 0.155194
C	 1.1663667538	 2.0197918984	-0.0568360132	-0.269804
C	 1.5158013261	 2.6829841816	-1.4014635327	-0.29861
C	 2.6911460046	 3.6385205668	-1.2777481794	 0.208324
C	 2.6771525816	 4.9303424297	-1.9953851323	-0.213834
O	 2.3852532848	 4.8746356046	-0.6024869798	-0.261903
C	 3.9614440462	 3.0414407527	-0.9332112494	 0.316344
C	 5.0024538663	 2.5091977403	-0.6549445872	-0.438132
H	-0.9882480136	 1.7775952493	-0.5131668165	 0.070624
H	 0.9989556433	 2.8146948317	 0.6833950905	 0.137667
H	 1.9777649983	 1.3798463142	 0.2978079344	 0.13558
H	 1.7527949993	 1.91747531	-2.1488537662	 0.126271
H	 0.6546840412	 3.2505039679	-1.7711863915	 0.112886
H	 3.6210139889	 5.4033341009	-2.2587974862	 0.128114
H	 1.8346206997	 5.160639866	-2.646585618	 0.119012
H	 5.9268364234	 2.04942705	-0.4043854585	 0.205619
