21
gdb 38429	3.8618	1.26714	1.16279	0.3034	87.97	-0.2317	0.026	0.2576	1146.1423	0.184744	-349.937388	-349.929842	-349.928898	-349.969276	31.015	
C	 0.2589269803	 1.6108815515	 0.1269991321	-0.292553
C	 1.4857174995	 0.7504634787	 0.0378674796	-0.032316
C	 1.6578241984	-0.0410941297	 1.3384346821	-0.301339
C	 0.2421354282	-0.7125053643	 1.1061633883	 0.346214
C	 0.2795160418	-2.2415568953	 0.8500010686	-0.288088
C	-0.2643407643	-2.9028127165	 2.1401589303	-0.265184
C	-1.038279066	-1.7768854109	 2.784833296	-0.074917
C	-0.7716013072	-0.6015724945	 2.2168941045	-0.12896
C	 0.0980714513	 0.1437355495	-0.165925306	-0.09789
H	-0.0523211282	 2.0302189684	 1.0813194754	 0.102406
H	 0.0848885273	 2.2679439038	-0.7194560745	 0.108065
H	 2.2627089668	 0.9362062554	-0.6934621132	 0.081127
H	 2.464080495	-0.7777596387	 1.3074985136	 0.100526
H	 1.7691764033	 0.5604020397	 2.2472871623	 0.090346
H	-0.3989133267	-2.4714250419	 0.0201103146	 0.100219
H	 1.2714862106	-2.6005654874	 0.5627123377	 0.093825
H	-0.8820683825	-3.7831789852	 1.9294921275	 0.101073
H	 0.5431562135	-3.2477749805	 2.8014992914	 0.104875
H	-1.6991952507	-1.9287972371	 3.6316860724	 0.088967
H	-1.1842167028	 0.3516446502	 2.5296098391	 0.08716
H	-0.3720220676	-0.2029146954	-1.0803168718	 0.076445
