20
gdb 62883	3.16629	1.47127	1.15953	2.0693	79.67	-0.2362	0.0769	0.3131	1107.6221	0.170004	-403.049672	-403.04127	-403.040326	-403.081983	33.428	
C	-0.0173214179	 1.5693441493	 0.0214475498	-0.463236
C	-0.0634860593	 0.0427930317	-0.0075456681	 0.384938
C	-1.4654406181	-0.4357818363	-0.3766860611	-0.476172
C	 1.1742274685	-0.6807099126	-0.6522397595	-0.193019
N	 1.9972762204	-0.1593639608	 0.5250104386	-0.335623
C	 0.7084913184	-0.7006998924	 1.1423613978	-0.193016
C	 0.8467657087	-1.912934216	 0.2068999679	 0.540498
C	 0.3390707332	-3.2698377016	 0.0600386004	-0.314655
O	 1.7149036448	-3.0021732599	 0.4200698444	-0.305719
H	 0.9736465225	 1.9366363894	 0.2828339853	 0.147724
H	-0.2981192271	 1.9738529418	-0.9578336376	 0.107969
H	-0.7412024688	 1.9548394201	 0.7486728365	 0.107967
H	-1.7529997433	-0.0390021269	-1.3567940663	 0.119009
H	-1.5631501376	-1.5215927009	-0.4144563256	 0.120151
H	-2.1953107049	-0.0585054411	 0.3483593238	 0.119011
H	 1.5381791801	-0.6279171688	-1.6795317298	 0.081464
H	 2.7522600796	-0.824305926	 0.7135377976	 0.228289
H	 0.526721986	-0.6713263748	 2.2178493345	 0.081464
H	-0.2641404929	-3.7190508869	 0.848135308	 0.121479
H	 0.1976015276	-3.6992470274	-0.9310957067	 0.121478
