20
gdb 87592	3.29993	1.29257	1.18911	1.6147	85.38	-0.2204	0.0148	0.2352	1143.6221	0.172247	-365.987064	-365.979129	-365.978185	-366.019212	31.967	
C	-0.0760430904	 1.5264253113	-0.1420134779	-0.397108
C	 0.0011747106	 0.028281676	 0.032120406	-0.048152
N	 1.3273652927	-0.592381579	-0.1117008242	-0.394205
C	 0.6389844474	-0.6462991788	 1.2019162818	 0.329787
C	 1.2759252683	 0.0375201716	 2.3660940771	-0.145497
C	 1.2333294554	-0.7286443416	 3.4612979622	-0.091305
C	 0.5156582876	-2.0137032851	 3.2127934682	-0.090204
C	-0.9490716075	-1.8761869174	 2.8381463969	-0.284608
C	 0.098124944	-1.9493976823	 1.7539849189	-0.131842
H	 0.8170908434	 2.0133851203	 0.2562924016	 0.126457
H	-0.1502552894	 1.7859560684	-1.2038330938	 0.118488
H	-0.9546406883	 1.9364600099	 0.3677016147	 0.115366
H	-0.8440825878	-0.5146047173	-0.3918350473	 0.078432
H	 1.253929488	-1.4972877613	-0.57229705	 0.224429
H	 1.6988759012	 1.0314372561	 2.3005761673	 0.099688
H	 1.6311982393	-0.4577340288	 4.4324124464	 0.097144
H	 0.8521795166	-2.9299568546	 3.6850861874	 0.088408
H	-1.5832344351	-2.7479241455	 2.9653040835	 0.108109
H	-1.4350218285	-0.9260614919	 3.0344432946	 0.114546
H	 0.1211821823	-2.8290535798	 1.1190108068	 0.082068
