23
gdb 116356	2.17387	1.4361	0.93045	1.0706	89.17	-0.2329	0.0272	0.2601	1347.5816	0.205879	-388.312288	-388.302733	-388.301789	-388.346537	36.322	
C	 0.0781236576	 1.5691341268	 0.0570008114	-0.383063
C	 0.0401305055	 0.0390485395	 0.0259486815	-0.187161
C	 0.6748803285	-0.5484340547	-1.2423782831	 0.053583
O	 2.00314319	-0.0463107377	-1.2871352512	-0.26263
C	 2.8242306551	-0.6772203298	-2.2507869213	-0.077024
C	 3.0420845138	-2.1444733883	-1.8872178648	-0.256395
C	 1.7134096924	-2.7777614724	-1.5766039784	-0.162499
C	 0.6173160803	-2.0667542883	-1.3019791786	 0.30157
C	-0.7253924153	-2.7147459406	-1.0902322098	-0.484167
H	 1.1062454019	 1.9328209146	 0.0023161137	 0.136573
H	-0.4735583004	 1.9937093227	-0.7896380158	 0.108181
H	-0.376432119	 1.9512396094	 0.976202274	 0.10588
H	 0.5708724407	-0.3707678215	 0.8937870576	 0.102426
H	-0.9972767072	-0.3044889005	 0.0923504135	 0.096201
H	 0.1132378153	-0.1561359497	-2.115180451	 0.063438
H	 2.367357611	-0.6049715286	-3.2519048553	 0.08633
H	 3.7638087081	-0.1171272322	-2.2670950399	 0.101449
H	 3.5307338137	-2.6684555224	-2.7188201033	 0.098822
H	 3.7243264103	-2.2232344186	-1.0293997709	 0.111839
H	 1.6517343676	-3.863708133	-1.6080947629	 0.076647
H	-0.6784697871	-3.7861962811	-1.3021655546	 0.119628
H	-1.0872690583	-2.5906205978	-0.0628891167	 0.1292
H	-1.4881959944	-2.2745921859	-1.7457731942	 0.121173
