20
gdb 56273	4.49503	0.71189	0.66594	3.0522	76.68	-0.2285	0.0573	0.2858	1706.7443	0.171313	-436.470866	-436.460943	-436.459998	-436.507187	35.643	
N	 0.1567796034	 1.0604133215	 0.1431290662	-0.564049
C	-0.2987220721	-0.2447321539	 0.3105260865	 0.445516
O	-0.1814681196	-0.8533897582	 1.3592635024	-0.39329
N	-0.8633838695	-0.7931530307	-0.8171665386	-0.335384
C	-1.2064003285	-2.209149886	-0.8389504842	-0.159126
C	-2.589251425	-2.4752798906	-0.2363728255	-0.130692
N	-2.8719728105	-3.9050465854	-0.2592070973	-0.069202
C	-2.4123402613	-4.6581243911	 0.9079889141	-0.223427
C	-3.8591952216	-4.3756075247	 0.7064645818	-0.220651
H	 0.3499767134	 1.5099722018	 1.0255275085	 0.259702
H	-0.3449217077	 1.6473186565	-0.5070581723	 0.245028
H	-0.6869274328	-0.3422938912	-1.6992830277	 0.241812
H	-1.1842828603	-2.5572585794	-1.874948351	 0.107233
H	-0.4558102578	-2.7719555118	-0.2746769575	 0.131189
H	-2.6137668224	-2.0542340886	 0.7824026723	 0.105831
H	-3.3551529069	-1.9605987866	-0.8288431271	 0.093795
H	-2.0108005841	-5.646575646	 0.7042152625	 0.11402
H	-1.9008399146	-4.1084765569	 1.696374038	 0.128435
H	-4.3176239593	-3.6397310813	 1.3653134996	 0.109638
H	-4.5311338326	-5.1534179377	 0.3547522993	 0.113622
