15
gdb 11161	5.88786	1.29322	1.1057	2.6137	68.76	-0.2627	0.0205	0.2832	1025.9506	0.119403	-362.650288	-362.642959	-362.642015	-362.682023	27.392	
N	-0.0266632295	 1.2886555862	-0.1260884657	-0.538621
C	-0.0174617367	 0.0287368322	-0.0852275284	 0.407014
C	-1.235650307	-0.8682968332	-0.0573629312	-0.30119
C	-0.6674196298	-2.2302936604	-0.5130311639	-0.203773
C	 0.779090454	-2.1310846792	 0.0262851408	-0.090748
O	 1.1160084483	-0.7429348119	-0.0648691777	-0.23508
C	-1.388925324	-3.4021357556	-0.0487567547	 0.302918
C	-1.9759349058	-4.3715730994	 0.351032247	-0.431467
H	 0.9269006508	 1.6553242363	-0.1179008416	 0.223931
H	-1.6163043147	-0.9380805901	 0.9672444836	 0.142686
H	-2.0341652458	-0.4804798471	-0.6886817246	 0.14719
H	-0.6219913416	-2.2408006122	-1.6090005313	 0.121626
H	 0.8289990628	-2.4586937732	 1.0714133119	 0.122759
H	 1.501546533	-2.6995079906	-0.562195814	 0.130604
H	-2.4990506642	-5.2286060816	 0.6971112898	 0.20215
