19
gdb 108139	3.48285	1.33144	1.27539	1.9363	74.59	-0.2129	0.076	0.2889	1087.8976	0.159592	-422.983982	-422.976215	-422.975271	-423.016378	30.263	
C	-0.0234643197	 1.513484836	-0.1692377869	-0.375492
C	-0.0577523412	 0.0103196196	 0.1402275283	-0.305992
C	-1.4365783073	-0.5559217006	 0.035575555	 0.466393
O	-2.4407661698	-0.0552186054	 0.9314309058	-0.339329
C	-3.186686324	-1.3020250732	 0.7713535882	 0.05704
C	-4.2336450977	-1.0458874938	-0.302056602	-0.075815
O	-3.4611611027	-0.6955389759	-1.4586631563	-0.266291
C	-2.1337970514	-1.094848438	-1.2085970714	 0.035883
C	-2.0101323043	-1.9583380035	 0.0152991317	-0.286863
H	 0.9880613925	 1.9125909783	-0.0513617389	 0.110516
H	-0.3525871158	 1.7111621593	-1.1941211822	 0.122802
H	-0.6878302514	 2.0593016992	 0.5062884686	 0.139237
H	 0.5950164235	-0.5379763324	-0.5499577273	 0.102918
H	 0.3260857046	-0.1730734753	 1.15167366	 0.108825
H	-3.535260029	-1.7099681089	 1.7206418931	 0.088314
H	-4.8484931781	-1.9378259164	-0.4997922362	 0.092501
H	-4.8840282454	-0.2045381688	-0.0454344222	 0.119708
H	-1.5604865324	-1.2896103626	-2.1073304077	 0.106801
H	-1.5950727804	-2.9521145374	 0.1165656605	 0.098843
