19
gdb 51579	2.39327	1.16162	0.85291	3.9048	77.08	-0.2605	0.0045	0.265	1362.7591	0.157963	-423.014788	-423.005758	-423.004814	-423.049815	32.677	
O	 0.3301424959	 0.160428349	-0.4457163532	-0.274204
C	 0.4278401877	 1.3479681222	-0.5165159388	 0.176688
O	 0.9701482877	 2.0908334588	 0.4741622235	-0.18805
C	 0.9970068813	 3.4900928429	 0.2595903484	 0.09267
C	 2.0933923644	 4.2284621684	 0.9590456176	-0.333299
C	 2.1242376324	 4.0884095223	-0.5500926663	-0.040156
C	 3.1410060975	 3.215493209	-1.2137611167	 0.014267
C	 3.1267050806	 3.0368617486	-2.7148104149	-0.273968
C	 4.2298915586	 3.8288556236	-2.0587016676	-0.277705
H	 0.09104734	 1.9594989635	-1.3744322822	 0.083574
H	 0.0074501283	 3.9356923193	 0.2095276472	 0.108634
H	 1.8665095482	 5.1898886897	 1.405119389	 0.121486
H	 2.7925117976	 3.6188541159	 1.5212993273	 0.136433
H	 1.8550372097	 4.9750433522	-1.1198498336	 0.089395
H	 3.4244332626	 2.3418107109	-0.6353575169	 0.101722
H	 3.359483206	 2.0579895593	-3.1184950789	 0.121465
H	 2.3818974584	 3.5853655111	-3.2826162439	 0.110765
H	 4.2244701594	 4.9063805228	-2.186399482	 0.112975
H	 5.2218730838	 3.3937781404	-2.0116699781	 0.117309
