13
gdb 42251	3.13458	1.1025	0.97028	6.9153	71.96	-0.2781	-0.0817	0.1964	1195.3547	0.087371	-415.554906	-415.546373	-415.545428	-415.589184	29.884	
O	 0.2973968213	 0.3557723495	 1.2128082643	-0.273977
C	 0.2250786804	 1.3485038087	 0.5281012929	 0.289326
C	 1.3671430498	 1.912711703	-0.1654422911	 0.239818
C	 2.3015053604	 2.3921384203	-0.7539399142	-0.402134
C	-1.0599618821	 2.120331529	 0.3477964173	-0.150202
N	-2.2995624694	 1.370875565	 0.5491223512	-0.286517
C	-1.9556558794	 2.3940373944	 1.5330892706	-0.191957
C	-1.6301839633	 1.9580692943	 2.8711316599	 0.3594
N	-1.3981320084	 1.6858124769	 3.9696374737	-0.324966
H	 3.1410212773	 2.801077931	-1.2628213195	 0.223393
H	-1.0310553583	 2.9053424792	-0.403568511	 0.117673
H	-3.0286173917	 1.7119853832	-0.072028019	 0.256638
H	-2.4830923568	 3.3448044255	 1.5097847549	 0.143507
