13
gdb 80237	2.35536	1.85991	1.35982	2.6245	58.65	-0.2685	-0.0593	0.2092	919.4303	0.08909	-493.711384	-493.704433	-493.703489	-493.742833	26.597	
O	 0.1332634194	 1.4292303584	-0.0915062989	-0.432002
C	 0.0397115272	 0.0514737115	-0.0230413805	 0.175401
C	 0.1035047913	-0.6528413092	 1.3650474724	-0.100375
O	-0.9967767077	-0.0025175978	 2.0636665697	-0.254809
C	-2.0255187712	-0.0117750712	 1.1262454257	 0.443383
O	-3.1104784146	 0.4271245572	 1.3381632493	-0.32535
C	-1.3905847296	-0.6641238368	-0.0888907478	-0.370401
C	-0.6403437943	-1.8088974314	 0.6549001037	 0.449259
O	-0.5811990153	-2.9917907599	 0.5889626171	-0.281136
H	-0.3052394015	 1.8136731411	 0.6789951983	 0.307827
H	 0.7304031718	-0.3726539997	-0.753986323	 0.133179
H	 0.9779869358	-0.7278986764	 2.0039933446	 0.126042
H	-1.9954600213	-0.7830214057	-0.9804290108	 0.128982
