19
gdb 91523	2.56976	1.50301	1.17763	3.305	76.78	-0.2235	0.0214	0.2449	1108.9798	0.159554	-419.200175	-419.191444	-419.1905	-419.233304	33.502	
C	-0.0643225727	 1.5849030911	 0.1917637535	-0.34074
N	 0.0683808454	 0.1371047111	 0.1161407315	-0.152212
C	 1.0212084552	-0.4401918665	-0.8802453128	-0.183546
C	 1.7203394101	-1.229118803	 0.2294777026	-0.11768
C	 2.2368782834	-0.2954439679	 1.2817441894	-0.332025
C	 0.7538429123	-0.5557906617	 1.2126295141	 0.269355
C	 0.0074017862	-1.2023945204	 2.3327891074	 0.32336
N	-1.3461417075	-1.0729692253	 2.2164722462	-0.543679
O	 0.5663308942	-1.7796159992	 3.2484457748	-0.379558
H	 0.8950141266	 2.1177802661	 0.298806692	 0.103333
H	-0.5572197363	 1.9523150501	-0.7140973337	 0.121447
H	-0.693789343	 1.8423775342	 1.0492525294	 0.129529
H	 0.507513194	-1.0502207676	-1.6292934694	 0.113112
H	 1.6488119085	 0.30167928	-1.3920430158	 0.100872
H	 1.9794555437	-2.2784768687	 0.1957267766	 0.11167
H	 2.7122687315	-0.7721044152	 2.1314117405	 0.149335
H	 2.6335292379	 0.6785587904	 1.0080267498	 0.108719
H	-1.7161219631	-0.7784343982	 1.3257624628	 0.261535
H	-1.9248924965	-1.6038756794	 2.8465603912	 0.257174
