18
gdb 72822	2.65273	1.56116	1.29887	5.0376	70.99	-0.2368	0.0059	0.2427	1038.0064	0.149259	-439.103648	-439.095789	-439.094844	-439.136035	30.071	
C	-0.1389918753	 1.5537689166	-0.03505265	-0.491716
C	-0.005006019	 0.0421132898	 0.0021455436	 0.294407
C	-1.2393666103	-0.8092610134	 0.4021441795	-0.220211
N	-0.340128231	-1.6867507581	 1.1869662778	-0.315813
C	 0.7201413588	-0.6460724332	 1.18217487	-0.183416
C	 2.0460304266	-1.1608707337	 0.6414894269	 0.469472
O	 2.9887698908	-1.5874181922	 1.2420136269	-0.346715
O	 2.023976998	-1.0622737895	-0.7158299298	-0.225259
C	 0.7777193695	-0.5388319383	-1.2050851357	-0.123743
H	 0.8417535127	 2.0328277917	-0.1309848277	 0.130928
H	-0.7477734869	 1.8724238419	-0.8891759743	 0.125531
H	-0.6131629691	 1.9352379681	 0.8743223491	 0.122223
H	-1.9492500267	-0.2286206441	 1.0071658175	 0.096517
H	-1.7905821154	-1.318338827	-0.3969869963	 0.106216
H	-0.668592045	-1.9708707005	 2.1017897519	 0.231209
H	 0.8492337743	-0.0762021313	 2.1072986731	 0.089769
H	 0.2341420073	-1.35222409	-1.6959589655	 0.122921
H	 1.0179873706	 0.2246826734	-1.9502055069	 0.117679
