17
gdb 19231	3.01618	2.00854	1.54324	4.2009	71.41	-0.2792	0.0285	0.3078	876.0263	0.142923	-326.71705	-326.709565	-326.708621	-326.748696	28.322	
C	-0.1634708549	 1.5864764147	-0.0866251394	-0.412589
C	 0.0394562774	 0.0791964838	-0.0576203317	 0.005633
C	 0.7163818618	-0.6187770464	-1.2469761477	-0.051379
C	 2.1635959466	-0.2316868879	-1.3659287899	-0.287708
C	 1.7689156421	-1.2448591415	-0.3323053749	-0.049416
C	 1.1462084402	-0.5515547388	 0.8937617985	-0.188851
C	 2.0005616641	 0.3584081173	 1.6452373358	 0.287748
N	 2.6736787521	 1.1002059691	 2.2237432729	-0.342712
H	 0.765485761	 2.1215715999	-0.3005272016	 0.133799
H	-0.8927601116	 1.8535097771	-0.8587497598	 0.119175
H	-0.540474094	 1.9509989502	 0.8742620901	 0.128484
H	-0.9087577439	-0.4136910745	 0.1744180726	 0.088818
H	 0.1826522527	-1.0797700814	-2.0689813328	 0.093318
H	 2.676891879	-0.6413338301	-2.2295784343	 0.121219
H	 2.5179092998	 0.751501013	-1.0689669769	 0.130382
H	 2.1641197705	-2.2522215496	-0.3178491139	 0.101189
H	 0.6960508771	-1.2629315149	 1.5896792728	 0.122889
