20
gdb 78307	3.0552	1.44217	1.21636	1.8579	78.91	-0.2253	0.0711	0.2964	1101.823	0.171981	-403.095171	-403.087411	-403.086467	-403.126787	32.126	
C	 0.113194693	 1.5479670824	-0.0716017643	-0.420517
C	-0.0425016865	 0.0460189638	-0.0686432958	 0.010164
C	 0.5979154748	-0.7721372208	-1.1308736217	-0.067365
N	 1.1962083	-0.7000966916	 0.2332044719	-0.128366
C	 1.0376967053	-2.1410236203	 0.6248099816	 0.005085
C	-0.3402414589	-2.6445598627	 0.1050332879	-0.318591
C	 0.3091206214	-2.2735691263	-1.2579692814	 0.386872
O	-0.1943387762	-2.6385566411	-2.4998698861	-0.48289
C	 1.6519135291	-2.8232299172	-0.6314046375	-0.272064
H	 1.0744264958	 1.8377689814	-0.5042555598	 0.126913
H	-0.6872282404	 2.0180130567	-0.6529971253	 0.117062
H	 0.0702031888	 1.9429741135	 0.9488087968	 0.121089
H	-0.9749777799	-0.2993643538	 0.365355616	 0.08375
H	 1.1343237002	-0.2995498239	-1.9505648741	 0.092029
H	 1.3860074358	-2.3477339116	 1.6345504873	 0.077951
H	-0.4252299552	-3.7272315311	 0.2246964544	 0.091044
H	-1.2711993191	-2.1741449242	 0.4204902218	 0.102732
H	-0.2832640606	-3.5964910429	-2.5233646534	 0.281994
H	 2.5938289139	-2.4136479933	-1.0019207758	 0.106234
H	 1.6873911088	-3.9142142572	-0.5685252626	 0.086874
