21
gdb 48840	2.71351	1.33544	1.10715	3.0869	83.15	-0.2448	-0.0126	0.2322	1183.0979	0.184507	-387.115436	-387.107253	-387.106309	-387.148111	32.278	
O	-0.1266508907	 0.0433613975	 0.2607544981	-0.275401
C	 0.0083941904	 1.1946557129	-0.0759639265	 0.110022
C	 1.2725401586	 1.9653215518	 0.0021276558	 0.242518
C	 1.0966554198	 3.4632081241	 0.2109887896	-0.32992
C	 1.4780403782	 2.9715096	-1.1463171252	-0.05857
C	 2.8826869789	 3.1962301211	-1.7102357511	-0.224845
C	 3.9026656058	 2.130280916	-1.2789220663	-0.185081
C	 3.8187426268	 1.8517095937	 0.2247314906	-0.219316
C	 2.4643294494	 1.2271026114	 0.588194619	-0.271309
H	-0.8512615749	 1.7746868865	-0.4910533331	 0.06034
H	 0.0905471752	 3.8389752532	 0.3694943141	 0.117107
H	 1.8562625315	 3.9571480646	 0.8082416493	 0.122648
H	 0.6804448982	 2.9877265705	-1.8839457915	 0.092406
H	 2.8257194717	 3.2283149028	-2.8027484751	 0.103654
H	 3.2409791546	 4.1844590354	-1.3954564088	 0.104558
H	 3.7126255539	 1.196214514	-1.823910242	 0.100496
H	 4.9098729386	 2.4575010433	-1.5580648695	 0.094341
H	 4.618822549	 1.1715857039	 0.5349224826	 0.099669
H	 3.9783569765	 2.785268158	 0.7812971967	 0.093206
H	 2.3518638558	 1.152388302	 1.6760095386	 0.103679
H	 2.4283807027	 0.1982699773	 0.2123888345	 0.119801
