15
gdb 13773	3.72627	1.45788	1.19441	2.4605	61.73	-0.2859	-0.0097	0.2763	987.1119	0.117079	-399.780591	-399.772271	-399.771327	-399.814074	29.551	
C	 0.5612201246	 0.3593306083	-0.6149386977	-0.434476
C	 0.1442568302	-0.0658909369	 0.7900723485	 0.086999
O	-0.0074701497	 1.0582510036	 1.6536407931	-0.422773
C	-1.1358311369	-0.8900763573	 0.8683944935	 0.042855
O	-2.1264042844	-0.7444851624	-0.1532709113	-0.228603
C	-1.5290390531	-2.0310157875	 0.0113410708	-0.100931
C	-0.716992757	-2.5439910776	-1.0707341803	 0.308532
N	-0.0864910711	-3.0087627804	-1.9208694948	-0.328246
H	 1.4227310291	 1.0264559565	-0.5352506958	 0.130264
H	 0.8388509516	-0.4927537376	-1.2383589286	 0.155724
H	-0.2554223651	 0.8892716527	-1.1151350011	 0.129301
H	 0.9415657566	-0.6603775575	 1.2530644967	 0.110563
H	-0.599368862	 1.6834970128	 1.219515306	 0.287109
H	-1.5477223333	-0.9071971688	 1.8786007687	 0.119382
H	-2.1844558395	-2.7870416378	 0.4423479323	 0.1443
