14
gdb 130336	3.30944	1.6288	1.09819	10.7867	74.48	-0.1734	-0.0194	0.154	1010.6322	0.10295	-432.779522	-432.772089	-432.771144	-432.812288	27.194	
N	 0.0137486934	 0.9803665488	-0.0347817955	-0.501591
H	 0.2865419886	-0.0105286055	 0.0384059231	 0.321448
H	 0.8709783908	 1.5005189777	-0.2560926907	 0.328368
H	-0.613690997	 1.0667465882	-0.8372250041	 0.324165
C	-0.6489955913	 1.5040138498	 1.1605907452	-0.088898
C	-2.0179534742	 1.7973862517	 1.2775015699	-0.157114
C	-2.3004759436	 2.201954177	 2.6069351879	-0.330104
C	-1.0764755237	 2.128445292	 3.2837721148	 0.356593
C	-0.0544396706	 1.6945537385	 2.425254418	 0.218103
N	 1.1014454223	 1.6457067797	 3.1368998183	-0.272904
N	 0.8960138348	 2.0027209853	 4.3345761171	-0.081495
O	-0.5322363441	 2.3386063997	 4.4884853541	-0.268043
H	-2.7470785915	 1.7326816953	 0.477368729	 0.066299
H	-3.261246804	 2.5099745417	 2.9867002528	 0.085174
