18
gdb 99802	2.4157	0.99285	0.87249	3.4075	82.33	-0.2682	0.0018	0.27	1456.6534	0.143247	-401.920632	-401.909588	-401.908644	-401.959531	37.347	
C	-0.0773732656	 1.3984321483	-0.0525810761	-0.256953
O	 0.0370393996	-0.0168011324	-0.0090649882	-0.25869
C	 0.7090978722	-0.565390333	 1.1180990195	 0.024697
C	 2.1876002309	-0.1201934292	 1.2034433342	-0.417422
C	 0.0103723469	-0.1564811598	 2.373284488	 0.273251
N	-0.5225652195	 0.1956335062	 3.3361501727	-0.347987
C	 0.626539196	-2.0235894949	 0.990898745	 0.046395
C	 0.5956705762	-3.2219705085	 0.8988093364	 0.147478
C	 0.5404537451	-4.6708220837	 0.7829484698	-0.503729
H	 0.8902292623	 1.8902524817	-0.2135428424	 0.116468
H	-0.7269093195	 1.6165965718	-0.9022475832	 0.140322
H	-0.5371681539	 1.7986315022	 0.8601552049	 0.137277
H	 2.265138724	 0.9558136294	 1.3721360848	 0.135419
H	 2.6844555404	-0.6368935275	 2.0267653354	 0.147158
H	 2.6804414834	-0.3821318456	 0.2647029608	 0.141986
H	 1.0478919239	-5.1509363132	 1.6263581638	 0.157604
H	-0.4953138272	-5.0255876247	 0.7687231742	 0.160218
H	 1.0259187748	-5.0114103972	-0.1376979696	 0.156507
