16
gdb 44295	3.63883	1.86244	1.59038	3.9783	70.	-0.2333	-0.0088	0.2245	846.3194	0.126781	-400.70891	-400.702976	-400.702032	-400.739112	25.	
O	-0.0045612223	-0.0232624905	 0.146356976	-0.308106
C	-0.0614002155	 1.1673135107	 0.0353481429	 0.394488
C	-1.325651343	 2.04807824	 0.0530780789	-0.352717
C	-0.7303209602	 3.4338353553	 0.2698118969	-0.042496
C	 0.1130611205	 3.5942783797	 1.5487099348	-0.097127
C	 1.339545994	 4.046356887	 0.7760149202	-0.110622
C	 1.3132037081	 2.649510466	 1.3002736196	-0.042298
N	 1.1053770382	 2.0321161625	-0.0434735514	-0.154159
C	 0.6471511141	 3.4065018857	-0.4648203762	-0.036764
H	-1.8509979493	 1.9735739476	-0.9072609822	 0.130173
H	-2.0071526249	 1.6953908564	 0.8311405697	 0.134737
H	-1.3627085324	 4.2912688783	 0.0404067458	 0.082298
H	-0.2052903682	 3.8721543547	 2.5447280912	 0.096124
H	 2.044872819	 4.8523565865	 0.9064262072	 0.107292
H	 1.882823442	 2.1678417156	 2.0828993292	 0.113256
H	 0.7678834699	 3.6629127044	-1.5151886325	 0.085921
