13
gdb 25143	3.76199	1.22836	0.926	2.1413	78.02	-0.2454	-0.0684	0.177	1155.7501	0.090699	-415.643542	-415.636312	-415.635368	-415.675373	27.334	
O	-0.0595157175	-0.0854326453	 0.004265434	-0.38085
C	 0.010946832	 1.1272605425	 0.0089330544	 0.433467
N	-1.1665982662	 1.916220203	 0.0293943994	-0.334589
C	-1.1654787791	 3.27062905	 0.0358942759	 0.1008
N	-0.1010365485	 4.0058118314	 0.024393582	-0.325376
C	 1.1031155547	 3.3203970451	 0.0041003808	 0.167577
C	 1.1971947168	 1.9545999477	-0.0037664421	-0.293432
C	 2.2788329794	 4.1302178557	-0.0085124948	 0.237435
C	 3.278262797	 4.7996796591	-0.0193128645	-0.355963
H	-2.0366813117	 1.3998952461	 0.0392323873	 0.271523
H	-2.142810284	 3.747253101	 0.0519946474	 0.143344
H	 2.1555189904	 1.4532821442	-0.019631978	 0.131237
H	 4.1570256466	 5.3965035994	-0.0287506817	 0.204826
