16
gdb 36335	5.20448	0.78665	0.71997	4.5083	74.19	-0.2671	-0.0014	0.2657	1482.0741	0.125202	-396.930956	-396.922422	-396.921478	-396.9651	30.424	
N	-0.3479112396	-0.9448145982	 0.7649959371	-0.295647
C	-0.2517275388	 0.1759072545	 0.5000603291	 0.258421
C	-0.0798185364	 1.58941707	 0.1728499355	-0.362071
C	 1.3047154912	 1.8698976209	-0.4507262899	 0.050902
C	 1.6884438931	 3.3734128983	-0.440777527	-0.271255
C	 2.5931431502	 3.0243156969	 0.7813410979	-0.113234
N	 2.468340885	 1.6001800141	 0.4150112223	-0.301486
C	 3.9589323285	 3.5509215858	 0.7871627923	 0.295138
N	 5.0286764387	 3.9875768503	 0.7934965179	-0.314424
H	-0.8676907567	 1.8947601119	-0.5256154062	 0.160908
H	-0.2167504534	 2.1774393922	 1.0883424927	 0.15189
H	 1.3655267664	 1.360531174	-1.4173082563	 0.110032
H	 2.2650501993	 3.673518948	-1.3147437066	 0.146525
H	 0.8902123885	 4.0932948241	-0.258600143	 0.124816
H	 2.1209287635	 3.3029671377	 1.7335031309	 0.117662
H	 2.3547085005	 0.9305607996	 1.1684951033	 0.241823
