8
gdb 21754	5.4915	2.37128	1.65614	1.3054	49.01	-0.3119	-0.1328	0.1791	644.9344	0.036614	-445.451882	-445.446612	-445.445668	-445.481324	18.857	
O	-0.0795172125	 1.2145407454	 0.009310263	-0.133914
N	 1.1853912658	 1.8464446389	 0.0005533143	-0.209739
C	 2.0108250655	 0.8297812788	-0.0125250675	 0.477215
O	 3.2909231844	 0.6141865625	-0.0257004435	-0.296916
N	 3.2950522612	-1.0701300188	-0.0347043646	 0.043363
N	 2.1430838837	-1.4302366003	-0.0259195423	-0.092839
C	 1.2554272717	-0.3720068693	-0.0117786519	 0.360086
N	-0.0237390599	-0.1401046172	 0.0016362825	-0.147256
