23
gdb 100699	2.99834	0.77042	0.64557	1.2867	91.75	-0.2387	0.0585	0.2972	1834.3969	0.201836	-388.275192	-388.263105	-388.262161	-388.314144	41.861	
C	 0.1259178539	 1.5829630832	 0.1534124386	-0.382727
C	-0.000776632	 0.0624824206	 0.0235005139	-0.19454
C	 0.6906209107	-0.4842160173	-1.2341743589	 0.154591
O	 2.0511548308	-0.0728383589	-1.2847377399	-0.423647
C	 0.5739190361	-2.0273239259	-1.3745933896	-0.20431
C	-0.8877900896	-2.5191748141	-1.4456766355	-0.395629
C	 1.3238376608	-2.499778728	-2.5391585301	 0.081001
C	 1.904635465	-2.9005283473	-3.5148587691	 0.074425
C	 2.6235164474	-3.3726505166	-4.6898700327	-0.499032
H	 1.1756840421	 1.8849807134	 0.1448612141	 0.128797
H	-0.370873987	 2.0900299517	-0.6812238261	 0.114204
H	-0.3327971693	 1.9386466223	 1.0809019884	 0.106916
H	 0.438771337	-0.4262436062	 0.9061699076	 0.082623
H	-1.0595469626	-0.2172658244	 0.0132239449	 0.100824
H	 0.2345334773	-0.0289913873	-2.1226792678	 0.091474
H	 2.5251824451	-0.5343036288	-0.5836159572	 0.275489
H	 1.0295571407	-2.4622999568	-0.4697132733	 0.085403
H	-1.4173782166	-2.0334224167	-2.2714694515	 0.124523
H	-0.9122770704	-3.5971690514	-1.6221493694	 0.126306
H	-1.4271077796	-2.3140538321	-0.5177340046	 0.116701
H	 3.1997116548	-4.2782426288	-4.4689151651	 0.143601
H	 1.9372146887	-3.6111961916	-5.5101996707	 0.144006
H	 3.3256757869	-2.615374779	-5.0561031658	 0.149
