15
gdb 125736	3.10875	1.41382	0.97822	7.5216	73.22	-0.2388	-0.0602	0.1787	1138.2668	0.112287	-453.965865	-453.957763	-453.956819	-453.998251	30.889	
C	-0.016783785	 1.5141872667	 0.0386936753	-0.497756
C	-0.0045453623	 0.0105317005	 0.0328853265	 0.331146
N	-0.0671199323	-0.5467545609	-1.1297339755	-0.112899
O	-0.0532713878	-1.9149588233	-1.2135013724	-0.270675
C	 0.0239327823	-2.7671811884	-0.0936701559	 0.445094
O	 0.024350864	-3.9493291523	-0.3141992092	-0.348789
C	 0.0868737451	-2.1088572966	 1.1812336298	-0.35928
C	 0.0790002711	-0.7516264537	 1.2735932221	 0.307054
N	 0.194112996	-0.0662303309	 2.452920986	-0.585279
H	 0.8809955506	 1.9155412784	 0.5222100066	 0.144376
H	-0.0556019256	 1.8761973882	-0.9889962507	 0.164282
H	-0.8908366838	 1.9067129913	 0.5737337124	 0.134077
H	 0.1436172349	-2.7501426451	 2.052861068	 0.115061
H	 0.0732098331	-0.5837285525	 3.3090178626	 0.267952
H	-0.1136281404	 0.8907520085	 2.4886577246	 0.265636
