20
gdb 40709	4.1458	1.01406	0.98095	0.9578	78.98	-0.223	0.0717	0.2946	1293.8785	0.171238	-403.081589	-403.073204	-403.072259	-403.115463	32.137	
C	 1.2724151642	 0.6624151912	 0.2457980806	-0.234501
N	 0.5929253402	 0.0416505791	-0.90465961	-0.317959
C	-0.1657161274	 0.3161204663	 0.3257973542	-0.025721
C	-0.6997258834	-0.8832796896	 1.0683069491	 0.148611
C	 0.2069213877	-2.1173551765	 1.2578354266	-0.39183
C	 0.0801018503	-1.7917115037	 2.7407361943	 0.472879
C	-0.1348047185	-2.6904908281	 3.9116980155	-0.334918
C	 1.1020548592	-1.8008067673	 3.8281727395	-0.331597
O	-0.7546563613	-0.6546938294	 2.5045171564	-0.325276
H	 2.0198324067	 0.0405812336	 0.7290565893	 0.122334
H	 1.5321577964	 1.7164556815	 0.1962078505	 0.11314
H	 0.386212159	 0.7394127188	-1.6136783171	 0.234592
H	-0.8571837808	 1.1577759501	 0.3151677732	 0.088932
H	-1.6996907187	-1.1276614694	 0.6872500897	 0.076758
H	-0.2400522419	-3.0623646915	 0.9450376039	 0.111554
H	 1.2065536935	-2.037095412	 0.8292147878	 0.123679
H	-0.9055382338	-2.402788271	 4.6187938245	 0.12294
H	-0.0170656455	-3.7610305032	 3.7757641242	 0.11229
H	 2.0649906908	-2.2635705034	 3.63545503	 0.111671
H	 1.1349006034	-0.9344227756	 4.4802001877	 0.122421
