14
gdb 67209	2.95701	1.52414	1.22862	4.1857	65.25	-0.255	0.0248	0.2798	985.5089	0.100817	-436.613628	-436.606536	-436.605592	-436.645221	27.429	
O	-0.0580851939	 1.4842314402	-0.1738617932	-0.436767
C	 0.0433604256	 0.1341774321	-0.0634097086	 0.327644
C	 0.0946038092	-1.0358661966	-0.9907434928	-0.033756
O	 1.1875595337	-1.6826916119	-0.346335242	-0.269653
C	 0.9002542467	-0.8935256859	 0.8237949158	-0.021523
C	-0.4521049572	-1.5081485364	 1.3320324527	-0.167235
C	-0.9435227292	-0.9032883776	 2.5586902404	 0.275955
N	-1.317956374	-0.4304370126	 3.5450700356	-0.326118
C	-1.052456831	-0.898544467	 0.0599217766	-0.146744
H	 0.7239843417	 1.8228749226	-0.6263993114	 0.302557
H	-0.0678480592	-1.1774748049	-2.0503806971	 0.129307
H	 1.7469239378	-0.7319184472	 1.4858897517	 0.115632
H	-0.4415626822	-2.5986692254	 1.4199369747	 0.128889
H	-2.093574388	-0.8191347395	-0.2217477123	 0.121811
