12
gdb 1229	7.47355	1.52448	1.31547	6.769	48.68	-0.2663	-0.0015	0.2649	843.4793	0.088725	-397.697891	-397.690381	-397.689437	-397.730237	25.122	
N	-0.0035386201	 1.121696053	 0.0406436115	-0.517533
C	-0.2785369138	-0.2063587884	 0.1441432707	 0.403542
O	 0.4790878787	-1.0190143661	 0.6297702978	-0.336
C	-1.6820784811	-0.611445649	-0.3337188665	-0.203297
O	-1.6951950656	-1.9493505102	-0.7884529479	-0.165402
C	-1.6368180399	-2.9207905774	 0.158790847	 0.192138
O	-1.5617114034	-4.0746435526	-0.1285179468	-0.273286
H	 0.9044343578	 1.4425347294	 0.3370862092	 0.272518
H	-0.5808328576	 1.7504971738	-0.4901545061	 0.266017
H	-2.381155092	-0.4640647084	 0.5018359111	 0.140114
H	-2.0258186531	 0.001694772	-1.1703329759	 0.132891
H	-1.7006353298	-2.524658486	 1.1868417859	 0.088299
