19
gdb 117854	4.13484	0.77086	0.71884	1.4598	80.65	-0.2333	0.0442	0.2775	1633.3312	0.157007	-419.184212	-419.173844	-419.1729	-419.220132	37.206	
C	-0.0175340482	 1.6275330472	-0.5622976492	-0.392171
C	-0.2044711241	 0.1494691929	-0.2745030188	-0.025846
O	 0.8419330728	-0.5552358352	-0.9588759787	-0.264064
C	 0.8337642755	-1.8997492288	-0.8588969391	 0.475525
N	 1.8177167304	-2.4434154611	-1.659267857	-0.567332
N	-0.0280527842	-2.5082592863	-0.1415732515	-0.343378
C	-0.0179055365	-3.9661687561	-0.155460406	-0.308793
C	 1.1972466469	-4.584747761	 0.3925945619	 0.302526
C	 2.21625394	-5.0645510064	 0.8171866802	-0.470378
H	 0.9558357921	 1.9760986307	-0.2050049903	 0.125309
H	-0.0818054008	 1.8287619482	-1.6355568295	 0.126039
H	-0.7968347172	 2.2048501141	-0.0560070263	 0.120336
H	-0.1441208095	-0.0714280985	 0.7957824006	 0.119653
H	-1.1735746256	-0.2187373583	-0.6259692853	 0.117001
H	 2.5048407449	-1.7750225082	-1.9749725603	 0.254968
H	 2.2141410918	-3.3078787607	-1.3162797399	 0.265257
H	-0.8754469422	-4.311377124	 0.4327148395	 0.136981
H	-0.168917542	-4.3549189673	-1.176137591	 0.129629
H	 3.0972398861	-5.4998528011	 1.2201258809	 0.198734
