14
gdb 31897	3.7642	1.09958	0.85789	7.2268	77.81	-0.2171	-0.0437	0.1735	1266.3033	0.101835	-432.900075	-432.891855	-432.890911	-432.933518	28.885	
C	 0.0329195924	 1.4860649864	-0.1899944625	-0.3368
N	 0.2055058008	 0.0534078161	 0.0153647124	-0.403767
C	 0.6325121742	-0.7584211392	-0.9889573251	 0.417685
C	 0.6202647394	-2.1192191312	-1.1986238118	-0.212927
N	 1.2653877615	-2.3886386291	-2.3794603032	-0.276198
C	 1.6358860848	-1.2343786953	-2.8418746807	 0.269132
O	 1.2726960458	-0.1778652073	-2.0282478785	-0.195747
C	 2.3310739366	-0.930485492	-4.0306220802	 0.250663
N	 2.9014978906	-0.6705985413	-5.0052259778	-0.337422
H	 0.9701143616	 1.9223362315	-0.5409856719	 0.162436
H	-0.7536675128	 1.7236038232	-0.9187877353	 0.135664
H	-0.2213041031	 1.9426935699	 0.7679547717	 0.139957
H	-0.4425768745	-0.3852686219	 0.6500874051	 0.262143
H	 0.1969650727	-2.8946999498	-0.5821019421	 0.12518
