19
gdb 57729	2.99265	0.87731	0.81143	2.8499	73.59	-0.2648	-0.0362	0.2286	1460.6451	0.154917	-460.199216	-460.188678	-460.187734	-460.235989	36.187	
C	-0.1587359421	 1.562215802	 0.399514264	-0.43324
C	 0.0119159555	 0.0525231307	 0.1297147628	 0.129826
C	 0.8337082999	-0.5958017089	 1.2633138895	-0.427023
C	-1.3450515675	-0.6425640129	-0.0360393144	-0.092787
O	-2.1020645909	-0.5220125832	 1.1751101273	-0.191959
C	-3.3633319787	-0.055110792	 1.1016479251	 0.170547
O	-4.0631458835	 0.064779805	 2.0608620672	-0.272918
C	 0.7942878223	-0.1013848914	-1.1661282214	 0.150846
O	 0.3881346643	-0.6434364028	-2.1621756282	-0.256617
H	 0.8137848548	 2.0624223895	 0.4456188186	 0.126269
H	-0.7508638644	 2.0459080278	-0.3844133783	 0.125793
H	-0.6617824337	 1.7170543522	 1.3573736107	 0.148451
H	 0.3090100628	-0.4799637399	 2.2146264859	 0.151466
H	 0.9850904023	-1.6652280045	 1.084742233	 0.128354
H	 1.8166268682	-0.1224894712	 1.3529211433	 0.12223
H	-1.8980786575	-0.2090783931	-0.8767902153	 0.12257
H	-1.2063717384	-1.7076871744	-0.2416240446	 0.131216
H	-3.6654198181	 0.2002317007	 0.0670606631	 0.081375
H	 1.8154494847	 0.3447045666	-1.1289205684	 0.085603
