15
gdb 131937	2.67763	1.61689	1.01438	6.0634	72.67	-0.2368	-0.0606	0.1763	1094.6582	0.113514	-453.91222	-453.904402	-453.903458	-453.944867	28.888	
C	-0.0338081646	 1.5498311435	-0.0017885002	-0.490662
C	-0.0117254607	 0.0541204799	 0.0269090771	 0.178885
C	-0.0254642986	-0.7842880593	-1.0608843061	-0.131423
N	 0.003798456	-2.092862342	-0.6199352616	-0.252101
C	 0.0363967669	-2.1321502872	 0.7335837568	-0.106928
C	 0.0276477838	-0.8188662114	 1.1615138464	 0.248838
N	 0.0551618622	-0.4514228796	 2.5436902702	 0.34654
O	 0.0873158759	-1.3573027715	 3.3753870046	-0.386267
O	 0.0449895438	 0.7471478862	 2.8191254201	-0.385157
H	 0.8484641331	 1.9708829785	 0.4882565165	 0.145134
H	-0.0655484164	 1.9094163522	-1.0341576021	 0.112099
H	-0.9011701307	 1.9458942689	 0.533524317	 0.145218
H	-0.0537896863	-0.5547974183	-2.1139177302	 0.135111
H	 0.0012763176	-2.9023596367	-1.2166185134	 0.276218
H	 0.062950428	-3.0457120632	 1.3010231448	 0.164495
