19
gdb 12366	2.96931	2.07841	1.53373	2.041	71.28	-0.2444	0.0249	0.2693	902.0435	0.166709	-365.084522	-365.076594	-365.07565	-365.116463	30.028	
C	-0.099909544	 1.6048252655	-0.0839488918	-0.39412
C	 0.01210425	 0.0754426069	-0.0106945416	-0.030915
C	 0.7468108572	-0.4908961688	-1.2265878807	-0.078523
O	 2.1357903827	-0.1197712357	-1.2254649194	-0.227316
C	 2.7258192984	-0.0838798795	-0.0062362918	 0.124777
N	 2.2131096932	-0.2335332762	 1.1388092554	-0.277408
C	 0.7626235629	-0.4470675893	 1.2378340293	 0.059923
C	 0.2695889038	 0.1350417129	 2.5634414367	-0.396515
H	 0.8815113151	 2.0854048103	-0.0359232943	 0.134391
H	-0.5743155825	 1.908828886	-1.0229391154	 0.110693
H	-0.7055229835	 1.9987982237	 0.7358319996	 0.121387
H	-0.9999034177	-0.3492619698	-0.0140895757	 0.076253
H	 0.6850596983	-1.586510515	-1.2425541819	 0.108781
H	 0.3425364051	-0.1089364298	-2.167720339	 0.113308
H	 3.7904369705	 0.1150064267	-0.1205546214	 0.122065
H	 0.6019191791	-1.5343989517	 1.2824161167	 0.083325
H	 0.4721455107	 1.2077031471	 2.6257181663	 0.122384
H	-0.8070334242	-0.0244184574	 2.6874534359	 0.103107
H	 0.792591475	-0.347377216	 3.3931300632	 0.124403
