17
gdb 109479	2.1906	1.60067	0.96563	1.5631	68.74	-0.2615	-0.0487	0.2128	1188.8207	0.134972	-459.028776	-459.020127	-459.019183	-459.062936	31.086	
C	-0.2268755601	 1.6147220821	 0.0802620137	-0.397531
C	-0.0277068409	 0.1037875933	-0.0588587036	-0.182279
C	 0.8045101091	-0.5103619062	 1.0799345138	-0.293694
C	 0.7647154191	-2.0285531776	 1.1495628044	 0.373178
O	-0.1856361262	-2.7468143256	 0.9978168412	-0.296496
C	 2.1933047715	-2.4916195031	 1.4332899648	-0.192605
O	 3.0200100929	-1.3344690571	 1.3035388569	-0.219385
C	 2.2967757215	-0.2013902244	 1.0475628964	 0.446482
O	 2.835157533	 0.8450142409	 0.8377603501	-0.321948
H	 0.7333225962	 2.1342143931	 0.1048024118	 0.155507
H	-0.8113552283	 2.0019972047	-0.7593912151	 0.118073
H	-0.7677873654	 1.8551402128	 1.0024969761	 0.114476
H	-0.9912801457	-0.4166010218	-0.0649268521	 0.127768
H	 0.4575133841	-0.1249334748	-1.014718086	 0.112849
H	 0.4227972943	-0.1376210005	 2.0430316022	 0.147731
H	 2.2785357974	-2.9009676788	 2.4465322643	 0.1519
H	 2.5110699474	-3.2573754669	 0.7190533109	 0.155974
