15
gdb 132962	2.41073	1.92501	1.07746	2.8952	73.11	-0.2122	-0.0426	0.1696	1031.6641	0.113886	-458.13177	-458.124132	-458.123187	-458.164184	28.48	
C	-0.0350674598	 1.4619508797	-0.0174515617	-0.339466
N	-0.0328225155	-0.0001671189	-0.0150942863	-0.185336
C	-1.15677061	-0.7319308223	-0.1202985909	 0.435803
F	-2.2789681166	-0.0423887184	-0.227409108	-0.054008
C	-1.1575403046	-2.0925682863	-0.1183988643	-0.352924
C	 0.1237872411	-2.6895163033	 0.0035983355	 0.031494
N	 1.2478352401	-2.0415197992	 0.1089417389	-0.328924
C	 1.2354874448	-0.6561089008	 0.1057996297	 0.426795
N	 2.2585956089	 0.104130189	 0.2014867713	-0.573812
H	 0.5836854934	 1.8184029507	-0.8434192906	 0.163399
H	-1.0551761729	 1.8249796234	-0.1145313445	 0.142843
H	 0.4178422773	 1.8209764782	 0.9088914743	 0.163395
H	-2.0759396538	-2.6517928821	-0.2044260618	 0.122538
H	 0.1911064431	-3.7771368637	 0.0115175448	 0.122099
H	 3.0836863046	-0.487300036	 0.2803585736	 0.226102
