19
gdb 120612	3.2161	0.89904	0.87944	3.2678	74.96	-0.2426	-0.0231	0.2195	1431.1827	0.155504	-460.148155	-460.138247	-460.137303	-460.18343	35.665	
C	 0.1769522401	 1.2844803687	-0.0448135241	-0.390085
C	 0.4126691847	-0.2128982822	-0.1106450122	-0.054927
O	 0.3332358293	-0.6209101955	-1.4816314566	-0.25858
C	 0.5273544837	-1.9841089754	-1.6562053675	 0.064708
C	 0.781698978	-2.4620772238	-3.040186098	-0.373331
C	 1.9582236313	-2.3793616804	-2.0751453943	 0.287384
O	 2.8860944446	-1.3511113277	-2.2032670338	-0.479765
C	 2.506214213	-3.6271924737	-1.5047686888	 0.105902
O	 1.8783939903	-4.6580175289	-1.4149043206	-0.281178
H	 0.9422618809	 1.826421463	-0.6081742076	 0.127437
H	-0.8010248199	 1.5379863671	-0.4627761711	 0.135717
H	 0.2103803698	 1.6243309769	 0.9942654388	 0.126165
H	 1.3970845562	-0.4804899823	 0.2993881222	 0.108046
H	-0.3471450239	-0.7549744239	 0.4706955601	 0.109076
H	 0.0085057671	-2.6363076025	-0.9558582325	 0.116017
H	 0.4323351133	-3.4559439651	-3.2965052414	 0.145882
H	 0.7773684447	-1.7218219321	-3.8324614702	 0.132525
H	 2.3966405252	-0.5253044118	-2.0822391619	 0.291252
H	 3.5507282718	-3.5313304404	-1.1384636306	 0.087752
