13
gdb 44411	3.88793	1.539	1.49969	3.3455	62.86	-0.2677	-0.0568	0.2109	870.9609	0.088158	-456.424395	-456.418055	-456.417111	-456.454997	25.363	
O	-0.1253705089	 0.0468893185	-0.376410183	-0.291379
C	-0.0600842195	 1.1692891071	-0.026478284	 0.386424
O	-1.1319080121	 2.0519112174	 0.287569205	-0.274499
C	-0.1649978769	 2.895719436	 1.0525192512	 0.100475
C	 0.7791204175	 4.1758030383	 0.9337500655	-0.076992
O	 1.8756898276	 3.1553789055	 1.0923884074	-0.346531
C	 0.9254283252	 2.36507247	 0.2100798245	 0.154402
C	 0.917777828	 3.2435387628	-1.0570332715	-0.115146
C	 0.822594539	 4.4723585879	-0.5523141566	-0.045976
H	-0.1916892763	 2.5522203494	 2.0856644498	 0.131664
H	 0.815634624	 4.9565612627	 1.6913497216	 0.107498
H	 0.9819443943	 2.8803394042	-2.0712194604	 0.135987
H	 0.7856270879	 5.4421018703	-1.0246631594	 0.134072
