15
gdb 12935	2.55965	2.2727	1.76223	4.6818	61.86	-0.2394	0.0107	0.2501	817.4369	0.118197	-399.787266	-399.779639	-399.778695	-399.818898	28.33	
C	-0.0129614473	 1.5837222873	 0.059193544	-0.495159
C	 0.0486347581	 0.0849726315	 0.0440770817	 0.107354
C	-0.858758777	-0.8311038001	 0.8417850108	 0.058553
O	-1.6229118517	-1.789227318	 0.1792591855	-0.411404
C	 0.628848766	-0.9582087325	 1.0192160224	-0.112638
N	 1.2498207139	-1.6631556741	-0.1043092589	-0.341204
C	 0.6778781601	-0.7820468433	-1.0468240776	 0.392371
O	 0.7203312067	-0.7549109655	-2.2416413568	-0.335413
H	 0.9755870108	 2.0234215709	-0.1061558538	 0.134888
H	-0.6751454757	 1.9437516486	-0.7350935163	 0.146008
H	-0.3972927802	 1.9592664031	 1.0123385842	 0.12093
H	-1.3729538272	-0.3131684775	 1.6551661805	 0.09473
H	-1.8424443055	-2.4878377011	 0.80559375	 0.290833
H	 1.1730822616	-0.7996713034	 1.9421369641	 0.110359
H	 1.1709200176	-2.6677508461	-0.2211556198	 0.239794
