17
gdb 27561	3.30588	1.1938	0.88187	0.9385	94.3	-0.2282	-0.0273	0.2009	1289.7632	0.136307	-347.601373	-347.593014	-347.59207	-347.634979	31.55	
C	-0.0180631077	 1.5259187266	 0.0120207346	-0.496069
C	-0.0022121637	 0.0165717883	 0.0065731874	 0.332901
C	-0.0147624082	-0.6957088051	-1.1904535055	-0.298404
C	 0.0193200383	-2.0996275077	-1.2071092434	 0.173059
C	 0.0648692706	-2.7954844933	 0.0096779249	-0.21965
C	 0.0745779184	-2.0913714878	 1.2077334855	-0.08405
C	 0.040595794	-0.7003687673	 1.2079004859	-0.195439
C	 0.0050679543	-2.8050881163	-2.4455336621	 0.227353
C	-0.0063863185	-3.4002336345	-3.4926450468	-0.420026
H	 0.9697729682	 1.9317482227	 0.261129102	 0.135726
H	-0.301769588	 1.9262619988	-0.9647015903	 0.126557
H	-0.7214924862	 1.9142449865	 0.7555262385	 0.129918
H	-0.0526555646	-0.1637115725	-2.1352639078	 0.099331
H	 0.0889710104	-3.8788860766	 0.0025664337	 0.105104
H	 0.1059678781	-2.6313591992	 2.1483584794	 0.098979
H	 0.0456546318	-0.16138652	 2.150833378	 0.093128
H	-0.0165855273	-3.9254013426	-4.4152774439	 0.19158
