20
gdb 14308	3.48132	1.5957	1.56481	1.3177	73.8	-0.2467	0.0723	0.319	952.033	0.178447	-349.003454	-348.99568	-348.994736	-349.035333	30.652	
C	 0.0370457104	 1.5674631927	-0.0002964034	-0.406293
C	 0.064577461	 0.0405500057	 0.0004956182	 0.072854
C	 0.8089674713	-0.5890463073	-1.2049920456	-0.237386
C	 1.2703518869	-1.9655356178	-0.7256139612	-0.080789
C	 2.5428171003	-2.0272190503	 0.0668212893	 0.093062
O	 3.3925830941	-0.9174583222	 0.0198369383	-0.411153
C	 1.2218486655	-1.9666912959	 0.8007580574	-0.10477
C	 0.7348770536	-0.589532889	 1.2485798539	-0.232919
H	 1.0550138988	 1.9734025252	 0.0267980349	 0.116705
H	-0.4533051715	 1.9581081956	-0.8985736166	 0.109645
H	-0.5032303252	 1.9596671611	 0.8683847671	 0.107322
H	-0.9696196198	-0.3293655094	-0.0283598083	 0.067462
H	 0.1611796028	-0.6705464054	-2.0825070085	 0.090153
H	 1.6673094686	 0.0296924807	-1.4877884513	 0.114278
H	 0.9901257837	-2.8424776789	-1.2984255716	 0.081528
H	 3.0622006352	-2.9859398144	 0.0778333895	 0.078229
H	 3.8037811268	-0.8195506523	 0.8851689508	 0.288037
H	 0.9072770405	-2.8441267992	 1.3555106107	 0.078297
H	 1.5728844113	 0.0373821654	 1.5792519884	 0.083382
H	 0.0400160956	-0.6649883641	 2.0899304379	 0.092355
