16
gdb 46273	3.12076	1.56463	1.26734	3.9199	69.18	-0.2389	0.0134	0.2524	996.1315	0.12445	-437.853141	-437.845637	-437.844693	-437.885295	28.575	
O	-0.0231629142	-0.0145367225	-0.0107682139	-0.362864
C	-0.0004579845	 1.1859757865	 0.0184573636	 0.392451
N	-0.9759972353	 2.1519155063	 0.0850084307	-0.341146
C	-0.0734681906	 3.3082805187	 0.1040314177	-0.232217
C	 1.0975929916	 2.2916532852	-0.0301926612	 0.290496
O	 2.1112212459	 2.3073483404	 0.9872621982	-0.32043
C	 3.1340373199	 2.4445312676	-0.0136112565	 0.094867
C	 3.1417045873	 1.2581859424	-0.9200226651	-0.298813
C	 2.1344474132	 2.3740509149	-1.1412780579	-0.204516
H	-1.9824310408	 2.0857580568	 0.1008645894	 0.254969
H	-0.2006966675	 3.9986177737	-0.7363231434	 0.114003
H	-0.0570269693	 3.8584011034	 1.0491472465	 0.12716
H	 3.9656770681	 3.1035574753	 0.2024486201	 0.110127
H	 3.9446187309	 1.2310712094	-1.6504113173	 0.117563
H	 2.8084042193	 0.2953716376	-0.5467231021	 0.151288
H	 2.043532686	 2.9381763343	-2.0589943888	 0.107062
