23
gdb 107059	3.74323	1.06884	0.95108	1.7168	85.3	-0.2497	0.089	0.3387	1366.2183	0.205771	-388.306749	-388.297374	-388.29643	-388.340757	35.962	
C	-0.0051181278	 1.4588396338	-0.4570405779	-0.379761
C	-0.0144673083	 0.0650391806	 0.184982334	-0.27778
C	-1.400089738	-0.5203321277	 0.3005709346	 0.431848
C	-2.441591685	 0.0772760388	 1.2393724517	-0.288567
C	-3.6043752729	-0.9407264003	 1.215900768	-0.227002
C	-2.9626110391	-2.3180124986	 0.9020717936	 0.006466
C	-3.8998441968	-3.2882220171	 0.1803427725	-0.401686
C	-1.724507463	-1.9397045335	 0.1075171288	-0.026739
O	-1.9866627415	-0.9849972373	-0.9361776482	-0.310853
H	 1.0174923393	 1.8325425105	-0.5636054435	 0.111515
H	-0.4609004965	 1.4244830733	-1.4510703336	 0.133703
H	-0.5628257097	 2.1835245608	 0.1448642806	 0.116776
H	 0.601433827	-0.6164183219	-0.411801678	 0.103723
H	 0.4360611713	 0.1103542716	 1.1850537969	 0.096214
H	-2.0016454595	 0.1596742664	 2.2415567	 0.097734
H	-2.7589939938	 1.0810668656	 0.9402761576	 0.105339
H	-4.1729680435	-0.9520271183	 2.1494034729	 0.093702
H	-4.2992885256	-0.68149383	 0.4128922002	 0.113905
H	-2.6153792603	-2.7820811219	 1.8368274281	 0.069469
H	-4.1999221658	-2.8755699095	-0.7882490717	 0.129687
H	-3.4165175193	-4.2547090423	 0.001795012	 0.10952
H	-4.8059694019	-3.4723666701	 0.7668749006	 0.111938
H	-0.9672361093	-2.6857338829	-0.1284609793	 0.080849
