18
gdb 19787	3.03837	2.51358	1.80254	1.8283	69.59	-0.2537	0.0803	0.334	799.6055	0.155371	-347.783132	-347.776419	-347.775475	-347.813621	27.178	
C	 0.0136116069	 1.5717366411	 0.0581552215	-0.391332
C	 0.029980533	 0.0403552255	-0.009642361	-0.023154
C	 0.7169916771	-0.5528056492	-1.252208866	-0.055619
C	 2.1929274915	-0.3513368867	-1.4874237295	-0.286735
C	 1.7096369155	-1.6148965392	-0.8148907384	-0.067154
C	 1.7094955275	-1.6008017234	 0.6982110182	 0.028033
O	 2.1303600991	-0.3562764121	 1.2825001389	-0.258212
C	 0.7232052253	-0.6220823605	 1.1798238313	 0.032363
H	 1.0319801574	 1.9654340714	 0.1144310335	 0.132501
H	-0.4686140037	 1.9981172501	-0.8268830354	 0.113201
H	-0.5329141952	 1.9229868252	 0.9399238279	 0.110817
H	-1.0072723057	-0.3226563785	-0.0054913677	 0.075425
H	 0.0955535112	-0.7096046373	-2.1275811117	 0.082827
H	 2.5383391962	-0.4365883608	-2.5122444418	 0.104972
H	 2.7379985525	 0.3550986053	-0.8749462604	 0.136218
H	 1.7987572633	-2.5709696114	-1.3165748927	 0.082776
H	 1.9924799623	-2.4903999688	 1.2540653752	 0.093262
H	 0.2038435156	-0.7024240807	 2.1333670581	 0.089809
