12
gdb 3698	7.3446	2.16655	1.69055	1.6812	51.28	-0.2365	0.0333	0.2697	694.5726	0.091918	-356.733974	-356.727706	-356.726762	-356.763948	22.679	
C	-0.0043710687	 1.4427527212	 0.0218061375	-0.476888
C	 0.0069744695	-0.0476224539	 0.0125781453	 0.354322
N	-0.1403087874	-0.7502243064	-1.095639987	-0.270888
N	-0.0652241346	-2.0399123417	-0.6336677078	-0.256444
C	 0.1191539035	-2.0251010895	 0.6961901455	 0.452264
O	 0.2257153829	-3.1602043403	 1.3941978979	-0.418487
N	 0.1721414155	-0.7969026518	 1.1546798771	-0.403356
H	 0.9405560567	 1.8351787481	 0.4109968605	 0.137548
H	-0.1565573293	 1.8208443609	-0.9903519558	 0.14036
H	-0.8030833356	 1.8200523013	 0.6682277623	 0.137547
H	-0.1458779434	-2.8223292774	-1.2597714158	 0.28309
H	 0.3516433011	-2.9058642206	 2.3173341604	 0.320931
