15
gdb 20374	6.2443	1.44857	1.29803	6.1553	65.91	-0.248	0.0159	0.264	928.3132	0.121212	-358.835303	-358.828691	-358.827747	-358.867214	24.414	
C	-0.1217056068	 1.4477469704	-0.1602213295	-0.282604
C	 1.2874107806	 0.9526118059	 0.0755450923	-0.282565
C	 0.1386750588	-0.0179535982	 0.054100586	 0.065686
N	-0.2939561252	-0.6767183602	 1.2565980336	-0.011526
C	-0.3458134933	-0.2105501205	 2.5415188212	 0.011989
N	-0.8041110752	-1.1288346666	 3.355540887	-0.22486
N	-1.0702820629	-2.2490802011	 2.5979575963	-0.22915
C	-0.7603986378	-1.9576448814	 1.360376267	 0.017423
H	-0.6098384757	 1.9899257192	 0.6416930728	 0.135333
H	-0.4034476103	 1.7707849442	-1.1558313407	 0.132551
H	 1.9815345575	 0.9327735089	-0.7567831881	 0.132544
H	 1.7449308349	 1.1624399802	 1.0357259508	 0.135337
H	 0.0490612607	-0.6791863485	-0.7990956484	 0.117822
H	-0.044721596	 0.784659255	 2.8274742174	 0.140683
H	-0.8491347892	-2.6168475472	 0.5105257624	 0.141338
