15
gdb 20157	3.6632	3.1159	2.79798	0.391	61.1	-0.2386	0.0852	0.3238	601.7996	0.123045	-362.620192	-362.615522	-362.614578	-362.648641	20.595	
C	-0.0382771403	 1.5725134965	 0.0017543221	-0.21374
C	 1.4773887175	 1.7336416537	-0.021164993	-0.031163
C	 1.9816024717	 0.5402168684	 0.8916720804	 0.043102
O	 0.8016714701	-0.1499745587	 1.2843504406	-0.252148
C	 0.0615483282	 0.0338214243	 0.0641017489	 0.042217
C	 1.1044018315	-0.2549347717	-1.050846035	-0.05894
C	 2.4350468615	-0.1247303131	-0.4175392663	-0.047144
N	 1.9165870498	 0.9901622036	-1.271721542	-0.155238
H	-0.5314635407	 1.9859290699	 0.8838302071	 0.11002
H	-0.4967097733	 1.9505567821	-0.9155980902	 0.112551
H	 1.9254135369	 2.7191095765	 0.0781266774	 0.083184
H	 2.6567488296	 0.693357365	 1.7293199634	 0.086989
H	-0.8466363011	-0.5640599103	 0.0720737217	 0.08363
H	 0.9095589531	-0.8710005425	-1.9182795835	 0.100434
H	 3.3266916356	-0.6961017236	-0.6476516419	 0.096247
