15
gdb 8052	3.54982	1.85159	1.53128	4.9379	65.92	-0.2821	0.026	0.3081	845.0877	0.119468	-362.627443	-362.620474	-362.619529	-362.65847	26.728	
O	-0.0888593343	 1.3331957738	 0.0377396449	-0.46182
C	 0.0435859733	-0.0342697977	 0.0191400434	 0.404232
C	 0.6268716175	-0.9540371403	-1.1027184205	-0.294841
C	 0.069569825	-1.9032388579	-0.0063963288	-0.050692
C	 0.7244529954	-0.979256356	 1.0605032233	-0.306333
C	-1.1974553167	-0.9800603821	 0.0370834895	-0.168754
C	-2.0499845956	-1.0084356697	 1.2142588851	 0.267023
N	-2.7392759418	-1.0392427125	 2.1421497572	-0.335811
H	 0.7817587415	 1.7307687129	 0.147789923	 0.291947
H	 0.1104112865	-0.9472058492	-2.06552966	 0.104412
H	 1.7127001741	-0.9459124337	-1.2206189614	 0.099353
H	 0.0579095527	-2.9891198546	-0.0177574275	 0.104048
H	 1.8170215532	-0.971833907	 1.0786250977	 0.097144
H	 0.2987384272	-0.9991098873	 2.0650130959	 0.132337
H	-1.8028794381	-0.9691696388	-0.8725929116	 0.117755
