19
gdb 90923	3.37194	1.48707	1.40503	2.6261	75.76	-0.228	0.0608	0.2887	994.5642	0.160332	-422.926215	-422.919042	-422.918097	-422.957322	30.094	
O	 0.4734856407	 1.2140555888	-0.3239193364	-0.427065
C	 0.1033462696	-0.1006098788	-0.0143057792	 0.060307
C	 0.1895217387	-0.4788385404	 1.5398448389	-0.315147
C	-1.339033568	-0.123596124	 1.6213741645	-0.021965
C	-2.7631962183	-0.8106978093	 1.6011829725	-0.116492
C	-2.9353774827	-0.0649973818	 0.185909468	-0.333096
C	-1.4247445245	-0.4196918509	 0.1432822246	 0.359307
O	-1.4651815614	-1.8752829391	 0.0928431456	-0.301317
C	-2.4185372586	-2.2103399472	 1.1179862037	-0.079349
H	 0.0315765037	 1.814264456	 0.2864891692	 0.28182
H	 0.6385530635	-0.746263133	-0.7122891175	 0.105742
H	 0.4406183438	-1.5267411508	 1.6943099689	 0.127135
H	 0.8568661438	 0.1553306392	 2.128818382	 0.09818
H	-1.464546195	 0.9413659689	 1.8335128457	 0.072635
H	-3.4913778537	-0.701080962	 2.4051697813	 0.07633
H	-3.6063937843	-0.5215473167	-0.5462529237	 0.10523
H	-3.1413008448	 0.9994434337	 0.3024405674	 0.10584
H	-1.950629488	-2.8375028212	 1.8865299523	 0.100259
H	-3.2696854945	-2.7509487413	 0.6872255422	 0.101646
