19
gdb 42892	2.68501	1.56002	1.22996	3.1582	80.	-0.2317	-0.0093	0.2224	1077.1117	0.159902	-385.870909	-385.863069	-385.862125	-385.903405	30.536	
O	-0.4109464468	 0.0688670226	-0.2178125607	-0.334978
C	-0.2602454674	 1.2444565144	-0.0263185665	 0.361406
C	-1.1755423123	 2.4306898062	-0.0418807738	-0.174965
C	-0.8471789596	 3.3291444598	 1.1460628549	-0.295006
C	 0.0841141396	 3.3421070326	-0.0111314008	-0.126175
C	 1.0120653317	 2.1189247786	 0.0590500999	 0.244036
C	 2.1368865625	 1.9892342386	 1.1202412408	-0.289958
C	 3.1927129198	 2.1922259324	 0.0000639739	-0.210529
C	 2.0850061548	 1.9155897431	-1.0516814581	-0.290252
H	-2.1078728551	 2.5314037339	-0.5833221558	 0.109903
H	-1.5138287033	 4.1797500245	 1.24563143	 0.126188
H	-0.5424314833	 2.892269667	 2.0930781586	 0.125371
H	 0.25346914	 4.2165648703	-0.6264868931	 0.104412
H	 2.1210839387	 2.7128659426	 1.9394744614	 0.10002
H	 2.1663330696	 0.9802473597	 1.5419085026	 0.117666
H	 3.5547444887	 3.2229102844	-0.0428159121	 0.103464
H	 4.0555422962	 1.5226836709	-0.0002900539	 0.103139
H	 2.0855154437	 0.8786990895	-1.3984477922	 0.124391
H	 2.0260883526	 2.578347019	-1.9189306351	 0.101869
