23
gdb 115348	3.11626	1.07956	0.91405	2.3449	81.56	-0.2454	0.0692	0.3146	1369.5642	0.205259	-425.428552	-425.418394	-425.417449	-425.463584	37.546	
C	 0.2942074217	 1.6233809606	 0.3880299777	-0.237562
O	 0.5324354215	 0.303670796	-0.0405750547	-0.247489
C	 0.6319589766	-0.6320509331	 1.0110080569	 0.152677
C	-0.7141375205	-0.9622985078	 1.7178854158	-0.239118
C	-0.6272648569	-2.4665951122	 2.0855122516	-0.25282
C	 0.7915746126	-2.9131342091	 1.6591956558	 0.138892
O	 0.8880870004	-4.2723506238	 1.2708650084	-0.440447
C	 1.1525815263	-1.9838110039	 0.4870643213	-0.057264
C	 0.5055274983	-2.4073567438	-0.8368898856	-0.385484
H	 1.0751945214	 1.9716708146	 1.0832766926	 0.101032
H	 0.3049483592	 2.2601659311	-0.5001701145	 0.125431
H	-0.6807516844	 1.733033244	 0.8857183814	 0.105935
H	 1.3439680255	-0.2462439018	 1.7613714501	 0.05814
H	-0.88368948	-0.3275782698	 2.5914386142	 0.095147
H	-1.533371685	-0.7735869463	 1.0177248174	 0.111969
H	-0.8144902411	-2.6564176366	 3.1468940197	 0.088159
H	-1.3563581545	-3.0536072207	 1.5190172037	 0.110485
H	 1.4938497933	-2.7117793716	 2.485329464	 0.060507
H	 0.65633245	-4.816210593	 2.0297715561	 0.281032
H	 2.2379777001	-1.945662372	 0.3485160809	 0.072154
H	-0.5861748729	-2.4482770467	-0.7675325012	 0.108428
H	 0.7592950732	-1.6930790277	-1.6226402847	 0.12404
H	 0.8577393353	-3.4000208563	-1.1245354671	 0.126153
