17
gdb 18562	3.77568	1.96331	1.57449	2.4646	67.5	-0.2289	-0.0251	0.2038	841.1656	0.143975	-363.866522	-363.859817	-363.858873	-363.897571	26.027	
O	 0.1184645799	 0.0550175517	-0.7369930064	-0.289888
C	 0.033507491	 1.1327019868	-0.2280890526	 0.396827
C	-1.0889241887	 1.9412179877	 0.4373511004	-0.303397
N	-0.1328617784	 3.0727175797	 0.6198875887	-0.093822
C	 0.2069194836	 3.3932533029	 2.0138658906	-0.168702
C	 1.2142757971	 2.3191885366	 2.478845537	-0.222865
C	 2.0327635223	 2.0430686041	 1.2033167735	-0.231433
C	 1.017503847	 2.2760885011	 0.0605062253	-0.107025
H	-1.9458981608	 2.1826901873	-0.2008408952	 0.133235
H	-1.4628800282	 1.4828372041	 1.3643224885	 0.121361
H	 0.6734291024	 4.3857546932	 2.0439840905	 0.105972
H	-0.6986668393	 3.4406199216	 2.6251867785	 0.107756
H	 1.8329469477	 2.6488228525	 3.3172437683	 0.10495
H	 0.6873929278	 1.4127628292	 2.7983095065	 0.108405
H	 2.8568374006	 2.7577108577	 1.1105641817	 0.111571
H	 2.4615248426	 1.0384110594	 1.1682291706	 0.123467
H	 1.4790844234	 2.7095349043	-0.8323802961	 0.103589
