19
gdb 55758	3.98827	0.96976	0.89852	3.6974	75.64	-0.2289	-0.016	0.2128	1348.8725	0.156884	-423.00073	-422.991643	-422.990699	-423.035744	33.022	
C	 0.4737167145	 1.3874614535	 0.0784371925	-0.476537
C	 0.1824302957	-0.0993688469	 0.1563987369	 0.394265
O	 0.1162222305	-0.6888062209	 1.2102478301	-0.288261
C	-0.0486034296	-0.8158139902	-1.1757556917	-0.461469
C	-0.0042819859	-2.308563862	-1.0521539511	 0.333733
C	 1.2300698963	-3.1567052966	-1.298488786	-0.339553
C	-0.0269765645	-3.4263300807	-2.0697680033	 0.029227
O	-0.9316826672	-4.2214752502	-1.3037780763	-0.289382
C	-1.0228015018	-3.1652250161	-0.3040584295	-0.121622
H	 1.4628223312	 1.5451646738	-0.3680164959	 0.143657
H	-0.250042154	 1.8957307118	-0.5679101123	 0.136463
H	 0.4564227581	 1.8247791758	 1.0773119251	 0.14527
H	-1.0312008589	-0.4792856123	-1.5430758825	 0.129275
H	 0.6765074766	-0.4543011899	-1.915306664	 0.116726
H	 2.0191660151	-2.6545549312	-1.8515701055	 0.106982
H	 1.5702572159	-3.8777508194	-0.5600620771	 0.118875
H	-0.1181295462	-3.4456526973	-3.1504229887	 0.101515
H	-0.7553791706	-3.5055448102	 0.7005067241	 0.119595
H	-2.031588985	-2.7356147009	-0.2953528248	 0.101243
