20
gdb 63671	4.71412	0.68362	0.64679	4.4587	80.98	-0.2736	0.0365	0.3101	1746.7346	0.16841	-403.161053	-403.150849	-403.149905	-403.196982	36.349	
C	 0.0835244274	 1.514078692	-0.163028632	-0.457324
C	-0.055653636	 0.0302177293	 0.0985257574	 0.393341
C	-1.1105656042	-0.6646847301	-0.7374479047	-0.452156
O	 1.1822591896	-0.6997793385	 0.2117008021	-0.299132
C	 0.3510731248	-0.5915955713	 1.3752495389	 0.000735
C	 0.9396409072	 0.1281636736	 2.5656184978	-0.235562
C	 2.1519279154	-0.6561051899	 3.1157277708	-0.326495
C	 2.7559270358	-0.0109489476	 4.2779997453	 0.254956
N	 3.2184375213	 0.5143923717	 5.1975630821	-0.304992
H	 0.9158631321	 1.9522538081	 0.3889485022	 0.131562
H	 0.2637478679	 1.6864482597	-1.2295068894	 0.130097
H	-0.8364478643	 2.0430638765	 0.1079576022	 0.12534
H	-0.8929642789	-0.5408459089	-1.8036989193	 0.128629
H	-1.1413730207	-1.7343927547	-0.5173434984	 0.127858
H	-2.1015331318	-0.2389379848	-0.5465783046	 0.123258
H	-0.1473863494	-1.5298477069	 1.6359174087	 0.085895
H	 1.260841736	 1.1369369229	 2.2996489574	 0.126019
H	 0.1771348561	 0.2232620986	 3.3464890416	 0.124553
H	 1.8538769968	-1.6730505527	 3.396464458	 0.151185
H	 2.9051482848	-0.752496627	 2.326720034	 0.172232
