15
gdb 97531	2.56439	0.78712	0.62853	1.1605	81.21	-0.2609	0.0148	0.2757	1711.8462	0.108203	-383.365175	-383.35492	-383.353976	-383.402502	35.505	
O	 0.1480135529	 1.3626105145	-0.3961798563	-0.399776
C	 0.0760645241	 0.0214005866	 0.063728498	-0.195223
C	-1.2845193002	-0.51770005	 0.0761620884	 0.079739
C	-2.416870834	-0.9217310558	 0.1090324805	 0.091265
C	-3.803241504	-1.4175918416	 0.1251529782	-0.537089
C	-3.8514117794	-2.8830667168	-0.0099033059	 0.350108
C	-3.900331054	-4.0749206259	-0.1363991828	-0.43648
C	-4.530642651	-0.9627154631	 1.3224202312	 0.348494
C	-5.1354543	-0.5794296652	 2.2849675197	-0.438448
H	-0.4616894582	 1.8840686922	 0.1364486044	 0.289728
H	 0.7024043601	-0.5628270726	-0.6192546942	 0.145132
H	 0.5157423789	-0.0856291798	 1.0680150261	 0.122958
H	-4.3171881569	-0.9917706263	-0.751557323	 0.169114
H	-3.9396978133	-5.1310372317	-0.2417611283	 0.205503
H	-5.6667406851	-0.2466211446	 3.1422938837	 0.204975
