22
gdb 93228	2.51912	1.32983	0.94637	2.4562	82.94	-0.2095	-0.0133	0.1963	1304.3062	0.194803	-404.384464	-404.375122	-404.374178	-404.418362	35.742	
C	 0.013653509	 1.5631001331	 0.0441299916	-0.406086
C	 0.0152775833	 0.0361141452	-0.0054881263	 0.06171
C	 0.632405248	-0.4999124912	-1.3107630033	-0.199061
C	 0.7095313213	-2.0387286156	-1.3003260479	-0.311153
C	 1.337148082	-2.553916786	-0.0126898691	 0.381658
O	 2.2619759823	-3.3346247687	-0.0008892194	-0.311694
C	 0.7220671576	-1.9635513516	 1.2647469135	-0.051845
C	 1.4400408128	-2.4234460434	 2.5266307619	-0.401788
N	 0.6843119688	-0.4904899137	 1.1906530405	-0.295981
H	 1.0370094489	 1.9551975491	-0.0026106034	 0.111935
H	-0.5399178767	 1.9820657473	-0.8014389393	 0.116484
H	-0.4421584896	 1.9162030294	 0.97245105	 0.127055
H	-1.0267189735	-0.3148231882	 0.0483910211	 0.078011
H	 0.059600613	-0.1567361816	-2.1808938103	 0.098435
H	 1.6447227433	-0.0859158814	-1.4169944245	 0.099234
H	-0.3090026282	-2.4490914666	-1.35851466	 0.114596
H	 1.275519136	-2.4303188725	-2.1490619393	 0.117249
H	-0.3273022412	-2.2962718882	 1.2986120432	 0.090909
H	 2.4902606532	-2.1148665729	 2.5091571473	 0.120763
H	 0.9610128529	-1.9910182576	 3.4081170274	 0.118689
H	 1.4266718029	-3.5126353743	 2.6031337412	 0.129961
H	 1.6382700841	-0.1355472405	 1.2258003649	 0.210919
