15
gdb 51251	3.69691	1.06378	0.83076	7.1202	72.3	-0.2417	-0.0379	0.2038	1285.612	0.113836	-454.019102	-454.010999	-454.010055	-454.052341	29.279	
O	-0.3707892127	 0.1271661497	 0.0092346674	-0.279184
C	-0.0967424322	 1.3014507754	 0.0106974479	 0.154076
N	 1.1809989318	 1.818928032	-0.0017796836	-0.39572
C	 2.3588668944	 1.087659602	-0.0145090015	 0.412321
C	 2.5649922522	-0.2381872956	-0.0192171084	-0.35421
C	 4.0286780997	-0.4929605248	-0.0361244045	 0.447629
O	 4.6176445742	-1.5487909641	-0.1082782359	-0.385967
N	 4.6285018228	 0.7594207408	 0.051126947	-0.344782
C	 3.6757530653	 1.8367380241	-0.0178134242	-0.264531
H	-0.8534587365	 2.1087570409	 0.0216549484	 0.093504
H	 1.2587155469	 2.8253960298	 0.002893864	 0.258138
H	 1.8255664994	-1.0196290922	-0.0211089012	 0.154082
H	 5.6070571888	 0.8729213326	-0.1515680756	 0.253295
H	 3.7805483815	 2.4438829548	-0.930616309	 0.126151
H	 3.7476430442	 2.5202393747	 0.841908139	 0.1252
