17
gdb 44077	3.89641	1.46241	1.21079	4.1272	74.55	-0.2286	0.0132	0.2419	1023.4648	0.137595	-417.951211	-417.944171	-417.943227	-417.982523	28.371	
N	-0.1441362766	 1.2244198494	 0.0565798287	-0.543076
C	-0.0359497413	-0.0300844039	-0.0155096319	 0.372236
N	 1.0241340737	-0.9587039989	-0.119984401	-0.434315
C	 0.1676262894	-2.102586799	 0.1224029698	 0.370036
C	 0.1948741337	-3.5465335128	-0.3589956523	-0.336996
C	-0.7503022476	-3.894617269	 0.8465831605	-0.242355
C	-0.4922028623	-2.4869079379	 1.4739538609	 0.057914
O	-1.5573328791	-1.5287396284	 1.3170580203	-0.296609
C	-1.0681529363	-1.1681137458	 0.0050525992	-0.038399
H	 0.7674436213	 1.6860977467	 0.0822774749	 0.211803
H	 1.9496621686	-0.8238456437	 0.2684565255	 0.236034
H	-0.1655386976	-3.7476294893	-1.37086067	 0.111401
H	 1.1813766383	-4.0062240529	-0.2435072071	 0.110441
H	-1.7970305162	-4.0318977718	 0.5703285795	 0.123575
H	-0.4268426535	-4.7381238165	 1.4586511625	 0.110852
H	-0.0248624459	-2.4457246387	 2.4601114659	 0.083656
H	-1.8300773685	-1.1980915074	-0.7750241954	 0.103801
