15
gdb 66707	2.80721	1.73479	1.30424	5.1569	74.26	-0.2419	-0.0096	0.2323	967.9947	0.112201	-379.564635	-379.557339	-379.556395	-379.596328	27.969	
C	-0.0099017409	 1.5113064123	 0.0554677136	-0.526393
C	 0.0316842822	 0.0230564587	-0.0064326755	 0.271933
C	 0.2464854434	-1.0020324755	-1.1580191916	-0.114369
C	 0.8009340698	-1.9923731675	-0.2008880782	-0.047864
C	 0.6018689902	-1.001117468	 0.9702139546	-0.219135
C	-0.8830337137	-1.0198053433	 0.6296346436	 0.277527
C	-2.037323088	-0.8889275802	 1.4384754961	 0.143466
N	-2.9741789953	-0.7561497507	 2.1069871463	-0.351548
N	-0.6721680748	-2.0107761547	-0.5169282355	-0.202977
H	 0.9579711561	 1.9443689798	-0.2196706491	 0.135224
H	-0.7695997828	 1.9158700264	-0.6216420894	 0.14177
H	-0.2525372056	 1.8455906321	 1.069281536	 0.143789
H	 0.3274420437	-0.901618995	-2.2332852482	 0.112706
H	 1.4302995916	-2.8623355275	-0.3372656229	 0.114802
H	 1.0798602439	-0.8541657768	 1.92808696	 0.12107
