18
gdb 30843	2.61632	1.27459	0.91071	1.7269	75.8	-0.1856	0.0553	0.2409	1287.1864	0.148052	-435.305753	-435.296294	-435.29535	-435.340315	34.321	
C	 0.3027876207	 1.045985667	 0.6177452565	-0.32629
N	-0.2384658337	 0.3256954652	-0.5413718054	-0.396199
C	-1.2724452294	-0.585430877	-0.2745897488	 0.189424
C	-1.3320159636	-1.9136964529	 0.0532510737	 0.240687
C	-0.2049762365	-2.8708052251	 0.256610596	-0.49301
N	-2.6598245133	-2.3228041177	 0.1674349618	-0.420675
C	-3.3640153362	-1.2525532136	-0.0745228772	 0.432147
O	-4.7061868194	-1.1544715845	-0.0665291316	-0.429172
N	-2.6081731188	-0.1647127473	-0.3476334926	-0.329287
H	 1.0770963603	 1.7407875304	 0.2787134455	 0.117736
H	-0.4944162634	 1.6331937386	 1.0830756552	 0.126604
H	 0.7296972412	 0.3877721081	 1.3894475555	 0.111045
H	 0.5043670875	-0.1168346963	-1.0666397468	 0.23391
H	 0.761082153	-2.3672859285	 0.1530567092	 0.104279
H	-0.24463187	-3.3243351889	 1.2532120566	 0.131171
H	-0.2393512638	-3.6912366759	-0.4697145005	 0.128903
H	-5.0334089715	-2.035565381	 0.1549744856	 0.310489
H	-2.927821293	 0.7443145192	-0.6352869426	 0.268239
