18
gdb 51661	4.09757	0.97885	0.90695	3.9296	74.38	-0.2473	0.0179	0.2652	1310.3903	0.14769	-439.038932	-439.030666	-439.029722	-439.073501	29.93	
N	 0.3042389045	 1.2726793852	-0.0645710076	-0.439085
C	 0.1827927807	 0.0219089787	 0.0447366394	 0.125171
O	-0.9888030833	-0.5718633138	-0.258109027	-0.187427
C	-1.1142899991	-1.9570086128	 0.0199346285	 0.11898
C	-1.7765726116	-2.3654997761	 1.3735953986	-0.276055
C	-2.8591328661	-3.143729559	 0.5817775194	 0.115914
O	-4.0548190077	-2.3749758062	 0.3812683335	-0.286887
C	-3.5554346214	-1.8439106386	-0.873114712	-0.083983
C	-2.2471861524	-2.6505354777	-0.7639740282	-0.123223
H	 1.2528509459	 1.5516934422	 0.1768575028	 0.230105
H	 0.9619749769	-0.6860202669	 0.3616967743	 0.084159
H	-0.1486402822	-2.4528142919	-0.1342624362	 0.086396
H	-1.1349134276	-2.9672675321	 2.0219811926	 0.104525
H	-2.1948370442	-1.5308502366	 1.9393443659	 0.130384
H	-3.0603011202	-4.1832557631	 0.8491506688	 0.08085
H	-4.1977465361	-2.1413776644	-1.7096424266	 0.106451
H	-3.4507799612	-0.7548962445	-0.85984747	 0.131913
H	-1.9715755849	-3.2815597124	-1.6073093762	 0.081812
