21
gdb 90363	2.38227	1.40533	1.20145	3.1625	82.65	-0.2344	-0.015	0.2193	1165.5213	0.18109	-387.095651	-387.086599	-387.085655	-387.129422	34.864	
C	 0.2766211592	 1.569277969	-0.0750525849	-0.417968
C	 0.1107807827	 0.0617679636	 0.0515671568	-0.000891
C	 0.9410269812	-0.8734180024	-0.8751747664	-0.264567
C	 1.3013300399	-1.7846296868	 0.3475284329	-0.199735
C	 2.6650054535	-1.4357172222	 0.9288945349	 0.424034
O	 3.7591788926	-1.9137151039	 0.8325037448	-0.309627
C	 2.0861208148	-0.2791642445	 1.7679727299	-0.424424
C	 0.6514839152	-0.6961675919	 1.3028655777	 0.34516
C	-0.3261958462	-1.0367628372	 2.4076393662	-0.493778
H	 1.3283623229	 1.8715449353	-0.0345785372	 0.116947
H	-0.1256870739	 1.9241605443	-1.0304293498	 0.119035
H	-0.2553116981	 2.0981032126	 0.7238787444	 0.116942
H	-0.9523315484	-0.1852472372	-0.0531098848	 0.0723
H	 0.3739725502	-1.3797848165	-1.6582738189	 0.112603
H	 1.8092042151	-0.398856812	-1.3424960147	 0.111122
H	 1.0029025999	-2.8324233165	 0.292315929	 0.083621
H	 2.2624984729	-0.4198730978	 2.8395408111	 0.130122
H	 2.4384778523	 0.7202393894	 1.4991127136	 0.124933
H	-0.6346661539	-0.1356311826	 2.9518466379	 0.120386
H	-1.2305909205	-1.508348267	 2.0080561595	 0.116293
H	 0.1155231287	-1.7253552757	 3.1370139279	 0.117494
