22
gdb 91325	2.80197	1.35671	1.18194	1.937	83.13	-0.2104	0.0814	0.2918	1186.3538	0.192402	-404.31019	-404.30086	-404.299916	-404.343642	35.889	
C	-0.0698282718	 1.5734262967	 0.1462943322	-0.328503
N	 0.0921633745	 0.138060489	 0.1317389022	-0.06379
C	-1.1260614251	-0.7041533643	 0.2193720202	-0.197484
C	-0.4396126072	-1.5727161734	 1.2920633743	 0.10711
O	 0.4500815588	-2.5751675042	 0.7788880122	-0.350542
C	 1.6289828318	-1.7090629219	 0.9583899529	 0.418568
C	 2.4359482617	-2.1976685907	 2.1554751525	-0.425776
C	 2.4471829044	-1.6223803919	-0.3144418085	-0.432406
C	 0.6902915026	-0.5198405862	 1.3119542167	-0.10543
H	 0.9111500195	 2.0589866368	 0.1794303431	 0.121041
H	-0.5694444069	 1.8972760734	-0.7730496386	 0.123199
H	-0.6655764649	 1.9458238723	 1.0024152227	 0.087792
H	-1.9941943472	-0.1636360944	 0.6296542173	 0.086094
H	-1.4123779632	-1.2024693854	-0.7125518042	 0.109262
H	-1.0313726907	-1.9192338274	 2.1417194896	 0.079726
H	 2.808679521	-3.2098246664	 1.9704097104	 0.124711
H	 3.2934947279	-1.5414773317	 2.3405792927	 0.111248
H	 1.820924786	-2.2240574035	 3.060683817	 0.113709
H	 1.8494517255	-1.1839803586	-1.1150642455	 0.133281
H	 3.3383937847	-1.0040662933	-0.1609778518	 0.106824
H	 2.7748045633	-2.623074289	-0.614208333	 0.118678
H	 0.9567886155	 0.128066554	 2.1514427656	 0.062689
