18
gdb 128207	5.30031	0.88705	0.77297	3.3879	78.47	-0.1945	0.0349	0.2294	1483.2813	0.147925	-435.253942	-435.244492	-435.243548	-435.288693	33.54	
C	 0.0602040206	 1.4906083237	 0.0985112238	-0.329517
N	-0.0842953055	 0.0417791491	 0.060138417	-0.394363
C	 0.5614583626	-0.7441106306	 0.9737551096	 0.556072
C	 0.8250798639	-2.08783166	 1.0117612845	-0.486326
C	 1.4724349647	-2.2492526704	 2.2698995793	 0.472472
N	 2.0079769309	-3.40799104	 2.792099394	-0.375453
C	 1.4080727279	-4.6892174974	 2.4604420549	-0.325096
N	 1.5803647572	-1.1174500492	 2.9412613429	-0.277342
O	 1.0006931018	-0.1404763771	 2.0817162887	-0.226598
H	 1.0845067721	 1.8300320816	-0.1086472695	 0.127631
H	-0.6141672724	 1.9258096002	-0.6418895236	 0.126996
H	-0.2259300486	 1.8591368849	 1.0853515386	 0.159658
H	-0.1417243431	-0.3661741002	-0.8593770044	 0.250707
H	 0.5988593288	-2.8287410901	 0.2653274957	 0.097766
H	 2.2553455543	-3.2998779803	 3.7659992398	 0.245274
H	 0.3509538882	-4.7757397915	 2.754428702	 0.117069
H	 1.4773959389	-4.8674180613	 1.3829961298	 0.133486
H	 1.9726515479	-5.4808222613	 2.9588527768	 0.127564
