18
gdb 86104	3.13244	1.22697	0.96796	2.2503	73.24	-0.2413	-0.0308	0.2105	1229.4585	0.145792	-439.123728	-439.114465	-439.11352	-439.158857	32.708	
C	 0.0616126001	 1.7308436892	-0.0005498184	-0.401611
C	 0.1948913129	 0.2165888841	-0.0199961165	 0.08847
O	 1.0800913672	-0.1668710642	-1.1092062139	-0.259233
C	 2.1318833534	-0.8230789918	-0.5570784685	 0.406173
C	 3.1957928745	-1.2303795197	-1.5175014181	-0.474085
N	 2.128197447	-1.0363924317	 0.697695394	-0.325087
C	 0.877216842	-0.4729228848	 1.212505347	-0.097629
C	 1.1387047053	 0.401139166	 2.4339855224	 0.140104
O	 0.3097721901	 1.1036825142	 2.9531607415	-0.249792
H	 1.0292260836	 2.209590706	 0.1786339353	 0.123114
H	-0.3217906655	 2.0781212401	-0.963570501	 0.124989
H	-0.6226026134	 2.0397363547	 0.7919637511	 0.151459
H	-0.7757007212	-0.2406623603	-0.2291048844	 0.101363
H	 3.5838550386	-0.3543291049	-2.045983589	 0.147844
H	 4.0037260317	-1.7279522198	-0.9825858309	 0.154066
H	 2.782519563	-1.9077807314	-2.2713815894	 0.149022
H	 0.2398770577	-1.289581778	 1.583220748	 0.120302
H	 2.171788713	 0.3103683322	 2.8332042609	 0.100531
