22
gdb 13279	6.53155	0.74788	0.71025	1.9953	78.61	-0.2412	0.0793	0.3205	1649.2123	0.199955	-350.191272	-350.181874	-350.180929	-350.22674	33.035	
C	 0.0556765273	 1.552028883	 0.127389859	-0.380319
C	-0.0159342678	 0.0276527547	 0.0049751314	-0.163816
C	 0.7098372787	-0.5129440248	-1.231741155	-0.159862
C	 0.6387642364	-2.0387279854	-1.3636681219	-0.209483
C	 1.3727778057	-2.5740293037	-2.5869381946	-0.021263
C	 2.9200163338	-2.5848911185	-2.5499995892	-0.073805
O	 2.963660294	-4.0143546968	-2.731045683	-0.272332
C	 1.5247757765	-4.1067301828	-2.7182468628	-0.09056
H	 1.0939516643	 1.895707267	 0.1949554707	 0.114011
H	-0.3967990526	 2.0409841045	-0.7426052569	 0.11354
H	-0.4703900857	 1.9069194717	 1.0190978128	 0.112083
H	 0.4118897156	-0.4334430908	 0.9050194787	 0.095796
H	-1.0668938861	-0.2892743403	-0.0262290604	 0.094855
H	 0.2846331916	-0.050811437	-2.1337917138	 0.09242
H	 1.7622760502	-0.1975008055	-1.1993826349	 0.095917
H	 1.0568413758	-2.505661426	-0.460678662	 0.097035
H	-0.4135567455	-2.3519791166	-1.4094010279	 0.095191
H	 0.9769117126	-2.1100764593	-3.4954759593	 0.076105
H	 3.4354718996	-2.053178366	-3.3591216799	 0.098844
H	 3.360297479	-2.2793942218	-1.5901924766	 0.093537
H	 1.1576205214	-4.6826349413	-1.8572049869	 0.094395
H	 1.1344004052	-4.5595456143	-3.6380456577	 0.097711
