16
gdb 66678	4.26998	1.24523	1.19995	4.4006	74.51	-0.2272	-0.0389	0.1883	1067.6188	0.122147	-400.637447	-400.629668	-400.628724	-400.669862	29.153	
C	-0.044751501	 1.5021667857	-0.0481786284	-0.518798
C	-0.0556500551	 0.015369805	-0.0477634121	 0.39023
C	-0.0560335276	-1.0373050934	-1.1304888862	-0.164476
C	 0.8312213338	-1.8913778536	-0.1971583226	-0.085062
N	 0.8537709447	-0.8447217412	 0.8526186856	-0.217809
C	-0.2500398501	-1.9037092448	 0.8483204052	 0.282416
C	-0.4501823936	-2.8363443028	 1.9677584737	 0.018189
O	 0.453417345	-3.3963756708	 2.5410674112	-0.256147
C	-1.1496901655	-1.0214517132	-0.046396296	-0.251733
H	 0.9460587588	 1.8858123276	-0.3136062405	 0.137088
H	-0.767137976	 1.8866843143	-0.7757201491	 0.128981
H	-0.3102473455	 1.8948481729	 0.9390990563	 0.137361
H	-0.1557423842	-0.9599049853	-2.203584476	 0.104189
H	 1.6426814625	-2.5950987464	-0.3378343599	 0.118899
H	-1.5145762766	-3.0102695682	 2.2444151855	 0.072713
H	-2.2206003995	-0.9231482559	-0.1556005868	 0.10396
