19
gdb 53294	2.77668	0.88166	0.73112	2.1145	86.27	-0.2406	0.0305	0.2711	1610.535	0.157174	-385.830985	-385.821301	-385.820357	-385.867283	34.216	
C	 0.2145912308	 1.5616892513	 0.1203519046	-0.5016
C	 0.1008383914	 0.1126672522	 0.055550263	 0.108237
C	 0.0045465367	-1.08743675	 0.0102418715	 0.090584
C	-0.0671517767	-2.5211865981	-0.0661438229	-0.186534
O	-0.5772374429	-3.2311018902	 1.0804409867	-0.252731
C	-1.3517859999	-3.2583603328	-0.1182022678	 0.077439
C	-2.6772700502	-2.5835856183	-0.1039130468	-0.015151
C	-3.6346315366	-2.8218675952	-1.2486935646	-0.268352
C	-3.926264244	-3.4070947598	 0.1064417536	-0.266746
H	 1.2567577551	 1.8830477347	 0.0172644311	 0.152291
H	-0.3636547027	 2.0439692004	-0.6755175566	 0.150469
H	-0.1568818242	 1.9419697996	 1.0782185466	 0.154684
H	 0.8008507335	-2.9997052271	-0.5210110687	 0.106976
H	-1.3357709678	-4.2235823715	-0.6318579855	 0.086986
H	-2.6634565645	-1.5891899918	 0.3281894279	 0.100167
H	-4.228050119	-1.9832841805	-1.5942682001	 0.116724
H	-3.3234325659	-3.4987574159	-2.0379062621	 0.113091
H	-3.8106750085	-4.4784254985	 0.2337223581	 0.11637
H	-4.7233704846	-2.9733251186	 0.6994142219	 0.117095
