23
gdb 103968	2.28762	1.45014	1.12028	1.152	85.34	-0.2408	0.0751	0.316	1223.5653	0.204646	-388.264459	-388.254819	-388.253875	-388.298274	37.701	
C	-1.4343230814	-0.1734444714	-0.1273931054	-0.376095
C	 0.0491901144	 0.1983737477	-0.0441477809	-0.249657
C	 0.8921645949	-0.4544115757	-1.1408552104	 0.419713
O	 0.4351582379	-0.0239123514	-2.4238743579	-0.479538
C	 2.4587834231	-0.3788116328	-1.0636902312	-0.311279
C	 2.5262365839	-1.898515782	-1.2823358125	-0.074386
C	 1.8348282937	-2.6509673971	-0.1816778161	-0.002265
C	 1.9160253251	-2.3455965845	 1.3015099704	-0.423061
C	 0.9924384996	-1.983390881	-1.2414330282	-0.095893
H	-1.8406631086	 0.077386998	-1.1105932674	 0.12444
H	-1.5759590255	-1.2485701694	 0.0263232305	 0.119363
H	-2.0177588194	 0.3524741919	 0.6342014937	 0.105828
H	 0.1665701034	 1.2897956886	-0.1297962788	 0.078978
H	 0.4454435497	-0.0666590049	 0.9400505905	 0.097675
H	 0.4982641259	 0.9377380092	-2.4456054795	 0.271028
H	 2.8480552564	 0.1897301408	-1.9104945917	 0.10045
H	 2.9047049059	 0.0051727928	-0.1398060166	 0.086818
H	 3.2070877143	-2.3850648757	-1.9704354081	 0.081151
H	 1.8602055948	-3.7238103997	-0.3714893785	 0.086889
H	 2.1068914657	-1.291320262	 1.5114413729	 0.122281
H	 0.9926932471	-2.6281543172	 1.8192755209	 0.117383
H	 2.735521612	-2.9153252846	 1.7536739749	 0.113313
H	 0.3312490273	-2.5565027895	-1.8809856705	 0.086865
