16
gdb 3403	3.86128	2.7671	2.21176	1.7535	60.18	-0.2295	0.0584	0.2879	668.0743	0.137174	-325.722723	-325.715923	-325.714979	-325.75301	25.902	
C	-0.0786130051	 1.5615752203	 0.0833950976	-0.426845
C	 0.0617013901	 0.0641290548	-0.083159025	 0.029101
C	 0.5858297659	-0.6543444132	-1.2669730128	-0.066206
C	 1.7604482445	 0.0376220449	-1.9367238768	 0.104842
O	 1.4343527698	 1.2104381721	-2.6546791328	-0.426579
C	 2.418688949	 0.1213475807	-0.5303888191	-0.208929
N	 1.3154098698	-0.699359889	 0.0846839993	-0.151807
H	 0.5843005809	 2.1260619056	-0.5707946092	 0.143517
H	-1.1048276586	 1.8538466916	-0.1619980452	 0.121495
H	 0.1078128107	 1.8492576468	 1.1245504168	 0.11778
H	-0.7398071095	-0.4884819232	 0.4060399698	 0.09471
H	 0.0864633471	-1.5288397772	-1.6729833782	 0.08965
H	 2.3079170154	-0.6666012553	-2.5757222721	 0.082809
H	 2.2238243469	 1.5111129175	-3.116054471	 0.284887
H	 3.3667506393	-0.4146140054	-0.4503931322	 0.10577
H	 2.5329059939	 1.1223348892	-0.1059218591	 0.105803
