23
gdb 101479	3.79596	0.90076	0.8699	1.9793	82.06	-0.2502	0.0777	0.3279	1485.7251	0.206195	-425.442928	-425.43314	-425.432196	-425.47826	36.234	
C	 0.0167256917	 1.577901762	-0.0114347993	-0.383837
C	-0.0202391844	 0.0574184999	 0.1513553564	-0.187338
C	-1.4164028026	-0.5353503527	-0.0863173064	 0.119766
O	-1.9224821495	-0.1951946576	-1.3701895094	-0.43903
C	-1.4321669243	-2.0621730617	 0.080259564	 0.129638
C	-2.8214013178	-2.7059790182	 0.044408693	-0.244906
C	-2.5202125838	-4.096618994	-0.5308383091	-0.234286
C	-1.3890907676	-3.7944097083	-1.5231485041	-0.062765
O	-0.7236418541	-2.6215377777	-1.0399369159	-0.295787
H	 1.031734336	 1.9661105251	 0.1164822265	 0.106133
H	-0.3412791489	 1.8646049222	-1.0034710229	 0.129674
H	-0.6250859365	 2.0710295646	 0.7278464592	 0.108316
H	 0.6785947154	-0.417810084	-0.5484342053	 0.106239
H	 0.3119694028	-0.2240271251	 1.1593859954	 0.087754
H	-2.1197862717	-0.1013744367	 0.6371050757	 0.078319
H	-1.432999058	-0.7608044896	-1.9830226923	 0.282422
H	-0.9056831543	-2.334271599	 1.008611197	 0.06377
H	-3.292609169	-2.7373650704	 1.0297075217	 0.10084
H	-3.463333134	-2.1324377799	-0.6317916901	 0.120403
H	-2.1666443964	-4.7685024532	 0.2584964113	 0.107129
H	-3.381752544	-4.5674241236	-1.0103405733	 0.106282
H	-0.6603291667	-4.6088139142	-1.6024344637	 0.104409
H	-1.7826810623	-3.593227438	-2.5290831885	 0.096854
