17
gdb 47777	2.68335	1.42115	0.98534	7.074	73.26	-0.2607	0.006	0.2667	1165.099	0.138762	-418.069782	-418.06171	-418.060766	-418.102833	30.035	
O	-0.0512159461	-0.093250187	 0.1422436509	-0.352985
C	-0.0534508982	 1.1171074592	 0.0718673211	 0.423656
N	-1.1977452317	 1.8449625696	-0.0793514813	-0.325849
C	-1.362784621	 3.2894443401	 0.0483360517	-0.151483
C	-0.0712957936	 4.0199731371	-0.3089027808	-0.219638
C	 1.1050397482	 3.4098280736	 0.4529013978	-0.214309
C	 1.2655011389	 1.9273451389	 0.0507158804	-0.269894
C	 2.2848802079	 1.2595978291	 0.8589403473	 0.294263
N	 3.1187666952	 0.7984084813	 1.5112542294	-0.320243
H	-2.0298532164	 1.2718701438	-0.0504191505	 0.254932
H	-2.1769769395	 3.6038570351	-0.6126543954	 0.12089
H	-1.6609972854	 3.5504070737	 1.0749130959	 0.117705
H	 0.1076175222	 3.950608482	-1.388831888	 0.115457
H	-0.1797220221	 5.0807042116	-0.0651344903	 0.116143
H	 2.0357151822	 3.9456886512	 0.2478088341	 0.127109
H	 0.9297432588	 3.4758869288	 1.5328248578	 0.128468
H	 1.6008993607	 1.8851493321	-0.99517813	 0.155778
