14
gdb 21037	3.97687	1.85299	1.28441	2.9418	60.8	-0.2342	0.0052	0.2394	913.4931	0.107143	-415.91253	-415.904876	-415.903932	-415.944688	26.637	
C	 0.0742486636	 1.4146246941	-0.0640410733	-0.329478
N	 0.0541331352	-0.0270845402	-0.0228631007	-0.085297
N	 0.1131774248	-0.7913576257	-1.1742922308	-0.292453
C	 0.0729436397	-2.0030182214	-0.7438724587	 0.418384
C	 0.1058495308	-3.2439451436	-1.5518653177	-0.487139
O	-0.008620444	-2.1055749749	 0.6109215997	-0.230981
C	-0.0219185405	-0.795556428	 1.1037454088	 0.475402
O	-0.0870334721	-0.4982862508	 2.263860858	-0.40325
H	 0.9988602018	 1.7749528719	-0.5241903679	 0.146106
H	-0.780183764	 1.7967338355	-0.6300882213	 0.146113
H	 0.0171399192	 1.7650241593	 0.9675461545	 0.171094
H	 0.9672885784	-3.8612467108	-1.2776260529	 0.1556
H	-0.7959532262	-3.8405598477	-1.3811856798	 0.155598
H	 0.1710054535	-2.9819470579	-2.6083708079	 0.160302
