11
gdb 21742	5.68934	2.36666	1.67139	6.2512	56.08	-0.2453	-0.0183	0.227	681.1321	0.075479	-393.582233	-393.577159	-393.576215	-393.611318	19.678	
O	-0.0496545838	 1.3205573804	 0.0096724643	-0.212132
C	 1.2527828116	 1.7806816409	-0.0002265934	-0.03477
C	 2.1379122331	 0.7646876818	-0.0143884784	-0.131698
N	 1.3646695192	-0.4000642743	-0.0133977521	-0.059756
C	 1.2992757381	-1.7732274865	-0.020239929	-0.013052
N	 0.0400378305	-2.1474449603	-0.0102173903	-0.213988
N	-0.7813007008	-1.0257560535	 0.0037560881	-0.347534
C	 0.0501098222	-0.0259352928	 0.0012841001	 0.517337
H	 1.3782523891	 2.8493311317	 0.0045025083	 0.170459
H	 3.2131819323	 0.773835164	-0.0246839701	 0.172216
H	 2.1563304184	-2.4251306613	-0.0320388175	 0.152918
