19
gdb 73132	2.49575	1.80299	1.59773	3.0064	73.39	-0.2371	0.0728	0.31	955.9132	0.160102	-423.004659	-422.997186	-422.996242	-423.036162	30.042	
C	 0.3208676403	 1.5586540764	-0.0560087229	-0.473432
C	 0.0097369118	 0.0818988988	 0.0679157843	 0.430722
O	-1.3509313142	-0.1615363319	 0.5009220027	-0.323694
C	-0.9087955109	-1.0825718843	 1.5237262382	-0.080525
C	 0.5767321	-0.7535699195	 1.2564064484	-0.125449
C	 1.5304924982	-1.8287343383	 0.7021613347	-0.273175
C	 1.2846213097	-1.8306195627	-0.7971742616	 0.04524
O	-0.08299301	-2.0693723271	-1.1389173272	-0.247816
C	 0.390084488	-0.7201385498	-1.1745256954	-0.017417
H	 1.3679250009	 1.7150858149	-0.3389938449	 0.117514
H	-0.3122513913	 2.0179270176	-0.8228380039	 0.130795
H	 0.1344021173	 2.0710617087	 0.8913445708	 0.124586
H	-1.2928276149	-0.7981092771	 2.5103432785	 0.095059
H	-1.2005431861	-2.1132187412	 1.2967845548	 0.111025
H	 1.032898877	-0.1623680615	 2.0521019065	 0.080103
H	 2.5755485267	-1.5662347328	 0.9032429671	 0.104677
H	 1.3550940507	-2.8180305407	 1.1392190227	 0.115509
H	 2.01719295	-2.2545201915	-1.4809083246	 0.094578
H	 0.3983805667	-0.2541580182	-2.157742798	 0.091698
