22
gdb 119954	2.45565	1.00914	0.91514	1.5759	85.48	-0.2284	-0.0331	0.1953	1447.4567	0.191766	-404.333865	-404.323466	-404.322522	-404.369561	37.403	
C	-0.8400556006	-0.6413699665	 4.4812246143	-0.381713
C	-1.2208393368	-1.7006694225	 3.4438230629	-0.168136
C	-1.0403332367	-1.1974634311	 2.0098537482	-0.130032
N	-1.3480802424	-2.2773435	 1.0675330939	-0.101386
C	-2.6659338861	-2.4596942931	 0.5155864154	 0.009164
C	-3.8527070455	-1.5717894446	 0.8145475324	-0.434409
C	-1.5042816548	-2.0176534336	-0.3712545721	-0.13045
C	-1.4949732623	-0.6644809884	-0.9800122399	 0.148491
O	-1.8098330377	 0.37678356	-0.4456899131	-0.278456
H	-0.9749383246	-1.0183834156	 5.4993978578	 0.113606
H	 0.2078817825	-0.3397740439	 4.3744619269	 0.116272
H	-1.4543740744	 0.2594699775	 4.3750790699	 0.118109
H	-0.6160758077	-2.6043501293	 3.5799559446	 0.105607
H	-2.2650400581	-2.0040635854	 3.5916525128	 0.096647
H	-1.6268592002	-0.2876811804	 1.8428170652	 0.124056
H	 0.0094677608	-0.9261257108	 1.8462211091	 0.102243
H	-2.9281170887	-3.511707864	 0.3966102782	 0.100839
H	-3.607314037	-0.5116985111	 0.7515768524	 0.163336
H	-4.6548367816	-1.7812815566	 0.0996375831	 0.123262
H	-4.2409789766	-1.7874305974	 1.8159582156	 0.127054
H	-1.0386862246	-2.7695407797	-1.0069002877	 0.094925
H	-1.1527145069	-0.6700714333	-2.0397574798	 0.08097
