15
gdb 130923	4.22795	1.21702	1.06856	3.0433	72.87	-0.2426	-0.0409	0.2017	1096.7641	0.114158	-416.7936	-416.786294	-416.78535	-416.826317	26.378	
O	-0.4965036472	 0.6209003955	-0.6460151346	-0.228381
C	 0.2213781708	 0.9103701234	 0.274557457	 0.159126
C	 1.3745356955	 1.8876043163	 0.1874737798	-0.270838
C	 1.463831538	 2.739308176	-1.1379572399	-0.185381
N	 1.1756911492	 3.8937090246	-0.2706776661	 0.092225
N	 1.0965968497	 5.2235783716	-0.1768141349	-0.299163
C	 0.9597552248	 5.3881351539	 1.1515875827	 0.018666
C	 0.9820535302	 4.1723209168	 1.8915448149	-0.403446
C	 1.1317221513	 3.2290626799	 0.8929658212	 0.372969
H	 0.0716116828	 0.4754640734	 1.2874465954	 0.092605
H	 2.3041067505	 1.3853700893	 0.4780161521	 0.123232
H	 2.4517390303	 2.7725387885	-1.602214338	 0.138952
H	 0.6894853141	 2.5195089199	-1.8739124327	 0.160098
H	 0.8428460554	 6.3873368678	 1.5457986018	 0.116731
H	 0.9001017147	 4.0485728832	 2.9578587514	 0.112605
