16
gdb 51401	4.85376	0.84847	0.81381	1.8902	71.44	-0.2561	-0.0296	0.2265	1372.1605	0.123342	-437.830045	-437.821987	-437.821043	-437.863874	29.077	
O	-0.2673964787	 0.0375963344	-0.0110725368	-0.235611
C	 0.0019312707	 1.2100100703	 0.0212319913	 0.161206
C	 1.3831915051	 1.7861902629	-0.1985634563	-0.31769
C	 1.3922582189	 2.8634443933	-1.2827131674	 0.01488
C	 0.8273436487	 4.2832674844	-0.9402183923	-0.169289
N	 2.069133251	 4.4682254695	-0.0689838954	-0.315222
C	 2.6240268159	 3.8221508609	-1.3375078615	-0.172547
C	 1.7118478375	 4.8181083918	-2.0917870045	 0.443396
O	 1.7410885839	 5.6586753602	-2.9335636884	-0.317429
H	-0.7858666385	 1.9715311683	 0.2311256821	 0.072918
H	 1.716874945	 2.2352873841	 0.744359946	 0.150057
H	 2.0602410472	 0.967599135	-0.4595664797	 0.123915
H	 1.0779803568	 2.4701664691	-2.2526482399	 0.10442
H	-0.1655643359	 4.5704675923	-0.599991233	 0.109818
H	 2.3358606958	 5.4543822951	-0.0077787196	 0.238304
H	 3.6778055469	 3.5730878284	-1.4466833546	 0.108875
