15
gdb 34084	3.58824	1.56653	1.33993	3.4099	73.65	-0.253	-0.0244	0.2286	938.6694	0.114605	-379.633051	-379.626515	-379.625571	-379.663812	26.411	
N	 0.0065974432	-1.1667431717	 0.0014745431	-0.33734
C	 0.019136448	-0.0108681768	-0.0232469193	 0.172288
C	 0.0181499446	 1.4331747765	-0.0460405385	 0.126292
C	-0.8981020509	 2.2074454947	 0.9935877275	-0.16939
N	-1.3893632766	 3.1392709227	-0.0491405328	-0.153885
C	-0.2135451402	 3.558693892	-0.9541505566	-0.067509
C	 1.1806349643	 3.3902262326	-0.4783589264	-0.090375
C	 1.3531873793	 2.1474459098	-0.0149248702	-0.144792
C	-0.8391571422	 2.2283746975	-1.091907068	-0.078601
H	-1.7411905896	 1.5927891556	 1.312664942	 0.143161
H	-0.3901969414	 2.6528775847	 1.8531525797	 0.118932
H	-0.5084489751	 4.3807440583	-1.5935171945	 0.113857
H	 1.9108051034	 4.1883290667	-0.4669739854	 0.119873
H	 2.2222024527	 1.7381894136	 0.4827388495	 0.129103
H	-1.4099451995	 1.8310739637	-1.9242345502	 0.118386
