14
gdb 21626	4.90137	1.44211	1.14797	4.9652	59.45	-0.2301	0.0231	0.2531	984.2676	0.109512	-412.061871	-412.054295	-412.053351	-412.094065	27.434	
N	-0.1440522928	 1.2779973115	-0.1113598513	-0.599312
C	-0.0779917511	-0.0983846144	-0.0639174938	 0.4189
N	-1.0889074777	-0.9307889761	-0.2340405766	-0.379978
C	-0.5169271723	-2.1576615841	-0.0163099781	 0.333349
C	-1.348096183	-3.4020752914	-0.1023664452	-0.149071
O	-2.2656383797	-3.3367800939	-1.1772992194	-0.42022
N	 0.7681202933	-2.1380508562	 0.2652590462	-0.277454
N	 1.0394821183	-0.7920862297	 0.2428080876	-0.252458
H	 0.658855697	 1.7381777126	-0.5168795169	 0.258195
H	-1.0084615953	 1.5943073785	-0.5283264856	 0.271605
H	-0.6987090386	-4.2676076959	-0.2585734245	 0.126717
H	-1.8728958302	-3.550813455	 0.8566569804	 0.100848
H	-2.5900355392	-2.4278576375	-1.1951868631	 0.293563
H	 1.9631183514	-0.4615227584	 0.4640981402	 0.275315
