20
gdb 106428	2.88134	1.32201	1.14857	2.8978	79.88	-0.2271	0.0658	0.2929	1153.5408	0.170737	-403.040548	-403.032069	-403.031125	-403.073652	32.949	
O	-0.0872503486	 1.4487380196	 0.0464451166	-0.419727
C	 0.0030394564	 0.0328203124	-0.0258109375	-0.225778
C	-1.3971952508	-0.5162727929	-0.0141390355	 0.234393
C	-2.5006795477	-0.3770098142	 1.0646786067	-0.199783
N	-3.2072193718	-1.2442607802	-0.00003292	-0.192394
C	-2.5584612872	-0.2735740036	-1.0108824617	-0.199766
C	-1.8744516223	-1.9712815863	-0.0733138453	 0.406345
C	-1.5740727884	-3.1593887249	-0.9089463288	-0.378262
C	-1.5314744012	-3.2356549388	 0.6222802053	-0.378257
H	 0.8046528233	 1.8080018913	 0.0403949173	 0.290516
H	 0.5164560101	-0.2926139263	-0.9457877024	 0.089148
H	 0.5655124606	-0.3800133178	 0.8280252035	 0.089155
H	-2.3555916285	-0.892405957	 2.0170813239	 0.099705
H	-2.9597284611	 0.6053701572	 1.1959901808	 0.104992
H	-3.0213533218	 0.7157268906	-1.0182683342	 0.105006
H	-2.4678774936	-0.6913911206	-2.0163537439	 0.09971
H	-2.4033669331	-3.6508335887	-1.4074320144	 0.125667
H	-0.6324450356	-3.2057304445	-1.447129167	 0.111833
H	-0.5615773665	-3.3326100777	 1.1001409208	 0.11183
H	-2.3332001025	-3.7764568676	 1.1147266358	 0.125667
