15
gdb 43751	4.74158	0.94292	0.88238	3.734	70.57	-0.2544	-0.0328	0.2216	1266.0219	0.112073	-416.786965	-416.778976	-416.778031	-416.820277	29.31	
O	 0.2108044699	-0.0031011699	-0.0695256963	-0.296979
C	 0.086026689	 1.1792388106	 0.0348054569	 0.465517
C	-1.1468494168	 2.1318393284	 0.0741191413	-0.389844
C	-0.1424582372	 3.2883274869	-0.0867775838	 0.341678
C	-0.3290163167	 4.5343924031	-0.9118730701	-0.467298
C	-1.2708989451	 5.479134986	-0.3028396615	 0.271505
N	-2.0161297069	 6.21762892	 0.1798429888	-0.2924
N	 0.6924927902	 3.234186921	 1.113651983	-0.345087
C	 1.0390133467	 2.3538049912	-0.0621184258	-0.25748
H	-1.782886485	 1.9605154225	-0.7993427342	 0.136012
H	-1.7469178325	 2.1452717726	 0.985083858	 0.148221
H	 0.6326867654	 5.042141615	-1.0536168176	 0.156616
H	-0.6996671192	 4.2730156777	-1.9101289124	 0.167464
H	 1.3581290248	 4.008721412	 1.0840016749	 0.241235
H	 2.0139963336	 2.4206836529	-0.5291719014	 0.120842
