21
gdb 63078	2.34595	1.6609	1.32145	1.401	83.79	-0.2234	0.0146	0.238	1084.662	0.181615	-387.09178	-387.082817	-387.081873	-387.124365	35.784	
C	-0.0890465515	 1.5287674433	 0.0467444161	-0.460695
C	 0.0470407637	 0.0191603894	 0.0025426414	 0.288467
C	-1.1751442966	-0.7013340709	 0.5505799791	-0.444659
C	 0.7316543179	-0.6906711136	-1.1642569705	-0.178994
C	 1.6609344709	 0.0749879971	-2.1039150754	-0.296377
C	 2.7995041815	 0.5207311331	-1.2077521534	-0.066672
C	 2.6324218412	 0.1150547201	 0.0533137612	-0.172213
C	 1.3766148704	-0.6753384622	 0.2257721446	 0.343528
O	 1.396773188	-1.7606316913	 1.1054136547	-0.471061
H	 0.8071132604	 2.0452652628	-0.3015758844	 0.120306
H	-0.9318049509	 1.8532974779	-0.575138867	 0.110417
H	-0.289507791	 1.8647946257	 1.0706876994	 0.114061
H	-2.0627625264	-0.4457231936	-0.0399227475	 0.106398
H	-1.0475830132	-1.7847797005	 0.5376331929	 0.124319
H	-1.3675342179	-0.4051290831	 1.5878558997	 0.115229
H	 0.2472720221	-1.590994549	-1.5265024968	 0.080436
H	 2.0165705322	-0.5546268848	-2.9302551485	 0.105414
H	 1.1647658509	 0.9362382392	-2.5721897778	 0.112864
H	 3.6137593993	 1.1409366877	-1.5663301819	 0.095062
H	 3.2969956986	 0.3184386042	 0.8856435671	 0.09532
H	 2.0601659804	-2.3828263315	 0.786368937	 0.278849
