27
gdb 120630	4.1619	0.65818	0.62747	0.0856	97.67	-0.2536	0.0851	0.3388	1984.242	0.250225	-353.562915	-353.551385	-353.55044	-353.59985	42.516	
C	 0.2011516223	 1.487451207	 0.2540597006	-0.381912
C	 0.0021779742	-0.0302468457	 0.2651996284	-0.150935
C	-1.3800517281	-0.4612211223	-0.2460259249	-0.206225
C	-1.5590466001	-1.9662383979	-0.2456365407	-0.037315
C	-2.0189924877	-2.7090533695	 0.9907141996	-0.327942
C	-2.8988135599	-2.6767862986	-0.2418594054	 0.347014
C	-4.1843773764	-1.870056516	-0.1935529395	-0.465178
C	-2.9843962271	-3.9586307615	-1.0643512188	-0.237899
C	-3.966708243	-5.0032731158	-0.5189766744	-0.380471
H	 1.1957595524	 1.7636918113	 0.6182238972	 0.109712
H	 0.0926446265	 1.8941878895	-0.7577722798	 0.112181
H	-0.5367385036	 1.9893243512	 0.8903311382	 0.111783
H	 0.7782649315	-0.5062468539	-0.3488855977	 0.092254
H	 0.1436947547	-0.416256324	 1.2826075808	 0.098156
H	-2.149646557	 0.0168102321	 0.371795173	 0.090629
H	-1.5233592633	-0.0712117757	-1.2639506	 0.090816
H	-0.7915231414	-2.478499652	-0.8244177407	 0.072247
H	-1.5271991193	-3.6392442788	 1.2583057862	 0.101529
H	-2.326096017	-2.1130877361	 1.8455701708	 0.100462
H	-4.0788732723	-0.9625986449	 0.4054045148	 0.113786
H	-4.5013074511	-1.5696509362	-1.1999390118	 0.110502
H	-4.999899241	-2.4528319929	 0.247792172	 0.115713
H	-3.2597016417	-3.7044774433	-2.0976351453	 0.090362
H	-1.9853580616	-4.4082644554	-1.1190079463	 0.090009
H	-3.9302876411	-5.9201097542	-1.1158610068	 0.108881
H	-3.7250741565	-5.2667304283	 0.5163403692	 0.115754
H	-4.9995328924	-4.6422136085	-0.5375795985	 0.116087
