25
gdb 88991	3.90446	0.76751	0.71292	0.1804	93.43	-0.257	0.0893	0.3463	1726.4119	0.229382	-352.338189	-352.328385	-352.327441	-352.373669	37.186	
C	 0.059456462	 1.5187639874	-0.2382290075	-0.401846
C	 0.083215761	 0.0188491854	-0.0348285493	-0.008953
C	 1.3848768345	-0.7468993179	-0.0114463942	-0.287673
C	 0.5539200225	-0.6316532711	 1.247829523	 0.017613
C	 1.0373087482	 0.1517809737	 2.4534244088	-0.243608
C	 1.8630478694	-0.6907060859	 3.4205923777	 0.07429
C	 3.3014195589	-1.1379943081	 3.0277543072	-0.209628
C	 3.7357735558	-0.896645827	 4.4982573692	-0.210361
C	 2.4710470068	-0.0154208528	 4.6829511974	-0.23946
H	 0.9288164652	 2.0067451405	 0.2114537609	 0.114896
H	 0.0643156944	 1.764779818	-1.3060092548	 0.113847
H	-0.8377932849	 1.9696529605	 0.2012078628	 0.113995
H	-0.7441866382	-0.494054782	-0.5197527095	 0.078084
H	 1.446768177	-1.7033351391	-0.5195535061	 0.104234
H	 2.3008081484	-0.1646802763	-0.0568400879	 0.105007
H	 0.0070838184	-1.5323845547	 1.5212002064	 0.074982
H	 1.6364343479	 1.013404525	 2.1335352353	 0.085942
H	 0.1725314089	 0.5648949691	 2.9932168603	 0.091368
H	 1.2811899955	-1.570182354	 3.7249900988	 0.064572
H	 3.4340333157	-2.1377373219	 2.6075461155	 0.092405
H	 3.7663776652	-0.4140791445	 2.3500742264	 0.093698
H	 3.6791096205	-1.8133816602	 5.0926330193	 0.098993
H	 4.7095662589	-0.4327104151	 4.6725150662	 0.092463
H	 2.6883571047	 1.0424281716	 4.4980771838	 0.094237
H	 1.9191568633	-0.0948552605	 5.6233051502	 0.090902
