18
gdb 44604	2.71372	2.05204	1.52128	3.5936	73.76	-0.2442	0.0008	0.245	905.549	0.151468	-401.971315	-401.964761	-401.963817	-402.002164	27.083	
O	 0.2106747561	 0.3655228218	 0.8176002879	-0.338673
C	 0.0629000688	 1.3709781519	 0.1736057215	 0.386036
C	-1.2191418185	 2.2087596972	 0.074864475	-0.351783
C	-0.7462974247	 3.5014991537	-0.5510246986	-0.062677
C	 0.4945338453	 4.2630188301	-0.0573582555	-0.049471
C	 1.3803798253	 3.78588204	 1.1033626191	-0.256601
C	 2.0996993936	 2.5415507704	 0.5050114216	-0.172349
N	 1.1239161076	 2.0449762907	-0.5010414258	-0.118947
C	 0.6027799438	 3.2396622129	-1.1580966174	-0.055972
H	-1.966946889	 1.7151901364	-0.5562678901	 0.133009
H	-1.6483184548	 2.2898321565	 1.0783249684	 0.135187
H	-1.4653915525	 4.1049079384	-1.0939233297	 0.094971
H	 0.4949982258	 5.3199496637	-0.2988481993	 0.093632
H	 2.0807677573	 4.5702608937	 1.4037338365	 0.106158
H	 0.8035007914	 3.5103144923	 1.9931625171	 0.115914
H	 3.0249245183	 2.8279558392	-0.0023266511	 0.109891
H	 2.3168748157	 1.7496879361	 1.2230669011	 0.135801
H	 0.8890876304	 3.4243682851	-2.1861620205	 0.095873
