18
gdb 46289	3.14476	1.31603	1.22415	3.3975	77.19	-0.2445	0.0223	0.2668	1085.1387	0.149204	-401.983237	-401.975303	-401.974359	-402.016256	29.995	
O	-0.4752494034	 0.0929366218	 0.0213135235	-0.372328
C	-0.231477835	 1.2709223318	 0.0265137881	 0.389287
N	-1.0175208787	 2.3949254827	 0.0491263624	-0.3343
C	 0.0902911298	 3.3553371745	 0.0375414916	-0.214472
C	 1.0606703892	 2.1270034331	 0.0109776723	 0.189328
C	 2.0075673747	 1.9597089415	 1.2255343711	-0.33146
C	 3.3809598881	 2.1750537028	 0.6368662241	-0.063536
C	 3.3579672871	 2.185585988	-0.6938522206	-0.063524
C	 1.9649848889	 1.9793318689	-1.2380795167	-0.331469
H	-2.0193801006	 2.513648914	 0.0673085563	 0.249832
H	 0.1215450234	 3.9914631105	-0.8532296939	 0.109873
H	 0.1525540107	 3.9772883104	 0.9366562436	 0.109875
H	 1.7670351988	 2.6565555514	 2.0369505509	 0.105084
H	 1.9169485058	 0.9485942403	 1.6464087428	 0.131046
H	 4.2691841485	 2.2630827659	 1.2523659753	 0.095318
H	 4.2244189748	 2.2835801536	-1.3382023064	 0.095318
H	 1.8595600988	 0.9750467585	-1.6716566821	 0.131044
H	 1.696781779	 2.6889852602	-2.0294811122	 0.105085
