13
gdb 130064	4.24573	1.02601	0.90858	2.4222	65.61	-0.2482	-0.0376	0.2107	1222.3941	0.091077	-445.09734	-445.08955	-445.088605	-445.130621	27.577	
N	-0.1017321201	 1.3069093288	 0.024312655	-0.574591
C	-0.0456789986	-0.0605386357	 0.0347094546	 0.471527
N	-1.0992657238	-0.859772237	-0.1092884516	-0.322696
N	-0.5213338068	-2.0587355861	 0.0429127754	 0.144444
C	-1.2494279761	-3.3060686797	-0.0455335696	-0.271929
C	-1.7002131343	-3.6046020055	-1.410364972	 0.286822
N	-2.0655186455	-3.8608962532	-2.4746559335	-0.286202
N	 0.7823528661	-2.01386572	 0.2583429348	-0.112045
N	 1.1098264439	-0.7492096542	 0.2607117575	-0.266664
H	 0.7828192193	 1.7513786205	-0.1699065954	 0.272854
H	-0.8793655178	 1.699764559	-0.4835593855	 0.271684
H	-0.5718695687	-4.0891478681	 0.3021135845	 0.198554
H	-2.1158061277	-3.2637792586	 0.6209030758	 0.188243
