20
gdb 120401	2.9863	0.90232	0.77714	3.1091	75.84	-0.2447	0.0049	0.2497	1535.4634	0.170506	-440.313162	-440.303338	-440.302394	-440.348641	35.119	
C	 0.0535053662	 1.4659904889	 0.2976311063	-0.383645
C	-0.0189794824	-0.0350079807	 0.0078267735	-0.172711
C	-1.4572718735	-0.5663397695	-0.0234138125	-0.179364
C	-1.5315597175	-2.0551637109	-0.2898199785	 0.121546
O	-0.9849907195	-2.8483099743	 0.8280683061	-0.256655
C	-2.2041018987	-3.4122009271	 1.1094626895	 0.41624
O	-2.4901898485	-4.11321676	 2.0271355191	-0.327477
C	-2.9011862213	-2.7657693375	-0.1088682297	-0.185878
N	-4.0954221471	-1.9680942783	 0.0309111701	-0.512848
H	 1.0897008571	 1.8169886329	 0.3123058155	 0.11645
H	-0.484230031	 2.0446618529	-0.4617845706	 0.114834
H	-0.3915074049	 1.7033445524	 1.270223892	 0.117255
H	 0.4644039105	-0.249222556	-0.9545048134	 0.096968
H	 0.5465945771	-0.5895426477	 0.7653155075	 0.120466
H	-1.9520067723	-0.3429712291	 0.9308511176	 0.094138
H	-2.0394449011	-0.0566233317	-0.801418166	 0.11693
H	-0.9969150392	-2.3222807646	-1.2064357712	 0.09305
H	-3.0663255469	-3.5156978952	-0.887612788	 0.120678
H	-4.9192760241	-2.558434058	 0.0085078048	 0.247329
H	-4.111253093	-1.4777244365	 0.9190466778	 0.242693
