16
gdb 44361	3.61829	1.68425	1.42094	4.6951	68.89	-0.2431	0.0538	0.2969	915.18	0.126865	-437.86629	-437.859838	-437.858893	-437.897261	26.172	
N	-0.0961891045	 1.2042662238	 0.7386768747	-0.550819
C	 0.0197438044	 0.1579917661	 0.0451371804	 0.459837
O	-1.0910954014	-0.3948850637	-0.5011788881	-0.240977
C	-1.1121698383	-1.770515873	-0.8252087561	 0.111913
C	-0.5530606326	-2.2699504675	-2.1223783741	-0.093282
C	 0.6091790236	-1.3649895526	-2.5297700111	-0.270093
C	 1.2211506404	-1.565515206	-1.103386769	 0.096704
O	 1.2152964338	-0.4349660287	-0.2290238207	-0.271777
C	 0.1332102495	-2.578188163	-0.7690296298	-0.141525
H	 0.8276138705	 1.5349186742	 1.0099518077	 0.225336
H	-2.0300744549	-2.2262456264	-0.4724508268	 0.121337
H	-1.1102845808	-2.9367280354	-2.7676121523	 0.10099
H	 1.2478309272	-1.8095287449	-3.2955130674	 0.116786
H	 0.3619021605	-0.3388997515	-2.8133653493	 0.12596
H	 2.247750169	-1.9261312928	-1.0964840726	 0.105539
H	 0.2426455536	-3.4901243987	-0.1970180555	 0.104072
