18
gdb 46923	3.37171	1.38077	1.07851	5.228	71.99	-0.2475	0.0497	0.2972	1107.7205	0.150674	-439.111088	-439.103439	-439.102495	-439.143413	29.752	
O	-0.0392266413	-0.0992951436	 0.3044149866	-0.383308
C	-0.0066360119	 1.0787682236	 0.0411686156	 0.452009
N	-1.1415257234	 1.8558427043	 0.1213061829	-0.353491
C	-1.4199520269	 3.2509351795	-0.2122208634	-0.203224
C	-0.8716293631	 3.6579066658	-1.5641858402	-0.001611
C	-0.0368717162	 4.9072359728	-1.6892703597	-0.319583
C	 0.624558574	 3.5515992832	-1.7300201299	-0.015799
C	 1.3873097673	 3.0309755918	-0.5420082376	-0.095961
O	 1.1792504946	 1.6250819192	-0.3411493333	-0.244346
H	-1.9136067734	 1.2992924946	 0.4497785632	 0.25661
H	-2.5084217531	 3.3580123969	-0.2019574413	 0.117717
H	-1.0462618534	 3.9266020097	 0.56806265	 0.11255
H	-1.4788527558	 3.370037595	-2.4161487437	 0.098848
H	-0.0902991008	 5.4718490664	-2.6126664835	 0.123587
H	 0.0988186936	 5.5191738928	-0.8026292725	 0.117438
H	 0.9906220033	 3.2051144247	-2.6910936871	 0.102654
H	 2.4662189515	 3.1178349349	-0.6926440047	 0.124777
H	 1.142004635	 3.5833171784	 0.3714699584	 0.111134
