17
gdb 23585	4.45912	1.25898	1.20583	1.691	76.41	-0.2324	0.003	0.2355	1052.2282	0.138186	-417.893079	-417.886264	-417.88532	-417.92423	27.801	
O	-0.1451641967	 1.3689883203	 0.0837393717	-0.395137
N	 0.0312312351	-0.0264682899	-0.0233353379	-0.30841
C	-1.0814078105	-0.6234215561	-0.0875552214	 0.498973
C	-2.5678354896	-0.3332898897	 0.0161530258	-0.170474
C	-2.9925650308	-0.970035063	-1.332248648	-0.164652
N	-2.553879932	-2.380485266	-1.0623807216	-0.152464
C	-3.4564518707	-2.6916681958	 0.1161723925	-0.188276
C	-2.6482877391	-1.6674877559	 0.9013938817	-0.046007
C	-1.4348229785	-2.0718455427	-0.0087972209	-0.096901
H	 0.7648377437	 1.6814805872	 0.1295512411	 0.307154
H	-2.9643174053	 0.6268411648	 0.3322247357	 0.095371
H	-4.0654583754	-0.9406604166	-1.5356631969	 0.105609
H	-2.4556752703	-0.5501559394	-2.1860754016	 0.118659
H	-4.5247172074	-2.5448809009	-0.0697296692	 0.102998
H	-3.2789377728	-3.7141098497	 0.46047861	 0.11323
H	-2.5916822277	-1.5627104656	 1.9838995949	 0.085844
H	-0.7421228221	-2.8907627009	 0.160008164	 0.094483
