17
gdb 36333	5.13465	0.76938	0.72145	3.2722	80.1	-0.2429	0.0198	0.2628	1523.809	0.135128	-380.818435	-380.809579	-380.808635	-380.852709	32.101	
C	 0.03474916	-1.2031873486	-0.0013041698	-0.423419
C	 0.0093352354	-0.0024307541	-0.0159654203	 0.304161
C	-0.0187548566	 1.4568664294	-0.0038383816	-0.313002
N	 1.3203568104	 2.0216139345	 0.0653980169	-0.076192
C	 2.1101106726	 1.8105354211	 1.2934525126	-0.174922
C	 2.6750936552	 3.2514273011	 1.1152891239	-0.155329
C	 1.4411273057	 3.4847050025	 0.194820206	-0.18037
C	 2.8256464108	 4.0858552353	 2.2912484751	 0.268619
N	 2.9367848978	 4.7503111858	 3.2308596525	-0.322689
H	 0.0531170732	-2.2650920948	 0.0015080014	 0.203172
H	-0.4952925915	 1.8255939619	-0.9213833653	 0.140619
H	-0.6527829512	 1.7980553582	 0.8390402755	 0.113309
H	 1.4970953895	 1.7293092919	 2.2039953294	 0.113595
H	 2.8201759838	 0.9816925047	 1.2564776876	 0.130144
H	 3.6034047721	 3.2462441285	 0.5409565676	 0.138012
H	 1.6044936954	 4.0267954421	-0.7405753113	 0.123925
H	 0.6112403673	 3.9504551905	 0.7493884699	 0.110366
