22
gdb 112879	2.40039	1.29832	1.03515	2.195	81.92	-0.2065	-0.019	0.1875	1278.6742	0.193657	-404.365769	-404.356052	-404.355108	-404.400959	35.794	
C	 0.3546247551	 1.1577465154	 0.2202420281	-0.387813
C	-0.072062635	-0.3068044587	 0.0860757845	-0.186496
C	-1.6032852238	-0.4934031066	-0.0242891342	-0.096247
C	-2.0663280663	-1.9290435357	-0.3694481231	-0.209883
N	-2.475780647	-2.5983442118	 0.8830961286	-0.062759
C	-1.4259514566	-3.3851468286	 1.5196825621	-0.332881
C	-3.0055043538	-1.5375812302	 1.7352111304	-0.282005
C	-2.3089204104	-0.2321607183	 1.3164683632	 0.387062
O	-2.3237613749	 0.8016614659	 1.9354268698	-0.313454
H	 1.4415861888	 1.2384621159	 0.319443399	 0.108702
H	 0.0554104014	 1.7324796659	-0.6635006225	 0.111954
H	-0.1105813389	 1.6237855408	 1.0916665322	 0.150664
H	 0.3868139667	-0.7469224484	-0.8079357006	 0.098634
H	 0.3107412238	-0.8834747035	 0.9372286387	 0.105304
H	-1.9804316126	 0.2337794068	-0.7531061201	 0.098192
H	-2.9332147093	-1.8872036104	-1.041515211	 0.103602
H	-1.2928600079	-2.5155069764	-0.8717642464	 0.103882
H	-0.5569072257	-2.8021089149	 1.8760595557	 0.099588
H	-1.8437266476	-3.916120117	 2.3809051398	 0.124495
H	-1.0595412719	-4.1367048441	 0.8141750441	 0.12301
H	-4.0854945814	-1.4008294387	 1.5686004709	 0.126924
H	-2.8663590227	-1.7401105972	 2.7998408507	 0.129524
