20
gdb 63351	2.62133	1.39543	1.14272	3.0495	81.57	-0.217	-0.0034	0.2136	1155.7017	0.171391	-403.210257	-403.201435	-403.200491	-403.24327	34.528	
C	 0.0046612707	 1.5519070658	-0.0059820572	-0.422597
C	-0.0359367642	 0.0144069834	 0.0233559444	 0.206035
C	-1.5078596369	-0.4580510905	 0.0538787293	-0.403989
C	 0.6733174142	-0.5398199235	-1.2349081636	-0.343793
C	 1.0147023322	-2.0234241464	-1.1840622341	 0.387811
O	 1.018629018	-2.7575293755	-2.1504250053	-0.361986
N	 1.3985806681	-2.4635136897	 0.0658800134	-0.329548
C	 1.3214658207	-1.6829018786	 1.2242362825	-0.001329
C	 0.6849586974	-0.511384545	 1.2488540285	-0.129178
H	 1.0353043284	 1.9210957502	-0.0024340396	 0.114771
H	-0.4930573412	 1.9392275095	-0.901563286	 0.114609
H	-0.5062220658	 1.9712702728	 0.8676477976	 0.1124
H	-2.0566969512	-0.0737374897	-0.8136981007	 0.113009
H	-1.5754538124	-1.5502682845	 0.0415192665	 0.124129
H	-2.0105995787	-0.1021085585	 0.9586659676	 0.112693
H	 0.0849746591	-0.3689005393	-2.1395774377	 0.124228
H	 1.6302951039	-0.0157348649	-1.3667534218	 0.123539
H	 1.7160390825	-3.4194844203	 0.1157088622	 0.253564
H	 1.8144054047	-2.1085127547	 2.0906011007	 0.115982
H	 0.6446391306	 0.0574220594	 2.1707961034	 0.089649
