21
gdb 58176	2.36491	1.07008	0.95177	1.1786	79.5	-0.2476	-0.0941	0.1535	1379.499	0.17863	-424.256279	-424.245461	-424.244517	-424.292703	38.278	
C	 0.1135001783	 1.4825825143	-0.1126493606	-0.408187
C	 0.0207196597	-0.0478418244	-0.0434133828	 0.046678
C	 0.6074013432	-0.6700310272	-1.320602102	-0.405645
C	 0.7126571279	-0.6196819251	 1.213033294	-0.071018
C	 0.2566851688	 0.0349198836	 2.5403097134	-0.423675
C	 0.4592973427	-2.1073332064	 1.365341884	 0.28742
O	-0.5328550118	-2.6925179183	 0.9935099031	-0.293643
C	 1.5295525249	-2.942456916	 2.0922904524	 0.095924
O	 2.5825919356	-2.504919594	 2.4743508189	-0.221456
H	 1.1577601155	 1.8178763049	-0.0922465821	 0.11316
H	-0.3291516191	 1.845660289	-1.0456808149	 0.115207
H	-0.4132620584	 1.9718698392	 0.7107665353	 0.116309
H	-1.0374564867	-0.3312290428	 0.0156358621	 0.092242
H	 1.6710809187	-0.423003516	-1.4239346405	 0.112215
H	 0.5080757476	-1.7587311079	-1.3261486072	 0.124211
H	 0.0930524691	-0.2880900226	-2.2079664805	 0.114903
H	 1.7986180187	-0.4821838682	 1.137705667	 0.101816
H	-0.8308916992	-0.0279115774	 2.6499273385	 0.131082
H	 0.7179234235	-0.4576873365	 3.4011745991	 0.131511
H	 0.5490707927	 1.086362486	 2.5701487046	 0.133431
H	 1.2258824583	-4.0043154344	 2.2137574085	 0.107514
