20
gdb 65575	3.23803	1.2209	1.17632	4.0756	81.92	-0.2836	0.0421	0.3257	1147.8664	0.172473	-366.033344	-366.024972	-366.024028	-366.065968	32.808	
C	 0.4696034401	 1.2749231738	 0.0314232118	-0.436263
C	-0.0655722037	-0.1748084299	-0.0009535522	 0.124326
C	 0.4813845806	-0.9895141347	-1.2306330805	-0.266241
C	 1.5376221679	-1.9403042349	-0.6924333141	-0.024803
C	 2.6782629756	-1.3791671609	 0.11998547	-0.294563
C	 1.4676140405	-1.9481833471	 0.8174880531	-0.024803
C	 0.3656493531	-1.0025394187	 1.2655134213	-0.266239
C	-1.5301774884	-0.09955441	-0.0684835696	 0.258652
N	-2.6837542073	-0.0368173579	-0.1214948683	-0.354073
H	 1.5600432073	 1.2867403797	 0.0820466315	 0.128823
H	 0.1634790439	 1.8192078104	-0.8662970902	 0.135598
H	 0.0814597818	 1.8099838139	 0.9025800689	 0.1356
H	-0.3281412767	-1.5685907995	-1.6837129147	 0.125711
H	 0.8587151532	-0.3094696239	-2.00142788	 0.111747
H	 1.7111349825	-2.8548259461	-1.248398134	 0.09059
H	 3.5871145332	-1.9700596001	 0.1590421727	 0.115024
H	 2.8571708034	-0.3099740614	 0.1338590123	 0.112863
H	 1.589380512	-2.8685288565	 1.3775691066	 0.09059
H	 0.6697106717	-0.330743882	 2.0749584846	 0.111748
H	-0.4820456009	-1.5859155043	 1.6356883705	 0.125714
