22
gdb 22910	3.05097	1.10541	0.90727	0.8338	85.44	-0.2367	0.0129	0.2496	1359.1772	0.193748	-404.336793	-404.327176	-404.326232	-404.370949	36.813	
C	-0.3780805318	 1.4290798172	-0.0076332708	-0.415961
C	 0.073533941	-0.0287069992	 0.0382155392	 0.032786
C	 0.9344651194	-0.4740355533	-1.1635854024	-0.227277
C	 1.5423073421	-1.8188795331	-0.7232011381	-0.302328
C	 1.5763186493	-1.7307703998	 0.788134592	 0.403583
N	 2.0580341207	-2.5748134839	 1.6086714591	-0.236581
O	 2.6270407838	-3.6739639099	 0.932042206	-0.397413
C	 0.9164252969	-0.4513746714	 1.2755719179	-0.07437
C	 1.9733968931	 0.5766535017	 1.7208261684	-0.396887
H	 0.4732752208	 2.1151893652	-0.0622810612	 0.11759
H	-1.0043089535	 1.6109488016	-0.8875342484	 0.112733
H	-0.9665493731	 1.6958262594	 0.8769869377	 0.113297
H	-0.824805653	-0.6623230586	 0.044254087	 0.074789
H	 0.3536224914	-0.5498945999	-2.0871094365	 0.096737
H	 1.7277353	 0.2611910636	-1.3452586067	 0.100767
H	 0.9118913735	-2.6678532628	-1.0163472573	 0.125569
H	 2.5339017326	-2.0233953984	-1.1368323039	 0.125707
H	 2.937719701	-4.2197598843	 1.6619087271	 0.303228
H	 0.2712638673	-0.6635524162	 2.1338607395	 0.085238
H	 2.6508089869	 0.8495087773	 0.9045013492	 0.114233
H	 1.5041874241	 1.4934267693	 2.0903700637	 0.113926
H	 2.5793948278	 0.1525852256	 2.5256674984	 0.130636
