15
gdb 18851	3.74486	2.3028	1.91882	2.9351	64.04	-0.2424	-0.0168	0.2256	731.8546	0.121319	-362.652205	-362.646305	-362.645361	-362.68214	23.398	
O	-0.025396841	 0.0231822065	-0.1232889176	-0.32802
C	-0.0440159693	 1.2096503678	 0.0484465506	 0.447376
C	-1.1186073462	 2.2432432538	 0.0637000377	-0.19415
C	-0.74075829	 3.3667883302	 0.9910532549	-0.004629
C	 0.2154018491	 3.1282250351	 2.1550037897	-0.25733
C	 1.517796203	 2.6791646923	 1.4456389555	-0.219733
C	 1.0290084466	 2.313175841	 0.0453866693	-0.128277
N	-0.0767161695	 3.3164049725	-0.3096605983	-0.134589
H	-2.0976115903	 2.1794641547	-0.3990989113	 0.119221
H	-1.4937035819	 4.1453083422	 1.0774909684	 0.107845
H	 0.3596462487	 4.0497611932	 2.7248808785	 0.116554
H	-0.1672631079	 2.3720358894	 2.8458889698	 0.123862
H	 2.2366491398	 3.5020840609	 1.3869609484	 0.118714
H	 2.008581126	 1.8365422442	 1.9389074973	 0.12594
H	 1.793297423	 2.2203856562	-0.7258730431	 0.107216
