19
gdb 20134	5.52272	1.38172	1.23186	0.8051	76.21	-0.2299	0.0911	0.321	1027.481	0.166559	-327.85986	-327.852702	-327.851758	-327.891351	28.08	
C	 0.1371644679	 1.4972686189	 0.0809276528	-0.285517
C	 1.440300766	 0.7528719545	-0.0018379854	-0.029393
C	 1.7250463562	 0.0425735975	 1.3262814704	-0.256432
C	 0.3602480772	-0.7119375717	 1.1973528159	 0.067114
C	 0.1108201842	 0.0097563887	-0.1333954797	-0.052221
N	 0.5488695912	-2.1426029266	 1.0314545899	-0.066886
C	 0.4531660013	-2.9454937436	 2.2471227453	-0.225057
C	-0.6352434761	-2.9735221971	 1.2314796308	-0.226853
H	-0.1944771512	 1.9256675072	 1.0253044218	 0.100008
H	-0.1184455227	 2.0944265505	-0.7886901553	 0.109619
H	 2.1751350396	 0.9739899307	-0.7660901117	 0.082164
H	 2.5487496035	-0.6707001951	 1.2624494077	 0.114865
H	 1.8636829876	 0.6829946656	 2.2039502069	 0.087379
H	-0.3811313286	-0.4872738112	 1.9861050601	 0.044587
H	-0.3423492095	-0.4476920266	-1.0042091656	 0.086562
H	 1.1559946745	-3.7696430267	 2.3278012297	 0.115206
H	 0.244334138	-2.4303659727	 3.1836428645	 0.109311
H	-1.5694079995	-2.4780480345	 1.4919131692	 0.110216
H	-0.7406073796	-3.8181135978	 0.5566456327	 0.115326
