21
gdb 56252	5.4112	0.55114	0.52589	3.7217	80.31	-0.2435	-0.0091	0.2344	2104.3496	0.179298	-424.229907	-424.219394	-424.218449	-424.267655	36.214	
C	 0.2399107681	 1.4882311021	-0.0547613873	-0.473003
C	 0.1128763196	-0.0207568419	 0.0702961917	 0.378321
O	 0.1506912547	-0.577678438	 1.1432166139	-0.289021
C	-0.0675309117	-0.7901793691	-1.23387604	-0.306735
C	-0.0161021157	-2.3078658699	-1.0686029283	-0.16539
C	-0.2903670143	-3.060312759	-2.3769119713	-0.231246
C	-0.1981152295	-4.5568059166	-2.2041973606	 0.10097
C	 0.3164181239	-5.4437162267	-3.2539546186	-0.181896
O	 1.12039862	-5.1081030907	-2.1217268624	-0.235436
H	 1.1766539078	 1.7406431138	-0.5655544668	 0.141012
H	-0.5730521891	 1.9014765965	-0.6614731981	 0.133109
H	 0.2361011669	 1.9448564554	 0.935640123	 0.142789
H	-1.030152573	-0.4758275714	-1.6656451931	 0.1185
H	 0.6884911778	-0.4418173525	-1.9515176948	 0.115847
H	 0.9665112605	-2.6001135446	-0.6834408886	 0.126468
H	-0.7394245002	-2.6076072608	-0.3024284198	 0.114587
H	-1.2919478809	-2.8080323886	-2.7526575076	 0.096866
H	 0.4263348826	-2.7520253538	-3.1481989087	 0.099766
H	-0.8946207637	-4.9853972876	-1.4800395511	 0.091308
H	-0.0152770722	-6.4801041448	-3.3035567085	 0.113369
H	 0.6435662282	-5.0174284319	-4.2019477233	 0.109815
