21
gdb 99607	2.16407	1.26528	1.02589	3.0747	83.16	-0.2463	0.0308	0.2771	1300.2432	0.181763	-383.263514	-383.253389	-383.252444	-383.298572	37.076	
C	-0.1780981679	 1.5335106442	-0.0837371839	-0.329802
N	-0.1556266612	 0.1226189583	 0.297529335	-0.277639
C	-1.3959909747	-0.5946393691	 0.0258905339	-0.189757
C	-1.7276968609	-0.6337886409	-1.4253587633	 0.276569
N	-1.9293305762	-0.6456592145	-2.5642600479	-0.340823
C	-1.3811712896	-2.0109929168	 0.60044849	 0.388455
C	-0.3177166921	-2.9355377498	 0.0402625615	-0.490333
C	-1.7666818912	-2.1421012005	 2.0507750944	-0.31322
C	-2.7230409082	-2.5946559398	 0.9733443698	-0.304137
H	 0.7984356442	 1.9744239896	 0.1325224307	 0.127302
H	-0.4143004214	 1.7116947828	-1.1447812477	 0.125195
H	-0.9236016815	 2.0600762349	 0.5224432778	 0.125858
H	 0.6132065329	-0.3442616667	-0.1714004299	 0.230659
H	-2.2037327208	-0.0363947746	 0.5154851144	 0.118147
H	 0.691640085	-2.5877416621	 0.2881473588	 0.121536
H	-0.423937059	-3.9395847104	 0.460467565	 0.1222
H	-0.3964407602	-3.0196151881	-1.0492205351	 0.140232
H	-1.2596354851	-2.8990898408	 2.6392265808	 0.116135
H	-2.0008838361	-1.2381926684	 2.6024728506	 0.117921
H	-3.6132070029	-2.000565497	 0.7943542241	 0.117776
H	-2.867228843	-3.6589583904	 0.823745381	 0.117725
