21
gdb 40862	3.74387	1.42886	1.31361	0.2896	85.32	-0.2393	0.0894	0.3287	1058.5676	0.184616	-349.892333	-349.885169	-349.884224	-349.923685	30.115	
C	 0.0077990676	 1.5627165039	-0.068005734	-0.211049
C	 1.5521749078	 1.5619479517	 0.0946326614	-0.304222
C	 1.4590740341	 0.10683042	 0.6230701821	 0.428638
C	 0.0284598514	 0.0117546364	 0.0267017433	-0.288922
C	 2.4366054856	-1.0365637503	 0.4060879425	-0.158173
C	 3.4208401859	-1.0513927818	 1.5867814343	-0.074889
C	 3.0460265158	 0.1104805002	 2.5051904108	-0.242033
C	 1.5732184905	-0.2220817716	 2.1399533174	-0.132733
C	 2.0534778208	-1.6732473106	 1.7243053179	-0.076636
H	-0.4937971566	 2.0187065669	 0.7900220353	 0.100022
H	-0.4031034607	 2.0023777645	-0.9795344261	 0.093796
H	 2.0676815456	 1.6093603307	-0.8701929827	 0.096668
H	 1.9949737972	 2.3118511844	 0.7564044171	 0.092588
H	-0.7392762502	-0.4770955955	 0.6334932743	 0.09295
H	 0.033620971	-0.4544952352	-0.9640780027	 0.093603
H	 2.6733499335	-1.5359131811	-0.5261913274	 0.074998
H	 4.3721968034	-1.5620307189	 1.5048399701	 0.081713
H	 3.2638472496	-0.1253103845	 3.5509380983	 0.095035
H	 3.414167872	 1.1165473947	 2.2718484497	 0.088031
H	 0.7569103947	 0.0221492451	 2.8184893591	 0.063995
H	 1.729493511	-2.671424549	 1.9785063693	 0.086619
