15
gdb 33817	2.29039	1.59029	1.10431	1.9011	81.45	-0.2385	-0.006	0.2325	1103.3578	0.109403	-383.383255	-383.374924	-383.37398	-383.416015	31.955	
C	 0.005428919	-1.2080869708	 0.0829121422	-0.359802
C	 0.04433184	-0.0082186839	 0.0131330474	 0.21768
C	 0.0545992199	 1.4057956004	-0.1212822926	 0.161122
C	-0.7644719511	 2.2790246343	-1.0899124555	-0.305135
C	 0.407073983	 3.3161993309	-1.0957227253	-0.305117
C	 1.1799646607	 2.4020249179	-0.1269265587	 0.161124
O	 0.341600561	 2.2218334468	 1.0242386922	-0.306787
C	 2.5855210533	 2.2413910129	 0.0004040358	 0.217815
C	 3.7816003789	 2.1347980065	 0.0644498188	-0.359904
H	-0.0201881118	-2.2672157744	 0.1585188578	 0.194667
H	-0.9151527188	 1.80569144	-2.061427685	 0.123572
H	-1.7219145923	 2.6134108587	-0.6863748307	 0.121266
H	 0.8897515046	 3.4036179252	-2.0703869125	 0.123567
H	 0.1934793745	 4.3090887349	-0.6958397971	 0.121269
H	 4.8364622092	 2.0320334906	 0.1339588333	 0.194665
