18
gdb 22508	2.3537	1.20983	1.1063	0.8475	82.25	-0.2469	-0.001	0.2459	1219.3873	0.144333	-401.863873	-401.85418	-401.853235	-401.899113	35.759	
C	-0.1703382465	 1.5513134604	 0.2551658828	-0.437477
C	 0.0008169212	 0.0407924267	 0.0380446493	 0.040704
C	 0.8523978305	-0.374079382	-1.2321435964	-0.263101
C	 1.8763993905	-1.1188438172	-0.3225223709	-0.320414
C	 1.1125126201	-0.6079406489	 0.8765603744	 0.389494
N	 1.2698456555	-0.5811530367	 2.1302597803	-0.233021
O	 2.452178607	-1.242177424	 2.5072250767	-0.38956
C	-1.2737724529	-0.6590426776	 0.1274345528	 0.316157
C	-2.3276827532	-1.2351187502	 0.1850914583	-0.484248
H	 0.7969150702	 2.0573111648	 0.1819341687	 0.115428
H	-0.8449552007	 1.9695381069	-0.4977740859	 0.125258
H	-0.5879417101	 1.7486486459	 1.2453694587	 0.141745
H	 0.3178910255	-0.9962340787	-1.9491326334	 0.118961
H	 1.2691033561	 0.4937207302	-1.747126432	 0.111407
H	 1.8586956913	-2.2088527109	-0.4155265269	 0.1352
H	 2.9179249874	-0.7920518609	-0.3803049486	 0.13005
H	 2.441718532	-1.1447382338	 3.4655434978	 0.307975
H	-3.2564458439	-1.7458887341	 0.2479111842	 0.195441
