17
gdb 46371	3.48379	1.10391	0.88754	3.4075	67.73	-0.2571	0.0022	0.2593	1258.6045	0.136436	-458.958149	-458.950008	-458.949063	-458.992567	28.569	
O	 0.3630524814	 0.0972938973	 0.185962184	-0.32356
C	 0.159368925	 1.2414542353	-0.0621795042	 0.458271
O	-0.9844866182	 1.8053933736	-0.5686722394	-0.237667
C	-0.4104424669	 3.1518984211	-0.5075932845	-0.107716
C	 0.9101796034	 2.5760695778	 0.0441436742	-0.205424
C	 1.3699467632	 2.9654065298	 1.4388843819	-0.047887
C	 2.6331700849	 2.2228431954	 1.935160625	-0.083477
O	 3.4312472314	 3.4206229497	 1.821409763	-0.26932
C	 2.2706184793	 4.2203748995	 1.5295061765	-0.089989
H	-0.3735584098	 3.6016767468	-1.5012913194	 0.130633
H	-0.9817658642	 3.7814244944	 0.178774751	 0.12728
H	 1.7435681484	 2.6300671437	-0.6633032296	 0.122691
H	 0.5273254083	 2.9511646316	 2.1349520961	 0.089736
H	 2.5752152964	 1.8638655691	 2.9699421252	 0.108533
H	 3.0013541313	 1.412577886	 1.29680126	 0.122688
H	 2.3904668236	 4.803842067	 0.6077745364	 0.101986
H	 2.0222930125	 4.9037449518	 2.3522352439	 0.10322
