23
gdb 64208	2.75091	1.2017	1.09354	1.5996	85.37	-0.2629	0.0799	0.3428	1263.6761	0.204696	-388.266289	-388.256773	-388.255829	-388.300301	36.552	
C	-0.0113429127	 1.5365902834	 0.046556353	-0.435804
C	-0.0050911565	 0.0057012021	-0.0020814297	 0.322361
C	-1.3783072407	-0.5287634122	-0.3978231771	-0.451235
C	 1.2069743499	-0.544097625	-0.8209928949	-0.259262
C	 1.9773485091	-0.798404482	 0.5005060576	-0.252848
C	 0.6402882194	-0.6626934358	 1.2728836144	-0.021842
C	 0.6214667361	 0.0624611899	 2.5916224772	 0.055175
C	 1.7305497514	-0.0169318696	 3.5523509081	-0.184699
O	 1.5270410388	 1.1591905946	 2.767172002	-0.230817
H	 0.9596034364	 1.9407880622	 0.3432485392	 0.133867
H	-0.2642889893	 1.9420755577	-0.9399208129	 0.104793
H	-0.7538482574	 1.9115275922	 0.7598353018	 0.1094
H	-1.683566079	-0.1437532677	-1.3780583706	 0.112132
H	-1.3802706108	-1.6228541285	-0.4538091702	 0.105549
H	-2.1460050649	-0.2287772584	 0.3258869461	 0.109015
H	 0.9601814181	-1.4744589619	-1.3412303084	 0.092561
H	 1.6626796287	 0.1432535724	-1.5388813273	 0.094344
H	 2.5130446459	-1.7458187958	 0.5935918446	 0.092166
H	 2.6588808567	 0.0187966047	 0.7481418718	 0.12046
H	 0.1809846456	-1.6471100101	 1.4282367787	 0.068945
H	-0.3726418066	 0.2566482827	 3.0005665531	 0.088867
H	 1.5363747625	 0.0933674024	 4.6183487602	 0.112733
H	 2.6173592495	-0.5965250574	 3.2996093534	 0.114138
