20
gdb 83049	2.15432	1.82882	1.36272	2.147	79.7	-0.2204	0.0107	0.2311	1039.2037	0.171972	-403.121921	-403.113458	-403.112514	-403.154517	33.032	
C	 0.3913198378	 1.6662739022	 0.0063305486	-0.341907
N	 0.1446077615	 0.2325160497	 0.0100071221	-0.091062
C	 1.1396634709	-0.7335629655	-0.4347962947	-0.035621
C	 2.5575254567	-0.3354853566	-0.8118225213	-0.291705
C	 3.3876632829	 0.2220738852	 0.3095332777	-0.057158
C	 2.9993924047	 0.2528508103	 1.5823760138	-0.09608
C	 1.6836976645	-0.2719847574	 2.0875996075	 0.071285
O	 1.0930698551	 0.6215704155	 3.038320206	-0.440541
C	 0.7004106041	-0.6832110371	 1.000664339	-0.060835
H	 1.4146384351	 1.9806410787	 0.2514352198	 0.112122
H	 0.1487953697	 2.0569855777	-0.9876569591	 0.12448
H	-0.3005249749	 2.138532405	 0.7132595165	 0.124972
H	 0.7234080493	-1.5112560576	-1.0741362622	 0.086664
H	 3.0625843602	-1.2206399792	-1.2238310436	 0.119783
H	 2.5335020951	 0.3843673029	-1.643482984	 0.114858
H	 4.366377372	 0.610035361	 0.0353315841	 0.092265
H	 3.6500888603	 0.6619702711	 2.3514777027	 0.096168
H	 1.8846149909	-1.1742818347	 2.6822683411	 0.099262
H	 0.9548374264	 1.4647956703	 2.594886757	 0.281823
H	-0.0288631024	-1.4117026917	 1.351910369	 0.09123
