19
gdb 99053	4.07028	0.76312	0.72587	3.3958	79.	-0.2436	-0.0152	0.2284	1615.9731	0.154803	-423.009669	-422.99888	-422.997935	-423.046782	37.8	
C	-0.1521115341	 1.4963231364	-0.4255940559	-0.379012
C	-0.3787318449	-0.0118192435	-0.4413273644	-0.284797
C	-1.4853245885	-0.4776389364	 0.4842032765	 0.395059
O	-2.141356229	 0.2820260947	 1.1595874509	-0.314731
C	-1.783967514	-1.9785572321	 0.5050302077	-0.29886
C	-3.1521403115	-2.2365836274	-0.167219999	-0.041599
O	-3.1446819714	-1.7991549717	-1.5261652609	-0.425829
C	-3.5489569235	-3.6395009038	-0.053313436	 0.28868
C	-3.8354320461	-4.8056175991	 0.0058415441	-0.434686
H	 0.6461561634	 1.7764908487	-1.1184303168	 0.109242
H	-1.063109811	 2.0275215556	-0.7120882846	 0.135842
H	 0.1221739076	 1.8396825205	 0.575424959	 0.129664
H	-0.651647751	-0.3717675117	-1.4437515417	 0.129359
H	 0.5363079208	-0.56203027	-0.1789271911	 0.117782
H	-1.0106145369	-2.5601416647	-0.0065450772	 0.101548
H	-1.8340461138	-2.3055072562	 1.5481329455	 0.136728
H	-3.8882355563	-1.6006616198	 0.3373802164	 0.143807
H	-2.7653838369	-2.5079857192	-2.0573530694	 0.288069
H	-4.1115228328	-5.8295714602	 0.067241917	 0.203734
