22
gdb 94555	2.46353	1.44425	1.16326	2.0869	81.33	-0.2375	0.0745	0.312	1177.9849	0.19395	-404.309899	-404.30041	-404.299466	-404.344273	35.526	
C	-0.855981956	 1.2619850119	 0.1131595012	-0.419859
C	-0.2284573032	-0.1268684785	 0.0723581061	-0.044145
C	 0.9730355601	-0.3001801958	-0.8811500516	-0.081131
O	 1.875333914	-0.5644602136	 0.2153653828	-0.296255
C	 0.7945321515	-0.5509909709	 1.1775897427	 0.051528
C	 1.0893721391	 0.3442145872	 2.3644845827	 0.322268
C	-0.0129634484	 0.4231280661	 3.3997915283	-0.464188
C	 2.5062001606	 0.4384272801	 2.800707926	-0.28402
N	 1.8502719121	 1.5841296172	 2.1337351882	-0.356243
H	-0.1217390907	 2.0377956636	 0.3461723024	 0.139439
H	-1.3010807507	 1.4976211439	-0.8601087684	 0.114963
H	-1.6534072153	 1.3245758229	 0.8593198123	 0.124207
H	-1.0067411483	-0.878909079	-0.080127766	 0.079395
H	 0.913395119	-1.1524908473	-1.5690581748	 0.102666
H	 1.2690182048	 0.5932227332	-1.4452244548	 0.10155
H	 0.5972353859	-1.5682929851	 1.5478806919	 0.074858
H	-0.2233822456	-0.5669710026	 3.8204731125	 0.114711
H	 0.2861997648	 1.0868052923	 4.2144508458	 0.131983
H	-0.9429528752	 0.814241793	 2.9761105159	 0.120494
H	 2.7324203435	 0.5850742732	 3.8534876739	 0.109069
H	 3.2512009334	-0.1127099836	 2.2355981004	 0.12771
H	 2.1703333348	 1.5798646218	 1.1661468426	 0.231
