16
gdb 12990	2.78831	2.56027	1.56974	2.7698	64.23	-0.2389	-0.0262	0.2127	829.471	0.13014	-383.762077	-383.754751	-383.753807	-383.793542	27.516	
C	-0.2975195638	 1.4907122823	 0.0719034896	-0.494646
C	 0.1273598776	 0.0569264542	-0.009816961	 0.291665
O	-0.6675301083	-0.9349298023	 0.6894212173	-0.290032
C	 0.6986751331	-0.775997901	 1.0680197081	-0.009273
C	 1.5929761286	-1.8677306184	 0.5030468481	-0.25043
C	 1.2392380074	-1.9080811213	-1.0012510156	-0.333149
C	 0.6228637043	-0.5378224928	-1.3119557714	 0.377807
O	 0.5791143448	 0.0068896378	-2.3853900535	-0.315542
H	 0.5341163471	 2.1519537565	-0.1894579869	 0.134796
H	-1.1084771371	 1.685649028	-0.6359469397	 0.14565
H	-0.642561016	 1.7324340249	 1.0797615217	 0.129959
H	 0.8648650499	-0.3725316029	 2.064248754	 0.101628
H	 2.6426936998	-1.5923359837	 0.6532614238	 0.114654
H	 1.4275471679	-2.8238841485	 1.007901033	 0.119442
H	 2.0951045481	-2.0895862405	-1.6536263916	 0.131193
H	 0.4913854365	-2.6772813925	-1.2182222458	 0.146279
