19
gdb 78362	2.67358	1.44134	1.14614	3.6748	76.99	-0.2233	0.0795	0.3028	1136.8162	0.15898	-419.118718	-419.110256	-419.109312	-419.15159	32.784	
C	-0.1550908776	 1.25344409	-0.0729656059	-0.317515
N	 0.1457927275	-0.1697261203	 0.0633915911	-0.125485
C	 1.5729374577	-0.4861160471	-0.1179504959	-0.062837
C	 0.9715621911	-0.489654903	 1.2545455768	-0.162348
C	 1.0364272457	-1.9969504237	 1.3061574531	 0.326942
C	 1.3069872412	-2.8656451752	 2.4674630495	-0.325758
N	 0.0065276227	-2.9151802381	 1.7666429077	-0.351675
C	 1.6581077548	-2.0258855853	-0.1288402801	 0.051202
O	 0.9762751067	-2.7079751668	-1.1334707954	-0.427872
H	 0.6450757242	 1.915584539	 0.2974848264	 0.100827
H	-0.3260849242	 1.4824951224	-1.1293141994	 0.129583
H	-1.071881302	 1.4813598489	 0.4796392945	 0.125143
H	 2.2428048507	 0.2338691807	-0.572365946	 0.094175
H	 1.0824485318	 0.2309073834	 2.0565023465	 0.095372
H	 1.9220752183	-3.754261458	 2.3497616538	 0.123322
H	 1.3569883713	-2.4075695307	 3.4530335227	 0.109888
H	-0.7037966016	-2.4113564996	 2.2929256544	 0.231965
H	 2.6891881529	-2.3898966016	-0.1226378206	 0.093517
H	 0.0670073387	-2.3831981149	-1.1009546933	 0.291553
