21
gdb 38419	3.69086	1.27819	1.26443	1.1556	81.23	-0.2248	0.084	0.3088	1112.3945	0.184252	-387.073138	-387.065522	-387.064578	-387.105092	31.238	
C	-0.1512438752	 1.3395836396	 0.7686389918	-0.326171
C	 1.1919837438	 1.0782548621	 0.1050683538	-0.072001
C	 2.2198136826	 0.273831443	 0.8806806463	-0.295898
C	 1.4335570836	-0.9686843001	 1.3699160932	 0.427249
C	 2.2411080275	-2.2741555382	 1.5587596671	-0.284158
C	 2.2949024243	-1.9898265949	 3.0845349643	-0.223474
C	 1.1171154212	-0.9966318123	 2.8990111528	-0.265681
O	 0.3186647357	-1.1022319386	 0.4916832441	-0.299176
C	 0.047025564	 0.133529949	-0.1136547252	 0.105191
H	-0.258378298	 1.1949267517	 1.8380365764	 0.1204
H	-0.7426472723	 2.1551376872	 0.3655025266	 0.109671
H	 1.5355497098	 1.7548144333	-0.668428745	 0.088072
H	 3.0261178148	-0.0284816012	 0.2024079209	 0.103366
H	 2.6744883197	 0.8177972947	 1.7143193365	 0.105072
H	 1.6085831544	-3.1351772893	 1.3280322565	 0.113792
H	 3.1829144225	-2.3665937682	 1.0114201335	 0.09317
H	 2.1340515343	-2.8348146189	 3.7564090063	 0.101265
H	 3.2196763011	-1.4857132583	 3.377795179	 0.102598
H	 1.1503048887	-0.0508913429	 3.4473918978	 0.090741
H	 0.1490622492	-1.4756534829	 3.0668401788	 0.109036
H	-0.4920841416	 0.0236725853	-1.0471182055	 0.096937
