19
gdb 113340	2.21324	1.26556	1.07233	0.8677	79.81	-0.2299	0.0321	0.262	1252.1763	0.154943	-422.946326	-422.936104	-422.935159	-422.981454	36.725	
C	-0.4628444355	 0.9007800401	-0.1814231914	-0.238713
O	 0.5319879023	-0.0785168286	 0.0786915031	-0.229863
C	 1.0066711506	-0.6845309357	-1.0661620621	 0.05997
C	 1.504390651	-2.0854630685	-0.9216171332	-0.385077
C	 0.2052289086	-1.829308454	-1.6905661982	 0.191119
O	-0.9929470493	-2.1216949347	-1.04179436	-0.264424
C	-1.3381036915	-3.4975686304	-1.0580760675	-0.249512
C	 0.2044251386	-1.9733527898	-3.1228168091	 0.322864
C	 0.1963706706	-2.09400726	-4.3202975309	-0.492173
H	-0.0791744995	 1.6957959068	-0.8379093828	 0.105449
H	-1.349117384	 0.4503882459	-0.6426486217	 0.13375
H	-0.7341708076	 1.3374252073	 0.7821437268	 0.127098
H	 1.507859282	-0.0216387908	-1.7734044691	 0.098349
H	 2.3853205324	-2.3996267423	-1.4681528472	 0.126501
H	 1.370051981	-2.5219403075	 0.0619347766	 0.1368
H	-2.2811868348	-3.5893358779	-0.5154545217	 0.128893
H	-1.4714967842	-3.8657692247	-2.0834867481	 0.122704
H	-0.5726359962	-4.10853295	-0.5597794416	 0.109586
H	 0.1877544554	-2.1930268151	-5.3775344619	 0.196679
