16
gdb 29592	2.93864	1.22745	0.96415	3.3579	74.36	-0.2337	0.0054	0.2392	1199.4955	0.124688	-400.796919	-400.788526	-400.787582	-400.830618	30.283	
C	-0.2409345458	 1.4764496825	 0.0880637684	-0.516136
C	-0.0690186355	-0.0093632366	 0.0264690409	 0.159315
C	 0.0178872631	-0.7898541963	-1.0824780893	-0.088135
O	 0.1669380138	-2.1027008707	-0.7525813655	-0.142875
C	 0.172910368	-2.1651078837	 0.6001502146	-0.097367
C	 0.035068481	-0.9250279936	 1.1383891161	 0.169309
C	 0.0162512462	-0.5862853971	 2.6043171366	-0.462361
C	-1.2504229414	 0.0128940872	 3.0407562165	 0.272202
N	-2.2462123036	 0.4951519524	 3.3737850704	-0.313681
H	 0.5968790153	 1.9590300404	 0.6054867389	 0.128425
H	-0.2995459546	 1.9052879121	-0.9156560547	 0.130103
H	-1.1534839273	 1.7521974696	 0.6273174611	 0.15655
H	-0.0099355595	-0.5717656671	-2.1376019157	 0.140719
H	 0.2823094798	-3.1473973421	 1.0307664029	 0.142785
H	 0.1947443504	-1.4862665154	 3.2021387939	 0.159902
H	 0.8206065803	 0.1171267882	 2.8553755151	 0.161244
