18
gdb 110183	2.69692	1.12552	0.89062	3.7567	74.16	-0.2537	-0.0396	0.214	1326.211	0.145947	-439.119751	-439.110364	-439.109419	-439.154664	33.119	
C	-0.1364189077	 1.5750831185	-0.0273955973	-0.387698
C	 0.1034830219	 0.0642667476	 0.0753519812	-0.203808
C	 0.7441454001	-0.4993616067	-1.1895734027	-0.164702
C	 0.8485567098	-2.0635845395	-1.3450346789	-0.079202
N	-0.0618083083	-1.9586304116	-2.4775506014	-0.321777
C	-0.146542817	-0.5831303737	-2.4594402457	 0.445774
O	-0.7096263237	 0.2107119671	-3.1621082044	-0.354275
C	 2.2283856099	-2.585604636	-1.6584546398	 0.149849
O	 2.5844457713	-2.9406122616	-2.7522298168	-0.244636
H	 0.8093453768	 2.1168484507	-0.1367882192	 0.11763
H	-0.7576940398	 1.8108688179	-0.8954343965	 0.154273
H	-0.6356763862	 1.9515882833	 0.8700199632	 0.115743
H	 0.7469127005	-0.1574773283	 0.9359805168	 0.10231
H	-0.8469254462	-0.4538471229	 0.2554142561	 0.109347
H	 1.6900698779	 0.0074738398	-1.4098250285	 0.111467
H	 0.4423246904	-2.6105239733	-0.4828569536	 0.104034
H	-0.2066416767	-2.6078423472	-3.2373620392	 0.261987
H	 2.9124984869	-2.6191076039	-0.7800003333	 0.083684
