18
gdb 38894	3.65236	1.46015	1.15928	2.4394	77.49	-0.2377	0.0062	0.2438	1053.8801	0.150509	-401.901331	-401.894408	-401.893464	-401.93255	28.07	
C	-0.0285016073	 1.4800056546	 0.0288284687	-0.169113
O	 1.4253434328	 1.4807948071	 0.0833658235	-0.307443
C	 1.4811921248	 0.0793224937	-0.3147012195	 0.082295
C	 2.2275177232	-0.900372226	 0.5916769804	-0.247726
C	 1.580842528	-2.2806412347	 0.4106016795	-0.043452
N	 0.7027865367	-2.7583339889	 1.4987014331	-0.330534
C	 0.1054305669	-2.3841088174	 0.193507601	-0.065581
C	-0.6817589554	-1.115847615	 0.1835531487	-0.22572
C	-0.0065837432	-0.01896766	-0.1230039127	 0.2718
H	-0.4847688269	 1.8829725188	 0.9407075488	 0.121693
H	-0.3989351789	 2.044940162	-0.8383641707	 0.108483
H	 1.8266629059	 0.0000824066	-1.355946023	 0.080379
H	 3.298714053	-0.9385090487	 0.3709068623	 0.09822
H	 2.101868287	-0.577246513	 1.6280507771	 0.125694
H	 2.1941465091	-3.0266333939	-0.0886038376	 0.085826
H	 0.7608053511	-3.7722060233	 1.5699470514	 0.228173
H	-0.2541411791	-3.197690683	-0.4339728683	 0.090123
H	-1.7211428481	-1.1200536791	 0.4990602272	 0.096885
