15
gdb 18654	3.41585	2.31366	1.57429	3.4128	67.88	-0.2351	-0.0537	0.1813	798.4029	0.120784	-362.662668	-362.656323	-362.655379	-362.693065	24.756	
O	 0.0258486836	 0.0709607356	 0.5394585935	-0.343901
C	-0.02773672	 1.20901272	 0.1135347425	 0.401883
C	-1.303452037	 1.8737847356	-0.2207201778	-0.182549
C	-1.3338900397	 2.9936839996	-0.9515747536	-0.042926
C	-0.0981680148	 3.6634476848	-1.4845245522	-0.210186
N	 1.1779775147	 3.2652483702	-0.8886791981	-0.103328
C	 1.3043852401	 3.3541726343	 0.551567175	-0.2471
C	 1.2155519881	 2.0113519506	-0.1139281121	-0.131357
H	-2.2067380803	 1.3748042914	 0.11474873	 0.115325
H	-2.2850419258	 3.4491844346	-1.2213125221	 0.112525
H	-0.0379604135	 3.4770566295	-2.5667257173	 0.135192
H	-0.1887525856	 4.752163622	-1.3782565575	 0.12703
H	 2.2687951203	 3.6967022816	 0.9155963464	 0.130023
H	 0.4458111207	 3.6735381077	 1.1387087232	 0.123623
H	 2.1166828094	 1.4149371225	-0.2227318499	 0.115747
