19
gdb 121767	4.20733	0.61543	0.55531	1.3526	69.45	-0.2723	0.0088	0.2811	1952.8418	0.156572	-497.322	-497.311304	-497.310359	-497.35984	36.172	
O	-0.04720441	 1.4495578247	-0.21739235	-0.41775
C	-0.0194955444	 0.0398490664	-0.1199112473	-0.069152
C	-1.4071035232	-0.5508199593	 0.0513674181	-0.07673
O	-2.1474277839	-0.1897412633	-1.1335400977	-0.264102
C	-3.4210200293	-0.635312259	-1.1996754967	 0.449411
O	-3.9318729662	-1.3145759875	-0.3448971632	-0.3525
C	-4.0911934995	-0.171805726	-2.4717305477	-0.313667
C	-5.5195077708	-0.6842099695	-2.5939208695	-0.068161
O	-6.0327342477	-0.1813141249	-3.8174852965	-0.422868
H	-0.6356152752	 1.6628048821	-0.9499364308	 0.290336
H	 0.4650053442	-0.4183918958	-0.996541604	 0.09712
H	 0.5832031069	-0.2066038812	 0.7602900519	 0.117492
H	-1.3787369116	-1.6405118729	 0.1504093032	 0.121457
H	-1.9108564437	-0.1335258832	 0.9282448519	 0.129305
H	-4.0798292398	 0.9236441636	-2.5016480146	 0.139969
H	-3.4947220693	-0.5005704718	-3.329908783	 0.141567
H	-5.5206225453	-1.7832722759	-2.5705243062	 0.103825
H	-6.1089201461	-0.3428105886	-1.7312844752	 0.10506
H	-6.9377806352	-0.4916803378	-3.9116051228	 0.289387
