21
gdb 119670	3.66937	1.0131	0.91852	1.293	83.2	-0.2636	0.08	0.3437	1341.5007	0.182699	-387.01048	-387.002025	-387.001081	-387.044059	32.614	
O	-0.1257149773	 1.441299568	-0.0219104977	-0.418898
C	 0.0255892355	 0.029518667	-0.0385521086	-0.071085
C	-1.3639668216	-0.5888233988	 0.0769031128	-0.32891
C	-1.3455147051	-2.0952095874	 0.0789425286	 0.374438
C	-0.6787781039	-3.0581888046	 1.0910457031	-0.31194
C	-1.3551860839	-3.9901430208	 0.0712057981	-0.042933
C	-2.5919805431	-3.0434522814	-0.0932172537	-0.084545
C	-2.4805377117	-3.0427575208	-1.6302213436	-0.268301
C	-1.0206863189	-3.0518107733	-1.1368206645	-0.073067
H	 0.7476163697	 1.8381234695	-0.0874521698	 0.284416
H	 0.5057055829	-0.3100015535	-0.9705482492	 0.086358
H	 0.6568819962	-0.3133295417	 0.7968072001	 0.088032
H	-1.8318281225	-0.2208667429	 0.9988013652	 0.10632
H	-1.9782204969	-0.2208095182	-0.7542929613	 0.107504
H	 0.4165308668	-3.0705527303	 1.1202490171	 0.086224
H	-1.0868639218	-3.0586349175	 2.1080717009	 0.087799
H	-1.3783300241	-5.0805390744	 0.0418356083	 0.067331
H	-3.4841008239	-3.0399037214	 0.5366221683	 0.065668
H	-2.8290642906	-3.9429671003	-2.1469918681	 0.08915
H	-2.8248095474	-2.1459839139	-2.1552567511	 0.09252
H	-0.0953743584	-3.0623606333	-1.7167822751	 0.06392
