20
gdb 23151	2.12838	1.2151	0.85512	1.0943	80.78	-0.235	0.0064	0.2414	1398.0579	0.169038	-440.215289	-440.205315	-440.204371	-440.250812	35.863	
C	 0.1184680828	 1.1160069657	-0.4912919519	-0.224704
O	-0.0470387756	-0.2575042133	-0.7580443011	-0.231654
C	 1.0785468818	-1.0254439302	-0.3690571668	-0.15557
C	 0.844949371	-2.4798122291	-0.68882234	 0.354582
N	 0.9962574608	-3.2552970923	 0.3217265965	-0.190344
O	 0.8324185147	-4.60837051	-0.0068589671	-0.396925
C	 0.5445524882	-2.937711083	-2.064665708	-0.078326
C	-0.6840673387	-2.4419140518	-2.8190595715	-0.253402
C	 0.6832524075	-2.0316602749	-3.2711717627	-0.278949
H	 0.2599480074	 1.3056995196	 0.5838553828	 0.110006
H	 0.9826704857	 1.535886386	-1.0302355342	 0.104745
H	-0.7885947861	 1.6251801929	-0.8249145244	 0.130036
H	 1.9750964783	-0.6670724427	-0.9053919798	 0.095427
H	 1.2701496764	-0.9313051331	 0.708439802	 0.110564
H	 1.0011013696	-5.040219148	 0.8368475829	 0.306076
H	 0.7827989679	-3.9819562581	-2.2200964511	 0.111548
H	-1.230263578	-3.1803416492	-3.3951137119	 0.113078
H	-1.2892989914	-1.6906268282	-2.3298723995	 0.140086
H	 0.9673719184	-0.9996101362	-3.1058146778	 0.121769
H	 1.0956698793	-2.4737194941	-4.1713623463	 0.111956
