21
gdb 70758	2.46055	1.55839	1.17499	2.4072	78.22	-0.2412	0.0768	0.318	1121.3927	0.184094	-424.214449	-424.206284	-424.20534	-424.246579	33.24	
O	-0.1337899949	 1.3681204882	 0.0501056939	-0.472754
C	 0.0171765301	-0.0296732491	-0.0001433827	 0.425885
C	-0.4312715546	-0.7342146723	-1.2574817498	-0.381705
C	-1.288142424	-0.7608402662	 0.0006910428	-0.04861
C	-1.4516287195	-2.0159422117	 0.8325142483	-0.109487
O	-1.3766294678	-1.7622018974	 2.2269176827	-0.238865
C	-0.0653894561	-1.7462967578	 2.7622981279	-0.065056
C	 0.8261328814	-0.5700010394	 2.3389637184	-0.193811
C	 1.1687732953	-0.5559452089	 0.8402717021	-0.272673
H	 0.6128267754	 1.7607809169	-0.41639265	 0.278131
H	-0.7777286876	-0.1181340717	-2.0796721683	 0.112923
H	 0.0775535234	-1.6473346432	-1.5523223883	 0.106794
H	-2.1552932572	-0.1078412661	-0.014216224	 0.101813
H	-2.4407398505	-2.4528404304	 0.6567921783	 0.106441
H	-0.7068263639	-2.7747751466	 0.5440280463	 0.081826
H	-0.2004789572	-1.7257775254	 3.8488128524	 0.104301
H	 0.4476144683	-2.6924891638	 2.5118437523	 0.079103
H	 0.3418522616	 0.3755342982	 2.6064460252	 0.11979
H	 1.7482086409	-0.6391815411	 2.930605912	 0.087507
H	 1.44894324	-1.564654673	 0.5133549052	 0.094
H	 2.047989067	 0.0756266908	 0.6572627855	 0.084447
