23
gdb 87389	2.05762	1.46432	1.0516	1.4835	85.85	-0.2415	0.0692	0.3107	1270.3416	0.204172	-388.269541	-388.259639	-388.258695	-388.304027	37.96	
C	-0.6125870173	 1.0030391991	-1.4211155335	-0.41238
C	 0.238181292	-0.1751489797	-0.9730095072	-0.022954
C	 1.7571601738	-0.1746827047	-1.3215898875	-0.250492
C	 2.0892974744	-0.6585003923	 0.1223252832	-0.043793
C	 3.2409798322	 0.0131044238	 0.8557352485	-0.407732
C	 0.6389649182	-0.3076730343	 0.5074083593	 0.316858
C	 0.1866503706	 0.5966886065	 1.6295082785	-0.36586
C	-0.212474634	-0.8488336837	 1.6158948769	 0.026742
O	-1.5666205498	-1.1093400903	 1.3623700983	-0.422877
H	-0.1657000372	 1.9534052566	-1.1094643286	 0.11186
H	-0.7119996665	 1.0210672982	-2.512245857	 0.109068
H	-1.6182357963	 0.9456883492	-0.9917033769	 0.125119
H	-0.228790461	-1.1086633339	-1.3153200294	 0.053963
H	 2.0828242929	-0.8078301686	-2.1507995013	 0.09151
H	 2.1251579549	 0.8422948012	-1.4952609051	 0.095689
H	 2.230712422	-1.7468304433	 0.1382836786	 0.064268
H	 3.1249352278	 1.10233764	 0.8582905054	 0.114903
H	 3.3063083794	-0.3191225465	 1.8983239664	 0.111282
H	 4.1979080356	-0.2210057458	 0.3761443561	 0.113211
H	 0.9145162324	 0.9215071078	 2.3660778116	 0.109149
H	-0.5963987265	 1.3164008706	 1.4148276484	 0.121213
H	 0.2531373963	-1.5115401722	 2.3478792773	 0.076253
H	-1.6172996239	-1.9012269476	 0.816019298	 0.285002
