16
gdb 70920	3.67135	1.59394	1.36631	1.7036	68.35	-0.2515	0.0019	0.2533	931.0449	0.125532	-437.805502	-437.798799	-437.797855	-437.836179	27.583	
O	-0.0045661641	 1.3699937594	 0.0566247033	-0.465341
C	 0.0273787503	-0.0042338966	 0.0204236396	 0.347017
C	 0.6577304982	-0.9540232087	-1.1309293213	-0.384665
C	-0.040996451	-1.8634365895	-0.0975175188	 0.353269
C	 0.6065082339	-0.9975575597	 1.0462535586	-0.333018
N	-0.5789690957	-3.172458713	 0.2204450591	-0.359889
C	-1.6642098158	-2.8453160832	 0.8166251321	 0.087647
O	-2.0635175428	-1.5242050278	 0.8805382557	-0.256938
C	-1.219781076	-0.905232485	-0.1223884547	 0.059583
H	 0.8829571115	 1.6963357702	 0.2416266581	 0.289614
H	 0.2058606593	-0.8874029613	-2.1228550971	 0.111292
H	 1.7485895843	-0.9706097678	-1.1716304348	 0.10551
H	 1.6944470867	-1.0502219627	 1.1270140112	 0.095541
H	 0.1157406087	-1.0410510808	 2.0187273413	 0.116798
H	-2.335748726	-3.5321115602	 1.3194000421	 0.143031
H	-1.8041360516	-0.7894742433	-1.0392067744	 0.090549
