21
gdb 95204	2.26011	1.76069	1.33873	2.7934	77.01	-0.2537	0.0739	0.3276	1061.5376	0.18427	-424.231562	-424.223284	-424.222339	-424.263898	33.097	
C	-0.1497875185	 1.5348196609	-0.0159405438	-0.39949
C	 0.0466340864	 0.0138624663	 0.013886406	-0.038754
C	 0.731818961	-0.4785053279	-1.2462063938	 0.057646
O	 2.163474441	-0.3055031957	-1.297731652	-0.272081
C	 1.6306652759	-1.6454516494	-1.2317024891	 0.040123
C	 1.9152524656	-2.4144930464	 0.0452676311	-0.243105
C	 1.0336266094	-1.9762504501	 1.2301081134	-0.225259
C	 0.8111253866	-0.4562490355	 1.2757730195	 0.115946
O	 2.0251285869	 0.2550531067	 1.4685049805	-0.449766
H	 0.8136834395	 2.0495201889	-0.0152987606	 0.135534
H	-0.7081232883	 1.8425178045	-0.9062623002	 0.106507
H	-0.7064485942	 1.8692490865	 0.8650778774	 0.115013
H	-0.9434184507	-0.4646994588	 0.0382147492	 0.077967
H	 0.2348266881	-0.221931557	-2.1833244872	 0.090881
H	 1.770190489	-2.1937025652	-2.1631624718	 0.095004
H	 1.7770615716	-3.4838911962	-0.1455722938	 0.104582
H	 2.9759924751	-2.2811647371	 0.2878172981	 0.123826
H	 0.0533294225	-2.4649177972	 1.1582240686	 0.092433
H	 1.4869980321	-2.3031904309	 2.1705160344	 0.104834
H	 0.1945998331	-0.2204326773	 2.1515749108	 0.077958
H	 2.4912389479	 0.230637671	 0.6204649032	 0.290202
