19
gdb 52965	5.14048	0.80341	0.75281	1.662	88.62	-0.218	0.0288	0.2468	1587.7206	0.156906	-385.831733	-385.822216	-385.821271	-385.867316	34.424	
C	 0.0172904445	 1.4453894813	 0.0928061185	-0.508364
C	-0.0115480908	-0.0068713439	 0.0212365691	 0.203349
C	-0.0353382532	-1.210990261	-0.0321697001	-0.114898
C	-0.0419294404	-2.629625275	-0.0947849091	 0.312109
C	-0.385371314	-3.4687715402	-1.2952027169	-0.342152
C	-1.155103445	-3.672690205	-0.0117806788	-0.204061
C	-0.2709372271	-4.3419424306	 1.0388232795	 0.146342
C	 0.1601760811	-5.786327982	 0.8948878809	-0.412841
O	 0.8044970974	-3.385463742	 0.7906034015	-0.338166
H	 0.664711695	 1.7808580996	 0.9105221885	 0.155144
H	 0.3967769028	 1.888499112	-0.8346853591	 0.149238
H	-0.9824715282	 1.8554997379	 0.2751359705	 0.149401
H	-0.9405499444	-2.9567547882	-2.0739691963	 0.124962
H	 0.3399102409	-4.1981973084	-1.643916673	 0.118241
H	-2.2239641014	-3.5258593531	 0.061160975	 0.10587
H	-0.6709058837	-4.1623949904	 2.0455751954	 0.0857
H	 0.5082902134	-6.0036322575	-0.1181968838	 0.121659
H	 0.9747312505	-6.0071594931	 1.5919793971	 0.130229
H	-0.6764593074	-6.4539363404	 1.1275431912	 0.11824
