22
gdb 113975	4.04247	0.65278	0.59512	1.4769	89.94	-0.2274	0.0579	0.2853	1918.3089	0.191852	-367.151715	-367.141237	-367.140293	-367.188127	37.956	
C	 0.2255742282	-2.9500311647	 0.191400628	-0.380076
C	-0.066320763	-1.5883745438	 0.833570955	-0.200436
C	-1.4989534195	-1.1537700136	 0.5907626341	 0.024392
C	-2.5852721224	-1.4733061676	 1.5621296888	-0.258777
N	-2.166613201	-0.0902685074	 1.3421432239	-0.088584
C	-1.4674860643	 0.5912088144	 2.4221976367	-0.134534
C	-2.4833885347	 1.4049630729	 3.2463827334	-0.349005
C	-1.8556481008	 2.1440400633	 4.3336119263	 0.296147
C	-1.3086978426	 2.7431104449	 5.2208238685	-0.447839
H	 1.2689366363	-3.2423336484	 0.3425166081	 0.114924
H	-0.4105893871	-3.7315112964	 0.6195995091	 0.120279
H	 0.0392176625	-2.9256666602	-0.8878359701	 0.118432
H	 0.1432475631	-1.6384089956	 1.9067430974	 0.101506
H	 0.6156921561	-0.8351423169	 0.4174729015	 0.103514
H	-1.7669393028	-1.1389602257	-0.4665468857	 0.087385
H	-3.5864145608	-1.7329394976	 1.2278970315	 0.113081
H	-2.2810674667	-1.9503169435	 2.4946214846	 0.104452
H	-0.9247764173	-0.0861146647	 3.0994895691	 0.096614
H	-0.7307214425	 1.2741529484	 1.9856264991	 0.114556
H	-3.0117700184	 2.0894362946	 2.5729723977	 0.14009
H	-3.2432248088	 0.7232793252	 3.6493543668	 0.13106
H	-0.8394917734	 3.2790567725	 6.0079744563	 0.19282
