16
gdb 110794	2.65842	1.48599	1.24061	4.4285	63.51	-0.2544	0.0391	0.2935	1030.5685	0.125581	-475.040789	-475.032964	-475.03202	-475.07396	29.288	
O	 0.2007844932	 1.1003873446	 0.5725062071	-0.419519
C	 0.0162531904	 0.0010286902	-0.3016570263	-0.099467
C	-1.3775004491	-0.5897791658	-0.2001719216	-0.099138
C	-1.6641691671	-2.0905124371	-0.1077761488	-0.065925
N	-0.6168683482	-2.954661784	 0.3361085759	-0.356753
C	-0.117555991	-2.5905004677	 1.5686736603	 0.461934
O	 0.8244733976	-3.0349901938	 2.1572512477	-0.379083
O	-0.9004107179	-1.5578946022	 2.0526524079	-0.244424
C	-1.8726352097	-1.2022155208	 1.0862404687	 0.058284
H	 0.1668910662	 0.7551280082	 1.4717938266	 0.296553
H	 0.1711635213	 0.3886311859	-1.3132000703	 0.117284
H	 0.7791015284	-0.7723483656	-0.1380107406	 0.107268
H	-2.1530878399	-0.0355793336	-0.72211237	 0.108127
H	-2.4736180908	-2.5438831777	-0.6674265061	 0.120149
H	-0.0364781588	-3.5045936264	-0.2746955147	 0.270031
H	-2.8309948946	-0.9566308341	 1.5243689542	 0.124679
