19
gdb 72148	2.53409	1.98645	1.77606	1.0108	73.06	-0.2336	0.0705	0.3041	887.5739	0.162191	-423.025496	-423.018819	-423.017875	-423.055935	28.893	
O	-0.0772972606	 1.3627652228	 0.0652931367	-0.505874
C	 0.0429953258	-0.0267374563	 0.0538091955	 0.416147
C	 0.9261772169	-0.7561943052	 1.0644293917	-0.307028
C	 0.5649829959	-2.1365039022	 0.4966968647	 0.089958
C	-0.9737015454	-2.1520530934	 0.6306238638	-0.230417
C	-1.3375917435	-0.7859588199	-0.0068311174	-0.068467
C	-1.1814970319	-0.8660955534	-1.5472829779	-0.244404
C	 0.3402209098	-0.7545409615	-1.312839836	 0.044775
O	 0.8973686017	-2.0085367774	-0.9004451088	-0.285588
H	 0.7954520999	 1.7434641745	-0.0834733475	 0.279625
H	 1.9912213116	-0.5267619477	 0.9607547309	 0.093577
H	 0.6095561742	-0.60814647	 2.1001134128	 0.103649
H	 1.0927200486	-3.0043700607	 0.8917076318	 0.076117
H	-1.4309895079	-2.9973944044	 0.1096259031	 0.102553
H	-1.2640677021	-2.2005384873	 1.6854207464	 0.097658
H	-2.2161498229	-0.2965419027	 0.4138644809	 0.071707
H	-1.5394686879	-1.7634182864	-2.058234534	 0.094557
H	-1.5707401954	 0.0289645116	-2.0400059046	 0.106014
H	 0.9860003833	-0.3055543803	-2.071952722	 0.065442
