21
gdb 119211	2.13131	1.22442	0.90425	1.1032	87.25	-0.2361	0.0518	0.2878	1385.8871	0.179346	-387.034694	-387.024194	-387.023249	-387.070128	38.239	
C	-0.0392524021	 1.4692799759	-0.9173001151	-0.229515
O	-0.045560081	 0.0966094473	-1.2344124399	-0.233053
C	 0.7511546153	-0.6669865628	-0.3545769436	-0.148882
C	 0.6942540589	-2.1536728243	-0.7046666063	 0.1134
C	-0.4397103492	-2.6813142093	-1.5751168745	-0.320817
C	 0.9605776805	-2.6718301642	-2.120640203	-0.021753
C	 1.3832926039	-1.7694728691	-3.259032125	-0.425625
C	 1.1595815564	-2.980205808	 0.377316287	 0.254572
C	 1.5615009966	-3.6461382399	 1.2958653953	-0.440812
H	-0.4260105768	 1.6514457762	 0.0973221937	 0.109863
H	 0.9726172022	 1.8986701908	-0.9811475677	 0.108326
H	-0.6851109557	 1.9739702621	-1.6394599437	 0.129364
H	 1.7966367871	-0.3160473657	-0.382086017	 0.098744
H	 0.3953481321	-0.5388215448	 0.6802492723	 0.103088
H	-0.8907549313	-3.6258674734	-1.2946115526	 0.117058
H	-1.1250348921	-1.9277281348	-1.9445845071	 0.134336
H	 1.450482735	-3.6416972687	-2.1229065862	 0.093954
H	 0.8695393861	-0.8084127796	-3.2173853655	 0.140836
H	 2.4629275223	-1.5831137406	-3.2331998809	 0.113881
H	 1.1546824722	-2.2433523719	-4.2203053577	 0.114961
H	 1.9127314095	-4.2442452053	 2.0994328775	 0.188073
