16
gdb 13201	5.79082	1.14242	1.11441	2.9118	61.64	-0.2511	-0.0006	0.2505	1097.9906	0.129904	-420.881548	-420.873224	-420.87228	-420.916358	27.825	
C	 0.1137054141	 1.4362068513	 0.0377593918	-0.242591
O	 0.3274153441	 0.0176218707	 0.0317320002	-0.23293
C	 0.2622378527	-0.5682883081	-1.1797082789	 0.432941
O	 0.0433420821	 0.0308486099	-2.2039493453	-0.362658
C	 0.4919480141	-2.0543253546	-1.090564	-0.166628
C	-0.5509428972	-2.9441361977	-1.8169859233	-0.071217
O	 0.4625167062	-3.5613845358	-2.6298919676	-0.267562
C	 1.4648192359	-2.6533280867	-2.1384633405	-0.071666
H	 0.8638704104	 1.940459707	-0.5763683297	 0.143469
H	-0.8780070402	 1.6770284999	-0.3530550292	 0.143306
H	 0.2005352094	 1.7447909204	 1.079378113	 0.135614
H	 0.6970183802	-2.3549724039	-0.0646536555	 0.102096
H	-1.0787753239	-3.6699122012	-1.1889969675	 0.108649
H	-1.270634174	-2.3754837422	-2.4174780382	 0.119985
H	 1.7795249982	-1.9344095409	-2.9037544933	 0.12104
H	 2.3376760378	-3.1779024583	-1.735199336	 0.108151
