20
gdb 103786	3.59376	0.78041	0.7165	1.4949	86.49	-0.2265	0.0412	0.2676	1660.6392	0.168041	-403.099229	-403.088166	-403.087222	-403.137333	38.057	
C	 0.4288818964	 1.3581476102	 0.1590582842	-0.501726
C	 0.1339939196	-0.0671763409	 0.1674088143	 0.15098
C	-0.1105421003	-1.2469429414	 0.1854527994	 0.094174
C	-0.3766126427	-2.658277609	 0.1738717102	-0.311007
N	-1.2741323979	-3.2181998721	 1.2297865199	-0.365611
C	-1.7147616393	-3.2383639394	-0.1672077105	 0.293239
C	-2.884020642	-2.3426788524	-0.5048477408	-0.449109
C	-1.7304158734	-4.5750977667	-0.9028343095	-0.161711
O	-0.6858317288	-5.4459660392	-0.4846669671	-0.409995
H	 1.5048867235	 1.5425541479	 0.2532916393	 0.147439
H	 0.0917621653	 1.8329960627	-0.7693472865	 0.145149
H	-0.0676243012	 1.8695311792	 0.9912879065	 0.149639
H	 0.4704982351	-3.2858383254	-0.0927800349	 0.116333
H	-0.9004997984	-4.1375072437	 1.4639322448	 0.217124
H	-2.7874341054	-1.3812999362	 0.0014946826	 0.143535
H	-2.9369509725	-2.15965809	-1.5842243233	 0.114901
H	-3.8268649513	-2.8049274203	-0.191222094	 0.113416
H	-2.7135045687	-5.0479914432	-0.7666817901	 0.099893
H	-1.6053079332	-4.3967189403	-1.9782794632	 0.118097
H	-1.0586645147	-6.1149911499	 0.0939725386	 0.295242
