18
gdb 70854	3.64724	1.59335	1.33417	1.1574	73.67	-0.2208	0.0638	0.2845	981.9037	0.147996	-401.888314	-401.880996	-401.880052	-401.919393	30.274	
C	-0.0584744475	 1.4574440645	 0.0675125344	-0.485732
C	 0.0178800338	-0.0378659383	-0.0636545964	 0.328646
C	-0.3273690827	-0.7503481907	-1.3531091288	-0.358912
C	-0.2134900015	-2.1800698372	-0.8590664689	 0.377953
O	-0.3963089542	-3.281897799	-1.6804521814	-0.475364
C	 0.8545751937	-2.2931113393	 0.2152967309	-0.144858
C	-0.6041549445	-2.223047662	 0.6017032038	-0.099681
N	-0.4728865664	-0.8184558641	 1.1332129368	-0.201669
C	 0.9771218593	-0.8557869981	 0.7327989429	-0.09728
H	 0.6358187166	 1.9472350899	-0.6238245686	 0.118118
H	-1.0690443645	 1.8180094866	-0.1519191713	 0.123028
H	 0.1930921046	 1.7659479632	 1.0857862229	 0.131255
H	-1.3387488587	-0.5095002654	-1.7026598943	 0.09653
H	 0.3847039305	-0.5255683073	-2.1541244075	 0.111283
H	-1.3388739338	-3.3692856639	-1.8621934373	 0.287305
H	 1.5651038891	-3.1047175423	 0.2733933816	 0.100935
H	-1.2722001066	-2.939415027	 1.0622377666	 0.096996
H	 1.7547303027	-0.4580700097	 1.3760678946	 0.091445
