21
gdb 107990	2.7196	1.59994	1.35129	0.9918	82.16	-0.2441	0.0959	0.3401	1063.6816	0.184236	-387.053701	-387.045812	-387.044867	-387.086119	31.206	
C	-0.0031081995	 1.3775862837	 0.0309120745	-0.263269
O	 0.0464139994	-0.0348322139	-0.034566224	-0.298303
C	 0.6858117609	-0.5255053559	-1.1536908999	 0.450414
C	 2.152991052	-0.320969572	-1.6158875478	-0.311509
C	 1.5113690925	-1.3035300424	-2.6260315708	-0.074031
C	 0.7952528878	-2.0438958288	-1.4494905262	-0.059855
C	-0.5635324487	-2.55853123	-1.9251169808	-0.244678
C	-1.0029125689	-1.3641837787	-2.8228745454	-0.241674
C	 0.2071367352	-0.4460400567	-2.6506262266	-0.071449
H	 1.00365569	 1.8167261134	 0.0696009303	 0.113173
H	-0.5372835509	 1.8065928268	-0.8287044969	 0.110526
H	-0.5384833973	 1.6374804984	 0.9467247769	 0.12718
H	 2.4275030874	 0.6647464031	-2.0024385348	 0.086698
H	 2.9337020227	-0.7251119242	-0.965220291	 0.090694
H	 1.9897303574	-1.7683806198	-3.4860415266	 0.074163
H	 1.3927482595	-2.6627509139	-0.7772713755	 0.061753
H	-0.4776513398	-3.4967605956	-2.4821379182	 0.093568
H	-1.2485944201	-2.7306438156	-1.0898216195	 0.105568
H	-1.1592958784	-1.6547664718	-3.8665710664	 0.093769
H	-1.926004589	-0.893575593	-2.4704985947	 0.100241
H	 0.2251967279	 0.5142948169	-3.1700131365	 0.057021
