17
gdb 47206	2.69401	1.7415	1.15665	3.6193	76.38	-0.2385	0.0061	0.2446	1043.3428	0.138991	-418.030903	-418.02335	-418.022406	-418.06306	29.233	
O	 0.0574544954	-0.0187274684	 0.1926983741	-0.398791
C	 0.0256834214	 1.2020714787	 0.1329225172	 0.363084
N	-1.143227471	 1.8968829872	 0.1236943123	-0.356616
C	-1.3299364137	 3.3327355441	-0.0098048163	-0.209546
C	-0.0448252035	 4.0540246052	-0.2813807378	-0.094892
C	 1.141151762	 3.4532473587	-0.2611661227	-0.099862
C	 1.2890424994	 2.018825511	 0.0531415559	 0.188459
C	 2.4090805387	 1.5213823896	 0.9227258657	-0.259333
N	 2.4571272714	 1.3128367545	-0.5177894318	-0.350261
H	-1.9656823117	 1.3134557441	 0.1768686771	 0.250737
H	-2.0401769403	 3.5288746218	-0.8268573362	 0.125749
H	-1.8001494144	 3.7402474627	 0.8998731742	 0.124099
H	-0.1328529437	 5.1144384714	-0.4944795254	 0.103758
H	 2.0552510961	 3.9994060942	-0.4727757935	 0.10807
H	 3.1210023715	 2.2425136359	 1.3152691592	 0.118691
H	 2.1837510463	 0.6742689404	 1.5636713866	 0.13655
H	 2.1481417661	 0.3585893789	-0.7084000988	 0.250104
