17
gdb 119454	4.25713	0.86877	0.79205	3.0379	69.26	-0.2702	0.0002	0.2704	1418.4425	0.134842	-458.956035	-458.94743	-458.946486	-458.990083	31.439	
O	 0.0737186747	 1.4009605104	-0.07844531	-0.414391
C	 0.0230356087	-0.0112705416	-0.1641106965	-0.063979
C	-1.3852935022	-0.5564974324	 0.1233737713	-0.326787
C	-1.4585978075	-2.0422745322	 0.005149696	 0.477829
C	-1.6255578563	-2.9017736905	-1.1937633318	-0.328524
C	-2.5976714396	-3.0375755517	-0.0067457392	-0.344093
C	-1.845409081	-3.6927514834	 1.1176910981	 0.465326
O	-2.0041922575	-4.567460606	 1.9038835107	-0.323366
O	-0.7562860001	-2.8303974744	 1.0247538696	-0.301327
H	-0.0154753585	 1.647026404	 0.8477324691	 0.286181
H	 0.3128326698	-0.262634372	-1.1896137663	 0.118772
H	 0.7501751223	-0.4893899551	 0.5076351644	 0.115498
H	-1.6925691961	-0.2629584086	 1.1351617176	 0.111083
H	-2.0929994244	-0.10258703	-0.5785443718	 0.121763
H	-2.0693734782	-2.4323960059	-2.0670332769	 0.134579
H	-0.9106175395	-3.6906303177	-1.4031115612	 0.140287
H	-3.6670796546	-2.9162004429	-0.097495983	 0.131147
