20
gdb 12636	2.43282	2.21899	1.53559	1.6933	75.43	-0.2508	0.0116	0.2625	931.9674	0.177333	-349.018935	-349.010514	-349.00957	-349.051233	32.479	
C	 0.6618269055	 1.5286386818	-0.2462360662	-0.388661
C	 0.0909875276	 0.1268377583	 0.0329458769	-0.045289
C	 0.3652698189	-0.8266817283	-1.1097102247	-0.058032
C	 1.236737409	-1.7837913685	-0.7896349137	-0.123631
C	 1.7443616086	-1.6237514405	 0.6230873581	 0.089604
O	 3.1016917808	-1.1705913799	 0.6470696205	-0.43198
C	 0.7109873353	-0.6378910026	 1.2469253941	-0.018475
C	 1.2594088244	 0.205080332	 2.3953659336	-0.398116
H	 1.747762369	 1.5008188614	-0.3856705798	 0.10525
H	 0.2246665045	 1.9494110572	-1.1580164502	 0.11254
H	 0.4464341915	 2.2177744295	 0.5757319626	 0.11985
H	-0.9902175379	 0.2418579519	 0.1856987789	 0.075006
H	-0.089130753	-0.6972871257	-2.0875727982	 0.093575
H	 1.614592066	-2.5504546249	-1.4571061726	 0.095408
H	 1.7694498897	-2.5634986039	 1.1850965791	 0.081497
H	 3.1970942861	-0.5150098849	-0.0520998647	 0.275741
H	-0.091999709	-1.2729294864	 1.6415472675	 0.077081
H	 2.1203075231	 0.8015768374	 2.0851478462	 0.11896
H	 0.4940843961	 0.8811947534	 2.7910582853	 0.105224
H	 1.5935793035	-0.4372612873	 3.2164429269	 0.114448
