19
gdb 26194	3.51221	1.08068	0.87953	3.9302	79.12	-0.2181	0.0287	0.2468	1353.554	0.159324	-419.260044	-419.250691	-419.249747	-419.294738	34.374	
C	 0.3198568932	 1.2711495932	-0.4093430422	-0.38596
C	-0.0118004969	-0.030773291	 0.331805748	 0.050613
O	 0.2780633862	 0.1127058885	 1.7036491086	-0.438553
C	-1.4558953863	-0.4322862252	 0.1746915813	 0.335347
N	-2.2663434181	-0.5974246789	 1.1956065416	-0.370586
C	-3.4908873312	-0.9673486634	 0.6704134601	 0.284558
C	-4.6698028732	-1.2430582314	 1.5446704124	-0.488581
C	-3.4001967739	-1.0224543625	-0.6945265781	-0.191133
N	-2.0948917756	-0.6786949387	-0.9999182548	-0.304069
H	 1.3653421196	 1.5339847937	-0.2281615475	 0.130826
H	 0.1758684181	 1.1683226645	-1.491067737	 0.093097
H	-0.3128453201	 2.0851997127	-0.0449951966	 0.128374
H	 0.6206466352	-0.8335513149	-0.0867902663	 0.080202
H	-0.543504023	-0.1029782554	 2.1730576311	 0.294989
H	-5.5430787521	-1.5226021517	 0.9492828832	 0.118296
H	-4.4590945233	-2.0579266284	 2.2456911631	 0.13405
H	-4.9316218701	-0.3638161679	 2.1431973449	 0.133863
H	-4.1188176703	-1.2665746783	-1.4592410979	 0.129019
H	-1.6960544584	-0.623644235	-1.9216675039	 0.26565
