18
gdb 87919	3.58049	1.15119	1.06122	4.351	74.34	-0.2461	0.057	0.3031	1199.4245	0.147606	-439.094641	-439.086327	-439.085383	-439.127853	31.271	
C	-0.2920635827	 1.4059813583	 0.027825606	-0.415306
C	 0.0217910857	-0.0708289433	 0.1005867793	-0.062875
C	 1.4082316802	-0.5997567717	-0.2456871901	-0.3688
C	 0.9152378779	-0.6541851835	 1.159371216	 0.397795
C	 1.4958550109	 0.0835287509	 2.349186756	-0.180973
O	 0.9533696745	-0.6383591522	 3.4607487997	-0.252825
C	 0.4912844205	-1.8484179826	 3.0276022346	 0.481837
N	 0.0505284419	-2.7878489167	 3.7361608782	-0.578548
O	 0.5663745428	-1.9289488518	 1.6777334893	-0.249874
H	 0.5704902307	 2.0189677893	 0.3104876436	 0.114981
H	-0.5701193203	 1.6915779849	-0.9919709837	 0.129626
H	-1.1237811318	 1.6724466075	 0.6887668385	 0.129306
H	-0.7937700038	-0.7311493132	-0.1813881771	 0.113274
H	 1.4811714677	-1.5408719454	-0.7788013956	 0.138344
H	 2.1871717303	 0.1198077498	-0.4818760719	 0.119418
H	 2.5910280663	 0.0307463927	 2.3831978508	 0.122662
H	 1.1817622159	 1.1268785704	 2.4197932584	 0.131188
H	 0.1172607832	-2.5414062133	 4.7207500282	 0.230771
