17
gdb 31751	4.65751	0.92267	0.77761	0.6638	71.61	-0.1936	0.058	0.2516	1423.7587	0.136028	-455.170732	-455.161444	-455.1605	-455.205649	32.529	
C	-0.028892857	 1.3761393384	 0.0086477628	-0.233426
O	-0.0360074243	-0.0517276504	 0.0037471533	-0.271466
C	-1.2554547226	-0.6047115595	 0.0105170124	 0.481382
N	-2.4148144208	-0.0009899771	 0.0207266807	-0.429806
C	-3.3449956839	-1.0326374645	 0.0237483322	 0.272453
C	-4.8089636173	-0.7420553582	 0.034892575	-0.182516
O	-5.5098795992	-1.9765164759	 0.0363192347	-0.420214
C	-2.7255239141	-2.2459387632	 0.0154358436	-0.174918
N	-1.3627413784	-1.9582839392	 0.006764443	-0.341574
H	 1.0219703539	 1.6675883579	 0.0018777062	 0.128228
H	-0.5408180271	 1.7693216554	-0.8745875022	 0.138912
H	-0.5276344325	 1.7631581411	 0.9020972305	 0.138886
H	-5.0563850119	-0.1356421078	 0.9219179939	 0.099753
H	-5.0688845669	-0.1306415414	-0.8451051085	 0.099744
H	-6.4510021859	-1.7833067018	 0.0434990289	 0.289265
H	-3.1045879313	-3.2518912205	 0.0148340778	 0.139695
H	-0.5972362807	-2.6095189234	-0.0008725043	 0.265603
