19
gdb 41368	2.47295	1.87554	1.81295	1.9228	78.43	-0.2402	0.0112	0.2514	914.5383	0.161189	-385.858219	-385.851207	-385.850262	-385.889359	28.907	
C	 0.0544246498	 1.5116530426	-0.2429780669	-0.296402
C	 1.4849800806	 1.5782956192	 0.4022269	-0.289826
C	 1.4377990299	 0.0338756078	 0.5622230622	 0.416412
O	 0.9624031999	-0.3971724173	 1.8659534467	-0.340049
C	-0.3865857565	-0.539822844	 1.3393316257	-0.143318
C	 0.0380483269	-0.0347973016	-0.0554003589	 0.234012
C	 0.1002666146	-1.004741745	-1.241836104	-0.377175
C	 1.5512272773	-1.4770493689	-1.1935949854	-0.047871
C	 2.2815341227	-0.9179160651	-0.2199051099	-0.184161
H	-0.7308511524	 2.0565413087	 0.2877125323	 0.101863
H	 0.0341805556	 1.8170632048	-1.2921879233	 0.103715
H	 2.2652736782	 1.9460835492	-0.2681519623	 0.103663
H	 1.5498613697	 2.1082817358	 1.3542083867	 0.111375
H	-0.7203238781	-1.5853963362	 1.3677477463	 0.099013
H	-1.1060397628	 0.0812305611	 1.8879630744	 0.0973
H	-0.5992004114	-1.8468116785	-1.1543918048	 0.107097
H	-0.1294758306	-0.5164952947	-2.1980245939	 0.107769
H	 1.9337929605	-2.2034907695	-1.9050287779	 0.097486
H	 3.3290920362	-1.1221045482	-0.028084347	 0.099095
