20
gdb 16460	3.05653	2.6705	1.76585	0.1524	78.43	-0.2763	0.0977	0.374	823.6563	0.179529	-311.843498	-311.836832	-311.835888	-311.873733	27.904	
C	 0.017371235	 1.5223634534	-0.0467996517	-0.501024
C	 0.0346531041	 0.0088499578	 0.0006419788	 0.385918
C	 0.4631362579	-0.7025673309	-1.2915946442	-0.275482
C	 0.3563963083	-2.1866717395	-0.8583384993	-0.25238
C	-0.1081972623	-1.992273071	 0.5815782044	 0.010235
C	 0.6488607784	-0.7813563773	 1.2168672019	-0.087986
C	-0.6127537938	-0.4746413334	 2.0576915115	-0.251879
C	-1.1397698853	-0.8197164619	 0.6449252596	-0.08799
H	 1.0128598657	 1.912897318	-0.2887757433	 0.11417
H	-0.6673377857	 1.8768607216	-0.8262680946	 0.114169
H	-0.2946994142	 1.9747972786	 0.8983971313	 0.115812
H	-0.2004284486	-0.4539209251	-2.1273769803	 0.091557
H	 1.4781650879	-0.4179473113	-1.5905707856	 0.091557
H	-0.3676548526	-2.7524486816	-1.4536213772	 0.094094
H	 1.312781545	-2.7164632642	-0.9163023976	 0.094094
H	-0.287547397	-2.8732189603	 1.2015433667	 0.056907
H	 1.6925361925	-0.764031612	 1.5421895762	 0.057465
H	-0.8506955733	-1.1905653438	 2.8498191594	 0.085238
H	-0.7491173567	 0.5481021725	 2.4155493871	 0.088059
H	-2.1783724352	-0.8470534094	 0.3044104168	 0.057466
