24
gdb 10229	1.80057	1.68339	0.9445	0.8824	82.47	-0.2409	0.0836	0.3245	1350.6547	0.220738	-351.414771	-351.403857	-351.402913	-351.451377	38.416	
C	 0.3547557758	 1.384654331	-0.3781655263	-0.385818
C	 0.4784554244	-0.1288721212	-0.3120141279	-0.034897
O	 0.4781978303	-0.513650652	 1.0503093216	-0.266716
C	 0.5876926972	-1.9170946848	 1.3014228799	 0.137645
C	 1.8641182159	-2.1855282057	 2.1077262957	-0.166333
C	 3.1481518158	-1.7653726792	 1.3899424132	-0.390702
C	-0.6659292994	-2.3953793578	 2.0437497558	-0.166388
C	-1.9641081067	-2.1874009928	 1.261322322	-0.390693
H	 1.1917835212	 1.8613119655	 0.1402430961	 0.124764
H	 0.351604506	 1.7226169299	-1.4189369948	 0.111957
H	-0.5729447575	 1.7150751842	 0.0980446702	 0.124765
H	-0.3587608356	-0.603376599	-0.8485342782	 0.086266
H	 1.4065591706	-0.4574730064	-0.8066148829	 0.086248
H	 0.655947621	-2.4504851862	 0.3394589266	 0.060958
H	 1.782617553	-1.6492937865	 3.0615669214	 0.101036
H	 1.902948773	-3.2547552449	 2.3512817268	 0.089406
H	 4.0289419064	-1.962983811	 2.0086715436	 0.10926
H	 3.276579186	-2.3101437444	 0.4475004969	 0.107325
H	 3.1302305782	-0.6957444821	 1.1632336221	 0.127439
H	-0.5404995405	-3.4577768277	 2.287865733	 0.089427
H	-0.7213319483	-1.8583952597	 2.9990440954	 0.100992
H	-2.8303987438	-2.5297425747	 1.8357427141	 0.109262
H	-2.1099426362	-1.1280546096	 1.0326685757	 0.127459
H	-1.9543283365	-2.7409164049	 0.3152871596	 0.107338
