14
gdb 11697	4.24969	1.55862	1.31823	3.2371	64.51	-0.2576	-0.0494	0.2082	903.7291	0.106066	-382.542272	-382.535288	-382.534344	-382.573721	25.824	
O	-0.1123251566	 0.0038633339	 0.0046846355	-0.256692
C	-0.0015098332	 1.2033644138	-0.0725042695	 0.0656
C	 1.2762082499	 1.9237063881	 0.0219106104	 0.259148
C	 1.3770475954	 3.3789984551	 0.358848037	-0.33146
C	 1.7708857046	 2.9864356417	-1.0404465809	-0.210897
C	 3.1006273714	 2.274499006	-1.0309043199	 0.432077
O	 4.0653433716	 2.353197017	-1.733392545	-0.302192
C	 2.6631631065	 1.2713266718	 0.0651194617	-0.425285
H	-0.8857058407	 1.8612314014	-0.2370379332	 0.073159
H	 0.4411459217	 3.9271680578	 0.418977093	 0.140161
H	 2.1274659326	 3.695770189	 1.0772748729	 0.138799
H	 1.2504907259	 3.3781539076	-1.906111023	 0.128207
H	 3.1905048642	 1.2973807227	 1.0223828947	 0.129258
H	 2.6657536168	 0.2495239739	-0.3229467537	 0.160116
