20
gdb 110676	2.94647	1.35654	1.25888	1.6362	76.37	-0.2308	0.0569	0.2877	1093.3375	0.173752	-403.109439	-403.10169	-403.100746	-403.141864	30.543	
O	 0.4412761865	 0.2918727114	-1.4743277576	-0.420227
C	 0.0460696541	 0.2476616735	-0.1087560404	-0.105731
C	-1.2851107097	-0.4745699458	 0.0682628018	 0.00984
C	-1.4099636687	-1.976807075	-0.1804854737	-0.092704
C	-1.047186039	-2.8162742403	 0.9938441052	-0.012733
C	-0.1528785791	-2.2881725643	 2.1069822007	-0.247875
C	-0.903501693	-1.0150467056	 2.5777996774	-0.212864
C	-1.9165418995	-0.7668090152	 1.4607178737	-0.036809
N	-2.369126942	-2.1512535919	 0.9839794245	-0.148182
H	 0.5872188979	-0.6147209667	-1.7633778168	 0.285267
H	 0.8342801595	-0.2011105859	 0.5123584109	 0.087128
H	-0.0533578569	 1.2936975477	 0.2031158838	 0.110521
H	-2.0250664058	 0.0353811195	-0.557113169	 0.092882
H	-1.6280654445	-2.4295419627	-1.1445724575	 0.089827
H	-1.1008761486	-3.8899082	 0.8375893699	 0.090975
H	-0.0681763832	-3.026782923	 2.9092340757	 0.108445
H	 0.86279277	-2.0774548149	 1.7594713057	 0.108054
H	-1.4340004573	-1.2080687584	 3.5154469507	 0.109924
H	-0.2415605536	-0.1605616094	 2.7453881602	 0.105677
H	-2.754272447	-0.131032873	 1.7467213048	 0.078585
