18
gdb 108097	2.54887	1.46161	1.20646	3.2968	71.54	-0.2159	0.0625	0.2784	1083.4415	0.147924	-438.992609	-438.984399	-438.983455	-439.025366	31.833	
O	 0.1509138804	 1.2284888233	-0.2457113898	-0.41666
C	-0.0416509857	-0.1084145227	 0.1995314987	-0.17852
C	-1.479620085	-0.5243890479	 0.1845465945	 0.257979
C	-2.6397321765	-0.0084511824	 1.0347559061	-0.24903
C	-3.455442114	-1.180401602	 0.4381408607	-0.131491
N	-3.5842020085	-0.7624786873	-1.0011694875	-0.307556
C	-2.1461216462	-1.0720315225	-1.1239845123	-0.19231
C	-2.0550160965	-1.9163748035	 0.1183018468	 0.295817
O	-1.445739126	-3.0901652928	 0.4763897003	-0.446825
H	-0.2995351156	 1.3150364944	-1.0925700189	 0.281813
H	 0.5545461188	-0.8227547629	-0.392176041	 0.088366
H	 0.3518274251	-0.1354927142	 1.2215948937	 0.115114
H	-2.4335528567	-0.1481330314	 2.0994441381	 0.102229
H	-3.034780432	 0.9925574285	 0.8441420335	 0.106311
H	-4.3436191705	-1.5801717199	 0.9234729753	 0.077006
H	-4.0960931854	-1.4944717845	-1.4933839347	 0.211596
H	-1.6105245903	-1.102790146	-2.0655053053	 0.094244
H	-1.8478494555	-3.8133785862	-0.018758208	 0.291915
