20
gdb 114007	3.99145	0.71836	0.68882	4.297	78.56	-0.2576	0.0249	0.2826	1711.7388	0.169069	-440.260968	-440.250928	-440.249984	-440.297454	35.057	
C	-0.3645141317	 1.1125559988	-0.9348707984	-0.376793
C	-0.0938440054	 0.1298895736	 0.2115704803	-0.218437
C	-1.2978944427	-0.7389293649	 0.4931095968	 0.079838
O	-1.5757735756	-1.8084633101	-0.4215740905	-0.261369
C	-1.2690559435	-2.1416324996	 0.9398722482	 0.037269
C	-0.0086965396	-2.9340028749	 1.1805160016	-0.125272
O	-0.2278945754	-4.3323187676	 0.9931393188	-0.18697
C	-0.2847760345	-4.7615446818	-0.2890352481	 0.126915
N	-0.5144289793	-5.9789263726	-0.5265225742	-0.439129
H	 0.5085729501	 1.7425906316	-1.1264229209	 0.118265
H	-0.6057941682	 0.5727510758	-1.855291244	 0.135722
H	-1.208298817	 1.7703727325	-0.7006483513	 0.119803
H	 0.7724001494	-0.4916177515	-0.0327848087	 0.104808
H	 0.1556984019	 0.6816755782	 1.1270890082	 0.107418
H	-2.1917758844	-0.1729748194	 0.7682534973	 0.093768
H	-2.1252333002	-2.5119241853	 1.5063344523	 0.108421
H	 0.8043443935	-2.5850278856	 0.5353497876	 0.114328
H	 0.3067333174	-2.8312408063	 2.2229527968	 0.12795
H	-0.1165833716	-3.9666011318	-1.0252997468	 0.104517
H	-0.5117530932	-6.1392466092	-1.531787555	 0.228947
