19
gdb 32408	3.09389	1.15125	0.85171	1.13	79.3	-0.1869	0.0605	0.2475	1339.2884	0.159039	-419.235648	-419.225487	-419.224543	-419.271633	36.059	
C	-0.0841751965	 1.5117783688	 0.0241446323	-0.515397
C	-0.0173772895	 0.0154534092	 0.0191597257	 0.14536
C	 0.0079252188	-0.7989938813	-1.0975926661	 0.164467
N	-0.0172083154	-0.5475194351	-2.4919881635	-0.613137
N	 0.0704791074	-2.1021056077	-0.6646125591	-0.263226
C	 0.0858819583	-2.1423533841	 0.7045177323	-0.171839
C	 0.0322888901	-0.8458672386	 1.1607890205	 0.194804
C	 0.0275989231	-0.4187996073	 2.594163179	-0.193054
O	 0.0768403984	-1.5743429024	 3.419618568	-0.418893
H	 0.7825042221	 1.9640449423	 0.5233337939	 0.11997
H	-0.1129657533	 1.9046826897	-0.9973264666	 0.101755
H	-0.9766465337	 1.8852809617	 0.5426526904	 0.120053
H	 0.7714622441	 0.0175761816	-2.7893238697	 0.240975
H	-0.859951225	-0.0572930763	-2.7734640955	 0.24098
H	 0.0989615553	-2.8874323661	-1.2912084611	 0.25545
H	 0.1322584736	-3.068848573	 1.2502759243	 0.128994
H	 0.8880483013	 0.2438153722	 2.7958575914	 0.088428
H	-0.8762762989	 0.178577116	 2.8092309109	 0.088351
H	 0.0791991096	-1.2839183998	 4.3356008229	 0.285957
