17
gdb 17334	3.54693	2.17273	1.78785	3.2674	67.03	-0.2336	0.0735	0.3072	800.5444	0.143229	-363.824082	-363.817376	-363.816431	-363.854488	26.913	
C	-0.010795454	 1.5517940528	 0.0274289403	-0.506118
C	 0.1111424312	 0.0509915274	 0.0121224516	 0.309318
N	-0.80830787	-0.7983590751	 0.7995981971	-0.347793
C	 0.6280560264	-0.7711930207	 1.1448228432	-0.090265
C	 1.4454945003	-1.945977318	 0.6067025083	-0.249059
C	 1.3801920297	-1.8154928799	-0.9138191213	 0.035118
O	 0.0744149985	-1.9494749317	-1.4782025121	-0.232397
C	 0.5773430116	-0.631338368	-1.2688608815	-0.004482
H	 0.8934105411	 2.0280879583	-0.368435003	 0.125415
H	-0.8567276509	 1.8876826369	-0.5836173953	 0.130568
H	-0.1620837301	 1.9231097709	 1.0461783835	 0.116703
H	-1.312003794	-0.2048475209	 1.4570830986	 0.223245
H	 0.923205423	-0.314665933	 2.0856969126	 0.08335
H	 2.4875173065	-1.8575297118	 0.9349977032	 0.101309
H	 1.0636147315	-2.9128795141	 0.9486812753	 0.124507
H	 2.1917288285	-2.1993544555	-1.5291150707	 0.091952
H	 0.7381780106	-0.0359847074	-2.1646598498	 0.088629
