17
gdb 119820	5.95283	0.79019	0.70685	3.9125	71.85	-0.244	-0.0091	0.2349	1553.4279	0.135337	-455.178239	-455.169286	-455.168342	-455.213043	31.345	
C	 0.011340498	 1.4200077113	-0.0434736849	-0.227635
O	-0.0145937518	 0.0124463297	 0.0245183677	-0.205168
C	 0.6122820195	-0.5888034847	-1.0646383929	-0.151437
C	 0.5573215792	-2.0845060999	-0.9418747428	 0.35717
N	 0.0265003552	-2.7540087143	 0.0056070528	-0.27392
C	 0.2300803857	-4.1647048999	-0.3292469947	-0.301064
C	 0.9879410888	-4.2018732302	-1.662776154	 0.401981
O	 1.3721287056	-5.1317738151	-2.3260506355	-0.358456
N	 1.1410413534	-2.8496352311	-1.9578796669	-0.378427
H	 1.0415685427	 1.8096125141	-0.0543447872	 0.107781
H	-0.5089298601	 1.795483863	-0.9388073399	 0.107761
H	-0.4996264612	 1.7927872244	 0.8462960029	 0.139412
H	 0.1365366725	-0.297480123	-2.0207679189	 0.107044
H	 1.6729049404	-0.2821651945	-1.1448893314	 0.107158
H	 0.803617203	-4.6756192362	 0.4520044669	 0.151397
H	-0.7272019344	-4.690253787	-0.4172918633	 0.151505
H	 1.6057417633	-2.5094070466	-2.7844263978	 0.264899
