16
gdb 131543	3.03984	1.6123	1.0983	3.2831	71.51	-0.1924	0.0152	0.2076	1045.9927	0.128211	-434.061184	-434.053823	-434.052878	-434.09312	28.312	
O	 0.0619330988	 1.4264244721	-0.1560963902	-0.426531
C	 0.0038717509	 0.0125901689	-0.0151815946	-0.051539
C	 0.5700021801	-0.4993021934	 1.3626517272	-0.193769
N	-0.3337456828	-1.5852109964	 1.839328447	-0.419172
C	-1.5420007641	-1.3651414619	 1.1440904233	 0.213928
C	-1.3927652786	-0.4888281824	 0.1015485414	 0.368825
N	-2.5711424887	-0.468987888	-0.5680962184	-0.33437
N	-3.4953565422	-1.25238136	 0.023123944	-0.221856
C	-2.8717519534	-1.8230784841	 1.0636908999	-0.138871
H	 0.9616708342	 1.6640382127	-0.4025671389	 0.285411
H	 0.5374491356	-0.4606725487	-0.854775645	 0.086196
H	 1.5974959219	-0.8656172322	 1.2830679503	 0.104619
H	 0.555232032	 0.3674658106	 2.0367187411	 0.113381
H	-0.4270492063	-1.5932572945	 2.8481701351	 0.232755
H	-2.8455645322	 0.1024101674	-1.3482902322	 0.274509
H	-3.4126161851	-2.51302868	 1.6931769101	 0.106485
