17
gdb 29868	3.08002	1.40268	0.97544	7.4259	79.94	-0.2273	-0.0197	0.2077	1186.6326	0.136919	-418.071842	-418.063286	-418.062342	-418.105386	30.918	
C	 0.0950258504	 1.4912619881	 0.0045311351	-0.347882
N	 0.0175304637	 0.0376564043	 0.0025613776	-0.064059
C	-0.1403725803	-0.6769923848	-1.1504702491	 0.097447
N	-0.2179893126	-1.9572509715	-1.2423782778	-0.333927
C	-0.1380842244	-2.740396444	-0.0736938923	 0.331075
O	-0.2073398083	-3.955305292	-0.1180058751	-0.361389
C	 0.0332752984	-2.0170167399	 1.2033132889	 0.109308
C	 0.1208007188	-2.828200385	 2.4586447706	-0.47149
C	 0.1030982111	-0.6699482958	 1.1863043319	-0.064515
H	 1.0522562034	 1.8292188809	 0.4141397683	 0.150594
H	 0.0074679546	 1.8545667001	-1.0204191732	 0.152291
H	-0.7166336169	 1.9232344414	 0.5985712745	 0.150596
H	-0.2017876914	-0.0676497693	-2.0521302991	 0.125894
H	 0.9570197526	-3.5323192352	 2.3976022228	 0.148031
H	 0.2464432704	-2.1993492416	 3.3445652406	 0.106064
H	-0.7793273423	-3.4399443145	 2.5783349602	 0.14803
H	 0.2281401327	-0.0687208512	 2.0806736661	 0.123933
