21
gdb 38183	4.51911	1.03936	1.01377	1.5554	82.2	-0.2324	0.085	0.3174	1275.0362	0.183521	-387.034717	-387.026727	-387.025783	-387.067546	31.376	
C	 0.0294685577	 1.4654359606	 0.0811391981	-0.307543
C	 1.3380928205	 0.7524501239	 0.2080774244	 0.114071
O	 1.4488093707	 0.0933210029	 1.4710429719	-0.303452
C	 0.3084496784	-0.7630721448	 1.1350615003	 0.095935
C	 0.1083537305	-0.0243791595	-0.1901030379	-0.132145
C	 0.7007297951	-2.2207305783	 1.0462005796	 0.026647
C	 1.9476072767	-2.6479627343	 0.2204695576	-0.225161
C	 2.2873888705	-3.6692987826	 1.3391798133	-0.211581
C	 1.3566032616	-2.8767432757	 2.295454815	-0.235789
H	-0.466348367	 1.839857074	 0.9728797664	 0.114619
H	-0.0837121848	 2.0830152523	-0.8049141091	 0.113195
H	 2.2529508382	 1.0106645685	-0.3128527005	 0.100965
H	-0.4952163934	-0.6358870585	 1.874505379	 0.076294
H	-0.17300719	-0.4787370366	-1.1307066999	 0.097752
H	-0.1834662136	-2.7899236938	 0.7321137987	 0.068017
H	 1.7847208029	-3.0293194133	-0.7904486772	 0.088626
H	 2.6821522673	-1.8399047726	 0.184569862	 0.114167
H	 1.8880804702	-4.6633415022	 1.1168971633	 0.097811
H	 3.3361814004	-3.7736242656	 1.6264972539	 0.096355
H	 1.9129815481	-2.1310559817	 2.8698343114	 0.120082
H	 0.7114898599	-3.4411817826	 2.9731409998	 0.091134
