18
gdb 56001	4.00884	0.97938	0.92852	2.0734	76.21	-0.2455	0.0066	0.2522	1333.0299	0.147086	-439.100189	-439.091394	-439.09045	-439.134956	31.647	
C	-0.3556357889	 1.3700776144	-0.2001241951	-0.461354
C	 0.0596046821	-0.0518470036	 0.0798968243	 0.408606
N	 0.5583328479	-0.5322324073	 1.1416781929	-0.516913
O	-0.1729547272	-0.8148001392	-1.018390839	-0.268366
C	 0.0868456163	-2.2307090392	-0.9275401429	 0.198239
O	-1.0594326797	-2.9189686636	-0.4968123795	-0.256016
C	-1.6551472773	-3.6134480129	-1.5912081087	-0.120397
C	-0.6567801341	-3.5020727897	-2.7074112613	-0.091716
C	 0.3512544251	-2.7301339167	-2.3204992114	-0.108634
H	-0.1393017261	 2.0177326892	 0.6510649284	 0.124213
H	 0.1669953332	 1.7478314521	-1.0840968709	 0.143911
H	-1.4273462102	 1.4093157158	-0.4182527669	 0.14801
H	 0.667780186	 0.192817046	 1.8460718631	 0.220095
H	 0.8821019983	-2.3715706291	-0.1937076818	 0.124197
H	-1.841661219	-4.6510407157	-1.2835848786	 0.117303
H	-2.6263366901	-3.1685828865	-1.8580970394	 0.113155
H	-0.7839283353	-3.9824163763	-3.6689478484	 0.112616
H	 1.2217821093	-2.4357223476	-2.8901407247	 0.11305
