11
gdb 740	9.19708	3.52282	2.58813	2.8649	47.54	-0.2618	-0.0052	0.2566	487.3888	0.085647	-285.292217	-285.28705	-285.286106	-285.320703	18.326	
C	-0.0200758183	 1.5073257395	 0.004215533	-0.492965
C	-0.0003796052	 0.0122387279	 0.0351725558	 0.387613
N	-0.0863834421	-0.6721054403	-1.0822794634	-0.192144
O	-0.0402421592	-2.0148530218	-0.7153450916	-0.162538
C	 0.0726890314	-2.0933684106	 0.6173150765	 0.0872
C	 0.104319883	-0.8544165345	 1.1656414349	-0.323642
H	 0.8971585531	 1.9190670796	 0.437473063	 0.138474
H	-0.1099627548	 1.8582951232	-1.0252729313	 0.151745
H	-0.8620187955	 1.8989258677	 0.584173257	 0.138489
H	 0.1185718144	-3.0907295785	 1.0269266666	 0.149579
H	 0.1885552529	-0.5887172421	 2.2062520196	 0.118189
