16
gdb 51023	2.29155	1.3458	0.98853	3.3661	73.18	-0.2656	0.0081	0.2737	1204.2943	0.121581	-437.811218	-437.802109	-437.801165	-437.846277	31.948	
N	-0.083669424	 1.3149968407	 0.0390864238	-0.434373
C	-0.0116297007	 0.0578749079	-0.0114707099	 0.113934
O	-1.1543618245	-0.6663005603	-0.101510446	-0.22369
C	-1.0392958869	-2.0850475247	-0.0168146564	 0.148059
C	-0.8954117446	-2.6433786504	 1.4320183219	-0.107817
O	-2.2035183896	-3.233347622	 1.3820800962	-0.26329
C	-2.4524240609	-2.7155256122	 0.0635593961	-0.108405
C	-0.137986745	-2.6395739263	-1.0144737478	 0.310379
C	 0.6030240603	-3.1135255817	-1.833524545	-0.472937
H	 0.8512319667	 1.7149867807	 0.089215259	 0.233159
H	 0.899406759	-0.5513028644	-0.005503327	 0.104576
H	-0.1059295221	-3.3879714026	 1.5768735051	 0.117247
H	-0.8171989089	-1.8531118055	 2.1880502873	 0.119692
H	-3.2438707183	-1.9589189559	 0.0460911414	 0.130302
H	-2.658923574	-3.5053968944	-0.6645434364	 0.120929
H	 1.2537937635	-3.5299516189	-2.5631395923	 0.212236
