18
gdb 105947	4.08702	1.3681	1.29531	2.3088	74.53	-0.2281	0.0697	0.2979	1023.5657	0.149351	-401.852592	-401.84551	-401.844566	-401.884333	28.346	
O	 0.0644767455	 1.3463602167	-0.2272176903	-0.415195
C	 0.0314962657	-0.0430660779	 0.0579932665	-0.214446
C	-1.362363775	-0.5667549852	 0.0118630775	 0.383508
C	-2.3563004118	-0.9056968203	-1.0577909381	-0.145334
C	-2.0397906899	-1.9013641697	 0.0867055154	-0.176118
C	-3.0283155673	-1.3789363675	 1.1399877765	-0.006295
C	-4.3521102044	-1.0205870825	 0.4437961001	-0.243142
C	-3.4434583484	-0.0770264904	-0.3630591432	-0.003703
N	-2.488108486	 0.0422457343	 0.848586182	-0.238592
H	-0.5729443596	 1.7571240342	 0.3695842637	 0.292744
H	 0.6523112449	-0.5410577176	-0.6950280934	 0.112699
H	 0.4737719308	-0.2555255752	 1.0453018204	 0.093166
H	-2.2015542356	-1.1432014931	-2.1020951929	 0.09326
H	-1.6495529845	-2.8952024852	-0.0898917277	 0.092593
H	-2.9779947221	-1.7541931201	 2.1619581607	 0.079461
H	-4.9032227198	-1.8036067893	-0.0823740556	 0.101151
H	-5.0138344563	-0.4627224597	 1.1120240979	 0.113566
H	-3.8044007563	 0.8391839685	-0.8294897096	 0.080678
