15
gdb 26794	3.82234	1.08147	0.84795	5.2977	80.93	-0.1958	-0.0099	0.1859	1275.1782	0.115164	-413.034779	-413.026239	-413.025295	-413.067721	31.775	
N	 0.0981593737	 1.3829126027	 0.0637969976	-0.608055
C	 0.0113095815	-0.0008150334	 0.005149954	 0.330733
C	-1.1309779436	-0.7949329545	 0.0299696921	 0.16558
N	-2.4364960446	-0.2227612925	 0.0256539123	-0.623934
C	-0.7011896531	-2.1444222045	 0.0384474426	-0.314955
C	 0.6825120675	-2.1474305514	 0.0109288004	 0.213972
N	 1.0988794486	-0.8158240722	-0.0041318868	-0.377763
C	 1.6037501984	-3.2077943676	-0.0132277808	 0.190878
N	 2.3780641721	-4.0734437384	-0.0308133414	-0.361895
H	 0.7210505575	 1.7903310439	-0.6239169066	 0.249835
H	-0.8335381856	 1.7734783806	-0.0335064946	 0.263507
H	-2.9152166807	-0.3700492632	 0.9092486931	 0.243336
H	-3.0203257912	-0.6322103696	-0.6964684627	 0.241531
H	-1.3233904537	-3.0262710323	 0.0413923809	 0.113396
H	 2.0570251731	-0.5174922177	 0.0630914801	 0.273836
