20
gdb 12509	3.21349	1.79327	1.29009	0.1537	82.23	-0.2253	0.0261	0.2514	1014.9908	0.178316	-311.885869	-311.877899	-311.876955	-311.918138	30.731	
C	-0.5580163266	 1.4573269838	 0.223665077	-0.476943
C	 0.0661693968	 0.1166379948	-0.0565804988	 0.342693
C	-0.1519244229	-0.5436762265	-1.1946689087	-0.152791
C	 0.4461820628	-1.8878274277	-1.5228739745	-0.257241
C	-0.0762861179	-3.0207702169	-0.623432521	-0.232254
C	 0.2751878251	-2.8985656284	 0.8362429687	-0.033216
C	 0.7262175863	-1.8395127239	 1.5099539693	-0.051355
C	 0.982400503	-0.4260331044	 1.0289254705	-0.356712
H	 0.2090635649	 2.2188259839	 0.4186080424	 0.119979
H	-1.1724149262	 1.8018722719	-0.6125437241	 0.117207
H	-1.1903335212	 1.4201811745	 1.120620974	 0.122515
H	-0.8145434864	-0.101637778	-1.9358905896	 0.072818
H	 0.2374274767	-2.1407034107	-2.567385364	 0.093012
H	 1.5405362209	-1.8494652806	-1.4291086286	 0.10515
H	-1.1684182562	-3.0987876285	-0.7300952874	 0.107488
H	 0.3187060753	-3.9789883205	-0.9889698359	 0.096749
H	 0.1472866829	-3.8203373381	 1.4027821797	 0.07864
H	 0.9548821123	-1.9906572279	 2.5635985537	 0.081617
H	 2.0289676225	-0.3427791288	 0.6908973089	 0.122193
H	 0.9236186379	 0.2358701422	 1.9001623584	 0.100448
