19
gdb 39166	3.10426	1.68864	1.25124	1.8455	81.51	-0.2286	0.0185	0.2471	1031.9918	0.161703	-385.901139	-385.893918	-385.892974	-385.932805	29.1	
C	-0.0369974339	 1.5146529804	-0.1002860307	-0.253276
C	 1.4517403024	 1.9686000768	 0.0586681339	-0.371143
C	 2.2281474562	 0.6640536571	 0.0421493496	 0.419017
O	 3.3936900457	 0.4514031439	-0.7870333203	-0.315283
C	 3.4818118919	 0.1607311713	 0.6178948952	-0.06532
C	 3.3110089434	-1.3211850031	 0.9384822674	-0.24076
C	 2.0028261034	-1.7515929121	 0.1930392704	-0.354492
C	 1.2576415318	-0.4574486186	 0.0119448176	 0.345857
C	 0.0077187265	-0.0039669859	-0.0395949897	-0.257173
H	-0.6682882883	 1.9244325933	 0.6970934469	 0.107157
H	-0.4750078214	 1.868479668	-1.0424654378	 0.111456
H	 1.7792704352	 2.6166501603	-0.7575052018	 0.123748
H	 1.5983802706	 2.5195438077	 0.9919454152	 0.11181
H	 4.1774852299	 0.7769750292	 1.1826866652	 0.091378
H	 4.1777951408	-1.9168234562	 0.6372835869	 0.110168
H	 3.1933711759	-1.4354732055	 2.0226418283	 0.105683
H	 2.2595226463	-2.1762061096	-0.7829924424	 0.129406
H	 1.4389714608	-2.5111929092	 0.7398911818	 0.110617
H	-0.8962843873	-0.6031609979	-0.0166257757	 0.091149
