15
gdb 27712	2.86596	1.33252	0.91138	3.1718	83.98	-0.1693	0.0118	0.1811	1212.7344	0.112209	-416.80437	-416.795546	-416.794601	-416.837322	33.539	
N	 0.1285086203	 1.3432968731	 0.1427189978	-0.605478
C	-0.0538629074	-0.0217463047	 0.0612770168	 0.37206
C	-1.1754735688	-0.8073555991	 0.0683186402	-0.312648
C	-0.6986717735	-2.1553249373	 0.0525206561	 0.148678
N	-1.4764698452	-3.3014302755	 0.1223335001	-0.620136
C	 0.6768310993	-2.1007024126	 0.0264081183	 0.156256
O	 1.0685164545	-0.7539240865	 0.039165597	-0.216814
C	 1.6460370084	-3.1001193356	-0.0114002321	 0.211256
C	 2.4522502734	-4.0004524517	-0.0574558228	-0.430203
H	 1.010547097	 1.6522750439	-0.2431013938	 0.261555
H	-0.6485110187	 1.8838969129	-0.2078053788	 0.258837
H	-2.2005215072	-0.4749017767	 0.1039386374	 0.096417
H	-2.3587953218	-3.2355173731	-0.3651519493	 0.24728
H	-0.9759937729	-4.1414219833	-0.136597045	 0.25344
H	 3.1661313327	-4.7853589538	-0.071354472	 0.179501
