20
gdb 72610	2.13527	1.92103	1.60313	1.985	77.89	-0.2327	0.074	0.3067	989.0871	0.170123	-403.093725	-403.08535	-403.084406	-403.125978	33.038	
C	-0.1298677166	 1.5931311789	-0.1780779712	-0.49941
C	-0.0168409865	 0.1052798933	 0.0363819735	 0.218621
C	 0.9188068853	-0.7094854743	-0.8710739002	-0.114814
O	 1.4971960015	-1.4136403149	 0.2497837982	-0.334198
C	 0.6828946091	-0.694210052	 1.203305535	 0.409947
C	 1.4872050315	-0.2029419948	 2.3780755075	-0.478069
C	-0.6580978657	-1.3887497724	 1.393092875	-0.087513
C	-1.7362345217	-0.4029318762	 1.5997898356	-0.262541
N	-1.2987260619	-0.6584555351	 0.2160326525	-0.153897
H	 0.8598228131	 2.0591533166	-0.2154217361	 0.124548
H	-0.6346173005	 1.7946710128	-1.130245503	 0.133881
H	-0.7046171562	 2.0837313451	 0.6128002685	 0.121307
H	 0.409310263	-1.3754005658	-1.5759013245	 0.111453
H	 1.6765384015	-0.116835149	-1.3990716576	 0.09658
H	 2.2971355216	 0.4532097389	 2.0462047099	 0.124263
H	 0.8611403275	 0.3413776839	 3.0907924481	 0.118147
H	 1.9390736786	-1.0547451115	 2.8991381918	 0.133112
H	-0.7867614558	-2.4565348178	 1.5364392045	 0.102042
H	-2.7324130961	-0.7830765857	 1.8022251239	 0.125236
H	-1.5212442918	 0.5561918399	 2.0658149989	 0.111305
