13
gdb 125553	5.56416	1.39834	1.12534	3.5258	65.59	-0.2624	-0.0272	0.2352	1003.0534	0.09196	-448.934272	-448.927724	-448.92678	-448.965398	24.146	
C	-0.0161337598	 1.4043187461	 0.0406767238	-0.49442
C	-0.0124077146	-0.071988447	-0.0492904119	 0.394658
N	-0.1984294571	-0.7994040223	-1.1074802128	-0.267183
N	-0.0876627188	-2.0692132727	-0.6061568088	 0.093613
N	-0.1592327461	-3.330161324	-1.0841556595	-0.261853
C	 0.0590603339	-4.0114903288	 0.0439789934	 0.031493
N	 0.2628891707	-3.2846563257	 1.1971515302	-0.391238
C	 0.1561182562	-2.0753264531	 0.7090628957	 0.480891
O	 0.2137733604	-0.788382797	 1.116492263	-0.228665
H	 0.9471703077	 1.7711046813	 0.4083188937	 0.164695
H	-0.2067162597	 1.8190554295	-0.9492721368	 0.173629
H	-0.7914951149	 1.7468416441	 0.7328794332	 0.164683
H	 0.073511412	-5.0906852904	 0.0418903766	 0.139696
