24
gdb 14792	11.31851	0.53039	0.51805	0.8453	84.18	-0.2475	0.0906	0.3381	2247.3252	0.221405	-351.412879	-351.401976	-351.401032	-351.449857	37.486	
C	-0.0062709291	 1.5703145668	 0.0378712087	-0.378798
C	 0.0180189856	 0.0393937369	 0.0260156242	-0.164703
C	 0.7394125041	-0.5545213845	 1.2399384589	-0.177674
C	 0.763776023	-2.0767400582	 1.228513285	-0.050371
O	 1.4450866847	-2.530987134	 2.3775451677	-0.248135
C	 1.5226857118	-3.9365717739	 2.4645497376	-0.028779
C	 2.2733261306	-4.3118625619	 3.7348833998	-0.18148
C	 2.4057504121	-5.8262334131	 3.9121048664	-0.381946
H	 1.0092404774	 1.9814260027	 0.0387470045	 0.115005
H	-0.5266538593	 1.9685887077	-0.8387140335	 0.110523
H	-0.5160145688	 1.9503273451	 0.9300764349	 0.115002
H	-1.011071468	-0.3421723831	-0.0100142232	 0.095362
H	 0.5030571293	-0.3112978441	-0.8946733441	 0.095369
H	 1.7728811897	-0.1886078596	 1.2794586859	 0.10237
H	 0.2558285653	-0.2194673162	 2.1658937919	 0.102349
H	-0.2657368141	-2.4768081137	 1.209848188	 0.079837
H	 1.2638858802	-2.4455839971	 0.3151845931	 0.079841
H	 0.5096648554	-4.377662751	 2.4739364873	 0.079184
H	 2.0390117094	-4.3486896854	 1.5788624817	 0.079176
H	 3.2642108383	-3.8443190672	 3.7039232705	 0.105471
H	 1.7483467531	-3.873047844	 4.5911838126	 0.105469
H	 1.4241167373	-6.3096838642	 3.9693810403	 0.115344
H	 2.9495301	-6.2807867611	 3.0764649113	 0.115344
H	 2.9479875721	-6.068693677	 4.8305882006	 0.116238
