20
gdb 105630	2.03311	1.34334	1.17335	3.0508	79.2	-0.2655	0.022	0.2876	1214.0124	0.169701	-403.153485	-403.143786	-403.142842	-403.187964	35.272	
C	 0.1279830724	 1.6265023878	 0.1153485288	-0.404117
C	 0.1340491004	 0.0961583159	 0.0513095711	-0.244299
C	 0.7419210959	-0.4626714864	-1.2475799107	 0.089125
C	 2.2969289679	-0.3883978018	-1.2938430634	-0.106608
O	 2.4113153139	-1.7856359695	-0.9851036704	-0.28557
C	 1.0137696437	-2.012032787	-1.2680895823	 0.119923
C	 0.3433649445	-2.9411781253	-0.2816623681	-0.418246
C	 0.0431882371	 0.0422525849	-2.422699889	 0.246161
N	-0.5157700206	 0.4322395095	-3.3570572057	-0.349746
H	 1.1401086591	 2.0370904621	 0.0344980421	 0.122115
H	-0.4729757161	 2.0549014954	-0.6919856133	 0.147526
H	-0.2910533933	 1.966409708	 1.0664532254	 0.124008
H	 0.7132071136	-0.3089887361	 0.8875409057	 0.118682
H	-0.8882394807	-0.2832879616	 0.158352336	 0.117538
H	 2.7041799389	-0.1434897217	-2.2822937118	 0.119116
H	 2.7664095792	 0.2444476281	-0.5338437557	 0.116295
H	 0.891544445	-2.4017836728	-2.2886414067	 0.091376
H	 0.4332814417	-2.5838629727	 0.7463339746	 0.127286
H	-0.7167512896	-3.0601626843	-0.5278181946	 0.130773
H	 0.8162704371	-3.9263562328	-0.3415139219	 0.138662
