18
gdb 23321	3.47796	1.32721	1.24579	0.9137	79.48	-0.2332	0.0021	0.2354	1060.3036	0.149918	-401.918274	-401.91113	-401.910186	-401.949655	29.437	
O	-0.1408520057	 1.3227043672	-0.0253827105	-0.398659
N	 0.0101953128	-0.082195483	-0.0092190559	-0.272091
C	-1.1198608503	-0.6597338986	 0.0042284602	 0.462326
C	-2.5203244248	-0.0686954951	 0.0326379786	-0.300034
C	-3.3898334074	-1.3712291589	 0.0254928775	-0.07437
C	-2.5290468704	-2.2900537678	 0.9299960586	-0.221649
C	-1.2757846368	-2.177818425	 0.0207462066	-0.13592
C	-1.9037026204	-2.5052863843	-1.3366740854	-0.084183
C	-3.1542673405	-2.0343176884	-1.3274276616	-0.071727
H	 0.7745272343	 1.6224487782	-0.0281206891	 0.303339
H	-2.6645198216	 0.519890217	 0.9455040381	 0.122593
H	-2.7102249675	 0.5923115092	-0.816271273	 0.124846
H	-4.4290681768	-1.2188766368	 0.3160320135	 0.065846
H	-2.3726260871	-1.8886444565	 1.936686655	 0.098741
H	-2.9112963032	-3.311639196	 0.9877267312	 0.102243
H	-0.3762316769	-2.7238446053	 0.2965673608	 0.077222
H	-1.3604459586	-2.9365978039	-2.1672183366	 0.103883
H	-3.8536368392	-2.011202522	-2.153610728	 0.097594
