17
gdb 10895	3.01274	1.93655	1.50849	3.9533	69.23	-0.2307	-0.015	0.2157	902.8934	0.141018	-363.842594	-363.834611	-363.833667	-363.874631	29.833	
C	-0.0568165455	 1.5968228853	 0.0388784775	-0.419377
C	 0.0472121918	 0.0788150186	 0.0038582683	-0.150592
C	 1.1222322485	-0.6043027742	-0.8972901674	 0.457402
O	 1.2805344416	-0.6645521641	-2.0817241793	-0.31637
C	 1.7313006936	-1.3071933697	 0.2920696013	-0.254681
N	 2.0704959321	-0.1927601289	 1.2555226083	-0.360537
C	 0.690184617	-0.6844158904	 1.1890873124	 0.329805
C	-0.0267444627	-1.2674345188	 2.3666322762	-0.507082
H	 0.88404275	 2.0351569522	 0.3792632363	 0.142976
H	-0.276489071	 1.9824727178	-0.9613625812	 0.132441
H	-0.858094157	 1.9265990492	 0.7086583727	 0.11312
H	-0.9154074389	-0.3792054554	-0.2598556594	 0.098232
H	 2.2488379671	-2.2569779719	 0.3509911819	 0.110357
H	 2.526342102	-0.6493776307	 2.0473397309	 0.232809
H	-0.3668533924	-0.4799773957	 3.048823216	 0.136596
H	-0.9066669957	-1.8359016711	 2.0484175722	 0.132514
H	 0.6260550195	-1.9409480821	 2.9325242634	 0.122387
