15
gdb 64879	3.63978	0.96496	0.90129	3.7641	68.89	-0.2612	-0.0111	0.2501	1277.0917	0.111335	-453.952366	-453.9435	-453.942556	-453.987272	30.793	
O	 0.1653701235	 1.465028695	-0.2885051501	-0.443753
C	 0.015690243	 0.1004192134	-0.0040751179	 0.244242
C	 0.1456176091	-0.3106615015	 1.5116985936	-0.233213
N	-1.2672436058	-0.6784647478	 1.4758572207	-0.044978
C	-1.49498944	-0.2803403688	 0.0908916304	-0.202894
C	-2.1688225446	-1.0135618978	 2.4292431537	 0.136926
O	-3.3559978346	-1.1437112161	 2.2226120905	-0.318519
C	 0.8152449017	-0.7306164826	-0.9112222866	 0.23242
N	 1.4779447271	-1.3609288034	-1.6176641366	-0.322994
H	 1.1045385057	 1.6755489699	-0.3518515005	 0.301677
H	 0.8329236429	-1.1351445062	 1.7236283195	 0.13944
H	 0.3805776294	 0.5528381853	 2.1433999564	 0.132433
H	-2.1406951531	 0.5947143824	-0.0262160184	 0.151143
H	-1.8313133043	-1.0854832326	-0.5664322374	 0.149441
H	-1.6914156402	-1.1659845692	 3.4184160526	 0.078628
