20
gdb 71647	3.09519	1.88783	1.62604	1.5569	80.51	-0.2044	0.08	0.2844	920.1798	0.173666	-365.961397	-365.954659	-365.953714	-365.991928	28.984	
C	 0.0150317734	 1.5591422224	 0.0678106136	-0.495259
C	 0.0090370711	 0.0443845692	-0.0017823958	 0.307094
C	 0.3152620453	-0.654420058	-1.3535630496	-0.208778
N	-0.7872892049	-1.6425511167	-1.1189618816	-0.135157
C	-0.4720102678	-2.6338197603	-0.0607818163	-0.037918
C	 0.1785845413	-2.0390538163	 1.1851793692	-0.059931
C	 0.8288210756	-0.6697372174	 1.0913666561	-0.274422
C	-1.3097342166	-1.9191832436	 0.9807456166	-0.107608
C	-1.3589917156	-0.7597391712	-0.0276628169	-0.03906
H	 1.0308562003	 1.9570168074	-0.0411559455	 0.116489
H	-0.5985174568	 1.9970025221	-0.7271010265	 0.11409
H	-0.3760490989	 1.9125282175	 1.0289521109	 0.11447
H	 0.0728625991	-0.0430473589	-2.2297205883	 0.09621
H	 1.3136103319	-1.0861728025	-1.482670087	 0.095824
H	-0.3930737524	-3.6889037651	-0.2993904628	 0.088091
H	 0.5396916529	-2.7636259656	 1.9078875595	 0.083796
H	 1.8929850335	-0.702171748	 0.8307270687	 0.095959
H	 0.7381263421	-0.1519483957	 2.0557691595	 0.090563
H	-2.0879908209	-2.2767489423	 1.6405433555	 0.088945
H	-2.2879319327	-0.230999387	-0.2461973894	 0.066603
