13
gdb 8794	5.20886	1.20063	0.98177	3.7165	57.12	-0.2456	-0.1188	0.1268	1110.57	0.093124	-435.772305	-435.763593	-435.762649	-435.806922	28.248	
C	-0.146132933	 1.4181694131	 0.0810575189	-0.337104
N	-0.0255894133	-0.0250939217	 0.1239243259	-0.304432
C	 0.6411691758	-0.6830685381	 1.091893938	 0.312977
O	 1.223596793	-0.1868469186	 2.0447109434	-0.363957
C	 0.6151591455	-2.2069376904	 0.8991132607	 0.216756
O	 0.0508152954	-2.7315456625	-0.0281817232	-0.270734
C	 1.3602838281	-3.0365383605	 1.9710361597	 0.094314
O	 1.3910906366	-4.2351891577	 1.8990462195	-0.212074
H	 0.297770253	 1.8227083448	-0.8344945727	 0.139833
H	-1.1957034254	 1.7265432976	 0.1283913239	 0.139835
H	 0.3847191772	 1.8208840658	 0.944670075	 0.173262
H	-0.4489335228	-0.6003171544	-0.5902876439	 0.271244
H	 1.8425961899	-2.4580117274	 2.7763374647	 0.14008
