18
gdb 66114	2.60921	1.4868	1.3282	4.1921	74.84	-0.2449	0.0257	0.2706	1039.3342	0.150293	-398.123201	-398.115179	-398.114235	-398.155506	31.426	
N	 0.1464750256	 1.3663168441	-0.067077237	-0.553315
C	 0.0565712186	-0.0958711244	-0.031460621	 0.137074
C	 0.6846393697	-0.6411656429	 1.2936910951	-0.237256
C	-0.0589629564	-1.9496790939	 1.6277660051	-0.224399
C	-1.4313458497	-1.7646519224	 1.0049284889	-0.018453
N	-2.0187736164	-0.430865482	 1.2808725479	-0.358481
C	-1.3622874538	-0.6953229298	-0.0134132656	-0.081252
C	 0.7651786462	-0.6409088876	-1.2021723928	 0.279441
N	 1.290975735	-1.0904109044	-2.1278806197	-0.339452
H	-0.202132074	 1.7176264572	-0.9550249325	 0.234761
H	-0.4765995214	 1.7206985156	 0.6554852251	 0.245802
H	 1.7642758315	-0.764751455	 1.2031940006	 0.125423
H	 0.4979702999	 0.1095334725	 2.0633425054	 0.126585
H	 0.4282284898	-2.8120974652	 1.1592211204	 0.119232
H	-0.1005589112	-2.1346180481	 2.7052578048	 0.111693
H	-2.0991459134	-2.6123333566	 0.8921715031	 0.095256
H	-3.0270909783	-0.4728385346	 1.1582443551	 0.237917
H	-1.945277322	-0.7046273926	-0.928429143	 0.099424
