18
gdb 79928	2.51325	1.59893	1.30398	0.8359	72.42	-0.2332	0.0193	0.2525	1061.3644	0.146036	-439.092177	-439.083137	-439.082193	-439.125768	33.171	
C	 0.0308838316	 1.4139777097	 0.0645330066	-0.482698
C	-0.0002766067	-0.0683725278	-0.0613482223	 0.399267
N	 0.0498366574	-0.7485967588	-1.1440394525	-0.322772
C	 0.0577781812	-2.1344928529	-0.7475170414	-0.156931
C	 1.2438710935	-2.5503123751	 0.1078449006	 0.033362
O	 2.3740737783	-1.7472480208	 0.2060581042	-0.424627
C	-0.0408824504	-2.1357060528	 0.7839748797	 0.364266
C	-0.8555879029	-3.0090301891	 1.6881623401	-0.481474
O	-0.101762193	-0.7530998096	 1.1103633123	-0.262249
H	 0.9428089169	 1.7312556171	 0.5803724977	 0.152077
H	-0.0001267899	 1.8655504229	-0.9266053262	 0.151894
H	-0.818975874	 1.7626286041	 0.6589835728	 0.145714
H	-0.4180654937	-2.8446174574	-1.4145562008	 0.096602
H	 1.4440572568	-3.6209628569	 0.1299449338	 0.097418
H	 2.5076540433	-1.3219691444	-0.6492208374	 0.296829
H	-0.7738966679	-4.053129509	 1.3735156675	 0.126497
H	-0.5013708499	-2.9390307735	 2.7219443224	 0.137007
H	-1.9123816905	-2.7247261659	 1.664949533	 0.129817
