17
gdb 61194	3.56188	0.84403	0.77714	4.8245	73.71	-0.2662	0.0035	0.2697	1445.1397	0.136267	-414.199874	-414.189942	-414.188998	-414.235269	35.066	
N	-0.0667308388	 1.534908705	 0.0812444751	-0.503594
C	-0.0052504371	 0.0893802805	-0.0169093843	 0.039289
C	-1.4197698358	-0.5025900487	 0.1564975345	-0.352914
C	-2.0135618417	-0.1763902073	 1.4496632853	 0.279904
N	-2.4932499168	 0.0517156315	 2.4753489572	-0.304559
C	 0.6105079629	-0.4578051958	-1.3457113577	-0.15271
N	-0.171635466	-0.0089880056	-2.4986518364	-0.50325
C	 2.0323684622	-0.0643055015	-1.4189866468	 0.254711
N	 3.1294521713	 0.2946466	-1.4898083808	-0.314211
H	 0.8558229111	 1.9552212814	 0.0493081481	 0.25231
H	-0.6371699296	 1.9404881706	-0.6534511714	 0.235699
H	 0.6269153118	-0.270069963	 0.8021611082	 0.123942
H	-2.065156086	-0.1367213278	-0.6484854151	 0.167278
H	-1.3846170488	-1.5930318766	 0.0563993014	 0.148876
H	 0.5703964853	-1.5528414335	-1.3181998352	 0.133273
H	 0.0242714044	 0.9692173553	-2.688999048	 0.242107
H	 0.0995501216	-0.5217250945	-3.3313057942	 0.253852
