13
gdb 56616	2.0402	1.38161	0.89095	2.9894	64.21	-0.2969	-0.0743	0.2226	1210.8798	0.086412	-452.754929	-452.745584	-452.74464	-452.79026	31.207	
O	-0.2093435673	 1.3004016992	 0.1278744642	-0.397513
C	 0.0106974809	-0.0840722658	 0.0196685699	-0.017991
C	 0.6896916012	-0.4436104231	-1.2373248859	 0.27317
N	 1.253354512	-0.6828641511	-2.2166538644	-0.29162
C	 0.8098972931	-0.6233004151	 1.2500571213	-0.269879
C	 0.1699122458	-0.0505621919	 2.5358298678	 0.17362
O	 0.764024014	 0.6639957833	 3.2877586462	-0.214725
C	 0.7909350778	-2.0816497616	 1.2957373577	 0.274699
N	 0.7299529053	-3.2341628073	 1.3526615523	-0.289542
H	 0.6277191425	 1.768890734	 0.0199055914	 0.310468
H	-0.9824961629	-0.5451250928	 0.0213090056	 0.168983
H	 1.8427041571	-0.2630361767	 1.2094326918	 0.161233
H	-0.8826507295	-0.360053331	 2.6983944222	 0.119098
