23
gdb 52678	1.8827	1.16039	0.84482	0.357	94.44	-0.2398	0.0615	0.3014	1522.7447	0.203325	-351.126112	-351.114949	-351.114005	-351.164118	39.637	
C	 2.882549243	 2.4957049755	-1.0869722154	-0.499933
C	 1.9911103871	 1.3566092894	-0.9113816111	 0.045272
C	 1.2599071704	 0.4105661852	-0.759091215	 0.086232
C	 0.3102339232	-0.6903835542	-0.5845284644	-0.161178
C	-1.1124696216	-0.2067021715	-0.9501309777	-0.384239
C	 0.6441411846	-1.9627145192	-1.3788690094	 0.009366
C	 1.6019890821	-1.9846006045	-2.545183185	-0.302854
C	 1.9394697516	-2.7379229813	-1.2794956419	-0.001903
C	 3.0927452909	-2.3311189233	-0.3871160057	-0.417678
H	 3.8432220825	 2.1891383039	-1.5154990615	 0.146988
H	 2.4460308925	 3.2441229668	-1.7577957545	 0.146515
H	 3.0905993044	 2.9901363146	-0.1315247046	 0.146674
H	 0.2993026888	-0.9575760673	 0.4827034974	 0.101632
H	-1.8469170477	-0.9907267508	-0.7395061039	 0.109883
H	-1.380485064	 0.683265014	-0.3750513001	 0.118873
H	-1.1690645357	 0.0422566066	-2.0138410499	 0.126535
H	-0.2385769532	-2.5879160024	-1.4897635194	 0.077688
H	 1.3321395733	-2.5391146634	-3.4376440359	 0.100562
H	 2.1543714135	-1.0697673863	-2.7332174616	 0.119873
H	 1.8062491029	-3.8160301063	-1.3414689569	 0.077447
H	 3.213905819	-1.2466665147	-0.3496913091	 0.134751
H	 2.9431034632	-2.6871790791	 0.6390145482	 0.109119
H	 4.0321048493	-2.7631898917	-0.7506540526	 0.110375
