17
gdb 38644	2.88069	2.27663	1.97492	0.1885	70.16	-0.2267	0.0018	0.2285	789.3823	0.140009	-421.811109	-421.805548	-421.804604	-421.840596	24.988	
C	-0.0358341632	 1.5921155712	 0.0162521555	-0.213377
C	 1.5033388778	 1.6339782436	 0.0321876069	 0.056628
O	 1.732000138	 1.0198876153	 1.2918234391	-0.267798
C	 1.1282919736	-0.2890261172	 1.0673919033	-0.005796
C	 2.265580497	-1.0971452767	 0.4970932915	-0.050377
C	 2.7746876204	-0.5252089035	-0.5983584821	-0.050377
C	 1.8830365512	 0.5744186127	-1.1155625379	-0.005796
O	 0.6077475023	-0.1030313226	-1.3224206956	-0.267798
C	 0.0160416626	 0.0542425244	-0.0413186263	 0.056628
H	-0.4376994599	 2.0352770315	 0.9280134718	 0.105364
H	-0.5278808864	 1.9894704625	-0.8721144475	 0.105364
H	 2.0272489458	 2.5866356269	-0.0209969374	 0.08692
H	 0.7141359825	-0.6563578329	 2.0060074027	 0.080217
H	 2.6599442392	-1.9753393673	 0.9934404607	 0.101531
H	 3.6612236672	-0.8514039558	-1.1282253149	 0.101531
H	 2.1981594358	 1.0348674884	-2.0515867543	 0.080218
H	-0.900964214	-0.5287993704	 0.0221524046	 0.08692
