20
gdb 62991	2.25911	1.61681	1.28025	3.9761	80.73	-0.2308	0.0305	0.2613	1092.0735	0.169616	-403.145351	-403.13633	-403.135386	-403.178868	34.325	
C	-0.0892227897	 1.5316496225	 0.0898724058	-0.436411
C	-0.0332065846	 0.0125978496	-0.0356611876	 0.289661
C	-1.4123931511	-0.6198619155	 0.1524201324	-0.425196
C	 0.722498741	-0.5929245816	-1.2491464761	-0.113434
C	 2.1956764494	-0.2663181846	-1.2351407018	-0.312971
C	 1.6611241339	-1.295021738	-0.2776111233	-0.014354
N	 0.9796296333	-0.6574642834	 0.8310538493	-0.057666
C	 1.309912773	-0.4814030547	 2.1285049033	 0.12669
O	 0.6931672446	 0.2058525846	 2.9207973102	-0.346135
H	 0.8854629332	 1.9898445707	-0.0948527696	 0.114811
H	-0.8014819322	 1.9379028599	-0.6355261748	 0.114671
H	-0.4086107244	 1.8117870446	 1.0960151783	 0.155938
H	-2.1081433163	-0.2437930184	-0.6054243114	 0.115104
H	-1.3576965595	-1.7084963302	 0.0626074882	 0.117055
H	-1.8076904212	-0.3719575477	 1.140875354	 0.145166
H	 0.2268950936	-1.0070167116	-2.116718821	 0.101066
H	 2.7514377857	-0.6654408312	-2.0783968179	 0.121788
H	 2.5636989492	 0.683749432	-0.8605269124	 0.121865
H	 1.9857624171	-2.3273412116	-0.229320186	 0.113594
H	 2.2088110251	-1.0718476154	 2.4056481907	 0.06876
