15
gdb 64635	2.29951	1.63903	1.41246	2.6143	72.12	-0.2477	-0.0245	0.2232	990.6144	0.111672	-416.818337	-416.80992	-416.808976	-416.851202	31.317	
C	-0.0143691425	 1.5428162142	-0.0010248663	-0.407189
C	-0.0075049497	 0.0027230311	-0.0186738354	-0.055751
N	 0.7993309039	-0.4961134387	-1.162931	-0.249297
C	 1.7578090131	-1.1649647511	-0.6534776542	 0.060128
N	 1.78677841	-1.2461931381	 0.7338855974	-0.339064
C	 0.7186798692	-0.5296056972	 1.2566203014	 0.408354
O	 0.4588952761	-0.3535063828	 2.4167715864	-0.353733
C	-1.3612140084	-0.539136328	-0.0805560264	 0.380768
C	-2.4770254656	-0.9814906054	-0.1152978442	-0.48371
H	 1.0114991685	 1.92107362	 0.0117763961	 0.124847
H	-0.5179638562	 1.9165019229	-0.8941038286	 0.142925
H	-0.5372344885	 1.8938497876	 0.891305535	 0.148759
H	 2.532972013	-1.6552993276	-1.2337840271	 0.146139
H	 2.477887542	-1.715679572	 1.2967056878	 0.27336
H	-3.464169045	-1.3720589448	-0.1487583019	 0.203462
