18
gdb 98876	4.19933	1.06528	0.86339	1.8586	77.99	-0.2039	0.0165	0.2204	1331.4428	0.148137	-439.137126	-439.128028	-439.127084	-439.172182	31.509	
C	-0.0234296404	 1.3605313904	 0.040292599	-0.23235
O	 0.0282435663	-0.0670063389	-0.007383062	-0.261807
C	 0.6543698494	-0.5693616295	-1.1023154712	 0.524188
O	 1.1409667567	 0.103974104	-1.9857164153	-0.428297
N	 0.6668291513	-1.9305437723	-1.0828762792	-0.160566
C	 1.2921331716	-2.7075540461	-2.1675614605	-0.156666
C	 1.0780392292	-4.1891050481	-1.7429700661	-0.282423
C	 0.3348237551	-4.0755529475	-0.4285234253	-0.166176
C	 0.1364549308	-2.7956151101	-0.115951871	 0.017619
H	 0.9829422729	 1.7869994529	 0.0513447876	 0.139106
H	-0.5633078797	 1.7601999824	-0.8220078328	 0.13914
H	-0.5492610888	 1.6052784909	 0.9638009549	 0.128826
H	 0.8138445678	-2.4644811616	-3.119932237	 0.130147
H	 2.347947908	-2.4381495397	-2.2543927998	 0.130137
H	 0.5033034908	-4.7435141055	-2.4939472694	 0.116554
H	 2.0321030242	-4.7173663894	-1.6318285786	 0.116554
H	 0.0145787521	-4.9190013027	 0.1650782478	 0.103525
H	-0.3548921872	-2.3645535992	 0.7421034787	 0.142491
