20
gdb 12873	2.55741	2.27356	1.72536	0.1346	79.82	-0.2213	0.0241	0.2455	897.2617	0.1776	-311.87667	-311.868802	-311.867857	-311.908145	31.028	
C	-0.1150573721	 1.55754245	 0.0387001492	-0.418617
C	 0.050606445	 0.0551443403	 0.0723486173	-0.036798
C	 1.3549236854	-0.6632373237	-0.1989303789	-0.106434
C	 2.6730767255	 0.1042266783	-0.0801491162	-0.279325
C	 2.7193456826	 0.5102811692	 1.3782393428	-0.075835
C	 1.6677508904	 0.045530861	 2.0563639968	-0.134014
C	 0.7259245216	-0.7315527616	 1.1928947086	 0.305732
C	 0.0599810649	-1.9647702549	 1.7597423823	-0.484777
H	 0.7100417769	 2.0738332602	 0.5347007726	 0.123049
H	-0.1665241191	 1.919230405	-0.9948862443	 0.111684
H	-1.0425023842	 1.8582903765	 0.5389928082	 0.111712
H	-0.8080102726	-0.4731680284	-0.3396701706	 0.076035
H	 1.3232000121	-1.5261865077	-0.8556228192	 0.076032
H	 3.5301237029	-0.5270750652	-0.3502341165	 0.104799
H	 2.7166642351	 0.9757206831	-0.7479842163	 0.107121
H	 3.5080669278	 1.1320244964	 1.7878315602	 0.089987
H	 1.4818379498	 0.2072646542	 3.1133059152	 0.086364
H	-0.624406713	-1.7085092597	 2.5777163528	 0.114234
H	-0.5247524244	-2.4846711511	 0.9941604495	 0.113129
H	 0.7981201152	-2.672199862	 2.1551154962	 0.115923
