19
gdb 121544	7.00741	0.45846	0.44373	1.1777	84.26	-0.2503	0.0249	0.2752	2431.4062	0.156641	-422.958753	-422.948431	-422.947487	-422.997231	34.664	
C	-0.6760353012	 1.1643053197	-0.2295290733	-0.230296
O	 0.0805188446	-0.0000101743	 0.0039369006	-0.227258
C	 0.5624546034	-0.5879929049	-1.181176928	-0.043228
C	 1.3544631684	-1.8393386357	-0.7846087277	-0.357685
C	 1.9095245006	-2.5360497557	-1.9365452214	 0.067519
C	 2.3512722163	-3.098052858	-2.9064384683	 0.102305
C	 2.9041524992	-3.7479172137	-4.063022729	-0.117062
C	 2.8703595101	-5.2155739787	-4.2237915604	-0.15915
O	 1.9894611471	-4.3883003613	-4.9709681231	-0.215846
H	-0.0819962923	 1.943361778	-0.73296151	 0.10602
H	-1.563624062	 0.9574595261	-0.8479829321	 0.107046
H	-1.0026940565	 1.5420123203	 0.7422439551	 0.128973
H	-0.26722835	-0.8635010934	-1.8519916293	 0.101329
H	 1.2117690211	 0.110593767	-1.7335229691	 0.097468
H	 2.1568515221	-1.5410194449	-0.0990088495	 0.141122
H	 0.693662592	-2.5056185185	-0.2173112211	 0.141702
H	 3.7064087688	-3.2082455031	-4.565530232	 0.115105
H	 3.6597485677	-5.7048485266	-4.7934378879	 0.118233
H	 2.4046861607	-5.8179262323	-3.4461654936	 0.123705
