14
gdb 132013	2.33844	1.83696	1.03532	2.8149	66.79	-0.2434	-0.039	0.2044	1051.795	0.100315	-481.842136	-481.834428	-481.833484	-481.874673	28.192	
C	-0.0189061456	 1.5409076784	 0.0208859082	-0.483458
C	-0.0119801344	 0.0415647526	-0.0041607713	-0.132062
C	-0.1475088015	-0.6765661433	-1.1317368206	 0.352139
F	-0.300223528	-0.1546873858	-2.3306060213	-0.037651
O	-0.1507507871	-2.0131464342	-1.229772649	-0.200477
C	-0.0028190879	-2.7265954448	-0.0796324587	 0.066643
C	 0.1425775084	-2.1516489761	 1.1195126668	-0.254422
C	 0.1507116535	-0.6894994987	 1.2635891136	 0.340247
O	 0.2804792162	-0.1184217269	 2.3369056786	-0.365924
H	 0.9153732068	 1.9129696406	 0.4527013874	 0.149711
H	-0.1457782151	 1.9633830218	-0.9767092933	 0.128821
H	-0.8238120387	 1.9013377099	 0.6689524774	 0.149707
H	-0.0210871494	-3.7885227928	-0.2835876196	 0.155262
H	 0.2571024428	-2.7610352506	 2.0068402718	 0.131464
