17
gdb 97724	5.31572	0.66876	0.64298	2.1127	81.43	-0.2293	0.0206	0.2499	1727.4356	0.134411	-421.738182	-421.729206	-421.728261	-421.773357	32.079	
O	 0.0693342156	 1.3322061615	 0.5592273636	-0.408977
C	-0.0263671446	 0.1469680858	-0.2235102379	-0.230864
C	-1.3771652123	-0.3891125199	-0.1518604447	 0.28434
C	-2.4882477835	-0.8562503875	-0.1042853863	-0.189741
C	-3.8041143903	-1.3814483948	-0.0647982129	 0.106582
C	-4.5256414404	-1.7954689736	 1.2184358457	-0.333147
C	-4.3453153344	-2.8027195747	 0.1394116553	 0.06184
O	-5.331674816	-2.6546075477	-0.8746290273	-0.28104
C	-4.8414032163	-1.325145444	-1.1929487628	-0.129662
H	 0.9746560285	 1.6515692029	 0.4849019434	 0.288668
H	 0.2231071564	 0.3459522949	-1.2788697487	 0.117173
H	 0.6828417006	-0.6202391815	 0.1292215574	 0.116669
H	-3.866420106	-1.8926425761	 2.0742728096	 0.131917
H	-5.5188579035	-1.4077305024	 1.4284421987	 0.120463
H	-3.8408104355	-3.7575204496	 0.231060705	 0.1173
H	-5.6228366726	-0.560184195	-1.1214132795	 0.110384
H	-4.3865178655	-1.3116091083	-2.1882934286	 0.118092
