19
gdb 91875	2.36309	1.70043	1.08604	3.5525	77.58	-0.2501	0.014	0.2641	1132.4106	0.161174	-419.203708	-419.195615	-419.194671	-419.236438	31.381	
C	 0.0481645468	 1.5333582873	 0.0724303974	-0.400975
C	 0.0079172102	 0.0194666061	-0.0493425856	 0.12365
C	 0.7528713065	-0.5133094766	-1.2743895251	-0.208775
C	 0.9131974388	-2.0251498184	-1.2042371256	-0.065728
N	 2.1260062827	-2.4835832343	-0.5198866381	-0.32479
C	 0.8075814932	-2.6802768649	 0.1305506019	-0.100842
C	 0.5767226956	-1.8527163919	 1.3480118489	 0.419854
N	 0.4448049896	-2.3985654579	 2.4828514821	-0.52286
O	 0.569486181	-0.4987921933	 1.1786572329	-0.266161
H	 1.0824206817	 1.8800972482	 0.1574966856	 0.132439
H	-0.403385148	 1.9972665553	-0.8096570121	 0.118436
H	-0.4998920719	 1.8626790343	 0.9587413354	 0.128177
H	-1.0382719824	-0.3176718427	-0.0978266205	 0.08248
H	 0.1942068388	-0.2283014425	-2.1721426797	 0.103387
H	 1.7431494694	-0.0503044146	-1.3350511755	 0.121359
H	 0.5671142074	-2.5967739924	-2.061463107	 0.092491
H	 2.4385623653	-3.3734719015	-0.899954679	 0.238273
H	 0.4219754271	-3.6902912144	 0.2103271255	 0.111364
H	 0.299501738	-1.6803350256	 3.1963552585	 0.218221
