16
gdb 124782	4.23029	0.99651	0.9383	1.1971	67.2	-0.2416	-0.0122	0.2294	1276.0883	0.124242	-471.211011	-471.202208	-471.201263	-471.245127	32.088	
C	 0.0228353049	 1.5416397705	-0.0848659378	-0.410519
C	 0.0090078075	 0.0081805562	-0.0495632495	 0.012723
O	 0.7182964225	-0.5109241387	 1.06240626	-0.419976
C	-1.4000786456	-0.5186159611	-0.0815261513	 0.43962
N	-2.056619007	-1.0227429628	-1.0800712604	-0.363289
C	-3.283042037	-1.2917033629	-0.5047967237	 0.406059
N	-4.3181279159	-1.7922463867	-1.2469348103	-0.585705
N	-3.3819217978	-0.9888011566	 0.7702882327	-0.21225
O	-2.1015153012	-0.4503745914	 1.0510906387	-0.225118
H	 1.0573676547	 1.8924439218	-0.0583194103	 0.134185
H	-0.4574238513	 1.9173637007	-0.9932758898	 0.135951
H	-0.5108589032	 1.9515278584	 0.7789895915	 0.128634
H	 0.5115745966	-0.3860725908	-0.9365130972	 0.126791
H	 0.2441401113	-0.2565305827	 1.8625841827	 0.294635
H	-4.0286496666	-2.3189000204	-2.0565066126	 0.269594
H	-5.0622671318	-2.2184746835	-0.7159613027	 0.268665
