18
gdb 126762	2.59328	1.34348	0.94382	3.0716	75.79	-0.2112	0.0231	0.2343	1268.1012	0.148154	-435.329801	-435.320659	-435.319714	-435.364276	32.834	
C	-0.0975908855	 1.5773116837	 0.2404920311	-0.376488
C	-0.1087889693	 0.0826840915	-0.0813234844	-0.143637
N	-1.4411364555	-0.4839320381	-0.0768292227	-0.069495
N	-2.1645950331	-0.6091710378	 1.0922702785	-0.295731
C	-3.2977857592	-1.1331564522	 0.7345654784	 0.399229
C	-4.4125399559	-1.4622645315	 1.6624242189	-0.496478
N	-3.3356600649	-1.3494672594	-0.6234709113	-0.410926
C	-2.1245626863	-0.9304704695	-1.1881310605	 0.467417
O	-1.777848489	-0.9598236464	-2.3517750641	-0.440223
H	 0.9302849045	 1.9525271507	 0.2495240082	 0.117852
H	-0.6634987815	 2.1405851327	-0.5072751871	 0.128366
H	-0.5413543394	 1.7615314525	 1.2224909042	 0.137398
H	 0.2843844932	-0.108426607	-1.083213623	 0.146146
H	 0.5052235086	-0.4692208725	 0.638733675	 0.119297
H	-4.1194675858	-1.191483546	 2.6775974058	 0.161566
H	-5.324600831	-0.9137241723	 1.401618939	 0.141025
H	-4.6499683893	-2.5317542188	 1.6384316472	 0.141081
H	-4.0837183006	-1.7461552096	-1.1648553731	 0.273601
