20
gdb 97145	2.95312	1.27348	1.16121	2.735	82.48	-0.2376	0.0297	0.2673	1184.1184	0.171554	-403.157605	-403.148781	-403.147836	-403.191292	32.837	
C	 0.0112546815	 1.4031629121	-0.1274938911	-0.327399
N	-0.0321081967	-0.0456612558	-0.2407524023	-0.337615
C	-1.0963310728	-0.6543817909	 0.0491950511	 0.449101
O	-2.2721232277	-0.04152968	 0.4327047493	-0.25851
C	-3.1920535052	-0.9973413599	 0.9857335023	-0.10758
C	-2.6556958006	-2.3739674518	 0.6370326842	-0.094347
C	-2.4139080035	-2.6775074401	-0.8158405711	-0.013978
C	-3.0462213276	-1.9190088073	-1.9631814315	-0.424599
C	-1.2828481573	-2.1283370814	 0.0429736327	-0.162004
H	 1.0094915175	 1.7038140579	 0.205984794	 0.117345
H	-0.147617447	 1.8591482272	-1.1132034534	 0.122056
H	-0.7373182076	 1.8174468657	 0.5585508828	 0.117634
H	-3.2392507524	-0.8581074678	 2.0724950499	 0.115562
H	-4.1812055295	-0.7852539438	 0.5660309997	 0.116851
H	-2.8397948389	-3.180793971	 1.3361832674	 0.097684
H	-2.2934478646	-3.739966201	-1.0136354575	 0.09486
H	-3.1458296143	-0.852374787	-1.7501982613	 0.140026
H	-2.4406310225	-2.0211441423	-2.8693710603	 0.127744
H	-4.0439236603	-2.3148204293	-2.1828667762	 0.11675
H	-0.4149507905	-2.7407119736	 0.2450190212	 0.110419
