19
gdb 40021	3.56729	1.35219	1.12558	1.8128	81.88	-0.2331	0.0055	0.2386	1115.3613	0.160872	-385.868893	-385.861358	-385.860414	-385.901652	30.095	
C	-0.2581920483	 1.4845840769	 0.0266295753	-0.235292
O	 1.0738705729	 0.9982856636	-0.0879603966	-0.278015
C	-0.0121555163	 0.0336501222	 0.0010106838	 0.406723
C	-0.1072270697	-0.7405939346	 1.3125275061	-0.328289
C	 0.2262647679	-2.2296629673	 1.209648097	-0.03596
C	-0.8613479795	-3.2258259927	 0.8901338765	-0.285735
C	 0.1947979011	-2.8930997668	-0.1469166836	-0.07378
C	-0.136627693	-2.0526160709	-1.3197591395	-0.076324
C	-0.2317916194	-0.7232002478	-1.2558201538	-0.124129
H	-0.5052595238	 1.9635660539	 0.9751708799	 0.106559
H	-0.657731205	 1.9850475328	-0.8559865093	 0.108417
H	 0.5653637244	-0.2528101683	 2.0234312635	 0.119513
H	-1.1230268777	-0.6214013599	 1.7090352447	 0.108591
H	 0.9986504278	-2.5739676227	 1.8887722163	 0.090474
H	-0.8262905958	-4.2033613426	 1.3588194875	 0.110841
H	-1.8616480693	-2.8388677217	 0.7213610262	 0.111793
H	 0.9270493391	-3.672657371	-0.3386964397	 0.091145
H	-0.2827606667	-2.5591096363	-2.2709903861	 0.093578
H	-0.4333010788	-0.1370626267	-2.1477623782	 0.089889
