20
gdb 83310	2.74225	1.3149	1.14655	4.1493	80.09	-0.2256	0.0302	0.2558	1160.9533	0.172206	-403.173008	-403.164266	-403.163322	-403.20717	32.121	
C	-0.0059234179	 1.5178535349	 0.2766221002	-0.421388
C	 0.0707975753	 0.0320256169	 0.009593643	-0.027926
C	 0.5355663578	-0.5804202841	-1.3000143102	-0.08378
C	 1.3237355767	 0.2616681715	-2.3016689954	-0.257663
C	 2.6407240056	 0.6671392492	-1.5914404677	-0.162559
N	 2.586012796	 0.014424726	-0.2778741059	-0.026895
C	 3.5808394749	 0.1638465968	 0.6297608009	 0.130938
O	 4.5965233085	 0.8038295269	 0.4371328768	-0.345227
C	 1.3769651681	-0.7362134339	-0.0628780112	-0.025686
H	-0.9217817245	 1.9441027979	-0.1468277486	 0.122173
H	-0.0157111346	 1.7152751276	 1.3538209356	 0.125386
H	 0.8406849552	 2.0649445588	-0.1443163805	 0.130053
H	-0.7304693933	-0.5359033291	 0.4781180602	 0.090405
H	-0.026001917	-1.421934466	-1.6887003198	 0.094095
H	 1.5377943093	-0.3395053689	-3.1892013274	 0.115465
H	 0.7671678209	 1.1408873251	-2.6400142881	 0.114176
H	 3.5324716013	 0.336841594	-2.1340694093	 0.127332
H	 2.7352957904	 1.750110705	-1.464512201	 0.128239
H	 3.3719057974	-0.3774908668	 1.5742159015	 0.067553
H	 1.4948728101	-1.6794294718	 0.4592132168	 0.10531
