17
gdb 70082	2.71438	1.84976	1.37401	3.2157	72.63	-0.2562	-0.0189	0.2374	965.9236	0.136051	-421.798509	-421.791181	-421.790237	-421.829908	29.222	
C	-0.0751655538	 1.4973606564	 0.0388851178	-0.493449
C	 0.0429071269	-0.0076867597	-0.0148973354	 0.404108
O	-0.2853436267	-0.7060521691	 1.1790960073	-0.273672
C	 1.0949525456	-0.7205775591	 0.7547657467	-0.077637
C	 1.6589634767	-1.9842276349	 0.232333681	-0.06592
C	 1.2320108572	-2.5462197372	-0.9048097528	-0.08596
C	 0.1618126527	-1.9440039226	-1.7286162305	-0.014087
O	-1.1662791272	-1.8686391226	-1.1733855182	-0.23246
C	-0.4369015801	-0.6599390177	-1.292954083	-0.033027
H	 0.4625100606	 1.9615499847	-0.7951078553	 0.125125
H	-1.1256037822	 1.8015416865	-0.0264123265	 0.135135
H	 0.3348616339	 1.8820501506	 0.9752445735	 0.131977
H	 1.7464592173	-0.1362314932	 1.4036554236	 0.089108
H	 2.468405025	-2.4385224716	 0.796222252	 0.103694
H	 1.6919859193	-3.458920708	-1.2715974205	 0.103999
H	 0.1700137832	-2.186161429	-2.7902413263	 0.09471
H	-0.8078028284	 0.0268045065	-2.0540611435	 0.088356
