24
gdb 100049	2.49888	1.14091	1.0037	0.598	86.07	-0.2426	0.0739	0.3165	1366.486	0.214891	-405.515768	-405.504813	-405.503869	-405.551796	40.67	
C	-1.7590085055	 0.7594811551	 1.1168386992	-0.24084
O	-1.4032359981	-0.2140253162	 0.1627935493	-0.280924
C	-0.1093365215	-0.8259707065	 0.2887921456	 0.370093
C	 1.0185111908	 0.2146566642	 0.1559916177	-0.429276
C	 0.0342490697	-1.5807457707	 1.6167480537	-0.447288
C	-0.0490288013	-1.709689857	-0.9585249853	-0.019451
N	 0.9199012722	-2.8098439078	-1.0196179417	-0.352649
C	-0.5162837285	-3.1081765032	-1.1737692372	 0.000701
C	-1.1742310139	-4.0384700966	-0.1812592524	-0.405324
H	-1.7674230192	 0.3658889011	 2.1430972932	 0.104251
H	-1.1043367824	 1.6421855011	 1.0911517838	 0.103593
H	-2.773725481	 1.0806400749	 0.8660119243	 0.123692
H	 1.055668937	 0.8896192771	 1.0155000884	 0.110584
H	 1.9826479406	-0.2987641309	 0.0944249019	 0.12907
H	 0.884979132	 0.8144213102	-0.7496559367	 0.113107
H	-0.8791632156	-2.1311102063	 1.8509270625	 0.122103
H	 0.8673044703	-2.2843589348	 1.5532056223	 0.142061
H	 0.2363788016	-0.8892937002	 2.4398727754	 0.105743
H	-0.1366366984	-1.0843606451	-1.8477421349	 0.078036
H	 1.4048948203	-2.8255198907	-1.9116599026	 0.229213
H	-0.8562252508	-3.2818457544	-2.1958355851	 0.079001
H	-0.6722031406	-4.0225997213	 0.785140976	 0.130006
H	-2.2263685746	-3.7714840865	-0.0359692127	 0.122207
H	-1.1389401531	-5.0670445156	-0.5571427348	 0.11229
