25
gdb 117831	2.27668	0.92721	0.81745	2.3526	84.49	-0.2565	0.0543	0.3107	1577.6427	0.226597	-426.620374	-426.608637	-426.607693	-426.657171	42.989	
C	 0.2098187127	 1.4625145449	-0.1122142792	-0.409929
C	-0.068460929	-0.0419893628	 0.0040641539	-0.200786
C	-1.554966987	-0.4923622562	 0.0081914038	 0.224485
C	-2.2738857643	 0.04561252	 1.2586066822	-0.42678
C	-2.2882768492	 0.0502458447	-1.2398223404	-0.084493
O	-1.7322741614	-0.3856706681	-2.4728601512	-0.429088
C	-1.5520586373	-2.0419353845	-0.0108675853	-0.211605
C	-2.8958513717	-2.7493367347	 0.1894905658	-0.082729
O	-2.7594984268	-4.1627261471	 0.1236723961	-0.418843
H	 1.2876658985	 1.6493101251	-0.0767783361	 0.118405
H	-0.1591883065	 1.88682755	-1.0526136638	 0.10904
H	-0.2454704725	 2.0323362295	 0.7032139653	 0.123745
H	 0.4477498467	-0.5624965111	-0.8133852987	 0.091256
H	 0.397078867	-0.4161997423	 0.9242199973	 0.098697
H	-2.2114076967	 1.1362147978	 1.3225937581	 0.112615
H	-3.3370722252	-0.2148122081	 1.2567429094	 0.118413
H	-1.8322632003	-0.3677455232	 2.171870802	 0.115579
H	-3.3235792298	-0.3046139392	-1.2458032935	 0.108174
H	-2.3346205631	 1.1481352197	-1.1938573735	 0.088254
H	-0.8866057526	 0.0565169106	-2.5924675743	 0.286514
H	-1.1429119371	-2.3584084927	-0.9792197457	 0.09556
H	-0.8650515464	-2.4124940361	 0.7599181752	 0.094679
H	-3.2996107956	-2.5475022557	 1.1861764751	 0.109136
H	-3.6401746277	-2.3949838774	-0.5400149837	 0.089784
H	-2.4243412847	-4.3798974532	-0.7522878487	 0.27992
