19
gdb 68693	2.62616	1.81686	1.51471	0.5699	74.6	-0.235	0.0134	0.2484	948.5763	0.161475	-423.028194	-423.020924	-423.01998	-423.059216	30.364	
O	-0.0639274221	 1.4049958509	-0.0610436707	-0.492265
C	 0.0113558438	-0.0023485076	 0.0324839253	 0.341588
C	-1.3887437235	-0.6292741566	 0.0600752035	-0.244012
C	-0.9961300829	-2.0588355049	 0.4943953938	-0.094059
C	-0.2910001438	-2.7180080456	-0.717114456	-0.069219
O	 0.8866225885	-2.0186801923	-1.0954043394	-0.246971
C	 0.7462331787	-0.6094073395	-1.192441782	-0.118879
C	 0.0309062448	-1.7515303243	 1.5773716891	-0.061416
C	 0.6087109648	-0.5806135495	 1.3132674633	-0.126557
H	 0.8325707189	 1.7577310374	-0.072578595	 0.27675
H	-2.0062840177	-0.1310114693	 0.8115285907	 0.105883
H	-1.8951668515	-0.5865138583	-0.909349467	 0.092378
H	-1.8368479878	-2.679571485	 0.8169676254	 0.068701
H	 0.0384160375	-3.7352914885	-0.4847453704	 0.106693
H	-1.000440346	-2.7720782409	-1.5600061463	 0.087492
H	 0.1974995479	-0.3196787233	-2.1034341663	 0.094075
H	 1.7671375522	-0.2162559421	-1.2700015991	 0.092232
H	 0.2958809023	-2.4396128155	 2.3716303962	 0.097388
H	 1.4351005859	-0.121562495	 1.8444046748	 0.090199
