17
gdb 37338	3.86587	1.6938	1.60386	1.5866	67.88	-0.2613	0.0704	0.3317	860.2268	0.139271	-421.785085	-421.77932	-421.778375	-421.814853	25.33	
C	-0.0222387219	 1.5672142416	 0.0109749107	-0.222286
C	 1.5119167595	 1.7414660071	-0.0035133597	-0.133656
C	 1.9207070993	 0.84888892	 1.1903741686	 0.053538
O	 0.9515381178	 0.7243826756	 2.2407623957	-0.256121
C	 0.9547916733	-0.2568800805	 1.1942341725	 0.053539
C	 0.0112276846	 0.0235117752	 0.0024981602	-0.133657
C	 0.930632135	-0.2441999928	-1.2108435929	 0.053538
O	 0.9064866969	 0.74804745	-2.2466832754	-0.256122
C	 1.8965596904	 0.8615583688	-1.2147027712	 0.053538
H	-0.477340751	 1.9679191181	 0.9131788519	 0.120902
H	-0.4953265712	 1.9773611452	-0.8776315023	 0.120901
H	 1.8995595181	 2.7601174062	-0.0020378971	 0.073448
H	 2.958445954	 0.7446495356	 1.4929385377	 0.099747
H	 1.1986125425	-1.2699874184	 1.4999755319	 0.099747
H	-0.9460720328	-0.4974965681	 0.0093667268	 0.073448
H	 1.1681490745	-1.2540041245	-1.5320832237	 0.099747
H	 2.928001761	 0.7606143909	-1.5391249937	 0.099747
