20
gdb 16834	3.56225	1.75096	1.40097	1.7939	73.98	-0.2537	0.0903	0.3441	972.4783	0.177663	-349.012073	-349.004182	-349.003238	-349.04395	30.566	
C	 0.0200652594	 1.5764972929	 0.0378588702	-0.402297
C	 0.0233493248	 0.0467091478	 0.0228045644	 0.000844
C	 0.7671219799	-0.572104811	-1.189325936	-0.237128
C	 1.3083669347	-1.9499225342	-0.7266583237	 0.000844
C	 2.577737464	-2.397552746	-1.4538552247	-0.402297
C	 1.4821432413	-1.760951499	 0.7718920597	 0.042018
O	 2.1607475696	-0.5421717523	 1.1204180566	-0.2685
C	 0.7265573314	-0.5869383327	 1.2125734593	 0.042018
H	 1.0447185209	 1.9575583098	 0.0963633576	 0.129969
H	-0.4414543085	 1.9800223904	-0.8693040381	 0.112592
H	-0.5358829001	 1.9674290828	 0.8968168191	 0.110042
H	-1.0150821915	-0.3149079157	 0.0372198878	 0.071409
H	 0.1259439976	-0.6537489268	-2.0711735309	 0.094159
H	 1.6098974441	 0.0717273657	-1.4595392323	 0.110006
H	 0.5282831148	-2.7129537023	-0.8629197908	 0.071409
H	 3.3901337032	-1.6866930429	-1.2715495122	 0.129969
H	 2.9083990174	-3.3842211315	-1.1120028047	 0.110042
H	 2.4142301259	-2.4570616301	-2.5348277065	 0.112592
H	 1.6935985359	-2.6090388779	 1.4200876733	 0.086154
H	 0.3247849653	-0.4822050968	 2.2184229018	 0.086154
