17
gdb 95931	2.35521	1.45634	1.27491	2.1367	68.88	-0.2494	0.0021	0.2515	1059.7761	0.136589	-455.141441	-455.132692	-455.131748	-455.175183	32.546	
N	 0.0858756597	 1.5150323638	 0.1690301409	-0.495328
C	 0.0427012161	 0.079898399	-0.010479889	-0.035587
C	 0.620985265	-0.6246404333	 1.2204772541	-0.093808
O	-0.466177337	-0.6739464343	 2.1382291969	-0.244286
C	-1.567672115	-1.1497651013	 1.3912623775	-0.133042
C	-1.4307638158	-0.5336533407	-0.0406238938	 0.199421
O	-2.3395767182	 0.5230428436	-0.2970326442	-0.453177
C	-1.557479765	-1.5683695288	-1.0767861649	 0.232748
N	-1.6723189106	-2.3825220368	-1.890285165	-0.338197
H	-0.46184042	 1.9713166766	-0.5538762572	 0.244877
H	-0.3605776186	 1.7562575629	 1.0501498882	 0.238928
H	 0.5726533281	-0.1817563609	-0.929101472	 0.105971
H	 0.9700411024	-1.6393382277	 0.9732232533	 0.105972
H	 1.4343775571	-0.0587345462	 1.6761602229	 0.132937
H	-1.5583571696	-2.2486610799	 1.3389891402	 0.113939
H	-2.4910396782	-0.8174882483	 1.8720785825	 0.120769
H	-3.2141175304	 0.1464936222	-0.4460284604	 0.297862
