15
gdb 34505	4.43297	1.42875	1.25315	1.883	78.13	-0.2311	-0.0436	0.1875	980.9299	0.113669	-379.580125	-379.573447	-379.572502	-379.611075	26.93	
C	 0.0901148058	-1.1458031083	 0.0883976292	-0.352949
C	-0.0038317559	 0.0520357007	 0.0272441129	 0.255446
C	-0.0697269984	 1.4668799568	-0.0523335771	 0.159178
N	-1.1402509293	 2.1636806765	 0.0673130343	-0.26164
C	-0.6941064149	 3.5350449804	-0.011070881	-0.020013
C	 0.5136237438	 3.9884358595	 0.8571932014	-0.094501
C	 1.3477405922	 2.7897971297	 1.2503613618	-0.188526
N	 1.1757170457	 2.2193486363	-0.174020315	-0.213349
C	 0.678955557	 3.5871092614	-0.5865206414	-0.050821
H	 0.1598109492	-2.2045204342	 0.1402860057	 0.201776
H	-1.4382785052	 4.2900835275	-0.2273819636	 0.10602
H	 0.5142704951	 4.9724477797	 1.308432936	 0.104255
H	 2.3999443316	 3.0390608182	 1.3974911452	 0.126744
H	 1.0052918487	 2.1262630747	 2.0514064298	 0.12329
H	 1.0422123045	 4.0884869912	-1.4748537981	 0.105092
