13
gdb 128734	2.80873	1.33487	0.91006	4.8394	63.04	-0.2778	-0.092	0.1859	1183.0847	0.087748	-489.832024	-489.823999	-489.823055	-489.865349	27.439	
C	-0.0374816702	 1.3317387127	 0.0549230348	-0.254511
O	 0.0121465464	-0.1026747455	-0.0160823792	-0.255174
C	 0.618965379	-0.6092102274	-1.0796238147	 0.376239
N	 1.1635194696	 0.0801370518	-2.0476098209	-0.186543
O	 1.6609847479	-0.8796048903	-2.9125660576	-0.148227
N	 1.4207204678	-2.1324031182	-2.4748911745	-0.105224
C	 0.7760265716	-2.0108487932	-1.3401763191	 0.147449
C	 0.3145055175	-3.14987885	-0.5138404591	 0.097491
O	 0.4831830236	-4.3082291842	-0.795275066	-0.23725
H	 0.9743104709	 1.7460832387	 0.0738082722	 0.155056
H	-0.5770449795	 1.7359615259	-0.8060309828	 0.155048
H	-0.5637887261	 1.5619516475	 0.9802605217	 0.149928
H	-0.2131772285	-2.8360654678	 0.4094202351	 0.105716
