18
gdb 87884	3.30658	1.25656	1.23501	2.7082	72.42	-0.2167	0.0635	0.2802	1094.0891	0.147505	-438.998968	-438.991023	-438.990079	-439.031614	30.813	
O	-0.27995542	 1.383207326	-0.2326599615	-0.417203
C	-0.1321492147	-0.0018118393	-0.1795592373	 0.056647
C	-0.3300188347	-0.7098961299	 1.1531312739	-0.413748
C	-1.3753194843	-0.7855475269	 0.0702233785	 0.3465
N	-2.7390757359	-0.2250626711	 0.133696728	-0.360534
C	-3.2884783333	-1.4763625714	-0.4556358573	-0.053441
C	-3.3281467632	-1.4267157242	-1.994554788	-0.064459
O	-1.9592605299	-1.9069381289	-2.0850227037	-0.291312
C	-1.8604686004	-2.0400366697	-0.6565648525	-0.004717
H	 0.5215726391	 1.7794639541	 0.1251584931	 0.287677
H	 0.5883019893	-0.4257089444	-0.8798035636	 0.094412
H	 0.2546158935	-1.5958200341	 1.3839405713	 0.112912
H	-0.5513331876	-0.0676584512	 2.0008422415	 0.11319
H	-3.0541227589	-0.0662906671	 1.0843442176	 0.221086
H	-4.1032330615	-1.9604019746	 0.0822574846	 0.08047
H	-4.0209561912	-2.1326031019	-2.4696101959	 0.097587
H	-3.4523117896	-0.4256441177	-2.4190729642	 0.117232
H	-1.4704646768	-3.0121925674	-0.3446012344	 0.077701
