27
gdb 59984	2.64241	0.84124	0.69511	1.5095	93.02	-0.2635	0.0698	0.3333	1774.2509	0.249291	-390.704424	-390.692476	-390.691532	-390.74184	44.476	
C	-0.231422116	 1.717156027	-1.0059466869	-0.402315
C	 0.0162206552	 0.286406023	-0.5245794464	 0.127932
O	-1.1778094724	-0.2777719024	 0.0188014182	-0.425119
C	 0.496518212	-0.6284600705	-1.652865955	-0.18996
C	 0.8291339649	-2.0810662246	-1.2263679566	 0.064896
C	-0.419919863	-2.9672330481	-1.3659978401	-0.419972
C	 2.0558085526	-2.631847909	-2.0044965249	 0.040071
C	 3.3532792506	-1.9154328141	-1.5941331811	-0.391064
C	 2.2478606373	-4.1470012466	-1.834784676	-0.398414
H	 0.6846208299	 2.1661493919	-1.4036787364	 0.114172
H	-0.9957644648	 1.7292922793	-1.7895042715	 0.123835
H	-0.5796921878	 2.3510512558	-0.1817661715	 0.100703
H	 0.7990508524	 0.3055437904	 0.2535690782	 0.062266
H	-1.4685589597	 0.282655602	 0.7448853784	 0.27953
H	-0.2718914543	-0.6456278873	-2.4370560585	 0.095287
H	 1.37427772	-0.1480209297	-2.096746314	 0.0899
H	 1.1071442297	-2.0657069485	-0.1616950608	 0.063434
H	-0.6753346075	-3.1154796842	-2.4231479276	 0.10098
H	-0.2775058839	-3.9532913938	-0.9159607999	 0.104825
H	-1.2699511918	-2.488890243	-0.8769425339	 0.139343
H	 1.8800548464	-2.4368021376	-3.0736775214	 0.065169
H	 3.2923283801	-0.828853864	-1.7033097547	 0.10809
H	 3.5928216492	-2.1282526785	-0.5450050539	 0.109566
H	 4.1982673091	-2.2579219979	-2.2006433651	 0.108346
H	 1.4140846778	-4.7203532837	-2.246363005	 0.115082
H	 3.1595967213	-4.4766425309	-2.3442448673	 0.104378
H	 2.3488843826	-4.4141303448	-0.7754845263	 0.10904
