14
gdb 128738	2.71444	1.61163	1.01773	1.0057	71.02	-0.2525	-0.0736	0.1789	1091.5675	0.100357	-469.923926	-469.916171	-469.915227	-469.9565	28.269	
C	 0.0610641911	 1.3715007079	 0.0379191704	-0.239391
O	 0.0946648573	-0.0607991187	 0.0007432506	-0.225717
C	 0.6042038562	-0.6273545769	-1.086391281	 0.484938
N	 1.0416112988	 0.1126205574	-2.0499202212	-0.194082
O	 1.5722304294	-0.5100457752	-3.1811828507	-0.230726
N	 1.6452892027	-1.8658168095	-3.3055402454	-0.053594
C	 1.2073316238	-2.5932888344	-2.3411232398	 0.006145
C	 0.6276896203	-2.0962902727	-1.1007996605	 0.13996
N	 0.181256819	-2.7845652968	-0.1190303497	-0.494425
H	 1.0711990083	 1.7833345983	-0.0375905335	 0.147447
H	-0.5427759689	 1.7648576413	-0.7844726748	 0.147447
H	-0.3864985821	 1.6227432881	 0.9988664848	 0.144324
H	 1.2936803705	-3.6655266927	-2.5012105593	 0.142079
H	 0.2828388322	-3.7846435362	-0.3138157705	 0.225596
