15
gdb 127316	4.56854	0.95335	0.80192	5.9442	70.7	-0.2451	-0.004	0.2411	1356.704	0.112721	-453.984266	-453.975886	-453.974942	-454.018669	28.856	
C	-0.0520365521	 1.4098917423	 0.0800070701	-0.317686
N	-0.073858727	-0.0347308109	 0.0064597841	 0.054085
C	-0.0099713557	-0.8191244165	-1.094980106	-0.002362
C	-0.0739216026	-2.1317099181	-0.6723129251	-0.357374
C	-0.1799638835	-2.0155336046	 0.7243461373	 0.459717
O	-0.302096801	-3.065790797	 1.5891277904	-0.221051
C	 0.2937011889	-2.9649062005	 2.8163618532	 0.165261
O	 0.1409671894	-3.8017336563	 3.6493126744	-0.261947
N	-0.1892743086	-0.7568563742	 1.1433759788	-0.35237
H	 0.7979236068	 1.7463724206	 0.6796864564	 0.15288
H	 0.0387171806	 1.8105820246	-0.9307693835	 0.142399
H	-0.974309529	 1.7805840103	 0.5350640761	 0.155578
H	 0.0741932732	-0.3926657169	-2.0822460269	 0.141416
H	-0.0464742371	-3.0292478043	-1.265598288	 0.125305
H	 0.9048429879	-2.0546694484	 2.9098054487	 0.116147
