18
gdb 94529	2.63266	1.34144	0.95196	2.9233	75.13	-0.2431	-0.0706	0.1725	1230.7606	0.146313	-439.110086	-439.100828	-439.099884	-439.144794	32.528	
C	-0.2004693209	 1.4374857732	 0.0517978289	-0.403193
C	 0.0447554621	-0.063309341	 0.0169146509	 0.064556
C	 0.8765202105	-0.6422047965	-1.1691354431	-0.273855
C	 1.9017096921	-1.1816427091	-0.1334572997	-0.157336
N	 1.0960684907	-0.5533681891	 0.925543118	-0.079058
C	 1.094967762	-0.5669427615	 2.2704317397	 0.272752
O	 0.2201405795	-0.0714973511	 2.9690354759	-0.373677
C	 2.2859610462	-1.2437833456	 2.9489186934	 0.098677
O	 3.2003921373	-1.7821284126	 2.3802494546	-0.247362
H	 0.7290116726	 1.9894791644	-0.1217471515	 0.115676
H	-0.9182473606	 1.7158437351	-0.7269844654	 0.119702
H	-0.6047298206	 1.7315335665	 1.0229926853	 0.154947
H	-0.8979014829	-0.596905572	 0.189184357	 0.098122
H	 0.3721647409	-1.4047332955	-1.7629388064	 0.117684
H	 1.2761585974	 0.124240649	-1.8353819864	 0.116258
H	 1.9584705459	-2.2701442656	-0.0496716345	 0.129539
H	 2.9186238411	-0.789451719	-0.2083337439	 0.131448
H	 2.2039450668	-1.1839525496	 4.0537655473	 0.11512
