13
gdb 49949	2.27833	1.28607	0.98691	2.2323	71.55	-0.272	-0.0629	0.2091	1175.0746	0.086459	-415.551937	-415.543271	-415.542327	-415.585748	30.642	
O	-0.3097226674	 0.5232062437	 0.8250471744	-0.237941
C	 0.2514879681	 0.8461692978	-0.1878800011	 0.179331
C	 1.4371805165	 1.7650692443	-0.1958597448	-0.157109
N	 2.3243115288	 1.6477070447	-1.3494657743	-0.335315
C	 1.5176441703	 2.8770661645	-1.2406880438	-0.020012
C	 0.4802203022	 3.081570279	-2.2196522221	 0.29723
C	-0.3922515901	 3.2766061744	-3.0204651677	-0.388582
C	 2.1887520495	 4.08202341	-0.792855803	 0.244073
N	 2.7498427312	 5.0284600761	-0.4379927923	-0.322336
H	-0.0539663919	 0.4870667572	-1.1909417742	 0.111315
H	 1.840876619	 2.0030866759	 0.784641804	 0.140291
H	 3.2909515887	 1.8324132232	-1.0906783183	 0.270558
H	-1.1614650248	 3.4457599792	-3.7340925268	 0.218498
