21
gdb 111592	3.82057	1.1944	1.14646	1.7867	80.93	-0.2363	0.0834	0.3197	1176.6267	0.184638	-387.050551	-387.042996	-387.042052	-387.082735	30.61	
C	 0.709203077	-0.0722815373	 1.5331390579	-0.379062
C	 0.1484407571	 0.0404306608	 0.1100777153	-0.216819
C	-1.2338074976	-0.5917404645	-0.0192899493	 0.046209
C	-2.0281931176	-0.6297512708	-1.3609650202	-0.132334
C	-1.0895326945	-1.4014856098	-2.3086289576	-0.212264
C	-1.1663304873	-2.6975980885	-1.4779295587	 0.068044
O	-2.5797284455	-3.0352777453	-1.6396035961	-0.296553
C	-2.7936856908	-1.9178486656	-0.7734110832	 0.109588
C	-1.4588372275	-2.1173714182	-0.0302217873	-0.094144
H	 1.6983897519	 0.3894469233	 1.6091116254	 0.112359
H	 0.0536124322	 0.4230723966	 2.2580373321	 0.114371
H	 0.8065702013	-1.1196673151	 1.8388265711	 0.117409
H	 0.0867772837	 1.0991623811	-0.1752147796	 0.096232
H	 0.8534506501	-0.4234308973	-0.5881488437	 0.096257
H	-1.886154956	-0.173674549	 0.7599560891	 0.068533
H	-2.5521294312	 0.2469259197	-1.7384108678	 0.062901
H	-1.506856795	-1.5718431991	-3.3029951343	 0.107022
H	-0.0964098462	-0.9592384554	-2.4013359611	 0.097571
H	-0.4909166667	-3.5283981344	-1.6756369312	 0.078654
H	-3.7880368245	-1.8283008938	-0.3393217179	 0.083152
H	-1.3353880129	-2.7826648974	 0.822659967	 0.072872
