25
gdb 91753	2.23832	1.64952	1.46429	0.0715	90.33	-0.2843	0.0733	0.3575	1105.5136	0.233847	-352.396275	-352.388275	-352.387331	-352.428054	33.886	
C	-0.1541054413	 1.547712857	-0.0303720407	-0.424179
C	 0.0038579471	 0.02694685	 0.0012657781	 0.065372
C	 0.7041369465	-0.5982254542	-1.2502165333	-0.23691
C	 1.6871768795	-1.6646466007	-0.691111338	 0.017838
C	 1.0853268126	-1.9855096959	 0.6920387068	-0.216119
C	 0.7774665164	-0.5689840838	 1.2095769344	-0.002698
C	 2.1080281625	 0.1397513034	 1.5418643467	-0.20166
C	 3.0719738269	 0.2108993454	 0.3400562726	-0.193499
C	 3.1026702115	-1.09015667	-0.4848008808	-0.199165
H	 0.8065057623	 2.0637532796	-0.1249574036	 0.117505
H	-0.7742074484	 1.8560386296	-0.8792065862	 0.110143
H	-0.6390822308	 1.9143444686	 0.8813170545	 0.109085
H	-1.0072578213	-0.3969600303	 0.0553147838	 0.067292
H	-0.0339124115	-1.0574722273	-1.9149114487	 0.089265
H	 1.2272992161	 0.1594562976	-1.8437577133	 0.090697
H	 1.7421254968	-2.5449786774	-1.3387046764	 0.053176
H	 0.1640920444	-2.5723782832	 0.5954693614	 0.081635
H	 1.7715172593	-2.5448981327	 1.3369925742	 0.081428
H	 0.1477921694	-0.5768728381	 2.106165582	 0.05081
H	 1.9230316683	 1.1501308275	 1.9246014625	 0.089409
H	 2.5832061145	-0.413364167	 2.3626845674	 0.088498
H	 2.7679642823	 1.0342588996	-0.3158315228	 0.100008
H	 4.0810343055	 0.4644840731	 0.6839030825	 0.088393
H	 3.7158403932	-1.8455430131	 0.0240493689	 0.087642
H	 3.5837737681	-0.8997629976	-1.4519360321	 0.086032
