21
gdb 53568	4.30122	0.74461	0.72201	0.3398	91.2	-0.2343	0.0672	0.3014	1685.148	0.182112	-349.901726	-349.892186	-349.891242	-349.938072	34.579	
C	-0.0197855119	 1.2962376527	-0.3935825744	-0.495697
C	-0.0251739282	-0.1263203975	-0.0819489108	 0.059428
C	-0.0197143877	-1.3023881669	 0.1767893991	 0.075188
C	-0.0447196288	-2.7296682646	 0.4878573104	-0.392267
C	-1.4020104341	-3.3693017743	 0.2111306074	 0.018818
C	-1.8887411677	-3.832458928	-1.1326351356	-0.050752
C	-0.7656365862	-4.4695796784	-1.9614688923	-0.230261
C	-0.5143348546	-5.4960701	-0.8095769253	-0.228975
C	-1.6385825653	-4.840501599	 0.0044904625	-0.088146
H	 0.7591938198	 1.5428143523	-1.1238776457	 0.144251
H	-0.9792422019	 1.616141512	-0.8155322577	 0.144505
H	 0.164333614	 1.9014520489	 0.5012801192	 0.143989
H	 0.7427344912	-3.2394293498	-0.078468224	 0.125698
H	 0.2084194261	-2.879563748	 1.5463734167	 0.122335
H	-2.1985059385	-2.9045249595	 0.7884285544	 0.091084
H	-2.8314053432	-3.4830790509	-1.5372970106	 0.0805
H	-1.1365914299	-4.9561667728	-2.8659253853	 0.102119
H	 0.0646047303	-3.8135775647	-2.2430275006	 0.101053
H	-0.7609848697	-6.515791235	-1.1128883051	 0.10191
H	 0.4811231724	-5.5089163772	-0.3530984002	 0.094925
H	-2.3591845761	-5.3820618692	 0.6067539583	 0.080293
