17
gdb 66393	2.28309	1.4937	1.28136	2.9577	79.71	-0.2402	-0.0133	0.2268	1082.5541	0.133631	-384.653083	-384.644366	-384.643422	-384.686339	32.823	
C	-0.0605775851	 1.5714323971	 0.0060176731	-0.501545
C	 0.0625393354	 0.075878331	-0.0094881814	 0.191097
C	 0.6400297988	-0.933119259	-1.0363746692	-0.114122
C	 1.2234979024	-1.818685778	 0.0726051067	-0.36778
C	 0.6833539109	-0.7665325235	 1.0766764877	 0.370603
O	 0.8817702739	-0.5648721655	 2.2403211098	-0.309967
C	-0.8493364324	-0.8177557614	-0.8692186257	-0.261886
C	-1.6774442983	-1.866575157	-0.3401328613	 0.33063
C	-2.3767081494	-2.7432048114	 0.0946525728	-0.440332
H	 0.8750639414	 2.036565878	 0.332177116	 0.135673
H	-0.3090648956	 1.9604269178	-0.986269228	 0.123477
H	-0.8474803348	 1.8879296627	 0.6984248621	 0.144551
H	 1.1238198155	-0.6986609247	-1.9758656053	 0.1081
H	 0.8365177285	-2.8372992004	 0.1470277765	 0.136127
H	 2.3165819961	-1.8349476148	 0.0999544013	 0.130814
H	-1.3287328954	-0.2309807772	-1.6503840046	 0.123093
H	-2.9947579519	-3.5128564237	 0.4861892495	 0.201466
