18
gdb 17618	4.02473	1.43104	1.1522	3.8666	71.06	-0.244	0.0181	0.2621	1067.6026	0.153937	-381.121352	-381.112406	-381.111462	-381.155523	30.983	
C	 0.1796840742	 1.4377429028	-0.0383598605	-0.344418
N	 0.0996035336	-0.011581477	 0.0478596722	-0.099639
C	 0.386699554	-0.5842013953	 1.3501470693	-0.33851
C	-0.2823302054	-0.7225806931	-1.0545359365	 0.436912
O	-0.6396311113	-0.1811555083	-2.0950574819	-0.409083
C	-0.2461998948	-2.2292260649	-0.9826584353	-0.138367
C	-1.5170214135	-2.9326889975	-1.3421160658	-0.223717
N	-0.3886960791	-2.9232570774	-2.2664926764	-0.304922
H	 1.1711542808	 1.7825605055	 0.2796741157	 0.122376
H	 0.000444337	 1.7319908177	-1.0706954963	 0.171757
H	-0.570938828	 1.9103267584	 0.6079986164	 0.122843
H	 0.0208933997	-1.6069543026	 1.4217038504	 0.148459
H	 1.4621504985	-0.5743154778	 1.5739760068	 0.128611
H	-0.1217498173	 0.0018166026	 2.124814368	 0.130929
H	 0.4450752738	-2.6996390782	-0.2931769557	 0.100311
H	-1.7429231326	-3.8912577514	-0.8832970077	 0.1193
H	-2.3754253695	-2.3052856902	-1.5664552192	 0.127836
H	-0.5499915	-2.1914532033	-2.9610381536	 0.249323
