16
gdb 69199	2.09817	1.58004	1.08957	5.8291	71.71	-0.2416	-0.0405	0.2011	1124.6251	0.122111	-437.863421	-437.854906	-437.853961	-437.897019	30.974	
C	-0.0294249363	 1.5281125379	 0.0829004627	-0.506138
C	 0.0999734881	 0.0386472759	 0.0117809872	 0.311748
N	-0.7960681888	-0.8890137777	 0.7110932494	-0.357874
C	 0.6756138626	-0.9271521672	 1.0197655945	-0.248768
C	 1.2836564475	-1.7343698172	-0.0953739699	 0.448766
O	 2.0895052278	-2.6076520358	-0.1649657867	-0.285216
C	 0.6426731722	-0.7750507528	-1.1858803713	-0.257706
C	-0.3390525275	-1.3488754904	-2.1733253049	 0.143865
O	-0.0679968505	-1.5806381857	-3.3252627746	-0.253284
H	 0.8895649282	 2.0172236893	-0.2545940579	 0.141487
H	-0.8492658292	 1.8812677492	-0.5520944244	 0.144437
H	-0.2323244765	 1.854450283	 1.1083579218	 0.128064
H	-1.2290910085	-0.3884036765	 1.4881376949	 0.242131
H	 1.0304383693	-0.7802122453	 2.0319779842	 0.123812
H	 1.4652603608	-0.2884092197	-1.718282246	 0.122324
H	-1.3420782691	-1.5613687171	-1.7522727692	 0.102351
