21
gdb 109444	2.32747	1.359	0.95808	2.5902	83.46	-0.2365	-0.019	0.2174	1295.5778	0.180871	-387.090952	-387.081625	-387.080681	-387.125478	35.089	
C	 0.0254915749	 1.6185008438	-0.1403709543	-0.388463
C	-0.2211774991	 0.1149425635	-0.3064556665	-0.19414
C	 0.7712145251	-0.5400311667	-1.2676016914	-0.17239
C	 2.225129777	-0.7087476363	-0.7784769403	 0.40353
O	 2.997277717	 0.0180087866	-0.2207035723	-0.299605
C	 2.264641455	-2.1945053129	-1.181142743	-0.431688
C	 0.7594242843	-2.0740050362	-1.481766631	 0.341133
C	-0.3008483779	-3.0241217328	-1.0057436467	-0.31645
C	-0.0348507346	-2.8506046096	-2.4853541644	-0.324492
H	 1.040872322	 1.8051873307	 0.2188045056	 0.148537
H	-0.0945070797	 2.1446866759	-1.0940212404	 0.11152
H	-0.680016411	 2.0551688459	 0.5730233825	 0.110283
H	-0.158056018	-0.3831110981	 0.6687238049	 0.101803
H	-1.2407338053	-0.0593842508	-0.674901721	 0.097049
H	 0.7680440084	-0.0033590135	-2.2274756104	 0.096576
H	 2.8961197308	-2.3727358121	-2.0590980829	 0.129394
H	 2.5707009559	-2.8822924612	-0.38682118	 0.129017
H	 0.0174416927	-3.9479932372	-0.5331468337	 0.114248
H	-1.2200394523	-2.6120301503	-0.6021317292	 0.11676
H	-0.7748803417	-2.3183467484	-3.0752917288	 0.113366
H	 0.4584271964	-3.6590038503	-3.0158589468	 0.114012
