19
gdb 90951	2.84551	1.77966	1.61664	2.3345	72.35	-0.2308	0.0796	0.3105	920.0861	0.163166	-423.030708	-423.024011	-423.023067	-423.061506	28.421	
O	 0.1576872929	 1.3322959355	-0.3375296257	-0.446377
C	 0.0834869042	-0.0443856652	-0.009872466	 0.15261
C	 0.7785162399	-0.3694150186	 1.3446118188	-0.26915
C	-0.2295179251	-0.6846648367	 2.440550067	-0.076346
C	-1.3629942347	-1.6514386441	 2.1173012495	-0.109275
C	-1.5524987704	-1.8913483078	 0.6264584331	-0.244822
C	-1.3919138089	-0.4636399374	 0.0725962411	 0.026484
O	-1.9937628476	 0.3940654501	 1.0653754816	-0.281905
C	-1.6466927578	-0.185751501	 2.3072657794	 0.089795
H	-0.5168410376	 1.7607684291	 0.2072252749	 0.283076
H	 0.580346097	-0.5754579392	-0.8283528806	 0.080625
H	 1.4624958256	-1.2185434161	 1.2286972224	 0.100916
H	 1.3922587268	 0.4955785211	 1.6132468641	 0.114727
H	 0.1645197116	-0.7368454758	 3.4511567552	 0.085571
H	-1.6710323908	-2.4019614882	 2.8345215075	 0.088126
H	-0.8187334209	-2.5763622709	 0.1890682033	 0.106863
H	-2.5527660713	-2.2854446947	 0.4225564047	 0.110223
H	-1.9039115254	-0.2732793984	-0.8724651222	 0.087402
H	-2.2024021374	 0.2407730683	 3.1326839019	 0.101456
