15
gdb 42198	2.98512	1.39779	1.05109	5.3462	73.12	-0.2549	-0.0837	0.1712	1101.074	0.112714	-416.780754	-416.77282	-416.771875	-416.813825	29.023	
O	 0.295220144	 0.5476151665	 1.2909216419	-0.300631
C	-0.0003199907	 1.3398675394	 0.4245483475	 0.220731
C	 0.9819990875	 1.6934834496	-0.6249585026	 0.248438
N	 1.7964917095	 1.9463951507	-1.4054457284	-0.31844
C	-1.3088290708	 1.9997183135	 0.3059630487	 0.240157
C	-2.2961040705	 2.0260655348	 1.4531237656	-0.318869
C	-2.6877176035	 1.2875118621	 0.2196614658	-0.10071
C	-3.0110513502	 2.2553340462	-0.9210531249	-0.176755
N	-1.6530697993	 2.8711273351	-0.8104222605	-0.371395
H	-2.0157687119	 1.4066169405	 2.2978127375	 0.153996
H	-2.7615384345	 2.978051578	 1.6977090839	 0.120065
H	-2.8444497366	 0.2172371675	 0.2113477296	 0.129725
H	-3.146525797	 1.7722701665	-1.892264412	 0.131266
H	-3.8533749208	 2.9312949221	-0.7347714895	 0.114017
H	-1.6517655951	 3.8612508273	-0.5799251323	 0.228404
