22
gdb 18123	3.74044	1.81226	1.36497	0.1317	80.66	-0.2937	0.077	0.3707	980.2523	0.204933	-313.10836	-313.1013	-313.100356	-313.139786	28.818	
C	-0.0590155171	 1.5752708792	-0.0684989619	-0.19605
C	 1.4331358377	 1.9432634629	 0.0141078302	-0.225077
C	 2.142410017	 0.860308401	-0.8284578432	 0.041609
C	 3.5023736247	 0.3346754929	-0.3185733349	-0.225072
C	 3.4736705408	-1.170914126	-0.636577931	-0.19605
C	 2.022474979	-1.5698933627	-0.3147004476	-0.225077
C	 1.1761278952	-0.3832307348	-0.8258822196	 0.041609
C	-0.0467490765	 0.0386843182	 0.0181158818	-0.225072
H	-0.6647728265	 2.047595321	 0.7113789779	 0.088824
H	-0.470746018	 1.8931558396	-1.0351187679	 0.092965
H	 1.6442738023	 2.9610856288	-0.3275092732	 0.089522
H	 1.7660590952	 1.8808508415	 1.0584043952	 0.09039
H	 2.2590180378	 1.2226925475	-1.8554252045	 0.062976
H	 4.3578303446	 0.8516753169	-0.7637124413	 0.089522
H	 3.5732660599	 0.4758446028	 0.7678589849	 0.090389
H	 3.6795959139	-1.3330896561	-1.7025143781	 0.092965
H	 4.2154190982	-1.7461277134	-0.0733902829	 0.088824
H	 1.7319750725	-2.5276713073	-0.7568708685	 0.089522
H	 1.9053468806	-1.6707486432	 0.7722207763	 0.09039
H	 0.8516697708	-0.5883582945	-1.8516654689	 0.062976
H	 0.0981553153	-0.2657537683	 1.0629172171	 0.090389
H	-0.9815507974	-0.418284136	-0.3203651398	 0.089522
