23
gdb 110858	2.14946	1.24365	1.08749	1.2287	85.89	-0.2371	0.0792	0.3164	1312.9709	0.204509	-388.264457	-388.254468	-388.253524	-388.298933	37.995	
C	-0.0408186871	 1.6655784164	-0.5743629453	-0.374577
C	 0.0976458308	 0.2007579142	-0.1397568473	-0.214659
C	-1.2408041136	-0.5162134273	-0.1379563883	-0.053824
C	-1.8917671309	-1.1968643978	-1.326102965	-0.133268
C	-0.8685195519	-2.0146997253	-2.1274920345	-0.2651
C	-0.6088241844	-2.9081999407	-0.8639449304	-0.012143
C	 0.8032530257	-3.2219835649	-0.3800292312	-0.427673
C	-1.5436855335	-1.9898330872	-0.0632091544	 0.332898
O	-2.4282401936	-2.4951950098	 0.8822970697	-0.463947
H	 0.9267562166	 2.1770525378	-0.5663151326	 0.108806
H	-0.4522940616	 1.7365512685	-1.5867078349	 0.120806
H	-0.7141458845	 2.2138839219	 0.0939453846	 0.112537
H	 0.8067960499	-0.3029281732	-0.8024456619	 0.103945
H	 0.5380339086	 0.1574100413	 0.865374617	 0.090519
H	-1.9960873314	 0.0216795858	 0.437584503	 0.081079
H	-2.8664146197	-0.8937418835	-1.6886985986	 0.08756
H	-1.3065265941	-2.5699916595	-2.9593142826	 0.101867
H	-0.004762165	-1.458459947	-2.5057703874	 0.095264
H	-1.1502805378	-3.8501563478	-1.0043198961	 0.083697
H	 1.4064301455	-2.3217147129	-0.2358755797	 0.117055
H	 0.7726031864	-3.7584076608	 0.5754706352	 0.112146
H	 1.3284698773	-3.8629256197	-1.097039918	 0.113444
H	-2.0779675616	-2.3043477485	 1.7584460087	 0.283567
