15
gdb 14539	4.68739	1.60488	1.45394	4.5566	66.01	-0.2305	0.0192	0.2497	870.1194	0.120385	-358.791117	-358.783871	-358.782927	-358.822348	27.428	
N	-0.0909230116	 1.449036417	-0.0333227247	-0.587102
C	-0.0697619358	 0.0017245091	-0.0347927242	 0.204817
C	 1.0355671738	-0.5780847266	 0.6865238491	 0.237355
N	 1.9326104687	-1.0397742045	 1.2527321451	-0.337754
C	-1.3536931363	-0.8200772509	 0.0639760405	-0.113178
C	-2.4574851292	-0.1224297877	-0.7336549543	-0.201303
N	-1.5416858621	-0.0040482754	-1.9239239759	-0.353565
C	-0.5440456094	-0.830634456	-1.2226283576	-0.063491
H	 0.8625694261	 1.7969329065	-0.0702431426	 0.241561
H	-0.5395361464	 1.7378346585	-0.9031511559	 0.254878
H	-1.4929304207	-1.5665043567	 0.8346927034	 0.118226
H	-3.3018271126	-0.7915871521	-0.9194023378	 0.120288
H	-2.8242218378	 0.8363223989	-0.3551365797	 0.127938
H	-1.9195468232	-0.4719620795	-2.7390882968	 0.236123
H	 0.0530973566	-1.5890872106	-1.7147234484	 0.115208
