18
gdb 7319	3.82558	1.23593	1.02094	1.974	72.6	-0.2363	-0.049	0.1873	1187.9419	0.151767	-381.154995	-381.145367	-381.144423	-381.189853	33.876	
C	 0.3158375078	 1.6251518327	 0.0282816808	-0.368343
C	-0.0859468976	 0.1609610882	-0.2049292901	-0.15485
N	 0.6498304351	-0.4258364174	-1.3132880935	-0.275418
C	 1.7550310812	-1.0258745462	-1.075510723	 0.250605
N	 2.3821579601	-1.258399396	 0.1206494473	-0.552579
C	 2.5108034115	-1.6249438081	-2.2509219309	 0.371401
C	 1.8614091562	-1.5491018829	-3.6087525511	-0.471624
O	 3.5960799656	-2.1350193603	-2.0606901311	-0.319075
H	 1.3669212504	 1.7105863223	 0.3241081926	 0.110674
H	 0.1816761777	 2.204102298	-0.8895804026	 0.131375
H	-0.2976499618	 2.0740782292	 0.8156975853	 0.115332
H	 0.0297868699	-0.4132252917	 0.7291016882	 0.084791
H	-1.1509994529	 0.1257797757	-0.4601521902	 0.10721
H	 2.1845155723	-0.676217459	 0.9148024708	 0.259602
H	 3.3171162917	-1.6301088736	 0.0370078611	 0.269316
H	 1.6077121809	-0.5139179472	-3.8494100481	 0.156128
H	 2.5361934401	-1.969397063	-4.35504987	 0.131764
H	 0.9149966617	-2.0979151807	-3.5994585655	 0.15369
