15
gdb 46820	2.60988	1.66627	1.19076	5.9292	70.51	-0.2692	-0.0483	0.2209	1018.0222	0.113446	-416.815441	-416.807937	-416.806993	-416.847573	28.255	
O	 0.0556715594	 0.0352120314	 0.2282810174	-0.286628
C	-0.0023481893	 1.218538307	 0.0486000767	 0.375382
C	-1.2530842202	 2.05975869	-0.2390029373	-0.365197
C	-0.7091367576	 3.3489600129	-0.8783585964	-0.167538
N	 0.7362481654	 3.4811170027	-0.5370655459	-0.120786
C	 1.0083277892	 3.3895493927	 0.880264432	-0.261099
C	 1.1786060657	 2.1721553854	 0.0056340284	 0.060564
C	 2.4823942258	 1.6658632881	-0.3248368365	 0.234934
N	 3.5298419174	 1.2477636634	-0.5754840898	-0.328264
H	-1.921224337	 1.4992761021	-0.8948063	 0.154338
H	-1.7940560095	 2.2276757796	 0.6984458658	 0.146116
H	-0.7705662413	 3.2979622634	-1.968274237	 0.137494
H	-1.2271151051	 4.2544697529	-0.5533437695	 0.129313
H	 1.9088141419	 3.8950975035	 1.2137149831	 0.158056
H	 0.1866126451	 3.3843579149	 1.5933888489	 0.133315
