18
gdb 48892	3.3294	1.50093	1.39795	2.8171	75.45	-0.2435	-0.0333	0.2102	980.9837	0.149522	-401.902907	-401.895965	-401.895021	-401.934518	27.822	
O	-0.5738346852	 0.774168306	 0.7243765321	-0.248231
C	 0.0797313392	 1.1351137149	-0.2230004072	 0.046588
C	 1.3501752373	 1.9170793188	-0.1153332889	 0.258578
C	 2.7179850027	 1.2837430194	-0.5063993978	-0.277161
C	 3.0563015685	 2.7488405273	-0.765272458	 0.002369
C	 2.6566087599	 3.6489848609	 0.4768509699	-0.060007
C	 1.6631194622	 4.303909728	-0.500829899	-0.171108
N	 1.6113750818	 2.9831503375	-1.2171791759	-0.186431
C	 1.7113047553	 2.6594094128	 1.1891221917	-0.269334
H	-0.2182550475	 0.8928535232	-1.2665489049	 0.085982
H	 3.2466952482	 0.7138974664	 0.2595056514	 0.110836
H	 2.6658974173	 0.7298804291	-1.446095425	 0.120259
H	 3.8593526533	 3.0855457731	-1.422014168	 0.082817
H	 3.3749832011	 4.211466165	 1.0741304253	 0.068405
H	 0.7135421346	 4.6859320374	-0.1119597876	 0.104146
H	 2.1107169535	 5.0378937065	-1.177161547	 0.111016
H	 0.8619192201	 3.1477153628	 1.6715995812	 0.113226
H	 2.1952218476	 2.004704851	 1.9166419779	 0.108051
