19
gdb 70519	2.76502	1.59531	1.20014	1.1357	83.29	-0.2083	-0.0231	0.1852	1068.6392	0.160493	-385.884453	-385.876558	-385.875614	-385.916418	31.948	
O	 0.0382458979	 1.4125522996	-0.0839654291	-0.469206
C	 0.053087078	 0.0038870235	-0.0892301572	 0.34826
C	-0.7074332588	-0.6751414247	-1.2246695244	-0.351158
C	-1.3034667321	-0.6030908462	 0.1574788962	-0.041907
C	-1.4901803455	-1.8167837103	 1.0647647298	-0.281105
C	-0.6273222725	-3.018509406	 0.7795766059	-0.09655
C	 0.7097526943	-3.0171777457	 0.6819095864	-0.071334
C	 1.5922393156	-1.8578993934	 0.7523239795	-0.105554
C	 1.3053238444	-0.5805174346	 0.4495123899	-0.123247
H	 0.6094959121	 1.7152388043	-0.7985236454	 0.280273
H	-1.1179706355	-0.0223470079	-1.9873261595	 0.110187
H	-0.332292613	-1.6286710199	-1.5774033106	 0.125513
H	-2.0743771985	 0.1538055007	 0.2776203033	 0.099786
H	-1.3157993244	-1.4847188007	 2.0994021298	 0.120507
H	-2.5420648579	-2.1195947795	 1.0185057088	 0.104224
H	-1.143664687	-3.9705069868	 0.6890741808	 0.089528
H	 1.2107443303	-3.9751948848	 0.5551714928	 0.085049
H	 2.6149048937	-2.0702662497	 1.0562598008	 0.088544
H	 2.093353089	 0.1587674421	 0.5736209622	 0.088191
