13
gdb 1608	4.39622	2.2446	1.51429	5.0952	57.54	-0.2706	-0.0495	0.2211	769.1661	0.100841	-340.668108	-340.660282	-340.659338	-340.700238	25.995	
C	-0.0917624481	 1.4373107348	 0.0424997031	-0.351452
N	-0.0008411889	-0.0143077103	 0.0034907244	-0.101281
C	 0.0347662407	-0.702558562	 1.2818804786	-0.353067
C	 0.0430365737	-0.6300711468	-1.2072238545	 0.366903
O	 0.0135021768	-0.0761455545	-2.2888434678	-0.353109
C	 0.1349047458	-2.1051230901	-1.1585898051	 0.21228
N	 0.2071065445	-3.2575705005	-1.2097092704	-0.33132
H	 0.7704993247	 1.8568356358	 0.5734543569	 0.13693
H	-0.1102966559	 1.8121165805	-0.9793963039	 0.179062
H	-1.0046167758	 1.7458785177	 0.5649063561	 0.136907
H	-0.8721008893	-0.482853411	 1.8574970709	 0.140314
H	 0.1018176386	-1.780211644	 1.1341579783	 0.1775
H	 0.9017339233	-0.3738373496	 1.8669611333	 0.140335
