14
gdb 76024	2.66073	1.2401	1.08495	1.6606	68.82	-0.281	-0.0217	0.2593	1116.9581	0.100613	-432.863811	-432.855117	-432.854173	-432.89718	31.5	
N	-0.075531663	 1.4077354613	 0.1789643147	-0.563619
C	-0.0035843817	-0.0215989622	 0.0509589964	 0.062809
C	 1.0434066712	-0.5964241601	-0.7588345833	 0.246993
N	 1.899782941	-1.0419351767	-1.3970844254	-0.326889
C	-0.4825698632	-0.7560568374	 1.3026946085	 0.137038
O	-0.8020225205	-0.0145033849	 2.4054898456	-0.40569
C	-1.3642301434	-0.7598249161	 0.0581425134	-0.29494
C	-2.5603999153	 0.0264721947	 0.0069400102	 0.318678
N	-3.5236272224	 0.6650563636	-0.0384432727	-0.326689
H	 0.8415847758	 1.8032903148	 0.356827635	 0.264709
H	-0.4657606829	 1.8486702091	-0.6475916859	 0.269176
H	-0.013698897	-1.7013125167	 1.5512886608	 0.148892
H	-0.8880801885	 0.907206876	 2.107770851	 0.307383
H	-1.3949451801	-1.6822262054	-0.5112950584	 0.16215
