19
gdb 9627	3.38241	1.27305	1.11411	3.3326	73.49	-0.2447	-0.0262	0.2185	1144.7574	0.16346	-365.056053	-365.046932	-365.045988	-365.089987	32.949	
C	 0.0072959685	 1.5307461792	 0.1300834925	-0.387414
C	-0.2222025294	 0.0406919803	-0.1523204656	-0.224889
C	 0.6588789534	-0.4995511075	-1.2721517403	 0.32775
C	 0.4209677167	 0.1076297352	-2.6435196596	-0.463706
N	 2.0313773872	-0.8124879781	-0.8816980094	-0.362218
C	 1.1394688246	-1.9321202933	-1.2621998133	-0.171486
C	 0.8091272715	-2.9063423055	-0.1858917561	 0.165882
O	 0.4014723832	-4.0211145432	-0.4017007125	-0.261644
H	 1.0606934339	 1.7188018697	 0.3601466998	 0.130831
H	-0.2734521153	 2.1604881165	-0.719557493	 0.116814
H	-0.5886752188	 1.8545817829	 0.98822724	 0.117886
H	-0.024067729	-0.5230941809	 0.762522702	 0.10689
H	-1.2732318659	-0.137268379	-0.4123720454	 0.102931
H	 0.6560870895	 1.1769776174	-2.6451531978	 0.131084
H	 1.044245889	-0.3748531433	-3.4027268584	 0.117948
H	-0.6254449569	-0.0033821549	-2.946625503	 0.131736
H	 2.6840862181	-0.6219365682	-1.638186356	 0.236043
H	 1.2577542792	-2.3979346155	-2.2380419148	 0.09907
H	 0.9806718704	-2.5340839318	 0.8469020608	 0.086493
