17
gdb 48816	3.14587	1.38093	1.11353	2.5179	74.22	-0.2503	-0.0365	0.2138	1096.9144	0.135901	-421.836632	-421.828891	-421.827946	-421.869059	29.453	
O	-0.4399356077	 0.654397687	 0.7819661211	-0.259232
C	 0.1496348139	 1.0604233254	-0.1868940482	 0.115885
C	 1.4126831387	 1.863217605	-0.1374781422	 0.277252
C	 2.1664826681	 1.9019031082	 1.1699729163	-0.343755
C	 3.1340843411	 3.0448910868	 1.2813112132	-0.04388
C	 3.2323102866	 4.0425356868	 0.4074502863	-0.063736
C	 2.3778565854	 4.1816743528	-0.821982972	-0.289903
C	 1.5244690445	 2.9699836368	-1.1222323392	 0.001859
O	 2.1900314903	 1.7353126956	-1.3432699465	-0.284191
H	-0.2021573637	 0.8661776086	-1.2245667492	 0.089651
H	 1.4259779166	 1.9367638087	 1.9794489746	 0.141554
H	 2.6920422015	 0.9464169027	 1.3024575154	 0.127629
H	 3.7861276722	 3.0294234872	 2.1506111764	 0.094069
H	 3.9612484252	 4.8313889285	 0.5720863301	 0.092871
H	 1.7113285655	 5.0502524054	-0.7198589713	 0.121477
H	 3.0023631642	 4.3951670406	-1.7007676134	 0.127012
H	 0.6872469677	 3.144724434	-1.8007040812	 0.095439
