23
gdb 73808	2.33559	1.65607	1.1611	0.198	92.5	-0.2007	0.0324	0.2331	1184.0505	0.205076	-351.147552	-351.138209	-351.137265	-351.180826	36.549	
C	-0.0352772047	 1.4806019024	 0.1023240324	-0.51952
C	 0.0074987797	-0.0062232945	 0.0117627263	 0.238645
C	-0.0026159801	-0.8432755546	-1.0358202906	 0.188982
C	-0.0609402917	-0.588270224	-2.5035658116	-0.521452
C	 0.0635247206	-2.2473561622	-0.3749852738	 0.261606
C	 0.0715583796	-3.4805479397	-1.2499596219	-0.508145
C	-0.9696341211	-2.0397805635	 0.7896456804	-0.242005
C	 0.0785632471	-0.9622435642	 1.2178925068	-0.114418
C	 1.1594002259	-1.9739441274	 0.7164210896	-0.242014
H	 0.8505621551	 1.8785688007	 0.615207849	 0.122958
H	-0.0850767496	 1.9473100574	-0.8858602356	 0.12018
H	-0.9050983248	 1.8241780108	 0.6780633434	 0.122941
H	-0.1018944249	 0.4825974775	-2.722723026	 0.120783
H	 0.8135642576	-1.0004101052	-3.024351259	 0.122826
H	-0.9416413754	-1.0552472204	-2.9641348913	 0.122819
H	 0.9336515481	-3.4861732811	-1.9269488366	 0.114744
H	 0.1204612535	-4.391650827	-0.6446971484	 0.112074
H	-0.8329009023	-3.5407075954	-1.866307399	 0.114745
H	-1.9705159918	-1.6921184135	 0.5197015053	 0.083719
H	-1.0259517587	-2.8944907436	 1.4738046723	 0.082578
H	 0.0996571864	-0.5307486071	 2.2192371323	 0.051658
H	 1.3152045906	-2.8220948547	 1.3932812673	 0.082579
H	 2.116020961	-1.5657413307	 0.3791485888	 0.083718
