17
gdb 127620	3.25994	1.5444	1.0691	1.6604	75.37	-0.2259	0.0197	0.2455	1089.9445	0.138395	-418.013319	-418.005322	-418.004378	-418.04838	28.207	
C	-0.0041570172	 1.4243340211	-0.0174562047	-0.337978
N	-0.0037933232	-0.0219994245	 0.0369117424	-0.085967
N	 0.0007558683	-0.7447451941	-1.1146005333	-0.268583
C	 0.0005950796	-2.0256608491	-0.7354026934	-0.163399
C	-0.0039600093	-2.1314677824	 0.6677795905	 0.155232
C	-0.0065579837	-0.8369032516	 1.1124428889	 0.327137
C	-0.0115819038	-0.7684457013	 2.6030537811	-0.175794
O	-0.0118908514	-2.1482365537	 2.9884327499	-0.281931
C	-0.0071974375	-3.0429330201	 1.8519119992	-0.18315
H	 0.8869586974	 1.834942937	 0.4681760515	 0.140117
H	-0.0047248083	 1.7080631866	-1.0692326827	 0.16685
H	-0.895108459	 1.8342195201	 0.4690230955	 0.140097
H	 0.0036813225	-2.7972405607	-1.490823813	 0.114384
H	 0.8741385183	-0.2677278895	 3.0230010298	 0.113349
H	-0.9008002507	-0.2690118226	 3.0170924074	 0.113352
H	-0.8937663978	-3.689632939	 1.9100109643	 0.113147
H	 0.8801165458	-3.6880444163	 1.9160476166	 0.113137
