22
gdb 118339	2.19644	1.16816	1.01365	4.2019	79.2	-0.2421	0.017	0.2591	1337.7458	0.19277	-441.510461	-441.499818	-441.498874	-441.547455	38.194	
C	-0.0688785285	 1.5054772864	-0.0500993984	-0.382084
C	 0.0784569257	-0.0210500695	 0.0000356451	 0.02458
C	 0.7592887326	-0.5875844703	-1.25517935	-0.388659
N	 0.7418622584	-0.4695997582	 1.2402965542	-0.017332
C	 0.0382501555	-1.3533656698	 2.1675221315	-0.231322
C	 0.1480486084	-2.8392135717	 1.8020170861	-0.033966
O	 1.4746205851	-3.2453761457	 1.5500091972	-0.424374
C	 2.0550438749	-0.232714374	 1.4708643257	 0.153591
O	 2.7064313446	-0.7211699763	 2.3840358637	-0.378082
H	 0.9051245821	 2.0003697708	-0.1168056744	 0.125387
H	-0.6513566208	 1.800332935	-0.9285544944	 0.121918
H	-0.5783841502	 1.8781280531	 0.8429202611	 0.124393
H	-0.9271509523	-0.4504377565	 0.0516283991	 0.095999
H	 1.7431204124	-0.1350131196	-1.4145907409	 0.12362
H	 0.8967487481	-1.6681511022	-1.1643900188	 0.146095
H	 0.1520146753	-0.3811511525	-2.1419499345	 0.118924
H	 0.4794001396	-1.1923219671	 3.1548140181	 0.139735
H	-1.0148591266	-1.0555066491	 2.2138696217	 0.107675
H	-0.3151633395	-3.419494323	 2.6183572808	 0.088253
H	-0.4286954168	-3.0540503008	 0.8925090502	 0.09626
H	 2.0619048993	-2.7122753858	 2.1055121729	 0.300284
H	 2.5026476928	 0.473875227	 0.7509936642	 0.089103
