21
gdb 33494	2.56975	1.1076	0.91481	0.5898	88.77	-0.2399	0.0558	0.2957	1376.7352	0.181114	-349.896213	-349.886804	-349.885859	-349.930764	36.066	
C	 0.3578686163	-1.2452058188	 0.045252836	-0.482495
C	 0.1810515284	-0.0550059435	 0.0159576562	 0.291672
C	-0.0432182656	 1.3661895025	-0.0411444622	 0.180539
C	-1.1310785311	 1.8133556886	-1.0184662339	-0.305612
C	-2.5048507282	 1.2594745812	-0.7015206194	 0.043939
C	-3.4443173933	 1.9948240962	 0.2210296657	-0.255087
C	-3.7379701067	 1.9218518453	-1.2582564543	-0.27951
C	 0.1565079736	 2.1566308598	 1.244298861	-0.284713
C	 1.1714277852	 2.2651525889	 0.143497536	-0.308042
H	 0.5181802544	-2.294141458	 0.0765084571	 0.190205
H	-1.1692732972	 2.9099865416	-1.02018209	 0.087917
H	-0.836293328	 1.5093137247	-2.0312548715	 0.106731
H	-2.5349615079	 0.1754078133	-0.6392977437	 0.096931
H	-4.061312633	 1.4173352706	 0.9004933689	 0.110926
H	-3.1218164711	 2.9500629767	 0.6226762691	 0.105103
H	-3.6076265971	 2.8265419378	-1.8440988348	 0.10673
H	-4.5561021558	 1.2940020829	-1.5936959334	 0.110637
H	-0.5118725384	 2.9931206925	 1.4149692118	 0.117438
H	 0.4244041965	 1.6034983744	 2.1363757138	 0.125341
H	 2.1325017209	 1.7847223768	 0.2819980909	 0.125711
H	 1.2005211783	 3.1756272165	-0.4458159332	 0.115641
