21
gdb 106333	4.81161	0.91282	0.88486	0.9522	91.57	-0.2544	0.0479	0.3023	1407.0249	0.181723	-349.885183	-349.876191	-349.875247	-349.918702	35.165	
C	-0.0364868808	 1.5231061369	-0.0257030175	-0.381394
C	 0.0390938474	-0.005841928	 0.0579711856	-0.309571
C	 0.7642382404	-0.5058354863	 1.2812666924	 0.336064
C	 0.3902238	-0.2607661645	 2.7787605179	-0.288248
C	 1.674711257	-1.1506277596	 2.8167249503	 0.2487
C	 1.0212911536	-1.9936205432	 1.6742750767	-0.302096
C	 2.2460101144	-0.227091508	 1.6924865534	-0.288251
C	 2.3630016098	-1.6369712105	 3.9775346918	 0.060441
C	 2.9405212575	-2.044481455	 4.951399561	-0.366384
H	 0.9636295129	 1.9680768274	-0.0543990009	 0.119596
H	-0.5696146608	 1.8418915027	-0.9262758096	 0.113809
H	-0.5617175839	 1.9415919286	 0.8392025018	 0.119588
H	-0.9749733553	-0.427056514	 0.0507965342	 0.098936
H	 0.5394354033	-0.4007384956	-0.8361872472	 0.098934
H	 0.5016578689	 0.7574782022	 3.1608036993	 0.095533
H	-0.5296859425	-0.7287177436	 3.1405241069	 0.093832
H	 0.147617995	-2.5887821753	 1.9544714718	 0.093803
H	 1.7090843674	-2.5604190187	 1.0404649451	 0.093802
H	 3.0240909453	-0.6642340754	 1.0603615727	 0.093832
H	 2.4969949224	 0.7936912571	 1.9928198317	 0.095535
H	 3.4500391181	-2.404153437	 5.8105466027	 0.173542
