23
gdb 104186	2.37814	1.25223	1.23123	2.2422	81.25	-0.2449	0.062	0.3069	1215.4897	0.203652	-425.419812	-425.409577	-425.408633	-425.453861	39.835	
C	 0.3865510642	 1.4412707339	-0.249582775	-0.420089
C	-0.04673913	-0.0048049528	 0.0177722945	 0.266108
C	-1.5676304037	-0.1199201987	-0.0852600556	-0.460685
C	 0.7959124245	-1.0169668343	-0.82286252	-0.260234
C	 1.7465606577	-1.2122828065	 0.387110249	-0.288712
C	 0.6573646747	-0.5751884881	 1.3013942866	 0.417807
O	 1.0731095871	 0.4169231419	 2.2132329789	-0.493607
C	-0.14810584	-1.6263205779	 2.0613639706	-0.151356
O	 0.7038757485	-2.0915622464	 3.1096701667	-0.437986
H	 1.4726108696	 1.5575615428	-0.2132302425	 0.118311
H	 0.0421877568	 1.7538053815	-1.2419204803	 0.100532
H	-0.0378628362	 2.1208230894	 0.4946164696	 0.12195
H	-1.902794684	 0.1959755403	-1.0798393494	 0.111838
H	-1.9210238711	-1.1450010764	 0.0649806444	 0.105208
H	-2.0682920352	 0.5233570863	 0.647405463	 0.116862
H	 0.2348659386	-1.9240727673	-1.0667009816	 0.091201
H	 1.2370591976	-0.6283588468	-1.7442753301	 0.094249
H	 2.0645431111	-2.2282549407	 0.6310471514	 0.099258
H	 2.6266132148	-0.5681064659	 0.3364504828	 0.106873
H	 1.3406477204	-0.0575317361	 3.0114881132	 0.281799
H	-1.0560093035	-1.1652788429	 2.4740863892	 0.095661
H	-0.4457639187	-2.4537244239	 1.4022200443	 0.091658
H	 0.1734192368	-2.5877986015	 3.7387179903	 0.293353
