17
gdb 46702	2.99892	1.89249	1.39934	4.7585	71.2	-0.2368	0.028	0.2648	922.101	0.139766	-417.996931	-417.990165	-417.989221	-418.028251	26.951	
O	 0.0296681791	 0.057052162	 0.282597201	-0.361789
C	 0.0449485833	 1.2282350338	-0.0197605333	 0.37896
N	-1.0913923243	 1.9990912057	-0.1022592385	-0.314494
C	-1.0901971451	 3.4499231516	 0.0950159188	-0.200607
C	 0.1491143962	 4.0729761156	-0.5252081396	-0.038954
C	 1.5606084768	 4.012741792	 0.044031576	-0.093321
C	 1.7900946374	 2.7329688451	 0.8408944709	-0.199222
N	 1.2601584843	 1.9285196701	-0.3181575435	-0.156156
C	 1.1505186051	 3.1523256562	-1.1365205419	-0.035625
H	-1.9246523704	 1.5019033357	 0.1778011454	 0.248487
H	-1.979603932	 3.8562626543	-0.3978100608	 0.118662
H	-1.1729452335	 3.7047081954	 1.1624265491	 0.112419
H	-0.0269902593	 4.9910528341	-1.0774338778	 0.100941
H	 2.1941542873	 4.8901172034	 0.0558280551	 0.097814
H	 2.8452055394	 2.5070460658	 1.016514743	 0.125267
H	 1.2388731584	 2.611870655	 1.7809048745	 0.114277
H	 1.4622894372	 3.1443128841	-2.1736928383	 0.103339
