16
gdb 52231	2.93655	0.91746	0.73854	4.3179	68.36	-0.2688	-0.0162	0.2525	1458.2745	0.122356	-475.029134	-475.020059	-475.019114	-475.064781	30.652	
O	 0.310584665	 0.5080335214	 1.0071328163	-0.267208
C	 0.3330068835	 1.631841827	 0.6091506738	 0.174925
O	 1.1116954249	 2.0177910131	-0.4269813055	-0.18144
C	 1.1371897132	 3.4110267801	-0.750370962	-0.110409
C	 2.3242564336	 4.0788314338	-0.1054792894	-0.016358
C	 2.2860912042	 5.5238909846	 0.3017961132	-0.245734
N	 2.1690378048	 4.4713777973	 1.2873701693	-0.077851
C	 3.1370608281	 4.2553438532	 2.2670061492	 0.137852
O	 3.7074182179	 5.1293351538	 2.86662011	-0.271187
H	-0.2724681124	 2.4605439457	 1.0222623083	 0.089423
H	 1.2007805428	 3.4724060018	-1.8400781217	 0.13531
H	 0.2109512569	 3.8990841927	-0.4237700949	 0.121974
H	 3.2930060743	 3.6762373804	-0.3964933463	 0.124189
H	 3.2163975243	 6.0844055757	 0.2872132601	 0.149361
H	 1.3882979325	 6.1088120559	 0.121785727	 0.133051
H	 3.2735131561	 3.1777527635	 2.4743614226	 0.104101
