17
gdb 48569	5.5059	0.92679	0.90912	2.366	82.6	-0.2535	-0.0344	0.2192	1285.593	0.134577	-384.616629	-384.60839	-384.607445	-384.649701	31.299	
O	-0.0371394817	 0.0105920989	 0.0033115255	-0.243692
C	 0.0464728074	 1.2137235774	 0.0076527569	 0.030367
C	 1.3303819199	 1.9654723412	-0.0001395966	 0.228594
C	 2.7690271563	 1.3893153488	-0.0191273081	-0.289184
C	 2.9438944594	 2.9479590514	-0.0088513044	 0.245041
C	 1.7960253781	 3.0068220612	-1.0722231374	-0.295248
C	 1.8179546172	 2.9901150212	 1.0784806871	-0.29507
C	 4.1720204215	 3.6880577825	-0.0155141897	 0.058554
C	 5.2022716943	 4.3091128531	-0.0210507395	-0.352456
H	-0.8655625749	 1.8552709164	 0.0182360848	 0.071872
H	 3.0968075554	 0.8607422614	 0.8779219246	 0.110651
H	 3.0783827753	 0.874826954	-0.9308022389	 0.110574
H	 2.0300834941	 2.608201769	-2.0618139737	 0.112597
H	 1.2383815657	 3.9444973017	-1.1284558921	 0.107073
H	 1.2616038937	 3.9266494322	 1.1606379364	 0.107094
H	 2.0719703747	 2.5760323412	 2.056724725	 0.112668
H	 6.1126900736	 4.8555841185	-0.0260044901	 0.180567
