19
gdb 56683	2.50089	1.24549	1.12829	2.6428	76.28	-0.2469	0.0235	0.2704	1182.9335	0.156434	-422.962605	-422.952838	-422.951894	-422.997161	35.884	
C	-0.0568586681	 1.6518051612	 0.1589833511	-0.493327
C	 0.0378706426	 0.1372335825	 0.0478502215	 0.288172
C	 1.1334254046	-0.4569844954	-0.870891675	-0.116509
O	 1.6245844944	-1.2988575483	 0.1916114588	-0.278032
C	 0.8085644169	-0.6099846227	 1.1628745936	-0.123504
C	-1.3335092722	-0.5317887179	-0.2020730051	-0.094579
O	-2.2273044581	-0.3203915301	 0.8879473981	-0.429572
C	-1.9230241601	-0.1187994929	-1.4790129296	 0.285632
C	-2.4142745137	 0.2560389614	-2.5107239316	-0.441351
H	 0.9301266717	 2.0909967213	 0.3308555258	 0.122502
H	-0.4713366	 2.0917582581	-0.7537595897	 0.131464
H	-0.6960129763	 1.9417200485	 1.0001601312	 0.117651
H	 0.7950660693	-1.0351436446	-1.7387985143	 0.108595
H	 1.8855462851	 0.2732961158	-1.1995281381	 0.09465
H	 1.4081265575	 0.0459468003	 1.8086631746	 0.091026
H	 0.2278753751	-1.2967601438	 1.7878013158	 0.11683
H	-1.1686844622	-1.6162365056	-0.2265872047	 0.127222
H	-2.6359836417	 0.5435867749	 0.7706348327	 0.289784
H	-2.8532093246	 0.5678159871	-3.4265907551	 0.203345
