21
gdb 101058	2.21661	1.18775	1.02576	1.32	85.1	-0.2498	0.0414	0.2912	1323.6072	0.179572	-387.049022	-387.038697	-387.037753	-387.084108	38.65	
C	-0.0539349283	 1.6134969942	-0.1286217697	-0.383526
C	-0.1921261721	 0.0925087262	-0.2223097252	-0.188029
C	 0.8406331155	-0.5395750508	-1.1655046761	 0.05458
O	 2.17168802	-0.2271198339	-0.7785709694	-0.436138
C	 0.6571492813	-2.054314084	-1.3093807674	 0.155557
C	-0.3760881679	-2.5666885988	-2.3004015309	-0.299311
C	 1.0844263893	-2.7000302541	-2.6175536751	-0.305204
C	 0.8805029171	-2.7945105457	-0.095455108	 0.267733
C	 1.1040041317	-3.3704354614	 0.9384422226	-0.468227
H	 0.9553245902	 1.8879275067	 0.188568243	 0.129699
H	-0.2367623731	 2.0884263453	-1.0993801338	 0.10976
H	-0.7682776616	 2.0319843814	 0.586630867	 0.10764
H	-0.0777825867	-0.3602990418	 0.7709332291	 0.101859
H	-1.1967450426	-0.1788654939	-0.5697238385	 0.095228
H	 0.726922799	-0.0983507294	-2.1642007192	 0.078386
H	 2.3536298761	-0.7221442066	 0.0301413958	 0.282463
H	-0.9305785091	-3.457702898	-2.0313513511	 0.127083
H	-0.9539862028	-1.8188120631	-2.8333654359	 0.120178
H	 1.5180664748	-2.0423252268	-3.3627303531	 0.127101
H	 1.5323048184	-3.68497651	-2.5646078294	 0.127552
H	 1.2833610606	-3.8968418554	 1.8430990052	 0.195616
