20
gdb 93587	4.04216	0.93441	0.86222	1.7238	83.38	-0.2311	0.0039	0.2349	1391.9136	0.172548	-403.130879	-403.122244	-403.1213	-403.164775	32.724	
O	-0.4175561949	 1.4949762279	-0.403324859	-0.433238
C	 0.0077374007	 0.1851330291	-0.0168607841	 0.10543
C	-1.1551279416	-0.8129967346	 0.2276738723	-0.245514
C	-1.2002687858	-1.7331129962	-1.016798252	-0.341701
C	 0.1543494302	-1.5125565634	-1.6702093055	 0.369378
C	 0.8061816546	-0.4900085769	-1.1018716275	-0.24196
C	 0.6528723043	-2.3095477745	-2.80783118	-0.098948
C	 0.3836955609	-3.77472337	-2.9169639374	-0.2445
N	-0.2683114337	-2.8423613462	-3.8406505732	-0.320595
H	-0.7393654403	 1.4337406092	-1.3097012542	 0.272455
H	 0.5834239328	 0.3568063141	 0.8984288046	 0.085351
H	-0.9410823148	-1.4113472836	 1.1184310889	 0.1072
H	-2.0895458726	-0.2769911687	 0.4087031218	 0.10843
H	-1.3719814693	-2.7796688028	-0.7417322111	 0.110492
H	-2.0143121606	-1.4612852491	-1.7030357404	 0.108794
H	 1.7735485297	-0.1164358264	-1.4203927148	 0.092888
H	 1.5886203404	-1.9494917983	-3.2285672472	 0.093046
H	 1.1369381125	-4.416147481	-3.3659186934	 0.124493
H	-0.2091506581	-4.2487130328	-2.1399791192	 0.115064
H	-1.2307093943	-2.6899225058	-3.5484850687	 0.233433
