19
gdb 86762	3.7016	0.9516	0.81384	2.9524	82.25	-0.2354	-0.019	0.2165	1434.7645	0.156485	-385.87007	-385.860378	-385.859434	-385.905258	35.158	
C	 0.1805503083	 1.706805737	-0.0076659588	-0.406494
C	 0.1073081459	 0.1872331872	 0.0146563555	-0.081549
C	 0.6367706217	-0.6596741076	-1.1880437395	-0.285349
C	 1.3245994812	-1.6543758818	-0.2001931999	-0.086009
C	 2.7490365817	-2.1468584662	-0.4898525376	-0.375656
C	 3.2402669981	-3.0985484087	 0.4987360745	 0.312469
C	 3.6239791191	-3.8993785905	 1.3080257256	-0.442854
C	 1.1261246163	-0.574648154	 0.8811133551	 0.38189
O	 1.6923678595	-0.3137922088	 1.9029213699	-0.295898
H	 1.1835660102	 2.0471749056	-0.2847155891	 0.120992
H	-0.5314476199	 2.1286405231	-0.7239497557	 0.119616
H	-0.0467390133	 2.1157864556	 0.9812127945	 0.136805
H	-0.902870285	-0.1460196648	 0.2856430822	 0.103676
H	-0.110109291	-1.0805625259	-1.8622354057	 0.109574
H	 1.373386348	-0.1016311565	-1.7745099858	 0.110503
H	 0.6695288927	-2.5081533593	 0.0062527666	 0.113292
H	 2.7663503779	-2.6124678362	-1.4840118369	 0.134263
H	 3.426076142	-1.2845537739	-0.5418873085	 0.133825
H	 3.9726974663	-4.5930695445	 2.0320928836	 0.196906
