20
gdb 84401	2.95834	1.41766	1.12465	2.4605	80.02	-0.2436	0.0197	0.2632	1139.2064	0.172969	-403.138166	-403.129964	-403.129019	-403.170738	32.616	
C	 0.5634960543	 1.528865537	-0.0467524305	-0.393029
C	-0.0046802885	 0.0994214558	 0.0134067012	-0.04346
C	 0.2380729665	-0.6438633396	-1.2750710429	-0.04727
C	 0.6725683019	-1.898201687	-1.3687860129	-0.10154
C	 1.015870341	-2.7893951152	-0.2041918363	 0.08275
O	 2.2878306683	-3.4062390296	-0.3976353419	-0.441565
C	 0.986282344	-2.0599691568	 1.1258247832	-0.074924
N	 1.9757406394	-0.967223905	 1.2138822026	-0.345285
C	 0.5351974097	-0.6486699674	 1.2193465727	-0.033545
H	 1.6522915329	 1.4960753325	-0.1425720463	 0.135976
H	 0.1561913978	 2.0778049409	-0.9017474226	 0.111651
H	 0.3152405887	 2.0888414719	 0.8610917353	 0.107419
H	-1.0944492355	 0.1802919772	 0.1518773373	 0.085028
H	 0.0313137699	-0.0829577169	-2.1849014083	 0.085462
H	 0.8275182979	-2.3541499612	-2.3434172749	 0.09371
H	 0.303419423	-3.6239000658	-0.1650386204	 0.089189
H	 2.9282077721	-2.6890455426	-0.3002110698	 0.286492
H	 0.8680403017	-2.6968081929	 1.9989505099	 0.087128
H	 2.3516719999	-0.9083174942	 2.1556569476	 0.233562
H	 0.113256085	-0.331251911	 2.1714746873	 0.082251
