19
gdb 93738	3.21604	1.18968	1.11656	3.5128	72.11	-0.2378	-0.0288	0.2089	1180.3911	0.156396	-460.181288	-460.171833	-460.170889	-460.215966	34.177	
C	 0.5347428107	 1.5654290645	 0.0200385086	-0.398399
C	-0.0490383926	 0.158829976	 0.1097224328	 0.114123
C	 0.2197107879	-0.7095881579	-1.126748257	-0.124783
O	 1.4469732941	-1.3580733681	-0.8108488599	-0.28648
C	 1.4976083244	-1.5234171901	 0.5974707884	 0.350037
C	 2.9100812162	-1.3143102807	 1.1022890527	-0.428373
O	 0.5799412823	-0.5905732834	 1.158968373	-0.311347
C	 0.9425030123	-2.9199489045	 0.9333703493	 0.152242
O	 1.5129443932	-3.7464846929	 1.5920843954	-0.241128
H	 1.5797742423	 1.532454442	-0.3030086558	 0.130226
H	-0.0306356919	 2.1701665179	-0.697084409	 0.116508
H	 0.4883275837	 2.0561203566	 0.9956362803	 0.132237
H	-1.1182658261	 0.2078250829	 0.3411443654	 0.091217
H	-0.5859480691	-1.4365614372	-1.2943096252	 0.106136
H	 0.3696681775	-0.1316866435	-2.0420540436	 0.121217
H	 3.2421305353	-0.3049234568	 0.852368991	 0.121442
H	 2.940216701	-1.4519671685	 2.1846255366	 0.142063
H	 3.5829383262	-2.0427381028	 0.6444878631	 0.138594
H	-0.0668030575	-3.1030651034	 0.5012504239	 0.074466
