12
gdb 1051	7.84504	2.13557	1.73916	2.8014	52.12	-0.2212	0.0114	0.2326	684.9652	0.090865	-360.527122	-360.520858	-360.519914	-360.558357	21.373	
C	 0.0501111884	 1.4040143191	-0.0189949673	-0.254281
O	-0.3061832901	 0.038297285	-0.2633506274	-0.26398
C	 0.4543577674	-0.627701271	-1.1289079785	 0.402795
C	 0.8644008563	-1.9186342978	-1.1856894491	-0.218569
N	 1.5676111769	-2.1076507858	-2.3734434779	-0.249191
C	 1.5555247795	-0.9549657633	-2.947919722	 0.07455
O	 0.8885536944	 0.0144524543	-2.2563575997	-0.18864
H	 1.0804023003	 1.4761884815	 0.3469374798	 0.132799
H	-0.0592012265	 2.0063363448	-0.925104338	 0.144225
H	-0.639981356	 1.7590356648	 0.7466233779	 0.14421
H	 0.7023253933	-2.7086950524	-0.4727034799	 0.126975
H	 2.005534996	-0.6551954593	-3.8805236278	 0.149105
