17
gdb 36710	5.19649	0.74987	0.70923	3.2155	73.1	-0.2631	0.01	0.2731	1539.7654	0.13729	-418.040559	-418.03212	-418.031176	-418.075053	29.75	
N	 0.0027795094	-1.1314560246	-0.1839306158	-0.301582
C	-0.0109451378	 0.0199019408	-0.0871833949	 0.257161
C	-0.0028122292	 1.4751231595	 0.0365738229	-0.343201
C	 1.423893234	 2.0580932828	 0.0275443077	-0.202636
C	 1.427856417	 3.5762621297	 0.1577834747	 0.083274
C	 2.8290334105	 4.2325379663	 0.0131466371	-0.205148
N	 2.7441287276	 5.0609844173	-1.2015727778	-0.254058
C	 1.5560182364	 4.940446112	-1.6183385738	 0.121938
O	 0.6745713643	 4.1573358921	-0.945191092	-0.234966
H	-0.5803415652	 1.9068812406	-0.7868181753	 0.171318
H	-0.5199979347	 1.7486544941	 0.964013273	 0.151785
H	 2.0038373287	 1.6339390383	 0.8546732356	 0.129428
H	 1.931998133	 1.7740295694	-0.9003346982	 0.133968
H	 0.9186164192	 3.8799728981	 1.0787451698	 0.097623
H	 3.0886956775	 4.8596646666	 0.8715628593	 0.12513
H	 3.6236410791	 3.4864162823	-0.0990992611	 0.122448
H	 1.1433871202	 5.4212636546	-2.4981670511	 0.147519
