14
gdb 26844	3.67388	1.11584	0.85694	4.3161	73.38	-0.1995	-0.0354	0.164	1236.4676	0.100668	-473.870117	-473.861789	-473.860845	-473.903033	30.5	
O	 0.0716211735	 1.313714684	 0.1592853523	-0.425292
C	 0.0554900868	-0.021366129	 0.0129283789	 0.358264
C	 0.0280501202	-0.7924493202	-1.1465981651	 0.182572
O	-0.032755157	-0.2020806602	-2.3864358936	-0.463613
C	 0.011910895	-2.1412319407	-0.7526423347	-0.350734
C	 0.0361570274	-2.1630315266	 0.6411370551	 0.230897
N	 0.0522458943	-0.8469854721	 1.0785248475	-0.354679
C	 0.0411692812	-3.2360786504	 1.5933876706	 0.067378
O	 0.0563199538	-3.071614544	 2.8040519897	-0.338122
H	 0.077048992	 1.6940962337	-0.7287638115	 0.318825
H	 0.5689996946	-0.6557933064	-2.9848991902	 0.304665
H	-0.0144912892	-3.0097223257	-1.3937778099	 0.116158
H	 0.066228436	-0.5941149603	 2.0539187055	 0.286723
H	 0.0300845113	-4.250924452	 1.1428326154	 0.066958
