21
gdb 117798	2.23295	1.1108	1.00844	1.9802	81.82	-0.2566	0.0393	0.2959	1357.3002	0.177571	-424.166744	-424.155535	-424.154591	-424.202976	39.804	
C	-0.0530042636	 1.3963842756	-0.0782772187	-0.228121
O	-0.1028796704	-0.0105081044	-0.1141902001	-0.234873
C	 0.7079649702	-0.5597366722	-1.1218303984	-0.086605
C	 0.6311513702	-2.1019601338	-1.0423651642	 0.139098
C	 1.1810176976	-2.6015400938	 0.3010529519	-0.416939
O	-0.7081808686	-2.5833632676	-1.0850986602	-0.250333
C	-1.4921800754	-2.1874037131	-2.1923525682	-0.246052
C	 1.4237968416	-2.6458474836	-2.1617329808	 0.343232
C	 2.0671842988	-3.079887612	-3.0800568245	-0.493467
H	 0.9638220448	 1.7642235109	 0.1314792784	 0.105868
H	-0.3881650634	 1.8413638473	-1.0284868769	 0.105226
H	-0.7207611848	 1.7258748606	 0.7211434278	 0.130618
H	 0.3875984158	-0.2126668759	-2.1164777187	 0.09446
H	 1.7611278493	-0.2589077034	-0.9994051742	 0.098528
H	 0.6164077574	-2.1344404049	 1.1095589303	 0.140918
H	 1.0685534831	-3.6857122362	 0.3594559354	 0.130653
H	 2.2391672678	-2.347980849	 0.4015616581	 0.116802
H	-2.4099023721	-2.7785558843	-2.1444717885	 0.126382
H	-1.7602820232	-1.1236585407	-2.1460177279	 0.112928
H	-0.9885788842	-2.3935335577	-3.1465696833	 0.113842
H	 2.6363764191	-3.4749828016	-3.8852765573	 0.197834
