16
gdb 97347	7.61443	0.61982	0.5752	4.635	76.77	-0.2563	-0.0308	0.2254	1851.9408	0.122815	-471.26195	-471.252148	-471.251203	-471.298091	32.983	
C	 0.3533029521	 1.8245730329	 0.8845837069	-0.313378
N	 0.0991282849	 0.4303595441	 1.1871922968	-0.243528
C	 0.1377469127	-0.3913028092	 0.227504767	 0.12653
N	-0.0974304816	-1.7422348652	 0.4544189281	-0.403284
C	-0.067900271	-2.6862646678	-0.5621880641	 0.553785
O	 0.1615186008	-2.4200524825	-1.7136101077	-0.340282
N	-0.337602273	-3.980762029	-0.079424155	-0.406052
C	-0.3869289429	-5.1574633355	-0.8232500124	 0.168849
O	-0.2089203899	-5.2725190953	-2.0020736042	-0.246488
H	 1.2088122045	 2.1765402788	 1.4723650031	 0.130536
H	 0.5576225801	 2.0190487526	-0.1794973813	 0.107362
H	-0.5096070084	 2.4281680629	 1.1884073802	 0.130533
H	 0.3445453139	-0.1647339774	-0.8218716527	 0.140258
H	-0.2925890249	-1.9898829727	 1.4134457268	 0.254757
H	-0.5170337733	-4.0916235594	 0.9076119588	 0.253058
H	-0.622516404	-6.0094241674	-0.1528064802	 0.087345
