18
gdb 108438	2.25974	1.73464	1.23486	4.047	72.5	-0.2362	0.0128	0.249	1068.6176	0.147493	-439.085035	-439.076588	-439.075644	-439.118155	31.503	
C	 0.0159246434	 1.5472918166	-0.0037277236	-0.388397
C	-0.0684003275	 0.0136291774	 0.0000904062	-0.288135
C	 0.6837163429	-0.5764986694	-1.1600375676	 0.310813
O	 0.1399147393	-0.232156445	-2.4647803487	-0.321826
C	 0.1594272242	-1.6088859674	-2.902079483	-0.095782
C	 0.8336388812	-2.0691279486	-1.5955505601	-0.106696
N	 2.280357004	-1.8805111826	-1.5387644916	-0.335897
C	 2.2433907961	-0.5308977615	-1.2216591777	 0.400702
O	 3.1001639799	 0.3006509798	-1.1007231812	-0.357979
H	 1.0564343445	 1.8770944735	 0.0558092241	 0.150345
H	-0.4151012127	 1.950650657	-0.9240420019	 0.137658
H	-0.5327185671	 1.965787022	 0.8444941465	 0.111082
H	 0.3537280538	-0.3889494753	 0.9291414378	 0.110267
H	-1.1144034802	-0.3114205482	-0.0500628898	 0.103964
H	-0.8592660255	-1.992031082	-3.0369829679	 0.111464
H	 0.7342530326	-1.7535515277	-3.8234823768	 0.108153
H	 0.4439953255	-2.9302773791	-1.0543007568	 0.101127
H	 3.0170113056	-2.4063773895	-1.9899141179	 0.249135
