12
gdb 35152	2.63503	1.32968	1.01143	3.5967	73.48	-0.2844	-0.0399	0.2444	1126.3714	0.073451	-398.250545	-398.24193	-398.240986	-398.283923	31.011	
C	-0.0659793778	-1.2032997062	 0.0209789948	-0.408717
C	-0.0315670371	-0.0037312307	 0.0037225825	 0.28399
C	 0.0009095963	 1.4355681217	-0.0354148074	 0.088779
O	 0.50938641	 2.0941298086	 1.1449778095	-0.244329
C	 1.3198004054	 2.1566534217	-0.0159415452	-0.160324
C	 2.5675807039	 1.4264019607	-0.0008769429	 0.323261
N	 3.5798543482	 0.8698043775	-0.0171426192	-0.316806
C	-1.1127928683	 2.0842802519	-0.6831189321	 0.25489
C	-2.0368047496	 2.620835521	-1.2305442616	-0.408357
H	-0.0881465139	-2.2656833501	 0.0421132574	 0.217003
H	 1.3650699182	 3.1280204222	-0.5045617572	 0.154232
H	-2.8596332053	 3.0928298018	-1.7098474985	 0.216379
