19
gdb 80768	3.17099	1.04495	0.94201	3.9576	76.18	-0.244	-0.0211	0.223	1302.8768	0.157388	-422.988469	-422.979622	-422.978678	-423.022857	32.508	
C	 0.4014401605	 1.7514405984	-0.6019276509	-0.426409
C	 0.4061107607	 0.2510589103	-0.4020008887	-0.013638
C	 1.6343221732	-0.5953757297	-0.4644301946	 0.076503
O	 2.7609674234	 0.0828265071	 0.1088104586	-0.299024
C	 2.1504391157	 0.0006220159	 1.428584082	 0.135385
C	 2.2193813016	 1.2860086596	 2.2425692746	-0.310918
C	 3.6492235043	 1.692390904	 2.5390250265	 0.173249
O	 4.0751711602	 2.812826725	 2.4443675792	-0.236349
C	 0.8484428831	-0.5284596606	 0.8329393151	-0.193099
H	 1.3936977298	 2.1715732268	-0.4279174573	 0.145006
H	 0.1190323776	 1.9890465088	-1.6329073253	 0.117775
H	-0.3134192422	 2.2501525399	 0.0608840378	 0.117343
H	-0.4448554343	-0.2600041692	-0.8512581826	 0.093655
H	 1.8382755991	-1.4012623351	-1.1601400723	 0.105541
H	 2.6545215815	-0.802797122	 1.9865319668	 0.086718
H	 1.7018390171	 2.1216471867	 1.7716507509	 0.130654
H	 1.7344938778	 1.0840474221	 3.2100120321	 0.125695
H	 4.303736589	 0.8550814785	 2.8788107265	 0.073091
H	 0.215386932	-1.2686740467	 1.3040539616	 0.098823
