20
gdb 69314	3.00969	1.33885	1.26942	2.7082	79.91	-0.2309	0.0076	0.2384	1117.5577	0.170359	-403.138999	-403.130278	-403.129334	-403.171563	34.8	
C	-0.1728248432	 1.5113772655	 0.0306916036	-0.497544
C	 0.0869815346	 0.029502599	-0.0227721851	 0.310806
N	-0.6982195141	-0.9006958857	 0.8553987911	-0.392188
C	 0.7664212671	-0.7546520303	 1.0334140449	-0.160397
C	 1.5272725901	-1.9253108044	 0.3856887981	 0.378938
C	 3.0154574207	-1.9189762448	 0.7148769296	-0.430239
O	 1.010365946	-3.1793104499	 0.817183926	-0.473943
C	 1.2337632214	-1.7002110374	-1.0979732051	-0.134852
C	 0.44797427	-0.6467336991	-1.3151890116	-0.126626
H	 0.6685550647	 2.0704202294	-0.3923846463	 0.131006
H	-1.0689340476	 1.7756725185	-0.5425308509	 0.127943
H	-0.3194975098	 1.8518204423	 1.0608888007	 0.115961
H	-1.1680648346	-0.3551161743	 1.5772627316	 0.225083
H	 1.1437375851	-0.3054774428	 1.9466926333	 0.082617
H	 3.1615132079	-2.0736255211	 1.7886567363	 0.120197
H	 3.5239428556	-2.7277549026	 0.1824824855	 0.124162
H	 3.4740892114	-0.9689934669	 0.4255799715	 0.11475
H	 0.0485587272	-3.0706992168	 0.7952821176	 0.286191
H	 1.5853590741	-2.4031591014	-1.8451591595	 0.100365
H	 0.0669827935	-0.3165689872	-2.2754925013	 0.09777
