13
gdb 43033	2.94733	1.68935	1.22768	5.4988	68.4	-0.2762	-0.0437	0.2326	958.0058	0.09005	-415.570664	-415.563874	-415.56293	-415.602035	25.608	
O	-0.0557341642	 0.043467538	 0.0529266826	-0.298794
C	-0.05225886	 1.2334024634	 0.1001571501	 0.430365
C	-1.0869078398	 2.3408386147	-0.0858862933	-0.141075
C	-1.0158561637	 3.1726004886	 1.2131590653	-0.257057
C	 0.3807321186	 3.5204030192	 0.7199975298	-0.0497
N	 0.0705906547	 3.2219170149	-0.6937194194	-0.159435
C	 1.019926766	 2.2970143751	 0.0962217287	 0.065454
C	 2.4155157633	 2.1829427031	-0.1631187468	 0.196376
N	 3.5499441699	 2.062879261	-0.3521448499	-0.328186
H	-2.0008894644	 2.1751167546	-0.6482937111	 0.129517
H	-1.6600267352	 4.0531994935	 1.1617315327	 0.14102
H	-1.151405988	 2.6592701858	 2.1681243736	 0.134482
H	 1.0143487329	 4.3571631382	 0.9931918576	 0.137032
