18
gdb 78845	3.37598	1.58791	1.39711	1.8108	73.53	-0.2273	0.0713	0.2986	975.8633	0.148561	-401.891533	-401.884187	-401.883243	-401.922893	29.757	
C	-0.0311651648	 1.4874055482	-0.118538131	-0.506103
C	 0.0373680607	 0.0022140936	 0.0063682104	 0.371136
C	 0.5921739386	-1.0937949278	-0.8656618841	-0.181366
C	-0.6944558575	-1.8827083244	-0.5838155483	-0.058329
C	-0.7638872439	-2.0369770518	 0.894968051	-0.097642
C	 0.613623698	-1.8673228616	 1.5115002192	 0.130609
O	 1.3512291624	-3.0708489602	 1.6078532891	-0.434522
C	 1.1587348343	-0.8409105187	 0.5358989301	-0.173986
N	-1.2546260058	-0.7822205261	 0.2661067999	-0.197138
H	 0.9385207104	 1.8960850485	-0.4195059795	 0.120447
H	-0.7765230099	 1.7824104402	-0.8640249809	 0.131283
H	-0.3126640772	 1.9446786812	 0.8370042837	 0.12836
H	 1.1615282897	-1.0476416783	-1.7831818741	 0.094331
H	-1.3077640664	-2.4108545385	-1.304246236	 0.09746
H	-1.5211982027	-2.6505876674	 1.3696065925	 0.099021
H	 0.558974043	-1.4732521934	 2.5312142494	 0.098909
H	 1.4296835812	-3.4269220084	 0.7149619526	 0.282028
H	 2.1511046801	-0.4212454651	 0.6421669061	 0.095503
