21
gdb 107307	3.35989	1.12988	0.94758	1.9164	84.23	-0.2315	0.0094	0.2409	1332.8969	0.18143	-387.098258	-387.089144	-387.0882	-387.131995	34.779	
C	 0.0053479456	 1.4865870739	-0.4032964394	-0.379928
C	 0.0179214072	 0.0486690418	 0.1329981516	-0.277662
C	-1.366765821	-0.5328886994	 0.2694506544	 0.428598
C	-2.3541011954	 0.0031490908	 1.3111203693	-0.375118
C	-3.2710364309	-1.1770953859	 1.5960003718	 0.313304
C	-4.4427497996	-1.0503681538	 2.5154263233	-0.485687
C	-2.8926250805	-2.2586226385	 0.9030581518	-0.191193
C	-1.7286581712	-1.9422920258	 0.029056184	-0.074706
O	-2.0105345939	-0.91262995	-0.9562164461	-0.309138
H	 1.0233966925	 1.8673227143	-0.5272886035	 0.111814
H	-0.494923387	 1.5269194582	-1.3754591084	 0.134513
H	-0.5225579918	 2.1642661214	 0.2759534086	 0.116144
H	 0.5959647136	-0.5903220374	-0.5432791023	 0.104947
H	 0.5175592601	 0.0164063584	 1.1097798362	 0.096339
H	-1.8364760335	 0.3366759372	 2.2213668379	 0.104478
H	-2.9123855652	 0.8671846035	 0.9307174715	 0.120857
H	-5.1615199781	-0.3106808168	 2.1401446188	 0.13088
H	-4.9676648257	-2.0023249124	 2.6318004721	 0.12549
H	-4.1324661692	-0.7048097909	 3.5099688561	 0.124071
H	-3.3813972297	-3.2253738351	 0.9281680333	 0.093111
H	-1.0177535762	-2.6974276835	-0.2946130611	 0.088889
