17
gdb 79916	2.57288	1.49889	1.27164	3.364	75.01	-0.238	0.0068	0.2448	1061.2259	0.135037	-421.817604	-421.809474	-421.80853	-421.850025	31.262	
C	-0.0175596278	 1.4089904866	 0.0790591457	-0.516077
C	-0.0593076923	-0.0801042258	 0.0477820851	 0.316197
C	-0.0609103808	-0.9387789784	-0.9951090803	-0.197125
C	 0.0223579961	-2.3139460283	-0.368453284	-0.237031
C	-0.9609203702	-2.1226667158	 0.8431089185	 0.155908
O	-0.9687257747	-3.1527931669	 1.7946494257	-0.438012
C	 0.0197662698	-0.9892860634	 1.2646566781	-0.25054
C	 1.137557708	-1.9633580425	 0.6996504237	 0.433445
O	 2.2546930478	-2.2648169476	 0.9473802292	-0.302913
H	 0.8943755374	 1.7686635084	 0.5720065382	 0.138539
H	-0.0403881124	 1.8234707077	-0.9328898934	 0.129027
H	-0.8629586704	 1.8260684857	 0.6395106137	 0.131264
H	-0.0262152337	-0.7153876489	-2.0525450138	 0.106675
H	 0.0343267915	-3.2061244245	-0.9916199092	 0.078401
H	-1.9641805509	-1.7797987754	 0.5580654672	 0.074601
H	-1.4236267159	-3.9142881168	 1.4202811663	 0.290267
H	 0.0290364584	-0.5695056642	 2.2680115495	 0.087374
