17
gdb 86959	3.35255	1.03498	0.90697	4.4953	72.16	-0.2645	-0.0098	0.2547	1302.5681	0.13459	-458.996273	-458.987646	-458.986702	-459.03069	30.845	
C	 0.5004173219	 1.472039868	-0.3424253671	-0.391818
C	 0.0325394808	 0.0642811483	 0.0243839962	 0.070726
O	 0.30285734	-0.8635456599	-1.04564352	-0.257877
C	 1.2574235013	-1.8015410972	-0.6482457982	 0.163637
O	 2.5301012673	-1.5476036661	-1.2822183604	-0.198055
C	 2.7008027652	-2.0441438412	-2.5250294641	 0.177959
O	 3.6796822589	-1.8341287481	-3.1752276394	-0.275266
C	 1.4287785754	-1.6098395957	 0.8311940893	-0.119191
C	 0.7420437991	-0.538187653	 1.2064635413	-0.082013
H	 1.5811223124	 1.4821993661	-0.5065751791	 0.139224
H	 0.0026976734	 1.8057187041	-1.2567308371	 0.133368
H	 0.2568811055	 2.1773383137	 0.4589084345	 0.117425
H	-1.0563204858	 0.0672839859	 0.1718887155	 0.097791
H	 0.9257300581	-2.8014580307	-0.9590110241	 0.096876
H	 1.8495224932	-2.666541107	-2.8623161792	 0.081642
H	 2.0654873474	-2.243425527	 1.4325256621	 0.124704
H	 0.6916043559	-0.1110231904	 2.1997000899	 0.120868
