22
gdb 15906	2.48814	1.7584	1.2087	1.6127	78.02	-0.2372	0.0805	0.3177	1109.1288	0.198967	-350.203087	-350.193643	-350.192699	-350.237542	34.723	
C	-0.010187434	 1.6966642525	 0.1155096511	-0.390909
C	 0.0249671293	 0.1656886556	 0.1915963552	-0.187355
C	-1.3534071002	-0.4776331858	 0.0487791898	-0.070941
C	-1.959629045	-0.6779801011	-1.3747392875	 0.162222
C	-1.2986879316	-0.1226550129	-2.6212962463	-0.407281
O	-1.7979351406	-2.1116663254	-1.2757339859	-0.313082
C	-1.446010671	-2.0290204283	 0.1238072455	 0.147986
C	-0.2322770796	-2.8718999051	 0.4634891385	-0.404179
H	 0.989317913	 2.1212274181	 0.2517090086	 0.113366
H	-0.3888492662	 2.045584333	-0.8500548836	 0.120944
H	-0.6584807785	 2.1133957488	 0.8944202456	 0.114809
H	 0.7140305595	-0.2252892659	-0.5652338464	 0.102769
H	 0.4459370197	-0.1324356861	 1.1604502104	 0.097677
H	-2.0446744727	 0.0211844686	 0.7354138049	 0.06525
H	-3.0297890472	-0.4199183008	-1.3908866923	 0.065721
H	-0.2201074622	-0.3001772276	-2.6255223916	 0.118776
H	-1.7227282502	-0.6185615031	-3.5006391904	 0.126882
H	-1.4819292712	 0.9521446474	-2.7200906213	 0.115217
H	-2.2947943318	-2.3516260626	 0.746503413	 0.065053
H	 0.6416393069	-2.577166853	-0.1229673248	 0.118697
H	 0.0130979327	-2.7899106912	 1.5279006774	 0.113323
H	-0.4461562792	-3.923513135	 0.2469898402	 0.125052
