18
gdb 76963	2.16513	1.36428	0.93615	5.2776	76.23	-0.2487	-0.038	0.2107	1283.9559	0.144338	-439.106173	-439.09636	-439.095415	-439.141479	34.233	
C	-0.0863655665	 1.6825909093	 0.0909195883	-0.41793
C	 0.175006764	 0.1981226761	 0.0968825146	 0.017466
C	 0.5592216081	-0.5586409342	-1.1737043913	-0.159413
N	 1.5102478092	-0.2720227548	-0.1213022019	-0.077177
C	 2.1649071988	-1.2066739356	 0.6834637424	 0.162916
O	 2.1674553966	-1.163450965	 1.8859600033	-0.29035
C	 0.0050121923	-1.9498319263	-1.3293830261	 0.386864
C	-0.7385722081	-2.2217044161	-2.6197915133	-0.484784
O	 0.1410471114	-2.7831462668	-0.461506639	-0.307012
H	 0.5430121792	 2.1873288196	-0.6467191951	 0.129469
H	-1.1362811896	 1.891092879	-0.1376315666	 0.125818
H	 0.1368641929	 2.1049244559	 1.0758134788	 0.14601
H	-0.4061203367	-0.3913183063	 0.8052977594	 0.128524
H	 0.6818714017	 0.016373721	-2.0892577526	 0.103573
H	 2.765439001	-1.9163715468	 0.0888098585	 0.090055
H	-0.0436485566	-2.1679623805	-3.4662537199	 0.149296
H	-1.1933372876	-3.2117452896	-2.5842817664	 0.151738
H	-1.50715516	-1.4598159187	-2.791328643	 0.144938
