18
gdb 93407	2.89015	1.353	0.95352	7.0203	77.39	-0.2238	-0.0158	0.208	1205.9359	0.148856	-439.142623	-439.134127	-439.133183	-439.175519	32.675	
C	-0.1159041791	 1.5424696997	-0.0264796868	-0.428306
C	 0.0329978067	 0.015380596	 0.035093435	-0.094854
C	 0.7780188388	-0.4914891217	-1.2007086496	-0.075336
O	 0.9989058821	-1.8956048978	-1.1871868669	-0.246357
C	 1.5673114633	-2.4340467754	-0.0560459551	 0.420149
O	 2.032349908	-3.5448815151	-0.1174398367	-0.359185
C	 1.5205469572	-1.619068308	 1.1525125719	-0.358879
C	 0.7660976954	-0.4997031593	 1.2583905334	 0.376399
N	 0.5449128274	 0.1465981212	 2.4453284684	-0.571717
H	 0.8551359802	 2.04467374	 0.0423665221	 0.12984
H	-0.5759006374	 1.8360996812	-0.9748158169	 0.132994
H	-0.7633653642	 1.9254444991	 0.7682839981	 0.124722
H	-0.9715791148	-0.4311253467	 0.0432169105	 0.116804
H	 0.2018126737	-0.288678268	-2.1073168165	 0.117038
H	 1.7418314594	 0.0324910955	-1.2831355183	 0.104058
H	 2.0334627765	-2.0400067767	 2.0100609197	 0.093586
H	 1.1102070428	-0.127950379	 3.2340129936	 0.261324
H	 0.3083487239	 1.124352675	 2.4221352341	 0.25772
