21
gdb 110937	2.6632	1.06657	0.92419	1.8716	78.49	-0.2375	0.0664	0.3039	1374.7861	0.181674	-424.176166	-424.166726	-424.165782	-424.210933	35.01	
C	 0.2615273918	 1.5868340088	 0.4931810065	-0.385021
C	-0.8115765815	 0.7366080991	 1.1828513056	-0.212324
C	-0.1977491814	-0.2604431162	 2.1496724914	 0.155901
O	-1.1528071998	-1.0545524129	 2.9195919284	-0.311068
C	-0.3725597185	-2.2333688047	 2.6879822486	 0.059751
C	-0.4092302948	-2.634777703	 1.2464589351	-0.046353
C	-1.6444646977	-2.5316356464	 0.3778742218	-0.103139
O	-2.3753140394	-3.7524339922	 0.3863834548	-0.420717
C	 0.5347304384	-1.5273132624	 1.7005494845	-0.194424
H	 0.946041627	 0.9631989183	-0.0917843257	 0.12235
H	-0.1918564811	 2.3116555589	-0.188536637	 0.120199
H	 0.8591693349	 2.1441850982	 1.2228237627	 0.117697
H	-1.4937073509	 1.3811559213	 1.7515039144	 0.108789
H	-1.4168174822	 0.2207558718	 0.432917923	 0.107438
H	 0.4397090981	 0.2817016043	 2.8640109971	 0.082055
H	-0.1686165582	-2.8775380458	 3.536025199	 0.102483
H	 0.148211392	-3.5518541167	 1.0596686116	 0.098453
H	-2.2711547782	-1.6954640697	 0.7081626082	 0.107461
H	-1.3689595722	-2.3601527751	-0.668003547	 0.108357
H	-2.688684234	-3.8894735402	 1.2864777617	 0.283303
H	 1.6052594879	-1.6074330254	 1.5668586554	 0.098809
