18
gdb 45375	2.98448	1.62193	1.42841	5.2926	70.62	-0.2494	0.0569	0.3063	967.8156	0.151786	-439.153463	-439.146471	-439.145527	-439.184939	28.183	
O	 0.0337557428	-0.089402517	 0.054749466	-0.391736
C	-0.010941908	 1.1146703281	 0.0418527	 0.453965
N	-1.1774962533	 1.8386937993	 0.0827874757	-0.353865
C	-1.2444950899	 3.2930654616	-0.0375672752	 0.00663
C	-0.9455743664	 3.7556404721	-1.4827812807	-0.212104
C	 0.6089722819	 3.6510279974	-1.5803429	-0.227903
C	 1.0672360817	 3.2809903611	-0.1522826776	 0.121903
C	-0.0412735824	 3.839474452	 0.7402854627	-0.239598
O	 1.1402679612	 1.8468497209	 0.0118476113	-0.262847
H	-2.0082645433	 1.2820729868	-0.0346811892	 0.256278
H	-2.2141052855	 3.628163025	 0.3359763758	 0.080491
H	-1.4621620571	 3.1343125145	-2.2176280125	 0.108271
H	-1.2817954955	 4.7877089007	-1.6265292547	 0.103045
H	 0.9455461151	 2.8928488312	-2.2903125664	 0.127264
H	 1.0533872052	 4.603188805	-1.8835616776	 0.108058
H	 2.0716969269	 3.6314972499	 0.0861391195	 0.091928
H	-0.0303397534	 4.9332756614	 0.7301297221	 0.109068
H	 0.0132931799	 3.4836841597	 1.7708273007	 0.121154
