16
gdb 20151	4.11444	2.36758	2.03564	1.7019	65.22	-0.2205	0.0813	0.3018	708.0179	0.132648	-346.552295	-346.546502	-346.545558	-346.581797	24.516	
O	 0.0334067219	 1.4193650651	 0.0263553855	-0.437664
C	 0.0382014556	 0.0031659541	-0.0232734136	 0.14043
C	 0.6097998807	-0.6653508127	 1.2159583737	-0.116823
C	-0.4900312502	-0.8843287297	 2.2457095393	-0.096103
C	 0.0170139719	-2.0399404602	 1.4103769432	-0.087895
C	-1.30015233	-2.0153185631	 0.5805215568	-0.087896
C	-1.8038176402	-0.8597839277	 1.4180017687	-0.096105
C	-1.3437663509	-0.6288323596	-0.0148262817	-0.116837
H	-0.4600426776	 1.6685745167	 0.8166445804	 0.278719
H	 0.602007047	-0.2547932653	-0.925825749	 0.089719
H	 1.6204196012	-0.4572553229	 1.5455676208	 0.089458
H	-0.3838118373	-0.7016294327	 3.3058697616	 0.087313
H	 0.5772136621	-2.9147026055	 1.7099310288	 0.088456
H	-1.8353345761	-2.8696011913	 0.1899496321	 0.088456
H	-2.8007877079	-0.6564812683	 1.7831322353	 0.087314
H	-2.0713757702	-0.3882454569	-0.780333512	 0.089458
