23
gdb 76561	2.67173	1.18538	1.14307	0.2904	93.04	-0.2112	0.0329	0.244	1269.9786	0.205955	-351.164339	-351.154855	-351.153911	-351.198762	36.085	
C	-0.221026074	 1.083745345	-1.6901586084	-0.413329
C	-0.0283978234	-0.1690273405	-0.8629435598	-0.074536
C	 1.3273692958	-0.6576614186	-0.405781201	-0.069888
C	 2.622055699	 0.0491456215	-0.7430848552	-0.412894
C	 0.3342865271	-0.1068572425	 0.6134758467	 0.323696
C	 0.5382231162	 1.2181676966	 1.3728726824	-0.309463
C	 0.1927650801	 0.9051921802	 2.8592820822	-0.263777
C	-0.397230123	-0.483781002	 2.810377838	-0.089326
C	-0.3069170323	-1.0209924156	 1.5945633856	-0.122329
H	 0.4753006606	 1.8799415703	-1.4148533178	 0.118072
H	-0.0788268224	 0.8762115245	-2.756796955	 0.114753
H	-1.2346421911	 1.4811379147	-1.564310954	 0.117093
H	-0.7324663352	-0.9584341539	-1.1198464739	 0.075271
H	 1.4326684502	-1.7406652225	-0.3812948381	 0.075888
H	 2.5122941794	 1.1358194319	-0.7801647533	 0.117626
H	 3.3956993152	-0.1761476698	-0.0001600778	 0.116747
H	 2.9993343884	-0.2740707541	-1.7200386491	 0.115082
H	 1.553664725	 1.6093812509	 1.2713816334	 0.099529
H	-0.1357165353	 1.9884560667	 0.9843658024	 0.103395
H	 1.0844264769	 0.9308463154	 3.5004073897	 0.10362
H	-0.50241579	 1.6400569201	 3.2827429395	 0.1014
H	-0.8155296085	-0.9731723165	 3.6827549974	 0.087456
H	-0.6407112687	-2.0156722917	 1.316474066	 0.085912
