18
gdb 14776	2.95857	1.16328	0.88386	4.5218	66.48	-0.2694	0.0155	0.2849	1305.0383	0.151419	-422.092162	-422.082772	-422.081828	-422.127683	31.537	
C	-0.5841118931	 1.4254266103	-0.3194443902	-0.387774
C	-0.3213671203	-0.0694330252	-0.2731511197	-0.032994
O	-1.5443401863	-0.7335421478	-0.0033048761	-0.245751
C	-1.4345198886	-2.1354404242	 0.0368924987	-0.054196
C	-2.8360541882	-2.7097956578	 0.137973165	-0.10293
O	-3.5678014865	-2.4903906522	-1.0697505295	-0.180405
C	-4.2484064804	-1.3287193609	-1.1788750207	 0.179602
O	-4.8017025136	-1.0067236128	-2.1866645778	-0.280675
H	 0.3430848419	 1.9668735441	-0.5284857689	 0.119435
H	-1.3094016586	 1.6625874299	-1.1026617138	 0.136343
H	-0.9825634287	 1.7761294791	 0.6367659295	 0.127337
H	 0.0925146641	-0.4225248252	-1.2314973679	 0.0964
H	 0.4174371655	-0.3117176598	 0.5086743745	 0.089479
H	-0.9456069185	-2.5202762042	-0.8722631977	 0.106872
H	-0.8397089956	-2.4664909647	 0.9054874077	 0.09283
H	-2.7960961945	-3.7923621083	 0.2795405692	 0.127078
H	-3.3610506991	-2.2625447323	 0.991090518	 0.121811
H	-4.2464327594	-0.7400801279	-0.2445246103	 0.087538
