17
gdb 105281	2.40334	1.12416	0.91047	2.5606	75.6	-0.2693	-0.0557	0.2136	1312.6151	0.134101	-418.004833	-417.995397	-417.994452	-418.039707	33.244	
C	 0.0503428873	 1.5488018665	-0.0722631078	-0.39536
C	 0.0006375878	 0.0510319384	 0.2463447539	-0.247801
C	-1.3885026279	-0.5385941362	 0.042047333	 0.157586
N	-1.772448238	-0.8874791143	-1.3288607588	-0.348441
C	-1.64230051	-1.9812506491	-0.3579020765	-0.165476
C	-0.5145180554	-2.939724306	-0.5835549777	 0.167692
O	-0.4779501775	-4.0335833082	-0.083335521	-0.241275
C	-2.4196445689	 0.027980904	 0.8909520291	 0.260516
N	-3.2392537057	 0.4990100046	 1.557689489	-0.333175
H	 1.0627593504	 1.9351842586	 0.0715643327	 0.126598
H	-0.2400802601	 1.732494964	-1.1109640702	 0.134769
H	-0.6224030623	 2.1174644234	 0.576896698	 0.143628
H	 0.6971247966	-0.4880742785	-0.4002745582	 0.118684
H	 0.3097603347	-0.1326047356	 1.281331268	 0.126681
H	-2.7507872135	-0.6805552844	-1.5128352888	 0.263067
H	-2.5348359676	-2.4414854194	 0.0577149452	 0.132799
H	 0.2797799502	-2.5703142876	-1.26524698	 0.099508
