14
gdb 49875	3.62788	1.24664	0.93327	2.5097	66.92	-0.2594	-0.0252	0.2342	1146.8952	0.101975	-470.07599	-470.068165	-470.067221	-470.108957	28.151	
N	 0.0005576496	 1.365634369	 0.010376145	-0.519515
C	 0.0395822101	 0.1038284364	 0.0035039654	 0.474276
N	 1.1508636453	-0.7581366762	-0.0074950966	-0.395825
C	 0.8426085643	-2.1002974783	-0.0132520157	 0.427708
O	 1.6132676781	-3.0244548885	-0.0227607835	-0.345407
C	-0.6833522611	-2.1576690387	-0.0048794211	-0.318379
N	-1.0804149837	-0.7520506246	 0.0054821292	-0.134661
C	-2.4182370188	-0.3786184374	 0.0180266644	 0.166461
O	-2.8545134795	 0.738359581	 0.0283008158	-0.261923
H	 0.9368463941	 1.7662145526	 0.0072511731	 0.223704
H	 2.1008658966	-0.4206780329	-0.0113340538	 0.273777
H	-1.0381239548	-2.6890844891	-0.894177391	 0.162688
H	-1.028214021	-2.6993804582	 0.8820773043	 0.162698
H	-3.0582822991	-1.2849614452	 0.0172748845	 0.084398
