18
gdb 53114	2.26792	1.16181	0.84743	2.8648	82.65	-0.2257	-0.026	0.1997	1401.1935	0.144526	-401.91092	-401.900915	-401.89997	-401.947873	34.382	
C	-0.0727612211	 1.521989125	-0.2061476979	-0.498617
C	-0.010437067	 0.0704206592	-0.1234816872	 0.028282
C	 0.0427848419	-1.132805179	-0.0729240608	 0.12734
C	 0.0878466051	-2.5839700248	 0.0109866057	-0.289804
N	 0.2505797015	-3.1990538267	 1.3663519077	-0.077041
C	 0.8627988285	-2.4393042734	 2.4364575257	-0.321566
C	-1.1771414818	-3.5554248736	 1.4859720716	-0.285159
C	-1.329765909	-3.2412326486	-0.0038981257	 0.404282
O	-2.1588495199	-3.4224385811	-0.8376308228	-0.278472
H	 0.9257637093	 1.9690046097	-0.1492404032	 0.151533
H	-0.5259766215	 1.839870414	-1.1514566271	 0.157077
H	-0.6740504606	 1.9419894721	 0.6074005981	 0.151482
H	 0.7889818257	-2.9960766667	-0.7257065901	 0.122247
H	 0.3422525898	-1.4924090765	 2.6590708859	 0.105463
H	 0.8736228423	-3.0504908738	 3.3445095837	 0.12346
H	 1.8992959877	-2.2039585412	 2.1774601574	 0.128119
H	-1.3836092951	-4.5812794758	 1.809692111	 0.131405
H	-1.7784589358	-2.8601473189	 2.097584008	 0.119969
