17
gdb 51492	4.02952	1.09216	0.97129	3.8959	75.5	-0.2366	-0.0031	0.2335	1209.8293	0.138167	-418.008992	-418.0013	-418.000356	-418.042127	29.078	
O	-0.1741439455	 0.0537790503	 0.4752106337	-0.330952
C	-0.044669196	 1.2120027797	 0.1338812949	 0.152914
N	 1.1205781048	 1.7954720213	-0.2435082751	-0.272268
C	 2.4038372931	 1.1107731883	-0.2347528478	-0.003674
C	 3.0059695135	 0.9699303968	-1.6285168185	-0.094704
C	 4.2005492908	 1.5530039668	-1.7279811948	-0.058324
C	 4.5787425959	 2.1964553639	-0.4318996056	-0.078974
N	 3.6262383137	 3.2821752888	-0.0417775755	-0.34732
C	 3.4725352174	 1.9168714631	 0.5116261594	-0.069744
H	-0.8909588549	 1.9264106746	 0.0921249238	 0.073546
H	 1.1447570243	 2.7784388003	-0.4724059947	 0.257595
H	 2.2220431658	 0.1379840742	 0.2313467116	 0.124982
H	 2.4584884714	 0.4865914517	-2.4290883207	 0.111495
H	 4.8143521642	 1.6022541284	-2.6191238541	 0.106327
H	 5.6125471165	 2.2770645041	-0.1157202072	 0.097301
H	 4.0673821247	 3.8663851984	 0.6668719484	 0.233202
H	 3.6256833002	 1.7567913593	 1.5724552224	 0.0986
