16
gdb 89214	2.49017	1.60503	1.26041	5.3808	65.17	-0.2396	0.0205	0.2601	1013.2438	0.123608	-475.01338	-475.005111	-475.004167	-475.046102	31.361	
O	-0.1091600997	 1.4504505657	-0.0168491837	-0.43292
C	-0.0298542386	 0.0460254611	 0.0102068751	 0.131541
C	 0.2622011272	-0.65311084	 1.3784295249	-0.360483
C	-1.1253856634	-1.3637468991	 1.3197806031	 0.273476
O	-1.2345715879	-2.7110027688	 1.5918741999	-0.46411
C	-1.4314165608	-0.611887369	-0.0471469918	-0.093158
N	-2.4604403461	 0.128675752	 0.6758114142	-0.304662
C	-2.2226089848	-0.4454823148	 1.9156979899	 0.378065
O	-2.6672573029	-0.234069171	 3.0086984467	-0.349119
H	 0.7684032302	 1.8125438899	 0.140882754	 0.291151
H	 0.6268699274	-0.3362060447	-0.7834899483	 0.073904
H	 1.0940832713	-1.363403178	 1.3213747699	 0.099235
H	 0.4180809585	 0.0026843809	 2.2380602382	 0.126749
H	-0.4140129379	-3.1518641823	 1.3478347668	 0.286268
H	-1.7598923362	-1.0902755372	-0.9694782791	 0.088137
H	-2.7434479065	 1.0850100453	 0.5078747701	 0.255928
