12
gdb 1391	4.85645	1.42722	1.15584	4.1824	59.11	-0.2796	-0.0099	0.2697	979.765	0.088005	-323.351196	-323.343089	-323.342145	-323.384893	26.523	
C	-0.0212015614	 1.4823552945	 0.0124600622	-0.499927
C	 0.0174934775	 0.0288309301	-0.0108971701	 0.070034
C	 0.0569617689	-1.1736886334	-0.0281832549	 0.083615
C	 0.0640231412	-2.6375421139	-0.0507008359	-0.17803
O	-1.1987644484	-3.2157630482	 0.2283047708	-0.384562
C	 0.5992951659	-3.1284555188	-1.3468585783	 0.279091
N	 0.9963737462	-3.5235282378	-2.3569715861	-0.319115
H	 0.7487069155	 1.8850240297	 0.6788138374	 0.160814
H	 0.1463336603	 1.8972367245	-0.9868437774	 0.162186
H	-0.9925365681	 1.8421220909	 0.3679308073	 0.159831
H	 0.7281909287	-3.0165892426	 0.73594314	 0.167224
H	-1.8410235364	-2.8232453851	-0.3751344751	 0.298838
