14
gdb 48766	4.11716	1.2387	1.07933	3.0602	62.84	-0.2656	-0.0487	0.2169	1063.5672	0.100555	-473.861294	-473.853791	-473.852847	-473.893492	27.843	
O	-0.9020425072	 1.2169581497	-0.099548772	-0.262833
C	 0.2378515181	 0.9155124682	 0.1549811593	 0.088811
C	 1.3788824937	 1.8485369753	-0.0116029642	 0.304183
C	 1.1767358462	 3.3499931227	-0.0423292317	-0.348719
C	 1.6101555498	 2.6395739678	-1.2943746988	-0.046997
N	 3.0075240292	 2.4489757558	-1.4992975905	-0.364826
C	 3.6175165577	 1.7680351536	-0.4668875301	 0.459264
O	 4.7799717785	 1.5497196897	-0.2975128464	-0.370501
O	 2.6269618467	 1.3525889489	 0.4075218075	-0.279839
H	 0.5272036123	-0.0889399203	 0.5266743087	 0.107698
H	 0.1369980997	 3.6538804056	 0.006305087	 0.157542
H	 1.89639149	 3.961980615	 0.489612273	 0.141082
H	 0.9485874574	 2.5402381384	-2.1469361909	 0.140176
H	 3.5708740881	 2.9972929198	-2.126912491	 0.274958
