17
gdb 49339	2.34888	1.76117	1.02615	1.9968	78.38	-0.2514	-0.031	0.2204	1120.4173	0.138513	-414.224739	-414.216667	-414.215723	-414.257792	30.129	
N	 0.0624598205	 1.3172916925	-0.0432448029	-0.460909
C	 0.0042122194	 0.0461151198	-0.0429098209	 0.100064
N	-1.1844029282	-0.6576439853	 0.0377552079	-0.148479
C	-2.4951821014	-0.0748102329	 0.0100481789	 0.378168
N	-2.8107914066	 1.1414691551	-0.0891089018	-0.524943
C	-3.4818543032	-1.2182173121	 0.1469391267	-0.292949
C	-2.668654564	-2.482433481	-0.1552510766	-0.290944
C	-1.2295160008	-2.0779900572	 0.0849538049	 0.383995
N	-0.2949012594	-2.9085974602	 0.2840402016	-0.527658
H	 1.0267169789	 1.6291225212	-0.1353231762	 0.239158
H	 0.8724597223	-0.6142806672	-0.1257878054	 0.107295
H	-1.9800601778	 1.7336325644	-0.1340732539	 0.256668
H	-3.8623249568	-1.2269542019	 1.1740279954	 0.139837
H	-4.3337777632	-1.0601413601	-0.5144885807	 0.141091
H	-2.9248733021	-3.3489680026	 0.4539421172	 0.140741
H	-2.7698649574	-2.7772909414	-1.2058015822	 0.140442
H	 0.6139751397	-2.4767745012	 0.4465609881	 0.218423
