15
gdb 45981	3.42147	1.35314	1.00962	2.545	74.36	-0.2365	-0.0478	0.1887	1106.188	0.115065	-453.988564	-453.981105	-453.980161	-454.020835	28.165	
N	 0.0178626556	 1.2046990672	 0.6648635374	-0.507606
C	 0.0283130373	 0.1097020994	 0.018828397	 0.348922
O	 1.2116294781	-0.530255893	-0.2619973767	-0.253561
C	 1.3294340217	-1.2292404187	-1.4967419781	-0.217375
C	 0.7995984845	-2.6560373819	-1.4498504228	 0.399321
O	 1.4601474036	-3.619967209	-1.7676011825	-0.337559
N	-0.5247602391	-2.7869461651	-1.0728969993	-0.334889
C	-1.4432406057	-1.7982149038	-0.7560865769	 0.005112
C	-1.2286665766	-0.5354509481	-0.3505718926	-0.142356
H	 0.9764607895	 1.5040855026	 0.8526603948	 0.2251
H	 0.8249679354	-0.6808634353	-2.3038613203	 0.134793
H	 2.3941952123	-1.2927356855	-1.7199088352	 0.15396
H	-0.8664186157	-3.7349253431	-1.1507897214	 0.26473
H	-2.4685802624	-2.1371791268	-0.8632464089	 0.132859
H	-2.0996669784	 0.078893071	-0.1632156645	 0.128549
