14
gdb 4942	6.67377	1.25086	1.06037	0.5994	59.41	-0.1973	0.0575	0.2548	1035.5434	0.108088	-415.89285	-415.885154	-415.88421	-415.925383	27.738	
O	 0.0006724371	 1.390945901	 0.0539016665	-0.419914
C	-0.0193316079	-0.02607515	-0.0237603825	-0.181971
C	-1.441826361	-0.4772659442	-0.0096385776	 0.27832
C	-2.5682956931	 0.2857838472	 0.0635397184	-0.177621
N	-3.625359085	-0.6240899602	 0.0425555923	-0.303691
C	-3.0675590698	-1.8550780442	-0.0407028742	 0.439907
O	-3.8534796126	-2.9457725379	-0.0791704449	-0.426464
N	-1.7628361157	-1.827501549	-0.0752529233	-0.422515
H	 0.9180436246	 1.6760687992	 0.0390015431	 0.289722
H	 0.471280895	-0.3879782211	-0.9423976148	 0.100851
H	 0.5196230786	-0.4851377662	 0.8214882768	 0.100852
H	-2.7213381631	 1.3478720021	 0.1262544263	 0.139091
H	-4.6091131781	-0.421852817	 0.0807830533	 0.270209
H	-3.256800269	-3.7023212697	-0.1373488193	 0.313223
