21
gdb 63159	3.04313	1.34413	1.24389	1.1054	84.9	-0.2268	0.0138	0.2406	1137.114	0.182395	-387.084449	-387.075672	-387.074727	-387.117308	34.176	
C	-0.0482478949	 1.5568613722	-0.0571347035	-0.44655
C	-0.0032804012	 0.045542588	 0.0109328356	 0.285631
C	-1.223787827	-0.6500687233	-0.560741073	-0.453672
C	 1.3233686527	-0.6619662216	-0.1636141824	 0.04862
O	 2.4661427358	 0.1259429598	-0.3426362073	-0.26055
C	 3.3713429414	 0.1440635992	 0.7555570111	-0.119548
C	 2.6925282544	 0.4038653368	 2.0767694786	-0.077387
C	 1.4196678333	 0.0574442684	 2.2639520345	-0.083345
C	 0.6746102718	-0.6549724155	 1.1977789571	-0.155011
H	 0.8487133496	 2.0087760811	 0.3664494011	 0.127842
H	-0.1325600802	 1.8893565066	-1.0980225053	 0.114252
H	-0.9188369624	 1.9417788383	 0.4864690146	 0.106909
H	-1.3837180048	-0.3613996021	-1.6062704775	 0.117543
H	-1.1204614695	-1.7396003428	-0.5278207542	 0.111133
H	-2.1280438939	-0.3850185378	-0.0002097123	 0.115549
H	 1.342347095	-1.5869972134	-0.7398972045	 0.079668
H	 3.9430868557	-0.7993485147	 0.8011557799	 0.102678
H	 4.0886420095	 0.9391413138	 0.5268534572	 0.114797
H	 3.2782656128	 0.8796892882	 2.857736767	 0.0934
H	 0.9142849809	 0.2574460216	 3.2050010333	 0.0908
H	 0.1924839711	-1.5757736228	 1.51879872	 0.08724
