14
gdb 31909	6.46786	0.93459	0.82084	0.8398	77.56	-0.2163	-0.0202	0.1961	1330.4193	0.100261	-436.681927	-436.673735	-436.67279	-436.714984	29.329	
C	-0.0482985482	 1.29995313	 0.0787664112	-0.24091
O	 0.04241422	-0.125965437	-0.0542103494	-0.250187
C	 0.6556420184	-0.5456012875	-1.1433782678	 0.498471
N	 1.1859636807	 0.1473600437	-2.1071248081	-0.373236
C	 1.6754122234	-0.8258698116	-2.9633300475	-0.205224
C	 1.4130953121	-2.0657942771	-2.4678659054	 0.178605
O	 0.7368757287	-1.8777697678	-1.261266815	-0.21637
C	 1.6704627998	-3.371473311	-2.9015327804	 0.245841
C	 1.8992174152	-4.489659241	-3.2878860888	-0.412319
H	 0.9499253083	 1.7440506954	 0.108389634	 0.14958
H	-0.6046496343	 1.7261287682	-0.7599225528	 0.14958
H	-0.5744202234	 1.4714341545	 1.0171620785	 0.143893
H	 2.1845536733	-0.5756312117	-3.8800734384	 0.135125
H	 2.100881696	-5.4748430272	-3.6285086401	 0.197151
