22
gdb 80404	2.75598	1.40194	1.2507	1.3259	81.03	-0.2131	0.0658	0.2789	1136.092	0.194219	-404.334211	-404.325186	-404.324242	-404.367348	35.86	
C	 0.138727006	 1.7617882838	-0.1166611286	-0.446644
C	 0.0093357514	 0.2570564926	-0.0602588143	 0.019677
C	 0.4618338816	-0.6762617817	-1.1280746527	-0.049567
C	 1.4061623779	-0.1916544685	-2.2169802651	-0.274398
C	 2.7394014165	 0.1881466478	-1.5158968261	 0.381264
C	 3.9314386216	-0.6040646596	-2.0610016253	-0.438154
O	 2.9548260042	 1.5858132262	-1.7602460052	-0.455987
C	 2.4846521609	-0.1177427663	-0.0014699054	-0.221782
N	 1.1353803013	-0.6693353862	 0.191850094	-0.119715
H	 0.9812206573	 2.1030865594	-0.7198670093	 0.155322
H	-0.7783349091	 2.1909663386	-0.5355996931	 0.116079
H	 0.2548031694	 2.1713338447	 0.894012656	 0.11592
H	-0.8720846774	-0.0651317013	 0.494158003	 0.084319
H	-0.1400457578	-1.5548191965	-1.3493338527	 0.081794
H	 1.5656202487	-0.9853879737	-2.9519992986	 0.101606
H	 1.0291267128	 0.6796623238	-2.7591906045	 0.12318
H	 4.077983775	-0.3885039171	-3.1233636255	 0.124436
H	 4.852972887	-0.3405099154	-1.5270158083	 0.105482
H	 3.776275033	-1.680790173	-1.938936327	 0.122907
H	 3.7746667592	 1.8393758176	-1.3227533727	 0.275495
H	 3.1970381061	-0.8665329255	 0.3618107613	 0.098803
H	 2.6311830845	 0.7894977003	 0.5950237601	 0.099963
