14
gdb 1846	6.10021	2.12547	1.6076	3.6461	60.	-0.2108	0.0052	0.216	747.8167	0.11381	-324.634527	-324.627867	-324.626923	-324.664897	24.669	
C	 0.0202732737	 1.5166490877	 0.0049062655	-0.499186
C	-0.0558634337	 0.0282364006	-0.0093377189	 0.370885
C	-1.1074275325	-0.7870777324	-0.164051732	-0.21761
C	-0.6400094991	-2.2164166145	-0.0990924055	-0.381168
C	 0.8777964693	-2.0902881749	 0.1219953818	 0.405273
O	 1.7037045019	-2.9649346405	 0.2402765065	-0.368942
N	 1.1214418948	-0.7283398363	 0.160348533	-0.363704
H	 0.6763934703	 1.8899109473	-0.7908788307	 0.136084
H	-0.9716025867	 1.9496116249	-0.1384852679	 0.141635
H	 0.4221696873	 1.8860584791	 0.9562672922	 0.136088
H	-2.128196777	-0.4682931659	-0.3118517261	 0.099815
H	-1.0790139789	-2.7936938329	 0.723316595	 0.142504
H	-0.8260918259	-2.7899654465	-1.0149236956	 0.142506
H	 2.0443867865	-0.3496228759	 0.295327313	 0.255819
