17
gdb 10095	2.76205	1.42591	1.03789	2.058	68.78	-0.2492	-0.0314	0.2178	1146.4458	0.138982	-401.006881	-400.997241	-400.996296	-401.044171	31.764	
C	 0.4402608786	 1.2296876044	 0.1744899633	-0.228156
O	 0.2627484947	-0.1862500718	 0.1161994611	-0.248004
C	-1.0163910404	-0.6329527395	 0.1164764499	 0.383756
C	-1.009716998	-2.1452968796	-0.0245526184	-0.36623
C	-0.8916910812	-2.5515948586	-1.4856780786	 0.16266
O	-1.6571846803	-3.2904924103	-2.0458374653	-0.231295
N	-1.9882711842	 0.1692575843	 0.1937193132	-0.291214
C	-3.3634402972	-0.2778479012	 0.1458850072	-0.334036
H	 1.5186146937	 1.391870119	 0.1462407461	 0.126285
H	-0.0455971729	 1.7187573063	-0.6744512112	 0.1344
H	 0.0142953095	 1.6370977927	 1.0953073389	 0.136189
H	-0.1207160671	-2.5168934769	 0.4975515999	 0.145446
H	-1.8989486429	-2.6075648482	 0.402507254	 0.136838
H	-0.0231307687	-2.1007379013	-2.0131805799	 0.094183
H	-3.5068216683	-1.3431529433	-0.077011489	 0.11755
H	-3.8531056155	-0.0556869532	 1.1016013255	 0.128594
H	-3.8962578596	 0.2961099173	-0.6203293167	 0.133034
