23
gdb 114950	3.98767	0.81444	0.75359	1.3974	88.38	-0.2234	0.035	0.2584	1614.7167	0.205796	-388.309209	-388.299239	-388.298295	-388.344646	36.851	
C	-0.3135603744	 1.2495592718	 0.1519930068	-0.372643
C	 0.0076336206	-0.2255169315	-0.1477427459	-0.290821
C	 0.8330878769	-0.422012143	-1.3855012357	 0.357128
C	 2.0592632319	-0.9442096228	-1.4610768956	-0.178536
C	 2.6073467889	-0.965650123	-2.8651059529	-0.2588
C	 1.369201373	-0.6234368754	-3.7412718893	 0.020889
C	 0.7901664139	-1.8769218444	-4.3941872861	-0.079355
O	 1.7615595429	-2.4133945421	-5.2813812862	-0.421783
C	 0.342645136	 0.0010797936	-2.7581027569	-0.333923
H	 0.6048725917	 1.8295752097	 0.288039417	 0.119316
H	-0.8812454886	 1.7098048603	-0.6628861052	 0.118846
H	-0.9105745778	 1.3398022111	 1.0647300209	 0.11164
H	 0.5287766258	-0.6667347261	 0.7093998072	 0.099269
H	-0.9402152526	-0.773806073	-0.251565037	 0.098145
H	 2.6263665364	-1.30060763	-0.6064197154	 0.077938
H	 3.4075277549	-0.2226201111	-2.9880709868	 0.098109
H	 3.0430696189	-1.9284943833	-3.152719246	 0.112246
H	 1.632215299	 0.0705430736	-4.5447016892	 0.074751
H	 0.5209865531	-2.6037345074	-3.6099350642	 0.086817
H	-0.13398618	-1.6146304196	-4.9341415183	 0.081986
H	 1.4323634687	-3.2517003397	-5.6174204999	 0.285202
H	-0.683296485	-0.3408066265	-2.956205616	 0.090163
H	 0.3139456555	 1.0953482788	-2.8460214253	 0.103417
