16
gdb 52363	5.82842	0.59727	0.55113	3.3071	75.79	-0.259	-0.0358	0.2232	1881.1088	0.12082	-437.857915	-437.848136	-437.847192	-437.894323	33.277	
N	 0.033092128	 1.3951879806	 0.0165403692	-0.536471
C	 0.0165068792	 0.1229071485	 0.0033049708	 0.256742
O	-1.1326398054	-0.5770637365	-0.0635390588	-0.232859
C	-2.33660999	 0.198265821	-0.1301277444	-0.067999
C	-3.4972638285	-0.7885810117	-0.1993375166	-0.288842
C	-4.8340100591	-0.0966787708	-0.0360565778	 0.154833
O	-5.7669756356	-0.221768901	-0.7846801167	-0.229348
C	 1.1629289202	-0.7421009553	 0.0561413786	 0.277629
C	 2.1527286762	-1.4224973552	 0.102540145	-0.403032
H	 0.9883732536	 1.7406056685	 0.0700620582	 0.239191
H	-2.4015151162	 0.8438208775	 0.7533324635	 0.128416
H	-2.3006945675	 0.85220141	-1.0072387132	 0.138436
H	-3.4945849541	-1.351891073	-1.1351694729	 0.135401
H	-3.3913457967	-1.4993086047	 0.6324927532	 0.136516
H	-4.9074591009	 0.5534817442	 0.8673428264	 0.078169
H	 3.0258862166	-2.0268975122	 0.1427093352	 0.213219
