23
gdb 122206	2.31133	1.09124	0.86809	2.0382	82.52	-0.2534	0.0771	0.3305	1451.2836	0.203967	-425.405123	-425.39473	-425.393786	-425.441103	38.49	
C	 0.2912170903	 0.1132259224	 1.5340674155	-0.384175
C	-0.0242521742	-0.1325614967	 0.0544301049	-0.250867
C	-1.4201165178	-0.6886878051	-0.1706042672	 0.46059
C	-1.7576605521	-1.4010461327	-1.4564333372	-0.331495
C	-1.6460412865	-2.1704580078	-0.1530956305	-0.31153
O	-2.4620801421	 0.0336707953	 0.4388800205	-0.3121
C	-2.7323245708	 1.3167204171	-0.1119618545	-0.086275
C	-3.6974864828	 1.9895553617	 0.8526228204	-0.064266
O	-3.142151231	 2.0743451238	 2.1514733309	-0.421084
H	 1.3154229462	 0.4766090849	 1.6600357264	 0.110801
H	-0.3855624702	 0.8602429959	 1.9584591589	 0.129891
H	 0.1839437009	-0.8069539477	 2.1179045644	 0.116828
H	 0.1046367107	 0.7996755806	-0.5100090219	 0.100477
H	 0.6941413277	-0.8405666607	-0.3741925015	 0.098177
H	-2.7542474878	-1.2548661736	-1.8575917941	 0.116749
H	-0.9811709722	-1.5248744435	-2.2039975612	 0.11209
H	-0.790220327	-2.8198446801	-0.0043694	 0.111701
H	-2.5683596678	-2.5178055324	 0.2975129654	 0.121197
H	-1.8138663809	 1.9140285016	-0.1847020568	 0.101518
H	-3.1700077735	 1.2287843236	-1.1178480854	 0.088607
H	-3.9046179104	 3.0116851669	 0.5195952538	 0.107677
H	-4.6494268188	 1.4353759074	 0.8591665573	 0.092393
H	-2.863659	 1.176533249	 2.3685332719	 0.293095
