19
gdb 19293	3.30451	1.81676	1.43277	1.747	71.16	-0.2292	0.0753	0.3045	944.96	0.165118	-365.004313	-364.996108	-364.995164	-365.03679	30.436	
C	-0.109557569	 1.3187109168	 0.0506870434	-0.242233
O	 0.2586234573	-0.0412616896	 0.146181194	-0.242891
C	 0.7005510501	-0.595742912	-1.0675689417	 0.106873
C	 1.3189399598	-1.9730232074	-0.9239351107	-0.062674
C	 0.3154771986	-2.9567682225	-0.4770330992	-0.240143
N	 0.3410848394	-2.6040675251	-1.9074589057	-0.141825
C	-0.3368612663	-1.2579440153	-2.0433544864	 0.023992
C	-1.824003434	-1.2037823034	-1.7410723866	-0.408185
H	 0.7296993075	 1.9393037566	-0.2998044088	 0.10733
H	-0.9599633395	 1.4744985234	-0.6285220659	 0.109093
H	-0.3968147608	 1.647129359	 1.0523477359	 0.129134
H	 1.3551454549	 0.1134471451	-1.5922656717	 0.069259
H	 2.381396061	-2.1889223879	-0.9557659031	 0.093212
H	 0.6660617911	-3.9681242066	-0.2962369694	 0.120054
H	-0.5078770986	-2.6428107193	 0.15580868	 0.125129
H	-0.1566896717	-0.9248685724	-3.0695296761	 0.081034
H	-2.0393668677	-1.3270360506	-0.6771716441	 0.128585
H	-2.2443500405	-0.2421092419	-2.0534056302	 0.116479
H	-2.3438019616	-1.9924553569	-2.2952175237	 0.127776
