18
gdb 131810	5.63044	0.67019	0.63963	1.9286	73.93	-0.2565	0.0121	0.2686	1720.022	0.149316	-435.289601	-435.280656	-435.279711	-435.324891	31.394	
O	-0.055868219	 1.4264019839	-0.1549194973	-0.421814
C	 0.0103435309	 0.0148780984	-0.0199090391	-0.074129
C	-1.4137478118	-0.5233979468	-0.0231082719	-0.163251
C	-1.4616089549	-2.0525287129	 0.1298855012	-0.306544
C	-2.8541719583	-2.5908706054	 0.0623731354	 0.349383
N	-3.4503925442	-3.1691795467	 1.0959204676	-0.268187
N	-4.6700996651	-3.4783883664	 0.5899552068	-0.178799
C	-4.7555465587	-3.0831901816	-0.6946722559	 0.015533
N	-3.6264427541	-2.5170015411	-1.0668215353	-0.298786
H	 0.8419004648	 1.7705413929	-0.1545576285	 0.284382
H	 0.5799603343	-0.4392548123	-0.8479393249	 0.083774
H	 0.5162951815	-0.2725305505	 0.9170678963	 0.0825
H	-1.972352443	-0.0491391766	 0.7916908336	 0.110201
H	-1.9038657449	-0.2324700907	-0.9577525554	 0.127452
H	-0.8679184478	-2.515380341	-0.6683367369	 0.115742
H	-1.0218737584	-2.3578444668	 1.0843539208	 0.117581
H	-5.3519551162	-3.9404449471	 1.1683094455	 0.280827
H	-5.6363936053	-3.2281092993	-1.3023371319	 0.144136
