25
gdb 61577	3.76946	0.77723	0.68456	0.0508	93.28	-0.2619	0.0938	0.3557	1742.7614	0.2285	-352.335083	-352.324972	-352.324028	-352.370665	38.347	
C	-0.0277149649	 1.404763057	 0.0277479433	-0.389859
C	 0.0728699124	-0.125027145	-0.0576732091	 0.013025
C	 0.7349149372	-0.6059845646	-1.3657543179	-0.200082
C	-0.0211257284	-0.2548389777	-2.6317838996	 0.027694
C	 0.2864771957	 0.9991749363	-3.4143058341	-0.249999
C	 0.659500449	-0.3510761337	-3.9741774773	-0.281948
C	 0.8100801084	-0.6851263181	 1.1468679337	 0.044594
C	 0.0979477893	-0.8956362641	 2.4580701843	-0.278874
C	 0.5402336986	-2.0844779999	 1.637754384	-0.275091
H	 0.9688368926	 1.862333368	 0.0012983471	 0.105678
H	-0.6043327587	 1.817250808	-0.804127097	 0.119109
H	-0.5073640503	 1.7109120882	 0.9627636755	 0.1106
H	-0.9490239705	-0.5340014016	-0.034775667	 0.061317
H	 1.7528688375	-0.1944446492	-1.4269301944	 0.084003
H	 0.8522879912	-1.6962527022	-1.3087741112	 0.09636
H	-1.0677088636	-0.5530455753	-2.6189734169	 0.076459
H	-0.5328655742	 1.5404619751	-3.8751105544	 0.107486
H	 1.0885768417	 1.6351147176	-3.0543109569	 0.109282
H	 1.7110138149	-0.6202036163	-3.9873592581	 0.10796
H	 0.0946890822	-0.7348338485	-4.816706413	 0.107456
H	 1.843729585	-0.3514220711	 1.2222789849	 0.074572
H	 0.6262478829	-0.6789247843	 3.3800993681	 0.107659
H	-0.9649726642	-0.6777811129	 2.4962789486	 0.107486
H	-0.2279835201	-2.6592592989	 1.1296903372	 0.107333
H	 1.3710257765	-2.6807662171	 1.9988960699	 0.107779
