16
gdb 14644	7.52851	0.66916	0.62169	1.2336	77.64	-0.2475	0.0183	0.2658	1749.9674	0.126233	-346.524375	-346.514528	-346.513584	-346.561082	32.489	
C	 0.0120619246	 1.4755481079	 0.010027512	-0.499077
C	-0.0128596792	 0.0206518006	 0.0024227792	 0.145104
C	-0.0400960315	-1.1820560118	-0.0037960408	 0.001396
C	-0.0443071771	-2.6364438576	-0.0116375461	-0.20221
O	-1.3792712837	-3.1192449917	-0.0014262256	-0.240427
C	-1.4191906751	-4.5336332578	-0.0086691506	-0.199029
C	-2.80149423	-4.9909190914	 0.0021192686	 0.285505
C	-3.9311223203	-5.3975522581	 0.0107731246	-0.411909
H	 1.0412988129	 1.850920135	 0.0039855795	 0.150241
H	-0.4961497122	 1.8869319962	-0.8687675517	 0.151904
H	-0.4822726161	 1.8774046516	 0.901061067	 0.151921
H	 0.4880571059	-3.0115933802	-0.903454489	 0.114557
H	 0.5050609891	-3.0211799095	 0.8656648837	 0.114555
H	-0.9036665721	-4.9312490401	-0.9005392977	 0.118355
H	-0.8867026633	-4.9407900667	 0.8688135679	 0.118357
H	-4.9334973522	-5.7481093566	 0.0185118991	 0.200758
