19
gdb 5824	2.71901	1.684	1.37604	3.2494	71.1	-0.2954	0.012	0.3074	996.4193	0.162638	-365.083557	-365.073895	-365.072951	-365.117109	35.599	
C	-0.017212346	 1.5434434493	 0.0092147038	-0.416153
C	-0.0018545501	 0.005626168	 0.0510976848	 0.236209
C	 0.7166472771	-0.4801887589	 1.3220642606	-0.436075
C	-1.4419346349	-0.5338868501	 0.0208189932	-0.423237
C	 0.7545103471	-0.4915246504	-1.2192830244	-0.006627
O	 2.0795619341	-0.0025650473	-1.3274743783	-0.420799
C	 0.7463749523	-1.9670429331	-1.3228622534	 0.261716
N	 0.771954335	-3.121280595	-1.3799492153	-0.33249
H	 0.9969539438	 1.9460418041	-0.0448698692	 0.1307
H	-0.572881096	 1.9099415665	-0.8610129578	 0.113034
H	-0.5014291658	 1.9416068226	 0.9061986844	 0.114744
H	 0.1773516221	-0.1423652562	 2.2120844724	 0.12474
H	 0.7731418665	-1.5729216923	 1.3608863706	 0.136749
H	 1.7329234338	-0.0767207639	 1.3918632817	 0.109922
H	-1.9633388508	-0.2247235807	-0.8920028204	 0.11626
H	-1.4678689246	-1.6262571817	 0.0727374664	 0.140106
H	-2.0069149034	-0.1434323048	 0.8729110042	 0.120071
H	 0.2327026604	-0.0987551518	-2.09973737	 0.133959
H	 2.6186277893	-0.4345432244	-0.6556900134	 0.297171
