18
gdb 63570	2.62366	1.49432	1.17459	2.6758	74.26	-0.2427	0.0155	0.2583	1093.6189	0.146523	-439.071077	-439.062469	-439.061525	-439.103996	33.023	
C	-0.1319846282	 1.515056455	-0.0834516527	-0.432371
C	 0.0335793692	 0.0178271033	-0.021970502	 0.38094
O	-1.1001745075	-0.6350621169	-0.4939134017	-0.472274
C	 1.3904080065	-0.5995852929	-0.2332778325	-0.408502
C	 0.7660697649	-0.6225401384	 1.1451324396	 0.08937
C	 1.2157725288	-0.1494890705	 2.5232091731	-0.165981
O	 0.6252389534	-1.371175301	 3.0987709102	-0.265405
C	 0.2239757989	-1.7997513156	 1.8531924818	 0.437562
N	-0.4418854923	-2.7994635375	 1.4746294253	-0.59304
H	 0.766145819	 2.0303148207	 0.2680189496	 0.112222
H	-0.3243191915	 1.8236520358	-1.1156990122	 0.137301
H	-0.9828632454	 1.8310011821	 0.5276179325	 0.129753
H	-1.1342446245	-1.5286552689	-0.1121906781	 0.305187
H	 1.4467987687	-1.5505186447	-0.7535395615	 0.13595
H	 2.2407238381	 0.0598551511	-0.3780506361	 0.11958
H	 2.2932021688	-0.1192533392	 2.7041361615	 0.126757
H	 0.7273450011	 0.7393827579	 2.9298050393	 0.128721
H	-0.7278860981	-3.4026736904	 2.2450440841	 0.23423
