20
gdb 114274	4.19119	1.08995	1.02894	1.5094	80.99	-0.2075	0.0514	0.2589	1219.4882	0.171372	-402.976463	-402.96841	-402.967466	-403.009045	31.837	
O	-0.1053045254	 1.5566834224	 0.0150449382	-0.423412
C	 0.0983323373	 0.1474174152	 0.0037004901	-0.109459
C	-1.2828279235	-0.4849023729	-0.0331315872	-0.006436
C	-2.0566497415	-0.5347153236	-1.434058726	-0.354218
C	-1.8663707127	-2.0724105394	-1.3568991106	 0.251009
C	-2.2772688907	-3.5676834008	-1.1360156102	-0.250843
N	-0.9637530849	-3.4402395702	-0.2910710191	-0.181262
C	-0.4441266014	-2.6681810259	-1.5037946305	-0.185418
C	-1.6007532865	-2.0418007398	 0.1164968856	-0.013072
H	 0.7544321988	 1.9845841908	-0.0394280128	 0.286925
H	 0.7060300692	-0.1412011269	-0.8642251249	 0.088388
H	 0.6283671109	-0.1891975191	 0.9089581968	 0.097714
H	-1.8645875817	 0.0433223303	 0.7276571498	 0.100948
H	-3.0900869963	-0.1948043075	-1.3331891771	 0.111196
H	-1.5896949777	-0.0152718867	-2.2755946256	 0.10754
H	-3.1700081718	-3.7593950276	-0.5357971375	 0.107144
H	-2.1709545379	-4.2915146327	-1.9502771523	 0.102768
H	-0.2515006469	-3.2991277962	-2.3770594422	 0.09329
H	 0.4273664794	-2.0537446424	-1.2807340025	 0.100942
H	-2.4186370469	-2.2018981371	 0.8228241681	 0.076257
