18
gdb 13414	5.26886	1.12512	1.03338	0.8372	64.61	-0.2567	0.0849	0.3416	1172.424	0.15379	-422.059112	-422.050794	-422.049849	-422.092818	28.804	
C	-0.0515573336	 1.3971979733	-0.6561865035	-0.225962
O	-0.1875303636	-0.0013592949	-0.7463891816	-0.238064
C	 0.9385410887	-0.6982247984	-0.2628456015	-0.072205
C	 0.6681427677	-2.1894461697	-0.4288492198	 0.088281
C	 0.677144941	-2.647773435	-1.8984715176	-0.123425
O	 2.019946938	-3.0786816315	-2.0881739972	-0.235313
C	 2.3606580304	-3.6784784952	-0.868425506	 0.024317
O	 1.7512993678	-2.9150589112	 0.1586967416	-0.273199
H	 0.0822595726	 1.7266816694	 0.3860536681	 0.107051
H	 0.8054000374	 1.7626181042	-1.24350997	 0.106953
H	-0.9675776167	 1.8419638251	-1.0524876272	 0.127767
H	 1.8480350387	-0.4276359478	-0.8246763321	 0.095975
H	 1.12257253	-0.4736470649	 0.7997543001	 0.096773
H	-0.2718397645	-2.4471709284	 0.0723756538	 0.090803
H	-0.0271432734	-3.4764609419	-2.0630370484	 0.097219
H	 0.4594641617	-1.8411231845	-2.5996816541	 0.131174
H	 1.9941973723	-4.7205360719	-0.824001339	 0.083947
H	 3.4483939854	-3.6566506267	-0.7505048756	 0.117907
