14
gdb 123330	4.3531	1.21755	1.03896	4.7997	74.39	-0.2588	0.001	0.2598	1098.9536	0.102036	-395.64829	-395.641115	-395.640171	-395.68031	26.719	
C	-0.1682933089	-1.2774023006	-0.1676257123	-0.444474
C	-0.0879434127	-0.0812211959	-0.09276819	 0.346722
C	 0.0007652272	 1.3620389257	 0.0011460769	-0.368506
C	-0.2740278452	 2.0002090128	 1.4361787354	-0.179775
N	 1.1027591031	 2.5236146969	 1.3337604377	 0.094284
N	 2.0961012448	 3.2532232509	 1.8605760211	-0.176426
N	 3.0586705058	 3.1756354045	 0.9670022352	-0.17763
C	 2.6836574601	 2.4162115021	-0.1115196335	-0.215803
C	 1.3976163158	 1.9952804776	 0.1394912583	 0.331255
H	-0.2332732974	-2.3355558652	-0.235543374	 0.211611
H	-0.6053347044	 1.8380746768	-0.775369802	 0.139
H	-1.0406027907	 2.7760949929	 1.4669089472	 0.150422
H	-0.4097569309	 1.2772412994	 2.2406778895	 0.158136
H	 3.3538436734	 2.2475039822	-0.9364770797	 0.131184
