21
gdb 88457	2.9816	1.1347	1.08387	3.2531	78.06	-0.2386	0.0669	0.3055	1231.252	0.181623	-424.1799	-424.170643	-424.169699	-424.214359	35.018	
C	 0.1284505766	 1.628904825	 0.1606346686	-0.479737
C	 0.0379691846	 0.1068676074	 0.0535776084	 0.316616
C	 1.0257484581	-0.4804715142	-0.9930711393	-0.101281
O	 1.9367925628	-0.9138998565	 0.037550232	-0.276106
C	 0.9829773748	-0.5988046268	 1.0680892834	-0.119479
C	-1.3680917587	-0.466621199	-0.0160928112	-0.108845
C	-2.6283914499	 0.3155958741	 0.3120562359	-0.351422
C	-2.3445148608	-0.1152498344	-1.1046096758	 0.099167
O	-1.9346684911	 0.8253652348	-2.0575397384	-0.414808
H	 1.1789033681	 1.9364380405	 0.1808675532	 0.119115
H	-0.3586547758	 2.1131326364	-0.6880384664	 0.133294
H	-0.3389131965	 1.987175065	 1.0843959102	 0.110814
H	 0.625647829	-1.3259688694	-1.5685401197	 0.091997
H	 1.4874260865	 0.2355384797	-1.6826115669	 0.101118
H	 1.414779576	 0.035930662	 1.8518264255	 0.095694
H	 0.5666110973	-1.5041133858	 1.5325821287	 0.087662
H	-1.3997647268	-1.5173848511	 0.2622518953	 0.089181
H	-3.4222206877	-0.1749103861	 0.8652595275	 0.111272
H	-2.5162177548	 1.3727175635	 0.524602272	 0.118174
H	-2.941343343	-0.9307611403	-1.5131626874	 0.087821
H	-2.6995704085	 1.3574204451	-2.3005655253	 0.289752
