18
gdb 83167	3.17842	1.38557	1.19994	4.3903	73.23	-0.2485	0.049	0.2975	1085.2899	0.149023	-439.083226	-439.075322	-439.074378	-439.115844	30.251	
C	-0.7614045405	 1.2269428655	 0.1032280333	-0.415737
C	-0.1125483933	-0.1355615875	 0.0062107004	-0.04767
C	 0.7489828262	-0.5822820778	-1.1687113527	-0.105118
C	 1.2583543011	 0.3999474761	-2.1962465361	-0.112798
O	 2.6619166939	 0.6734551778	-1.9880504104	-0.255483
C	 3.0460659804	 1.0561010587	-0.7456785584	 0.459952
N	 4.1442161782	 1.6158934634	-0.4817721103	-0.548924
O	 2.1549624121	 0.833574508	 0.2584024015	-0.232065
C	 1.3642016257	-0.3305039293	 0.1806908516	 0.077687
H	-0.061992711	 2.0307696815	-0.1340313434	 0.139229
H	-1.6232931399	 1.3045365017	-0.5676890114	 0.120677
H	-1.1152709474	 1.4004819165	 1.1242936361	 0.129981
H	-0.7075885495	-0.9425316874	 0.4254681502	 0.098052
H	 0.6553825636	-1.610979152	-1.4975841717	 0.10306
H	 1.2061298685	-0.0082619472	-3.2062264646	 0.127959
H	 0.70812861	 1.3462601075	-2.1833400954	 0.123512
H	 4.6463605885	 1.7996814899	-1.348753355	 0.225533
H	 1.7545156934	-1.1422587753	 0.7870219162	 0.112155
