19
gdb 63352	2.71682	1.41994	1.17652	1.3762	77.44	-0.2535	-0.0196	0.2339	1116.7583	0.159863	-419.271695	-419.263076	-419.262131	-419.304558	33.362	
C	 0.0210978666	 1.5380886549	 0.0105681552	-0.404672
C	-0.0186573783	 0.0048102568	 0.008078064	 0.24239
C	-1.4798027786	-0.48171374	 0.0778622521	-0.397829
C	 0.6725266427	-0.5320755579	-1.2670183826	-0.349611
C	 0.9897544394	-2.0134174106	-1.2019452606	 0.401972
O	 1.0246395888	-2.7689776107	-2.1460249607	-0.348877
N	 1.3152468517	-2.4278301679	 0.0812494156	-0.328133
C	 1.2247500439	-1.5931427089	 1.1948184549	 0.07716
N	 0.6586797758	-0.4601114255	 1.2342694224	-0.249468
H	 1.0548823936	 1.8964288393	 0.0158526435	 0.115031
H	-0.4823646414	 1.9442239186	-0.8728733727	 0.109312
H	-0.4734510006	 1.925357112	 0.90535555	 0.123869
H	-2.058042732	-0.0801657808	-0.7606445836	 0.116153
H	-1.5403531519	-1.5739908587	 0.0407401732	 0.120751
H	-1.9404565196	-0.1479956602	 1.0111684042	 0.1286
H	 0.0771597983	-0.3478065704	-2.1640102927	 0.130756
H	 1.6331976706	-0.0167707244	-1.4042490883	 0.129402
H	 1.6578640844	-3.3728186517	 0.1786157521	 0.258772
H	 1.6925935065	-2.0016853638	 2.0904478239	 0.124422
