13
gdb 710	7.69936	4.03933	3.91927	1.5349	52.	-0.2206	0.0711	0.2917	427.1373	0.109407	-249.257629	-249.253018	-249.252074	-249.285119	18.623	
C	-0.0227584991	 1.4938766167	-0.0747558053	-0.298946
C	 1.322695525	 0.8208788098	-0.0164369051	-0.068999
C	 0.058542928	-0.0025877079	 0.0385755833	 0.009836
N	 0.4267533059	-0.8019134555	-1.201995611	-0.143805
C	 0.615651831	 0.0976657587	-2.3592022883	-0.244942
C	 1.6579087293	 0.0571438583	-1.3129118886	-0.025144
H	-0.3104276639	 1.9653286143	 0.8605558246	 0.118101
H	-0.3863469914	 2.0244802082	-0.9473748533	 0.114959
H	 2.0516533783	 1.0190911507	 0.7574047859	 0.095263
H	-0.3932143408	-0.557630059	 0.8504605811	 0.103422
H	 0.8178501826	-0.4622744659	-3.2681977759	 0.122209
H	-0.0237353152	 0.9593539331	-2.5107679192	 0.119821
H	 2.62921484	-0.3988858716	-1.4770283782	 0.098226
