17
gdb 39326	2.91196	1.85187	1.37424	3.1207	67.11	-0.2505	0.0592	0.3097	938.4305	0.137556	-458.915617	-458.908667	-458.907723	-458.947487	26.853	
C	 0.1631958227	 1.5309163193	 0.2118746216	-0.08642
O	 1.4741413144	 1.4855800078	-0.3987013253	-0.29111
C	 1.3857554551	 0.0604255634	-0.597237491	 0.101516
C	 2.4513360535	-0.7521672527	 0.0912420737	 0.011307
O	 2.6056624355	-0.5706658662	 1.5010249458	-0.23426
C	 2.0030070306	-1.7764762378	 1.0486211821	 0.03607
C	 0.5185330269	-1.9030758153	 1.3435464582	-0.123996
O	-0.1351380608	-0.6535882586	 1.2849486443	-0.251768
C	-0.0211528484	 0.0137799699	 0.0493269363	 0.043045
H	 0.2036103649	 1.8497556957	 1.2581710614	 0.123872
H	-0.5293273026	 2.1656431018	-0.3523920971	 0.101777
H	 1.3922043813	-0.1909698501	-1.6675304472	 0.074107
H	 3.3892549077	-0.8863504518	-0.4465093037	 0.100543
H	 2.5931684799	-2.6836190026	 1.182482387	 0.096758
H	 0.0722818345	-2.6385566873	 0.6515222607	 0.094365
H	 0.3664569391	-2.2699929892	 2.3633958607	 0.125738
H	-0.8215680043	-0.3026938061	-0.6324679173	 0.078456
