21
gdb 103378	2.57221	1.65621	1.32772	1.7165	77.44	-0.2405	0.0812	0.3216	1063.5411	0.182553	-424.200635	-424.192052	-424.191108	-424.233524	33.493	
C	 0.0733668645	 1.3866790994	-0.0810400085	-0.255251
O	-0.0108715621	-0.0044997033	 0.1530260829	-0.29562
C	-1.299542411	-0.5630199519	 0.0665244922	 0.447334
C	-2.2713813697	 0.0001074177	 1.0962030199	-0.474139
C	-1.9181486203	-0.8060111997	-1.353351932	 0.010238
C	-0.7508222117	-1.3869380578	-2.1732119301	-0.222474
C	-0.2582562817	-2.4281178106	-1.1162509702	-0.216621
C	-1.2981294522	-2.1116897265	-0.0266843888	 0.013952
O	-2.5353084127	-2.008730933	-0.7991498264	-0.304218
H	 1.1362804548	 1.6345404398	-0.1329777	 0.129021
H	-0.4001992939	 1.6729110405	-1.0318005623	 0.108042
H	-0.3829071523	 1.9762722799	 0.7251585201	 0.114718
H	-2.4991945936	 1.0532586598	 0.9043556758	 0.113578
H	-3.2078062235	-0.5581031773	 1.0678504328	 0.144215
H	-1.8388576197	-0.0756725798	 2.0991103893	 0.119685
H	-2.6276197147	-0.1279330028	-1.8290717494	 0.071035
H	-1.1135248256	-1.8516372962	-3.0922356997	 0.10321
H	 0.006982078	-0.6424930683	-2.4255678756	 0.103851
H	-0.3561210015	-3.4599818053	-1.4591232853	 0.101535
H	 0.7652492744	-2.2497298186	-0.7839704059	 0.113027
H	-1.3729141355	-2.7545861059	 0.8508786911	 0.074883
