23
gdb 121129	3.64793	0.74798	0.70923	2.564	81.91	-0.2592	0.073	0.3322	1677.9223	0.206159	-425.434977	-425.425045	-425.424101	-425.4709	36.914	
O	-0.1477747801	 1.4864823791	 0.0117843212	-0.421238
C	-0.0062574955	 0.0758875855	 0.1060393921	-0.078078
C	-1.3968067043	-0.5403045108	 0.016342533	-0.192721
C	-1.3979681478	-2.0712825018	 0.0215465893	 0.042707
C	-0.8583578002	-2.7244912166	 1.314803791	-0.202173
C	-1.5030242563	-4.1169302762	 1.3055980985	-0.237458
C	-2.950175879	-3.8262678829	 0.8725986959	 0.129543
O	-3.7225431758	-3.3115386207	 1.9590354365	-0.440466
C	-2.8191190285	-2.6855704753	-0.1583666863	-0.232856
H	 0.7234822809	 1.8823930199	 0.1041778428	 0.283366
H	 0.6255554364	-0.3153959269	-0.7095654288	 0.079301
H	 0.4749589117	-0.2101688121	 1.0545761107	 0.085936
H	-2.0035565133	-0.1677527867	 0.8513619059	 0.108167
H	-1.8696153968	-0.1707381003	-0.9019708285	 0.101946
H	-0.7694931367	-2.4159214508	-0.8116667591	 0.062648
H	 0.2338585046	-2.7552914543	 1.3587661532	 0.088195
H	-1.2144649714	-2.1662518685	 2.1884688719	 0.106526
H	-1.0175974444	-4.7571801227	 0.5574636174	 0.092691
H	-1.4510014053	-4.6407581879	 2.2665522584	 0.081268
H	-3.443955535	-4.7122850879	 0.4492559822	 0.055063
H	-3.7494552174	-3.9857732278	 2.6457831394	 0.277344
H	-3.6058376936	-1.952049039	 0.0381460135	 0.11587
H	-2.9652752723	-3.0547990054	-1.1771547703	 0.094419
