14
gdb 129248	3.47988	1.61727	1.11188	4.4294	70.63	-0.243	-0.0066	0.2364	999.1845	0.105228	-432.891813	-432.885316	-432.884372	-432.922768	25.116	
N	 0.0076340281	 1.3282886452	 0.0113301151	-0.549853
C	-0.0455511551	 0.0672742457	 0.003876094	 0.328156
O	 1.0837057838	-0.7587623114	-0.0074323203	-0.272034
C	 0.7368382729	-2.1547881025	-0.0140767132	-0.193033
C	-0.755449873	-2.1127262481	-0.0056079879	 0.331434
C	-1.2016906586	-0.8169456401	 0.0048073467	 0.142332
C	-2.611193713	-0.914314357	 0.0120015096	-0.162777
N	-2.9927013816	-2.1877019605	 0.0063095917	-0.207974
N	-1.8357322979	-2.9113094779	-0.0045073051	-0.335991
H	 0.9770455378	 1.6483124523	 0.0079582792	 0.224838
H	 1.1630740049	-2.6253349567	-0.9087767046	 0.138302
H	 1.1728443803	-2.6362320061	 0.8700560984	 0.138302
H	-3.3543947783	-0.1322635866	 0.0209032825	 0.138146
H	-1.8966594803	-3.9152463262	-0.0103716362	 0.28015
