20
gdb 70753	2.5355	1.60195	1.20238	1.5264	74.07	-0.2442	0.075	0.3192	1089.383	0.172812	-440.254942	-440.246926	-440.245981	-440.287101	31.777	
C	 0.0495270216	 1.5055377769	-0.0074467288	-0.451741
C	-0.0212073903	-0.0054485027	 0.0216858314	 0.326129
C	-1.3304892038	-0.591540836	-0.4985679007	-0.165304
O	-2.341793434	-0.6130746458	 0.5005590294	-0.229429
C	-2.2973172337	-1.7340394198	 1.3441447144	 0.01678
O	-1.2357154092	-1.767877415	 2.2602566729	-0.227777
C	 0.0391183099	-2.0133499589	 1.678749367	-0.121125
C	 0.6649121663	-0.751145901	 1.1078145543	-0.046269
N	 1.2531678833	-0.7048176126	-0.2483262294	-0.384722
H	 0.9832986223	 1.8598881081	 0.435226437	 0.125445
H	 0.0002830592	 1.8782164088	-1.0369604266	 0.116674
H	-0.7903830884	 1.9322142965	 0.5506936266	 0.131675
H	-1.7201241181	 0.02577296	-1.3144951015	 0.111743
H	-1.17521497	-1.6061437674	-0.8980118547	 0.082927
H	-3.2101946732	-1.697298926	 1.9422640009	 0.119612
H	-2.2788528974	-2.6531767623	 0.7278053528	 0.075931
H	 0.6645045738	-2.4167978241	 2.4804634823	 0.116591
H	-0.0427139254	-2.7922292452	 0.9032234918	 0.084267
H	 1.2223508064	-0.1611229167	 1.832441486	 0.097579
H	 1.0756510807	-1.5866911668	-0.7276040249	 0.221014
