18
gdb 88935	3.33458	0.95629	0.89798	0.9906	74.84	-0.2217	-0.1002	0.1215	1354.4947	0.144318	-439.061663	-439.052083	-439.051139	-439.097123	33.782	
C	 0.999943085	 1.4048843357	 0.0301316545	-0.433026
C	 0.0841027835	 0.2078709322	 0.1580457903	 0.033628
C	 0.6239938335	-1.1800933076	 0.2913967984	-0.261937
N	-0.0881307882	-0.5442706206	 1.3973266747	-0.099353
C	 0.5034911397	-0.1815361023	 2.6673056801	-0.247799
C	 2.0013110044	-0.2035803376	 2.9132142867	 0.262293
O	 2.8886441823	-0.2879625419	 2.0936964879	-0.281591
C	 2.42952698	-0.1137743385	 4.3920251497	 0.104339
O	 1.663881187	-0.0631932898	 5.3172765579	-0.215681
H	 1.9841983271	 1.2137463271	 0.4606847912	 0.146106
H	 1.1344759008	 1.6543643137	-1.0278393432	 0.124515
H	 0.567022404	 2.2874460119	 0.5163549238	 0.115385
H	-0.859764806	 0.3251686747	-0.3750159699	 0.09024
H	 0.1046841092	-2.0217959019	-0.1617686255	 0.110058
H	 1.7019837581	-1.2803800205	 0.3514201961	 0.141204
H	 0.1598770207	 0.8240151312	 2.9524367256	 0.148714
H	 0.0769323192	-0.8305757413	 3.4455194857	 0.152157
H	 3.5348837898	-0.0922384944	 4.5047258162	 0.110748
