20
gdb 118451	2.20632	0.98539	0.7605	3.7191	72.8	-0.2386	0.0263	0.2649	1529.9306	0.168015	-477.43464	-477.423446	-477.422502	-477.471862	38.523	
C	-0.1821758023	 1.402444973	-0.153491936	-0.244532
O	 0.2187999099	 0.0607812901	 0.0476642723	-0.229466
C	 0.7092590373	-0.5832488468	-1.0972991145	 0.016813
C	 1.2764193521	-1.9366911657	-0.6556533751	-0.185052
C	 2.3991900917	-1.7986355925	 0.366073705	-0.079834
O	 2.9105562689	-3.1008472153	 0.6110640746	-0.422646
C	-0.3978860578	-0.7969506824	-2.1567064864	 0.364842
N	 0.0711173243	-1.0274845006	-3.4198245045	-0.51924
O	-1.5804156892	-0.7582174581	-1.8898063382	-0.351814
H	 0.6459360141	 2.0117430837	-0.5494535777	 0.096219
H	-1.0385871054	 1.4703213951	-0.8331564067	 0.136149
H	-0.4696753802	 1.7950511609	 0.8244560116	 0.12732
H	 1.5138680949	 0.0218321847	-1.5571468373	 0.062144
H	 0.4659695048	-2.5360664678	-0.2284499903	 0.13147
H	 1.6585503315	-2.4802900921	-1.526686484	 0.100041
H	 3.183364763	-1.13203359	-0.0325723571	 0.076025
H	 2.0068262585	-1.3352788919	 1.2797660742	 0.112561
H	 3.5153771342	-3.0497653832	 1.3565339476	 0.286536
H	 1.0496477075	-1.1572031772	-3.6103592709	 0.259672
H	-0.5919092376	-1.3013178137	-4.1269918264	 0.262791
