20
gdb 10696	2.77449	1.56179	1.42019	2.8065	75.25	-0.2459	-0.021	0.2249	1026.6079	0.175027	-349.013648	-349.004539	-349.003595	-349.047062	33.637	
C	 0.2552538074	 1.3961206083	-0.3313835697	-0.397358
C	 0.0369055692	-0.0603821753	 0.109919769	-0.065268
C	 0.5994790767	-0.3168904124	 1.5175873262	-0.397346
C	-1.4265626237	-0.481491662	-0.0078367251	 0.279267
C	-1.9530638693	-0.946329311	-1.3640012376	-0.29755
C	-1.7516938952	-1.9484917865	-0.2814515508	-0.297497
C	-2.4320197799	 0.2251517956	 0.833614157	 0.091674
O	-3.6181131404	-0.0145985416	 0.8311359349	-0.278509
H	 1.320143458	 1.6497332768	-0.3180498571	 0.115069
H	-0.1202626383	 1.5623590366	-1.3458684102	 0.118615
H	-0.2557777365	 2.1015861359	 0.3330969138	 0.118082
H	 0.596837986	-0.6993319599	-0.5862805789	 0.07425
H	 0.4676549804	-1.3628777806	 1.8114641691	 0.118605
H	 1.6689478004	-0.0860693539	 1.555633211	 0.115069
H	 0.1049650761	 0.3060236616	 2.27111207	 0.118084
H	-2.9714766131	-0.6631381195	-1.6034030505	 0.138314
H	-1.2504675713	-0.9203321372	-2.1900735084	 0.117153
H	-0.9075494	-2.6266272225	-0.3467703124	 0.11716
H	-2.6341802339	-2.3416616075	 0.2097771506	 0.138295
H	-2.0248427726	 1.0202625451	 1.4952977189	 0.073891
