21
gdb 114881	3.95615	1.06492	0.91159	1.1563	86.77	-0.2226	0.0203	0.2429	1348.7183	0.183238	-387.064397	-387.055857	-387.054913	-387.097812	32.575	
C	 0.1072024909	 1.2614353078	-0.1328198573	-0.237213
O	-0.0797164143	-0.0243261634	 0.416915551	-0.240556
C	-1.3513313004	-0.549073986	 0.177000656	 0.060785
C	-1.7016083628	-1.1873987182	-1.2321709328	-0.29097
C	-2.4232322914	-2.3509149237	-0.4649903114	-0.039093
C	-2.0941626557	-3.8540362665	-0.5894719625	-0.237082
C	-1.5914372566	-4.2439999406	 0.8415112874	-0.236794
C	-1.0681959929	-2.9237565254	 1.4035568928	-0.227648
C	-1.6176444765	-1.9183898844	 0.7333934318	 0.262129
H	 1.1105505543	 1.5909170212	 0.1467984187	 0.127862
H	 0.0294825316	 1.2557219778	-1.2303110738	 0.108939
H	-0.6270788399	 1.9820035249	 0.2607465922	 0.104716
H	-2.1309137649	 0.1818122819	 0.4529282424	 0.070475
H	-2.2951611025	-0.5847617718	-1.924194955	 0.094265
H	-0.784970966	-1.5322859425	-1.717989371	 0.110957
H	-3.4995511061	-2.1579123577	-0.3869249224	 0.071817
H	-2.9397661755	-4.4635245509	-0.9213472828	 0.092507
H	-1.2807320236	-4.0017332237	-1.3087887377	 0.101673
H	-2.4049280553	-4.6592852995	 1.453480584	 0.103726
H	-0.8109480065	-5.0120401978	 0.8088283289	 0.10131
H	-0.3003121857	-2.8613247918	 2.1648818115	 0.098195
