18
gdb 54001	3.6869	0.91111	0.77492	1.9602	79.32	-0.2224	-0.0218	0.2006	1464.6533	0.147756	-435.298977	-435.289578	-435.288633	-435.333855	34.918	
N	-0.1296642807	 1.2324763013	 0.0335013409	-0.527758
C	-0.0014034841	-0.1058751626	 0.1209076162	 0.390341
O	 1.0554783855	-0.7138379873	 0.1996215512	-0.385075
C	-1.3305658604	-0.8502614386	 0.1144812782	 0.269261
N	-1.162078682	-2.1906636594	 0.3354014837	-0.555587
N	-2.4076563019	-0.1798065784	-0.0572762921	-0.308639
C	-3.6671931725	-0.839175778	-0.0356723199	 0.052121
C	-4.8938622131	 0.0284965258	 0.1208048022	-0.272637
C	-4.6038283016	-0.6111929472	-1.2083043324	-0.271558
H	 0.6907242242	 1.8106351671	-0.0152069444	 0.263513
H	-1.0588329563	 1.6116671802	-0.0622647595	 0.272254
H	-0.1940731524	-2.4807459736	 0.2895230106	 0.272994
H	-1.8491573502	-2.8347150202	-0.0174380019	 0.258528
H	-3.7168278819	-1.8188900125	 0.4398931393	 0.077886
H	-5.7157871525	-0.3538446177	 0.7154400723	 0.11291
H	-4.7137037154	 1.0928557344	 0.2161336887	 0.1182
H	-4.230391786	 0.0235941363	-2.0029576916	 0.120625
H	-5.2196175887	-1.4412606696	-1.5366334615	 0.11262
