22
gdb 6736	5.82442	0.70219	0.65195	0.1392	88.43	-0.2392	0.0578	0.297	1822.6473	0.197989	-313.06328	-313.052726	-313.051782	-313.09998	37.129	
C	-0.2657557629	 1.570927004	 0.087462208	-0.362146
C	 0.2006374417	 0.1158448109	-0.1024175386	-0.313938
C	 0.8827755832	-0.4240557135	 1.0701713353	 0.118783
C	 1.4461366865	-0.8379632031	 2.0520756159	 0.012653
C	 2.1151473438	-1.3690329006	 3.2354140404	-0.345382
C	 2.0470905167	-2.911594889	 3.3605245354	 0.052727
C	 2.745075433	-3.601989567	 2.1838564834	-0.379021
C	 2.6395885903	-3.3576456749	 4.702190612	-0.389982
H	 0.5841762808	 2.2268735146	 0.2946267507	 0.126617
H	-0.7692151549	 1.932457857	-0.8143497187	 0.111618
H	-0.962733033	 1.6489633065	 0.9263890372	 0.126219
H	-0.6645459925	-0.5148294741	-0.3452086301	 0.124991
H	 0.8666505902	 0.0576119574	-0.973237045	 0.124905
H	 3.1708328672	-1.0611464704	 3.233549032	 0.118041
H	 1.6729134199	-0.9193623565	 4.1344589392	 0.11843
H	 0.9855571523	-3.1907578967	 3.3406715147	 0.081891
H	 2.6479786757	-4.690306811	 2.2538127462	 0.107709
H	 2.3190849315	-3.2806004151	 1.2294905575	 0.126153
H	 3.8159319355	-3.3640003756	 2.1716829846	 0.107744
H	 2.115732421	-2.8969969979	 5.5466499345	 0.109541
H	 2.5740812676	-4.4441011996	 4.8190067934	 0.11072
H	 3.6983967163	-3.0805602154	 4.7748611121	 0.111726
