18
gdb 98878	4.07772	1.0031	0.81737	1.3126	77.32	-0.2248	-0.0072	0.2176	1362.1136	0.148805	-435.26637	-435.257392	-435.256448	-435.300873	31.794	
O	 0.0163738544	 1.3928238398	 0.0096319253	-0.38975
C	-0.0374407908	-0.0083012389	 0.0033194556	-0.147309
C	-1.4888317361	-0.4669097777	 0.01193753	 0.372586
N	-2.4296452203	 0.389956025	 0.0243141112	-0.499191
N	-1.6559046292	-1.8482777749	 0.004811445	-0.121111
C	-2.9685121965	-2.5068077342	 0.0129938642	-0.209803
C	-2.566364835	-4.0100291205	 0.0025153901	-0.176708
N	-1.0928944287	-4.0564270341	-0.0077994338	-0.268775
C	-0.6897190998	-2.849024033	-0.0058978271	 0.081028
H	 0.9441121896	 1.6463931288	 0.0041865069	 0.290392
H	 0.4538923309	-0.4353935222	-0.8880620836	 0.106363
H	 0.4670267219	-0.4438597367	 0.883207506	 0.106373
H	-3.3477017158	-0.0536029742	 0.0287315834	 0.214044
H	-3.5354031729	-2.221625159	 0.9060228997	 0.127078
H	-3.5508359662	-2.2133501792	-0.8672808306	 0.127124
H	-2.9419057381	-4.5417340511	 0.8823546722	 0.124212
H	-2.9536639747	-4.5324469162	-0.8778214637	 0.12421
H	 0.3591110873	-2.5777076617	-0.0124381308	 0.139238
