21
gdb 76489	3.01003	1.08605	0.99136	1.3315	79.67	-0.2194	0.0635	0.2829	1324.6052	0.180113	-424.195605	-424.185802	-424.184858	-424.230282	36.492	
C	 0.2180975942	 1.6192790866	-0.5145765135	-0.418403
C	 0.1518668076	 0.1290903741	-0.2647580219	-0.142137
C	 1.4232515988	-0.7023108231	-0.062913755	-0.016323
O	 2.6727855401	-0.075608405	 0.0078485834	-0.419122
C	 0.4971664342	-0.4444050522	 1.0773004713	 0.433515
C	 0.8302411643	 0.2371300848	 2.394624783	-0.37284
C	 0.0963428948	-0.9751452922	 3.0198320678	 0.155179
C	-1.1192482045	-0.7158542426	 3.8837354507	-0.398394
O	-0.2628290338	-1.4776794831	 1.6997817198	-0.329233
H	 1.0897035731	 2.0595225509	-0.0226749647	 0.128791
H	 0.2932913345	 1.8399377439	-1.5854730485	 0.113092
H	-0.676600172	 2.1254774322	-0.1363573544	 0.120214
H	-0.64080003	-0.4029992471	-0.7865135823	 0.093644
H	 1.4231821228	-1.709685674	-0.4800690091	 0.091903
H	 2.9319049513	 0.1804149294	-0.883935294	 0.289852
H	 1.8930259736	 0.3360031197	 2.6167867719	 0.124967
H	 0.3291260964	 1.1946666785	 2.5585151797	 0.10488
H	 0.7770005431	-1.6805087825	 3.5144433946	 0.079205
H	-1.7915388486	 0.0008238296	 3.4019350619	 0.119456
H	-1.6724468102	-1.6447029506	 4.0549721344	 0.126566
H	-0.8167993599	-0.3132614475	 4.8568894349	 0.115191
