15
gdb 61348	3.18888	0.93633	0.80256	3.0251	75.42	-0.2815	-0.0581	0.2234	1399.0156	0.109904	-416.781034	-416.771618	-416.770674	-416.8159	33.242	
C	-0.0381147071	 1.555307849	 0.0021666454	-0.403887
C	-0.0130742014	 0.0257798808	 0.0197057225	-0.067314
O	 0.5883471831	-0.4712752338	-1.2158848663	-0.241398
C	-0.2261218214	-0.6259069813	-2.2629513439	 0.336613
N	-1.4637962451	-0.3483918879	-2.2640398329	-0.518938
C	 0.4984948022	-1.1584096234	-3.4056474936	 0.25755
N	 1.0110980445	-1.5765304347	-4.3531589019	-0.313391
C	 0.7768371291	-0.516106943	 1.1166295004	 0.335641
C	 1.4086091921	-0.9343222513	 2.0478126083	-0.427614
H	 0.9747585108	 1.948439509	-0.1108759888	 0.14115
H	-0.6647103402	 1.9056016947	-0.8202127386	 0.146404
H	-0.4535841437	 1.9232072153	 0.9437666828	 0.139268
H	-1.0361952572	-0.3596223798	 0.0618509693	 0.151148
H	-1.8962221117	-0.5580148092	-3.1600826244	 0.255291
H	 1.9668744258	-1.3142567545	 2.8679532317	 0.209476
