15
gdb 66540	3.1293	1.58693	1.2403	4.3561	70.88	-0.2221	-0.0216	0.2005	981.1471	0.109793	-420.514744	-420.506823	-420.505879	-420.547987	29.102	
O	 0.0219447698	 1.4055181464	 0.0459861183	-0.452142
C	 0.0651620522	 0.037197509	 0.0115168512	 0.31633
C	 0.9043632893	-0.9787353478	-0.7527976994	-0.196272
C	 0.8382468965	-1.0197235998	 0.7899390934	-0.19621
C	-0.3707934913	-1.9900599391	 0.6876257619	-0.109601
C	-0.306783102	-1.9503850079	-0.8058214558	-0.109577
C	-1.1686787068	-0.894653427	-0.0660791768	 0.232729
C	-2.6172643666	-0.7596485286	-0.1246625665	-0.001626
O	-3.3759436561	-1.7060178778	-0.1817520334	-0.288476
H	 0.919718988	 1.7524223308	 0.091748176	 0.294919
H	 1.7678573546	-0.8587790251	-1.3927123236	 0.099556
H	 1.6435986395	-0.9358095731	 1.5067801148	 0.099572
H	-0.8080384001	-2.718030398	 1.3579835375	 0.115207
H	-0.6834618452	-2.640784234	-1.5487688131	 0.115204
H	-2.9957611917	 0.2850143722	-0.1129628446	 0.080386
