19
gdb 111932	3.89769	1.21523	1.12406	2.1966	82.5	-0.206	-0.0271	0.1789	1135.8015	0.159597	-385.777796	-385.77013	-385.769185	-385.809932	30.576	
O	-0.0758090868	 1.4623253658	-0.124305358	-0.418216
C	 0.0106038237	 0.0464655853	-0.0979561706	-0.091015
C	-1.4012954981	-0.5119841533	 0.0544834638	-0.021028
C	-2.1872862491	-0.3138927402	-1.2414570257	-0.099267
C	-2.8421385688	-1.4479853107	-1.5585193314	 0.040271
C	-2.1097210427	-2.4218120484	-2.494165028	-0.258646
C	-1.6129166493	-3.0106785857	-1.1204648288	-0.067181
C	-1.4814481546	-2.0510685342	 0.1400650359	-0.068669
C	-2.8038413562	-2.4574821087	-0.3939563946	-0.120334
H	 0.803222374	 1.8168565571	-0.2861606842	 0.287516
H	 0.4647181512	-0.3476832566	-1.0211781911	 0.087951
H	 0.6252102465	-0.3035544594	 0.747548183	 0.086575
H	-1.8323505131	-0.0688994365	 0.9641208457	 0.087217
H	-1.7976329594	 0.3699500376	-1.9903066463	 0.101451
H	-2.7208002676	-3.1797228835	-2.998847559	 0.103188
H	-1.3915818393	-1.9881042659	-3.1962659755	 0.098006
H	-1.2115817571	-4.0165125372	-1.0163964361	 0.087736
H	-1.0610129111	-2.5642056537	 1.004508947	 0.075904
H	-3.6297391622	-2.9589198218	 0.0929634141	 0.088542
