19
gdb 68354	2.82447	1.73686	1.29268	1.0894	81.74	-0.2111	-0.0316	0.1796	1009.7319	0.161468	-385.888482	-385.881105	-385.880161	-385.91962	30.938	
O	-0.0313930708	 1.4367278111	-0.0020326326	-0.487414
C	 0.0214842463	 0.0270549211	 0.0156432154	 0.372671
C	 0.2236945946	-0.6689589524	 1.40003609	-0.280444
C	-0.8717564265	-1.7044764439	 0.9908030122	-0.067662
C	-1.3841402606	-0.6262145191	-0.0182197536	-0.254185
C	-0.3136613926	-2.9382520962	 0.3385771485	-0.085491
C	 0.5803785207	-2.95956167	-0.6637978255	-0.076495
C	 1.1742849825	-1.801858346	-1.3284708002	-0.080531
C	 0.9437289133	-0.5089787002	-1.0530287056	-0.156159
H	 0.8700950033	 1.7720773297	 0.0576525486	 0.273844
H	 1.216018204	-1.0475051031	 1.6520735457	 0.099738
H	-0.1459750901	-0.0050446411	 2.1843951031	 0.105528
H	-1.5754823678	-1.9766486476	 1.7779459795	 0.068947
H	-2.0968185793	 0.04444882	 0.46593598	 0.112071
H	-1.7694870554	-0.9611054265	-0.9820384478	 0.106679
H	-0.6673513505	-3.8907638029	 0.7246651986	 0.089271
H	 0.9019154154	-3.9283515605	-1.0370853228	 0.08534
H	 1.86429394	-2.0280992502	-2.1372339101	 0.088404
H	 1.4316575536	 0.2526155479	-1.6570498335	 0.085888
