20
gdb 82471	3.15664	1.6066	1.39468	0.9065	78.02	-0.2225	0.0698	0.2923	1004.7749	0.172689	-403.089256	-403.081758	-403.080814	-403.120566	31.299	
C	-0.0597650296	 1.5183089231	 0.0224649286	-0.424408
C	 0.1001506856	 0.0048178521	-0.0178381211	 0.095161
C	 1.0319703754	-0.624270944	-1.070226935	-0.102193
C	 2.4024155856	-0.0009508329	-0.6978322113	-0.255046
C	 2.2110903979	-0.7976627599	 0.5899994868	-0.058648
N	 0.7952027906	-0.5529376052	 1.2037358837	-0.165584
C	 0.5179527379	-2.0278911774	 0.981840429	-0.257728
C	 1.4538954141	-1.9050353853	-0.2154084868	 0.39871
O	 2.009251562	-2.9367722993	-0.9581949809	-0.483901
H	 0.8827328986	 2.0390487436	 0.2026672591	 0.123213
H	-0.480796244	 1.8864482192	-0.9198089468	 0.110643
H	-0.7425733746	 1.7915169249	 0.8323953445	 0.122729
H	-0.9001473824	-0.4362807622	-0.0710320232	 0.071081
H	 0.699682575	-0.7203483971	-2.1032671122	 0.069509
H	 3.2110629132	-0.4540969405	-1.2768040684	 0.113024
H	 2.5200045287	 1.0836603992	-0.6838979653	 0.096407
H	 2.9721740377	-0.9670696561	 1.3506092291	 0.07176
H	 0.9641142932	-2.6180315906	 1.7903751087	 0.092871
H	-0.5374989225	-2.2953081624	 0.8708454931	 0.100045
H	 2.4087931677	-3.5694035391	-0.3513276415	 0.282358
