15
gdb 128805	3.92571	1.14679	0.98039	1.8255	68.99	-0.2571	-0.0967	0.1604	1182.2985	0.112261	-450.080505	-450.072288	-450.071343	-450.114812	28.092	
C	 0.4267190067	 0.6626453479	-0.4034550181	-0.241758
O	-0.3472709245	 0.2333103931	 0.7052675943	-0.234674
C	 0.3745592826	-0.4955571269	 1.6770837723	-0.146603
C	 0.496935199	-1.9499890508	 1.2776937986	 0.396177
N	-0.4069642885	-2.8171789571	 1.7351424423	-0.247019
C	-0.2266255649	-4.0509079016	 1.2829791906	 0.11369
N	 0.7353814514	-4.4408833693	 0.4396760095	-0.166099
N	 1.5944943805	-3.5263169091	 0.0257205459	-0.051112
N	 1.4989143204	-2.2779039159	 0.4436503645	-0.204978
H	 0.8308139593	-0.1762387858	-0.982729592	 0.134814
H	-0.2416256642	 1.250433635	-1.0363826876	 0.133444
H	 1.2662121284	 1.2948843181	-0.078860521	 0.112865
H	 1.37791701	-0.0751801134	 1.8319124105	 0.115746
H	-0.1993454737	-0.4400679717	 2.6050008237	 0.132288
H	-0.9125895624	-4.8251881524	 1.6169390866	 0.153219
