17
gdb 43080	2.62566	2.04631	1.72452	2.9233	69.87	-0.2312	-0.0208	0.2105	859.1978	0.139386	-421.843545	-421.837397	-421.836453	-421.873908	25.819	
O	-0.0231954133	 0.024556502	 0.0147717858	-0.329035
C	-0.0454990976	 1.2250852845	-0.0000716151	 0.450135
C	-1.2633662278	 2.1582714531	-0.0161557336	-0.191895
C	-1.4868998709	 2.67296364	 1.4397298347	-0.245532
C	-0.3209977355	 3.6659761936	 1.2064423479	-0.070447
C	 1.0583224098	 2.9814141317	 1.3541246999	-0.236172
C	 1.1428783215	 2.2061589121	 0.0130935648	-0.058827
O	 0.7092047674	 3.1853784232	-0.9392495006	-0.258395
C	-0.5419085695	 3.500704558	-0.3452849362	 0.122116
H	-2.1021841764	 1.7837165804	-0.6004756412	 0.093623
H	-2.4504399069	 3.1811294298	 1.529634566	 0.112216
H	-1.3889383227	 1.9479845238	 2.2524010906	 0.11304
H	-0.3774052874	 4.6526724106	 1.664517713	 0.077334
H	 1.8636234397	 3.7199019827	 1.3852547057	 0.117714
H	 1.1326420255	 2.3380032487	 2.2349729746	 0.115384
H	 2.1058148953	 1.7836405456	-0.2648626239	 0.098099
H	-1.0618253512	 4.2704042904	-0.9102901625	 0.090643
