21
gdb 111612	2.81171	1.40786	1.33229	1.2149	81.33	-0.2345	0.076	0.3104	1100.1155	0.184097	-387.052037	-387.04394	-387.042996	-387.084606	31.946	
C	 0.3033427464	 1.2522929942	 0.1972516548	-0.238609
O	-0.3666173263	 0.1145269144	-0.3106164409	-0.227181
C	 0.3961640921	-0.5675147969	-1.2563137737	 0.116654
C	 1.4140927932	-1.6167648143	-0.8820191592	-0.107053
C	 1.3495436079	-2.2791033728	 0.5036326706	-0.249928
C	 0.1051675848	-3.1783979124	 0.5305590421	-0.032918
C	-1.2685089096	-2.5572047407	 0.5491337042	-0.30053
C	-0.6499019824	-2.9737624039	-0.7673695125	-0.030505
C	 0.1296686636	-2.0004382445	-1.6283184222	-0.116075
H	 1.2499763673	 0.9844125061	 0.6866171948	 0.1131
H	 0.5206650683	 1.9770367331	-0.6021710269	 0.107358
H	-0.3614880704	 1.7191843945	 0.9274598871	 0.127231
H	 0.6846260083	 0.0726303336	-2.0947546006	 0.07918
H	 2.3784817524	-1.5880186318	-1.3798721978	 0.07842
H	 2.2469274024	-2.8894711275	 0.644197622	 0.100683
H	 1.3400702429	-1.5420137979	 1.315069498	 0.104075
H	 0.2162064906	-4.1690797417	 0.959014759	 0.077256
H	-2.0752566442	-3.1827444901	 0.9190668506	 0.096802
H	-1.3729609746	-1.5045050998	 0.76432524	 0.141431
H	-1.0916324184	-3.8122886162	-1.2939864074	 0.078258
H	 0.1472089058	-2.2213453252	-2.6904118724	 0.082352
