17
gdb 101095	2.20645	1.38971	0.96265	3.5257	65.05	-0.2625	-0.0518	0.2107	1206.1291	0.133396	-496.073019	-496.06383	-496.062886	-496.107214	33.434	
O	 0.0747316264	 1.3513306712	-0.0367979219	-0.421377
C	 0.0816619707	-0.0573031339	 0.00425177	-0.080514
C	-1.3466169535	-0.5888133497	 0.1946380807	 0.007104
O	-2.1946219054	-0.014996588	-0.7961857485	-0.443698
C	-1.4290829971	-2.1090132477	 0.1384098466	 0.261299
C	-2.661765394	-2.7717093329	-0.3431636152	-0.218518
O	-1.5218189517	-2.6600503997	-1.1908772293	-0.274947
C	-0.5795107116	-2.9281915695	 1.0623048904	 0.121752
O	-0.0343530202	-2.4962671813	 2.0450028651	-0.252477
H	-0.6714947993	 1.5929039127	-0.6002802261	 0.286074
H	 0.5034488649	-0.4918540652	-0.9202366393	 0.082386
H	 0.7131881302	-0.3631041381	 0.8413692191	 0.136692
H	-1.7268905153	-0.2406573321	 1.1600677874	 0.121056
H	-1.9908645867	-0.4764035945	-1.6222772225	 0.294049
H	-2.8977448963	-3.782960518	-0.0165865959	 0.132473
H	-3.5032515071	-2.1340683133	-0.5991376192	 0.149273
H	-0.5079697739	-3.9955979702	 0.7580182486	 0.099374
