17
gdb 86689	2.42763	1.29279	0.9241	4.3217	75.33	-0.263	-0.0042	0.2587	1249.6544	0.135459	-418.029865	-418.020752	-418.019808	-418.065089	31.626	
C	-0.541819794	 1.4373875537	-0.0217086748	-0.41147
C	 0.0619995075	 0.0436528228	-0.0284804999	-0.017144
C	 1.3895839903	-0.1427058477	-0.8257292084	-0.181595
N	 2.0484798581	-0.5229022185	 0.4232243545	-0.034167
C	 3.2641482209	-1.0905333401	 0.632641264	 0.134161
O	 4.0869795814	-1.2601512218	-0.2393849137	-0.314047
C	 0.8540959534	-0.4169748941	 1.2613212898	-0.160313
C	 0.9433821227	 0.5429654711	 2.3641917532	 0.301336
N	 1.0011854902	 1.2990703702	 3.2363222741	-0.320537
H	 0.1992857235	 2.1937503241	 0.2535929202	 0.144492
H	-0.9243147509	 1.6828507509	-1.0174340394	 0.129587
H	-1.3727147567	 1.5085319953	 0.6864358735	 0.137981
H	-0.6910376003	-0.701147331	-0.2915849955	 0.104013
H	 1.3913112028	-0.9377665996	-1.5770520137	 0.133239
H	 1.7937134323	 0.7711442448	-1.2729941277	 0.132415
H	 3.4167750789	-1.3710084911	 1.6942183608	 0.085759
H	 0.50967862	-1.3755685291	 1.667024333	 0.136291
