17
gdb 123904	3.46385	1.57429	1.12788	5.049	74.03	-0.1986	0.0076	0.2062	1041.422	0.140908	-414.197518	-414.190551	-414.189606	-414.228817	27.683	
C	-0.0198653888	 1.5293313171	 0.0082349595	-0.206226
C	 1.4244358446	 2.0738855585	 0.0377082926	-0.160726
N	 2.2262425324	 1.6048424	 1.173168194	-0.390837
C	 1.9233165989	 0.3062386889	 1.5693979128	 0.316452
C	 0.9449741028	-0.4771580953	 0.9985481749	 0.296687
C	-0.038751135	-0.0170067692	-0.0237697553	-0.340711
N	 1.0662484766	-1.6513349764	 1.6719506411	-0.28362
N	 2.0354014444	-1.5920582853	 2.6041844114	-0.126681
N	 2.56550214	-0.3975083863	 2.5403851874	-0.287531
H	-0.556472536	 1.8773537154	 0.8984315677	 0.109294
H	-0.5409390922	 1.9310531788	-0.8662187441	 0.103557
H	 1.9306507114	 1.7730279664	-0.8904977833	 0.112956
H	 1.4162519331	 3.1666949378	 0.0521697946	 0.109667
H	 2.2967031251	 2.2571392884	 1.9416979777	 0.241959
H	-1.0479160294	-0.3888915871	 0.1876106523	 0.113184
H	 0.2231741487	-0.3775444516	-1.0277699555	 0.11958
H	 0.5505219935	-2.5090699199	 1.5592411323	 0.272995
