21
gdb 71962	2.71554	1.84591	1.60304	1.2662	80.29	-0.2497	0.0831	0.3329	948.3817	0.186151	-387.108426	-387.101458	-387.100514	-387.139131	30.328	
O	-0.0633096704	 1.4283300382	 0.0269074927	-0.497589
C	 0.0026018232	 0.0250601354	-0.0233031085	 0.430874
C	 0.2927640533	-0.6756480887	-1.3716110348	-0.291335
C	-0.6811197545	-1.7868941618	-0.9042535725	-0.027534
C	-0.0024213593	-2.7576846493	 0.0968441462	-0.214459
C	 0.0136315415	-1.930795272	 1.4028354922	-0.011712
C	-1.4320066831	-1.3856557134	 1.4373980273	-0.233353
C	-1.361484607	-0.73981973	 0.0556866775	-0.046686
C	 0.8114295946	-0.6343343171	 1.1277293745	-0.28844
H	 0.8367759766	 1.7718584815	 0.0393563384	 0.271896
H	-0.1262352605	-0.0961244392	-2.1994767264	 0.097763
H	 1.3265056822	-0.9554816495	-1.6045835659	 0.078729
H	-1.2831318118	-2.2844520307	-1.6648095876	 0.062306
H	-0.6018636665	-3.6647458029	 0.2298819586	 0.092071
H	 0.9962295049	-3.0662259327	-0.2305364629	 0.088586
H	 0.3445622969	-2.4832657873	 2.2847213626	 0.055084
H	-2.1872372726	-2.1753692188	 1.5096686467	 0.089338
H	-1.6006313331	-0.663855917	 2.2431713951	 0.096834
H	-2.2235046412	-0.2009305445	-0.3337912311	 0.067594
H	 1.8588235761	-0.8153145846	 0.8615871573	 0.083644
H	 0.7865688807	 0.0241744443	 2.0028696203	 0.096388
