23
gdb 104855	1.97943	1.32996	1.12872	2.5296	81.33	-0.238	0.0678	0.3058	1270.4138	0.203909	-425.404871	-425.39432	-425.393376	-425.44037	38.62	
C	-1.9969831141	-1.1403867945	 0.0781088787	-0.403381
C	-0.6445760591	-0.4147280564	 0.0824639498	-0.246524
C	 0.2087529565	-0.5261885957	 1.3625223681	 0.270115
C	 1.187036792	 0.6399792262	 1.4414677076	-0.152613
O	 0.4352151254	 1.8387471243	 1.5788596545	-0.423297
C	-0.5465119698	-0.8191792099	 2.6836548958	-0.102185
O	-0.0869433599	-2.1872240118	 2.6966627419	-0.301129
C	 0.8683373178	-1.9141617369	 1.6465113912	 0.123097
C	 0.9441899498	-3.0106719958	 0.6031728541	-0.422331
H	-2.7226801787	-0.6335568552	 0.7210891617	 0.121035
H	-2.4159144053	-1.1522788901	-0.9329463732	 0.109464
H	-1.9218371123	-2.1746249121	 0.4248945327	 0.130733
H	-0.0337292173	-0.7744965929	-0.7558972547	 0.093251
H	-0.8203981683	 0.6489960561	-0.1059920957	 0.11818
H	 1.8585447063	 0.4999332475	 2.30270748	 0.086025
H	 1.8128378913	 0.6629264358	 0.5331600239	 0.084353
H	 1.0473439582	 2.5795166764	 1.6084817824	 0.289812
H	-0.1654363079	-0.2492353116	 3.5417714745	 0.092544
H	-1.6377910081	-0.7582064378	 2.6763329602	 0.10406
H	 1.8725245847	-1.7813190998	 2.0839627204	 0.058897
H	-0.0082999835	-3.1737058508	 0.0956850348	 0.12718
H	 1.7049488524	-2.7715782656	-0.1479903521	 0.1144
H	 1.2359005201	-3.9484581995	 1.0873318235	 0.128314
