22
gdb 58516	2.54693	1.3129	1.22803	2.2299	81.4	-0.2237	0.0725	0.2962	1174.9563	0.19311	-404.303296	-404.293809	-404.292865	-404.336942	37.024	
C	 0.1524677633	 1.4598942435	-0.1286928354	-0.424971
C	 0.0059813975	-0.0448796919	 0.1005784543	 0.088531
O	 0.6329304061	-0.4442030207	 1.3225366703	-0.445984
C	-1.4433953493	-0.5556543462	 0.0424368251	 0.349498
C	-2.3351024567	 0.0118580848	 1.1461895039	-0.481421
C	-2.1541880608	-0.499301933	-1.3699989107	-0.292947
C	-2.284367961	-2.0244840828	-1.3240292708	-0.040365
N	-0.8962042704	-2.5449575472	-1.2618237589	-0.338329
C	-1.5699815809	-2.0943483906	-0.0225871557	-0.087989
H	 1.2110765012	 1.7345701348	-0.1291940911	 0.123402
H	-0.2817227612	 1.7644248345	-1.0861012689	 0.120371
H	-0.3448784625	 2.0380173427	 0.6598905174	 0.104318
H	 0.5574424411	-0.5805440607	-0.677804644	 0.10828
H	 0.3419525142	 0.1589084547	 2.014307859	 0.274912
H	-2.4802944944	 1.0916031026	 1.0379460907	 0.11655
H	-3.3243531528	-0.4571003706	 1.1220596959	 0.116335
H	-1.9090014334	-0.1822911002	 2.1368248717	 0.108192
H	-3.1077947974	 0.0324375821	-1.3322098482	 0.097834
H	-1.5569532533	-0.1206223253	-2.2038739787	 0.102825
H	-3.086582485	-2.6365655326	-1.7176220977	 0.089148
H	-0.9511063494	-3.5629388223	-1.2760521181	 0.227267
H	-1.6979585251	-2.7682872357	 0.8161297101	 0.084545
