19
gdb 38424	3.83616	1.26527	1.25971	2.5172	73.69	-0.2374	0.0655	0.3028	1073.7252	0.160354	-422.990171	-422.982698	-422.981754	-423.022377	29.459	
C	-0.1386904568	 1.3380542524	 0.7197030551	-0.326274
C	 1.1898980834	 1.0431847529	 0.0415831783	-0.073993
C	 2.2296515057	 0.285790311	 0.8471672996	-0.301332
C	 1.4458405846	-0.9131422436	 1.4243455892	 0.338274
C	 2.2104656985	-2.2083415504	 1.7552588503	-0.132391
O	 2.0183629258	-2.0165847956	 3.1710983375	-0.274159
C	 1.1316259046	-0.9040411053	 2.9455351592	-0.116357
O	 0.3305427758	-1.1152670864	 0.5689976597	-0.290987
C	 0.0418660737	 0.0866648156	-0.0996233396	 0.107755
H	-0.2192467446	 1.2556333921	 1.7987912977	 0.122112
H	-0.7440653785	 2.1281856105	 0.2884007921	 0.115396
H	 1.5179688183	 1.6750013146	-0.7748352806	 0.093829
H	 3.0213978688	-0.0708826202	 0.1783407181	 0.1096
H	 2.7043012061	 0.8744102947	 1.637605361	 0.114097
H	 1.7056180618	-3.1070171688	 1.3797857344	 0.11052
H	 3.271637043	-2.2367714951	 1.4807015708	 0.10038
H	 1.4304760323	-0.0164267673	 3.516990244	 0.095888
H	 0.0850898016	-1.1526626707	 3.1629268518	 0.104407
H	-0.5179296741	-0.0788087001	-1.0118676786	 0.103235
