20
gdb 86755	2.80883	1.14818	0.93197	4.4173	85.8	-0.2531	0.0046	0.2577	1320.5507	0.171155	-366.055754	-366.046552	-366.045608	-366.089857	34.28	
C	 0.0310733037	 1.640913527	-0.0057013161	-0.405842
C	 0.0196603938	 0.1091856475	 0.052698938	-0.061571
C	 0.685942337	-0.5502225115	-1.1793291384	-0.23925
C	 1.3899420825	-1.8339122506	-0.645334206	-0.19279
C	 1.5199952128	-1.5416153878	 0.8402792718	-0.192552
C	 0.7824136087	-0.4983660953	 1.221824948	 0.349048
C	 0.6337181911	 0.0178846172	 2.6185404806	-0.498279
C	 0.6101987165	-3.0560915656	-0.8851541975	 0.265805
N	-0.0062239238	-4.0170673759	-1.0688762828	-0.330963
H	 1.0568509904	 2.0252021281	-0.0398760632	 0.117187
H	-0.490729639	 1.9973227017	-0.8996669256	 0.121152
H	-0.4666069995	 2.0817270518	 0.8634499172	 0.119564
H	-1.0295091704	-0.2155887135	 0.1275838048	 0.093926
H	-0.01530694	-0.7613452256	-1.9887983881	 0.121789
H	 1.4569279815	 0.119344707	-1.5736776606	 0.109518
H	 2.3634459136	-1.981152609	-1.1278212904	 0.122877
H	 2.1104590879	-2.1717367266	 1.4950995885	 0.105145
H	 1.2122266893	-0.5763634077	 3.3301811496	 0.12906
H	 0.9615680832	 1.0609594822	 2.6985247771	 0.13282
H	-0.4178906691	-0.0036307734	 2.9318746832	 0.133356
