16
gdb 31754	4.95292	0.9852	0.83037	1.6577	68.73	-0.1986	0.03	0.2285	1352.635	0.123447	-475.03387	-475.024968	-475.024024	-475.068329	30.789	
C	-0.0588636611	 1.3986451414	 0.0089967633	-0.23519
O	-0.0216760432	-0.0271291471	 0.0044368288	-0.271923
C	-1.2064300187	-0.6531187545	 0.011933221	 0.367371
C	-1.4107445706	-1.9938098767	 0.0092448491	-0.198056
O	-2.7958879185	-2.1760841722	 0.0198315517	-0.197238
C	-3.2898034544	-0.9302205939	 0.0278377315	 0.513138
O	-4.6036875126	-0.7613137549	 0.0389763194	-0.252097
C	-5.4130905086	-1.9407288888	 0.0416451573	-0.245001
N	-2.4146221336	 0.0261915236	 0.0238605283	-0.451515
H	 0.9840307239	 1.7188138144	 0.0014323742	 0.127869
H	-0.5763677745	 1.7849571499	-0.8743765446	 0.135218
H	-0.5618356343	 1.779646801	 0.903009411	 0.135216
H	-0.7984458472	-2.8744273946	 0.0014685781	 0.142158
H	-5.2312571854	-2.5425216676	-0.8536076398	 0.141943
H	-5.2168345864	-2.5483871645	 0.9298615428	 0.141945
H	-6.4432053549	-1.5857965455	 0.0511417979	 0.146162
