15
gdb 124330	4.1403	1.16454	0.91461	2.6117	71.26	-0.23	-0.0451	0.1849	1206.688	0.113726	-450.187313	-450.179086	-450.178142	-450.220393	29.934	
C	-0.0997853352	 1.498265703	 0.0089541182	-0.485346
C	 0.0361420859	-0.0004289298	-0.008194928	 0.429868
O	 1.0758771721	-0.6121289454	-0.0416895969	-0.31638
N	-1.1862568333	-0.7096310632	 0.0193804928	-0.036716
C	-1.3498209429	-2.0620692371	 0.0176843766	 0.04506
N	-2.6183699825	-2.3767754756	 0.0499278017	-0.323514
C	-3.2359521639	-1.1419928152	 0.0721036728	 0.426223
N	-4.5985875353	-1.0399521328	 0.1657170651	-0.577224
N	-2.4235965633	-0.1015682792	 0.049134971	-0.339985
H	 0.8978604522	 1.9351192928	-0.0164137167	 0.146086
H	-0.6896534843	 1.8365571243	-0.8470232174	 0.161639
H	-0.6378117034	 1.8204028338	 0.9044887439	 0.163637
H	-0.5094786605	-2.7371435056	-0.0078096932	 0.17493
H	-5.0980406581	-1.8485737927	-0.1703241379	 0.267372
H	-4.9863007275	-0.1561328873	-0.1257072919	 0.264349
