18
gdb 16809	3.5836	1.84432	1.40802	1.7401	73.27	-0.2339	0.0093	0.2432	939.6372	0.153605	-347.802188	-347.794527	-347.793583	-347.833781	29.314	
C	-0.1032449441	 1.576843804	 0.0868084551	-0.392187
C	 0.0087632331	 0.0465358636	 0.0125327447	-0.054934
C	 0.7909749136	-0.4560937467	-1.1890258743	-0.182946
C	 1.8109482269	-1.2591778156	-0.8656827408	 0.322721
C	 2.7906561913	-1.9297482477	-1.7746995736	-0.501408
C	 1.8804998798	-1.3782134049	 0.6291041625	-0.065913
O	 2.1407332387	-0.1136067784	 1.2868095001	-0.259319
C	 0.7874888818	-0.5652742977	 1.1793388492	 0.034527
H	 0.8914958684	 2.0194235784	 0.1831376425	 0.137165
H	-0.5771707187	 1.9800798366	-0.8136140186	 0.111842
H	-0.7037778128	 1.885678834	 0.9485624548	 0.113392
H	-1.0051604772	-0.3801406563	 0.0048060966	 0.080465
H	 0.5529579517	-0.1359976397	-2.1990230576	 0.090021
H	 2.5625611113	-1.7327059116	-2.8255564417	 0.12514
H	 3.8136403783	-1.5864150591	-1.5761249453	 0.135269
H	 2.7913322858	-3.0172107026	-1.6269617615	 0.125439
H	 2.3071443587	-2.2472884891	 1.1229781781	 0.090316
H	 0.2944031836	-0.7810087672	 2.1239706699	 0.09041
