17
gdb 20548	4.39591	1.35454	1.33758	2.8088	69.56	-0.2606	-0.0056	0.255	1005.4811	0.142184	-363.869282	-363.861448	-363.860504	-363.90199	28.693	
C	 0.1386094652	 1.5858608052	-0.0567158534	-0.390415
C	 0.0359855654	 0.052586306	 0.0196035277	-0.077697
C	 0.5325561321	-0.608810578	-1.2776668906	-0.390335
C	 0.7761696157	-0.4800198457	 1.2160773122	 0.397063
N	 0.1261274084	-1.1230340659	 2.158127791	-0.210997
O	 1.0799619237	-1.4808115288	 3.1113327399	-0.165459
C	 2.2771750063	-1.0379164986	 2.7063749974	 0.084289
C	 2.1709538479	-0.3952611808	 1.5181140055	-0.335688
H	 1.1767072961	 1.9076050003	-0.195489277	 0.114901
H	-0.4433044824	 1.965007463	-0.9027323871	 0.117166
H	-0.2402526046	 2.0541129148	 0.856147493	 0.127527
H	-1.0155407133	-0.2174746584	 0.1655812402	 0.102488
H	 1.586690475	-0.3751109717	-1.4636313448	 0.114912
H	 0.4314615659	-1.6968046943	-1.2313444501	 0.127549
H	-0.0448620209	-0.2474663569	-2.134476456	 0.117126
H	 3.1058195064	-1.2537941067	 3.363362517	 0.148936
H	 2.9554254432	 0.0674816264	 0.9431315851	 0.118636
