21
gdb 111505	2.75232	1.40271	1.17768	2.0887	77.96	-0.2515	0.0685	0.32	1147.3774	0.18376	-424.213565	-424.204997	-424.204052	-424.24666	33.375	
C	-0.5807876854	 1.681503048	-0.1369920241	-0.248785
O	-0.1427088999	 0.3369495959	-0.2183359272	-0.259663
C	-1.160698763	-0.6202735816	 0.0549909396	 0.099791
C	-0.8427957332	-1.9694724269	-0.5523893114	-0.065092
C	 0.2113594213	-2.8291876795	 0.1084612081	-0.28544
C	-1.2410763197	-3.034558324	 0.4476411895	-0.038143
C	-1.7725838609	-2.3411285842	 1.6986149941	-0.228491
C	-1.3197191848	-0.8722271578	 1.5901505194	 0.077619
O	-0.0775873553	-0.6805452331	 2.2495301627	-0.44172
H	 0.2686377253	 2.3127159893	-0.4086072214	 0.131769
H	-1.4060935946	 1.8738374271	-0.837646875	 0.114494
H	-0.9133400542	 1.951553785	 0.8753812537	 0.11819
H	-2.1139639021	-0.2561796924	-0.357204206	 0.067707
H	-1.0176051582	-2.0938916945	-1.6149292126	 0.081291
H	 0.6814177109	-3.5736189642	-0.5251773984	 0.10541
H	 0.8585132131	-2.3925716986	 0.8579241441	 0.130393
H	-1.7280750213	-3.9460499988	 0.1191865831	 0.079557
H	-2.8677169991	-2.3909053843	 1.7113852827	 0.093953
H	-1.4104045686	-2.7789554501	 2.6339638946	 0.113708
H	-2.0678488616	-0.1965759643	 2.0284197923	 0.063946
H	 0.4516628113	-0.1318105812	 1.6522560021	 0.289505
