19
gdb 10211	3.34776	1.31458	1.03313	5.2806	69.54	-0.2453	0.013	0.2583	1171.638	0.165055	-402.223592	-402.214454	-402.21351	-402.258125	32.383	
C	 0.2255673901	 1.7244528514	-0.1005280769	-0.373568
C	-0.1514273901	 0.2406967529	-0.0754003102	-0.170957
N	 0.5380525448	-0.5601090599	-1.0849157545	-0.027874
C	 1.9732329941	-0.836072109	-0.9104196403	-0.198433
C	 2.3553612911	-2.3277052689	-0.8538401052	-0.04078
O	 2.5881559536	-2.9036327099	-2.1108539284	-0.42546
C	-0.1110008431	-0.953480849	-2.2032237508	 0.158634
O	 0.3650015427	-1.6145924187	-3.1146663385	-0.366461
H	 1.2966919523	 1.8705483963	 0.0686291864	 0.130384
H	-0.0292489744	 2.173074885	-1.0652883041	 0.130549
H	-0.3138893951	 2.263305463	 0.6845235863	 0.125481
H	 0.0599563101	-0.1876473475	 0.9115837799	 0.119812
H	-1.227432559	 0.1281736227	-0.2399513852	 0.12297
H	 2.5417959416	-0.3717114945	-1.7246494385	 0.133577
H	 2.2678334174	-0.3514199153	 0.0241099179	 0.110026
H	 3.2936040712	-2.4116682586	-0.2916575494	 0.102329
H	 1.5829620891	-2.8649036979	-0.2750683688	 0.078764
H	 1.8458683241	-2.634268716	-2.6785478275	 0.304005
H	-1.1621004007	-0.612736596	-2.2254705725	 0.087002
