16
gdb 19531	3.68497	1.86072	1.7393	1.6878	60.08	-0.2232	0.072	0.2952	823.1856	0.130409	-420.824284	-420.816949	-420.816005	-420.856149	26.458	
C	 0.1678463938	 0.8338802967	-0.4071882104	-0.237672
O	-0.4712002426	-0.0725662738	 0.4801467493	-0.236615
C	 0.3975476191	-0.6072113335	 1.41508722	 0.042333
C	 0.1697567592	-2.020049747	 1.9116579196	 0.009127
O	-0.6696224071	-2.8684131414	 1.181229693	-0.254069
C	-0.2109706728	-2.8835731696	-0.160200561	 0.0375
O	 1.1244926431	-2.3928638283	-0.1762556926	-0.262747
C	 1.3591599254	-1.7303835955	 1.0386231822	-0.001427
H	 0.9679035951	 0.3391199972	-0.971562865	 0.12854
H	-0.5976625339	 1.1939816399	-1.0979088099	 0.130062
H	 0.5907990646	 1.692100765	 0.1350755338	 0.108681
H	 0.7742046525	 0.0947083709	 2.1651371393	 0.088629
H	 0.1937611463	-2.2628108907	 2.9667402596	 0.114847
H	-0.2213511771	-3.9151527393	-0.5326925988	 0.111695
H	-0.8486768727	-2.2388225614	-0.7763909643	 0.11149
H	 2.3999234072	-1.750495279	 1.3385553952	 0.109625
