18
gdb 98777	3.71536	1.06357	1.00723	2.7281	72.05	-0.2506	-0.0376	0.213	1230.3204	0.147013	-439.04429	-439.035773	-439.034829	-439.078425	31.434	
O	-1.0828099643	 1.557695756	-1.3814303086	-0.421648
C	-1.2036252133	 0.1673844973	-1.4102199268	-0.132875
C	-1.4285248861	-0.405053927	-0.0209499209	 0.350455
O	-1.4200421641	 0.3368461016	 0.9419542923	-0.328253
C	-1.7166803017	-1.8846076021	 0.0795983289	-0.046647
C	-1.9300424194	-2.5282180571	 1.4687885646	-0.278053
C	-3.35453549	-2.8337322797	 1.0076324882	-0.008076
C	-4.0565014322	-1.6081047402	 0.5953489701	-0.245694
N	-3.1308811651	-2.2385406239	-0.37903699	-0.155231
H	-1.1150173129	 1.7956904355	-0.4412701101	 0.29316
H	-2.0398033013	-0.1532088457	-2.0520561311	 0.13863
H	-0.2987330968	-0.3106540247	-1.8254734292	 0.114525
H	-1.0210257823	-2.4409012448	-0.5546943882	 0.101237
H	-1.3127371209	-3.4149666279	 1.6168659876	 0.116783
H	-1.8321433519	-1.8657074652	 2.3311320157	 0.129974
H	-3.8613376289	-3.7852792395	 1.1267838862	 0.103189
H	-5.090386551	-1.7018647101	 0.2795832075	 0.129272
H	-3.7995726379	-0.6537372826	 1.0472715238	 0.139252
