14
gdb 132544	3.16535	1.4047	0.97882	2.9459	68.73	-0.2417	-0.0461	0.1956	1117.6217	0.100926	-478.037897	-478.030304	-478.02936	-478.070212	28.255	
C	 0.0205990576	 1.479183503	 0.0648843818	-0.470679
C	 0.0053731318	-0.0211817429	-0.003348321	 0.306495
C	-0.1800748406	-0.7156949886	-1.1895575498	-0.090255
N	-0.190968831	-2.0606918107	-1.2324034536	-0.285407
C	-0.0196922979	-2.6906940934	-0.1107098401	 0.258539
F	-0.0245167718	-4.0169795556	-0.1146158236	-0.051312
C	 0.1713174946	-2.0108871984	 1.1117586903	 0.280707
O	 0.3433113924	-2.7191947215	 2.2396698089	-0.401644
N	 0.1816837585	-0.6969840659	 1.1518006658	-0.382953
H	 0.9743786412	 1.8369938447	 0.4659310464	 0.142886
H	-0.1300054149	 1.9226500795	-0.9219751691	 0.128978
H	-0.7661225604	 1.8424247778	 0.7339749598	 0.142889
H	-0.3239095977	-0.1965468349	-2.1313199594	 0.117297
H	 0.4553627281	-2.072929133	 2.9516562037	 0.304461
