20
gdb 74644	2.92943	1.79873	1.2986	1.7019	84.02	-0.2067	0.0041	0.2108	1029.47	0.171175	-365.942768	-365.934858	-365.933914	-365.974583	32.	
C	-0.0598293541	 1.484877391	 0.0470239822	-0.509617
C	-0.0481339551	-0.0040185288	-0.0096365885	 0.284497
C	-0.04849374	-0.8445769136	-1.0460339918	-0.216095
C	 0.0072430198	-2.2000857727	-0.3906216104	-0.024063
C	-0.8971752337	-2.1918689275	 0.8772244634	-0.100644
C	 0.1739187289	-3.0677087733	 1.5316530152	-0.199072
N	 1.0418933412	-2.0605697105	 0.7715153148	-0.177282
C	 0.0078842943	-0.9471294797	 1.1978254663	 0.277867
C	 0.1471025506	-0.3397649172	 2.5731632013	-0.519404
H	 0.8297345676	 1.8749989585	 0.5571217604	 0.133546
H	-0.0894047888	 1.9166669293	-0.9569727665	 0.127563
H	-0.9273807974	 1.862773599	 0.6030857824	 0.126888
H	-0.0514711625	-0.6358293257	-2.1065863905	 0.104564
H	 0.1112054062	-3.1047562061	-0.9909359553	 0.06871
H	-1.9926959213	-2.25984323	 0.9285706821	 0.055436
H	 0.2966448634	-3.0415379606	 2.6162166625	 0.095638
H	 0.2847582469	-4.0915188443	 1.1627458267	 0.095181
H	 1.0781630544	 0.232092396	 2.6455196571	 0.131766
H	-0.6838137703	 0.3450527787	 2.7743195368	 0.121185
H	 0.1556499299	-1.0906814126	 3.3663688819	 0.123335
