21
gdb 73682	2.12665	1.95613	1.48171	0.6046	77.	-0.2444	0.0788	0.3232	1015.6713	0.184195	-424.249802	-424.241652	-424.240708	-424.282365	31.976	
C	 0.0367340102	 1.5562446459	 0.0851025061	-0.444959
C	-0.0135294395	 0.0328756851	 0.0718243952	 0.373788
C	-1.4314940925	-0.5602069668	 0.0866117745	-0.255331
C	-1.1963782943	-1.9529191862	 0.6694425376	-0.089507
O	-0.1322196852	-1.8012372306	 1.6106618503	-0.285992
C	 0.6658825176	-0.6643194323	 1.2787675533	 0.085059
C	 2.0389633594	-1.0698627192	 0.7387635364	-0.245393
C	 1.7267378491	-1.3517381158	-0.7322777059	-0.08112
O	 0.6989973797	-0.4301971534	-1.0916308191	-0.317754
H	 1.0702915206	 1.9082066679	 0.1577255606	 0.116552
H	-0.3856019802	 1.9530450882	-0.8427152245	 0.127288
H	-0.5308767341	 1.9648019116	 0.9268035073	 0.113143
H	-2.077382854	 0.0284776454	 0.746518767	 0.100026
H	-1.8684439703	-0.5731030706	-0.9139106209	 0.11203
H	-2.0613776675	-2.3601063741	 1.2014945464	 0.104662
H	-0.9150017686	-2.665960886	-0.1196328437	 0.098054
H	 0.7335749094	-0.0234179804	 2.1642631047	 0.072694
H	 2.7379173027	-0.231545939	 0.8334957894	 0.102549
H	 2.4484665797	-1.9285171863	 1.2742283664	 0.112407
H	 2.577752785	-1.191184208	-1.4015085809	 0.10401
H	 1.3803980629	-2.3873459754	-0.8661222101	 0.097795
