16
gdb 125384	3.01735	1.38278	1.00674	3.2486	73.45	-0.2254	0.0057	0.231	1138.3967	0.126086	-434.118497	-434.110154	-434.10921	-434.151862	30.305	
C	-0.8038220863	 1.0646203391	 0.6021677944	-0.513626
C	-0.1800559713	-0.236737969	 0.2056690246	 0.148241
C	-0.0466006336	-0.7390474777	-1.0744139956	-0.089469
N	 0.6336708829	-1.9059614076	-0.9858680668	-0.191308
N	 0.9540277766	-2.2288356636	 0.2800164473	-0.306716
C	 0.4615705743	-1.2240722094	 1.0007707177	 0.34815
N	 0.6988110608	-1.2495791442	 2.3855619548	-0.382843
C	-0.1737284523	-0.8967008535	 3.3772842222	 0.140537
O	-1.2679300074	-0.4014401221	 3.2286317389	-0.306656
H	-1.1621212295	 1.6008902781	-0.2811553514	 0.109518
H	-1.6344700656	 0.9119696275	 1.293640519	 0.169143
H	-0.0816518972	 1.7119137491	 1.1132489133	 0.12387
H	-0.3752918425	-0.3414270928	-2.0221326806	 0.134054
H	 0.900755778	-2.5278646813	-1.7286624898	 0.276869
H	 1.4965774932	-1.8040453695	 2.6615104327	 0.260812
H	 0.2607158698	-1.1106553231	 4.3736633192	 0.079423
