21
gdb 82490	2.59531	1.7477	1.41748	1.2221	81.75	-0.2552	0.0758	0.331	1018.4465	0.184256	-387.065257	-387.057562	-387.056617	-387.096784	32.067	
C	-0.075381148	 1.4893939114	 0.0877182961	-0.506858
C	-0.0424048867	-0.0181875057	 0.0129787822	 0.340509
C	 0.3719847242	-0.7784979219	-1.2813242468	-0.272198
C	-0.419704429	-1.935427341	-0.6603897823	-0.037185
C	 0.0559012757	-2.1436975121	 0.8423553958	-0.114052
C	 0.7728674737	-0.8011861208	 1.0709350202	-0.239224
C	-1.4036611235	-1.7837052672	 1.263173072	 0.145124
O	-1.6660957693	-1.1520962735	 2.4949539321	-0.441762
C	-1.3760936575	-0.901341743	 0.0242119375	-0.096362
H	 0.9325841941	 1.9099337351	-0.013019832	 0.111659
H	-0.6936139147	 1.9177287829	-0.7088431693	 0.108932
H	-0.4831556434	 1.8257803862	 1.0471371359	 0.124813
H	-0.1359602953	-0.3930270895	-2.1714211152	 0.090713
H	 1.4413429784	-0.8953857251	-1.4894130432	 0.084
H	-0.7716727028	-2.8047686278	-1.2135779243	 0.062549
H	 0.5374643796	-3.0634410219	 1.1757721795	 0.052627
H	 1.841534126	-0.8216008015	 0.8373919488	 0.082593
H	 0.6324509998	-0.4321241055	 2.0892362758	 0.100595
H	-2.0786722454	-2.6366028524	 1.0999409915	 0.061937
H	-1.6468681425	-1.8187663549	 3.1890465514	 0.280795
H	-2.2638489335	-0.4855187117	-0.4518093257	 0.060796
