19
gdb 42030	3.26693	1.47899	1.0861	1.3235	70.78	-0.2522	0.0815	0.3337	1099.183	0.162662	-460.157821	-460.150587	-460.149643	-460.189619	28.493	
C	 0.0053082218	 1.430396495	 0.0170772785	-0.073539
C	 1.4826749702	 1.9260647978	-0.0048132882	-0.31961
C	 2.203548863	 0.6717575114	 0.4690940387	 0.143178
O	 3.5576811568	 0.5014256812	 0.1114357312	-0.256913
C	 3.9619166203	-0.7781382669	 0.5632760631	 0.016231
O	 3.1962598717	-1.8364817356	 0.0423136927	-0.243873
C	 1.8050971357	-1.7588102094	 0.3727240688	-0.149444
C	 1.338693005	-0.4150319311	-0.1622363772	 0.142345
O	 0.025668928	-0.0087344439	 0.1511918178	-0.28235
H	-0.5554496774	 1.8304882384	 0.8670873654	 0.113481
H	-0.5237731731	 1.7078615907	-0.9026438443	 0.107284
H	 1.8062547634	 2.1773931021	-1.0190305658	 0.122266
H	 1.6410478929	 2.7974056893	 0.6333671104	 0.112355
H	 2.1013586818	 0.5851329457	 1.565850708	 0.069449
H	 4.9837590265	-0.9309128015	 0.2132898959	 0.122527
H	 3.922604162	-0.7983702733	 1.6686089489	 0.081238
H	 1.322952568	-2.61551694	-0.103047023	 0.119198
H	 1.6489561143	-1.8208469595	 1.4610704196	 0.099385
H	 1.5139646091	-0.4114392005	-1.2512735707	 0.076792
