15
gdb 24039	4.49982	1.07599	0.87298	3.4707	77.81	-0.2693	-0.0388	0.2305	1241.943	0.115196	-379.748948	-379.741527	-379.740583	-379.782159	27.264	
N	-0.9951827253	 0.1067582838	-1.4742043652	-0.314918
C	-0.4403571823	 0.5234582066	-0.5503959165	 0.27002
C	 0.2691084048	 1.0543871238	 0.6095418172	-0.424699
C	 1.562031328	 1.7941077028	 0.2887898795	 0.321728
N	 2.1917591582	 2.2696586028	 1.3683255411	-0.310231
C	 3.3335532114	 2.9317966884	 1.1804198756	-0.001934
C	 3.8996365936	 3.1517714678	-0.07321421	-0.120136
C	 3.2366759868	 2.6531296938	-1.1876480742	-0.079951
C	 2.0431946496	 1.9594721948	-1.0078674025	-0.166395
H	-0.3988547743	 1.7289428088	 1.1571944643	 0.176094
H	 0.4929099859	 0.2311462375	 1.2974972017	 0.176096
H	 3.8207694388	 3.3054895567	 2.0778653577	 0.114901
H	 4.8314130223	 3.6977319221	-0.1659413724	 0.108284
H	 3.6384035716	 2.7991872565	-2.1847937484	 0.117384
H	 1.497541341	 1.555757494	-1.8523617578	 0.133757
