20
gdb 122607	4.2681	0.67971	0.61016	3.4659	77.92	-0.245	-0.0259	0.2191	1823.2559	0.169082	-440.262908	-440.252997	-440.252053	-440.29915	34.503	
C	 0.0170046387	 1.4352937342	-0.012177754	-0.228376
O	-0.1891981892	 0.0511916796	-0.1549457637	-0.229037
C	 0.680099612	-0.5393699197	-1.0943217462	-0.054423
C	 0.3979579598	-2.0351952183	-1.1404630344	-0.193335
C	 1.2975287397	-2.7625568206	-2.1314600595	-0.105363
N	 2.7361673263	-2.8851971629	-1.7437730456	-0.325175
C	 2.7607161609	-4.3543466957	-1.9787627558	-0.28397
C	 1.2343196684	-4.3020134731	-2.1527553043	 0.385853
O	 0.3573169159	-5.1072621439	-2.2324739278	-0.284786
H	 1.0390566827	 1.6639683337	 0.3301679864	 0.103223
H	-0.1546509894	 1.9751463167	-0.9575345436	 0.101368
H	-0.6942674709	 1.7977187856	 0.7340029904	 0.12765
H	 0.5310934765	-0.0892547778	-2.0931426215	 0.076675
H	 1.7321059332	-0.364061135	-0.8123032561	 0.09562
H	 0.5431811287	-2.4553042394	-0.1399699056	 0.114255
H	-0.6479373664	-2.2025482388	-1.4211623854	 0.120943
H	 1.1462993338	-2.3637778767	-3.1478970509	 0.092884
H	 3.3672472919	-2.3692712193	-2.3448876715	 0.225229
H	 3.2700961696	-4.6868262162	-2.8939923102	 0.124112
H	 3.1341281178	-4.9468620724	-1.1364795507	 0.136652
