18
gdb 109368	2.51052	1.40152	0.9285	2.4784	75.55	-0.2383	-0.0237	0.2147	1233.472	0.149127	-439.13025	-439.121582	-439.120638	-439.163746	32.1	
O	 0.0245792366	 1.409245661	 0.0691748512	-0.426588
C	-0.0094172029	-0.006680352	 0.0354039546	-0.151656
C	-1.4374766913	-0.4721769974	-0.0249278044	 0.167652
C	-2.4916403799	 0.3494714167	-0.0044798164	-0.155319
C	-3.9028613685	-0.1702660989	-0.0320174265	-0.252447
C	-3.963086947	-1.5410083412	-0.7072069763	-0.168659
N	-2.9037265366	-2.3953391972	-0.1862878872	-0.335676
C	-1.6125568814	-1.952612014	-0.0406431367	 0.36154
O	-0.6724562806	-2.7201367669	 0.105717587	-0.382909
H	 0.9433307096	 1.6801132591	 0.1429976128	 0.291638
H	 0.5344359551	-0.4068796738	-0.8347583064	 0.109678
H	 0.4681647741	-0.4515295367	 0.9213014571	 0.117484
H	-2.3287502485	 1.4195258236	 0.0710846321	 0.123044
H	-4.2863668419	-0.2375841377	 0.9968127663	 0.124471
H	-4.561576017	 0.5260416851	-0.5615243321	 0.113464
H	-4.9260346954	-2.0240478772	-0.5184242992	 0.11239
H	-3.8662685926	-1.4130827403	-1.7971369837	 0.107466
H	-2.9755924718	-3.3928533521	-0.326135132	 0.244427
