15
gdb 124110	3.4998	0.98121	0.77374	4.9862	83.24	-0.244	-0.0522	0.1918	1431.6266	0.110557	-416.777777	-416.768691	-416.767747	-416.813896	30.749	
C	-0.1241840516	 1.4823026672	-0.0401630853	-0.509879
C	-0.0418756099	 0.0324375732	-0.0223922092	 0.191693
C	 0.0191398454	-1.1724975272	-0.007712589	-0.044717
C	 0.1041514394	-2.572963306	 0.0092269564	 0.241213
C	 1.171252421	-3.4332768523	 0.007624028	 0.114488
C	 2.6344994907	-3.1638159679	-0.0130802877	-0.509884
N	 0.6388987618	-4.7012035753	 0.0300779895	-0.159015
N	-0.6209247318	-4.6645405162	 0.0445688643	-0.03081
O	-1.0246430953	-3.307896854	 0.0319507249	-0.221922
H	 0.8729288735	 1.9330382564	 0.0000530004	 0.161125
H	-0.6176187677	 1.8367724747	-0.9517206225	 0.164104
H	-0.6966770892	 1.8534074697	 0.8168433564	 0.164397
H	 3.1245720018	-3.5874264892	 0.8693229619	 0.149586
H	 3.1039279909	-3.6108831492	-0.895136433	 0.149595
H	 2.8204628209	-2.0877742638	-0.0295748849	 0.140027
