13
gdb 24742	3.70239	1.23348	0.92523	5.4679	76.98	-0.2512	-0.0887	0.1625	1151.8345	0.091224	-415.675486	-415.668099	-415.667155	-415.707876	26.797	
O	-0.0647932268	-0.0452603135	 0.0036185768	-0.344127
C	-0.0671262967	 1.1743751467	 0.0067708016	 0.213323
C	 1.2043849106	 1.9272864855	 0.0000919077	 0.234741
N	 2.2061344427	 2.5043480087	-0.0052210141	-0.328997
C	-1.2552555376	 1.9857567348	 0.016942819	 0.25247
C	-1.4654513983	 3.3635432317	 0.0219905834	-0.229651
C	-2.8553751574	 3.5737165178	 0.0317966488	-0.145067
C	-3.4616865453	 2.3233546735	 0.0327299609	-0.054428
N	-2.4915781683	 1.3791761692	 0.0238541329	-0.291678
H	-0.6878721085	 4.1117643895	 0.0186877822	 0.14019
H	-3.3691892923	 4.5219204166	 0.0376398842	 0.121008
H	-4.5058015529	 2.0520438242	 0.0390702281	 0.144933
H	-2.6043545093	 0.3777611053	 0.0221108884	 0.287283
