19
gdb 78760	2.98601	1.48664	1.17686	3.019	75.23	-0.2423	0.0668	0.3091	1089.1533	0.157949	-422.97425	-422.965745	-422.964801	-423.006537	33.842	
C	 0.0328687025	 1.4368706749	 0.0749549769	-0.500688
C	-0.0064462592	-0.0615616795	 0.0100847632	 0.348135
C	-1.2501408895	-0.9316145159	-0.2147997859	-0.354192
C	-0.3736180963	-2.1194596968	 0.2458776574	 0.339928
O	-0.8902717282	-3.2892121192	 0.7609271311	-0.468686
C	 0.61105574	-1.0622548416	 0.9579215223	-0.259786
C	 1.1998934848	-0.8966816905	-0.4329081575	-0.144878
C	 0.6848891302	-2.2661798136	-0.8823620869	 0.124116
O	 1.5980645357	-3.3198883814	-0.7046028731	-0.441033
H	 1.0199158677	 1.793244593	 0.3881502579	 0.120173
H	-0.1869883755	 1.8843341233	-0.9013238517	 0.122358
H	-0.7031167001	 1.8211887385	 0.7905238659	 0.117044
H	-2.0282443912	-0.6895568143	 0.5198018046	 0.084084
H	-1.6952603231	-0.9898250911	-1.2159437256	 0.092619
H	-1.5755618536	-3.0685718011	 1.4006428844	 0.283574
H	 1.0316444977	-0.94962698	 1.9473808003	 0.08972
H	 2.140041793	-0.4332256353	-0.7053321702	 0.087719
H	 0.3003167604	-2.3760836909	-1.902188863	 0.079077
H	 1.9140193048	-3.2842770486	 0.2064794299	 0.280717
