21
gdb 68891	2.39496	1.72971	1.22354	1.2444	83.73	-0.2218	0.0211	0.2428	1096.1651	0.182711	-387.096867	-387.088207	-387.087263	-387.129255	34.937	
C	-0.0429499071	 1.4943846218	 0.0505553374	-0.456454
C	 0.0489988711	-0.0179030261	 0.0062202026	 0.286154
C	 1.4233743632	-0.631286261	-0.1706488274	-0.395846
C	 0.7047808707	-0.7349570584	 1.1690272597	 0.330895
O	 1.1663541262	 0.0680838981	 2.2250470541	-0.474001
C	 0.1329435239	-2.0451552974	 1.5771734701	-0.091192
C	-0.7062144736	-2.7435088593	 0.8117314658	-0.082733
C	-1.155984691	-2.2380493752	-0.534743751	-0.287718
C	-1.1735464852	-0.69877278	-0.5961529658	-0.256333
H	 0.8035769338	 1.9281070647	 0.5850498308	 0.126843
H	-0.0661575994	 1.9087759992	-0.9641390807	 0.108393
H	-0.9579454473	 1.8142897334	 0.5620546933	 0.115368
H	 1.5481420947	-1.5361633976	-0.7557619921	 0.111202
H	 2.2604048007	 0.0587205045	-0.216629853	 0.106083
H	 2.0288905405	-0.2656510369	 2.4937259085	 0.281565
H	 0.4443984477	-2.4139776008	 2.5512301417	 0.080767
H	-1.0750883337	-3.70864702	 1.1467804978	 0.086219
H	-0.5010038776	-2.6378929942	-1.3218924954	 0.111
H	-2.1555801145	-2.6204320447	-0.7697848888	 0.101677
H	-2.0537225788	-0.3382972822	-0.0474396396	 0.102534
H	-1.3018541042	-0.3727573178	-1.635525828	 0.095578
