18
gdb 62626	2.36774	1.86889	1.61646	1.3857	70.37	-0.2381	0.0543	0.2924	931.6151	0.146751	-439.014529	-439.006584	-439.005639	-439.046229	32.265	
C	 0.0371231018	 1.6119226939	-0.0162442733	-0.45345
C	 0.0959767396	 0.0985471706	 0.0550965336	 0.348606
O	-1.2158349296	-0.3384718272	 0.4241267683	-0.495974
C	 0.7010039212	-0.7371270525	-1.0700108746	-0.107304
C	 1.1901141062	-1.7797354169	-0.1288478594	-0.185073
N	 2.1748292545	-0.9194914325	-0.8293592774	-0.148438
C	 2.4856258352	-0.1989858828	 0.460849832	-0.201705
C	 1.122526187	-0.6201930685	 0.9901820936	 0.335759
O	 0.8378958963	-0.6893490957	 2.3275442964	-0.474565
H	 0.9893586916	 2.0371813578	-0.338160372	 0.127576
H	-0.7357211371	 1.9190728482	-0.7264526577	 0.129367
H	-0.2198055305	 2.0282944753	 0.9629720639	 0.12883
H	-1.2904323121	-1.2721081804	 0.1916397627	 0.284933
H	 0.3655228042	-0.8305633231	-2.0959554669	 0.100411
H	 1.2077835983	-2.8618068563	-0.1500488453	 0.10309
H	 3.3164927285	-0.7221003577	 0.9400177382	 0.119409
H	 2.7166256763	 0.8679320986	 0.3762393611	 0.102397
H	-0.1286702915	-0.6527168808	 2.396618337	 0.286131
