17
gdb 117121	2.65759	0.96555	0.74632	3.7684	71.71	-0.2613	-0.0369	0.2245	1499.2317	0.131099	-458.91579	-458.905502	-458.904558	-458.952426	35.463	
C	-0.1093872007	 1.3496045992	 0.0072130043	-0.228925
O	-0.0242743548	-0.0446655684	-0.1912123308	-0.213973
C	-1.2124484376	-0.7057622852	 0.1147596829	-0.159411
C	-1.0358422201	-2.199595862	-0.0608757658	 0.337967
O	 0.0241960134	-2.7350032771	-0.2658645099	-0.294875
C	-2.3103048497	-3.0842861313	 0.0108736723	-0.110196
O	-1.9522032375	-4.4298471906	-0.1345044288	-0.416692
C	-3.048822695	-2.8317664228	 1.251852848	 0.324506
C	-3.6544003223	-2.6191405558	 2.2678360976	-0.475495
H	 0.8645962104	 1.7697368434	-0.2513080079	 0.138983
H	-0.8782608097	 1.8074071475	-0.6345336091	 0.109162
H	-0.3408777045	 1.5982203445	 1.0544509985	 0.110778
H	-1.5348502325	-0.530331145	 1.1562285944	 0.136148
H	-2.0532419649	-0.3733011727	-0.5219655158	 0.113646
H	-2.9463131288	-2.7723320631	-0.8370201686	 0.121722
H	-0.9830282183	-4.4202830357	-0.221808543	 0.298816
H	-4.1944240374	-2.4430581049	 3.1656266517	 0.207837
