17
gdb 108966	4.18869	1.42096	1.25588	1.0934	71.9	-0.2208	0.0237	0.2445	1021.1734	0.138012	-417.95403	-417.946936	-417.945992	-417.98558	27.642	
C	-0.121023985	 1.3347741564	 0.0592035131	-0.234984
O	 0.0857197499	-0.0810674563	 0.0103428911	-0.242644
C	 0.7561474257	-0.5871000842	 1.0358184885	 0.435651
N	 1.2312579002	 0.0540320631	 2.0360512961	-0.347221
C	 1.7817171397	-0.9942868892	 2.8737277699	-0.006913
C	 0.9240695131	-2.2436531297	 3.2009716754	-0.097901
C	-0.1616849254	-2.4073641467	 2.1558870738	-0.190939
N	 0.8495406907	-2.0273923867	 1.0549620131	-0.218936
C	 1.940170383	-2.2458487458	 2.0815204884	-0.048939
H	 0.8375263598	 1.8607605253	 0.0657519737	 0.14317
H	-0.6897322725	 1.5833706846	-0.8370007743	 0.132914
H	-0.6763112752	 1.6092964513	 0.9604455441	 0.139181
H	 2.5082482612	-0.7045748174	 3.6219844627	 0.100416
H	 0.9728361853	-2.7137707766	 4.1750038015	 0.096706
H	-0.4549529523	-3.4484813603	 2.0106843624	 0.123705
H	-1.0534980798	-1.7722166659	 2.1918206286	 0.116415
H	 2.8203867717	-2.8366444321	 1.8612042819	 0.10032
