20
gdb 14836	2.8119	1.5824	1.12158	0.6725	80.98	-0.2528	0.0492	0.3021	1119.7943	0.176102	-311.832411	-311.8236	-311.822656	-311.865704	33.037	
C	 0.1299458663	 1.5232057003	 0.1755536262	-0.386511
C	 0.2774428804	-0.0010665998	 0.1421040415	-0.176543
C	 0.5955255173	-0.5323182955	-1.2542075595	 0.014839
C	 2.0696952039	-0.322922883	-1.7143294074	-0.231354
C	 2.3796661946	-1.7988032088	-1.3558043794	-0.223402
C	 0.844313824	-2.0867763776	-1.3444591842	-0.175894
C	 0.3010528941	-2.9639632494	-0.3285524177	 0.321477
C	-0.140977603	-3.6853754691	 0.5273764971	-0.464152
H	 1.0448990013	 2.0252007983	-0.1573725237	 0.11556
H	-0.684193611	 1.8548172454	-0.4787030393	 0.113389
H	-0.0911419814	 1.8766354267	 1.1874154221	 0.112712
H	 1.0608074593	-0.3131477591	 0.8448342729	 0.097242
H	-0.6468778236	-0.4708611272	 0.4981158402	 0.10685
H	-0.164130172	-0.1730798305	-1.9562821378	 0.06739
H	 2.1490297643	-0.1298433513	-2.7875448327	 0.100431
H	 2.6414845214	 0.4432498512	-1.184904519	 0.099645
H	 2.9792843686	-2.3816480382	-2.0580276502	 0.102785
H	 2.8098887006	-1.9049422619	-0.3576989716	 0.114097
H	 0.5319032955	-2.4400826967	-2.3332225932	 0.100015
H	-0.5318786007	-4.3265410537	 1.2778497559	 0.191424
