14
gdb 25415	5.14155	1.02622	0.85548	3.0762	77.68	-0.2395	-0.0609	0.1786	1237.095	0.103064	-436.774451	-436.767282	-436.766338	-436.80633	26.899	
O	-0.1175155895	-0.0270612489	 0.0007043658	-0.282442
C	-0.0352039582	 1.1811296246	 0.0094981269	 0.091185
C	 1.223414939	 1.9287735188	 0.0015900685	 0.114717
C	 1.2126910125	 3.2979758843	 0.0129636636	-0.012026
N	 2.3662416098	 3.9952228529	 0.0057983121	-0.363897
C	 3.6703606357	 3.4273565241	-0.0135445799	 0.432993
O	 4.639666768	 4.1603186249	-0.0180143738	-0.375759
C	 3.655586956	 1.9737859192	-0.0251096444	-0.24441
C	 2.4961583947	 1.2701414341	-0.0179628431	-0.117273
H	-0.9477207846	 1.8202877074	 0.0250119519	 0.064866
H	 0.2923699584	 3.8733051309	 0.0279763105	 0.148943
H	 2.3592327812	 5.0067511317	 0.0142066997	 0.270822
H	 4.6251677387	 1.4916194647	-0.0397685289	 0.128958
H	 2.4933314982	 0.1849962612	-0.0267763489	 0.143322
