21
gdb 73848	2.45179	1.57976	1.03436	0.2189	95.82	-0.2029	-0.021	0.1819	1213.791	0.182577	-349.984335	-349.975259	-349.974315	-350.017902	34.768	
C	 0.0399139085	 1.5646923026	 0.0396564052	-0.488802
C	-0.0044337876	 0.0571943305	-0.1174135381	 0.188796
C	-1.2121949068	-0.5939025164	-0.0939721984	 0.188768
C	-2.490827775	 0.200386545	 0.0887941682	-0.488807
C	-1.3561661086	-2.0377550405	-0.0939173575	-0.102253
C	-0.5571721243	-2.9342308345	-0.7003058582	-0.085313
C	 0.5706845886	-2.509306821	-1.6022722769	-0.31909
C	 1.5721166206	-1.7863428204	-0.7416843326	-0.085306
C	 1.2804756582	-0.6163637103	-0.1451394689	-0.102268
H	 1.0694150956	 1.9304575988	 0.0431869159	 0.117825
H	-0.4830481605	 2.0680324666	-0.7821994981	 0.128467
H	-0.4394891484	 1.9022318349	 0.9670992368	 0.125186
H	-2.6479345194	 0.9016478553	-0.7393423362	 0.128453
H	-3.3617303849	-0.4581571176	 0.1277345335	 0.11783
H	-2.4821306804	 0.8001767284	 1.0075499798	 0.125205
H	-2.2110393285	-2.4170103283	 0.4646354326	 0.082278
H	-0.7236621594	-3.9956833322	-0.5378253933	 0.08878
H	 1.0232847244	-3.3669838707	-2.1049872626	 0.097471
H	 0.1886316871	-1.8285246837	-2.3764265952	 0.111724
H	 2.5549188966	-2.2282219625	-0.6015309327	 0.08878
H	 2.083515814	-0.101874944	 0.3812146566	 0.082276
