18
gdb 28933	3.01126	1.38006	1.0241	1.1258	79.18	-0.1797	0.0555	0.2352	1169.6914	0.148246	-401.958353	-401.949964	-401.94902	-401.992279	31.927	
O	-0.1061168141	 1.3266605721	 0.2402071485	-0.443849
C	-0.0064312941	-0.012303458	 0.017315757	 0.370935
C	-0.0436342896	-0.7692337866	-1.1295798735	-0.316896
C	 0.1161647177	-2.1255256622	-0.7144790428	-0.153908
C	 0.2420611707	-2.1372205274	 0.6496503476	-0.121711
N	 0.1661476864	-0.8274461002	 1.1032602027	-0.048186
C	 0.248766022	-0.363596842	 2.4593955646	 0.070872
C	-0.3393878779	-1.1647086952	 3.5889168961	-0.286557
C	 1.1627146248	-1.0300966423	 3.4513602218	-0.28656
H	-0.2228365459	 1.7609704009	-0.6095118685	 0.307485
H	-0.1690728591	-0.3977383786	-2.1348422324	 0.084222
H	 0.1352597185	-2.9929047894	-1.3560854402	 0.091928
H	 0.3783880737	-2.9523913443	 1.3400149436	 0.115274
H	 0.1562896899	 0.7129025198	 2.5030155843	 0.125642
H	-0.8431090408	-0.6299661619	 4.3864663526	 0.119773
H	-0.7834872623	-2.1222026853	 3.3410146024	 0.125881
H	 1.7166424344	-1.8981533068	 3.1120732196	 0.125881
H	 1.6995808658	-0.4020942226	 4.1536118466	 0.119773
