10
gdb 741	9.57415	3.68605	2.7061	1.0701	43.3	-0.2916	-0.0228	0.2687	460.9254	0.074202	-301.357553	-301.352551	-301.351607	-301.385939	17.13	
C	-0.0142957189	 1.4874516323	 0.02936495	-0.484149
C	 0.0004584643	-0.0012792765	-0.006351792	 0.373755
N	-0.1040395728	-0.6788246605	-1.1200945611	-0.167813
O	-0.044395455	-2.0162681358	-0.6995477789	-0.152029
C	 0.0891583768	-1.9778284953	 0.6249315568	 0.111367
N	 0.1250331806	-0.7862920171	 1.126956203	-0.303286
H	 0.914622074	 1.863669167	 0.4679049384	 0.151932
H	-0.1260110384	 1.8890986789	-0.9784960152	 0.152435
H	-0.8395105847	 1.8417127633	 0.6539905359	 0.151919
H	 0.1533408742	-2.9246007763	 1.1413631632	 0.165869
