19
gdb 47109	2.54948	1.76218	1.25887	4.3043	73.44	-0.2607	0.0141	0.2749	1030.8816	0.162845	-423.095122	-423.087711	-423.086766	-423.127895	28.593	
O	-0.0806560998	 0.0950186134	 0.5726286012	-0.347818
C	-0.0391546025	 1.2721185474	 0.3548950102	 0.433136
O	-1.1351740786	 2.0659441693	 0.4590066603	-0.215761
C	-0.8430936073	 3.4302883388	 0.1242256064	-0.096573
C	 0.6920247344	 3.5694978043	 0.0028108379	-0.039839
C	 1.4009365342	 4.2091590192	 1.2270080082	-0.216986
C	 1.8958002983	 3.0258037787	 2.0801595141	-0.211658
C	 2.2932715181	 1.9749583865	 1.0314429692	-0.210549
C	 1.184536985	 2.1011483066	-0.034191441	-0.166184
H	-1.3537899035	 3.6630961516	-0.8161900877	 0.116402
H	-1.2660824147	 4.0617736747	 0.9110101078	 0.119473
H	 0.9331700173	 4.1175306567	-0.9096194577	 0.08436
H	 2.260045771	 4.7937133807	 0.8797378472	 0.10367
H	 0.7495460502	 4.8960259719	 1.7760723362	 0.099419
H	 2.7158651655	 3.2979462976	 2.7495015453	 0.10145
H	 1.0816738079	 2.638419772	 2.7049015361	 0.115616
H	 3.261845764	 2.2296477159	 0.5875454834	 0.098849
H	 2.3572002145	 0.9568261687	 1.4222437678	 0.12761
H	 1.5157086061	 1.7620143359	-1.018963175	 0.105384
