18
gdb 85137	2.19339	1.72303	1.17958	3.1213	73.19	-0.2536	0.0074	0.2611	1095.1269	0.147159	-439.068342	-439.059854	-439.058909	-439.101827	31.305	
C	 0.1024994278	 1.4998581902	-0.1249927854	-0.416371
C	-0.0273785028	 0.0166403302	 0.1280763345	 0.096988
O	 0.7106415969	-0.7843776616	-0.8652853024	-0.284616
C	 1.412167522	-1.4522005456	 0.1142710828	 0.391934
N	 2.2599624324	-2.372538493	 0.0463489863	-0.550045
C	 0.7951062695	-0.6552518896	 1.2553812312	 0.279815
C	 1.6755751019	 0.0755591904	 2.2870448389	-0.354586
C	 0.9350732835	-0.8026629542	 3.3146127779	-0.074021
O	 0.086481088	-1.353388096	 2.2780945061	-0.306336
H	 1.151660174	 1.8101260914	-0.1255454634	 0.12895
H	-0.3333121968	 1.7611990003	-1.0935949436	 0.138109
H	-0.4297122256	 2.0629628533	 0.6488163245	 0.128912
H	-1.0715929048	-0.3101506666	 0.1541435168	 0.106439
H	 2.4222140585	-2.6665268845	-0.9186544217	 0.228948
H	 2.7460083722	-0.1019665714	 2.1847441991	 0.13732
H	 1.4830414007	 1.1464307903	 2.3696161062	 0.117894
H	 1.5452984663	-1.5786604103	 3.7880617377	 0.122036
H	 0.3509315363	-0.2797407734	 4.0791626245	 0.108631
