20
gdb 95866	2.31193	1.32766	1.07473	3.5923	78.18	-0.2714	0.035	0.3064	1201.1822	0.172939	-403.188493	-403.179881	-403.178937	-403.221601	33.202	
O	-0.0900199051	 1.4726927601	 0.0668879854	-0.438686
C	 0.0460477883	 0.0583913074	 0.0369703253	 0.130241
C	 0.7742334452	-0.4786080069	 1.2758737655	-0.21716
C	 0.7926618201	-2.0144352365	 1.3020739551	-0.214083
C	-0.6266370913	-2.5890081131	 1.2115124313	-0.201813
C	-1.3842124699	-2.0524395657	-0.0286076558	-0.16164
C	-1.3719352857	-0.506056858	-0.0533550909	-0.205563
C	-0.8159610603	-2.6069933993	-1.2643072559	 0.280136
N	-0.3622702567	-3.0482131953	-2.2320483523	-0.338065
H	 0.7923864877	 1.8561024316	 0.0983273335	 0.281993
H	 0.6016551034	-0.2515740606	-0.8636829201	 0.086685
H	 1.7991315429	-0.087162757	 1.3005449203	 0.087767
H	 0.2633194601	-0.0896196828	 2.1665507455	 0.102662
H	 1.3899732582	-2.3923210445	 0.4627190652	 0.12235
H	 1.278656607	-2.3715245783	 2.215741513	 0.103469
H	-0.6029295025	-3.6824740456	 1.1882863053	 0.116011
H	-1.2033895388	-2.2964458691	 2.0974444293	 0.105683
H	-2.4252419715	-2.3931155529	 0.0154891868	 0.124936
H	-1.945973621	-0.1446482979	 0.8077136447	 0.111663
H	-1.8624029901	-0.1289335655	-0.9546902511	 0.123413
