21
gdb 37798	2.40418	2.03243	1.61327	1.2265	80.27	-0.2448	0.0722	0.317	948.0152	0.18754	-387.096328	-387.089551	-387.088607	-387.127061	28.938	
C	-0.0256351318	 1.512158105	 0.0801605564	-0.233614
C	 1.4147088866	 1.9949322109	 0.0502042154	-0.053332
C	 2.3059335984	 0.8074168157	 0.3654743391	-0.052759
C	 1.4059565087	-0.3913750065	 0.6425492763	-0.218661
C	 0.0552607081	-0.0332608401	-0.0262621819	-0.043289
C	 0.0092794042	-0.5592609089	-1.4737720405	-0.085272
O	 1.2585621803	-0.5393838198	-2.1342096672	-0.231876
C	 1.8302757694	 0.743534485	-2.2943084342	-0.10865
C	 2.3179656409	 1.4238832657	-1.0179583506	-0.040912
H	-0.4817308656	 1.7985894162	 1.0351540004	 0.09624
H	-0.6493215729	 1.9445827369	-0.7116023211	 0.092118
H	 1.6345964616	 2.9859542225	 0.4329467489	 0.073866
H	 3.1966237203	 0.9226370964	 0.9740481417	 0.076981
H	 1.8107522458	-1.335230633	 0.2676662279	 0.10851
H	 1.2794164266	-0.4901180619	 1.7272556128	 0.090218
H	-0.787377615	-0.4887957885	 0.5042242401	 0.070918
H	-0.2863706436	-1.6136001301	-1.4725399669	 0.102781
H	-0.744697283	-0.0012239254	-2.0552171316	 0.082365
H	 2.6891897699	 0.5860297067	-2.9546489429	 0.107389
H	 1.127545146	 1.40757819	-2.8280299063	 0.084691
H	 3.196831115	 2.035667753	-1.2083607257	 0.082287
