12
gdb 5165	8.23186	1.28429	1.11096	2.4095	59.19	-0.2391	-0.0111	0.228	982.6666	0.084916	-414.680455	-414.673808	-414.672864	-414.712247	23.112	
N	-0.2053257723	 1.2845593321	 0.0110166526	-0.416272
C	-0.0353426525	 0.0413277555	 0.0040481611	 0.116395
O	-1.1603710836	-0.7541119802	 0.0089257278	-0.20789
C	-0.9763759591	-2.0780247075	 0.0009785416	 0.521111
N	 0.1168935892	-2.7662473503	-0.0101552252	-0.377751
C	-0.3411745816	-4.0856249658	-0.0134506004	-0.103964
C	-1.6898568619	-4.0940748788	-0.003928579	-0.044306
O	-2.1169487029	-2.7803973296	 0.0055939617	-0.179139
H	 0.6964678714	 1.7576604438	 0.0051144257	 0.244721
H	 0.8890429981	-0.5373459089	-0.0070474389	 0.157894
H	 0.3433394611	-4.9183190997	-0.0224070736	 0.134122
H	-2.4597048859	-4.8444172406	-0.0021278032	 0.155077
