20
gdb 116235	1.84724	1.7148	0.93338	3.6002	78.2	-0.2477	0.0189	0.2666	1270.976	0.171818	-440.306602	-440.297414	-440.29647	-440.34134	33.231	
C	-0.0054321108	 1.3669169228	-0.2205844163	-0.335797
N	-0.0575851749	-0.0844624218	-0.3236513507	-0.350942
C	-1.1100572232	-0.7008820725	 0.0100846962	 0.47097
O	-2.2503790858	-0.1042158348	 0.4603825517	-0.246169
C	-3.235186729	-1.1059878058	 0.7796501919	-0.092869
C	-2.8164560392	-2.3524467292	-0.0078726045	-0.253906
C	-1.2879019009	-2.2066295685	-0.0560268588	-0.132647
C	-0.5843426556	-2.8183133109	-1.2762110676	-0.066295
O	 0.8074265583	-2.6319732162	-1.2294075071	-0.425131
H	 1.0221620267	 1.6709495963	-0.0025936237	 0.124946
H	-0.284964032	 1.8225913495	-1.1787519974	 0.127848
H	-0.6698785485	 1.7695564668	 0.5518240662	 0.125533
H	-3.2193673923	-1.2824584683	 1.8623388934	 0.116296
H	-4.2133430329	-0.7070628906	 0.5030375519	 0.124253
H	-3.155058929	-3.278367283	 0.4611029157	 0.116921
H	-3.2300217519	-2.3131643896	-1.0222509146	 0.117255
H	-0.8345376663	-2.6370005612	 0.8470604692	 0.109964
H	-0.7709036019	-3.8982093781	-1.3043126524	 0.100622
H	-1.0306445204	-2.3849482982	-2.1888714674	 0.078723
H	 0.9327767794	-1.6792887567	-1.0701478957	 0.290425
