15
gdb 85110	2.02294	1.60811	1.25713	4.2002	66.16	-0.2711	-0.0327	0.2384	1058.7225	0.111594	-453.971529	-453.962518	-453.961573	-454.005436	31.802	
C	-0.2969247847	 1.4856018978	-0.0101349607	-0.404666
C	 0.0767865369	 0.0239250588	-0.0264270878	 0.128562
O	 1.2914138329	-0.2388654698	-0.8156587981	-0.250729
C	 1.9919321356	-0.7097853726	 0.2528333177	 0.427425
O	 3.1313880797	-1.0298873152	 0.3189680257	-0.311179
C	 0.7858657571	-0.5606824362	 1.2459430792	-0.056304
N	 0.9215408231	 0.3141109156	 2.391810027	-0.551734
C	 0.2478861926	-1.8530607587	 1.6566673616	 0.267247
N	-0.1747530949	-2.8805407848	 1.9738275217	-0.31725
H	 0.5399832794	 2.1124948896	 0.3080313282	 0.126338
H	-0.6008443573	 1.8026327753	-1.0112776564	 0.145638
H	-1.1303644826	 1.6460869563	 0.6789658294	 0.151405
H	-0.7337848345	-0.6038645461	-0.401333355	 0.126536
H	 1.2458146979	-0.2055286146	 3.2002721829	 0.2641
H	 1.6036962688	 1.0428921246	 2.2096091645	 0.254613
