17
gdb 65751	2.94283	1.20439	1.13558	1.3176	69.81	-0.2541	0.0123	0.2664	1134.5894	0.13554	-455.192807	-455.183731	-455.182787	-455.226825	32.622	
C	 0.3443210279	 1.6132880283	 0.7888696057	-0.445914
C	 0.1188765659	 0.1294135914	 0.5115708613	 0.180232
C	 0.2315324844	-0.3030571505	-0.9870565912	-0.183095
N	 1.4560160739	-1.0266482098	-0.6103088915	-0.335349
C	 1.3635186829	-0.7818467854	 0.7297699807	 0.397117
O	 1.9740866954	-1.1532422269	 1.6979507469	-0.373006
N	-1.0248350887	-0.4107043759	 1.2237907776	-0.3327
C	-2.3085919401	-0.1327867324	 0.87900057	 0.152156
O	-2.6342827265	 0.5307875976	-0.0846365197	-0.332866
H	 1.2174227502	 1.9817202152	 0.2420824284	 0.124178
H	-0.533820567	 2.1850644706	 0.4796620485	 0.154124
H	 0.5168336586	 1.7732354581	 1.8570474317	 0.131405
H	-0.5822644598	-0.9442852177	-1.3297140055	 0.134604
H	 0.3900757623	 0.5145551852	-1.6940207268	 0.122369
H	 2.0567830063	-1.652005676	-1.1271332887	 0.256801
H	-0.8387406771	-0.9268168975	 2.0712012538	 0.263129
H	-3.0371780686	-0.5964693241	 1.5726963988	 0.086817
