21
gdb 107421	3.0004	1.36621	1.1686	1.8686	81.18	-0.2482	0.0831	0.3313	1156.1284	0.183321	-387.075097	-387.066924	-387.06598	-387.107636	32.555	
C	-0.3203971265	 1.48613004	-0.0243786653	-0.374199
C	 0.1496820692	 0.0303840945	 0.0950772709	-0.291757
C	 0.8225590673	-0.4891328944	-1.1574584191	 0.360996
C	 0.0165361971	-0.925927029	-2.3601948929	-0.324546
C	 0.8053155554	-1.9512128363	-1.5830646316	-0.114351
C	 2.2035583526	-2.3592439767	-2.0588992335	-0.265046
C	 3.0426155918	-1.0894493731	-2.0065724737	 0.041354
O	 2.589354469	-0.031431146	-2.8635308801	-0.256716
C	 2.2212998	 0.0114310245	-1.4768008058	-0.031592
H	 0.5169172896	 2.1624673748	-0.2269322923	 0.117827
H	-1.0383331483	 1.5987511513	-0.8430322357	 0.121516
H	-0.8021893637	 1.8224236076	 0.8989967106	 0.110278
H	 0.8360625919	-0.0657599088	 0.9477563806	 0.094295
H	-0.7086542788	-0.6118931506	 0.3261766479	 0.096064
H	-1.0627617901	-0.9507338474	-2.245054174	 0.101851
H	 0.3693412655	-0.628574078	-3.3397864801	 0.13117
H	 0.2422360623	-2.6760418346	-1.003703738	 0.081863
H	 2.6339805494	-3.096833336	-1.3714077101	 0.103904
H	 2.2067021662	-2.806355157	-3.0591657035	 0.114995
H	 4.1226486623	-1.1500057987	-1.8881873846	 0.09232
H	 2.6328527077	 0.8467870238	-0.9155991098	 0.089775
