17
gdb 64942	3.96494	0.65592	0.64844	3.8886	82.79	-0.2525	0.0138	0.2664	1765.3613	0.134731	-380.82778	-380.818209	-380.817265	-380.864628	33.6	
C	-0.5743655248	 1.1678841404	-0.6937477106	-0.462602
C	 0.0321101652	-0.0641466416	-0.0441913894	 0.094644
C	 1.1993468409	-0.7280649913	-0.7026198972	-0.258282
N	 1.3944551829	 0.0272082901	 0.5400347636	-0.327142
C	-0.895937281	-0.8719183394	 0.712146938	 0.111414
C	-1.6987420057	-1.5318064834	 1.3176102755	 0.102753
C	-2.6532139087	-2.3410612384	 2.0705467163	-0.478241
C	-3.3822982392	-3.3038192484	 1.2328773895	 0.279124
N	-3.9625634266	-4.0627428162	 0.5845471028	-0.301453
H	 0.1785757126	 1.700954576	-1.2831933025	 0.115385
H	-1.3975994899	 0.8919527741	-1.3594533238	 0.140499
H	-0.9696978324	 1.8513125814	 0.0643866022	 0.134416
H	 1.3271668752	-1.8017844411	-0.6092386676	 0.131941
H	 1.5434905076	-0.3037179812	-1.6425997706	 0.118017
H	 1.7767756235	 0.947388097	 0.3316116631	 0.233572
H	-2.138581698	-2.8987140091	 2.8637524297	 0.184955
H	-3.3895623016	-1.702424879	 2.5755231709	 0.180999
