18
gdb 65686	3.56839	0.96263	0.88916	1.4528	74.38	-0.2574	-0.0337	0.2238	1334.3524	0.145083	-439.102295	-439.09309	-439.092146	-439.137134	33.317	
C	-0.2206808499	 1.7989358235	-0.3312117459	-0.44069
C	-0.0095300841	 0.3002634854	-0.2091830821	 0.384258
C	-1.2910778119	-0.4720964206	 0.1149009889	-0.321891
C	-1.9018064288	-0.0661928165	 1.4433002703	 0.153636
O	-3.0479333986	 0.2731572765	 1.5879377591	-0.238174
C	 0.9032161542	-0.3526943378	-1.2782269553	-0.417723
C	 1.8439523718	-0.590224558	-0.1180585141	 0.435048
N	 2.9690523654	-1.1259451297	 0.0107490459	-0.538713
O	 1.0207774078	 0.0057568346	 0.8167133061	-0.288572
H	 0.7270502677	 2.3050187471	-0.5321952714	 0.133034
H	-0.9143433293	 2.0182766211	-1.1492707982	 0.133856
H	-0.6432326604	 2.212790799	 0.5893557191	 0.142485
H	-2.0354675864	-0.3316163833	-0.6743703133	 0.127803
H	-1.0464118746	-1.5409455428	 0.1772195	 0.128225
H	-1.1983990894	-0.1127340882	 2.3024836703	 0.101012
H	 0.5175629387	-1.2578267705	-1.7505341444	 0.137626
H	 1.28631598	 0.3231771956	-2.0448629975	 0.139103
H	 3.2887518878	-1.0924318151	 0.9803623824	 0.229679
