16
gdb 32299	2.74069	1.56467	1.00225	1.1999	78.73	-0.1936	-0.0249	0.1687	1136.045	0.126694	-434.138178	-434.129909	-434.128965	-434.17184	30.087	
C	-0.0255845901	 1.4205800799	-0.0461151951	-0.311479
N	 0.0430365367	-0.0165896559	 0.0747709893	-0.32179
C	 0.6626464949	-0.6432723787	 1.0951557966	 0.298032
N	 1.2520678112	 0.0165471197	 2.059546538	-0.367746
C	 1.8545022006	-0.7125628007	 3.0525434909	-0.051091
C	 1.8644141148	-2.065105931	 3.0757439343	-0.043798
N	 1.2356631075	-2.7453631731	 2.0467054778	-0.346599
C	 0.6007772057	-2.1261124062	 1.0011501791	 0.390507
O	 0.0437292762	-2.7263254662	 0.0894709096	-0.415037
H	 0.9761236445	 1.8617491069	-0.1032179478	 0.138889
H	-0.5783298845	 1.6729547109	-0.9526214603	 0.125507
H	-0.5315736053	 1.8669612718	 0.8175788809	 0.138999
H	-0.3744729356	-0.6290560912	-0.6085768639	 0.267311
H	 2.3366462954	-0.147356319	 3.8413592163	 0.108872
H	 2.3307457061	-2.6647593077	 3.8443871894	 0.12538
H	 1.220821882	-3.7553772094	 2.027674075	 0.264041
