17
gdb 32513	2.56666	1.301	0.8695	4.7392	80.28	-0.1925	-0.025	0.1675	1287.0736	0.137066	-418.047886	-418.039217	-418.038272	-418.0813	31.941	
C	-0.0054704132	 1.3990403411	-0.0387658517	-0.323975
N	 0.0156470678	-0.0396157809	 0.1440626432	-0.387449
C	-1.190630536	-0.7258449697	 0.0556693188	 0.200889
C	-2.4580866106	-0.1836361228	 0.0450100349	-0.164336
N	-3.3607048251	-1.2395450167	 0.0086321363	-0.246462
C	-2.7095877794	-2.4195924593	-0.0161184601	-0.121319
C	-1.3437732016	-2.1604745953	 0.0165903956	 0.094989
C	-0.3089344348	-3.1752224657	 0.0344139398	 0.059505
O	-0.501034907	-4.3753523085	-0.014750492	-0.301919
H	 1.0163162725	 1.7826311441	 0.0041148954	 0.125187
H	-0.4612077937	 1.7145888669	-0.9919815647	 0.10918
H	-0.5718775218	 1.8664347717	 0.7747148871	 0.131268
H	 0.7720633972	-0.4931565951	-0.3457801602	 0.239342
H	-2.7990008387	 0.8366153968	 0.0640974066	 0.120846
H	-4.3600372173	-1.1320971315	-0.0033476523	 0.268605
H	-3.221922065	-3.3667836734	-0.0487309125	 0.152883
H	 0.7314251266	-2.7805358219	 0.1069791458	 0.042765
