20
gdb 36775	5.74579	0.58269	0.55239	5.5788	80.59	-0.254	0.037	0.291	1959.3642	0.170843	-403.150887	-403.141349	-403.140405	-403.186952	33.335	
N	-0.0086950289	-1.1531712734	 0.2430994677	-0.304603
C	-0.0129281866	 0.0005829381	 0.1781868022	 0.257301
C	 0.0012883257	 1.4593274987	 0.0908811718	-0.343526
C	 1.4236435999	 2.0343890042	-0.0545080132	-0.17819
C	 1.4158513913	 3.5624684633	-0.1621548153	-0.21187
C	 2.8211169103	 4.1364994048	-0.2272044762	 0.158369
C	 3.0008759078	 5.6597020288	-0.0390227758	-0.30183
C	 3.890224691	 5.2614732934	 1.1556021807	-0.057593
O	 3.5801831543	 3.8629133841	 0.9767014088	-0.292681
H	-0.6206756932	 1.7597878348	-0.7609708106	 0.148893
H	-0.4810603619	 1.8646810995	 0.9882156033	 0.152209
H	 2.0278079375	 1.7379555881	 0.8080791619	 0.144926
H	 1.8989003152	 1.5972426495	-0.9399450791	 0.118825
H	 0.8639021789	 3.8803298894	-1.0577847205	 0.099412
H	 0.8991823874	 3.9945464173	 0.7049502597	 0.10009
H	 3.3470873413	 3.7383501291	-1.1079978757	 0.07481
H	 3.4942788882	 6.1910697108	-0.8536667302	 0.11348
H	 2.0828116081	 6.1864322714	 0.230562964	 0.110141
H	 4.9611460627	 5.4602548011	 1.0235589586	 0.104865
H	 3.581901741	 5.6266264071	 2.141823598	 0.106973
