19
gdb 119663	3.78544	1.08478	0.97381	1.7386	76.37	-0.2317	0.0789	0.3106	1272.584	0.158036	-422.915131	-422.906868	-422.905924	-422.948682	30.868	
C	-0.088088974	 1.3660109267	 0.0715982729	-0.218732
O	-0.0502144277	-0.0396746619	 0.009747693	-0.239152
C	 0.7231653705	-0.6126193137	 1.0449990872	-0.222439
C	 0.690345469	-2.1013723197	 0.8935941303	 0.321994
C	 1.1898876386	-3.0152010106	-0.247563347	-0.320262
C	 0.60340946	-4.0200233718	 0.7689286073	-0.100693
C	 1.0564235306	-3.157877494	 1.9879912742	 0.038554
O	-0.2550188512	-3.1324210759	 2.624867414	-0.331409
C	-0.5288144724	-3.0366065137	 1.1929992133	 0.062977
H	 0.9169663491	 1.807237268	-0.0249125012	 0.103011
H	-0.7069494464	 1.7137075098	-0.7591485381	 0.127065
H	-0.5277194894	 1.7223066259	 1.0167460485	 0.105667
H	 1.7621649931	-0.2414127516	 1.001358378	 0.085975
H	 0.3172983415	-0.3431729673	 2.0349705135	 0.102419
H	 0.6691363448	-2.9230500749	-1.2035837672	 0.110379
H	 2.2720958723	-3.0540691105	-0.4031675327	 0.096798
H	 0.5410639222	-5.1068955249	 0.7285896814	 0.08492
H	 1.9450878151	-3.2377198349	 2.6149811762	 0.093171
H	-1.5623015455	-2.9613386149	 0.8572616065	 0.099756
