15
gdb 70182	3.71006	1.35641	1.13473	5.1952	68.16	-0.2592	-0.0513	0.208	1040.7272	0.112415	-457.78166	-457.774215	-457.77327	-457.813453	28.985	
O	-0.1212867837	 1.3724101113	 0.3419756457	-0.462091
C	 0.027925474	 0.0247250776	 0.0087001422	 0.304556
C	-0.4525660117	-0.4550393131	-1.3605719474	-0.372459
C	-1.2371324377	-0.7847237502	-0.1233138562	 0.084349
O	-1.3107072407	-2.0917421797	 0.3739263999	-0.241315
C	-0.2006828092	-2.7639631632	 0.8127579708	 0.41426
O	-0.3054785495	-3.9275284049	 1.0991676232	-0.33587
C	 1.0461791299	-1.9903735203	 0.9657409333	-0.210405
C	 1.1468198265	-0.6969014566	 0.6421829468	-0.121201
H	 0.4388553335	 1.8935173917	-0.2445608327	 0.290632
H	-0.8818564842	 0.2970908886	-2.0137401575	 0.130363
H	 0.1147022265	-1.242632704	-1.843453361	 0.137466
H	-2.1763072187	-0.2681012245	 0.0328364829	 0.13509
H	 1.8615325404	-2.5447560936	 1.413701342	 0.129715
H	 2.0522704445	-0.1317648392	 0.849063488	 0.116911
