12
gdb 130488	4.018	1.79431	1.24039	2.5897	71.3	-0.2512	-0.1014	0.1498	889.9147	0.08048	-431.656775	-431.651042	-431.650098	-431.686847	22.541	
O	-0.0196812732	 1.2494955535	 0.0089795726	-0.19508
C	 1.1227703687	 1.9608963784	 0.0018539872	 0.140123
N	 2.3332063465	 1.5227759249	-0.0120818716	-0.339222
C	 2.4132728337	 0.1611075471	-0.0201505174	 0.336354
C	 3.4325816967	-0.7412872589	-0.0347216038	-0.304213
C	 2.7687574349	-2.0306507055	-0.0353425699	 0.006202
N	 1.4487439726	-1.9988501913	-0.0224516858	-0.309101
C	 1.17326835	-0.6489143127	-0.0126153167	 0.398051
N	-0.0183541317	-0.1479943864	 0.0014800106	-0.156545
H	 0.8925123847	 3.0212964632	 0.0097442519	 0.163465
H	 4.4954804276	-0.5570627766	-0.0438790883	 0.127983
H	 3.2843280596	-2.9860014256	-0.0453541188	 0.131983
