15
gdb 127277	7.4532	0.84573	0.76398	3.8873	72.96	-0.2378	-0.0131	0.2247	1429.3036	0.113005	-450.116796	-450.108349	-450.107405	-450.15163	28.885	
C	 0.0170770495	 1.4245422716	 0.0270150129	-0.330273
N	-0.01533001	-0.0207950104	-0.0770100002	 0.087643
C	 0.0535028777	-0.7954321011	-1.1893298789	-0.225224
C	-0.0288957611	-2.0736301372	-0.6860473255	 0.424943
O	-0.0183398612	-3.2088447801	-1.4249501468	-0.223271
C	 0.0792423828	-4.4106266162	-0.7794907075	 0.104908
N	 0.0466491932	-5.457849864	-1.4766815085	-0.433074
N	-0.1409691231	-2.0254806938	 0.6593366068	-0.282477
N	-0.1291257811	-0.7675255637	 1.0290486494	-0.144283
H	 0.9552113504	 1.8168287204	-0.3743545636	 0.152785
H	-0.8225140307	 1.8668853182	-0.5156743868	 0.153258
H	-0.0602219116	 1.6709991405	 1.0856689904	 0.174516
H	 0.1489736891	-0.405153295	-2.1867815814	 0.156176
H	 0.1781642651	-4.3114931404	 0.3022357959	 0.147499
H	 0.1370679509	-6.2731379487	-0.8731644562	 0.236875
