13
gdb 45956	2.11316	1.85924	1.03427	1.9246	64.38	-0.2635	-0.0565	0.2069	1064.2284	0.087192	-456.575944	-456.567986	-456.567042	-456.609308	28.592	
O	-0.1491459837	 0.0700596492	 0.4622375978	-0.270361
C	-0.0908333995	 1.2362456281	 0.206381761	 0.375888
C	-1.2700190749	 2.134487682	-0.1614672797	-0.19164
O	-0.7870527599	 3.4775991409	-0.1319388678	-0.219353
C	 0.5467234627	 3.5602516636	 0.1429220726	 0.452323
O	 1.1037959669	 4.6004053268	 0.2940320643	-0.306496
C	 1.1513269964	 2.1430810963	 0.1739453873	-0.482277
C	 2.1372254226	 1.9084234774	 1.2049312661	 0.342396
C	 2.9396169937	 1.6979876401	 2.0716539504	-0.41165
H	-1.6433263005	 1.8945927639	-1.1636449909	 0.15722
H	-2.0881682496	 2.0184215454	 0.5555234977	 0.16369
H	 1.601391899	 1.9959403738	-0.8220347433	 0.178742
H	 3.6538761769	 1.5199274523	 2.8374659644	 0.211517
