18
gdb 10309	2.46735	1.69082	1.0667	4.1884	68.89	-0.2514	0.0312	0.2826	1113.865	0.152253	-381.121234	-381.111581	-381.110637	-381.155643	33.961	
C	-0.0280288108	 1.4967665898	-0.1805904229	-0.328998
N	-0.0252395801	 0.0683069706	 0.1327450931	-0.273848
C	-1.3356056443	-0.5671638985	 0.085996181	-0.145892
C	-1.9253852808	-0.5592796066	-1.2745522932	 0.283039
N	-2.3070018515	-0.4951821736	-2.3641160963	-0.332074
C	-1.2717166233	-2.0159447626	 0.6422948543	 0.126043
C	-0.851078451	-2.0327862401	 2.1081397689	-0.409586
O	-2.4977966413	-2.6886154012	 0.4240838577	-0.416272
H	 0.9995245003	 1.8679028318	-0.1488081575	 0.128798
H	-0.4580335918	 1.7388376956	-1.1645773445	 0.129386
H	-0.6011080676	 2.0331434644	 0.5833825638	 0.127641
H	 0.6002712609	-0.4178446901	-0.5028141524	 0.232194
H	-2.0081942441	 0.0124855908	 0.7339885519	 0.115116
H	-0.5386258944	-2.5681231259	 0.0411149395	 0.10226
H	-0.7662472897	-3.0642627158	 2.458982933	 0.129432
H	 0.1035916487	-1.5212815697	 2.244324067	 0.142488
H	-1.5984304622	-1.5200258124	 2.7278514977	 0.106709
H	-3.1458401471	-2.3483495064	 1.0512200388	 0.283563
