16
gdb 9187	5.41829	0.95619	0.9212	3.5105	68.75	-0.2448	0.0368	0.2816	1285.9282	0.128958	-379.920085	-379.910614	-379.90967	-379.955522	32.357	
C	-0.3982202971	 1.2547185122	 0.152902603	-0.323497
N	 0.163547933	-0.0748610957	-0.0003726809	-0.355902
C	 0.7344115558	-0.7143447102	 1.0772197141	 0.49931
O	 0.6554125538	-0.302407114	 2.221727781	-0.400189
N	 1.4234575442	-1.8725488863	 0.7363961284	-0.36356
C	 1.8270412891	-2.7885434928	 1.7978100329	-0.288347
C	 1.0041174183	-3.9956733835	 1.8629313683	 0.295761
C	 0.3347450158	-4.9938032419	 1.8788427235	-0.461679
H	 0.3301368977	 2.0493851528	-0.0568498336	 0.12029
H	-1.25582546	 1.3784861247	-0.514709773	 0.121252
H	-0.7278328944	 1.3579618664	 1.1866451136	 0.169602
H	 0.4926246232	-0.3284988003	-0.9182913461	 0.236808
H	 1.1732420889	-2.3125651442	-0.1364581631	 0.238122
H	 2.8792962653	-3.0699918191	 1.6661676798	 0.131781
H	 1.7510807807	-2.2203870936	 2.7298344166	 0.178958
H	-0.2622595043	-5.8712826244	 1.9144868055	 0.201289
