16
gdb 61008	3.56302	0.99377	0.87235	4.4221	67.45	-0.2461	-0.0491	0.197	1291.4758	0.121729	-475.000009	-474.991001	-474.990057	-475.035008	31.707	
O	-0.5650109764	 1.1812553878	-0.0361728109	-0.423146
C	-0.1230072898	-0.1414673535	-0.0302065839	 0.038801
C	 0.8652701134	-0.3681415449	-1.1655141716	 0.146813
O	 1.2178051924	 0.5342481747	-1.882262292	-0.250135
C	 0.5417257505	-0.5620290952	 1.2810948017	-0.048691
N	 1.5782071299	 0.3001828446	 1.8262281802	-0.32654
C	 0.3315353972	 0.1325493995	 2.5949066467	-0.1242
C	-0.5071857486	 1.361342323	 2.7930256691	 0.179416
O	-1.4112975368	 1.3940581825	 3.5897480451	-0.26362
H	 0.0000616402	 1.647851131	-0.6732265381	 0.302352
H	-0.9754152326	-0.8232855723	-0.1949336436	 0.109613
H	 1.2525522605	-1.4000362143	-1.2874994583	 0.100811
H	 0.6779338791	-1.6418480552	 1.3576381191	 0.099232
H	 2.3381477848	-0.2344948173	 2.2362786667	 0.245937
H	 0.3283218991	-0.5221969891	 3.4646102126	 0.110892
H	-0.2073922329	 2.2320597989	 2.1846825472	 0.102462
