23
gdb 100659	2.38415	1.03652	0.94882	3.6139	81.83	-0.2447	-0.0196	0.225	1394.4208	0.201781	-425.434153	-425.422737	-425.421793	-425.470659	41.313	
C	 0.1383571868	 1.4720819176	 0.1831523435	-0.432509
C	-0.035607519	-0.0365053222	-0.0674940221	 0.04022
C	-1.5264756909	-0.3952117176	-0.0047912641	-0.099532
O	-1.9566266482	-0.1745031868	 1.3327187484	-0.420702
C	 0.6591911217	-0.5737868288	-1.3698159703	 0.136863
C	 0.8044579349	-2.1034940666	-1.3187706203	-0.417803
C	-0.0804183785	-0.1376884517	-2.6521900887	-0.436895
C	 2.0574460946	 0.0449250945	-1.42657755	 0.152614
O	 3.0739888856	-0.5095649652	-1.0964834503	-0.264748
H	 1.180392918	 1.7419429281	 0.3757891405	 0.122869
H	-0.2147883434	 2.0719362041	-0.6633104698	 0.11086
H	-0.4482631985	 1.754083831	 1.0599191892	 0.140581
H	 0.436124808	-0.5648816292	 0.7705029013	 0.097762
H	-2.0936034007	 0.2356249395	-0.7069182427	 0.086843
H	-1.6891748877	-1.4428025008	-0.2941747696	 0.089101
H	-2.9098801743	-0.2944339562	 1.3661216449	 0.287651
H	-0.1686339716	-2.5974473565	-1.2615774444	 0.110058
H	 1.3133020453	-2.4710786306	-2.2150453078	 0.117454
H	 1.4031562897	-2.4056625497	-0.4567857965	 0.135145
H	-0.2082677621	 0.9481822409	-2.7046555721	 0.12154
H	 0.476882484	-0.4482831411	-3.5426047859	 0.122448
H	-1.0707067458	-0.5969737672	-2.7131406971	 0.124807
H	 2.0850655822	 1.0873613044	-1.8184164362	 0.075375
