19
gdb 19309	7.55328	0.88218	0.8423	2.484	73.07	-0.244	0.081	0.325	1389.673	0.165199	-365.002847	-364.994511	-364.993567	-365.03682	30.208	
C	 0.0331756973	 1.294830475	-0.2590692158	-0.083499
O	-0.0683555824	 0.1032340842	 0.5039463419	-0.249708
C	-1.2827945735	-0.556791921	 0.3327052766	 0.153368
C	-1.4591493973	-1.4823334967	-0.8456720896	-0.287694
C	-1.2743282074	-2.0323245668	 0.5561428625	-0.286123
C	 1.4065049548	 1.8756360021	-0.0680363063	 0.018005
C	 1.5840910768	 3.3489828744	-0.0898601863	-0.246977
N	 1.7430432639	 2.5991743417	 1.1655561517	-0.304161
H	-0.1486287975	 1.0801697537	-1.3242558335	 0.096241
H	-0.7321505244	 2.022627549	 0.0639864719	 0.077158
H	-2.1531626709	 0.0120392334	 0.6646225006	 0.080063
H	-2.4341274307	-1.5552618327	-1.3148757874	 0.112348
H	-0.6177738537	-1.5777731435	-1.5231185468	 0.119098
H	-0.3133650058	-2.4766228823	 0.7884649094	 0.128114
H	-2.1207474517	-2.4854293204	 1.0594892986	 0.114311
H	 2.2142066965	 1.2452459837	-0.4335853463	 0.09802
H	 2.4983926297	 3.7801032038	-0.4869999398	 0.120608
H	 0.699417752	 3.9670327072	-0.2255213146	 0.10916
H	 0.9104405644	 2.6973788253	 1.7424564334	 0.231669
