15
gdb 87348	1.8898	1.49414	0.97111	3.3138	69.68	-0.2592	-0.0134	0.2458	1199.6703	0.108279	-457.719019	-457.709718	-457.708774	-457.753506	33.204	
O	-0.0679745326	 1.3514428878	 0.0054038691	-0.424632
C	-0.021833798	-0.0289726145	 0.0872872334	 0.107926
C	-0.5980764279	-0.7620248388	 1.2688619404	-0.370496
C	-1.3069812349	-0.8240811734	-0.0828476462	 0.115792
O	-2.422963983	 0.0465332734	-0.2404166834	-0.24113
C	-3.6042447362	-0.3555354437	 0.3028675822	 0.163965
O	-4.5839181325	 0.3182427883	 0.240077443	-0.256916
C	-1.3525768068	-2.0303604297	-0.8521687343	 0.322168
C	-1.3855085362	-3.0485682083	-1.4912661949	-0.444124
H	-0.9878748968	 1.6107207392	-0.1366577361	 0.306708
H	 0.8646319757	-0.442939551	-0.3817527287	 0.128099
H	-0.1145400329	-1.6660969486	 1.6202003392	 0.138668
H	-1.0828373464	-0.158581021	 2.0288722106	 0.137471
H	-3.5357549506	-1.3461795955	 0.7834518323	 0.10715
H	-1.4155419108	-3.9432371343	-2.0633565467	 0.20935
