21
gdb 119653	3.75127	1.02028	0.92626	1.284	83.05	-0.2216	0.0666	0.2883	1363.247	0.183304	-383.16031	-383.151867	-383.150923	-383.193922	32.5	
C	-0.028725621	 1.5470273469	 0.022277199	-0.380671
C	-0.0298002518	 0.0163690523	 0.0056128441	-0.171354
C	 0.7741566842	-0.5907856822	 1.1642137456	-0.340053
C	 0.7784444254	-2.0903027366	 1.1720002447	 0.400806
N	 1.3875514256	-2.950003869	 0.0938265953	-0.387345
C	 0.8504425169	-3.9394116438	 1.0824237015	-0.042035
C	 1.275654141	-3.0552991303	 2.2933789854	-0.068036
N	-0.061866151	-3.0545316836	 2.9728909894	-0.352902
C	-0.3915728075	-3.0869947962	 1.5106618731	-0.082885
H	 0.9905516248	 1.9419820655	-0.051149552	 0.116634
H	-0.6055366872	 1.955685593	-0.8131814163	 0.11112
H	-0.4657594623	 1.9320859211	 0.9502218509	 0.116772
H	-1.0628247167	-0.3517176213	 0.0508045172	 0.097336
H	 0.3833085746	-0.3383965166	-0.9472372537	 0.101234
H	 1.8126336123	-0.2378272289	 1.1172818645	 0.10668
H	 0.3637701588	-0.2535049622	 2.1244165017	 0.119487
H	 0.7965119846	-2.9371354473	-0.7422517128	 0.205335
H	 0.937079726	-5.0210486097	 0.9600181573	 0.078262
H	 2.2287406532	-3.0349140272	 2.8224134455	 0.086891
H	-0.2406376137	-3.9700297238	 3.3944503459	 0.207861
H	-1.4126411163	-3.10769667	 1.1222248436	 0.076862
