16
gdb 26957	3.1317	1.27414	0.96708	2.6014	72.55	-0.209	0.018	0.227	1181.9269	0.1247	-437.88291	-437.874739	-437.873795	-437.916364	29.89	
N	 0.1237282883	 1.4440189706	 0.3850398647	-0.598439
C	-0.0184339319	 0.0850192046	 0.1032967841	 0.210999
C	-1.1251702433	-0.6586418653	-0.1845163774	 0.254206
C	-0.6597468394	-2.004088402	-0.3870020109	-0.294078
C	 0.680895711	-1.9754108046	-0.1933592096	-0.014622
O	 1.0981407395	-0.7087738708	 0.0936146294	-0.171874
C	-2.5101855687	-0.1629585636	-0.2408404368	-0.050126
C	-3.4672709202	-0.5856333234	-1.2797970583	-0.183257
O	-3.547833278	-1.1164770603	 0.0402589964	-0.236622
H	 0.8681911499	 1.6089338342	 1.053739956	 0.250057
H	 0.3110138633	 2.0032352594	-0.4415093244	 0.251905
H	-1.2674754415	-2.8684186174	-0.6024044525	 0.121089
H	 1.449254612	-2.7305643625	-0.1980378939	 0.13453
H	-2.6591261317	 0.8157114194	 0.2142525129	 0.100988
H	-4.2788032881	 0.0814142746	-1.5700361649	 0.114242
H	-3.1410623012	-1.285429913	-2.0482646848	 0.111001
