19
gdb 113035	4.21522	0.86729	0.81926	1.8813	83.47	-0.2441	0.0174	0.2615	1439.5178	0.158521	-385.85949	-385.850321	-385.849377	-385.893903	34.194	
O	 0.0654080078	 1.4540347605	 0.1133811653	-0.423134
C	 0.0749627727	 0.0378034264	 0.0126670386	-0.086681
C	-1.3744292088	-0.4418976666	 0.0198461044	-0.008517
C	-1.5023986031	-1.9787680337	-0.1257605734	-0.258654
C	-2.6781766053	-2.4052432385	 0.8128916208	-0.206702
C	-2.7975531994	-1.2084297424	 1.7482344665	-0.085503
C	-2.1050658459	-0.1606710956	 1.3125948473	-0.05516
C	-3.9310590979	-2.6654809187	 0.1034493558	 0.343437
C	-4.9627149358	-2.8718629968	-0.4791244043	-0.495689
H	 0.9755579222	 1.7617230254	 0.1492079909	 0.287771
H	 0.5687062676	-0.2933497081	-0.9155055099	 0.086163
H	 0.6147885017	-0.4204293492	 0.8576093088	 0.084148
H	-1.8821569345	 0.0764149766	-0.8058481843	 0.095662
H	-1.6626762538	-2.3007890945	-1.1558042246	 0.113682
H	-0.5832463756	-2.4559016888	 0.2322723536	 0.099762
H	-2.4121095638	-3.3154398324	 1.3658563793	 0.104122
H	-3.4292834005	-1.237945396	 2.6281750589	 0.101954
H	-2.0619089553	 0.8115491341	 1.7886562891	 0.109273
H	-5.8743575523	-3.0544305616	-0.9916434228	 0.194067
