15
gdb 43865	3.90232	1.04798	0.92446	3.5498	72.83	-0.259	0.0038	0.2627	1231.2234	0.1106	-420.601336	-420.5933	-420.592355	-420.634184	30.359	
O	 0.2185350429	 0.1752114015	-0.7618528459	-0.305644
C	 0.0223913076	 1.1825455637	-0.1680994577	 0.440245
C	-1.1616840816	 2.0567899859	 0.2574344023	-0.497176
C	-0.0705748474	 2.9151438584	 0.8696302648	 0.454107
C	 0.1408323524	 4.3767577681	 0.9385663481	-0.356716
C	 0.0183302584	 3.5473802308	 2.2321359004	-0.289471
C	-1.1530936022	 3.6372190639	 3.0504613234	 0.331485
C	-2.1499538877	 3.6979568216	 3.7210686732	-0.451025
O	 0.962830677	 2.0156897728	 0.4097569695	-0.263344
H	-1.7178143777	 2.492139407	-0.5745601745	 0.151
H	-1.8492180696	 1.5855737628	 0.9618257741	 0.161337
H	 1.1292059354	 4.7546274054	 0.7030160248	 0.143738
H	-0.6851161262	 5.0294973794	 0.6798159857	 0.1406
H	 0.955361196	 3.3746960981	 2.7540798883	 0.136856
H	-3.022793987	 3.7589318706	 4.3228511031	 0.204006
