21
gdb 114688	3.76908	1.07049	0.9826	2.7468	78.09	-0.2346	0.0833	0.3179	1287.8661	0.182612	-424.216576	-424.207651	-424.206707	-424.250338	34.32	
C	-0.3517225804	 1.4112900268	 0.2089892447	-0.482082
C	 0.116925297	-0.0051414927	-0.0231342628	 0.324939
C	-0.5837653238	-1.1657754677	 0.6683724393	-0.36919
C	 0.8453623997	-0.817097238	 1.0055616927	 0.075937
O	 1.8697888922	-1.5767259258	 0.421926531	-0.289599
C	 1.8641683258	-1.4062930867	-1.0119244362	 0.102189
C	 1.6241693341	-2.773133221	-1.6507584395	-0.061475
O	 2.5388610604	-3.731478243	-1.1670036543	-0.423595
C	 0.7935247606	-0.3410212826	-1.3518631997	-0.339531
H	 0.4599253931	 2.1298070564	 0.0454567351	 0.118174
H	-1.1722144181	 1.6752949044	-0.468552713	 0.121036
H	-0.716626624	 1.545502411	 1.2321184195	 0.117416
H	-1.347082874	-0.9151612519	 1.3988235279	 0.110853
H	-0.7734865275	-2.0803246868	 0.1166502761	 0.115828
H	 1.1129101159	-0.4433013328	 1.9883680863	 0.098844
H	 2.8713126025	-1.0726103507	-1.2902209831	 0.088995
H	 0.5800776742	-3.0839014028	-1.474638674	 0.081622
H	 1.7669518788	-2.7030359309	-2.7353844225	 0.104942
H	 2.5265920595	-3.6350093444	-0.2063410106	 0.289874
H	 0.0846468053	-0.7130716782	-2.100833354	 0.107156
H	 1.2592816586	 0.5583357276	-1.7656409729	 0.107666
