22
gdb 95210	2.5252	1.5828	1.16364	2.1541	81.33	-0.2184	0.0619	0.2803	1137.7105	0.1959	-404.329321	-404.320744	-404.3198	-404.361991	34.383	
C	-0.1034650307	 1.5659234428	 0.0094331178	-0.442606
C	 0.0432799799	 0.0414662386	-0.0147483766	 0.043648
C	 0.7162236367	-0.4689643294	-1.2937238826	-0.219922
C	 0.6135173235	-1.9995135964	-1.3646877683	-0.155302
N	 0.9971960936	-2.7279445105	-0.1530287207	-0.092506
C	 2.3059723078	-2.4778246079	 0.4303384482	-0.233369
C	 1.0760211187	-1.9938526183	 1.1199857888	-0.026571
C	 0.8116731244	-0.4894047517	 1.2149595629	 0.079889
O	 2.0708156908	 0.1671122509	 1.3824588993	-0.432937
H	 0.8647844486	 2.0635297465	-0.1170890387	 0.11684
H	-0.7476917474	 1.9066847507	-0.8069577987	 0.119499
H	-0.5492406303	 1.9150779025	 0.9487866537	 0.109088
H	-0.9637219328	-0.3981999586	 0.0392923804	 0.073441
H	 0.2374792049	-0.0393531604	-2.1811862415	 0.089744
H	 1.7610219448	-0.1361816553	-1.3065016229	 0.108578
H	-0.4312132657	-2.2667429035	-1.5722208079	 0.100263
H	 1.2105597598	-2.3949588974	-2.1940228707	 0.100861
H	 2.8288298727	-3.3570091098	 0.7987258141	 0.106589
H	 2.9483318154	-1.7159356158	-0.0028168015	 0.123785
H	 0.7024342265	-2.5679804445	 1.9644460986	 0.087332
H	 0.1940815408	-0.3164600605	 2.1092593069	 0.061045
H	 1.895863248	 1.0944290779	 1.5723541396	 0.282613
