21
gdb 62724	2.36203	1.66231	1.32937	1.1449	83.73	-0.2188	0.0192	0.238	1079.3028	0.181477	-387.091368	-387.082387	-387.081442	-387.123964	35.843	
C	-0.0968353492	 1.5318464924	 0.0158479971	-0.461848
C	 0.0184104855	 0.0209464616	 0.048004381	 0.287479
C	-1.2062171501	-0.6835506382	-0.5126416842	-0.443376
C	 1.3575667592	-0.6975608819	-0.2391770198	-0.21685
C	 2.6286458326	 0.0614616296	-0.112555702	-0.076045
C	 2.8211585262	 0.514979965	 1.1309571322	-0.085041
C	 1.7001986263	 0.10562083	 2.0593668358	-0.342732
C	 0.7387649575	-0.6890466734	 1.1616697666	 0.355682
O	 0.0990457624	-1.7923173532	 1.7309813409	-0.469809
H	 0.8312934686	 2.0308149715	 0.3003822716	 0.122823
H	-0.361020956	 1.8711363615	-0.9923071739	 0.111404
H	-0.8890691726	 1.8704019567	 0.6941346327	 0.113875
H	-1.3678256251	-0.3892252772	-1.55591143	 0.10711
H	-1.1085356934	-1.7690364596	-0.4650891206	 0.123553
H	-2.1039345334	-0.4107830687	 0.0537881865	 0.116182
H	 1.3021077255	-1.5713774445	-0.8810429973	 0.080265
H	 3.3014468833	 0.2262806182	-0.9472129918	 0.09223
H	 3.6613816301	 1.1164001262	 1.4588237418	 0.092684
H	 2.0578131061	-0.5292538596	 2.8832035511	 0.097316
H	 1.2104091977	 0.9655414459	 2.5333117934	 0.115877
H	 0.7724461089	-2.4470003821	 1.9464084289	 0.27922
