13
gdb 61154	2.79003	1.04425	0.79307	2.5043	65.1	-0.3154	-0.1242	0.1911	1316.5726	0.086829	-452.765906	-452.756779	-452.755835	-452.800944	30.838	
O	 0.1006760534	 1.4927033966	-0.1133880491	-0.416306
C	 0.0471073546	 0.1062263217	-0.0322269059	 0.035103
C	 0.6938162486	-0.5472604593	-1.282899084	-0.37327
C	-0.022359371	-0.1831771527	-2.5012264718	 0.281806
N	-0.5955856789	 0.0892971519	-3.4658610654	-0.288211
C	 0.7406368262	-0.3707228022	 1.2405429017	 0.272102
O	 1.2504268066	 0.4040886655	 2.0121623463	-0.276673
C	 0.7394624958	-1.8168034941	 1.4906084463	 0.258048
N	 0.7263357711	-2.9615781276	 1.6532956066	-0.28919
H	 0.57009029	 1.8099410599	 0.6734755984	 0.308709
H	-0.9977390185	-0.2434719588	 0.0291839602	 0.139608
H	 1.7329599584	-0.2108983405	-1.362687895	 0.171213
H	 0.6953498837	-1.6386245504	-1.1866777782	 0.177062
