22
gdb 79743	2.31156	1.71195	1.32238	1.6398	84.92	-0.2142	0.0789	0.2931	1094.4187	0.195545	-367.17472	-367.166293	-367.165349	-367.207057	33.907	
C	-0.0763711916	 1.5584520055	 0.0117244332	-0.431229
C	 0.1088404158	 0.0504003957	-0.0027697152	-0.056441
C	 1.3366868719	-0.7717831036	-0.3734261341	-0.112021
C	 2.7638093787	-0.2865570489	-0.3169457924	-0.022112
C	 3.131041846	 1.0966972835	 0.0843738072	-0.262603
N	 3.1384279357	 0.0169877761	 1.0818458148	-0.093141
C	 1.9077731226	-0.1329595831	 1.8995918532	-0.25179
C	 0.8003284661	-0.7894126785	 1.0509356634	 0.320491
C	 0.0860222561	-1.9776867347	 1.6562670085	-0.483421
H	 0.1874510791	 2.0153819648	-0.9479589235	 0.124783
H	-1.1290737694	 1.7899433294	 0.204643967	 0.11478
H	 0.5005049148	 2.059895729	 0.7919647163	 0.125684
H	-0.7882988778	-0.4432637057	-0.374822042	 0.081843
H	 1.1603954088	-1.6170009257	-1.0314164049	 0.080205
H	 3.4782211343	-0.8758950323	-0.8870778253	 0.085906
H	 4.1193943493	 1.4805266137	-0.158928049	 0.109159
H	 2.3635593176	 1.8577447421	 0.1251529667	 0.1108
H	 2.147792764	-0.7938503747	 2.7389036717	 0.107706
H	 1.6122545608	 0.8313523497	 2.3308490629	 0.10243
H	-0.5111158874	-1.6852252248	 2.5286959125	 0.117141
H	-0.5955382408	-2.437116271	 0.9332854377	 0.113326
H	 0.7962401056	-2.7457063664	 1.9845426813	 0.118505
