21
gdb 91089	2.80528	1.57462	1.40707	1.3717	80.56	-0.229	0.0744	0.3034	1041.9686	0.184215	-387.068517	-387.060765	-387.059821	-387.100815	31.364	
C	 0.3266716585	 1.5890794843	-0.0666028493	-0.404017
C	 0.0811568318	 0.0902235431	 0.0180863534	 0.020397
C	 0.8314348648	-0.8465999853	-0.9803421342	-0.27258
C	 1.3628152447	-1.7008533426	 0.2119305165	-0.034968
C	 2.8430588189	-1.7058968631	 0.5697086811	-0.083672
C	 3.6761133167	-0.4535290395	 0.3446217037	-0.323226
C	 3.0008746241	-0.6878109854	 1.6656328634	 0.107817
O	 1.7791579001	-0.0297678504	 1.8935715625	-0.271087
C	 0.7167751605	-0.6930717268	 1.2094559511	 0.092524
H	 1.3893729687	 1.8245582493	 0.0350943068	 0.126134
H	-0.0233043007	 1.9841222243	-1.0266331971	 0.1082
H	-0.2015549749	 2.1231482094	 0.7303307719	 0.117222
H	-0.9960528601	-0.1059536374	-0.0073832089	 0.068607
H	 0.1904541676	-1.3850730347	-1.6822316407	 0.096858
H	 1.6178617317	-0.3511516935	-1.5554009806	 0.099425
H	 0.9559923077	-2.7132367942	 0.2435374588	 0.070318
H	 3.3593342031	-2.6575091636	 0.6135521028	 0.089156
H	 4.7524160799	-0.584729395	 0.2945438211	 0.110592
H	 3.2915949449	 0.3364243012	-0.2902851601	 0.119855
H	 3.5751360995	-0.8569313894	 2.5707571801	 0.094269
H	 0.0051022125	-1.0756981006	 1.9506347078	 0.068178
