20
gdb 76148	2.08071	1.45598	1.19133	4.7404	81.04	-0.2253	0.0301	0.2553	1167.5993	0.169696	-399.322398	-399.311862	-399.310918	-399.357149	38.733	
C	-0.1053059853	 1.5389312639	 0.0592723569	-0.446046
C	-0.0139662173	 0.0260802194	 0.0048586957	 0.266304
C	-1.2455710464	-0.6432842191	-0.5775334907	-0.459267
C	 1.3171287082	-0.6383682322	-0.2786005123	-0.131829
N	 2.4945650813	 0.1708063174	-0.4286304948	-0.513982
C	 0.7258710212	-0.671199735	 1.1519762397	 0.141863
N	 1.3439425292	 0.1450377729	 2.1811451195	-0.574106
C	 0.2257333479	-1.9344360321	 1.6254879954	 0.253166
N	-0.1630390361	-2.9543842253	 2.0118166507	-0.360688
H	 0.7885111944	 1.9996441172	 0.4779132163	 0.135313
H	-0.2645016417	 1.9427429724	-0.9475161249	 0.110719
H	-0.957035241	 1.8412120659	 0.676670432	 0.130013
H	-1.4040655573	-0.3130759658	-1.6106539175	 0.114622
H	-1.1612197682	-1.7327952708	-0.5800084809	 0.136883
H	-2.1385326379	-0.3812626328	-0.0000708558	 0.129126
H	 1.2663020541	-1.5755109339	-0.8329337477	 0.09303
H	 3.3247567214	-0.4074016606	-0.4965897171	 0.243271
H	 2.4484777211	 0.7425724704	-1.2652462757	 0.244832
H	 1.6640792954	-0.4531625439	 2.9358008549	 0.239972
H	 2.1709719669	 0.5733008919	 1.7649548664	 0.246804
