21
gdb 63937	2.32052	1.66697	1.44701	1.4354	77.91	-0.2408	0.0678	0.3086	1056.6668	0.180167	-424.203757	-424.194563	-424.193619	-424.236891	35.594	
C	 0.2456506474	 1.4383571558	-0.0740124161	-0.432685
C	 0.0154334829	-0.0580992033	 0.0421236461	 0.364576
C	-1.4306364068	-0.4463026461	-0.2452522054	-0.431723
O	 0.8983311316	-0.8143153353	-0.8610829699	-0.350096
C	 1.4454258596	-1.5934136722	 0.2098837373	 0.022135
C	 2.6987829965	-0.9600542144	 0.8196521001	-0.107743
O	 1.8907418766	-0.135522448	 1.6981717111	-0.325915
C	 0.6640811013	-0.7811536972	 1.268983619	 0.345465
C	-0.1523830958	-1.2598966775	 2.4391305458	-0.490712
H	 1.2664510798	 1.6956720031	 0.2108710625	 0.135588
H	 0.0689373305	 1.7596220378	-1.1053801365	 0.120173
H	-0.444283748	 1.9871343775	 0.5760018452	 0.113189
H	-1.6975709277	-0.1275424371	-1.2576918417	 0.125911
H	-1.5710675984	-1.529299228	-0.1887710447	 0.11757
H	-2.1184949409	 0.0339955126	 0.4583669097	 0.115598
H	 1.4045556292	-2.6701517951	 0.032219809	 0.082927
H	 3.3354607993	-1.6437598236	 1.3962605434	 0.100489
H	 3.3082086027	-0.3729769785	 0.1248905652	 0.111196
H	-0.4654437638	-0.4045260334	 3.0485243628	 0.132872
H	-1.047299053	-1.79885275	 2.1190599738	 0.124569
H	 0.4448940171	-1.9195032074	 3.0750009132	 0.126618
