18
gdb 45594	2.95018	1.56402	1.29796	3.0367	71.38	-0.2218	-0.0241	0.1976	1011.8003	0.149087	-439.068595	-439.061053	-439.060109	-439.100784	29.026	
O	 0.1364535401	 0.0889702573	-0.8132743911	-0.291486
C	 0.0577686623	 1.1241923746	-0.2253390259	 0.419745
C	-0.9652159496	 1.7769833109	 0.712555106	-0.300241
N	-0.1681846918	 3.0298418278	 0.6313859921	-0.087447
C	 0.2295759522	 3.6933295718	 1.8643443736	-0.206986
C	 1.1169886638	 2.8135090698	 2.7881236403	-0.080313
O	 1.7717123218	 1.7687897333	 2.0745539083	-0.248372
C	 2.1883753549	 2.1602763286	 0.7797196483	-0.117122
C	 0.954979959	 2.3715782644	-0.1032965212	-0.11758
H	-1.9912182	 1.8669795428	 0.3389794998	 0.128546
H	-0.9806465939	 1.2849379019	 1.6949478391	 0.131076
H	 0.7717981944	 4.6035329303	 1.5837553206	 0.114638
H	-0.6640894161	 4.0212092568	 2.4047702469	 0.11613
H	 1.857562333	 3.4455894502	 3.3043619495	 0.094454
H	 0.5220057461	 2.3098347769	 3.5556624649	 0.115003
H	 2.8008140951	 3.0757705549	 0.817358464	 0.098748
H	 2.8108399166	 1.3536767275	 0.3816154542	 0.133097
H	 1.2202059121	 2.8527713701	-1.0538137295	 0.09811
