19
gdb 63957	2.77964	1.67589	1.49588	1.4805	69.23	-0.2437	0.0704	0.3142	967.62	0.160071	-460.171282	-460.163478	-460.162534	-460.203074	31.346	
C	-0.1736719606	 1.5706944977	 0.0215691914	-0.463842
C	 0.0021525426	 0.05609125	-0.0019610967	 0.404928
O	-1.2600440958	-0.6030958315	-0.0549285263	-0.472999
C	 0.8500305682	-0.4985765596	-1.186681509	-0.274809
C	 1.9555058802	-1.2720906214	-0.4362340491	 0.040109
C	 2.9009291351	-0.2675532181	 0.2463040397	-0.085546
O	 2.0560591118	 0.2563783268	 1.2862494169	-0.275947
C	 0.8486799884	-0.5035642363	 1.1772862034	 0.118063
O	 1.2539905824	-1.77011454	 0.7179092387	-0.241616
H	 0.7900302191	 2.0821167892	 0.053712887	 0.134437
H	-0.7290686472	 1.8985179924	-0.8619773438	 0.123664
H	-0.7385296473	 1.880219954	 0.9104859164	 0.105245
H	-1.82300199	-0.2233043026	 0.6286466868	 0.2743
H	 0.2296962496	-1.1738303998	-1.7773782417	 0.126544
H	 1.2438478923	 0.2867026656	-1.8362288636	 0.101685
H	 2.4327944691	-2.0892769699	-0.9740593379	 0.091131
H	 3.77547827	-0.7549483106	 0.6915012835	 0.108672
H	 3.2306696422	 0.5390302867	-0.4171056826	 0.101872
H	 0.3570106099	-0.5665765426	 2.1490232071	 0.084109
