12
gdb 131897	2.95763	1.66375	1.06515	6.0122	63.55	-0.2382	-0.0671	0.1711	1000.8239	0.077975	-505.893351	-505.886116	-505.885172	-505.925227	26.538	
N	 0.0563392	 1.3756629115	 0.1184589599	-0.596427
C	-0.0422791032	 0.0420177339	 0.0413463953	 0.415854
C	-1.1150971448	-0.8268084554	 0.0178562431	 0.253224
N	-0.6612139369	-2.1317752163	-0.015644886	-0.267105
C	 0.6136003253	-2.0204364661	-0.0154337399	 0.060296
O	 1.0758117854	-0.7113894025	 0.0187016384	-0.182817
N	-2.472628836	-0.4382476466	 0.0076875769	 0.362104
O	-2.6824988146	 0.7912130311	 0.0279005561	-0.443095
O	-3.3447653448	-1.2914008057	-0.0228031779	-0.35195
H	 0.9264429079	 1.8229651868	-0.1163272926	 0.280097
H	-0.819290365	 1.8668902388	 0.0014767009	 0.300648
H	 1.3719436965	-2.7848573095	-0.0393983242	 0.169171
