17
gdb 87112	2.84474	1.19335	1.02614	2.0441	70.06	-0.2492	-0.1008	0.1484	1215.9006	0.131154	-458.96065	-458.950668	-458.949724	-458.996259	34.353	
C	 0.2114672228	 1.5595274853	-0.1025550459	-0.431863
C	 0.1348030292	 0.0637742943	 0.0501393543	 0.043678
O	 1.3817248205	-0.6628678654	 0.0862639843	-0.292413
C	 0.5396582322	-0.682028584	 1.2536682153	 0.289234
C	 1.0705189897	-0.0544593942	 2.5203577666	-0.500722
C	-0.0842120529	-2.0615793606	 1.3879043744	 0.232272
O	-1.2232603169	-2.3257261804	 1.0831509297	-0.275164
C	 0.8040149225	-3.2185567367	 1.8763070222	 0.095223
O	 1.9137474063	-3.0906963188	 2.3186678005	-0.2126
H	 0.9860776794	 2.0003019449	 0.5271199246	 0.131113
H	 0.4362226369	 1.8153145512	-1.1429336421	 0.137617
H	-0.7521454004	 2.0131738599	 0.1523933331	 0.13149
H	-0.6238739024	-0.414666697	-0.5695777868	 0.107951
H	 1.5114607924	 0.9220528909	 2.3145890772	 0.135997
H	 0.2609471768	 0.077324611	 3.246885373	 0.130479
H	 1.835409593	-0.6949997217	 2.9634528708	 0.16449
H	 0.2867917108	-4.1978659887	 1.7906357786	 0.113218
