17
gdb 6441	3.87329	1.47213	1.29329	4.3279	68.97	-0.2742	0.0141	0.2883	1000.7953	0.140647	-363.870763	-363.862365	-363.861421	-363.903617	30.638	
C	 0.3242970616	 1.6261053528	 0.0411544225	-0.402443
C	-0.0231032405	 0.1576719192	-0.0557751491	 0.16451
C	 0.5114240077	-0.6651711433	-1.247536664	-0.341683
C	 1.1228306582	-1.5885582329	-0.1566098279	 0.27182
C	 2.6242283485	-1.8395954531	-0.1840201106	-0.437428
O	 0.7422114449	-0.6571738941	 0.8796720444	-0.316426
C	 0.3874612267	-2.8605461873	-0.0062627084	 0.258703
N	-0.1898390633	-3.8562262249	 0.0996276642	-0.337824
H	 1.3907834695	 1.7887978247	-0.1417565698	 0.120884
H	-0.249867248	 2.2010339606	-0.6934738904	 0.124076
H	 0.0829499098	 2.0093893584	 1.0373339383	 0.1366
H	-1.0969340207	 0.0046932989	 0.112732576	 0.093685
H	-0.224330483	-1.1149609165	-1.9130468497	 0.132493
H	 1.277568284	-0.1520248975	-1.8326267825	 0.117701
H	 3.1480496932	-0.8886359062	-0.3072376975	 0.12799
H	 2.9479498656	-2.3011861334	 0.7526539149	 0.148894
H	 2.8881482056	-2.5063308553	-1.0104314003	 0.138448
