18
gdb 85632	3.35578	1.0546	0.87482	3.1341	80.91	-0.2722	-0.0535	0.2188	1317.9163	0.148052	-401.981256	-401.972445	-401.9715	-402.014835	32.836	
C	 0.0168567637	 1.572126926	-0.0316422397	-0.395718
C	 0.0982056482	 0.048717793	 0.0143138769	-0.017214
C	 0.8563446692	-0.6006424051	-1.1714478564	-0.332868
C	 1.4946700229	-1.8241235853	-0.5373049156	 0.194892
C	 1.4127130893	-1.8038123523	 0.8010367775	-0.192909
C	 0.777945043	-0.5264308784	 1.2954654215	 0.083801
O	 1.7522086124	 0.3213125438	 1.9006264492	-0.421041
C	 2.1204129819	-2.84194883	-1.3100511086	 0.204587
N	 2.6212270714	-3.6528275731	-1.9685155675	-0.329794
H	 1.0120004356	 2.0239235796	 0.011392328	 0.1159
H	-0.4701290513	 1.9069059413	-0.9529541328	 0.116289
H	-0.5556705275	 1.9623107476	 0.8149930216	 0.125041
H	-0.9185599913	-0.3619078338	 0.0048633687	 0.09047
H	 0.1919249768	-0.8646102987	-1.9995986314	 0.130241
H	 1.6275645209	 0.0585967232	-1.5915792946	 0.121835
H	 1.8258570724	-2.5532590074	 1.4652028512	 0.12622
H	 0.04287737	-0.6949655496	 2.0881311717	 0.098118
H	 2.5185419124	 0.359843009	 1.3171313103	 0.282152
