15
gdb 48786	3.08055	1.5181	1.26995	3.2869	65.36	-0.2644	-0.0452	0.2192	986.7013	0.11184	-457.732719	-457.725637	-457.724693	-457.764345	27.138	
O	-0.7850084064	 0.8935459019	 0.4788520447	-0.259005
C	 0.2190431685	 0.9091793471	-0.1892212469	 0.079244
C	 1.3508062823	 1.8383647761	 0.0506707881	 0.309397
O	 2.2290857187	 2.072778102	-1.0578355816	-0.264594
C	 2.7722085339	 1.3775217644	 0.0488102854	-0.023979
C	 3.5631674636	 2.2138105121	 1.0517401682	-0.281182
C	 2.5699013123	 3.228680306	 1.6136957346	 0.035378
O	 2.0181841714	 4.1289068138	 0.6527586062	-0.233322
C	 1.2382821147	 2.994925379	 1.026669701	-0.060528
H	 0.3818249263	 0.218909993	-1.0449487404	 0.094093
H	 3.0584829295	 0.3457271036	-0.1477959128	 0.112025
H	 3.9299613563	 1.5659513674	 1.8555459293	 0.120096
H	 4.4279202508	 2.695154073	 0.5845400724	 0.140279
H	 2.7220226858	 3.6442576299	 2.6070020421	 0.108004
H	 0.2918280521	 3.1788594506	 1.5224399196	 0.124093
