20
gdb 80871	2.55383	1.75848	1.45108	1.3325	77.88	-0.221	0.0696	0.2905	996.235	0.172022	-403.086018	-403.078196	-403.077252	-403.117568	32.258	
C	-0.0027712211	 1.5213270178	 0.0809094881	-0.512699
C	 0.0442516266	 0.0126781256	 0.0798270264	 0.318504
C	 0.8579767661	-0.8328060806	-0.9818602318	-0.249348
C	 0.6748198539	-1.9344833052	 0.1025416512	-0.054003
C	 0.855497162	-0.7836789208	 1.1410989432	 0.088609
O	 2.1710289825	-0.2703913342	 1.2409876806	-0.452896
N	-0.7923456935	-2.1943234394	-0.0425699102	-0.115204
C	-1.6583408472	-1.7492372815	 1.0688888172	-0.25898
C	-1.2718327667	-0.7800421764	 0.0089901184	-0.072733
H	 1.0074459184	 1.9357461576	 0.1377652167	 0.134797
H	-0.4783736486	 1.902126409	-0.8299093354	 0.115384
H	-0.5728661663	 1.8995659469	 0.9370404337	 0.116151
H	 0.376408869	-1.0243059802	-1.9431756318	 0.097394
H	 1.8851696993	-0.4944264222	-1.1017413316	 0.112897
H	 1.2674390185	-2.8496395065	 0.1354542483	 0.064625
H	 0.4334411707	-0.8976348688	 2.1433681623	 0.057746
H	 2.7028877048	-0.912069347	 1.7219500471	 0.28512
H	-2.6540929855	-2.1813937848	 1.0095526559	 0.115418
H	-1.2854610271	-1.6710376406	 2.0826382015	 0.118416
H	-2.0012999759	-0.4738142387	-0.7383210298	 0.090804
