22
gdb 112795	2.34935	1.13741	0.85041	2.7856	84.08	-0.2238	-0.0277	0.196	1439.2173	0.1919	-404.339236	-404.329005	-404.328061	-404.375281	36.577	
C	-0.0881981387	 1.7364685044	-0.0831679168	-0.384037
C	-0.0788185472	 0.2122259418	 0.0039752141	-0.125249
N	 0.5349582451	-0.3886218585	-1.1656843149	-0.076775
C	-0.1776917676	-0.3440560694	-2.4578161403	-0.176718
C	 0.3381086532	-1.7733387933	-2.770914697	-0.014717
C	 1.5361416015	-1.8438994669	-3.7104043076	-0.406253
C	 0.6487476971	-1.8507161822	-1.2313178624	-0.06157
C	 1.9858666963	-2.4154928536	-0.8052424626	 0.14291
O	 2.1996026714	-3.5889751604	-0.6349004596	-0.252064
H	 0.9299901913	 2.1223610594	-0.1866196931	 0.125587
H	-0.6689552986	 2.0789009133	-0.9461974843	 0.120634
H	-0.538628366	 2.1714647607	 0.8138700278	 0.116413
H	 0.4954734946	-0.1058471178	 0.8832961822	 0.103297
H	-1.1126855085	-0.1596421001	 0.1510141815	 0.075767
H	-1.2740468849	-0.3093257089	-2.3484093118	 0.086106
H	 0.1355134032	 0.4611761803	-3.1318469615	 0.101746
H	-0.4335925888	-2.4771710822	-3.0863420547	 0.087321
H	 2.3060748146	-1.1182951179	-3.4288941561	 0.127451
H	 1.9883964143	-2.840641309	-3.7047654958	 0.133054
H	 1.2268618278	-1.6218744164	-4.7371581868	 0.117382
H	-0.1493869225	-2.3972876071	-0.7026399782	 0.079919
H	 2.7819602726	-1.6450351462	-0.684806472	 0.079799
