15
gdb 20786	4.9371	1.8513	1.45758	3.7319	66.57	-0.2534	0.0201	0.2735	849.0541	0.121671	-358.832304	-358.825685	-358.824741	-358.863407	24.207	
C	-0.2204892227	 1.5746654156	 0.0447003523	-0.399827
C	 0.0358381894	 0.0732266015	 0.026167821	-0.144009
C	 0.7666401693	-0.5187319328	-1.2626732504	-0.185589
N	 1.8337185376	-0.9202680895	-0.3286350681	 0.082499
N	 3.0052427707	-1.5432183302	-0.0718563055	-0.28759
C	 3.0472415393	-1.375304906	 1.2563451149	 0.022354
N	 1.9941029482	-0.7108385731	 1.8438501462	-0.382533
C	 1.2621202559	-0.4551879285	 0.7739229924	 0.37778
H	 0.6852860621	 2.1336171306	-0.2095760408	 0.131225
H	-1.0052578954	 1.8439392921	-0.6691293873	 0.125377
H	-0.5445763729	 1.8934423	 1.0394465919	 0.142601
H	-0.8778753965	-0.4805379888	 0.2608392797	 0.113056
H	 0.2664616577	-1.3583574445	-1.7504668656	 0.140475
H	 1.082334508	 0.2215428407	-2.0018352078	 0.138343
H	 3.8813456694	-1.749591107	 1.831620747	 0.12584
