18
gdb 35629	2.41381	1.76154	1.36528	1.1234	81.9	-0.2197	0.0123	0.232	1007.8096	0.14831	-364.750916	-364.743106	-364.742162	-364.78306	31.04	
C	-0.2131431057	-1.2911994252	-0.0316649584	-0.501355
C	-0.1051792028	-0.0937401857	-0.0019105585	 0.368969
C	-0.0068775822	 1.3677430298	 0.0124186241	-0.155295
C	-0.8228424474	 1.9526933819	 1.1913958316	-0.259764
C	-0.1034957567	 1.7429057634	 2.5010628831	-0.067412
C	 1.226314419	 1.785585111	 2.5578432243	-0.059925
C	 2.0137395018	 2.0916655266	 1.337982716	-0.046666
C	 2.4894751279	 1.026630072	 0.4102819073	-0.247294
N	 1.3835482129	 1.9066065888	 0.0232584306	-0.105567
H	-0.3084969228	-2.3485070831	-0.0621008658	 0.198555
H	-0.4503465764	 1.7281154974	-0.9246448243	 0.113967
H	-0.9768593317	 3.0246842973	 1.0094889175	 0.119695
H	-1.8127044606	 1.4893995106	 1.20492784	 0.117366
H	-0.6955346325	 1.555026424	 3.3915495464	 0.093647
H	 1.7641863196	 1.6455303772	 3.491591433	 0.093186
H	 2.6100813537	 3.0034534474	 1.399758894	 0.09618
H	 3.4059984999	 1.1650418177	-0.1579514051	 0.111435
H	 2.2541864043	-0.0022169412	 0.6662771542	 0.130276
