15
gdb 125054	2.33325	1.86701	1.04531	3.4312	77.14	-0.2098	-0.0731	0.1367	1073.6294	0.110432	-450.093591	-450.084543	-450.083599	-450.127843	32.453	
C	-0.0189631874	 1.53269223	 0.0547796404	-0.523656
C	 0.0042361409	 0.0275614879	 0.0212927134	 0.093311
C	-1.1502435957	-0.7130802348	 0.0611307696	 0.400192
N	-2.3997805866	-0.1582701427	 0.1589907739	-0.557059
O	-1.1951278316	-2.0406804423	 0.0482851771	-0.316476
N	 0.197911827	-2.7919661415	 0.067792652	 0.027516
N	 1.1721725309	-2.106380002	 0.0199614017	-0.094148
C	 1.2574455233	-0.6526739653	-0.0537613882	 0.31681
N	 2.4134105408	-0.1160910049	-0.1622683855	-0.529235
H	 0.9875535758	 1.9017779994	 0.2570643165	 0.168257
H	-0.3367344175	 1.9681944151	-0.9026488968	 0.123925
H	-0.6903123109	 1.9112392814	 0.8343487429	 0.123957
H	-2.5086939349	 0.7860779239	-0.1737707758	 0.270423
H	-3.1652064626	-0.7804110798	-0.0502248482	 0.26898
H	 3.1379115683	-0.8325757144	-0.1691201532	 0.227202
