25
gdb 108225	2.04128	1.42235	1.117	0.3046	93.61	-0.2312	0.0819	0.3131	1299.9477	0.227776	-352.34584	-352.335439	-352.334495	-352.380708	39.439	
C	 0.651604914	-0.4641397055	-0.9184472827	-0.372481
C	-0.0993957327	-1.7620921474	-0.5839935187	-0.295633
C	-1.540635249	-1.5226981734	-0.2171118685	 0.32372
C	-2.6012044592	-1.056334409	-1.2279212748	-0.282789
C	-3.6599065478	-1.9575899871	-0.5160839982	-0.280088
C	-2.5887920765	-2.4087856483	 0.4873025963	 0.272931
C	-2.5166596915	-3.8036025131	 1.0441638783	-0.49743
C	-2.036890101	-1.175538788	 1.1734778514	-0.085626
C	-1.1252896109	-1.3142324331	 2.3756114737	-0.435151
H	 1.6860912946	-0.6692465303	-1.2116492495	 0.107744
H	 0.1700561746	 0.0681860011	-1.7456193325	 0.118245
H	 0.6719357341	 0.2125658862	-0.0579692881	 0.117494
H	-0.0564904377	-2.4355423334	-1.451175654	 0.091281
H	 0.4209895657	-2.2841912348	 0.2266669589	 0.093945
H	-2.8052276536	 0.0199740618	-1.2516033275	 0.088994
H	-2.3924231553	-1.3901975299	-2.2484893382	 0.094185
H	-4.5349403523	-1.4531207365	-0.0903742305	 0.087883
H	-4.0099054657	-2.770360553	-1.1587972634	 0.094408
H	-2.5551879062	-4.5506899452	 0.2426202206	 0.112769
H	-1.6011233576	-3.9806832467	 1.6151712049	 0.115709
H	-3.3630191066	-4.0015927604	 1.7146527093	 0.116495
H	-2.7086763129	-0.3182097131	 1.255871756	 0.062877
H	-0.4390622391	-2.1606835918	 2.2917887412	 0.11785
H	-0.5164894953	-0.4133032308	 2.5107427916	 0.116643
H	-1.7084544821	-1.4578109385	 3.2922486944	 0.116026
