19
gdb 95987	2.33738	1.55979	1.19388	3.1966	71.59	-0.2386	-0.0214	0.2171	1115.7384	0.157355	-460.180768	-460.171318	-460.170374	-460.215619	33.44	
C	-0.1200794572	 1.5586563739	-0.244857253	-0.424288
C	 0.03002208	 0.0593628883	-0.0565343557	 0.118588
O	 0.9522974246	-0.4387236946	-1.0148948069	-0.25759
C	 1.4834725618	-1.6448319364	-0.5151341543	 0.027573
O	 1.1632993439	-1.7237182148	 0.866177309	-0.253693
C	 0.644162376	-0.4713507263	 1.2656358988	-0.026026
C	 1.7525273883	 0.4371996776	 1.8235549562	 0.38283
C	 1.3539013357	 1.3985966344	 2.9263081751	-0.490027
O	 2.8801608432	 0.3637812016	 1.3974872419	-0.298384
H	 0.8414298147	 2.0663378047	-0.1325823406	 0.141917
H	-0.4960488884	 1.7639808656	-1.2504079947	 0.13765
H	-0.8349328032	 1.9721278183	 0.473152944	 0.118759
H	-0.9492609678	-0.4315012073	-0.179959507	 0.078177
H	 1.0351257346	-2.5190034826	-1.0111429278	 0.096999
H	 2.5685827203	-1.6285712384	-0.6667907661	 0.122668
H	-0.1236321897	-0.6441832711	 2.0271748633	 0.092481
H	 1.147587489	 0.8307715349	 3.8419904392	 0.14832
H	 2.1632966856	 2.1043770692	 3.1165117246	 0.147146
H	 0.4347900285	 1.938218293	 2.6748649638	 0.136899
