15
gdb 67501	2.58021	1.67304	1.27108	1.4907	71.22	-0.2299	0.0336	0.2635	993.2847	0.109688	-420.49144	-420.483626	-420.482681	-420.523346	30.813	
O	-0.0849383247	 1.389631784	 0.0331613324	-0.447559
C	-0.002788372	 0.0173516844	-0.0422866682	 0.325871
C	 0.5652758695	-0.7144714956	-1.3116775336	-0.06735
O	 0.7848184626	-2.0906818182	-1.0048223122	-0.219995
C	-0.5516830242	-1.6529738837	-1.2811843056	 0.027062
C	-1.1547678476	-0.9618839623	-0.020899124	-0.184078
C	-0.1822900185	-0.8932706213	 1.1615459811	-0.280334
C	 0.6821538842	-1.9135870074	 1.6856603898	 0.339296
C	 1.3776087277	-2.7163239645	 2.2501762777	-0.445208
H	 0.74271003	 1.7243670259	 0.3988641156	 0.294305
H	 1.1192389181	-0.2590285236	-2.1240908918	 0.116687
H	-1.0971325127	-2.1552692945	-2.0699659827	 0.117131
H	-2.210607049	-0.7677088871	 0.1132532554	 0.109486
H	-0.652637951	-0.3049216717	 1.950019884	 0.126488
H	 2.0037069676	-3.4462652045	 2.699621612	 0.188197
