19
gdb 6707	6.11831	0.77196	0.71538	4.0254	73.5	-0.2691	0.034	0.3031	1566.5869	0.163215	-365.081397	-365.071668	-365.070724	-365.116942	33.596	
C	 0.0634197465	 1.5035830079	 0.103716503	-0.395299
C	-0.0312673097	-0.0206328598	-0.0010183427	 0.153092
C	-1.4672624066	-0.4978205839	-0.1827890776	-0.388014
O	 0.7002590843	-0.524493221	-1.1203172638	-0.258646
C	 2.0981038372	-0.5113914578	-0.9830794402	-0.058982
C	 2.658646279	-1.2874615118	-2.1833018533	-0.336139
C	 4.1167253924	-1.3412940981	-2.1715802739	 0.246233
N	 5.2713599297	-1.3737333346	-2.1444732951	-0.303152
H	 1.0931128071	 1.8413284482	 0.251474593	 0.119805
H	-0.3254992788	 1.9706893276	-0.8068531531	 0.124686
H	-0.5252432841	 1.861769438	 0.9539906018	 0.120218
H	 0.3849892554	-0.4692876086	 0.9167431758	 0.069947
H	-1.8937275266	-0.0770842298	-1.0988698307	 0.125268
H	-1.5019216016	-1.587706928	-0.2577064244	 0.122056
H	-2.0868649076	-0.1847613083	 0.6624346111	 0.116799
H	 2.508393828	 0.5088201803	-0.981965302	 0.11207
H	 2.4110609221	-0.9946776635	-0.0440850221	 0.107427
H	 2.2553024958	-2.3052261481	-2.1777022435	 0.160378
H	 2.3195690474	-0.8119469188	-3.1095160522	 0.162253
