17
gdb 42990	2.88155	1.72182	1.29708	3.4343	72.39	-0.2539	-0.0217	0.2322	983.7519	0.138031	-417.989092	-417.981822	-417.980878	-418.020925	28.426	
O	 0.0805865005	 0.0349576696	-0.2312037767	-0.336615
C	 0.0220368747	 1.229202398	-0.1003372969	 0.33664
N	-1.193918035	 1.9833332911	-0.0722970508	-0.146824
C	-1.3569254187	 2.7001180274	 1.2277362778	-0.251143
C	-0.8036713804	 3.4140277872	 0.0604049185	-0.023185
C	 0.7091320718	 3.5788818216	-0.0695525586	-0.341429
C	 1.2144553133	 2.1501277603	 0.0111682887	 0.244304
C	 2.3682534582	 1.6555517816	 0.8230384609	-0.273032
N	 2.4664413151	 1.7347863373	-0.6310939175	-0.350993
H	-2.3914948064	 2.8410113943	 1.5225487122	 0.138648
H	-0.6836076097	 2.4287233112	 2.0372642327	 0.133009
H	-1.4432097637	 4.1031059901	-0.4814194372	 0.110096
H	 0.9590480493	 4.0107135384	-1.0432481073	 0.132405
H	 1.1274607614	 4.232378068	 0.7012133802	 0.118557
H	 2.9653890457	 2.3828649705	 1.3669301229	 0.125059
H	 2.2707063565	 0.6779153506	 1.286961625	 0.135676
H	 2.3166233673	 0.8031420426	-1.021279804	 0.248828
