21
gdb 60188	2.87405	0.89707	0.78047	2.1195	85.95	-0.2353	0.0546	0.2898	1541.9587	0.179723	-387.046645	-387.036358	-387.035414	-387.082321	38.29	
C	 0.1975469874	 1.4711208862	-0.0274739855	-0.404755
C	 0.0638681361	-0.0469211766	 0.1004319745	 0.137594
O	 0.2420647465	-0.4654558362	 1.452035732	-0.430015
C	-1.3173860992	-0.5389636602	-0.3394862675	-0.203209
C	-1.4391069854	-2.0460598597	-0.3719071451	 0.000657
C	-1.7562053061	-2.82549256	 0.8666708047	-0.268113
C	-2.7997050626	-2.7308451559	-0.2378712695	-0.217738
C	-3.9998756273	-1.9710519208	-0.0462314886	 0.34091
C	-5.0151452304	-1.3417312201	 0.1027872351	-0.48024
H	 1.1849915966	 1.8052393032	 0.312113348	 0.101742
H	 0.0788917572	 1.7935499122	-1.0671170148	 0.115316
H	-0.5597923667	 1.9734936062	 0.5828687245	 0.12578
H	 0.8262450365	-0.5241581512	-0.5401664599	 0.059736
H	 1.104131609	-0.1563736819	 1.7472392148	 0.279545
H	-2.0686635483	-0.1186502323	 0.3381571245	 0.115721
H	-1.5294153692	-0.1323125111	-1.3360386099	 0.097128
H	-0.7738595703	-2.5329230483	-1.0815764057	 0.08384
H	-1.2799267229	-3.7870597523	 1.0218145041	 0.111675
H	-1.9428224119	-2.2606351181	 1.7715214027	 0.135443
H	-2.9300338293	-3.6239368113	-0.842470357	 0.107942
H	-5.9111995898	-0.7896677018	 0.2404098587	 0.19104
