18
gdb 10197	3.10002	1.14289	0.87291	1.5572	70.71	-0.2582	0.0339	0.2921	1303.1873	0.150487	-384.885275	-384.875428	-384.874484	-384.920301	34.262	
C	-0.2206062692	 1.3887346039	-0.1044026103	-0.238407
O	 0.2043428576	 0.0524423182	 0.0693286478	-0.232981
C	 0.7276540353	-0.5469414561	-1.1071519634	-0.077009
C	 1.3512061723	-1.8869775409	-0.6959490512	-0.21434
C	 2.5138177658	-1.7219885323	 0.2864914974	-0.07179
O	 3.1237874383	-2.962982466	 0.6066928164	-0.419744
C	-0.3010657732	-0.7252839289	-2.1415436752	 0.337877
C	-1.1463898899	-0.8792188836	-2.9823398824	-0.456275
H	 0.6066611183	 2.0345460415	-0.4375802998	 0.104917
H	-1.0380346988	 1.4639334798	-0.8337055069	 0.122021
H	-0.5735770309	 1.7383192251	 0.8683001957	 0.12909
H	 1.5198299841	 0.1027165343	-1.5216852326	 0.092326
H	 0.5637638034	-2.504533161	-0.2471761364	 0.10769
H	 1.7041383946	-2.4065755995	-1.5919118496	 0.11871
H	 3.3035513445	-1.1144152553	-0.1707757489	 0.106938
H	 2.1716088921	-1.1919038043	 1.1845662348	 0.109692
H	 2.4884923027	-3.4796853039	 1.1123077756	 0.281877
H	-1.890610927	-1.0147601914	-3.7280156311	 0.19941
