19
gdb 79998	2.74245	1.7849	1.54418	1.648	79.27	-0.2266	-0.0003	0.2263	955.2647	0.160298	-385.795305	-385.788213	-385.787269	-385.82621	29.791	
C	-0.0860253799	 1.6239427453	 0.0593382782	-0.439177
C	 0.0510626841	 0.1133636327	 0.0870261442	 0.039164
C	 1.1625815358	-0.6256256652	-0.718078742	-0.167749
C	 2.4279082306	-0.0336314609	-0.0366695079	-0.076812
C	 2.1648995951	-0.0256667301	 1.2838025375	-0.215753
C	 0.7757288229	-0.6442098347	 1.2955868341	 0.219014
C	-0.1766521422	-1.5986655385	 2.01570773	-0.195488
O	-0.2680681236	-2.3972793013	 0.7832790582	-0.313033
C	 0.9792448093	-1.8038201576	 0.3158527205	 0.144212
H	 0.8615861427	 2.1304986604	 0.2582626759	 0.11734
H	-0.4470891421	 1.9545371237	-0.9212370433	 0.115184
H	-0.8167435635	 1.9602152877	 0.8035333294	 0.11224
H	-0.9198189696	-0.3541620164	-0.0920564594	 0.093102
H	 1.1703963612	-0.7155150502	-1.8061021889	 0.059109
H	 3.3118447716	 0.3129525692	-0.5529611105	 0.103275
H	 2.7753667266	 0.3170653419	 2.1064982069	 0.109239
H	 0.2692046763	-2.188284881	 2.827207071	 0.107292
H	-1.1554612458	-1.2150114028	 2.3202584867	 0.110117
H	 1.8094706403	-2.5087755924	 0.4151393896	 0.078721
