20
gdb 31997	2.8287	1.40643	1.01416	1.9609	88.29	-0.1875	0.0541	0.2416	1224.5964	0.172535	-366.024372	-366.015797	-366.014853	-366.058615	31.849	
C	-0.3918538489	 1.4578077414	-0.1858807606	-0.366364
C	 0.2500784956	 0.0924430355	 0.1192671988	-0.290454
C	 0.88023469	-0.5613274005	-1.0680986866	 0.234721
C	 2.2126309109	-0.8119402409	-1.3773253201	-0.213989
C	 2.3155413169	-1.4542791039	-2.6550023774	-0.33505
C	 1.0175557366	-1.5660338266	-3.0932929555	 0.331038
C	-0.1351119817	-1.9879227112	-3.9907532756	-0.377696
C	-1.056025665	-1.3795992563	-2.8627514985	-0.174108
N	 0.1865325478	-1.0315804315	-2.1551029155	-0.028326
H	 0.351239112	 2.1554608794	-0.5835536158	 0.123006
H	-1.1898952894	 1.3639081152	-0.9299826525	 0.111899
H	-0.8282531174	 1.8969271888	 0.7172175663	 0.109003
H	 1.0234880861	 0.2158468802	 0.8844776767	 0.111549
H	-0.509299248	-0.5690002018	 0.5595842074	 0.099602
H	 3.0433113643	-0.5493437223	-0.7373659372	 0.085749
H	 3.2216576244	-1.7732638404	-3.1451438716	 0.091541
H	-0.2107891882	-1.4815030749	-4.9570395868	 0.120804
H	-0.2616574613	-3.0630576186	-4.1449748241	 0.121494
H	-1.6608995285	-0.5165377075	-3.1563498635	 0.1221
H	-1.6824830962	-2.1030531842	-2.332415688	 0.123482
