21
gdb 115687	2.13272	1.42276	1.0315	3.0261	79.64	-0.2374	-0.0055	0.2319	1260.9672	0.180334	-424.229271	-424.219292	-424.218347	-424.26471	35.738	
C	-0.5558003657	 1.518160971	 0.35614134	-0.241965
O	-0.5514950371	 0.1997549112	 0.8605293258	-0.24057
C	-1.3682232243	-0.6779169732	 0.1319922836	 0.159335
C	-0.9124094037	-1.1670040409	-1.2677196195	-0.2509
C	-1.361112361	-2.5971925526	-0.8582477321	-0.235655
C	-1.3462963433	-2.1579675344	 0.6289849782	-0.170224
C	-0.0515476469	-2.5057080507	 1.3610227596	 0.399337
C	-0.0225870397	-2.1783661599	 2.8396920291	-0.480264
O	 0.8908083831	-3.0069100986	 0.7904390676	-0.307931
H	 0.0931815107	 2.1148133267	 1.000930945	 0.130902
H	-0.1723872743	 1.5633344561	-0.6731403196	 0.115957
H	-1.5683756639	 1.9508474191	 0.3683841301	 0.106244
H	-2.4010669857	-0.2961294446	 0.1012830909	 0.06834
H	-1.3762791018	-0.7100074619	-2.144214528	 0.094867
H	 0.1755073563	-1.1097720846	-1.3539994742	 0.12678
H	-2.3666913702	-2.8436457854	-1.2057943059	 0.098071
H	-0.6734776189	-3.4062580602	-1.103130379	 0.126742
H	-2.1990372975	-2.4395259681	 1.2535997465	 0.078874
H	-0.8021526631	-2.7390184248	 3.3684362935	 0.129531
H	 0.9539630968	-2.4249200884	 3.2584162877	 0.134768
H	-0.2359113997	-1.113325996	 2.9735358507	 0.157763
