19
gdb 37084	2.12275	2.04999	1.31392	1.659	79.66	-0.2476	0.0816	0.3293	1026.6982	0.159022	-385.818905	-385.811226	-385.810282	-385.850795	30.957	
C	-0.0341768489	 1.5314104851	 0.0935574629	-0.33532
C	 1.2452508825	 0.7447454464	-0.0865694651	-0.326153
C	-0.0659325122	 0.0316154874	 0.0279301099	 0.307499
C	-0.4682492708	-0.9830760951	 1.0868808642	-0.155466
C	-1.9437752731	-1.256684942	 1.0019621768	-0.297179
C	-1.0291290606	-1.9031389799	-0.0090034709	-0.147932
C	-0.6302056185	-0.8808026335	-1.0560674519	 0.398551
C	-1.1738597543	-0.6105771815	-2.3870419465	-0.273401
O	 0.1192113747	-1.2212043334	-2.2084407304	-0.282579
H	-0.2151943129	 2.0024785569	 1.0544350523	 0.113597
H	-0.4152729046	 2.090243851	-0.7555391029	 0.111092
H	 1.7188977091	 0.7433858704	-1.0625152667	 0.128385
H	 1.9330532501	 0.687498196	 0.7508707161	 0.11345
H	 0.1290119113	-1.2526588382	 1.9491458475	 0.09272
H	-2.3425593605	-1.9298701563	 1.7546483941	 0.114531
H	-2.6292028873	-0.4692824975	 0.6982656351	 0.111584
H	-0.9339761901	-2.9752706256	-0.1224797415	 0.101274
H	-1.9429834619	-1.2602118698	-2.8033029865	 0.11422
H	-1.1538912221	 0.4008399797	-2.7918748463	 0.111128
