14
gdb 33763	2.55282	1.64455	1.27384	3.7871	67.52	-0.2778	-0.0173	0.2605	984.6971	0.099892	-436.587692	-436.580458	-436.579514	-436.619459	27.499	
N	 0.0918758337	-1.1127616126	-0.0086531348	-0.337766
C	 0.0352161602	 0.0413369007	 0.0098579439	 0.179087
C	-0.0820099157	 1.4752183322	 0.008362236	 0.215882
C	-0.7068022523	 2.4269058999	 1.0686432366	-0.262417
C	 0.0290756033	 3.2920480657	 0.0122009299	-0.067997
O	 1.1424511146	 2.3050896	 0.0267034406	-0.322154
C	-0.6126092486	 2.4345269414	-1.091447082	 0.479118
C	-0.691317342	 2.4147041461	-2.535703032	-0.292391
O	-1.8679644623	 2.5054044779	-1.6717320533	-0.27054
H	-1.7956286684	 2.4830706028	 1.1156751472	 0.137572
H	-0.2198360824	 2.3856426057	 2.0425759692	 0.132102
H	 0.2899017367	 4.3468567547	 0.0327810744	 0.124104
H	-0.4759929254	 3.3144600952	-3.1069950392	 0.138725
H	-0.5936081214	 1.4737864303	-3.0718484764	 0.146675
