16
gdb 126941	6.56644	0.81122	0.73299	4.8418	68.94	-0.2263	0.0209	0.2472	1507.1684	0.124819	-471.216739	-471.208082	-471.207138	-471.250903	31.005	
C	 0.1287803602	 1.4720562013	-0.0499423527	-0.397725
C	-0.1417331976	-0.0201038415	 0.1084325391	-0.12928
N	 0.5704420734	-0.5491236091	 1.2669370357	-0.405936
C	 0.8110085416	-1.860572573	 1.452660835	 0.573418
N	 1.265786772	-2.4360523451	 2.5407665905	-0.467644
C	 1.3495853121	-3.7368850547	 2.1264504485	 0.446405
O	 1.7831531533	-4.7038607398	 2.9369278328	-0.404645
N	 0.9847818069	-4.0010307779	 0.8977231985	-0.227575
O	 0.6063139611	-2.6970023796	 0.4327455906	-0.224494
H	 1.1963164688	 1.6645175986	-0.1885845072	 0.136457
H	-0.4105016709	 1.8618479417	-0.9171660543	 0.133469
H	-0.2095960756	 2.032418673	 0.8290860697	 0.121952
H	-1.2220958268	-0.2043672535	 0.1952059388	 0.118519
H	 0.2049813057	-0.5680569852	-0.7712419449	 0.147978
H	 0.5917217968	 0.005086229	 2.1087268908	 0.264006
H	 1.9981298788	-4.2845627343	 3.7787656691	 0.315097
