19
gdb 133747	2.31412	1.2558	1.20881	2.4102	64.15	-0.2293	0.0756	0.3049	1155.0412	0.153622	-550.716301	-550.706199	-550.705254	-550.751009	37.167	
C	-0.1776745246	 1.446127005	 0.0982115587	-0.32795
N	 0.0549518234	 0.012945201	-0.0269061294	-0.307421
C	 0.7451106413	-0.4541293496	-1.2344561758	 0.108468
C	-0.0168414311	-0.0186820334	-2.4952594993	-0.424981
C	 2.2262937211	-0.0240967379	-1.3142910138	-0.434319
C	 0.6934800888	-1.991658126	-1.1523258559	 0.298932
F	-0.5518873882	-2.4688770571	-1.2068470648	-0.072187
F	 1.3837742599	-2.5598270937	-2.1570995881	-0.08698
F	 1.2425520941	-2.4302925666	-0.0010114716	-0.097723
H	 0.7198610299	 2.0792507455	-0.0040072611	 0.098688
H	-0.9089096781	 1.7798069019	-0.6435927411	 0.129195
H	-0.6079472355	 1.6380608214	 1.0850143651	 0.126091
H	 0.558386475	-0.3241709141	 0.7857975367	 0.222987
H	 0.1047449681	 1.053288815	-2.6672324359	 0.121098
H	 0.3725520061	-0.5433303791	-3.3708395957	 0.13163
H	-1.0810077635	-0.241335362	-2.3947931761	 0.139265
H	 2.7861797875	-0.4004941867	-0.4532876339	 0.123032
H	 2.7036873821	-0.4004406615	-2.2222910114	 0.13038
H	 2.2980448037	 1.0663253778	-1.3218456466	 0.121795
