21
gdb 59803	3.05173	0.92963	0.82418	2.2965	83.58	-0.2306	0.0272	0.2578	1505.2619	0.180941	-420.397858	-420.387556	-420.386612	-420.433915	37.202	
C	-0.1799742538	 1.4085607628	-0.0319803576	-0.366808
C	-0.0664213254	-0.1161903494	 0.1009207557	 0.047943
C	 0.5779650976	-0.5159563075	 1.4321799451	-0.369323
N	-1.402400085	-0.7056331646	 0.0295613635	-0.336147
C	-1.7769285377	-1.2968938156	-1.0198938452	 0.364748
N	-1.265752981	-1.6075510899	-2.2786877404	-0.353797
C	-2.2748720648	-2.6607407486	-2.5247083921	-0.183887
C	-3.0377893519	-2.1194860589	-1.2746112365	 0.041246
O	-3.3451680749	-3.053861173	-0.2753202965	-0.437533
H	 0.8037842006	 1.8815398662	 0.0554390128	 0.10671
H	-0.6113673447	 1.6857038186	-0.9984154893	 0.114114
H	-0.828504263	 1.8066425849	 0.7546775584	 0.123871
H	 0.5820420966	-0.4814373329	-0.7147489864	 0.045924
H	 1.5795007143	-0.0839507019	 1.527757544	 0.105363
H	-0.035419732	-0.1633670234	 2.2673912437	 0.121841
H	 0.6628975888	-1.6038152985	 1.5129742026	 0.108857
H	-0.2895372235	-1.6536500725	-2.5334495624	 0.246245
H	-2.7745914609	-2.5833024872	-3.4937493373	 0.110601
H	-1.9163505665	-3.681210992	-2.3577761982	 0.119067
H	-3.9148597131	-1.5169313869	-1.5437131188	 0.094776
H	-2.9855516497	-2.6932601996	 0.5451364147	 0.29619
