18
gdb 12125	3.96624	1.684	1.6577	1.9328	71.59	-0.221	0.0729	0.294	898.1747	0.152031	-347.739567	-347.731892	-347.730948	-347.770868	30.16	
C	-0.0750458912	 1.5409182999	 0.0045762675	-0.493984
C	 0.010478456	 0.0434620483	 0.0121244655	 0.321186
C	-0.8621547408	-0.8746921255	 0.8235109615	-0.332327
C	 0.6322471559	-0.898271674	 1.0392112057	-0.186916
C	 1.3732216658	-1.6421103229	-0.1237176268	 0.427542
C	 2.6967187702	-2.3238979495	-0.0328884502	-0.503473
O	 0.3888060647	-2.1510650898	-1.0429484099	-0.283787
C	 0.7532870606	-0.7617437029	-1.1097646891	-0.117114
H	 0.8922866429	 1.999239635	-0.2345128116	 0.115842
H	-0.8013511384	 1.8967255051	-0.7368530951	 0.121337
H	-0.3880463032	 1.9201215924	 0.9826430977	 0.12057
H	-1.4217909385	-0.3816451476	 1.6131605069	 0.105539
H	-1.3586997732	-1.72048383	 0.3649073928	 0.1322
H	 1.1008188696	-0.6454450644	 1.9822078013	 0.086652
H	 2.6214286954	-3.2416083809	 0.5619652082	 0.131262
H	 3.0586743292	-2.5889533725	-1.029747634	 0.133613
H	 3.4340288815	-1.6729513354	 0.4486629338	 0.125177
H	 1.0979188638	-0.3788633552	-2.0646217841	 0.096682
