20
gdb 41792	2.28721	2.02121	1.50276	2.3804	78.24	-0.2352	0.0326	0.2679	969.6168	0.175049	-403.173885	-403.16654	-403.165596	-403.206032	29.207	
C	-0.0840719808	 1.5563265423	-0.200660576	-0.217253
C	 1.3784236104	 2.0751281132	-0.2127290835	-0.228472
C	 2.2724965488	 0.8441450389	 0.0499656172	 0.132298
C	 1.4304542578	-0.3402408184	-0.4275625807	-0.247112
C	 0.0055633413	 0.0209043214	 0.0233496883	-0.014715
C	-0.2419547268	-0.3817204108	 1.4841615877	-0.162708
N	 0.6124914121	 0.129747395	 2.535975486	-0.260463
C	 1.7963228089	 0.5525965237	 2.4504395626	 0.124468
O	 2.6697215161	 0.7555002849	 1.4285274798	-0.24338
H	-0.6829794616	 2.0341778487	 0.5795967677	 0.10925
H	-0.5741470629	 1.7732992445	-1.1538874648	 0.098395
H	 1.6336510892	 2.4992297256	-1.1884382607	 0.103532
H	 1.5727621183	 2.8495343867	 0.5327726326	 0.114898
H	 3.2302745234	 0.914050029	-0.4695312615	 0.086491
H	 1.4890275638	-0.3841755179	-1.5215686553	 0.100036
H	 1.7913176069	-1.2957563245	-0.0357902927	 0.107011
H	-0.7456331731	-0.5039711291	-0.576802812	 0.067333
H	-1.2717215859	-0.1113595516	 1.7519041007	 0.10607
H	-0.2007418678	-1.4792002414	 1.5538761927	 0.109617
H	 2.3182689919	 0.8164859297	 3.3718874919	 0.114706
