15
gdb 70949	3.649	1.33348	1.1	2.4605	66.7	-0.2395	-0.0358	0.2037	1054.5935	0.11029	-457.668205	-457.660499	-457.659555	-457.700541	29.008	
O	-0.0606680769	 1.3336577501	 0.0708656633	-0.456405
C	 0.0647016963	-0.0294070098	 0.06877656	 0.364585
C	 0.7988531314	-0.9566837074	 1.067414602	-0.39642
C	 0.118738739	-1.9392741256	 0.1005762489	 0.231909
C	 0.1075828551	-3.4192435654	 0.0671834397	 0.027514
O	 0.7050918056	-4.1217923597	 0.8462533272	-0.253376
C	-1.1353977847	-1.0073034197	-0.106471325	-0.005683
O	-1.0820430401	-1.0481025856	-1.5579658852	-0.316092
C	 0.3124601925	-1.0063950709	-1.1520218471	-0.038598
H	 0.8132408966	 1.7304869371	 0.1568475851	 0.294164
H	 1.8915327565	-0.9394441792	 1.0469391555	 0.111085
H	 0.4294724891	-0.955852919	 2.095325925	 0.119793
H	-0.5067701441	-3.8485478789	-0.753694235	 0.093762
H	-2.1024004389	-1.041353809	 0.3942398839	 0.114008
H	 1.0903903124	-1.0395936172	-1.9145501384	 0.109754
