16
gdb 24591	4.73336	1.11021	1.0112	1.3213	70.99	-0.2442	-0.0097	0.2345	1175.8707	0.126201	-437.891985	-437.884602	-437.883657	-437.92524	26.647	
C	-0.1286815066	 1.1151186243	-0.0936381903	-0.059608
C	 1.3683130128	 1.4657301196	-0.1986845768	-0.294333
C	 1.5788281565	 0.2415909504	 0.7168589697	 0.026454
O	 0.1529507344	-0.0383641064	 0.732660686	-0.289839
C	 2.373932	-0.8797461528	 0.1430943514	 0.40087
N	 2.6807143041	-1.106460472	-1.09681426	-0.304746
C	 3.378583069	-2.304309483	-1.0731610744	-0.110916
C	 3.4575332289	-2.7428698118	 0.2053638794	-0.040914
O	 2.8202556285	-1.8357266525	 0.9992771599	-0.170912
H	-0.7527808888	 1.8454030217	 0.4348445733	 0.103664
H	-0.6208681829	 0.8336515978	-1.0310628673	 0.113545
H	 1.8032136537	 1.3466507681	-1.1899864541	 0.144387
H	 1.6685865783	 2.4213529237	 0.2316402523	 0.113258
H	 1.9393975194	 0.455169751	 1.7299841172	 0.09317
H	 3.7708435867	-2.7543018137	-1.9711537334	 0.127018
H	 3.892700516	-3.5953288743	 0.697662777	 0.148903
