19
gdb 14975	4.34916	1.39021	1.11781	2.3548	71.66	-0.2433	0.0291	0.2724	1085.5556	0.167265	-365.082669	-365.074725	-365.073781	-365.115181	29.374	
C	-0.0223084013	 1.5669061305	-0.1001867052	-0.393419
C	-0.0048494689	 0.0387226023	 0.0205334386	-0.185478
C	 0.7082375708	-0.4994652634	 1.268838846	-0.018015
C	-0.032533145	-0.1625700191	 2.5614457236	-0.071793
O	 0.6247681278	-0.7182442634	 3.7104478663	-0.227086
C	 1.1891763149	-1.9377442568	 3.5345115766	 0.127767
N	 1.3306600278	-2.6148820367	 2.4771837877	-0.274246
C	 0.8808094507	-2.0246420203	 1.2195831092	-0.165231
H	 0.9943966543	 1.9748622364	-0.0915157678	 0.119654
H	-0.4969439358	 1.8782706486	-1.0356063019	 0.118094
H	-0.5757552245	 2.0390226732	 0.7179413702	 0.119623
H	-1.0339622796	-0.3457401389	 0.0023024998	 0.098004
H	 0.4886206341	-0.3848391695	-0.863355167	 0.102674
H	 1.7068635501	-0.0449205757	 1.3312097294	 0.085818
H	-0.0845763716	 0.9118985706	 2.7484541844	 0.117601
H	-1.0589286691	-0.5548019208	 2.5240059908	 0.10814
H	 1.5505195208	-2.3141499492	 4.490104159	 0.121328
H	-0.0660969953	-2.5021873583	 0.9278394542	 0.106881
H	 1.6051851897	-2.2961692795	 0.4426775362	 0.109683
