15
gdb 54390	2.63564	1.37329	1.29075	2.4537	67.76	-0.256	-0.0405	0.2155	1048.7704	0.109283	-457.720006	-457.711563	-457.710619	-457.754076	30.072	
C	-0.1612614198	 1.4645681797	-0.0859611503	-0.49213
C	-0.105816792	-0.0379633924	 0.0480439536	 0.242722
O	-0.1033424591	-0.6317755515	 1.1020502008	-0.294588
C	-0.0011879044	-0.8139900263	-1.2293493811	 0.203693
C	-0.6105361991	-2.1742553752	-1.6337655717	-0.259889
C	-0.0146836075	-1.5766672844	-2.9302418679	-0.074075
O	-0.5146483421	-0.2409971282	-2.5081373424	-0.329659
C	 1.2510713397	-1.1897274526	-2.125897133	 0.440394
O	 2.424860879	-1.0744536949	-2.1902322524	-0.28985
H	 0.731746201	 1.8252948247	-0.6091214782	 0.157721
H	-1.0211169765	 1.7562534659	-0.6980663021	 0.158752
H	-0.2251221402	 1.9194737249	 0.9028105749	 0.146527
H	-0.1753295203	-3.0849705044	-1.2189063358	 0.133511
H	-1.7014138262	-2.1690076651	-1.6251489463	 0.130733
H	-0.1609864624	-1.8607250005	-3.9696104782	 0.126137
