15
gdb 84187	3.54144	1.16408	0.91831	2.6984	76.59	-0.25	-0.0507	0.1993	1222.9325	0.111965	-416.82866	-416.820268	-416.819324	-416.861763	30.923	
C	-0.0714275573	 1.5647335813	 0.0153703202	-0.385155
C	 0.0423560305	 0.0383551001	-0.017954963	-0.11939
N	 0.8119182491	-0.4452749278	-1.1705925602	-0.300937
C	 1.765106839	-1.1607962014	-0.6926496649	 0.227171
N	 1.7878851587	-1.2683874018	 0.7019952044	-0.391894
C	 0.7407883096	-0.52375429	 1.2321608391	 0.414917
O	 0.4807299424	-0.3719241869	 2.3993996922	-0.367472
C	 2.7610700038	-1.8284538506	-1.4605448578	 0.269951
C	 3.6192356018	-2.4065609223	-2.0719869335	-0.367556
H	 0.9201829881	 2.0258563948	 0.0269893331	 0.127869
H	-0.6068435305	 1.9208663142	-0.8672657994	 0.134605
H	-0.6091606565	 1.8706783601	 0.9163713443	 0.141663
H	-0.9662267634	-0.3934737795	-0.0684246254	 0.129448
H	 2.4765213926	-1.7623646555	 1.2465303834	 0.273209
H	 4.369244322	-2.9117808547	-2.6302785325	 0.21357
