20
gdb 102967	2.50052	0.78159	0.61564	1.2286	77.49	-0.2407	-0.0382	0.2025	1757.3999	0.166802	-440.287361	-440.276469	-440.275524	-440.325482	36.816	
C	-0.1052210543	 1.5002070034	-0.7144341116	-0.397718
C	 0.0491563613	 0.0352499437	-0.3009145077	-0.173312
C	 0.9573675906	-0.8000611039	-1.2155039044	-0.064712
N	 2.380490576	-0.4693811599	-1.2178211547	-0.313377
C	 2.8885098055	 0.4951123727	-2.1766725826	-0.234426
C	 4.368142604	 0.2507451806	-2.4457459681	 0.154843
O	 5.1637737627	 1.1152591603	-2.7005677717	-0.233042
C	 0.8320586511	-2.2987328576	-0.9100757221	 0.161866
O	-0.0675543505	-2.8073867126	-0.2950794935	-0.243878
H	 0.8449680795	 2.0415485609	-0.6744989694	 0.120552
H	-0.4959060022	 1.5883802884	-1.7344305304	 0.116557
H	-0.8028776716	 2.0168361222	-0.0484956748	 0.122847
H	 0.4397903788	-0.0272966264	 0.7237280161	 0.099442
H	-0.9280021573	-0.4571024792	-0.2705927026	 0.127205
H	 0.6075253783	-0.7011524414	-2.2561022208	 0.10515
H	 2.6980303789	-0.2553315123	-0.2796326147	 0.228324
H	 2.3743956146	 0.331314984	-3.1347593718	 0.134914
H	 2.7530823192	 1.5555865117	-1.9198491248	 0.120357
H	 4.6518015595	-0.8245883206	-2.3885354471	 0.084075
H	 1.6806859858	-2.890799804	-1.3195004631	 0.084332
