23
gdb 87988	2.55832	1.23726	1.19795	1.7455	85.56	-0.2365	0.0813	0.3178	1239.9689	0.203238	-388.273793	-388.263759	-388.262815	-388.308222	38.139	
C	-0.0989883071	 1.4494551769	-0.131527031	-0.410986
C	 0.1402046884	-0.0426159958	-0.0584765497	-0.059626
C	 1.5460700457	-0.6047405413	-0.0868563829	-0.360529
C	 0.7302775817	-0.670193188	 1.1694268223	 0.254361
C	 1.0190702388	-0.0305130618	 2.520490153	-0.14647
O	 0.5572964814	-1.2101284772	 3.207989981	-0.332364
C	 0.2566835251	-1.9069017128	 1.9578028688	 0.355872
C	-1.2306783206	-2.2245040657	 1.8733444571	-0.425415
C	 1.12230587	-3.1533553623	 1.8246726147	-0.423768
H	 0.6847282086	 2.0038171312	 0.3957891192	 0.115928
H	-0.1063905043	 1.7974920423	-1.1701406727	 0.119302
H	-1.0590552562	 1.7248680903	 0.3193092737	 0.119392
H	-0.6077611193	-0.6422826135	-0.5733493374	 0.083682
H	 1.7260859425	-1.5235739606	-0.6362404651	 0.110675
H	 2.3742274322	 0.098365454	-0.114173373	 0.108119
H	 2.0743847825	 0.1850883767	 2.7362067563	 0.09631
H	 0.4200368024	 0.8544653436	 2.7754818914	 0.097048
H	-1.8277360731	-1.3156315337	 1.9847918586	 0.11757
H	-1.4810865685	-2.6896667547	 0.9135539578	 0.110233
H	-1.5113676606	-2.9206521166	 2.6704637949	 0.121336
H	 0.8818028181	-3.864195624	 2.6218590521	 0.120894
H	 0.9515098007	-3.6506338897	 0.8634868546	 0.109447
H	 2.1825741715	-2.8980888174	 1.8986940266	 0.118989
