18
gdb 33972	2.34234	1.70957	1.19993	1.3443	84.3	-0.2212	0.0285	0.2497	1076.6456	0.146884	-364.717185	-364.709044	-364.708099	-364.749584	32.318	
C	 0.0111808641	-1.2145749357	-0.0964432621	-0.428375
C	 0.0384670742	-0.0136894125	-0.0090536515	 0.184291
C	 0.0300329337	 1.3997493838	 0.1182841043	 0.153766
N	 0.2112052904	 2.3079341892	-1.0624575138	-0.376202
C	 1.1491127621	 2.4037747688	 0.0702210947	-0.118195
C	 0.4719264426	 3.2731728449	 1.139186725	-0.311885
C	-0.678412418	 2.2381373994	 1.1753192754	 0.332694
C	-2.1514926842	 2.4400619231	 1.3333960069	-0.315625
C	-1.3617861914	 1.6969420316	 2.3914608541	-0.339647
H	-0.0007800224	-2.2734008405	-0.1747904024	 0.188763
H	 0.6681088135	 1.7502604583	-1.7853534691	 0.234533
H	 2.208621723	 2.2233442062	-0.0617903787	 0.107623
H	 1.0327961902	 3.3118899913	 2.076437121	 0.107335
H	 0.216425365	 4.284644081	 0.8133318495	 0.112053
H	-2.5024627594	 3.4400805905	 1.5661811537	 0.114359
H	-2.8160225897	 1.869481189	 0.6933344651	 0.120308
H	-1.4884410064	 0.6210965943	 2.4592870497	 0.123239
H	-1.1802432674	 2.1897842974	 3.3413450381	 0.110966
