16
gdb 66462	3.01262	1.72142	1.51781	1.885	67.18	-0.2228	0.0575	0.2803	901.9509	0.124318	-437.777402	-437.770386	-437.769442	-437.808262	29.111	
O	-0.0640646296	 1.280839867	 0.0882203759	-0.468117
C	 0.0574071028	-0.0871957376	 0.0630676131	 0.452175
C	-0.137994282	-0.9614867136	-1.1810947822	-0.132394
C	-1.0526169829	-1.0997957636	 0.0292291191	-0.226984
C	-0.021181393	-2.1264420104	 0.5717597125	 0.431252
O	-0.3804532427	-3.171505452	 1.3857821249	-0.471257
C	 0.7837111778	-2.1390699261	-0.8051858562	-0.145014
N	 2.0007732284	-1.4994395919	-0.2043986857	-0.321305
C	 1.0547034257	-0.9845029662	 0.8370193346	-0.238459
H	 0.6656020518	 1.6545502735	-0.4202377148	 0.289694
H	-0.368570291	-0.5446468394	-2.1519258761	 0.09384
H	-2.1243386989	-1.008977945	 0.1237008808	 0.1049
H	 0.4141607411	-3.6471512925	 1.655441246	 0.284544
H	 0.9169195158	-2.9792202824	-1.4874370643	 0.070359
H	 2.5722851007	-2.2343583764	 0.2146914569	 0.203216
H	 1.439182646	-0.6607977837	 1.8042218554	 0.073551
