17
gdb 125162	3.30941	1.56927	1.07873	2.1502	83.15	-0.2008	0.0027	0.2035	1091.9623	0.138567	-380.907351	-380.899733	-380.898789	-380.939871	29.096	
C	-0.0194006637	 1.5349680466	 0.1346450414	-0.505917
C	 0.0087450783	 0.0554543176	-0.0668485513	 0.159659
C	-0.0020857716	-0.7487954124	-1.1878949222	 0.19728
C	-0.0393404983	-0.8073421387	-2.6433919176	-0.223128
C	-0.0194211251	-2.1002918672	-3.0268120249	-0.086305
C	 0.0343413136	-3.0522448084	-1.8365827652	-0.405621
C	 0.0419295788	-2.0757642272	-0.6948884851	 0.320599
N	 0.078148821	-2.1395510038	 0.6221693774	-0.332341
N	 0.05732122	-0.8263251947	 0.9831773959	-0.253749
H	 0.8777958177	 1.8949845268	 0.6522009403	 0.135816
H	-0.0709995539	 2.042673631	-0.8306608411	 0.141202
H	-0.8884226284	 1.851277492	 0.7237489773	 0.135418
H	-0.0768944394	 0.0442847481	-3.3110116964	 0.093994
H	-0.0383940238	-2.452925941	-4.0502423785	 0.095388
H	-0.8284935428	-3.7301067773	-1.8157336705	 0.131709
H	 0.9276180757	-3.6892743314	-1.8623385262	 0.131703
H	 0.0780289621	-0.5980473602	 1.9627537567	 0.264293
