19
gdb 112187	2.60004	1.23451	1.02914	2.2191	72.75	-0.2409	-0.0312	0.2097	1234.2432	0.155014	-460.157151	-460.146919	-460.145975	-460.192646	36.353	
C	-0.3433414647	 1.5459755739	-0.0738166155	-0.240286
O	-0.3016833835	 0.2910083314	 0.5715511299	-0.240088
C	-1.2665496761	-0.6050603097	 0.1080269056	 0.103562
C	-1.0185591456	-1.3020205431	-1.2772358889	-0.402764
C	-1.3817806124	-2.6141171195	-0.5791734354	 0.351693
O	-1.8087365275	-3.6763827731	-0.9358584107	-0.312406
C	-1.2474595349	-1.9920056487	 0.8254926513	 0.248467
C	 0.0696556948	-2.3154300092	 1.5292639656	-0.425269
O	-2.3619787074	-2.2224440165	 1.6602519737	-0.477879
H	 0.4272748943	 2.1701325416	 0.3839062897	 0.132848
H	-0.138015577	 1.4601045929	-1.1512752052	 0.110234
H	-1.3218601559	 2.0329744309	 0.0545785803	 0.112484
H	-2.2765089021	-0.1761273381	 0.1633920574	 0.09023
H	-1.6287949266	-1.0198281006	-2.1370963989	 0.132983
H	 0.0409398953	-1.2677635537	-1.554179908	 0.140071
H	 0.9359923531	-2.115192129	 0.8933031677	 0.121544
H	 0.1574646494	-1.7007971237	 2.4280924626	 0.142098
H	 0.0795107668	-3.3713473786	 1.8155809716	 0.120126
H	-2.64439073	-3.1327981671	 1.5070485471	 0.292352
