19
gdb 39389	2.36362	2.1791	1.45581	1.7624	74.11	-0.2552	0.0559	0.3111	936.4495	0.161579	-422.963745	-422.956852	-422.955908	-422.994605	28.9	
C	-0.0037806866	 1.5402615617	-0.1267784388	-0.280112
C	 1.5272425192	 1.324237761	 0.0273364738	-0.039125
C	 1.1966652867	 0.0516336636	 0.8946657253	-0.313492
C	-0.0207297943	 0.0190727868	-0.0312948751	 0.418047
O	-1.0765772702	-0.8517620668	-0.3532142408	-0.316405
C	 0.0854927039	-0.815566568	-1.2238239013	-0.049925
C	 0.1854565504	-0.0833543843	-2.5395736171	-0.112681
O	 1.1762137127	 0.962601573	-2.4666672207	-0.26831
C	 2.113262037	 0.9795677754	-1.3863964785	-0.073992
H	-0.4411969893	 1.9955989453	 0.7661501007	 0.098876
H	-0.3648878834	 2.032991854	-1.026782201	 0.122064
H	 2.1097005675	 2.1041552949	 0.5208800277	 0.074613
H	 1.886592542	-0.7953457356	 0.8676825969	 0.100576
H	 0.977790737	 0.3319291371	 1.9290661222	 0.105303
H	 0.6749707117	-1.7277449626	-1.1436433025	 0.100632
H	 0.4598616386	-0.7662923804	-3.3536910058	 0.102335
H	-0.7665809147	 0.3922015945	-2.7975982578	 0.122597
H	 2.8134190522	 1.7663605823	-1.6792335612	 0.114719
H	 2.6814816996	 0.0383841981	-1.3400615964	 0.094282
