21
gdb 109264	3.02412	1.23766	0.9884	1.4342	84.2	-0.2229	0.0347	0.2576	1256.0976	0.183779	-387.088937	-387.080368	-387.079424	-387.122466	32.763	
O	-0.1545686194	 1.4121541925	-0.3564255343	-0.414569
C	-0.1340253393	 0.0022544706	-0.218012296	-0.180052
C	-1.5122583365	-0.5076097858	 0.057177053	 0.310738
C	-2.6203581424	 0.2240722888	 0.1970064107	-0.154242
C	-3.8444195703	-0.6074811231	 0.5060390886	-0.27939
C	-3.3364750982	-2.0507708631	 0.3251861415	 0.001745
C	-3.3663729266	-2.6323962244	-1.1207799617	-0.218511
C	-1.8255574258	-2.8312807011	-1.0784275297	-0.22381
C	-1.7744760905	-1.9841645192	 0.2308150868	-0.121499
H	 0.7429785127	 1.7073416031	-0.5326271289	 0.288006
H	 0.2603805037	-0.4828081118	-1.1287263503	 0.093952
H	 0.5344894485	-0.3102801293	 0.6050932222	 0.091415
H	-2.6436846098	 1.3041214539	 0.1176837848	 0.102512
H	-4.2089286864	-0.4131363708	 1.5247968313	 0.098381
H	-4.6852742977	-0.3846963983	-0.1648265849	 0.098559
H	-3.7290549374	-2.7448587292	 1.0706830414	 0.061434
H	-3.9645586852	-3.535085761	-1.2667541424	 0.094484
H	-3.6824296039	-1.8904294904	-1.859453772	 0.101247
H	-1.5380746133	-3.8726378688	-0.9087396899	 0.095443
H	-1.2561453172	-2.4529391093	-1.93211755	 0.093004
H	-1.1793954848	-2.4184404831	 1.0430997097	 0.061151
