23
gdb 116860	3.73565	0.56265	0.55214	1.4259	92.05	-0.242	0.0621	0.3041	2144.6713	0.202239	-388.27283	-388.261087	-388.260143	-388.310696	41.82	
C	-0.0499447725	 1.5439160261	-0.0258074509	-0.389269
C	 0.0079271145	-0.0001804862	 0.0106055749	 0.079725
C	 0.7614241346	-0.4601177679	 1.2792128605	-0.389614
C	-1.42819641	-0.5710976742	 0.0261641381	-0.389442
C	 0.7142271349	-0.4881882405	-1.1814066536	 0.16373
C	 1.2960475754	-0.8776830646	-2.1623756561	-0.055989
C	 1.9913396057	-1.3805884205	-3.3411722514	-0.322757
C	 1.9189286716	-2.9066097741	-3.4607050004	-0.061453
O	 2.6249329054	-3.2649476203	-4.6369124213	-0.415859
H	 0.9562939724	 1.9721868197	-0.0382954447	 0.119254
H	-0.5782917588	 1.8935597701	-0.9172728871	 0.119123
H	-0.5754225549	 1.923090946	 0.8575065773	 0.107721
H	 0.244631001	-0.10301008	 2.1767945721	 0.107719
H	 0.817224212	-1.551507528	 1.3262237819	 0.116907
H	 1.7822284189	-0.0677072084	 1.2908045928	 0.118986
H	-1.9824814919	-0.2570880592	-0.8628500541	 0.118746
H	-1.4136774348	-1.6645662442	 0.0482389997	 0.116765
H	-1.9668736995	-0.2160128639	 0.9115371567	 0.10782
H	 1.5682442887	-0.9435198032	-4.2541336965	 0.133853
H	 3.0480926845	-1.08674584	-3.3203087591	 0.133789
H	 2.3621032869	-3.3643037545	-2.5636212343	 0.096021
H	 0.8650101418	-3.2194382659	-3.5063742146	 0.096119
H	 2.593439724	-4.2214249762	-4.7282669499	 0.288106
