18
gdb 52453	2.64118	0.76819	0.61876	3.5174	71.88	-0.2622	-0.0357	0.2265	1731.2362	0.144027	-476.206237	-476.195934	-476.19499	-476.244181	33.865	
N	-0.9150883147	 1.0828898279	-0.4705416829	-0.441906
C	-0.8147047657	-0.1707480708	-0.5630637072	 0.134472
O	-0.8715843613	-0.9296650601	 0.5537924063	-0.181415
C	-0.9265106921	-2.3386942237	 0.3794281329	-0.101233
C	-2.3538153358	-2.830703092	 0.2142972555	-0.056464
O	-2.8296944027	-2.4012562657	-1.0442934359	-0.25054
C	-4.1968956708	-2.6527409871	-1.2538186876	-0.144601
C	-4.5833414652	-2.0860204666	-2.609538841	 0.142194
O	-5.6585605947	-2.2550287005	-3.1175849918	-0.232168
H	-0.818444079	 1.5060214221	-1.3911784654	 0.22854
H	-0.6632579859	-0.7538503163	-1.4796905252	 0.092678
H	-0.3242157976	-2.6495572863	-0.4842732717	 0.118001
H	-0.490479955	-2.7766160875	 1.2813252464	 0.127064
H	-2.3751823178	-3.9309376224	 0.2867437563	 0.098323
H	-2.9774924303	-2.4239740082	 1.0250360418	 0.114295
H	-4.4293297908	-3.729767326	-1.2356882314	 0.125724
H	-4.8226456304	-2.1721292524	-0.4825905693	 0.13163
H	-3.7769079302	-1.4892284843	-3.0898204098	 0.095406
