18
gdb 103013	1.96473	1.45196	1.13754	3.8527	73.76	-0.2288	0.0253	0.2541	1160.2489	0.1481	-435.243154	-435.233418	-435.232473	-435.277452	35.842	
N	-0.2601246172	 1.4369108804	-0.1153146148	-0.522086
C	-0.1283735471	 0.0041130352	-0.0694439565	-0.082993
C	-0.4539294302	-0.6607575884	 1.2424207866	-0.031956
N	-0.8485557191	 0.1338927432	 2.3664894253	-0.51638
C	-1.4372834053	-0.7871009325	 0.0520012081	 0.101377
C	-2.7535926567	-0.021941891	 0.0669704524	-0.150548
O	-2.9831690306	 0.6884445023	-1.1459648749	-0.417691
C	-1.4797702204	-2.0436878643	-0.6416974117	 0.222678
N	-1.5289322018	-3.0522055205	-1.2100180961	-0.352451
H	 0.640310113	 1.8772614382	-0.2606409206	 0.239988
H	-0.8880007372	 1.7131297196	-0.8637005353	 0.25868
H	 0.6335596083	-0.4661723598	-0.6898208132	 0.100542
H	 0.076231808	-1.5750204645	 1.4855074496	 0.113643
H	-0.3091411217	-0.1171388125	 3.1848882939	 0.239886
H	-0.6817582433	 1.1145126593	 2.1498764507	 0.24691
H	-3.5759753188	-0.7156563701	 0.28329522	 0.114524
H	-2.7293990359	 0.7222589963	 0.8625832445	 0.140447
H	-3.0951922238	 0.0417841889	-1.8513659583	 0.295429
