16
gdb 99570	2.26229	1.22314	0.84415	5.2636	69.79	-0.2639	-0.0125	0.2514	1311.4385	0.123492	-434.070996	-434.061114	-434.06017	-434.106324	34.287	
N	-0.0354263532	 1.5164877598	 0.0723852933	-0.518951
C	 0.0068923067	 0.0617124602	 0.0121815686	-0.166827
C	-1.4321432427	-0.5032733564	 0.0025273518	-0.153409
C	-2.1317619203	-0.0845483261	-1.2135770048	 0.282563
N	-2.6397612523	 0.2531431626	-2.195192724	-0.316324
C	-1.4242043511	-2.0564152457	 0.1228421963	-0.017226
O	-0.699997286	-2.4899407449	 1.2532963474	-0.404937
C	-2.7966047104	-2.596343269	 0.134940505	 0.263478
N	-3.8697158784	-3.0178198035	 0.2065615883	-0.301482
H	 0.8927448015	 1.884588903	 0.2499679592	 0.240176
H	-0.3372414328	 1.9008519308	-0.8183292178	 0.247547
H	 0.54838347	-0.3547517704	-0.85396894	 0.103037
H	 0.4957706048	-0.317129039	 0.9126129096	 0.132325
H	-1.9671756997	-0.0835750914	 0.8627151326	 0.145932
H	-0.8988574829	-2.470169551	-0.7445744605	 0.160001
H	-1.2243613332	-2.3161937889	 2.0443012452	 0.304098
