19
gdb 115932	3.08731	1.37403	1.17461	0.9454	70.96	-0.2215	0.0755	0.297	1111.3103	0.159509	-460.118552	-460.11027	-460.109326	-460.151697	31.404	
C	 0.5074598203	 1.1538827154	-0.3068931768	-0.243516
O	 0.5513643326	-0.2346906565	-0.0257350095	-0.237491
C	 0.513957207	-0.5412774022	 1.3448942502	 0.184204
C	 0.3276955287	-2.0776794319	 1.4239640258	-0.13979
O	 1.1357326826	-2.7122041391	 2.3935097331	-0.245282
C	 2.4839514366	-2.3347791727	 2.3601742514	 0.096234
C	 3.171466169	-1.8581179793	 1.089717013	-0.389976
C	 2.7633655819	-0.8819779642	 2.1750025392	 0.082124
O	 1.6427439958	-0.0446034927	 2.0337842375	-0.253259
H	 1.3698558069	 1.6773190243	 0.1200943085	 0.128853
H	 0.5185077171	 1.2586068069	-1.3937174465	 0.127249
H	-0.4129528161	 1.6100972962	 0.0876732659	 0.107162
H	-0.3277488583	-0.0122893695	 1.8142482228	 0.080031
H	-0.7034912793	-2.3066978934	 1.7008720737	 0.119532
H	 0.5087797965	-2.4908503211	 0.4233129505	 0.115907
H	 3.0461447096	-2.9259668515	 3.0736898216	 0.105331
H	 4.2278119747	-2.0838724403	 0.988008033	 0.114989
H	 2.6274447807	-1.8265382822	 0.1547070594	 0.144427
H	 3.5209648538	-0.368324866	 2.7552884972	 0.103269
