13
gdb 132444	3.19431	1.39873	0.97337	6.0158	68.15	-0.2065	-0.0424	0.1641	1090.1572	0.088773	-497.90625	-497.898764	-497.897819	-497.938145	28.569	
N	 0.0755629663	 1.3536135375	 0.1654164806	-0.559176
C	-0.0747721591	-0.0035459721	 0.05909539	 0.463465
C	-1.2527360675	-0.6928772007	 0.0306329752	-0.275251
C	-1.1847463596	-2.108836463	-0.0111858646	-0.166165
C	 0.0104395635	-2.749774291	-0.026580441	 0.073068
F	 0.0952882549	-4.0806436733	-0.0675365384	-0.064379
C	 1.2669148495	-2.0442756451	-0.0056765666	 0.344474
O	 2.3833147548	-2.4786929298	-0.0230031513	-0.33707
O	 1.1094886651	-0.6327236907	 0.0353439573	-0.255319
H	 0.9752164896	 1.7124976128	-0.116712807	 0.273685
H	-0.7128296291	 1.9191206337	-0.1053883958	 0.269204
H	-2.1987657342	-0.1710780099	 0.0506424901	 0.104649
H	-2.0941971643	-2.6997988583	-0.0333601185	 0.128815
