15
gdb 67397	2.92394	1.62223	1.43991	3.5635	64.54	-0.2564	0.0068	0.2631	928.3077	0.11378	-457.767493	-457.76076	-457.759815	-457.798453	27.044	
O	-0.0861065219	 1.3760011384	-0.0069996365	-0.454586
C	 0.0251207491	 0.0122753348	-0.0093504794	 0.376803
C	-1.041641211	-1.0334493346	 0.06321042	-0.114485
C	-0.4930108297	-1.7651129229	-1.1571390559	-0.245557
C	 0.8090981736	-0.9240978936	-0.9953967481	-0.006575
O	 1.7626463027	-1.6521495422	-0.2162460348	-0.233488
C	 1.2845408435	-1.7648509634	 1.0700384889	 0.449931
O	 1.8495342354	-2.3996562341	 1.9124898073	-0.350397
C	 0.0542998028	-0.923643438	 1.169071094	-0.302642
H	 0.7034114316	 1.7547369183	 0.3978725815	 0.298609
H	-2.0749922377	-0.9343040299	 0.3703727616	 0.112798
H	-0.358992775	-2.8492862277	-1.1104743262	 0.119099
H	-1.040645949	-1.4901878719	-2.0621205093	 0.120485
H	 1.3006383953	-0.5170637774	-1.8755794932	 0.10675
H	-0.2892689398	-0.6097785758	 2.1451477602	 0.123253
