23
gdb 95157	2.48801	1.37867	1.03959	1.4386	85.04	-0.2518	0.0741	0.3259	1247.7201	0.207201	-388.300008	-388.291123	-388.290178	-388.332941	35.768	
C	-0.0284990157	 1.5200062058	 0.0146535818	-0.47061
C	-0.0234067939	 0.0033064492	 0.0096730248	 0.351768
C	-0.8584280448	-0.7026631543	 1.0576927385	-0.327849
C	 0.6463494833	-0.7100822914	 1.1715235841	-0.040938
C	 1.4556141285	-1.9774403852	 0.9526124239	-0.232796
C	 1.1122876598	-2.6870844401	-0.364530379	-0.235938
C	 1.1455590177	-1.6959344311	-1.5296857604	 0.144498
O	 0.9263039287	-2.3260407059	-2.786563061	-0.441909
C	 0.0555268588	-0.6320681758	-1.3851919588	-0.281167
H	 0.888408437	 1.9220978811	-0.433076961	 0.112364
H	-0.8758220714	 1.9139328166	-0.5595972859	 0.115067
H	-0.1044889742	 1.9160541073	 1.0325785198	 0.108849
H	-1.4209973155	-0.0978672499	 1.7620026938	 0.101524
H	-1.359366341	-1.6223005225	 0.7700429095	 0.105077
H	 1.0532601868	-0.0602840113	 1.9427996133	 0.074749
H	 2.5211521087	-1.7108673762	 0.9367090786	 0.095597
H	 1.3241321633	-2.6628808919	 1.7990366342	 0.096503
H	 1.8313242536	-3.4970457824	-0.5428488526	 0.079811
H	 0.120282923	-3.1538085283	-0.3224855897	 0.103477
H	 2.1305907502	-1.1961943259	-1.5245994863	 0.05764
H	 1.6023254731	-3.0016522646	-2.9006973166	 0.27627
H	-0.8980670966	-1.1044309213	-1.6503128242	 0.107351
H	 0.2293729105	 0.145407018	-2.1358912871	 0.100664
