17
gdb 91062	4.00519	1.24429	1.15184	1.8212	74.18	-0.245	-0.0069	0.2381	1079.9874	0.136602	-421.758889	-421.751729	-421.750785	-421.79045	28.789	
O	 0.1955178965	 1.3923173896	 0.1087934709	-0.428979
C	 0.0417088915	-0.00996094	-0.004356384	 0.128156
C	-1.4557283341	-0.4796433141	-0.0854019133	-0.289833
C	-1.3456548633	-1.7834084733	-0.8840553757	-0.078263
C	-2.0763432825	-2.2463895705	-2.1788575346	 0.001635
O	-1.9155135309	-1.2583765898	-3.1946989793	-0.232519
C	-0.8101044806	-2.1623843716	-2.9517142661	-0.10638
C	-0.1301671946	-1.534873945	-1.7560606375	 0.292272
C	 0.6653302553	-0.5827340425	-1.2878474427	-0.281879
H	-0.1925682021	 1.7886486219	-0.6801427657	 0.277855
H	 0.5239627565	-0.4074100471	 0.8982776439	 0.096085
H	-1.9233389508	-0.5667640522	 0.8983399723	 0.100893
H	-2.0060041467	 0.268728831	-0.6682727404	 0.106032
H	-1.2020782681	-2.6594981756	-0.2378582082	 0.08935
H	-2.9094731831	-2.9322779061	-2.2817372121	 0.105002
H	-0.442105233	-2.73014177	-3.796516028	 0.113697
H	 1.5648478798	-0.1601942546	-1.7194367793	 0.106875
