17
gdb 48743	4.21202	1.24409	1.15503	3.7967	73.61	-0.2531	-0.0437	0.2095	1083.9507	0.135178	-421.769638	-421.762119	-421.761175	-421.80181	28.8	
O	-0.2088174386	 0.3236868984	-0.8477443728	-0.253084
C	 0.0254948845	 1.0891215099	 0.0529948534	 0.047449
C	 1.265270027	 1.887690501	 0.1850530415	 0.310906
O	 2.1067598321	 2.055671671	-0.9592408938	-0.246863
C	 2.6883972027	 1.4134195393	 0.1575773844	-0.0282
C	 3.1075778054	 2.4791360933	 1.195191908	-0.055781
C	 3.5559877231	 3.8605803663	 0.6313446682	-0.226246
C	 2.075340978	 4.3589172479	 0.6697801676	-0.228858
C	 1.6256552743	 2.9770858049	 1.2265979948	-0.119971
H	-0.6858153708	 1.2387858357	 0.8968634003	 0.075868
H	 3.0693140038	 0.4092394985	 0.0017347278	 0.12268
H	 3.5956346274	 2.0857410883	 2.086215326	 0.080856
H	 4.2190115299	 4.4013405539	 1.3098326697	 0.103758
H	 4.0117203416	 3.8274119067	-0.3593479655	 0.117014
H	 1.9066621806	 5.1766403296	 1.3737086902	 0.102877
H	 1.6476174704	 4.6291270289	-0.2970010729	 0.117014
H	 1.0347839186	 2.9371621465	 2.1422302832	 0.080583
