23
gdb 120962	3.27555	0.99425	0.97893	1.0645	85.84	-0.2441	0.0829	0.3269	1389.1659	0.20679	-388.29106	-388.28208	-388.281136	-388.325136	34.602	
C	 0.0556881925	 1.4326887026	-0.9088200218	-0.384311
C	-0.0722664418	-0.0144600713	-0.4618219237	-0.037937
O	 0.7955487329	-0.803458669	-1.2504415466	-0.249726
C	 0.8437758813	-2.1798658274	-0.8873798722	 0.104082
C	-0.3524490354	-2.994904364	-1.4477846322	-0.236068
C	 0.1138612878	-3.5402589514	-2.7898139032	-0.025064
C	 0.7617112647	-2.5724708778	-3.7514733091	-0.284909
C	 1.6220067323	-3.4226143662	-2.8481351567	-0.027239
C	 2.0967605563	-2.8024690326	-1.5419956397	-0.233439
H	 1.0879985849	 1.7771365008	-0.8001786314	 0.125636
H	-0.2306059606	 1.5377550336	-1.9592639723	 0.125938
H	-0.5925427186	 2.0767601864	-0.3069717521	 0.112952
H	 0.1965887613	-0.1156809443	 0.6036961077	 0.083948
H	-1.1163369756	-0.3520605218	-0.5605121366	 0.087194
H	 0.8896116951	-2.2461265832	 0.2095609776	 0.061881
H	-0.5790250702	-3.8270791359	-0.7699849448	 0.094731
H	-1.2568790423	-2.381075956	-1.514795813	 0.100725
H	-0.3967583685	-4.4064341431	-3.1964036051	 0.074841
H	 0.7411438212	-2.8367642313	-4.8036105837	 0.099988
H	 0.6898282241	-1.5108110356	-3.5459014824	 0.128958
H	 2.2273305113	-4.2034806475	-3.2951843664	 0.074759
H	 2.8695625004	-2.0379094203	-1.6647030419	 0.108306
H	 2.5019641871	-3.5845821245	-0.8894352303	 0.094754
