15
gdb 2752	4.41408	2.27405	1.70695	4.5663	61.16	-0.2503	0.0152	0.2655	743.6559	0.126212	-304.689512	-304.682546	-304.681601	-304.72043	25.196	
C	-0.1529704465	 1.5494196654	-0.0271952304	-0.398241
C	-0.0214621382	 0.0336293516	-0.0433569232	-0.002019
C	 1.1996085985	-0.5097164435	-0.8360515152	-0.17217
N	 1.9433641679	-0.6341483272	 0.4392693009	-0.298434
C	 0.6836098452	-0.5991421382	 1.2081488088	-0.129376
C	 0.7262236268	 0.1666225329	 2.4551301732	 0.300498
N	 0.7355259374	 0.7708335469	 3.4404888709	-0.330237
H	 0.8045031581	 2.0234650403	 0.2078832747	 0.143747
H	-0.4823614341	 1.9103690723	-1.0069089007	 0.118273
H	-0.8837977709	 1.8770570842	 0.7182435303	 0.134524
H	-0.9762441573	-0.4376510966	-0.2828156998	 0.087859
H	 0.9866740654	-1.464400759	-1.3361004991	 0.096589
H	 1.6625497937	 0.1728992748	-1.5561223375	 0.111913
H	 2.5046791673	-1.4694215062	 0.561446026	 0.228602
H	 0.260098677	-1.5882132377	 1.4351837812	 0.108472
