15
gdb 48607	2.42998	1.51861	1.12464	2.098	72.99	-0.2577	-0.0498	0.2079	1080.4895	0.10945	-420.519927	-420.511714	-420.51077	-420.55349	30.183	
O	-0.7456888772	 0.9569821112	 0.3566500294	-0.244075
C	 0.3836255096	 0.7529910783	-0.0069321349	 0.041335
C	 1.4513600199	 1.8003594442	 0.0278636873	 0.319909
C	 1.865144773	 2.7837880331	 1.1507981894	-0.267136
C	 2.8919701462	 2.8569280273	-0.0017170769	 0.042098
O	 2.8596268632	 1.3798713768	-0.100541711	-0.333755
C	 1.7220732263	 2.9422969601	-1.0320522075	-0.244792
C	 1.9708715102	 2.5742655484	-2.4051549843	 0.315308
C	 2.1547749738	 2.3041772037	-3.5617198618	-0.413012
H	 0.7199961082	-0.2257018621	-0.4106690004	 0.107853
H	 1.2255261234	 3.6466360305	 1.3427196665	 0.116524
H	 2.2286262082	 2.2999039626	 2.056264841	 0.124279
H	 3.8668493329	 3.3398526599	-0.0466329735	 0.115589
H	 1.0692352597	 3.8143612046	-0.9410321226	 0.118689
H	 2.3260205226	 2.0538591314	-4.5795685706	 0.201186
