19
gdb 58345	1.77573	1.44155	0.96627	2.8608	73.49	-0.2451	-0.0404	0.2047	1287.6341	0.154413	-460.190402	-460.179645	-460.178701	-460.226953	37.396	
C	 0.0108073097	 1.4917253435	 0.1624122831	-0.42582
C	-0.0616361715	-0.031092792	 0.1257656957	 0.13839
O	 0.4946787265	-0.60805195	 1.3016431833	-0.432753
C	-1.5134431028	-0.5682776182	-0.0847497983	-0.200957
C	-2.1015721066	-0.0439706264	-1.385986408	 0.14924
O	-2.8992503009	 0.856202811	-1.4463320227	-0.257789
C	-1.4421650621	-2.1001411309	-0.1412815242	 0.406104
C	-1.995529822	-2.8568282856	 1.0417889974	-0.487088
O	-0.9442586222	-2.6422531308	-1.1017101364	-0.319386
H	 1.0439128734	 1.8042675345	 0.3367917133	 0.132282
H	-0.3376381408	 1.9383514878	-0.7721540038	 0.142992
H	-0.6156000742	 1.8926850349	 0.968960596	 0.118455
H	 0.5505180035	-0.4204150331	-0.694504852	 0.120254
H	 0.1517756639	-0.1210634898	 2.0595539392	 0.282462
H	-2.1404572973	-0.2139876603	 0.7402637494	 0.085863
H	-1.7243038496	-0.5608239045	-2.2920608574	 0.1118
H	-3.0393850901	-2.5781598877	 1.2246570673	 0.140842
H	-1.916948659	-3.9315067179	 0.8736874928	 0.145124
H	-1.4216671681	-2.5750550145	 1.9317421553	 0.149985
