18
gdb 15341	3.68818	1.08704	0.90972	1.0922	78.91	-0.2253	0.0586	0.2839	1327.7204	0.15126	-347.753071	-347.74358	-347.742636	-347.788863	32.461	
C	 0.2613849426	 1.3145169542	 0.11386303	-0.23161
O	-0.4153821375	 0.2150095645	-0.4617203052	-0.228817
C	 0.3508095137	-0.4606172131	-1.396935155	 0.140971
C	 1.3443834736	-1.4923137241	-0.9397184054	-0.326116
C	 0.0396408944	-1.9235519028	-1.615530707	-0.242864
C	-0.9846326293	-2.5835104797	-0.8597162872	 0.10589
C	-1.8501002327	-3.1571550453	-0.2492907315	 0.061066
C	-2.8989077052	-3.8390058737	 0.4947132668	-0.497954
H	 1.1748878569	 0.9999779748	 0.6386014183	 0.109382
H	 0.538093421	 2.0626521795	-0.6447659942	 0.10534
H	-0.4244686617	 1.7734837165	 0.829397429	 0.129166
H	 0.6015329084	 0.1248637932	-2.2840262428	 0.085307
H	 2.2721201355	-1.6212527638	-1.4861179276	 0.114183
H	 1.401436001	-1.6711389482	 0.1275637981	 0.130516
H	 0.1350443684	-2.258274167	-2.6451591924	 0.110208
H	-3.5161965435	-4.4579088492	-0.1663038688	 0.144864
H	-2.4831871145	-4.4960675573	 1.2672264913	 0.143086
H	-3.5640399112	-3.1235964586	 0.9914488534	 0.147381
