20
gdb 107685	3.27192	1.21801	1.03644	1.3352	74.17	-0.2481	0.0655	0.3137	1194.8073	0.1731	-440.257509	-440.24923	-440.248286	-440.290469	32.102	
O	 0.1331059028	 1.2552343177	-0.5127029102	-0.421921
C	 0.0328326751	 0.0584418134	 0.2408828161	-0.11511
C	-1.3780668641	-0.4927156628	 0.1974919223	 0.291576
C	-2.4318239993	 0.3254187214	 0.9248698355	-0.270514
C	-3.7653021021	-0.4176448332	 1.0322911795	-0.110856
O	-3.575773185	-1.7193969852	 1.5523986732	-0.236238
C	-2.8730309979	-2.5678789824	 0.6626411414	-0.106588
C	-1.6114092881	-1.9557375403	 0.0616762776	-0.086776
N	-1.6986517986	-1.0729701872	-1.1235042701	-0.381411
H	-0.1378955	 1.0217747632	-1.4089304471	 0.289924
H	 0.7328826431	-0.7060098425	-0.1275178882	 0.088973
H	 0.3178458486	 0.3141377764	 1.2671529168	 0.106293
H	-2.0683245978	 0.531664288	 1.9385359745	 0.112829
H	-2.5631296617	 1.2938892639	 0.4287264757	 0.112231
H	-4.4363515583	 0.0984996661	 1.7241478107	 0.1159
H	-4.2795574331	-0.4642592406	 0.0551393552	 0.082973
H	-2.6070032351	-3.4536870081	 1.2465652288	 0.11857
H	-3.5429147877	-2.8988150691	-0.1510659402	 0.093662
H	-0.7543640668	-2.6251410001	 0.0292569758	 0.094758
H	-2.676169634	-0.9123522188	-1.3599568773	 0.221727
