16
gdb 16673	3.02615	2.32083	1.82017	2.8431	58.87	-0.2521	0.0749	0.3271	772.196	0.132147	-420.865746	-420.859157	-420.858212	-420.896136	26.584	
O	-0.3608984081	 1.1936654042	 0.9903028428	-0.446848
C	-0.0513888708	 0.11990632	 0.1077541284	 0.068101
C	 0.9417473775	-0.8892436986	 0.7254673662	-0.275528
C	 0.0421757529	-1.8666554289	 1.4607339433	 0.045267
O	-0.9731062532	-1.1992849008	 2.239399332	-0.278269
C	-1.327468051	-1.7469659379	 0.9478531991	 0.010944
C	-1.3463512663	-0.7073064479	-0.1659500697	 0.112496
O	-2.4952836769	 0.0964309781	-0.2239088158	-0.439978
H	-0.5909548521	 0.770987209	 1.8320138131	 0.292786
H	 0.331474458	 0.5842334791	-0.8028821743	 0.093869
H	 1.5015601764	-1.4191541487	-0.0543413766	 0.113231
H	 1.6642763881	-0.3883492328	 1.376513167	 0.122633
H	 0.4324401752	-2.7798939251	 1.9011325521	 0.103692
H	-2.0557265415	-2.55204928	 0.9789258776	 0.107289
H	-1.2579470173	-1.2418927242	-1.1223221851	 0.083869
H	-2.2744867008	 0.8864509345	 0.2923665299	 0.286447
