14
gdb 42858	3.38273	1.08272	0.97262	2.989	66.23	-0.278	-0.0333	0.2447	1181.9601	0.099868	-436.631864	-436.624189	-436.623245	-436.664964	27.832	
O	-0.1706955857	-0.0454374832	 0.1522077714	-0.297144
C	-0.0961667712	 1.1288299441	 0.0258425008	 0.447636
C	-0.9480176036	 2.4317834992	-0.0501436808	-0.069682
O	-0.0294689549	 2.9120050454	 1.0148130952	-0.294281
C	 0.9109231245	 2.3199030945	 0.0316059966	-0.096456
C	 0.0657412416	 2.9837222501	-1.0888046642	 0.015389
C	 0.1096190008	 2.448376271	-2.522378831	-0.395711
C	-0.9907535503	 2.9713926505	-3.3306141771	 0.265941
N	-1.8687613788	 3.3973427833	-3.9488306678	-0.295111
H	-2.0107989137	 2.6296569782	 0.0649054675	 0.133022
H	 1.9760034801	 2.3882394435	 0.2418878025	 0.123873
H	 0.1240811409	 4.0721849102	-1.0317669667	 0.125052
H	 1.0571979716	 2.7304073863	-2.9952059808	 0.166412
H	 0.0639705784	 1.3528669868	-2.5334995957	 0.171062
