18
gdb 109283	2.89698	1.21261	0.91026	4.779	75.47	-0.2231	0.0035	0.2266	1287.5275	0.148464	-439.146173	-439.137446	-439.136501	-439.180228	31.885	
C	-0.0021297693	 1.5659708381	 0.2184531582	-0.37537
C	-0.0223569729	 0.0548341847	-0.0739063488	-0.2941
C	-1.4078177598	-0.5221924187	-0.1425656211	 0.385922
C	-1.9922965209	-1.0360568949	-1.2262347715	-0.225395
C	-3.4066554461	-1.5121215837	-1.1079367294	-0.12358
O	-3.7154267695	-1.9898948239	 0.2202301636	-0.240667
C	-3.213998062	-1.3567460581	 1.3003793199	 0.464169
O	-3.652621253	-1.5484721214	 2.4043814537	-0.381717
N	-2.1432739375	-0.509466374	 1.0531154999	-0.434005
H	 1.027192666	 1.9335593285	 0.2553593079	 0.124775
H	-0.5368333649	 2.1185365588	-0.5595216084	 0.130363
H	-0.4725867476	 1.804536062	 1.1777394488	 0.121452
H	 0.4774118136	-0.1415120502	-1.0265130072	 0.120038
H	 0.5518798268	-0.4734633767	 0.6995088922	 0.115142
H	-1.4772515647	-1.1006371544	-2.1749966239	 0.10042
H	-4.129038022	-0.7186751611	-1.3556277185	 0.120564
H	-3.6124551	-2.3599313185	-1.766230937	 0.131321
H	-1.713210746	-0.1642802663	 1.8966544416	 0.260666
