18
gdb 101886	5.93312	0.57483	0.54143	3.1148	70.37	-0.2704	-0.0022	0.2681	1938.9068	0.145289	-476.207722	-476.197437	-476.196493	-476.244386	35.297	
O	 0.0170836977	 1.4079049551	-0.1656391621	-0.42461
C	 0.0828771134	 0.0065422686	-0.0251939907	-0.047876
C	-1.3150822619	-0.5936329971	 0.0992528716	 0.083262
O	-2.0115711082	-0.1964996972	-1.0746406103	-0.448567
C	-1.3030750589	-2.1106023687	 0.2210573206	-0.081617
O	-2.6644737804	-2.5218808751	 0.273609278	-0.256049
C	-2.8177756889	-3.9196941004	 0.2697780481	-0.183909
C	-4.2466802303	-4.245766393	 0.287829865	 0.263212
N	-5.3658928037	-4.5279018914	 0.2997683922	-0.285924
H	-0.6408628314	 1.5727191624	-0.8522162145	 0.295182
H	 0.5972514708	-0.4627216551	-0.880477636	 0.090238
H	 0.6658033512	-0.2024612507	 0.8778583847	 0.108165
H	-1.802383413	-0.1732710311	 0.9924856713	 0.090158
H	-2.8952531752	-0.577684655	-1.0259774712	 0.299329
H	-0.8072895087	-2.557378696	-0.6546753919	 0.105149
H	-0.7684460644	-2.4311549524	 1.1289286442	 0.102247
H	-2.3630963242	-4.3742145886	-0.6252110911	 0.145954
H	-2.3394103139	-4.3811100242	 1.1486002721	 0.145654
