21
gdb 55852	3.62634	0.82336	0.73708	3.2894	80.22	-0.2465	-0.013	0.2336	1620.8851	0.177773	-424.242099	-424.231314	-424.23037	-424.279137	38.218	
C	-0.0083795812	 1.4230199265	 0.5045894465	-0.477328
C	 0.1272178029	-0.0190244847	 0.0566045136	 0.391864
O	 1.2022126909	-0.5588395502	-0.0600979231	-0.291368
C	-1.1820579163	-0.7460151442	-0.2668780589	-0.357802
C	-1.0548355586	-2.2491283365	-0.1797138021	 0.018733
O	-1.5000304742	-2.8660849309	 1.0370346687	-0.299432
C	-2.1866721539	-3.1935297811	-0.1852257925	 0.392513
C	-3.6244938417	-2.7260301791	-0.272123724	-0.45492
C	-1.9501811595	-4.6089367233	-0.6709711827	-0.450647
H	 0.9729927473	 1.8966427073	 0.5479294599	 0.144109
H	-0.6685249578	 1.9815583224	-0.1682005184	 0.134636
H	-0.4705606448	 1.4527471476	 1.498647684	 0.14855
H	-1.9817309628	-0.3807951059	 0.3829459501	 0.123421
H	-1.451238441	-0.4445313013	-1.2909002446	 0.132854
H	-0.0906008985	-2.6146418237	-0.5318639992	 0.106171
H	-3.7527988815	-1.7176619611	 0.1241676575	 0.121478
H	-3.9726415268	-2.738970093	-1.3109028923	 0.119584
H	-4.2716116321	-3.3981540192	 0.3019333975	 0.126264
H	-2.5603533695	-5.3162376861	-0.0983084355	 0.123205
H	-2.2227741835	-4.7109703698	-1.7271136426	 0.117499
H	-0.9009369875	-4.8889557536	-0.5522725819	 0.130614
