21
gdb 39311	2.54676	1.80447	1.34757	1.7499	80.23	-0.2404	0.071	0.3114	1025.95	0.186184	-387.072901	-387.065599	-387.064655	-387.104713	29.972	
C	 0.0507149509	 1.5198049694	-0.326185745	-0.307997
C	 1.3194750087	 0.7559761151	-0.0622166446	-0.009414
C	 2.0389122777	 0.88551906	 1.2734837152	-0.23421
C	 1.9840025188	-0.434889552	 2.0571197098	-0.212189
C	 0.5507817345	-0.837472607	 2.3597707868	 0.139675
O	-0.1091117647	 0.0945587278	 3.2532358481	-0.295868
C	-1.1988550421	 0.2851076568	 2.3308693964	-0.084733
C	-0.5179657091	-0.5833346459	 1.2480223409	-0.087894
C	-0.0186696716	 0.034502551	-0.0515362847	-0.032896
H	-0.2825023964	 2.2124643393	 0.4397623429	 0.113938
H	-0.1623952103	 1.8495657023	-1.3373138146	 0.108078
H	 1.9607413236	 0.5602188349	-0.9165140592	 0.079609
H	 3.077338221	 1.1903295574	 1.1134559383	 0.095574
H	 1.5754320556	 1.6650658768	 1.8877466065	 0.113157
H	 2.4622157807	-1.2392052959	 1.4824661841	 0.092298
H	 2.5279526384	-0.3480199633	 3.0049547471	 0.104354
H	 0.5154725044	-1.8538304743	 2.7746533275	 0.065315
H	-2.1397628729	-0.1277952582	 2.7180132978	 0.095078
H	-1.354689564	 1.3433698208	 2.0926940456	 0.10034
H	-1.0959847205	-1.4775320388	 1.0095514811	 0.076072
H	-0.2265984026	-0.5732638762	-0.9264414801	 0.081712
