15
gdb 34082	3.51756	1.60537	1.37712	5.0351	73.17	-0.2413	-0.0246	0.2168	928.1541	0.114667	-379.638183	-379.63165	-379.630706	-379.668928	26.363	
N	-0.0421866875	-1.161397132	 0.0299290132	-0.33588
C	-0.0224757065	-0.0069281168	-0.0130388098	 0.20026
C	 0.0108094859	 1.4430582442	-0.02750487	 0.161474
C	-0.8938963072	 2.2045816441	 1.0123134845	-0.274691
C	-1.2963936447	 3.0909773869	-0.1507458269	-0.049403
C	-0.1603154875	 3.4494643953	-1.0756054428	-0.075774
C	 1.2405043182	 3.2997911467	-0.6006794396	-0.083484
C	 1.3768435244	 2.0988413058	-0.0409810317	-0.127056
N	-0.7853730356	 2.1074571745	-1.1727323184	-0.149338
H	-1.73444689	 1.5804225158	 1.319038356	 0.142615
H	-0.3999928476	 2.633964249	 1.8871669028	 0.117416
H	-2.2671851146	 3.5643134503	-0.25636893	 0.110443
H	-0.3977245066	 4.1182442422	-1.8966641345	 0.109056
H	 1.9943603913	 4.0704816525	-0.6870572342	 0.123323
H	 2.2394762279	 1.6817180516	 0.4599764515	 0.131038
