17
gdb 2863	5.93768	1.44492	1.31469	1.0188	61.45	-0.2437	0.0813	0.325	948.347	0.146852	-346.816694	-346.808471	-346.807527	-346.849494	28.758	
C	 0.0550316998	 1.177963933	-0.4451564477	-0.230556
O	-0.1508895752	 0.1639219574	 0.5171037257	-0.236772
C	-1.3579937491	-0.51062641	 0.3432385129	 0.113006
C	-1.4466508955	-1.6318363004	-0.662455693	-0.313175
C	-1.4323147752	-1.9273418176	 0.8260146577	-0.030439
C	-0.2274260343	-2.5893626795	 1.4401079091	-0.091373
O	-0.32219605	-3.98869138	 1.1947271554	-0.42355
H	 1.0168206057	 1.6451916552	-0.2208204837	 0.125817
H	 0.0791570904	 0.7706601251	-1.4660484915	 0.110001
H	-0.732676836	 1.9454077134	-0.3982518145	 0.105635
H	-2.238448714	 0.1200468746	 0.4803940195	 0.083066
H	-2.3647083307	-1.7738276458	-1.2216545816	 0.110471
H	-0.539199799	-1.871229445	-1.2069988965	 0.120136
H	-2.3762377502	-2.230867943	 1.2694496587	 0.091511
H	 0.6864933637	-2.1621522811	 1.0063171261	 0.096569
H	-0.2043976784	-2.3800960285	 2.5215138731	 0.086299
H	 0.422251178	-4.4139429179	 1.6306054504	 0.283356
