17
gdb 67995	3.0793	1.77591	1.32931	5.0151	71.51	-0.2269	0.0265	0.2534	963.3964	0.137434	-417.994614	-417.987362	-417.986418	-418.025917	29.052	
C	-0.0180074227	 1.4805926406	-0.0041488817	-0.486586
C	-0.0397188407	-0.0222621999	-0.0157399647	 0.359046
N	 0.8366562424	-0.6972921953	-0.9375217556	-0.381869
C	 0.4136791846	-1.9946089731	-1.1525853153	 0.399078
O	 0.9704026172	-2.8472078224	-1.7902343443	-0.363414
N	-0.8031031446	-2.1845665814	-0.3569234232	-0.207733
C	-0.2645138804	-2.2734562597	 1.077583857	-0.200841
C	-0.487858656	-0.7815743285	 1.2567826443	-0.140378
C	-1.2991371901	-0.8068784844	-0.0280439611	-0.075474
H	 0.9297297851	 1.8659753155	 0.3880490968	 0.127456
H	-0.1561066875	 1.8754396073	-1.0156803391	 0.135928
H	-0.8193767795	 1.8697459584	 0.6304161054	 0.131865
H	 1.7974873619	-0.4432220519	-1.1010289186	 0.254189
H	-0.9489342102	-2.8808024405	 1.673253338	 0.127653
H	 0.7501585841	-2.6771589756	 1.1609449274	 0.123112
H	-0.6876408278	-0.2551168103	 2.1825504802	 0.095254
H	-2.2961998057	-0.4788626488	-0.2964257455	 0.102714
