18
gdb 40772	2.84117	1.29339	0.98898	2.8104	72.28	-0.2515	0.0614	0.3129	1205.6801	0.147334	-439.003135	-438.994903	-438.993959	-439.036841	30.4	
C	 0.2877540061	 1.5756646687	 0.3453739305	-0.237467
N	 1.2546979472	 0.5851027698	-0.1542269395	-0.318356
C	-0.1272159588	 0.1654326045	 0.1427281654	-0.028345
C	-0.2746591639	-0.7804739062	 1.2992406024	 0.068142
O	-1.6463851604	-0.8590681235	 1.773471808	-0.301144
C	-1.6950353503	-2.2965663181	 1.628836214	-0.153708
C	-0.2977888058	-2.2866765522	 1.0221052269	 0.352392
C	 0.3275100649	-3.0863191193	-0.028261496	-0.257712
O	 0.7311206346	-3.1880065436	 1.3484622735	-0.254959
H	 0.4858190952	 1.9386424825	 1.3500971246	 0.126277
H	-0.1008949716	 2.3236572373	-0.3400435391	 0.116308
H	 1.3762932876	 0.6918301579	-1.1573551772	 0.235475
H	-0.7935246254	-0.0380385403	-0.6936338894	 0.084891
H	 0.4242049756	-0.5074874356	 2.1008936586	 0.095592
H	-1.7576357469	-2.8141031741	 2.5943461638	 0.116384
H	-2.521008321	-2.6205198603	 0.984471306	 0.109511
H	-0.1901482228	-3.9575849249	-0.4276061263	 0.118576
H	 1.0593868357	-2.6278593826	-0.6910290063	 0.128143
