20
gdb 99882	1.93876	1.42524	1.1479	2.0412	80.31	-0.2505	0.0468	0.2974	1201.0497	0.168901	-403.074217	-403.06418	-403.063236	-403.108935	37.53	
C	-0.2971935411	 1.5570176125	-0.0225267782	-0.440545
C	-0.1885890706	 0.0178680315	-0.0332813312	-0.001803
C	 0.7289727461	-0.4109256937	 1.1546531811	-0.066729
O	 1.0265821435	-1.7881742819	 1.1817790866	-0.419349
C	-1.5232446759	-0.5619572209	 0.1392160441	 0.363322
C	-2.6226328564	-1.0278992957	 0.2765465443	-0.49483
C	 0.4101467065	-0.5554347985	-1.3288494944	-0.005582
C	 0.4936419627	 0.1799463528	-2.6092562049	-0.245324
N	 1.721530772	-0.112676373	-1.8385598426	-0.344028
H	 0.6635919192	 2.0291935133	-0.2561461181	 0.108947
H	-1.0426376357	 1.9050431702	-0.7399598794	 0.137004
H	-0.6019648664	 1.9021656063	 0.9693521201	 0.132966
H	 1.6454291125	 0.1983117413	 1.1149012496	 0.084423
H	 0.2178498695	-0.1842326849	 2.0947968468	 0.119307
H	 1.6546865711	-1.9685900204	 0.4747695049	 0.297745
H	-3.5897626229	-1.4479587417	 0.402975406	 0.196627
H	 0.2829259721	-1.6329198259	-1.3882227303	 0.110166
H	 0.4022769799	-0.3601210151	-3.5470719288	 0.122854
H	 0.1433875851	 1.2065494474	-2.644589138	 0.116043
H	 2.0174150688	 0.7332232564	-1.3555982176	 0.228788
