19
gdb 64079	3.28827	1.18762	1.06625	3.8695	78.89	-0.2378	-0.0553	0.1825	1188.9816	0.158652	-423.067027	-423.058267	-423.057323	-423.100104	33.912	
C	-0.0618588468	 1.5713993408	 0.0121612477	-0.435399
C	-0.0038166418	 0.0404663349	-0.0026994009	 0.324802
O	-1.3395117817	-0.4953495023	 0.0018192763	-0.461059
C	 0.6436452383	-0.4798575561	-1.2926676371	-0.22974
C	 0.913030948	-1.9874662987	-1.2256384344	-0.330186
C	 1.7596731505	-2.3673426845	-0.0212184578	 0.379955
O	 2.5382372742	-3.2992607703	-0.0287930152	-0.330138
C	 1.5431306505	-1.5506693892	 1.1984414619	-0.165949
C	 0.7462329131	-0.4770299802	 1.211729122	-0.077448
H	 0.9415119637	 2.0090653533	-0.0031945382	 0.123555
H	-0.6169580948	 1.9329640497	-0.8580022196	 0.12853
H	-0.5704214422	 1.9302195102	 0.914694047	 0.10618
H	-1.745989332	-0.2855962292	 0.8497997426	 0.278761
H	-0.0189933867	-0.2452810415	-2.1314048734	 0.111912
H	 1.5826801674	 0.060748538	-1.4551530536	 0.105835
H	-0.0444471617	-2.5136863461	-1.1219348774	 0.143584
H	 1.4008316607	-2.3635869918	-2.1278639224	 0.117597
H	 2.0662843879	-1.8885463675	 2.0882295758	 0.109836
H	 0.5949883533	 0.0730629403	 2.1405818368	 0.099373
