19
gdb 70020	3.40582	1.50166	1.29607	1.4362	74.35	-0.249	0.0846	0.3336	1034.6719	0.160416	-422.997493	-422.989904	-422.98896	-423.029354	29.877	
C	-0.0325959744	 1.546808995	 0.0465172836	-0.506381
C	 0.005228013	 0.046028866	 0.0215285197	 0.345396
C	-0.8879404766	-0.8316281877	 0.8459351459	-0.338593
C	 0.5965841812	-0.960891974	 1.0375776303	-0.126508
C	 1.2064715493	-1.7764663239	-0.107314287	 0.07987
O	 0.6014043204	-3.0263271728	-0.4162282134	-0.264436
C	 0.1256166478	-2.8977019941	-1.7417134652	 0.018349
O	-0.2735084787	-1.5520009851	-1.9295418591	-0.263724
C	 0.6114873224	-0.7814185071	-1.1293040067	 0.009072
H	 0.927928583	 1.9790604649	-0.2571070862	 0.116109
H	-0.8008661318	 1.9338851829	-0.6335342725	 0.128188
H	-0.2627911976	 1.9184790202	 1.0501912459	 0.120185
H	-1.4058332386	-0.3188633818	 1.6502728368	 0.110652
H	-1.4501859492	-1.6383616058	 0.3883334386	 0.126807
H	 1.0825227372	-0.7663225966	 1.9856771649	 0.086459
H	 2.2974927777	-1.8572191683	-0.0818265318	 0.078493
H	 0.917549131	-3.1664701718	-2.4636134119	 0.086633
H	-0.7424566567	-3.5498827621	-1.8753802856	 0.119499
H	 1.3279991207	-0.2263242778	-1.7445926163	 0.073931
