23
gdb 88460	2.64617	1.17815	1.11831	2.0129	84.76	-0.2421	0.0701	0.3121	1262.5836	0.204986	-388.257275	-388.247651	-388.246707	-388.291683	36.463	
C	 2.0091939641	-0.2507348811	-0.8728610888	-0.417989
C	 0.6409427361	-0.2446723774	-0.2239060031	 0.004593
C	 0.1767688238	-1.4026963694	 0.6298484657	-0.325071
C	 0.4227444583	-0.0535181135	 1.2621591604	-0.067758
C	 1.5093654663	 0.2427249548	 2.2770969935	 0.280644
C	 1.9197840201	 1.7174894666	 2.2166458993	-0.44643
C	 1.208688485	-0.216454984	 3.7302130693	-0.109468
O	 2.4996277011	-0.8463613972	 3.8465364153	-0.278126
C	 2.7384698491	-0.6950662609	 2.4349678127	-0.124402
H	 2.7652278164	-0.7308994732	-0.2458706808	 0.124904
H	 1.9815546077	-0.797694522	-1.821971325	 0.118299
H	 2.3550901495	 0.766160029	-1.0899561113	 0.118152
H	-0.1262590518	 0.2033601776	-0.8510887868	 0.082795
H	-0.8461351232	-1.7514124493	 0.5359247929	 0.109001
H	 0.8918240293	-2.1971621638	 0.8176953962	 0.114071
H	-0.4851087973	 0.4994124551	 1.5014288671	 0.081657
H	 1.0507210204	 2.3707491571	 2.3547538364	 0.112145
H	 2.6469395455	 1.9520580845	 3.0008744734	 0.122353
H	 2.3699625679	 1.9608362457	 1.2488773666	 0.119573
H	 1.0639407512	 0.5736490131	 4.4771649636	 0.095744
H	 0.391048067	-0.9459083383	 3.8089832168	 0.09373
H	 2.6705007646	-1.6585381145	 1.9149061652	 0.093348
H	 3.7172727289	-0.2468381187	 2.2248639313	 0.098233
