21
gdb 61668	4.26803	0.78836	0.70106	1.2191	85.43	-0.2614	0.0336	0.295	1627.6449	0.180877	-387.04095	-387.031126	-387.030182	-387.076195	36.54	
O	-0.0721676121	 1.4360069011	 0.0402826805	-0.408411
C	-0.0011254575	 0.0111304195	 0.0425670235	-0.067398
C	 0.6587192294	-0.5488640477	-1.2330575814	-0.228488
C	-0.037387397	-0.1186000874	-2.5176553859	 0.071528
C	 0.1407086252	 1.3262039529	-3.0657339955	-0.203899
C	 0.1906983409	 0.7360533516	-4.500102384	-0.217228
C	 0.5167573505	-0.6460828914	-3.8720654709	-0.244178
C	 0.6662656961	-0.4888955481	 1.2492652924	 0.298315
C	 1.2578150864	-0.8759759454	 2.2219121093	-0.441855
H	 0.8213568667	 1.7698516758	 0.1782316727	 0.284241
H	-1.0500120067	-0.311814628	 0.0586962887	 0.117246
H	 1.7127535455	-0.2391514517	-1.2509937283	 0.091998
H	 0.6605479109	-1.6440957212	-1.159222483	 0.108316
H	-1.1075518866	-0.3514557526	-2.4468496494	 0.068267
H	-0.6314544066	 2.0595798523	-2.8283885412	 0.10391
H	 1.1106727377	 1.74067974	-2.7712059181	 0.086095
H	-0.7944494268	 0.7409424184	-4.9759894641	 0.100625
H	 0.9143608386	 1.1579966536	-5.2014602919	 0.093577
H	 1.597806617	-0.814767511	-3.8157565016	 0.095963
H	 0.0505227907	-1.5357151671	-4.3036204934	 0.093193
H	 1.7603890277	-1.2215366636	 3.0914338415	 0.198182
