12
gdb 132711	5.50542	1.0193	0.86006	1.9942	66.58	-0.2651	-0.0908	0.1743	1186.7883	0.077784	-476.822687	-476.815807	-476.814863	-476.854559	24.82	
F	-0.0221000407	 0.0470852498	 0.0037553042	-0.048592
C	-0.032641719	 1.3677815369	 0.010800575	 0.329018
N	-1.2006404358	 1.959482869	 0.0293153101	-0.289042
C	-1.1617037756	 3.297793778	 0.0357842276	-0.045736
C	 0.0361504702	 4.0083291191	 0.0236695593	 0.206449
C	 0.0137635364	 5.4983786832	 0.031742607	 0.106545
O	 0.9890175707	 6.202713972	 0.0224958771	-0.240667
N	 1.2228871766	 3.3723864363	 0.0046792006	-0.252841
C	 1.1938330887	 2.0536703446	-0.0018169276	-0.130915
H	-2.1187869214	 3.8132276504	 0.0511214588	 0.139153
H	-1.0145660663	 5.9247455323	 0.04749576	 0.080629
H	 2.1324069462	 1.5072507785	-0.0170644021	 0.145999
