19
gdb 91060	3.94166	1.21822	1.12859	2.1482	81.85	-0.2294	0.0092	0.2386	1131.6028	0.160861	-385.841201	-385.833828	-385.832884	-385.872832	30.338	
O	 0.2045212797	 1.3943666599	 0.1398883959	-0.431055
C	 0.039880224	-0.0056404807	-0.0108050063	 0.135222
C	-1.4616688849	-0.4638150253	-0.081738259	-0.296026
C	-1.3611358549	-1.7477933881	-0.9180758486	-0.031341
C	-2.1203961243	-2.2443346153	-2.1793370148	-0.091061
C	-1.9992080128	-1.3046080887	-3.3393494428	-0.264793
C	-0.7947863221	-2.159843327	-2.981953781	-0.180356
C	-0.1650633153	-1.4863661343	-1.796468454	 0.331933
C	 0.645780382	-0.5518167175	-1.3127365949	-0.320918
H	-0.155267547	 1.8104691999	-0.6520270191	 0.271204
H	 0.5275730517	-0.4269621559	 0.8784995796	 0.092132
H	-1.9132324551	-0.5798560682	 0.9069392274	 0.097582
H	-2.0202761949	 0.3114004413	-0.6216429459	 0.091218
H	-1.1795458482	-2.6184739627	-0.2744447537	 0.08748
H	-2.8460362278	-3.0484629017	-2.1800447809	 0.088498
H	-2.5268930495	-1.6134807542	-4.2368851694	 0.115418
H	-1.9577026154	-0.2286394065	-3.1947299586	 0.108977
H	-0.3599697274	-2.8578295936	-3.6855419438	 0.098458
H	 1.5573908622	-0.1413092914	-1.7307448103	 0.097428
