16
gdb 55980	3.36704	0.96868	0.87957	3.6359	67.74	-0.2555	0.0042	0.2597	1342.8887	0.12263	-475.074185	-475.064972	-475.064027	-475.110812	31.308	
C	-0.0911624442	 1.4740509845	-0.0362774074	-0.482076
C	 0.0903331085	-0.0103045206	 0.1469909612	 0.436283
O	 1.0704440063	-0.5565760322	 0.5772190176	-0.338836
O	-1.0326139549	-0.670270927	-0.2570286722	-0.247849
C	-1.0070931488	-2.0836871361	-0.2121293333	-0.036821
C	-2.1002510952	-2.7509818462	 0.6724663907	-0.181203
N	-2.5937499171	-3.3860849824	-0.5531937319	-0.330271
C	-1.7282265086	-2.7603839203	-1.4174763984	 0.412623
O	-1.6028847866	-2.762347394	-2.6097050881	-0.347727
H	 0.774300285	 1.9983275044	 0.3663593997	 0.151639
H	-0.2006905506	 1.7000958198	-1.1010587746	 0.162078
H	-1.0045817345	 1.808597855	 0.4623619079	 0.150973
H	 0.0074506186	-2.4386649876	-0.0309222493	 0.145849
H	-1.7356605004	-3.4465724166	 1.4337664264	 0.123106
H	-2.7931151338	-2.0303779303	 1.1169125985	 0.124226
H	-3.3467590837	-4.0364659305	-0.7184745569	 0.258006
