14
gdb 105592	2.07988	1.49763	1.23036	4.5827	63.6	-0.2821	-0.0674	0.2146	1061.4961	0.098645	-473.810685	-473.802009	-473.801065	-473.844614	30.329	
O	 0.1269685744	 1.382203601	-0.1346295875	-0.401948
C	 0.0741387238	 0.050457977	 0.3048654402	-0.084231
C	-1.3415106641	-0.5207997264	 0.1267886121	 0.082138
O	-1.7267631582	-0.4798790916	-1.2736970466	-0.31293
C	-1.8384840467	-1.9172317996	-1.4055278487	-0.188833
C	-1.439228423	-2.0801212779	 0.0611369596	 0.309671
O	-1.246890386	-2.9694178019	 0.8214590004	-0.243554
C	-2.3288904772	 0.1285139292	 0.9849700847	 0.290991
N	-3.1188938455	 0.6038068443	 1.6815483197	-0.317039
H	-0.1582502478	 1.3911363847	-1.0566262281	 0.302316
H	 0.7745591178	-0.5990659448	-0.2420629308	 0.103809
H	 0.3469082612	 0.0368378473	 1.3635189994	 0.148186
H	-2.8590687844	-2.240043193	-1.6419334417	 0.159944
H	-1.1384320743	-2.3368912683	-2.1366368027	 0.151479
