22
gdb 66933	2.12808	1.96585	1.5019	1.6821	85.09	-0.2172	0.087	0.3041	1036.1972	0.193491	-367.14942	-367.140658	-367.139714	-367.181803	35.274	
C	 0.027362009	 1.4949544965	 0.1525113633	-0.520308
C	 0.0007657698	 0.0041360868	-0.0189484724	 0.334648
C	-1.0194050305	-0.8924243375	 0.72646306	-0.151985
C	-1.0388200915	-2.2290105885	 0.0078539813	-0.191367
N	 0.4427327125	-2.0694364937	-0.265567905	-0.201378
C	 0.4622300306	-1.0695832293	 0.9153457813	-0.08631
C	 0.5051761983	-0.8419956017	-1.1926060647	 0.278212
C	-0.3098271935	-0.9064695889	-2.4814833659	-0.468777
C	 1.9784137951	-0.5927153697	-1.510886068	-0.433114
H	 1.0175869801	 1.9045067039	-0.0756651274	 0.123101
H	-0.6980299148	 1.9868259792	-0.506029746	 0.122217
H	-0.2178529532	 1.780494691	 1.1811319982	 0.120401
H	-1.7341582707	-0.4621003633	 1.4184939801	 0.084222
H	-1.1736940937	-3.0638169774	 0.7018535179	 0.104837
H	-1.6682019539	-2.3910933659	-0.8719065278	 0.095329
H	 1.1172112174	-1.1137665266	 1.7741424312	 0.09281
H	-1.386879534	-0.8651171914	-2.3071960138	 0.11737
H	-0.0505837827	-0.0634607639	-3.1304292442	 0.11412
H	-0.0819490395	-1.8285825739	-3.0285504649	 0.124515
H	 2.3524672249	-1.3719296058	-2.182054743	 0.119281
H	 2.1174234007	 0.3765723119	-2.0021975336	 0.105736
H	 2.5881695496	-0.6087026017	-0.6033845564	 0.116439
