20
gdb 103154	2.01468	1.52404	1.17656	1.6189	76.16	-0.2643	0.0204	0.2847	1178.5905	0.168797	-440.293874	-440.283901	-440.282957	-440.328485	36.606	
C	-0.0072102762	 1.6822720274	-0.0311289034	-0.410538
C	 0.0268991183	 0.1511324589	-0.0918153564	-0.2244
C	-1.3686148302	-0.4722128435	-0.0436143328	 0.235247
O	-2.1925133853	-0.0099273146	-1.0990276551	-0.480703
C	-1.4785342065	-2.0187151564	 0.1073641895	 0.119063
C	-0.2584940683	-2.9070505172	 0.1532688347	-0.418515
O	-2.0772513066	-1.8308396574	 1.4465479007	-0.274972
C	-2.0641029882	-0.4680001951	 1.3121372971	 0.394364
N	-2.5206108455	 0.446393655	 2.042253461	-0.561329
H	 1.00739075	 2.0902173	-0.0347597716	 0.114886
H	-0.5320923774	 2.0943831124	-0.8981473816	 0.118169
H	-0.5136980613	 2.0266507946	 0.8752424132	 0.150638
H	 0.5120830242	-0.1779339873	-1.0189744339	 0.104905
H	 0.6252510151	-0.2367728114	 0.7399145156	 0.104141
H	-2.5873719211	 0.8212465585	-0.8118052121	 0.297487
H	-2.241847968	-2.4100031338	-0.570255501	 0.10625
H	 0.4911733117	-2.5320124687	 0.854048541	 0.129873
H	-0.5437383169	-3.9158955962	 0.4658770327	 0.134669
H	 0.1938075575	-2.9762216031	-0.8412216732	 0.132279
H	-2.9823680455	 0.0736017679	 2.8739847556	 0.228487
