17
gdb 23312	3.16599	1.2318	0.97076	2.0242	72.07	-0.238	0.0032	0.2411	1185.2079	0.136822	-455.083948	-455.075925	-455.074981	-455.116713	31.143	
O	-0.03475592	 1.3111787289	-0.0145897652	-0.389308
N	 0.0226033715	-0.0883490921	-0.1154356062	-0.249967
C	-1.1241651083	-0.614007392	 0.0549517336	 0.464979
C	-2.4489226899	 0.0345022784	 0.3823585422	-0.357755
C	-3.3140256771	-1.086403148	 1.0400005967	 0.146412
O	-4.6638453044	-1.0832850858	 0.6260247064	-0.44067
C	-2.5998246684	-2.3899943987	 0.6909115852	-0.075062
N	-2.4680914751	-2.5109635408	-0.7730404973	-0.355702
C	-1.2943311495	-2.0883781418	 0.0517987574	-0.142972
H	 0.8890391172	 1.560694926	-0.1238193219	 0.307463
H	-2.3155705689	 0.9062710116	 1.0256531877	 0.133825
H	-2.938504542	 0.3848458729	-0.5322716383	 0.134305
H	-3.334937186	-0.956253787	 2.1265197547	 0.095098
H	-4.6538123229	-1.3635960927	-0.2986178848	 0.288054
H	-2.765586764	-3.2794471824	 1.2890566264	 0.096013
H	-2.3445417572	-3.4895311272	-1.0219767825	 0.240952
H	-0.429639185	-2.7372091893	 0.1155148859	 0.104334
