17
gdb 46214	3.05093	1.61076	1.25859	2.5588	73.23	-0.2418	0.0198	0.2616	1008.6261	0.137278	-417.97532	-417.967614	-417.96667	-418.007711	29.098	
O	 0.0167870197	-0.0215350863	-0.0164657243	-0.381398
C	 0.0339354455	 1.18258378	-0.0054092015	 0.401235
N	-0.9528498002	 2.1404950834	-0.0346506239	-0.352468
C	-0.0551699638	 3.3046651119	-0.0098720532	-0.250461
C	 1.0971008436	 2.2860164863	 0.0414871259	 0.206625
C	 2.3718422527	 2.3655032989	 0.7760927538	-0.113588
C	 3.0967357407	 1.0209128838	 0.7766196193	-0.249947
C	 2.9674415328	 1.0638846907	-0.7695868668	-0.157528
N	 2.324204059	 2.4372677168	-0.740732887	-0.195299
H	-1.9578878178	 2.0642399443	-0.0327676616	 0.255648
H	-0.0762474249	 3.9107809015	-0.9197042163	 0.129765
H	-0.1681955227	 3.9404495983	 0.8739994058	 0.117125
H	 2.620717338	 3.2332893438	 1.3802953989	 0.09872
H	 4.1296796339	 1.0961984699	 1.1202605012	 0.111321
H	 2.5973090572	 0.2022764187	 1.2981886207	 0.130435
H	 3.9217883651	 1.1286333528	-1.2940194702	 0.112539
H	 2.3407207612	 0.2979919153	-1.2292470407	 0.137276
