15
gdb 106916	4.3451	1.1353	1.00424	2.2231	67.03	-0.249	-0.075	0.1739	1143.2102	0.112007	-457.753802	-457.746007	-457.745063	-457.786424	29.132	
O	 0.0487202405	 1.3866816607	 0.2331098267	-0.411328
C	 0.092072549	 0.0057832238	-0.0838507039	-0.169124
C	-1.2935099418	-0.5664444678	-0.2019492451	 0.352603
O	-1.9547915197	-0.8769141949	 1.0526811345	-0.292426
C	-1.6992262048	-1.9387849153	 0.113275334	-0.180735
C	-2.9093385519	-2.2436113276	-0.7753352184	 0.402364
O	-3.4707038838	-3.3057264098	-0.8763491802	-0.311771
C	-3.1967894666	-0.9779629614	-1.5146960186	-0.201607
C	-2.279399139	-0.0490208792	-1.2184149908	-0.106823
H	-0.3680472067	 1.4686095832	 1.0983678679	 0.297206
H	 0.6139976636	-0.0698110518	-1.0434467501	 0.123997
H	 0.6576340293	-0.5721532521	 0.6600208167	 0.109197
H	-1.0395739267	-2.7347746669	 0.444240746	 0.118322
H	-4.0502908394	-0.8745240471	-2.1719670715	 0.130027
H	-2.2298042821	 0.9629840861	-1.6003978471	 0.140097
