19
gdb 107139	3.41235	1.16834	1.13859	1.8108	75.7	-0.2107	0.0784	0.2892	1174.0325	0.156977	-422.931402	-422.922715	-422.921771	-422.96442	33.832	
C	 0.0554739481	 1.3191748409	 0.2899404748	-0.256507
O	-0.0168103735	-0.015489822	-0.1867162086	-0.273485
C	-1.2906823364	-0.5336896356	-0.14466477	 0.4545
C	-1.8955157817	-1.1087928996	 1.1094366469	-0.372136
C	-1.678317154	-1.9858460082	-0.1123174243	-0.230471
C	-2.6930319354	-1.7184725296	-1.2721922763	 0.399201
O	-2.7707747172	-2.5688177922	-2.3590937778	-0.454413
C	-3.7352768111	-0.675109786	-0.9709926713	-0.371315
C	-2.3106502193	-0.2631454476	-1.2994205214	-0.188484
H	 1.0982283218	 1.6322871159	 0.2039513336	 0.126717
H	-0.5716318637	 1.9970693908	-0.3059764555	 0.113265
H	-0.2591696188	 1.3863175801	 1.3406357339	 0.111037
H	-1.1558641496	-1.2822682742	 1.8864658904	 0.117604
H	-2.8794690076	-0.856843071	 1.4902462265	 0.108807
H	-1.0382844148	-2.8582304076	-0.1006502105	 0.103526
H	-3.4062368872	-3.263982595	-2.1514682906	 0.284574
H	-4.4192417513	-0.5193893082	-1.800874213	 0.1162
H	-4.1867474123	-0.5236292018	 0.0038084851	 0.109302
H	-2.0652880861	 0.3548820009	-2.1529737618	 0.102076
