20
gdb 22170	2.27623	1.48003	1.11911	1.0782	85.83	-0.219	-0.0249	0.194	1177.2489	0.169973	-403.135913	-403.126669	-403.125725	-403.169898	35.381	
C	-0.0216753342	 1.5337354813	 0.046316077	-0.419866
C	 0.0024480769	-0.0037149671	 0.0145802235	 0.21565
C	-1.4311458321	-0.5608546592	 0.0188515021	-0.419763
C	 0.8188770127	-0.5374652822	-1.2069927921	-0.315401
C	 1.9580188757	-1.3155097156	-0.6060750108	-0.071804
C	 1.9343606321	-1.3170684133	 0.7335061761	-0.153056
C	 0.7897661546	-0.5498505793	 1.2126818072	 0.358219
N	 0.406369825	-0.3055613443	 2.4076314374	-0.25093
O	 1.2601793015	-0.8939947989	 3.3601415778	-0.394857
H	 0.9937132542	 1.943245813	 0.0324925274	 0.11389
H	-0.5609303021	 1.9307970928	-0.8208993806	 0.106352
H	-0.5138513471	 1.8887021979	 0.9559069257	 0.130345
H	-1.991632102	-0.195029363	-0.8486382578	 0.106362
H	-1.4276983354	-1.6552751424	-0.0149343553	 0.113915
H	-1.9562509395	-0.255219725	 0.927944522	 0.130313
H	 0.204885174	-1.1704491751	-1.8607152638	 0.110604
H	 1.185750108	 0.281394777	-1.8393917975	 0.110643
H	 2.7056520009	-1.8127547473	-1.214865137	 0.104485
H	 2.6385657969	-1.8015402858	 1.3945097623	 0.120962
H	 0.8501627601	-0.6272128236	 4.1891665466	 0.303938
