23
gdb 108135	3.30441	1.25187	1.16858	0.1936	88.58	-0.2425	0.0887	0.3313	1206.7069	0.208106	-351.150183	-351.141969	-351.141025	-351.182822	33.162	
C	-0.2999960496	 1.4880047158	 0.0657207288	-0.372725
C	 0.1378119802	 0.019949743	-0.033403187	-0.302528
C	 0.8395211433	-0.4693003508	 1.2048675941	 0.386276
C	 2.2573896777	-0.0636795235	 1.6281179792	-0.29416
C	 2.375540148	-1.4133375603	 2.4086997811	-0.033301
C	 1.9957720159	-1.2285803813	 3.88462413	-0.200707
C	 0.5497668047	-0.6607972079	 3.8238923208	-0.23885
C	 0.0786259417	-1.0095876183	 2.411264008	-0.076678
C	 1.075204744	-1.8885842182	 1.7021099285	-0.155061
H	 0.5589209706	 2.1449726226	 0.2397937036	 0.117317
H	-0.7908729823	 1.8191105788	-0.8547857796	 0.108232
H	-1.0009078625	 1.6332286115	 0.8943674562	 0.116404
H	-0.7378231378	-0.6125188615	-0.2288867395	 0.092431
H	 0.8027921715	-0.1037635375	-0.8994716463	 0.091668
H	 2.9272687579	-0.0371085359	 0.7630068918	 0.09265
H	 2.3901759488	 0.8612560924	 2.2032332914	 0.08213
H	 3.2909595004	-1.9810749697	 2.2405812814	 0.06151
H	 2.0046466051	-2.1968479904	 4.3983705213	 0.093163
H	 2.6893126877	-0.5674484472	 4.4148653058	 0.091029
H	-0.0970495541	-1.1204309764	 4.5776429634	 0.094387
H	 0.5288983342	 0.4193136495	 4.0060843905	 0.097224
H	-0.9776095921	-1.1871941627	 2.2352686547	 0.073787
H	 0.8671405067	-2.844847972	 1.2388628619	 0.075802
