11
gdb 130532	3.97028	1.79455	1.23592	2.8536	69.72	-0.2728	-0.1267	0.1461	877.8162	0.066045	-447.639065	-447.63287	-447.631926	-447.669564	23.438	
O	-0.1147551332	 1.1753987503	 0.0094794126	-0.211547
N	 1.1323582683	 2.0709147017	 0.0024446782	 0.025173
N	 2.2355442859	 1.5251409329	-0.0110242553	-0.142955
C	 2.3353163595	 0.1621771586	-0.0193543622	 0.370683
N	 3.4307962232	-0.5429855257	-0.0337969775	-0.290673
C	 2.9778130626	-1.8690422258	-0.0365119609	-0.022294
C	 1.6102660351	-2.0050704002	-0.0241207959	-0.228588
C	 1.1340670636	-0.6596269964	-0.0123691855	 0.352366
N	-0.067953076	-0.15164852	 0.0018503544	-0.131942
H	 3.7109722284	-2.6643964152	-0.0478432348	 0.138672
H	 1.0240120726	-2.91011911	-0.0233574433	 0.141106
