17
gdb 66006	2.6396	1.4057	1.2415	1.6736	68.42	-0.2507	-0.0326	0.2181	1067.3959	0.133752	-458.937758	-458.929096	-458.928152	-458.971268	31.974	
O	-0.0230659251	 1.6487697265	 1.0233609704	-0.475562
C	 0.0349040758	 0.3616781627	 0.4652852926	 0.269116
C	 0.6116714877	 0.1623853568	-0.9805255038	-0.295103
C	 1.469497976	-1.0411952395	-0.4737060395	-0.329992
C	 1.2366019015	-0.4880791196	 0.9280748012	 0.325579
O	 1.8764933153	-0.4240457723	 1.9412070389	-0.313445
C	-1.3077154658	-0.3129704507	 0.6961747815	 0.049183
C	-2.4250097498	-0.1751320473	-0.2418395978	-0.181795
O	-1.6717074566	-1.3918299133	-0.1625595161	-0.232698
H	 0.6814737043	 1.7028209635	 1.6826623678	 0.296875
H	-0.1086219588	-0.067849772	-1.7640337959	 0.123134
H	 1.2199988191	 1.0233823857	-1.2616431696	 0.121146
H	 0.9448929245	-1.9889701619	-0.6242996861	 0.15443
H	 2.5080353712	-1.1332176255	-0.7953226004	 0.129977
H	-1.5379523848	-0.4688036474	 1.7505409122	 0.109819
H	-3.4453832161	-0.2367207643	 0.1310310657	 0.126279
H	-2.2944592184	 0.3971829186	-1.157836291	 0.123055
