16
gdb 33805	3.54257	1.50643	1.34544	4.4029	76.7	-0.2457	-0.0269	0.2188	964.8507	0.126725	-363.615135	-363.608497	-363.607553	-363.645885	27.528	
N	 0.0177559117	-1.1403022434	-0.0179716569	-0.342191
C	 0.0050094668	 0.0153636732	-0.0073015564	 0.15667
C	-0.0093641231	 1.4664156253	 0.0034267704	 0.138626
C	-0.6575651971	 2.1824910706	 1.2387404968	-0.221362
C	-0.354081587	 3.5880490966	 0.6401878661	-0.139609
C	 1.1629589235	 3.4205764098	 0.421703461	-0.088328
C	 1.3768773948	 2.1630882922	 0.0442463105	-0.101114
C	-1.0421207991	 3.4072497848	-0.7277021135	-0.088328
C	-0.8433792885	 2.1496318796	-1.1129454833	-0.10112
H	-1.7234587974	 1.9669547139	 1.3371578781	 0.116017
H	-0.1257688953	 1.9766112418	 2.1699102026	 0.116019
H	-0.6616094409	 4.4566138718	 1.2201039016	 0.075457
H	 1.8874331828	 4.2178041281	 0.5143497507	 0.114451
H	 2.2960602785	 1.6738426083	-0.2433799174	 0.125181
H	-1.5404978276	 4.1970901666	-1.2724870602	 0.114452
H	-1.1294017921	 1.653080721	-2.0287054902	 0.125178
