18
gdb 44367	3.39138	1.56291	1.30742	3.9003	74.58	-0.2341	0.0333	0.2674	989.9234	0.151133	-401.966472	-401.959567	-401.958623	-401.99787	28.243	
O	 0.0029990041	-0.1037765427	-0.3558382004	-0.38035
C	 0.0143819125	 1.0770467519	-0.0634323358	 0.393468
C	-1.2683513	 1.8281154875	 0.3094160676	-0.35574
C	-1.1939701832	 3.3525350582	 0.3097869306	-0.037631
C	-0.4757664408	 4.1838830656	 1.349103179	-0.069039
C	 0.7317984779	 3.4365230789	 1.912806827	-0.249701
C	 1.2209368261	 3.181910075	 0.4375344158	-0.010583
N	 1.1617543351	 1.8211079966	-0.0527112019	-0.29695
C	 0.0713636282	 4.0629016399	-0.073630625	-0.078154
H	-2.0209701962	 1.4867930204	-0.4067458171	 0.135968
H	-1.5926720468	 1.4435545106	 1.2843279252	 0.133404
H	-2.0931604741	 3.8396607504	-0.0568030308	 0.094442
H	-0.956945312	 5.0369999412	 1.8109417275	 0.089345
H	 1.4168633537	 4.0934733844	 2.4544099204	 0.107145
H	 0.5419585336	 2.5459755252	 2.5207261921	 0.101056
H	 2.218743991	 3.5767639816	 0.2479036346	 0.089821
H	 2.0107772593	 1.2992458174	-0.2108289954	 0.24494
H	 0.1361698515	 4.789328028	-0.8739090233	 0.088559
