13
gdb 20631	4.09381	1.85952	1.28893	2.5029	68.29	-0.2443	-0.0799	0.1645	886.6773	0.094	-394.743734	-394.73643	-394.735486	-394.775507	26.319	
C	-0.0003805983	 1.5065340721	 0.005609671	-0.466905
C	-0.0547023505	 0.0131975882	 0.0724707575	 0.423552
C	-1.1425784469	-0.7390212902	-0.1996608282	-0.273524
C	-1.0746233198	-2.1680058224	-0.1012689557	 0.388452
N	-2.024573128	-2.9848647468	-0.3300903878	-0.502798
N	 0.2238927734	-2.6828870337	 0.3015085298	-0.125264
N	 1.2106107971	-2.0339754061	 0.5502348131	 0.044253
O	 1.119269796	-0.5192619232	 0.4403657853	-0.302469
H	 0.7636813118	 1.8254203323	-0.7106683931	 0.156197
H	-0.9678151503	 1.9120440271	-0.2961920222	 0.142707
H	 0.2752348375	 1.9190826618	 0.9814852145	 0.156198
H	-2.0753585153	-0.2787911988	-0.4939296483	 0.12638
H	-1.7024090367	-3.9431237203	-0.184418376	 0.23322
