17
gdb 42780	2.47996	1.94933	1.59774	2.6825	72.04	-0.2462	-0.0144	0.2318	910.4307	0.137047	-421.771033	-421.76416	-421.763216	-421.80209	27.909	
O	-0.0513599051	-0.0164406049	-0.0940588262	-0.328061
C	-0.0592384992	 1.1667800938	 0.0467456672	 0.4093
C	-1.0416336718	 2.3425422485	 0.0168799798	-0.052943
C	-0.8346852075	 2.8867316497	 1.4768172201	-0.310112
C	 0.7181984632	 2.9810996946	 1.4099628391	 0.004056
C	 1.9587206382	 2.1418300762	 1.8873027885	-0.280502
C	 2.4388410366	 2.134349023	 0.3730464233	-0.351115
C	 0.9554597706	 2.3251067477	 0.074154249	 0.337649
O	-0.0020732821	 2.976953229	-0.8390324919	-0.36912
H	-2.0283460739	 2.3286075766	-0.4393643579	 0.108892
H	-1.3012941433	 3.8593505579	 1.6428632342	 0.117198
H	-1.2434276198	 2.176388288	 2.2021217607	 0.123667
H	 1.0297659311	 4.0279975582	 1.3531796551	 0.09314
H	 2.6245464807	 2.6150449357	 2.6091711753	 0.113688
H	 1.70391154	 1.1353314656	 2.2254524171	 0.131775
H	 3.0474220279	 3.013882321	 0.1518138326	 0.126195
H	 2.9150169145	 1.2345777893	-0.0196126061	 0.126295
