17
gdb 33944	3.34153	1.43079	1.23516	1.9039	78.37	-0.2518	0.0205	0.2723	1044.4668	0.135976	-384.632287	-384.624914	-384.623969	-384.66379	29.972	
C	-0.0230895602	-1.1876956505	-0.104524402	-0.343373
C	 0.0319489728	 0.0085987983	-0.0007581159	 0.175552
C	 0.0708661441	 1.4328190459	 0.161430465	 0.253314
O	 0.2860271561	 2.2221516072	-1.0318554898	-0.29701
C	 1.2887967316	 2.2642006514	-0.0140879834	-0.028881
C	 1.2176812622	 3.4670414251	 0.9142382847	-0.264255
C	-0.1448259199	 3.3852906912	 1.6110951301	-0.044885
C	-1.4098892073	 3.4421939095	 0.7945213692	-0.284885
C	-0.8346067512	 2.1016877754	 1.1825842783	-0.120111
H	-0.0641171852	-2.2437008166	-0.2078941665	 0.191141
H	 2.2502075705	 1.8439706578	-0.3013843077	 0.104268
H	 2.0230572153	 3.3900312764	 1.6534694962	 0.110827
H	 1.36665279	 4.403850142	 0.3658409963	 0.119723
H	-0.1970584125	 3.7153669171	 2.6425485765	 0.089077
H	-2.3121885944	 3.7560309164	 1.3081145472	 0.108433
H	-1.3480237266	 3.7270094625	-0.2481960455	 0.137962
H	-1.3578061154	 1.4586446709	 1.8781874272	 0.093104
