25
gdb 114693	3.53472	0.9643	0.86939	0.2354	92.58	-0.2493	0.0817	0.331	1494.2793	0.229754	-352.370274	-352.36073	-352.359786	-352.40442	37.408	
C	 0.0145425251	 1.549612145	 0.1443611439	-0.384072
C	-0.0104436463	 0.0250471976	-0.0060356775	-0.187971
C	 0.7413017504	-0.4921405823	-1.2353778764	 0.076755
C	 2.2679379403	-0.2113693399	-1.2466424713	-0.244232
C	 2.8709400734	-1.3088544186	-2.1220924332	-0.075534
C	 3.1159922301	-2.65396232	-1.4790723593	-0.324269
C	 1.8542217145	-2.4272856243	-2.2753339492	 0.376583
C	 1.644811576	-3.1659224475	-3.5765316901	-0.484132
C	 0.6203786938	-2.0213420861	-1.456003913	-0.320413
H	 1.0367618398	 1.9253823479	 0.2571545695	 0.118083
H	-0.4225730521	 2.0400241352	-0.7329532476	 0.111701
H	-0.5548553883	 1.8714205214	 1.0220502393	 0.109473
H	 0.4174379849	-0.4405052409	 0.8929400266	 0.089402
H	-1.0531732894	-0.3152984498	-0.0557249774	 0.091097
H	 0.3191994496	-0.0040699074	-2.1256996878	 0.064835
H	 2.4944544023	 0.7851653873	-1.6365337898	 0.096591
H	 2.674134388	-0.2489860768	-0.2265679649	 0.091896
H	 3.5045081349	-1.023344139	-2.9557412872	 0.075728
H	 3.8800097076	-3.289352963	-1.9172375239	 0.100233
H	 3.0465034521	-2.7269649579	-0.3966970358	 0.098503
H	 2.5900016312	-3.3019444842	-4.112473938	 0.110646
H	 1.2159621472	-4.1612353079	-3.4078368372	 0.114145
H	 0.9617828428	-2.620518272	-4.2390781545	 0.11098
H	 0.5915131298	-2.5482643136	-0.4931545745	 0.091292
H	-0.3075122475	-2.2753072333	-1.9789153606	 0.092682
