17
gdb 10151	3.01875	1.30009	0.98847	1.3727	72.1	-0.2287	-0.0344	0.1943	1197.6898	0.139006	-363.821284	-363.811876	-363.810932	-363.855984	32.74	
C	 0.0093025665	 1.5657910023	 0.01207144	-0.392512
C	 0.0227472196	 0.0418834335	 0.0689365152	-0.109232
N	-1.3339344176	-0.4846887914	-0.1141675774	-0.274707
C	-1.4213044841	-1.9310237709	-0.0354077589	-0.241817
C	-1.2954102893	-2.5064065569	 1.3967832837	 0.157715
O	-1.2584351668	-1.8150820524	 2.3782759071	-0.239896
C	-2.682513082	-2.4491829752	-0.5734043901	 0.28675
C	-3.7333769799	-2.9010091685	-0.9419821369	-0.401599
H	 1.0242981497	 1.964240895	 0.099229104	 0.116777
H	-0.4257060633	 1.9137167609	-0.9290796158	 0.128261
H	-0.5821400742	 1.9830407762	 0.8348589321	 0.119855
H	 0.6412733783	-0.3520975438	-0.7484008012	 0.100962
H	 0.4861952757	-0.2887801953	 1.0119976518	 0.099054
H	-1.9443430871	-0.0899586336	 0.596379808	 0.226588
H	-0.5938366534	-2.361147522	-0.6206711568	 0.124345
H	-1.2708960727	-3.616650115	 1.4525656042	 0.096037
H	-4.6568102595	-3.286040983	-1.2988440691	 0.203418
