12
gdb 9018	5.43547	1.18292	1.04881	2.8987	62.89	-0.2843	-0.0602	0.2242	1042.6758	0.083636	-373.71965	-373.711612	-373.710668	-373.752555	27.678	
N	 0.259779209	 1.0550783141	 0.8661827403	-0.554947
C	 0.1667531047	-0.1257518425	 0.1753555791	 0.282349
N	 1.0738479303	-0.8118353084	-0.411792797	-0.276509
C	 2.4514177511	-0.3450932121	-0.4134493575	-0.286311
C	 3.006224044	-0.0045325337	 0.9080707515	 0.247993
N	 3.3814571421	 0.2907376805	 1.961470739	-0.310694
C	-1.1934971118	-0.6278562189	 0.0609909263	 0.288957
N	-2.2859492365	-0.9972043774	-0.0071605499	-0.306725
H	 1.1502992472	 1.3073791012	 1.2710231427	 0.290949
H	-0.5469371658	 1.3460128629	 1.3961963869	 0.283029
H	 3.0761934412	-1.128716272	-0.8519548135	 0.174304
H	 2.5585479444	 0.5424656163	-1.0557031179	 0.167606
