18
gdb 22955	2.7079	0.8961	0.71241	0.767	85.84	-0.239	0.006	0.2449	1602.7596	0.145139	-401.872221	-401.862231	-401.861286	-401.910158	34.702	
C	 0.0712288639	 1.5193097198	-0.3208920497	-0.498421
C	 0.0432840276	 0.0763310091	-0.1321303315	 0.079321
C	 0.0152425575	-1.1183975212	 0.0162291531	 0.08154
C	-0.0235942047	-2.552195612	 0.2200729479	-0.264849
C	 0.0445972409	-3.1152639002	 1.6925294503	-0.229601
C	-1.1631149414	-4.0536422334	 1.3899524742	-0.320331
C	-1.3538067896	-3.2966172251	 0.0932990296	 0.421665
N	-2.2662809329	-3.1718193986	-0.7720949993	-0.23604
O	-3.3518128261	-4.0209786059	-0.4849094726	-0.392205
H	 0.8480641084	 1.8139999939	-1.0351611032	 0.147178
H	-0.887369661	 1.8868397814	-0.703659016	 0.15038
H	 0.272826239	 2.0410531733	 0.6213768877	 0.146067
H	 0.7342462601	-3.0439867832	-0.4041082044	 0.117255
H	 0.9847889397	-3.5947468101	 1.9673328394	 0.109442
H	-0.195372616	-2.3436177754	 2.4247577638	 0.122542
H	-0.8889082551	-5.1024851891	 1.2369860975	 0.126576
H	-2.0087375957	-4.020427041	 2.0807341842	 0.132187
H	-3.9673763243	-3.8062271521	-1.1939530208	 0.307294
