16
gdb 84479	4.01809	1.20423	1.0378	1.6067	71.65	-0.2528	-0.0403	0.2125	1120.5425	0.124569	-437.86818	-437.860481	-437.859536	-437.900445	29.497	
O	-0.0131589574	 1.4538525884	-0.0639773131	-0.430547
C	 0.0450156637	 0.0400759127	-0.045186111	 0.096849
C	 0.7396129154	-0.5179617809	 1.1907116429	-0.125452
C	-0.040903248	-1.3332451075	 1.898281523	-0.125655
C	-1.3866666402	-1.4550501011	 1.2588837981	 0.222605
N	-2.1110775545	-0.139796655	 1.1741371925	-0.370884
C	-1.349654256	-0.6082521464	 0.0213809909	-0.127363
C	-2.1947950839	-2.6901126619	 1.3060579363	 0.074093
O	-1.8614945271	-3.7048585296	 1.8652232057	-0.254475
H	-0.5845295333	 1.7006631018	 0.675815315	 0.291697
H	 0.5626803994	-0.246031417	-0.967392692	 0.099995
H	 1.7413418721	-0.2022417982	 1.4574030655	 0.11419
H	 0.2077276287	-1.8428879031	 2.8197933999	 0.126049
H	-3.1063182829	-0.3055664612	 1.0179934811	 0.239989
H	-1.8731531722	-0.8895521721	-0.8862018442	 0.106531
H	-3.1720837338	-2.6101925989	 0.7711569394	 0.062377
