17
gdb 56794	2.99354	1.21046	0.95924	2.46	74.83	-0.249	0.0161	0.2651	1238.7783	0.135967	-417.975941	-417.966754	-417.96581	-418.011022	32.413	
N	-0.0607856488	 1.4999147375	 0.129930892	-0.49482
C	-0.0007954849	 0.0469175379	-0.0254104535	-0.240071
C	-1.3402988154	-0.5386937208	 0.074302882	 0.361904
C	-2.4461563427	-1.001555684	 0.137842872	-0.468878
C	 0.6747592259	-0.4155830153	-1.3088694134	 0.405632
N	 1.0852634375	 0.3460419601	-2.2359667145	-0.322701
C	 1.6968399381	-0.5296041423	-3.2492017937	-0.184173
C	 1.5131554702	-1.9652218008	-2.6894340869	-0.111525
O	 0.865690124	-1.7546311881	-1.412260406	-0.250653
H	 0.8628885341	 1.8732911126	-0.076168602	 0.239567
H	-0.6617825868	 1.8721856801	-0.6010140713	 0.241427
H	 0.6049440669	-0.3579034346	 0.7989519761	 0.136334
H	-3.4216251186	-1.4160344448	 0.2047868238	 0.202344
H	 1.1988522616	-0.3888515502	-4.2137571799	 0.121115
H	 2.7500433007	-0.2621009459	-3.3851695656	 0.118741
H	 0.8613887931	-2.5935478134	-3.3026436775	 0.123954
H	 2.452963375	-2.494725908	-2.5125169717	 0.121804
