17
gdb 12444	3.29332	2.02868	1.37336	2.8638	70.98	-0.2488	0.0058	0.2546	903.154	0.144014	-363.871329	-363.864011	-363.863067	-363.903335	27.492	
N	 0.0254701461	 1.3684372973	 0.2118138485	-0.471779
C	-0.0124811079	 0.1215578077	-0.003601299	 0.35878
C	-1.3393659438	-0.6005452005	-0.0922508691	-0.303235
C	-1.6228662307	-1.3446598627	-1.3805198471	-0.064922
C	-0.8307357428	-2.271486461	-1.9136665844	-0.0596
C	 0.504147685	-2.6692522492	-1.3326042281	-0.259491
C	 1.4528329613	-1.489792706	-1.1097973154	-0.070629
O	 1.1331326451	-0.6363672357	-0.0039624017	-0.258352
H	 1.0005510259	 1.6702334898	 0.2819007013	 0.217306
H	-1.3740496777	-1.3128695562	 0.746153129	 0.130128
H	-2.108352552	 0.1500552288	 0.0898725846	 0.135813
H	-2.56621997	-1.1097377099	-1.8651931073	 0.099535
H	-1.1455421441	-2.7736681757	-2.824470645	 0.092906
H	 0.3738333588	-3.1971092731	-0.3770327622	 0.121446
H	 1.0097162077	-3.3706615751	-2.0051557186	 0.108319
H	 2.4533928688	-1.8603081761	-0.8699670039	 0.115498
H	 1.5209749801	-0.8866345023	-2.0248974217	 0.108276
