15
gdb 123641	4.07154	1.55523	1.22368	4.3757	70.31	-0.2387	-0.0087	0.23	964.4517	0.116193	-416.771078	-416.76496	-416.764016	-416.801533	24.766	
C	-0.0536888067	 1.5123490979	 0.0049303604	-0.363678
C	 1.4384669996	 1.9027270991	-0.0316040644	-0.024087
N	 2.2085010884	 1.4837006408	 1.1543302116	-0.324044
C	 2.2981221281	 0.6721319144	-0.0901071047	-0.242674
C	 1.3398905891	-0.4605988183	-0.0759941669	 0.236707
C	 0.0716719149	 0.0187636613	 0.0012533943	 0.38572
O	-0.823332767	-0.9581573727	 0.0984668298	-0.226178
N	-0.1191364242	-2.1827417848	 0.0665823047	-0.14375
C	 1.155027248	-1.8627337845	-0.0269042972	-0.135377
H	-0.5513264942	 1.8942154913	 0.9019174859	 0.144694
H	-0.5950869747	 1.8920282624	-0.8691779843	 0.128444
H	 1.7226796367	 2.8163922766	-0.5418525637	 0.09832
H	 3.0352753774	 2.0739537438	 1.2301149969	 0.233091
H	 3.2309645558	 0.6442157057	-0.641058759	 0.099827
H	 1.8784222688	-2.6653327929	-0.0617656335	 0.132985
