21
gdb 31019	2.44532	1.20692	0.86319	1.5619	88.46	-0.1719	0.056	0.228	1407.0898	0.182631	-383.317788	-383.307499	-383.306555	-383.353548	37.36	
C	 0.1985360054	 1.6063325402	-0.2048017863	-0.357712
C	-0.0644381132	 0.1103898683	 0.0429568213	-0.301253
C	 0.6609296541	-0.4329631809	 1.2411759699	 0.224965
C	 0.1235109605	-0.7564292509	 2.4701134815	 0.198674
C	-1.2734159658	-0.6997443585	 2.9945918082	-0.508551
N	 1.1636906687	-1.2015680724	 3.2669015217	-0.318302
C	 2.3457858021	-1.1707981024	 2.5701770126	 0.279263
N	 3.541798652	-1.5389248414	 3.2242479331	-0.610444
C	 2.067901374	-0.7020176606	 1.3089863005	-0.307395
H	 1.2674795573	 1.7978035264	-0.342782379	 0.115396
H	-0.3269266899	 1.9591734694	-1.0989054257	 0.101236
H	-0.1349473537	 2.2068758993	 0.647569809	 0.112695
H	-1.143067939	-0.0504232699	 0.1535065868	 0.091351
H	 0.2308559148	-0.4530546224	-0.85204999	 0.096216
H	-1.624127997	-1.6794528785	 3.3450137969	 0.119911
H	-1.3771643994	-0.0000738507	 3.8348559662	 0.120967
H	-1.9601048407	-0.3684143714	 2.2126176113	 0.134741
H	 1.1001675011	-1.4199169907	 4.2464539756	 0.249858
H	 3.6459506356	-2.5478606325	 3.2954332432	 0.240025
H	 4.3430258401	-1.1883926606	 2.7134874271	 0.244435
H	 2.7827400231	-0.58676365	 0.507035336	 0.073923
