18
gdb 99074	3.42133	0.82595	0.75279	2.0116	76.35	-0.2542	0.0364	0.2906	1565.2698	0.144624	-439.093328	-439.082716	-439.081772	-439.130703	36.494	
C	-0.2501076652	 1.2906276568	-0.007275721	-0.233236
O	 0.0893705501	-0.0981141036	-0.0051793295	-0.268656
C	 0.6711561031	-0.5383309712	-1.1483281254	 0.535736
O	 0.8968896613	 0.1550327944	-2.1162736468	-0.41886
N	 0.9720561627	-1.8613405334	-1.0329708966	-0.368279
C	 1.5036629595	-2.6267932305	-2.1552352361	-0.11942
C	 2.9811968749	-3.0034468714	-1.9410928796	-0.381078
C	 0.6801237124	-3.8132168182	-2.4035279566	 0.312211
C	 0.024879158	-4.805022362	-2.57964722	-0.461499
H	 0.6407388601	 1.9098619034	-0.1410053224	 0.138674
H	-0.9581910385	 1.5176559825	-0.8083195529	 0.139974
H	-0.7032254842	 1.484138001	 0.9655075596	 0.12981
H	 0.6589390029	-2.3492817915	-0.2095983195	 0.257166
H	 1.4360863498	-1.9529738519	-3.0159600644	 0.151413
H	 3.0943677351	-3.6393261774	-1.0583238525	 0.122006
H	 3.3639462993	-3.5486057817	-2.8080086719	 0.130288
H	 3.572569218	-2.0950666432	-1.8013943913	 0.131592
H	-0.5640934091	-5.6716452521	-2.7531091931	 0.202157
