18
gdb 12119	3.13915	1.96656	1.46921	0.001	67.07	-0.2598	0.079	0.3387	906.5489	0.151443	-384.902586	-384.894262	-384.893318	-384.935329	31.358	
C	-0.0104430543	 1.5183346027	 0.0084613117	-0.484921
C	-0.0095621363	 0.0058816638	-0.0418532349	 0.36706
C	 1.1293854128	-0.6827882125	-0.6766921956	-0.229991
O	 1.0150107677	-0.6229149699	 0.7470267857	-0.276781
C	-1.3580955637	-0.6897197364	 0.0284987525	 0.366942
C	-1.357207822	-2.2022105505	-0.0209723203	-0.48487
C	-2.4972803411	-0.0007983143	 0.6626358962	-0.229992
O	-2.3824206603	-0.0613454538	-0.7610296087	-0.27678
H	 0.9865584722	 1.9050597633	-0.2122758234	 0.123429
H	-0.7190165902	 1.9212518689	-0.7195203627	 0.144601
H	-0.2924173779	 1.8747698428	 1.0039165737	 0.128147
H	 1.0145454903	-1.671952674	-1.1130911247	 0.114546
H	 1.9300428563	-0.0821471385	-1.1064046071	 0.113951
H	-0.6492905849	-2.6047556437	 0.7078454163	 0.1446
H	-2.3544505795	-2.5887152121	 0.1990573331	 0.123434
H	-1.0743724204	-2.5592730508	-1.0159565913	 0.128134
H	-3.2980465451	-0.6012723906	 1.0923727418	 0.113947
H	-2.3826086833	 0.9885805756	 1.0985897976	 0.114544
