21
gdb 83641	2.18239	1.66053	1.34587	1.4437	77.52	-0.2401	0.0703	0.3104	1080.5133	0.181288	-424.193854	-424.184816	-424.183872	-424.227146	35.192	
C	-1.2535907409	 0.9847626751	 0.3040569369	-0.41751
C	-0.3417264165	-0.2213560134	 0.1377303394	-0.046154
C	 0.676436793	-0.198522939	-1.0252963785	 0.101773
O	 1.2513388622	 1.1100996429	-1.2605393949	-0.294897
C	 2.4512339766	 0.7604584351	-0.5293716406	-0.093467
C	 1.8393423591	-0.5646240543	-0.0630048895	-0.110356
C	 0.8521598786	-0.4944779497	 1.1416279055	 0.381804
C	 1.1125709023	 0.5303966832	 2.2360525308	-0.462309
O	 0.7984796298	-1.8046795893	 1.6960409195	-0.478897
H	-0.6872598616	 1.9156734351	 0.2220892802	 0.133238
H	-2.0220359033	 0.9979876952	-0.4765400775	 0.116509
H	-1.7669591753	 0.9720369277	 1.2716194498	 0.106088
H	-0.9246410051	-1.1475541143	 0.0829802529	 0.073263
H	 0.429936641	-0.7117548692	-1.9587137859	 0.071982
H	 3.3034761828	 0.6326078397	-1.209730832	 0.100516
H	 2.7142386174	 1.5060945858	 0.2291547436	 0.101296
H	 2.4343640818	-1.4741357795	-0.1102053702	 0.086388
H	 1.1597076808	 1.5512911607	 1.8491897823	 0.128824
H	 0.3048351109	 0.5036152692	 2.9779227434	 0.10621
H	 2.0512342218	 0.3043728465	 2.7514571979	 0.123289
H	 0.0849612046	-1.8215457675	 2.3439981671	 0.272411
