19
gdb 87696	3.12192	1.16178	0.97004	3.9708	80.48	-0.2228	0.0235	0.2463	1287.3136	0.157515	-419.179834	-419.170277	-419.169333	-419.214644	34.04	
C	 0.0729614401	 1.4569867412	-0.3713820828	-0.420265
C	 0.1312298561	-0.0213005357	-0.0928251883	-0.015686
O	 1.436571856	-0.596319142	 0.1119619032	-0.282818
C	 0.5432154224	-0.5687774706	 1.2001692072	 0.349651
C	 0.8173189649	 0.1008952131	 2.5628163681	-0.263633
N	 0.350568603	-1.1557408238	 3.162658298	-0.094826
C	-0.1099187249	-1.4060590244	 4.4997869893	-0.342256
C	 0.0314923258	-1.7763303368	 1.9577906947	 0.30432
N	-0.4947345011	-2.8646243172	 1.5841658819	-0.570293
H	 0.7493619268	 2.0083561576	 0.2870613959	 0.126376
H	 0.3607198668	 1.6626026835	-1.4074746685	 0.135509
H	-0.9453914694	 1.8331451811	-0.2254894383	 0.126116
H	-0.523979663	-0.6511447999	-0.6954256893	 0.116969
H	 1.8674469307	 0.3378701544	 2.7651078783	 0.120404
H	 0.1889397546	 0.9720014206	 2.7928600666	 0.106196
H	-0.9343585305	-0.7375340458	 4.7896696919	 0.123603
H	-0.4689945781	-2.4373536566	 4.563129504	 0.137785
H	 0.7013990362	-1.2862138236	 5.226828927	 0.134159
H	-0.7641452965	-3.456548055	 2.371589841	 0.20869
