23
gdb 117883	2.81094	0.58791	0.5023	1.228	92.62	-0.2397	0.0592	0.2989	2247.8215	0.203075	-388.268968	-388.257172	-388.256228	-388.308258	40.792	
C	-0.1094566257	 1.574113638	-0.0439522099	-0.362292
C	 0.067830832	 0.0452902696	 0.0004945363	-0.313865
C	 0.7275004226	-0.4891673087	-1.1873003448	 0.100743
C	 1.2817507901	-0.9018572912	-2.1746999591	 0.033179
C	 1.9290406365	-1.4229884381	-3.3800655098	-0.164391
C	 1.9738627121	-2.9656997937	-3.3466192994	-0.382682
C	 1.2308613907	-0.8698561962	-4.6441120806	-0.15483
C	 1.9497925444	-1.1991464846	-5.947569627	-0.087044
O	 1.2800620085	-0.5019692086	-6.9882242197	-0.421884
H	 0.8592468885	 2.0749006269	-0.1240666034	 0.126271
H	-0.7129230103	 1.8697418365	-0.906477259	 0.127666
H	-0.6073890139	 1.9283805378	 0.8637724181	 0.111516
H	 0.6442177151	-0.2293636803	 0.8935919331	 0.125098
H	-0.913549418	-0.4320095632	 0.1197819133	 0.125597
H	 2.9677917584	-1.0597278804	-3.3891930407	 0.097789
H	 2.5462244247	-3.36386894	-4.1894043408	 0.112393
H	 2.4413998947	-3.3161092817	-2.422864687	 0.123331
H	 0.9615265372	-3.3796326062	-3.390703984	 0.123429
H	 0.2036634415	-1.24881246	-4.6910562832	 0.109815
H	 1.1605039039	 0.2197786437	-4.5659943342	 0.115394
H	 3.0063681095	-0.8887664761	-5.8760560828	 0.082137
H	 1.9411401434	-2.2837575635	-6.1338336519	 0.087936
H	 1.6917519643	-0.74171765	-7.8234213636	 0.284695
