16
gdb 42508	3.36343	1.15374	0.99527	5.5286	76.36	-0.2623	-0.0451	0.2172	1194.0283	0.123832	-400.758196	-400.749964	-400.749019	-400.791737	30.149	
O	 0.0446972502	 0.0864470707	 0.4596932356	-0.288625
C	-0.0166821511	 1.2564093953	 0.2356428474	 0.351483
C	-1.2156987183	 2.2606853424	 0.0321479031	-0.270451
C	-0.1421322907	 3.3712763919	-0.2649951167	-0.349768
C	 0.9724595456	 2.3574438171	 0.0395241364	 0.230255
C	 2.2412792352	 2.5256366512	 0.85366639	-0.306212
C	 2.3365087316	 2.1887077838	-0.5967865525	-0.30219
C	-2.1677919026	 1.9468601093	-1.0121959858	 0.280299
N	-2.9056308269	 1.6931073586	-1.8658496339	-0.319798
H	-1.7396558854	 2.4167448659	 0.9802757172	 0.152714
H	-0.165283377	 3.7185253679	-1.2990581262	 0.138454
H	-0.2025777745	 4.2291413618	 0.4065507649	 0.125822
H	 2.4822646239	 3.5354197161	 1.168395548	 0.13241
H	 2.4568629116	 1.7508080762	 1.5814327249	 0.144197
H	 2.61429624	 1.1784522104	-0.8770607937	 0.147206
H	 2.6454082484	 2.9629390515	-1.2907124288	 0.134206
