18
gdb 35846	3.40816	1.17267	0.91438	1.5621	79.33	-0.2469	0.0101	0.257	1245.1128	0.148206	-401.917997	-401.909521	-401.908577	-401.951445	31.782	
C	-0.024252863	-1.1995917762	-0.1489822598	-0.435343
C	-0.0256155072	-0.0006410973	-0.0618736627	 0.303319
C	 0.0042724978	 1.4532027981	 0.0752466789	-0.194985
C	-0.7967114569	 1.91408025	 1.3075163457	-0.209136
C	-0.9867180669	 3.4322845893	 1.3869782744	-0.16392
N	 0.1781770931	 4.2743420549	 1.6043328108	-0.236003
C	 1.2569918118	 4.1894775195	 0.9621743291	 0.111133
O	 1.6812734818	 3.3134824414	 0.0036579597	-0.231595
C	 1.4728370749	 1.9105289466	 0.1481131469	-0.070328
H	-0.0357380283	-2.2577563087	-0.2387026643	 0.198117
H	-0.4386899985	 1.9042830488	-0.8241311211	 0.112596
H	-1.7876386791	 1.4485925055	 1.2831283659	 0.113703
H	-0.2984034296	 1.5505796929	 2.2143674998	 0.113262
H	-1.4791264224	 3.7761278286	 0.4642958824	 0.114071
H	-1.6886855613	 3.6438108715	 2.2002861295	 0.110159
H	 2.0204339416	 4.9552876524	 1.1075415495	 0.118545
H	 1.9071516386	 1.5722699598	 1.0978768403	 0.116983
H	 2.0407463537	 1.4616767929	-0.6688102252	 0.129422
