25
gdb 100036	2.84364	1.02694	0.95075	1.4305	88.85	-0.2542	0.072	0.3262	1419.1023	0.226735	-389.478233	-389.467371	-389.466427	-389.513363	41.757	
C	 0.2519637205	 1.5124887524	 0.0925935912	-0.405658
C	-0.0417723192	 0.0087620685	 0.0506065938	-0.177252
C	-1.5370054997	-0.4120194759	-0.0086366837	 0.266092
C	-2.3005865387	 0.1895098174	 1.1859234458	-0.43716
C	-2.185289241	 0.0622897169	-1.3263088347	-0.412464
C	-1.5456649947	-1.9500042283	-0.015637441	-0.01066
C	-1.786925505	-2.8237936258	 1.2018433705	-0.354104
C	-2.7661032592	-2.824042326	 0.0525655523	 0.072361
O	-4.021259834	-2.2155753537	 0.1946178785	-0.410861
H	 1.3330243741	 1.6854819052	 0.1008396486	 0.109374
H	-0.1542976584	 2.0345103379	-0.7792631918	 0.116642
H	-0.1601071228	 1.9869938606	 0.9879561653	 0.117101
H	 0.4702018634	-0.4238043922	-0.8194546586	 0.085314
H	 0.4084410503	-0.4660036878	 0.9323781652	 0.091879
H	-2.363505036	 1.2774600072	 1.0899060913	 0.106533
H	-3.3165448698	-0.2038503923	 1.2372548754	 0.131622
H	-1.7947216754	-0.0268419314	 2.1333566936	 0.102094
H	-1.6630267966	-0.3569452523	-2.1941588896	 0.099149
H	-3.2284458764	-0.2609881919	-1.3720145824	 0.13443
H	-2.1641806129	 1.1527437528	-1.4187783025	 0.104057
H	-0.7961227874	-2.3429900777	-0.7003225531	 0.080058
H	-1.160229858	-3.6939617528	 1.3674828407	 0.105268
H	-2.1191524815	-2.3288545268	 2.1077169472	 0.115364
H	-2.7757804978	-3.6989668513	-0.5981745437	 0.083219
H	-4.5608310836	-2.7772927026	 0.7607053516	 0.287601
