13
gdb 49839	1.94355	1.77543	1.12161	4.7354	64.55	-0.2754	-0.0506	0.2248	1056.0807	0.086301	-456.546835	-456.538542	-456.537598	-456.580624	28.96	
O	-0.3154125752	 0.113291144	-0.1552339588	-0.215116
C	-0.0199017514	 1.2205428034	 0.1963094651	 0.146568
C	 1.3202847223	 1.8732247275	-0.0770386059	 0.027506
O	 2.2525810669	 1.002655346	-0.7648990275	-0.222141
C	 2.2839615671	 1.7933545323	-1.8831657578	 0.476129
O	 2.8695417247	 1.6197352799	-2.8952070718	-0.298957
C	 1.3583879159	 2.8816734593	-1.2721229431	-0.417304
C	 0.1375379123	 3.2115972973	-1.9697532938	 0.339226
C	-0.8811519097	 3.4742329318	-2.5493131183	-0.429308
H	-0.7165995108	 1.8756001289	 0.7644032099	 0.095479
H	 1.7511173063	 2.2598185985	 0.8523270617	 0.126446
H	 1.938270462	 3.7791270636	-1.0352754229	 0.154026
H	-1.7791390803	 3.7003449976	-3.0703905269	 0.217446
