19
gdb 65497	2.94282	1.2468	1.05219	1.9923	76.71	-0.2323	-0.0287	0.2036	1205.508	0.156184	-423.007025	-422.997932	-422.996988	-423.041345	33.89	
C	-0.4642628373	 1.7758454417	 0.1493749288	-0.458663
C	 0.0441812325	 0.3520944333	-0.0004322691	 0.32994
C	 0.7869025402	-0.0367260508	-1.2953480326	-0.41857
C	 1.9528125762	-0.3281304317	-0.3601616706	 0.459331
C	 2.8848598309	-1.4911226871	-0.3112948687	-0.329329
C	 3.4124656594	-0.0736783469	-0.5128817238	-0.334402
O	 1.2367417655	 0.108635165	 0.8063653528	-0.348268
C	-1.0091774523	-0.6510765561	 0.4505290014	 0.125429
O	-1.6173686899	-1.3907560245	-0.2774871431	-0.248071
H	 0.3371606643	 2.4825275947	-0.0827060733	 0.133837
H	-1.3051396592	 1.9564620842	-0.5285168302	 0.134187
H	-0.7986278891	 1.9623751146	 1.1754588948	 0.130781
H	 0.3545014901	-0.8904547509	-1.8185093325	 0.134967
H	 0.9453432361	 0.7896347879	-1.9912444915	 0.110505
H	 3.0522577077	-1.9492141047	 0.6575355049	 0.126624
H	 2.9012919533	-2.179133277	-1.1504030485	 0.119316
H	 3.7907965676	 0.2091610376	-1.4901084517	 0.116752
H	 3.9228285303	 0.3894941554	 0.3247942531	 0.126385
H	-1.1570307263	-0.6547006146	 1.5542623996	 0.089249
