19
gdb 118315	2.35541	0.81225	0.62784	3.8385	83.51	-0.2404	-0.0216	0.2188	1799.4723	0.154745	-422.997768	-422.986517	-422.985573	-423.03656	36.813	
C	-0.106550659	 1.4176214601	 0.0011882084	-0.230275
O	-0.0172411828	 0.0111201909	 0.0029362421	-0.230434
C	 0.713048443	-0.4979166212	-1.0863212519	-0.065017
C	 0.7021147035	-2.0294636834	-0.9707524024	-0.253451
C	-0.747301197	-2.5371712901	-0.9992678609	 0.186214
O	-1.2286586585	-3.2677757534	-0.1799717124	-0.240761
C	 1.4264050864	-2.6451790006	-2.0776119138	 0.031739
C	 1.9796728504	-3.1535063987	-3.01914623	 0.07996
C	 2.6655898139	-3.7776075852	-4.1410156576	-0.498764
H	 0.8875301644	 1.8874657167	 0.0584701925	 0.108702
H	-0.6130936178	 1.7924375945	-0.9018024533	 0.108147
H	-0.6869890486	 1.7074063177	 0.8797657724	 0.135256
H	 0.2591252592	-0.1940910669	-2.0450415381	 0.097703
H	 1.7512632415	-0.1314042203	-1.0846493902	 0.105339
H	 1.1281951245	-2.3221692347	-0.0051580306	 0.128018
H	-1.3213602669	-2.1791829013	-1.8840978011	 0.07908
H	 2.2852692714	-4.7884900115	-4.3237497816	 0.155063
H	 2.5308160212	-3.1996802742	-5.0617008104	 0.150502
H	 3.7417413912	-3.8568520885	-3.9523550913	 0.152979
