16
gdb 83190	2.99283	1.49076	1.28065	3.9189	64.11	-0.2562	0.0477	0.3039	1000.1698	0.126142	-475.041746	-475.034106	-475.033161	-475.074286	28.971	
O	-0.1314138715	 1.452432916	-0.1379448816	-0.42
C	-0.0398863521	 0.0718155278	-0.0058807323	 0.086131
C	-1.3310822308	-0.7226693936	 0.1343700148	-0.119146
C	-2.652712217	 0.0083846485	 0.0368252946	-0.192186
N	-3.1421824271	-0.0301331524	-1.3416990504	-0.360052
C	-2.3573813318	 0.1468983146	-2.4449344985	 0.448499
O	-2.7599494412	 0.4655113645	-3.5328477393	-0.375586
O	-1.0091503556	-0.0651903243	-2.2599223533	-0.255339
C	-0.5357343847	-0.7788804855	-1.1412582298	 0.036406
H	-0.0975508414	 1.6566518834	-1.0816997637	 0.304685
H	 0.8281212533	-0.2656181782	 0.5545731976	 0.104937
H	-1.3076924685	-1.6068191931	 0.760879507	 0.106944
H	-3.3980649906	-0.4791155027	 0.6699277217	 0.120483
H	-2.5351123564	 1.0429402726	 0.3833600155	 0.136227
H	-4.0941134071	 0.258693202	-1.5073555834	 0.26054
H	-0.0122597275	-1.6828356496	-1.4334309589	 0.117457
