17
gdb 75770	2.42969	1.33295	1.15594	3.3893	74.79	-0.2847	-0.0047	0.28	1143.0774	0.134425	-418.027437	-418.018346	-418.017401	-418.061222	33.224	
C	-0.3559181093	 1.4259240309	-0.0685443118	-0.417064
C	-0.0082219246	-0.0549397764	-0.0584513049	-0.181086
C	 1.2278720627	-0.5059115279	-0.8087787497	 0.442138
N	 1.6373440425	-0.3715062975	-1.9821406109	-0.53815
O	 1.8087367468	-1.13053631	 0.2840407432	-0.279544
C	 0.7239384087	-0.6978717339	 1.1751239101	 0.244793
C	 1.2491875068	 0.2107618789	 2.2759737521	-0.438335
C	 0.0312744337	-1.8635183493	 1.7338345229	 0.263838
N	-0.5371226963	-2.7627973913	 2.1845865067	-0.327199
H	 0.4972756179	 2.0529087123	 0.2006790843	 0.131013
H	-0.6693114029	 1.7107606648	-1.0764880097	 0.154343
H	-1.1798817324	 1.6415654302	 0.6179581504	 0.131979
H	-0.8786574745	-0.6502817212	-0.3462668054	 0.134591
H	 2.5445550451	-0.8172286221	-2.1263721441	 0.237099
H	 1.7956250511	 1.0494170616	 1.8406626756	 0.140747
H	 0.4245240601	 0.5956607943	 2.882218605	 0.146345
H	 1.9265210046	-0.3476669736	 2.926647036	 0.154492
