18
gdb 83316	2.96014	1.29777	1.17266	3.7243	73.32	-0.225	0.0286	0.2536	1107.9832	0.148891	-439.096614	-439.088364	-439.087419	-439.129943	30.71	
O	 0.017377296	 1.3999945855	-0.0539159807	-0.416621
C	-0.0249552065	 0.007008755	-0.061162885	 0.083274
C	-1.3718565142	-0.6580991445	 0.0611221396	-0.116923
C	-2.6193787263	 0.1818832452	-0.1965129493	-0.239042
C	-2.4400345583	 0.7983237721	-1.6049317071	-0.159576
N	-1.3329020635	 0.0440377791	-2.2055062196	-0.02308
C	-1.0383086303	 0.1154657683	-3.5264049049	 0.13018
O	-1.6472281424	 0.7879622885	-4.3349213787	-0.343795
C	-0.6145107528	-0.7439137257	-1.2432701373	-0.073838
H	 0.6333290814	 1.6891253501	-0.7360404966	 0.295262
H	 0.7995478803	-0.4850831561	 0.4560899669	 0.094306
H	-1.4594442381	-1.5165969449	 0.7165074055	 0.099868
H	-3.4950638753	-0.4729784361	-0.1694558716	 0.113021
H	-2.7621365678	 0.9587602154	 0.5582931189	 0.124834
H	-3.3266818364	 0.7081669592	-2.2375371781	 0.130183
H	-2.1775326411	 1.857147226	-1.5423455507	 0.127961
H	-0.1755870031	-0.5268559335	-3.7971255627	 0.065163
H	-0.1497544915	-1.6482175537	-1.6193753385	 0.108825
