17
gdb 22338	2.78712	1.32441	1.04376	2.0956	73.71	-0.2125	-0.071	0.1415	1162.5866	0.135181	-455.100973	-455.092369	-455.091424	-455.134451	31.888	
C	-0.3504293999	 1.376179324	 0.4367905907	-0.33134
N	 0.1028435415	 0.0570037502	-0.0046423704	-0.077183
C	-1.0177345348	-0.8271107743	-0.3505745131	-0.292764
C	-1.4176312608	-1.561830386	 0.9414696919	 0.332006
O	-2.4498979738	-2.1438351231	 1.1548886901	-0.296818
C	-0.2250990638	-1.3974411034	 1.8515384142	 0.290931
C	 0.835835461	-0.6636692142	 1.0556008815	-0.262576
N	-0.0400418336	-1.7500596649	 3.0656797717	-0.210111
O	-1.123185544	-2.3918250344	 3.633745392	-0.34746
H	 0.5198249368	 1.9935588413	 0.6774480288	 0.126834
H	-0.8911800133	 1.8623212565	-0.3801724594	 0.127836
H	-1.0120402692	 1.3587790738	 1.3217236837	 0.106194
H	-1.8609857669	-0.282476364	-0.7793951309	 0.134408
H	-0.696841138	-1.5782008476	-1.0872849474	 0.131565
H	 1.5250664942	-1.3822314026	 0.5901491962	 0.123049
H	 1.43015714	 0.0189386717	 1.6649875045	 0.129966
H	-0.8115605355	-2.5682832632	 4.5293798359	 0.315463
