16
gdb 32515	2.57009	1.34797	0.88923	5.6856	75.64	-0.2124	-0.0252	0.1872	1247.0738	0.124774	-437.921956	-437.913557	-437.912613	-437.955223	30.561	
C	 0.0409387902	 1.3294394277	 0.0068716069	-0.248805
O	 0.0040508839	-0.0851994973	 0.0027981097	-0.258425
C	-1.2295439004	-0.6382391863	 0.0103378943	 0.262848
C	-2.4628533843	-0.0267918363	 0.0215090923	-0.215757
N	-3.4079827343	-1.0440387415	 0.0254237664	-0.248454
C	-2.8077658416	-2.2548230541	 0.0172101296	-0.118367
C	-1.4335352894	-2.0586531565	 0.0073766472	 0.05645
C	-0.4226759075	-3.1045542152	-0.0035708404	 0.063517
O	-0.6628435142	-4.2963639204	-0.0054550379	-0.302129
H	 1.093314447	 1.6164475505	-0.0001829717	 0.138647
H	-0.4561365933	 1.7410845441	-0.8819397036	 0.1215
H	-0.4426482232	 1.7355904995	 0.9055967768	 0.121499
H	-2.7567655836	 1.0076781148	 0.0269464079	 0.128854
H	-4.4017888411	-0.8936271709	 0.0333649691	 0.270698
H	-3.3639097702	-3.1775695077	 0.0185488497	 0.15527
H	 0.623794252	-2.7332654605	-0.0102759264	 0.072654
