18
gdb 61799	2.57539	1.00327	0.76014	2.2535	71.71	-0.2678	-0.0456	0.2223	1458.8405	0.144215	-476.225847	-476.215783	-476.214839	-476.261927	35.049	
C	-0.0743093745	 1.5853027742	 0.0724221876	-0.400042
C	-0.0126455506	 0.0644871933	 0.0397790305	 0.084404
O	-1.3275836235	-0.5063581069	-0.0272546528	-0.201702
C	-1.9835908603	-0.6934223586	 1.1370897621	 0.127137
N	-3.1717010476	-1.1154447301	 1.1279104581	-0.439052
C	 0.7302470533	-0.4551526179	-1.2104185569	 0.032302
O	 2.0167275794	 0.0903677818	-1.2680161254	-0.434001
C	 0.804540843	-1.9733021778	-1.2160697857	 0.125505
O	 1.8722848288	-2.5369206074	-1.2708572561	-0.262719
H	 0.9368592361	 1.9953141225	 0.0315021951	 0.152384
H	-0.6441314242	 1.9572535157	-0.7844602327	 0.134874
H	-0.5613994911	 1.9332224316	 0.9882316974	 0.119816
H	 0.5078016746	-0.3129172149	 0.9315678811	 0.095096
H	-1.3777847886	-0.4588839829	 2.0233491677	 0.091835
H	-3.5115061199	-1.221363108	 2.0814379343	 0.232747
H	 0.1311104211	-0.159308476	-2.0901142448	 0.110233
H	 2.6175353555	-0.6726536135	-1.3042803575	 0.298342
H	-0.1520853214	-2.522195595	-1.1707107021	 0.132842
