19
gdb 70870	2.78693	1.56941	1.20035	0.9328	75.55	-0.2285	0.0733	0.3018	1071.0233	0.157448	-422.975354	-422.966723	-422.965779	-423.007699	34.379	
C	-0.0847064251	 1.4556913984	 0.040649804	-0.499773
C	 0.0474264012	-0.0372579643	 0.0052628629	 0.303832
C	 0.9426980601	-0.8712418483	-0.9170464851	-0.348773
C	 0.0949531775	-2.084638078	-0.4421692121	 0.388417
O	-0.1475389192	-3.1875064544	-1.2463697039	-0.478573
C	 0.4748413895	-2.2393518187	 1.0657780153	-0.367287
C	-0.2475857696	-0.9066969526	 1.2354036851	 0.356471
O	-0.5991421523	-0.2823493758	 2.4152221106	-0.46158
C	-1.0563308277	-1.0882603881	-0.0337264082	-0.273607
H	 0.8564681287	 1.92648519	 0.3481109045	 0.119464
H	-0.3510388237	 1.85380744	-0.9446567174	 0.113776
H	-0.8532744038	 1.7605626491	 0.7558637552	 0.13115
H	 0.7421735646	-0.640136895	-1.9678997404	 0.099345
H	 2.024797028	-0.8946779595	-0.7343800877	 0.079561
H	 0.6788924756	-3.6721987633	-1.3529615424	 0.280298
H	-0.0900204006	-3.061519227	 1.5177604221	 0.092246
H	 1.5368064577	-2.3123695283	 1.3299750173	 0.084925
H	-1.2569958302	-0.8272775269	 2.8607561298	 0.285963
H	-2.1096817605	-1.0318510872	-0.2660763197	 0.094146
