18
gdb 89318	1.91062	1.79076	1.1105	6.0664	78.11	-0.2499	0.0131	0.263	1137.5478	0.147894	-398.10186	-398.092929	-398.091985	-398.135198	33.568	
C	 0.0067400875	 1.5768226976	 0.0732986358	-0.477303
C	-0.0566437639	 0.0809580638	 0.0488004001	 0.267134
C	-1.3173660161	-0.7832186547	-0.1016409201	-0.328261
C	-0.7149787494	-1.8033165828	 0.9458153542	-0.029169
N	-0.5226238255	-3.2099701806	 0.6800659305	-0.518154
C	 0.558545766	-0.9399309044	 0.9994178612	 0.164036
N	 1.1224812805	-0.6786639349	-0.3293031739	-0.378836
C	 1.3902662919	-0.758734645	 2.1501537145	 0.231873
N	 2.0221967818	-0.6063884497	 3.1072105418	-0.351323
H	 0.9973605201	 1.911735105	 0.389398694	 0.150328
H	-0.1880200481	 1.9839832628	-0.9255107815	 0.130363
H	-0.7418409004	 1.9890807644	 0.7568205539	 0.128169
H	-2.2352936081	-0.3076566843	 0.2516718569	 0.115107
H	-1.4848901646	-1.1714603152	-1.1122918647	 0.097563
H	-1.2563293808	-1.7107411804	 1.8909877156	 0.10935
H	-1.4110429482	-3.700052766	 0.6692413988	 0.237354
H	-0.0888208738	-3.3668473502	-0.224311243	 0.223614
H	 0.939264491	-1.4309409956	-0.991446174	 0.228155
