19
gdb 70395	2.3897	1.51223	1.32513	1.2879	81.1	-0.2461	0.0468	0.2929	1080.9609	0.156028	-385.830342	-385.821101	-385.820157	-385.86358	35.545	
C	-0.1641765669	 1.5271672664	 0.1090378443	-0.513052
C	 0.1165196867	 0.0626773623	 0.0455410449	 0.394486
O	-0.7587197751	-0.8389403167	 0.7300575651	-0.295091
C	 0.6511007137	-0.9146204304	 1.005902401	-0.028313
C	 1.2761143317	-1.77570861	-0.0911188331	-0.30264
C	 0.7083539274	-0.7494851179	-1.1633941124	 0.072029
C	-0.3272911629	-1.3002114803	-2.1488055361	-0.459589
C	 1.7728604633	-0.0255302035	-1.8392168293	 0.27715
C	 2.646649102	 0.5856467456	-2.396814252	-0.4603
H	 0.6970878245	 2.0969024607	-0.2497587931	 0.140432
H	-1.0259894431	 1.783508859	-0.5175201688	 0.131524
H	-0.3900815423	 1.8258940225	 1.1360349335	 0.132909
H	 0.9561197072	-0.7950735493	 2.0394648747	 0.103047
H	 2.3667065228	-1.7908139794	-0.0743073806	 0.120625
H	 0.886367268	-2.7941372184	-0.1624940318	 0.111639
H	-1.1359164412	-1.7832008911	-1.595779592	 0.136096
H	-0.746733788	-0.4982272727	-2.7638246383	 0.122306
H	 0.131640586	-2.0326564144	-2.8193779265	 0.123542
H	 3.4191675562	 1.1184163575	-2.8939064293	 0.193199
