18
gdb 70453	3.27296	1.25288	1.15401	2.5585	71.16	-0.2331	0.0569	0.2901	1120.4746	0.147608	-438.998407	-438.990367	-438.989422	-439.031015	31.149	
O	-0.2397245971	 1.3739958101	 0.1140139819	-0.447736
C	 0.0054181185	 0.0215944672	 0.0441388392	 0.314378
C	-0.7832116745	-0.949638734	 0.8714983816	-0.339953
C	 0.7248189364	-0.972446645	 0.9325908997	 0.009666
O	 1.2771893161	-1.6715038559	-0.1944942403	-0.306231
C	 0.7085659163	-0.6965791408	-1.1181068297	 0.020508
C	-0.0750915257	-1.3185701588	-2.2459099007	-0.010917
C	 0.4815981487	-2.4758966121	-2.9866457651	-0.244425
N	-0.6784258738	-2.6493833264	-2.0897295767	-0.319494
H	 0.5909908593	 1.8446144791	-0.022387284	 0.288658
H	-1.2425329808	-0.4765837999	 1.7348058233	 0.12734
H	-1.351632708	-1.7630308977	 0.4322736731	 0.132973
H	 1.3274329691	-0.9019141328	 1.8294335123	 0.114274
H	 1.5152615433	-0.0640383333	-1.5206913008	 0.080448
H	-0.6967155913	-0.603676979	-2.7829252038	 0.100341
H	 0.2708533978	-2.5974451201	-4.0451619198	 0.117064
H	 1.4404357483	-2.868919193	-2.6591997417	 0.12357
H	-0.3298740026	-3.0441735576	-1.2180118086	 0.239535
