20
gdb 15012	4.16469	1.31451	1.06974	2.0483	71.15	-0.2434	0.0757	0.319	1118.1573	0.178759	-386.146222	-386.13818	-386.137236	-386.178543	30.594	
O	-0.0337855607	 1.4421437306	-0.0268343344	-0.424821
C	 0.0330412294	 0.0232108438	 0.0081271468	-0.096724
C	-1.3896603923	-0.5239893471	-0.0135695733	 0.039931
C	-2.1489360998	-0.1237858223	-1.2887438155	-0.193497
C	-3.537215494	-0.7648748021	-1.3074341926	-0.084345
O	-3.4704107756	-2.1769555906	-1.18357625	-0.243081
C	-2.8507323318	-2.5755316375	 0.0255557318	-0.076495
C	-1.4153124178	-2.0530543564	 0.134990128	-0.216606
H	 0.8626662169	 1.7860066835	-0.0731857595	 0.287172
H	 0.5911026421	-0.3701999469	-0.8580886912	 0.083275
H	 0.5493952944	-0.3270214133	 0.9171173448	 0.081479
H	-1.915606793	-0.0852300094	 0.8474924063	 0.077888
H	-2.230436657	 0.9648713674	-1.3563794691	 0.111157
H	-1.5885641422	-0.4670790357	-2.1688302234	 0.094008
H	-4.1537672192	-0.3457145249	-0.4922509217	 0.082159
H	-4.0537173889	-0.5671937977	-2.2513586427	 0.103293
H	-3.4407412591	-2.2178378725	 0.8884473965	 0.081433
H	-2.8743340257	-3.6693677676	 0.0356409539	 0.10312
H	-0.810752398	-2.5130795877	-0.6578449547	 0.099957
H	-0.9840033378	-2.3620537436	 1.09521501	 0.090697
