21
gdb 72172	2.27874	2.11659	1.66095	1.2033	80.29	-0.2519	0.0773	0.3292	941.675	0.186321	-387.096495	-387.089439	-387.088495	-387.127298	30.425	
O	-0.0729267756	 1.3894268911	 0.0429236859	-0.498164
C	-0.006523895	-0.0031568993	-0.0285846361	 0.433494
C	 0.2578536367	-0.7884004772	-1.3363445152	-0.307543
C	-0.4206982777	-1.9316992334	-0.532223322	-0.041372
C	 0.6474869737	-2.203356846	 0.5489767535	-0.221048
C	 0.746329387	-0.7559236432	 1.1171117673	-0.077644
C	-0.2251077409	-0.6259151466	 2.3037021998	-0.210033
C	-1.6019127947	-0.9578408012	 1.6514040761	-0.247777
C	-1.3085938076	-0.8236931497	 0.1501496365	-0.026204
H	 0.825689279	 1.7366025813	 0.0485210483	 0.275919
H	-0.3604305962	-0.4133290929	-2.1553637486	 0.098273
H	 1.2879203128	-0.9403807141	-1.6750411654	 0.079092
H	-0.8701070598	-2.7886204274	-1.0328277195	 0.060194
H	 0.3371640231	-2.9268805423	 1.3091458871	 0.091714
H	 1.5827398515	-2.5614182744	 0.1083538172	 0.091286
H	 1.7629928439	-0.4076414058	 1.3191423408	 0.045908
H	 0.0329504994	-1.2927541969	 3.1317686255	 0.087319
H	-0.2207730794	 0.400119953	 2.684700064	 0.100569
H	-1.950799212	-1.9631595495	 1.9100720873	 0.096123
H	-2.3803879615	-0.2597939396	 1.9708870015	 0.101954
H	-2.1382578467	-0.5022080859	-0.4806737741	 0.067941
