20
gdb 113988	4.01882	0.62179	0.57259	3.2402	80.83	-0.2695	0.0365	0.306	1892.9995	0.170079	-403.145347	-403.135296	-403.134351	-403.181636	35.477	
O	-0.1744174674	 1.3693991073	-0.7215614617	-0.41862
C	-0.0009539044	 0.1693095592	 0.0201001286	-0.09902
C	-1.3445988153	-0.5069755622	 0.1077258857	-0.00548
C	-1.8361581327	-1.394345039	-1.0085406416	-0.285786
C	-1.5087703113	-1.9920363752	 0.3409258163	-0.017556
C	-0.3453786222	-2.945365117	 0.5183029504	-0.214561
C	-0.7540980035	-4.3924393128	 0.163350447	-0.332749
C	 0.3443594367	-5.3419900287	 0.3248337421	 0.254942
N	 1.2275050726	-6.0753849118	 0.4583029019	-0.305512
H	 0.6591867847	 1.8493077154	-0.7119608184	 0.286805
H	 0.7331070166	-0.4906246153	-0.466938114	 0.083495
H	 0.3755524681	 0.3829087028	 1.0336070354	 0.08938
H	-2.0940513579	 0.1216132534	 0.5806726644	 0.095984
H	-2.8726011274	-1.3234021638	-1.3182377224	 0.116478
H	-1.1422397901	-1.5870640963	-1.8217922859	 0.114908
H	-2.3687932721	-2.2535395024	 0.9543992767	 0.087619
H	 0.4984456894	-2.6571323099	-0.1151225839	 0.120807
H	 0.0167652847	-2.9232781684	 1.5526069265	 0.121611
H	-1.5893999754	-4.7157669553	 0.7955118063	 0.150777
H	-1.109202923	-4.4365721	-0.8722998734	 0.15648
