20
gdb 101379	3.52077	0.98143	0.87549	3.9622	74.9	-0.2326	0.06	0.2926	1361.5435	0.171159	-440.224908	-440.216019	-440.215075	-440.258801	33.898	
O	 0.0472950975	 1.4413635004	-0.0745916746	-0.425486
C	 0.0297488111	 0.0473454218	 0.1420617286	-0.062392
C	-1.3881736856	-0.5096422236	-0.0028941421	 0.086011
O	-1.9277257454	-0.0707421006	-1.2606652589	-0.446647
C	-1.4671877266	-2.0211993375	 0.1306453379	-0.013906
C	-1.1706282309	-2.6907368683	 1.5283753252	-0.255069
C	-2.5763059652	-3.2989188269	 1.4861040759	-0.040975
N	-3.5095642005	-2.1489224874	 1.4195747946	-0.32724
C	-2.8695926241	-2.6499340422	 0.1799972858	-0.062454
H	-0.5825284537	 1.5906205059	-0.7924964775	 0.283549
H	 0.6970125567	-0.4782834538	-0.5685489791	 0.062654
H	 0.4183272875	-0.1384486615	 1.1493220005	 0.108825
H	-2.034710533	-0.0474931672	 0.7488704708	 0.118169
H	-1.4572763196	-0.5422033455	-1.9592159799	 0.277145
H	-0.8565843889	-2.4972124709	-0.6469680956	 0.063535
H	-0.3670379155	-3.4274369971	 1.4738871395	 0.105403
H	-0.9905334275	-2.0113763863	 2.3654931677	 0.112247
H	-2.899832313	-4.253363555	 1.8821096945	 0.09462
H	-4.4576175303	-2.5233142119	 1.436584305	 0.230102
H	-3.4713131629	-2.9878705325	-0.6542408183	 0.09191
