13
gdb 113141	2.52473	1.18605	0.89701	3.0377	64.92	-0.3049	-0.057	0.2479	1231.5547	0.087199	-452.719973	-452.711191	-452.710247	-452.754139	30.324	
O	 0.0352692481	 1.3916672257	-0.3092888933	-0.401822
C	 0.0713116126	 0.0922887545	 0.2422408912	-0.109715
C	-1.3208309995	-0.4947018018	 0.2884979332	 0.002365
O	-1.8268299304	-1.0474712087	-0.9277680133	-0.249876
C	-1.5880658358	-1.9564461393	 0.1474741232	 0.12904
C	-0.4915371106	-2.8911056425	-0.0335310744	 0.272062
N	 0.3834970719	-3.6327921791	-0.1673041627	-0.31458
C	-2.7697978053	-2.5206437793	 0.7743609946	 0.259421
N	-3.7072462601	-2.9582572471	 1.2871610071	-0.304308
H	-0.1776990228	 1.3122604954	-1.2457641854	 0.301889
H	 0.7437310643	-0.5799821461	-0.3063250271	 0.12981
H	 0.4510003323	 0.1953070061	 1.2638966468	 0.140892
H	-2.0581362248	 0.0736066222	 0.8548509299	 0.144823
