21
gdb 63535	2.95926	1.32805	1.18723	1.9688	83.27	-0.2246	0.0762	0.3008	1158.276	0.182104	-383.203059	-383.19418	-383.193236	-383.236149	34.727	
C	-0.1039625938	 1.5167573883	 0.0090385136	-0.437916
C	-0.0651624981	 0.0039630888	 0.0698702128	 0.257508
C	-1.236705431	-0.693350425	-0.5892129706	-0.457983
N	 1.2967801235	-0.5756252521	-0.1072043038	-0.43961
C	 0.627099255	-0.6668788124	 1.1920876609	 0.373539
C	 1.2785858784	-0.1201567927	 2.4883601291	-0.305593
C	 0.8892164403	-1.4436153911	 3.1658250614	-0.043335
N	-0.5866510014	-1.5510719983	 3.0640333999	-0.334969
C	 0.2700538997	-1.956200761	 1.9125389172	-0.171488
H	 0.7907519363	 1.9479919364	 0.4632040581	 0.12613
H	-0.1527293879	 1.8610389632	-1.0305388206	 0.113164
H	-0.9835643269	 1.9040821427	 0.5350479637	 0.116643
H	-1.2808519874	-0.4539477153	-1.6584558282	 0.116786
H	-1.1688250593	-1.7806063423	-0.4867583869	 0.106674
H	-2.1829284946	-0.3756827343	-0.1380439983	 0.129191
H	 1.2330219997	-1.4695285503	-0.5926878402	 0.218636
H	 2.3567360794	 0.001316977	 2.3620587698	 0.114775
H	 0.8433273408	 0.7792798512	 2.9307042765	 0.10657
H	 1.4336708811	-1.9769485489	 3.9347121351	 0.094581
H	-0.8541484327	-2.4115876577	 3.5437541833	 0.226334
H	 0.2285587088	-2.9619212461	 1.5102811473	 0.090363
