21
gdb 6375	4.4793	0.97381	0.95002	3.2493	76.58	-0.242	0.0368	0.2788	1361.6878	0.186852	-366.310724	-366.300368	-366.299424	-366.347213	36.034	
C	-0.0125815235	 1.4634968226	 0.3069161389	-0.333276
N	-0.1782908797	 0.0238257056	 0.3332382011	-0.312646
C	-1.2861337239	-0.6007537804	-0.1643855001	 0.41726
O	-2.2276683882	 0.0079144006	-0.6451077497	-0.380232
C	-1.2476291129	-2.1269088602	-0.1022512603	-0.311883
C	-2.6300565132	-2.7438057099	 0.1662272139	 0.067264
C	-2.6047199613	-4.259413024	-0.0630585533	-0.398882
C	-3.1317876378	-2.4016825599	 1.5750771105	-0.389214
H	 0.8522775191	 1.7580403614	-0.2986533844	 0.123419
H	-0.9166905261	 1.8830672571	-0.1356829832	 0.171627
H	 0.113612087	 1.8694513501	 1.3168827935	 0.123452
H	 0.5583128902	-0.5415412362	 0.7204023698	 0.243004
H	-0.8763952571	-2.4728900266	-1.0762074297	 0.121857
H	-0.5225771197	-2.4698507709	 0.6478806568	 0.085568
H	-3.3161551261	-2.287053096	-0.5557028943	 0.10371
H	-1.9114691984	-4.7550433048	 0.6279340177	 0.106787
H	-3.5960338557	-4.6958424798	 0.0972129255	 0.112109
H	-2.29083892	-4.5070193748	-1.0828912671	 0.108848
H	-3.1949457589	-1.3194203064	 1.7195284799	 0.128674
H	-4.1288795734	-2.8198608551	 1.7466432818	 0.111121
H	-2.4643447504	-2.8131568124	 2.3428548528	 0.101432
