19
gdb 79821	2.11053	1.96841	1.67559	1.1655	73.29	-0.229	0.0616	0.2906	948.1501	0.15954	-422.991986	-422.984189	-422.983245	-423.023644	31.514	
C	-0.1585198693	 1.6014197387	-0.0262205084	-0.430292
C	 0.058303978	 0.0918070632	-0.0280968556	-0.031742
C	 0.7408029334	-0.5816192988	-1.2243355877	-0.124902
C	 2.246654797	-0.4796194227	-1.0854379548	 0.108601
O	 2.8038865786	 0.546834991	-0.2824296999	-0.267322
C	 2.3725562159	 0.2991339014	 1.0577968407	-0.134525
C	 1.135137116	-0.5950704323	 0.8966650562	 0.339095
O	 0.6982078235	-1.2485898356	 2.0531865056	-0.493961
C	 1.5306667893	-1.5095453553	-0.2911377329	-0.165147
H	 0.7651917991	 2.1383993548	-0.2547456787	 0.140055
H	-0.901095572	 1.879004776	-0.7825671007	 0.115271
H	-0.5373995541	 1.9535948498	 0.9409309973	 0.10178
H	-0.8836853784	-0.4306054214	 0.1731586088	 0.080756
H	 0.2721654634	-0.8171053698	-2.174161168	 0.082191
H	 2.8649258579	-0.7357689347	-1.9371963693	 0.104519
H	 3.1486330175	-0.2258849317	 1.6345501829	 0.098307
H	 2.1605254786	 1.2614035616	 1.5373128783	 0.098756
H	 0.3539035914	-0.5875738847	 2.6637375173	 0.281373
H	 1.6825159142	-2.5798914196	-0.272938011	 0.097187
