20
gdb 57652	3.05365	0.96749	0.94082	3.5679	76.57	-0.2477	-0.0247	0.223	1356.3789	0.167832	-440.25976	-440.249819	-440.248875	-440.295156	36.124	
C	 0.0347044702	 1.6753544369	-0.0326249888	-0.424796
C	 0.0456404475	 0.1431676488	 0.0163741658	 0.268875
O	 0.6108553356	-0.3408912136	 1.2210356871	-0.475848
C	-1.3711719063	-0.4690545892	-0.1479117314	-0.182977
N	-2.1135545505	-0.2796947066	 1.0942590722	-0.088773
C	-3.1542100817	 0.746004598	 1.1247849432	-0.220028
C	-3.5105282996	-0.6988623145	 1.1060420225	-0.227883
C	 0.8989532048	-0.4243404306	-1.117113134	 0.138786
O	 0.9221019894	 0.0155071256	-2.2370353559	-0.259963
H	 1.0363693236	 2.0545601052	 0.1857487746	 0.129075
H	-0.2598638828	 2.0243637956	-1.025696225	 0.130362
H	-0.6522436615	 2.0806083426	 0.7146709114	 0.118326
H	-0.1323760138	-0.4098672797	 1.83970637	 0.286853
H	-1.8719711584	-0.0401479261	-1.0290110693	 0.107425
H	-1.2708295828	-1.5494840448	-0.3074948302	 0.112362
H	-3.2274182585	 1.3191392434	 2.0442003146	 0.126528
H	-3.3282064395	 1.3162136657	 0.2146111451	 0.123701
H	-3.925843123	-1.0978006123	 0.1827326018	 0.120363
H	-3.8463037837	-1.1967835185	 2.0109063001	 0.125966
H	 1.4872268208	-1.3177114359	-0.8110695536	 0.091647
