19
gdb 65522	3.80335	1.18872	1.15454	3.4156	75.02	-0.2349	0.0712	0.3061	1133.3464	0.160697	-419.129124	-419.121202	-419.120257	-419.161547	31.506	
O	-0.2151138547	 1.3218057776	-0.2827652986	-0.494228
C	-0.0859921736	-0.0672449679	-0.1193199503	 0.414634
C	 0.3508174381	-0.5580593572	 1.328451733	-0.295977
C	-1.015820792	-1.2254020337	 1.4648849808	-0.033672
N	-2.0181316568	-0.1435423999	 1.2767949098	-0.363933
C	-1.4206905954	-0.8156571975	 0.0947013771	-0.109095
C	 0.7671925406	-0.6126359559	-1.2377981812	-0.036221
C	 0.6929286817	-0.024576438	-2.5968378364	-0.248687
N	 1.8890122757	 0.1813366335	-1.755699912	-0.336915
H	-0.9051508225	 1.5876730947	 0.3414978945	 0.293037
H	 1.1813197271	-1.2662638081	 1.2890653982	 0.114554
H	 0.5694060088	 0.2355539472	 2.0468114654	 0.105563
H	-1.2732047256	-2.1200215196	 2.0172762163	 0.09815
H	-2.9443759241	-0.5424583056	 1.4207756047	 0.235261
H	-2.0429437101	-1.3038365952	-0.6459075741	 0.094368
H	 0.9836250308	-1.6748470587	-1.1408128263	 0.084656
H	 0.8475906127	-0.6551940385	-3.4678838784	 0.109998
H	 0.0215739913	 0.815806375	-2.7395814072	 0.123802
H	 1.826881358	 1.1111519877	-1.3448565352	 0.244704
