17
gdb 35949	3.48594	1.19165	0.94334	2.2093	77.18	-0.2571	0.0036	0.2608	1219.8995	0.135337	-421.771827	-421.76356	-421.762616	-421.805169	31.056	
C	 0.3013086269	-1.2425409076	 0.5577447735	-0.427065
C	 0.0719165022	-0.0957148882	 0.2873768773	 0.30158
C	-0.185278763	 1.2978428635	-0.0835968512	-0.103558
O	-0.920551191	 1.8925357845	 0.9772886906	-0.238963
C	-1.3178131423	 3.2208126688	 0.7728037151	 0.020612
O	-0.3507477055	 4.146940627	 1.1676131179	-0.219288
C	 0.6585444992	 4.4328347172	 0.2221196221	-0.138765
C	 1.4348477268	 3.2779262846	-0.3496799579	-0.087799
C	 1.1063040734	 1.9945724827	-0.4765607954	-0.05684
H	 0.4981873051	-2.2555445903	 0.808856686	 0.19997
H	-0.826549484	 1.2875363528	-0.9872348068	 0.111771
H	-1.613868926	 3.3807947942	-0.2804917345	 0.075854
H	-2.1750354464	 3.3800180544	 1.4308837479	 0.118768
H	 0.2322931436	 5.0063947844	-0.6230418672	 0.106389
H	 1.3487097593	 5.1112419077	 0.7349349267	 0.125834
H	 2.3915254849	 3.5847970393	-0.7707605503	 0.100733
H	 1.8059262167	 1.3341016651	-0.9820909437	 0.110768
