21
gdb 113839	2.97682	1.04042	0.8482	1.4179	80.42	-0.2402	0.083	0.3231	1425.751	0.18032	-424.180724	-424.170901	-424.169957	-424.216096	35.673	
C	 0.5274933655	 0.8507843976	-0.4710913929	-0.249792
O	-0.2810479985	 0.0538973006	 0.3809729053	-0.236366
C	 0.4482827095	-0.5583673638	 1.3930146291	 0.126366
C	-0.1385527855	-1.7968604217	 1.9812812188	-0.341906
C	 1.1218510634	-1.8953952497	 1.1333386772	-0.078638
C	 1.0233740633	-2.5064833774	-0.2216417286	 0.060167
O	 2.1411308001	-2.3231520644	-1.1093682541	-0.275767
C	 1.8194498455	-3.6551907199	-0.6873859245	 0.06884
C	 2.8446499479	-4.3881299734	 0.1389737603	-0.419521
H	 1.2992520912	 0.2518203103	-0.9710040622	 0.139536
H	-0.135882981	 1.289495516	-1.2198252788	 0.125573
H	 1.0166637905	 1.6617283045	 0.0891553519	 0.105365
H	 0.968626042	 0.1355242493	 2.0556793243	 0.08446
H	-0.0649043839	-1.9613818739	 3.0499725577	 0.116309
H	-1.0611490442	-2.1469956904	 1.5301516804	 0.127042
H	 2.0550158715	-2.0660745136	 1.6585677206	 0.088408
H	 0.0586757179	-2.3459142347	-0.7040142704	 0.09663
H	 1.3723872467	-4.2615315382	-1.4792552357	 0.084927
H	 3.2714266162	-3.7519074892	 0.9167841336	 0.127158
H	 2.3943259767	-5.2670006853	 0.6131855205	 0.122417
H	 3.6638584951	-4.7355251728	-0.4992789324	 0.128792
