25
gdb 122209	2.50625	0.83118	0.70375	1.0413	90.05	-0.2497	0.0807	0.3304	1754.7611	0.22714	-389.473696	-389.462689	-389.461745	-389.510609	39.926	
C	 0.888832587	-0.0798870513	-1.1764407493	-0.381739
C	-0.0671157858	-0.2080731041	 0.0160657335	-0.254669
C	 0.591306946	-0.71693907	 1.2941607759	 0.39697
C	 1.6997777525	 0.139661871	 1.8900590511	-0.290511
C	 1.2360180566	 1.5182748319	 2.3515291261	-0.051485
O	 2.3268455733	 2.1669184739	 2.9711478802	-0.228551
C	 2.0088886782	 3.4585868575	 3.4254594821	-0.226975
C	-0.284941905	-1.4752042346	 2.2656873607	-0.313598
C	 0.7350061173	-2.2149325192	 1.4325999459	-0.314766
H	 1.3822741617	-1.0341457621	-1.3891756012	 0.1179
H	 0.3487523538	 0.2277297097	-2.0773076394	 0.11016
H	 1.670812702	 0.663874123	-0.9936570996	 0.119455
H	-0.5487088536	 0.7605772191	 0.2035274786	 0.096009
H	-0.8788332847	-0.8963126785	-0.2497697827	 0.09088
H	 2.1305071127	-0.374041563	 2.7569493453	 0.101278
H	 2.5179813098	 0.2682429196	 1.1717161314	 0.105506
H	 0.8730244331	 2.1201083614	 1.5010522772	 0.083419
H	 0.3933449017	 1.4219138554	 3.0580429703	 0.085356
H	 2.9065752068	 3.874882007	 3.8896623719	 0.124593
H	 1.6976783187	 4.119451791	 2.6000318264	 0.100567
H	 1.1980763794	 3.4435499862	 4.1718642515	 0.100775
H	-0.0886846574	-1.3639533636	 3.3272397663	 0.108211
H	-1.3345542842	-1.6029207533	 2.0216959335	 0.106018
H	 0.3730871409	-2.8382895799	 0.6211614778	 0.106705
H	 1.6162196191	-2.605650807	 1.9304312665	 0.108495
