18
gdb 79547	3.99652	1.12588	0.99829	1.244	84.54	-0.2159	0.0287	0.2446	1231.0653	0.14599	-364.695082	-364.686777	-364.685833	-364.727491	32.839	
C	-0.0373980039	 1.4792088134	 0.0021454827	-0.418197
C	-0.0310817066	-0.0295668908	-0.0623671714	 0.010234
C	 0.7188932531	-0.6984661528	-1.1458996013	-0.101367
N	 1.2905835775	-0.6276991095	 0.2446072136	-0.155078
C	 1.2109434896	-2.1345741158	 0.3011977074	-0.050585
C	-0.1018336346	-2.7966176186	 0.0287504363	-0.355052
C	 0.6970917078	-2.2478947407	-1.1388746516	 0.154097
C	 1.1557428565	-3.0378510954	-2.2247254492	 0.190573
C	 1.5431127837	-3.6849536328	-3.1635796706	-0.409197
H	 0.8918146091	 1.8884031185	-0.4031500385	 0.131705
H	-0.8774975424	 1.8854425747	-0.5705907563	 0.120266
H	-0.1313110366	 1.8178565612	 1.0386521282	 0.127717
H	-0.9222089423	-0.4948967601	 0.3447154012	 0.088994
H	 1.1891229529	-0.1568176926	-1.9605920523	 0.101301
H	 2.0408148598	-2.6483845942	 0.7688525912	 0.119552
H	-0.0476893854	-3.8785418057	 0.095772953	 0.134271
H	-1.066926489	-2.3944676803	 0.3134231166	 0.124091
H	 1.8870604011	-4.2609894686	-3.9861916388	 0.186672
