19
gdb 61989	3.78591	0.76108	0.6678	5.2794	78.14	-0.2765	0.0192	0.2958	1671.5552	0.157458	-419.240084	-419.229716	-419.228772	-419.276643	35.86	
C	 0.0211522185	 1.6099814239	 0.1277340157	-0.39011
C	-0.0001006415	 0.0698774271	 0.09567998	-0.154926
C	 0.6980566371	-0.5552057813	 1.3138428778	-0.048899
O	 2.0682544379	-0.1614140754	 1.2351433466	-0.24573
C	 2.8755279042	-0.578169563	 2.2395176774	 0.395446
C	 4.2800387901	-0.0840385673	 2.0109724533	-0.462106
N	 2.4166911052	-1.2809163466	 3.1897254437	-0.513084
C	-1.3735621721	-0.4355312521	 0.0134524193	 0.258051
N	-2.4593901335	-0.8267436609	-0.0437568366	-0.316707
H	 1.0552939679	 1.9539224994	 0.1851200419	 0.139273
H	-0.4424078932	 2.0253379106	-0.769891772	 0.137093
H	-0.5225791523	 1.9846783614	 0.9997086218	 0.137182
H	 0.5289632059	-0.2752635141	-0.8013988398	 0.136148
H	 0.2567928853	-0.200414688	 2.2506206665	 0.136562
H	 0.621746519	-1.6462818056	 1.3036403767	 0.137912
H	 4.292332465	 1.0090348425	 1.9612702777	 0.148017
H	 4.9439182791	-0.4128997245	 2.8115887377	 0.131701
H	 4.6598317838	-0.4559082271	 1.054511571	 0.149205
H	 3.1492852235	-1.5086577887	 3.8575015313	 0.224972
