17
gdb 11552	6.42628	1.06925	0.97008	2.1661	65.81	-0.2487	0.0581	0.3068	1215.2907	0.141584	-401.02366	-401.014867	-401.013922	-401.058106	30.331	
C	-0.195522479	 1.2369480865	 0.0543759432	-0.231221
O	 0.4080831	-0.0536620101	-0.0448506405	-0.268862
C	 0.6161215991	-0.6718930418	 1.1489091681	 0.517567
O	 0.3365463131	-0.1965840946	 2.2246150169	-0.409153
N	 1.1657904715	-1.9042973769	 0.9331806665	-0.374075
C	 1.6646825349	-2.7034813259	 2.0086722203	 0.05554
C	 0.6793490604	-3.3907487894	 2.9130455109	-0.235448
C	 1.4730590131	-4.1950071027	 1.9156867928	-0.289584
H	 0.4276391967	 1.9159318604	 0.642439861	 0.137304
H	-0.2887495875	 1.5997301622	-0.9699511798	 0.127153
H	-1.1803901633	 1.1726530376	 0.5247215886	 0.137061
H	 1.4817295266	-2.0970485035	-0.0042015074	 0.251167
H	 2.5843955122	-2.3480958569	 2.4688960411	 0.09973
H	 0.9307581623	-3.4650951761	 3.9643307569	 0.120398
H	-0.3704919924	-3.2240614785	 2.7072263991	 0.127753
H	 0.9478720332	-4.5746583516	 1.0461905188	 0.11674
H	 2.2751699791	-4.8308387586	 2.2723012135	 0.117928
