20
gdb 100079	3.22886	0.98363	0.90766	3.5847	71.82	-0.26	0.058	0.318	1356.981	0.167791	-477.470201	-477.459372	-477.458428	-477.505719	39.335	
C	-0.0376996019	 1.6024243215	 0.1032883229	-0.423951
C	 0.0578542909	 0.0757275856	 0.1112347344	 0.373923
C	 0.7295339193	-0.4644434238	 1.3748155677	-0.425088
C	-1.3352241289	-0.5516471762	-0.0671678814	-0.102621
O	-2.1401313057	-0.1662653191	 1.0337178334	-0.418178
O	 0.7336716197	-0.4105357183	-1.088033077	-0.319994
C	 2.0273169282	-0.090503798	-1.3202524377	 0.4911
N	 2.4481380874	-0.7178996546	-2.4636758214	-0.552016
O	 2.7318866401	 0.6097368789	-0.6294069474	-0.404214
H	 0.942274282	 2.0541965078	 0.2528938032	 0.148226
H	-0.4464711707	 1.9502145582	-0.8510895477	 0.106746
H	-0.7146122548	 1.9202394618	 0.8996420746	 0.133779
H	 0.088545325	-0.2549864226	 2.2343006756	 0.13345
H	 0.8575153404	-1.5491613641	 1.2998382032	 0.109909
H	 1.7054888647	-0.0040170928	 1.524468749	 0.148498
H	-1.7578797186	-0.2029076601	-1.0212918396	 0.089034
H	-1.2230463303	-1.6443612798	-0.1263554696	 0.091401
H	-3.0066272737	-0.5678132082	 0.9286678873	 0.293279
H	 1.7568205807	-1.0841122058	-3.0956461411	 0.260492
H	 3.3122905862	-0.3828610103	-2.8536329683	 0.266224
