17
gdb 76864	2.41503	1.91929	1.6484	3.5124	65.77	-0.2434	0.0554	0.2989	894.5374	0.136318	-458.887611	-458.880312	-458.879368	-458.918997	29.596	
O	 0.1194414957	 1.4149383509	-0.1937941644	-0.430608
C	 0.0189994497	 0.0327728514	-0.0229046267	 0.091986
C	 0.3125686129	-0.5960727579	 1.4091915501	 0.091956
O	 0.6640173652	 0.2476075854	 2.464831679	-0.430623
C	-1.1066849534	-1.2503364469	 1.4014576706	-0.110134
C	-2.2578863376	-0.3865710867	 1.9634944416	 0.012948
O	-1.9578648159	 1.0019192886	 1.6934666728	-0.281945
C	-2.5297527685	 0.1967360499	 0.63727793	 0.012801
C	-1.3967003097	-0.6291356185	-0.0119329223	-0.110165
H	-0.4349077592	 1.8252631325	 0.4801285117	 0.289458
H	 0.6645525954	-0.4161071413	-0.7827753982	 0.092313
H	 1.1012578151	-1.3508391007	 1.3464912494	 0.092287
H	-0.0166950302	 0.9281091469	 2.5230410539	 0.289466
H	-1.1980487013	-2.3188401137	 1.5927390433	 0.077274
H	-2.9047539478	-0.570289183	 2.8132616768	 0.117847
H	-3.4414583173	 0.5811419547	 0.1953265687	 0.117847
H	-1.701616093	-1.2406912718	-0.8602610561	 0.077292
