15
gdb 55330	2.18202	1.57554	1.10433	5.8158	65.13	-0.2651	-0.0092	0.2559	1088.7643	0.112074	-453.95627	-453.94737	-453.946426	-453.991299	30.86	
N	 0.1443341683	 1.183455433	-0.4578977402	-0.529889
C	-0.1154172125	 0.1761813759	 0.4203684472	 0.390905
O	 0.5118286255	 0.0019247377	 1.4446941784	-0.353767
C	-1.298425665	-0.7201808023	 0.0866736776	-0.149714
C	-1.8297469269	-0.9787326761	-1.3398830589	-0.110889
O	-1.7910402123	-2.4068446549	-1.1267128944	-0.264838
C	-1.0662716565	-2.2595226461	 0.1119659698	-0.017714
C	 0.3227004768	-2.7176099611	-0.0173521653	 0.309844
N	 1.4015805337	-3.1065435469	-0.1557980334	-0.325593
H	 0.9438735047	 1.7693128864	-0.2765263877	 0.27239
H	-0.3130444701	 1.2621054401	-1.3486130111	 0.264214
H	-2.1031983974	-0.4592049984	 0.7776263331	 0.138764
H	-2.8413559444	-0.6282971925	-1.5642345639	 0.125058
H	-1.1507827907	-0.6803985451	-2.1501778297	 0.111279
H	-1.5457591631	-2.8016433396	 0.9321968583	 0.139948
