17
gdb 27177	2.9781	1.39027	1.02413	3.8127	77.35	-0.1787	0.0423	0.221	1152.1486	0.136795	-417.997351	-417.989129	-417.988184	-418.030363	31.35	
O	 0.2677587901	 1.339965713	 0.0184794804	-0.454946
C	 0.1165432236	-0.0112400743	 0.0572575724	 0.285163
C	-0.1058150196	-0.8298781419	-1.0276281749	 0.201662
N	-0.1986035973	-2.1300537746	-0.5441122658	-0.315236
C	-0.0363658327	-2.118085237	 0.8173278153	-0.084502
C	 0.1613368759	-0.8175258145	 1.2247906667	-0.234767
N	-0.2126631971	-0.3964343506	-2.357718211	-0.183544
C	 0.3196829338	-1.2074378565	-3.4562527068	-0.226918
C	-1.1506676401	-1.0381940029	-3.2830004188	-0.22694
H	 0.1871308842	 1.5921729868	-0.9111994718	 0.292013
H	-0.3592824905	-2.9533575441	-1.0952276749	 0.257139
H	-0.0744081861	-3.0323286624	 1.3869673766	 0.115246
H	 0.3199368617	-0.4755468954	 2.2347816554	 0.099696
H	 0.84762047	-0.6590588624	-4.2313663304	 0.12521
H	 0.753339571	-2.1740434693	-3.2100082377	 0.112774
H	-1.7215750388	-1.8891845636	-2.9184355704	 0.112739
H	-1.7056546682	-0.3651683803	-3.9305079645	 0.125211
