18
gdb 99002	2.91684	1.01055	0.76206	1.9241	74.12	-0.2367	0.0085	0.2452	1453.3283	0.147481	-472.409045	-472.399132	-472.398188	-472.444792	35.064	
C	-1.9606036281	 0.725616744	 1.6078767372	-0.227096
O	-2.0512570321	-0.4849381052	 0.8508056409	-0.233665
C	-1.2293424619	-0.5760607177	-0.2102888705	 0.51548
N	-0.4180268092	 0.3585321961	-0.5040619926	-0.591699
N	-1.3912611667	-1.7737801431	-0.8900912213	-0.399536
C	-2.2091471147	-2.8880037928	-0.6932695062	 0.318598
N	-1.9818629327	-3.8943661921	-1.4401557997	-0.509998
C	-3.3271155775	-2.8354731303	 0.3486538837	-0.146512
O	-4.1437002899	-3.9864701073	 0.2805126788	-0.406552
H	-2.6931052777	 0.6207403673	 2.4090387451	 0.128854
H	-0.9550310523	 0.8488822286	 2.0162579162	 0.146114
H	-2.191612675	 1.5902338292	 0.9814529598	 0.144405
H	 0.127656474	 0.1460215609	-1.3345864891	 0.217064
H	-0.7252282028	-1.935415574	-1.632092387	 0.257882
H	-2.6356832044	-4.6371810203	-1.1921271014	 0.225991
H	-2.8955756681	-2.8113515594	 1.3521030941	 0.147427
H	-3.9032228155	-1.9114852612	 0.23188425	 0.122389
H	-4.7101986355	-3.9042319626	-0.4937388579	 0.290855
