23
gdb 108304	2.82493	1.20734	1.00384	1.4051	85.56	-0.2574	0.0711	0.3285	1297.8246	0.205584	-388.264419	-388.254942	-388.253998	-388.298762	36.228	
C	 0.1472246972	 1.6457295754	-0.0461971684	-0.413975
C	 0.054111202	 0.1283886612	 0.0186197854	 0.053783
C	 0.9217298309	-0.7350948676	-0.9485388794	-0.305019
C	 1.2910303639	-1.690327993	 0.2283008827	 0.419361
C	 0.8166909562	-3.1149499889	 0.1104777367	-0.194598
O	 1.5729272792	-3.743456499	-0.9186178196	-0.425443
C	 2.687126931	-1.4182240708	 0.8375779731	-0.273395
C	 2.0813640563	-0.2635690762	 1.6912041963	-0.233579
C	 0.6464840558	-0.654065609	 1.2229113937	-0.108175
H	 1.1824046639	 1.9945390595	 0.0309328981	 0.114107
H	-0.2514788532	 2.0190977231	-0.9962779082	 0.113184
H	-0.4245198242	 2.1162725907	 0.7619632067	 0.110959
H	-0.9970330611	-0.1645185718	-0.0882409224	 0.06758
H	 0.3887551227	-1.2035578603	-1.7792815525	 0.101717
H	 1.7868497272	-0.2052213841	-1.3596525971	 0.092261
H	 0.9512636307	-3.6329960498	 1.0750045482	 0.077572
H	-0.2616408987	-3.1325825724	-0.1229734539	 0.078077
H	 1.2747297829	-4.6542714474	-0.9983262535	 0.28617
H	 3.0409472697	-2.2516770578	 1.4521324352	 0.094355
H	 3.4798724096	-1.1552123371	 0.1319444223	 0.096254
H	 2.2427818548	-0.3627996212	 2.7669964307	 0.098572
H	 2.4003869993	 0.7408750142	 1.4015661835	 0.098377
H	-0.0448589259	-0.9438138577	 2.0180524724	 0.051855
