17
gdb 65447	3.81495	0.79743	0.73824	2.2398	75.94	-0.2586	-0.0378	0.2207	1513.1805	0.133851	-418.005178	-417.995604	-417.99466	-418.040756	33.28	
C	 0.0926923664	 1.5017666079	-0.2505821603	-0.454617
C	-0.0347110039	 0.0221561902	 0.0545583918	 0.152831
N	 1.2010847373	-0.7877646947	-0.0100245115	-0.350993
C	 0.5290388344	-0.6384199155	 1.2850687931	-0.058632
C	 1.2689175626	 0.1105790133	 2.3745625874	-0.296571
C	 2.3610441131	-0.7548089164	 2.9812220863	 0.161057
O	 2.4904704316	-0.959542413	 4.1591566113	-0.230043
C	-1.241149835	-0.5917338035	-0.4634992951	 0.240334
N	-2.1976426437	-1.0806737295	-0.8929959595	-0.33222
H	 1.0545241671	 1.8810373663	 0.0962489172	 0.140642
H	 0.0356342999	 1.6675465291	-1.3299626926	 0.147817
H	-0.7118160439	 2.0680706209	 0.2271686568	 0.142375
H	 1.0195362387	-1.7004736924	-0.4196693065	 0.255841
H	-0.0437729654	-1.4916295272	 1.6439148144	 0.122931
H	 1.7566343637	 0.9962944061	 1.9520068959	 0.130847
H	 0.5885156574	 0.4286311542	 3.1692256334	 0.133863
H	 3.0563972196	-1.1969636057	 2.2337430078	 0.094538
