22
gdb 115816	4.48126	0.91272	0.83339	2.3473	82.82	-0.2393	0.0767	0.316	1468.0718	0.194981	-404.33339	-404.324297	-404.323353	-404.367794	34.376	
C	 0.1331262915	 1.4843823745	 0.2437292659	-0.383814
C	 0.0226991305	-0.0145638647	-0.0481221987	-0.193079
C	-1.4063345279	-0.5319867336	 0.0187582382	 0.15697
C	-1.5893133329	-2.0341049803	-0.258723148	-0.341634
C	-2.8438064883	-2.3715884799	 0.5465768718	 0.322665
C	-3.9521226857	-3.2010426777	 0.0199403468	-0.295625
N	-3.0809685984	-3.7098701257	 1.1004602367	-0.351881
C	-3.072051784	-1.1615293123	 1.4598442084	-0.13536
O	-1.9050962113	-0.3620718338	 1.3459539506	-0.264658
H	 1.1750025045	 1.8167160197	 0.2105900486	 0.10928
H	-0.428448114	 2.0723009575	-0.490933073	 0.110567
H	-0.2698120884	 1.712646643	 1.2336327485	 0.138348
H	 0.4224883123	-0.2366772173	-1.0455223468	 0.094453
H	 0.6250268468	-0.5835057819	 0.6708858317	 0.102676
H	-2.0383199901	 0.0441113692	-0.6827024787	 0.059088
H	-1.6822882434	-2.2618298726	-1.3239739119	 0.103589
H	-0.7267789166	-2.5846675734	 0.1373266317	 0.105354
H	-4.9775614164	-2.9987816532	 0.3212723643	 0.11699
H	-3.8518779953	-3.6217124456	-0.9778654589	 0.109476
H	-2.406956649	-4.3694954394	 0.7173667695	 0.227752
H	-3.9613386986	-0.594437099	 1.1388780715	 0.087453
H	-3.1988010651	-1.4542432534	 2.5049597218	 0.121388
