25
gdb 104659	1.83399	1.31617	1.03646	1.2559	88.78	-0.237	0.0597	0.2967	1374.9723	0.226625	-389.484933	-389.473591	-389.472647	-389.521086	41.886	
C	-0.6911508292	 1.3667505933	-0.276996302	-0.383845
C	-0.162843731	-0.0544208224	-0.0324945317	-0.254303
C	 0.5399958343	-0.6723293692	-1.2346939299	 0.302263
C	 1.7362274911	 0.0929496786	-1.7913054368	-0.252703
C	 2.9169399	 0.2047709565	-0.8185234645	-0.380149
C	 0.61759089	-2.1938545873	-1.3514259189	-0.081333
C	 0.0829931187	-3.154047477	-0.308686634	-0.417227
C	-0.3091013284	-1.4187335731	-2.2509736159	 0.024029
O	-1.6810190958	-1.60243248	-2.0317523934	-0.419883
H	 0.1146289677	 2.0775904028	-0.4833710588	 0.120215
H	-1.3790595216	 1.3966469785	-1.1302107295	 0.098685
H	-1.2358883096	 1.7328617193	 0.5988430801	 0.112423
H	 0.5207150979	-0.04071752	 0.8256748111	 0.095973
H	-1.0015880876	-0.6906369105	 0.2582336085	 0.108913
H	 2.0769866959	-0.4099026768	-2.7050024359	 0.090408
H	 1.4252881105	 1.0976305038	-2.1060186948	 0.092015
H	 3.2496657588	-0.7854299493	-0.4893374872	 0.117115
H	 3.7677304921	 0.7051385862	-1.2916560528	 0.109495
H	 2.6544071156	 0.7793493539	 0.0756171318	 0.117258
H	 1.5218442008	-2.550961538	-1.8401731327	 0.076869
H	-0.9295340724	-2.8961036481	 0.0045213603	 0.136393
H	 0.0451873878	-4.1697888154	-0.7169818892	 0.115014
H	 0.725637465	-3.1779243593	 0.5782345335	 0.110673
H	-0.0361891518	-1.3230018849	-3.3031580813	 0.074169
H	-2.1286139086	-0.7740533116	-2.231963276	 0.287535
