20
gdb 116621	4.36791	0.95073	0.84876	2.8197	83.89	-0.238	0.0285	0.2665	1434.0342	0.171789	-403.158505	-403.149872	-403.148928	-403.192808	32.232	
C	-0.4197792248	 1.503710993	-0.17012175	-0.364319
C	 0.2989962273	 0.1799548566	 0.0849387372	-0.129032
N	 0.9798586941	-0.266157453	-1.1247916092	-0.349603
C	 2.0371465065	-0.9430574435	-1.0291832738	 0.455328
O	 2.6017083841	-1.3599271512	 0.1595741496	-0.26234
C	 3.9643364205	-1.7709470798	-0.0410516361	-0.102115
C	 4.128158874	-1.9901862788	-1.5337994949	-0.061137
C	 3.139339247	-2.9179235045	-2.1709531145	-0.286689
C	 2.8726570288	-1.4234628629	-2.1596974069	-0.136164
H	 0.2958155836	 2.2899510182	-0.4307935819	 0.113014
H	-1.1240842065	 1.4043588664	-1.0012123295	 0.120271
H	-0.9717552248	 1.8243352308	 0.7194458465	 0.102185
H	 0.9901978843	 0.2739118014	 0.9336540768	 0.100262
H	-0.438428612	-0.5837929345	 0.3704240105	 0.102925
H	 4.6342508299	-0.980358927	 0.319631962	 0.113811
H	 4.1301425346	-2.6710219168	 0.5599193378	 0.117743
H	 5.1055246439	-1.8434539206	-1.9759467868	 0.101844
H	 3.404929268	-3.3517805228	-3.1280214302	 0.122425
H	 2.5306371635	-3.5538590593	-1.5356635124	 0.128033
H	 2.8503752879	-0.8675395618	-3.0860955043	 0.11356
