21
gdb 122942	6.11223	0.49934	0.47954	2.7001	78.1	-0.2547	-0.0387	0.216	2257.9415	0.179091	-461.359926	-461.349057	-461.348113	-461.397315	37.25	
C	-0.0342286036	 1.416097631	 0.0123437784	-0.227342
O	-0.0165782984	 0.0099827234	-0.0022538646	-0.229278
C	 0.6425987044	-0.5200685964	-1.1301920669	-0.052842
C	 0.5925904084	-2.0397564153	-1.0503411577	-0.196276
C	 1.3073673381	-2.7110483126	-2.2259007888	-0.212297
C	 1.1833448153	-4.2451539775	-2.1753734938	 0.047649
O	-0.1549780417	-4.6567457453	-2.2322722274	-0.431646
C	 1.9757083539	-4.8761819558	-3.3010941887	 0.136806
O	 1.4624002874	-5.6122718186	-4.1089285186	-0.260167
H	 0.983398736	 1.8390028115	 0.0298693149	 0.101054
H	-0.5591554032	 1.8287659109	-0.8643129492	 0.102746
H	-0.5609525014	 1.7285666748	 0.9173620468	 0.127152
H	 0.1594433074	-0.1684730421	-2.059315362	 0.084549
H	 1.6896137105	-0.1674452845	-1.1634492446	 0.07871
H	 1.0475687718	-2.3572265729	-0.1040865063	 0.105023
H	-0.4517922222	-2.3643273047	-1.02720497	 0.135047
H	 0.8799118487	-2.3642481675	-3.1754600445	 0.110424
H	 2.3715112133	-2.4379887656	-2.2298872203	 0.095808
H	 1.6507843479	-4.5932805195	-1.2342349806	 0.093204
H	-0.213602227	-5.2506767002	-2.997360372	 0.294623
H	 3.0547789542	-4.6216577433	-3.3463314441	 0.09705
