19
gdb 43874	4.34376	1.08054	1.0263	3.0017	79.46	-0.2382	-0.0182	0.22	1205.3093	0.158605	-385.867747	-385.85991	-385.858966	-385.900712	31.02	
O	 0.043945768	 0.0019630355	-0.3582863278	-0.290325
C	-0.003716059	 1.154186648	-0.0395776279	 0.408702
C	-1.1439301591	 2.1135516109	 0.3322824456	-0.41961
C	-0.0653729896	 3.1387304122	 0.8021015141	 0.360846
C	-0.0921494482	 4.6553916217	 0.4315160115	-0.321487
C	 0.0304794794	 5.0068717088	 1.9190103144	-0.031093
C	-1.1097321972	 4.3996578155	 2.6848786583	-0.284367
C	 0.0429954885	 3.5210958435	 2.2826265661	-0.107704
C	 1.0614311289	 2.2318242564	 0.2204091099	-0.425797
H	-1.7117287974	 2.4345409267	-0.5485507445	 0.128239
H	-1.8493790399	 1.7475378049	 1.0841581497	 0.1296
H	 0.7831502164	 4.9435221748	-0.1565085463	 0.105536
H	-0.9917104766	 5.0229139311	-0.0753975131	 0.095888
H	 0.6306686629	 5.8108173543	 2.3262430142	 0.088476
H	-1.1521299971	 4.6511008237	 3.7398406118	 0.113782
H	-2.0852516301	 4.2793372003	 2.2175383759	 0.106575
H	 0.6481830447	 2.9971550312	 3.0142156999	 0.086414
H	 1.8751192919	 1.9457604195	 0.8937448288	 0.1288
H	 1.5002854335	 2.6073544108	-0.7111001506	 0.127523
