20
gdb 40733	3.17647	1.34736	1.29563	1.8546	77.83	-0.2245	0.0744	0.299	1085.2616	0.173151	-403.104839	-403.097085	-403.096141	-403.137398	30.517	
C	 0.5123446087	 1.3776798497	 0.3787241967	-0.235174
N	 1.4291297889	 0.2341225492	 0.1983525976	-0.30702
C	-0.0239273722	 0.0183368729	 0.1392169048	-0.021222
C	-0.6554547358	-0.8182655734	 1.2395968895	 0.114444
C	-0.2066138962	-2.3098157876	 1.2190198814	-0.270046
C	 0.4367442347	-2.5383516455	 2.5789372139	-0.064525
C	 1.6612790739	-1.7059002519	 2.9256015893	-0.323907
C	 0.2855712738	-1.2556373527	 3.3335300558	 0.106734
O	-0.3455686058	-0.2881110569	 2.5323312068	-0.27245
H	 0.4891037269	 1.7712577954	 1.3887032241	 0.139016
H	 0.4353795781	 2.1143680733	-0.4164018248	 0.106234
H	 1.8208638008	 0.2434117243	-0.7390650695	 0.230327
H	-0.4597731349	-0.1752242856	-0.8405487187	 0.081616
H	-1.7454154786	-0.7455650471	 1.1103503821	 0.076467
H	-1.0689609908	-2.9706772595	 1.0918356031	 0.101828
H	 0.4826975906	-2.499251647	 0.3904806952	 0.107144
H	 0.2997240547	-3.499501563	 3.0602808453	 0.085216
H	 2.3161830976	-2.0921204775	 3.7001726202	 0.101414
H	 2.1412483836	-1.1457828803	 2.1299459182	 0.151858
H	-0.013772538	-1.1926785167	 4.3739222292	 0.092049
