19
gdb 37326	2.39137	2.22314	1.49003	1.8415	76.79	-0.2509	0.0701	0.3209	931.9891	0.162478	-385.854925	-385.848289	-385.847345	-385.885531	28.453	
C	-0.0972132064	 1.4712425318	-0.104388461	-0.311281
C	 1.2690138552	 0.8568836902	 0.04204752	-0.037913
C	 2.1116245323	 0.9124414442	 1.2865487605	-0.037914
C	 1.7134535816	 1.5906309116	 2.5698941807	-0.31128
C	 1.726644024	 0.082071138	 2.5085152821	-0.048013
C	 0.4396476761	-0.6809407167	 2.4765753608	 0.032097
O	-0.7801976147	 0.064479196	 2.3736144066	-0.259641
C	-0.3907747269	-0.7356957967	 1.2500737248	 0.032097
C	 0.027055536	-0.0299931972	-0.0017129542	-0.048014
H	-0.5308004838	 1.9778740885	 0.7491883216	 0.134071
H	-0.361008267	 1.8945144153	-1.0670975926	 0.108665
H	 1.8636836222	 0.8409678197	-0.8653436132	 0.084219
H	 3.1749800142	 0.9274267673	 1.0713873308	 0.084219
H	 2.4903961626	 2.0825226183	 3.1443143639	 0.108665
H	 0.7396402116	 2.0616446367	 2.6255739659	 0.134071
H	 2.5278962774	-0.4337099264	 3.0273375721	 0.081126
H	 0.3833575097	-1.518937806	 3.1710976804	 0.086851
H	-1.0210171044	-1.6115371844	 1.0968900449	 0.086851
H	-0.1344263897	-0.6092538603	-0.9048145642	 0.081126
