17
gdb 23378	5.20404	1.0194	0.95079	2.0623	78.72	-0.2302	0.0082	0.2384	1250.4438	0.13508	-417.853925	-417.846069	-417.845125	-417.886171	30.393	
C	-0.1933374488	 1.5789710556	 0.0241348472	-0.419621
C	-0.0261420283	 0.0766063499	-0.0549355134	 0.059869
C	 0.9099972813	-0.5761984236	-1.0686758047	-0.070125
C	 2.1514842044	-0.2051647956	-0.1795566713	-0.142638
N	 1.0301352712	-0.5380362094	 0.8763559629	-0.171152
C	 1.11270122	-1.7786980105	-0.0817395517	-0.122572
C	 2.5968336606	-1.637984117	-0.1502996693	 0.528393
N	 3.5967712531	-2.4050607092	-0.1855719143	-0.313006
O	 4.7981263178	-1.6682632305	-0.2815892616	-0.398554
H	 0.7528510979	 2.1090293865	-0.1195210586	 0.120427
H	-0.8937628221	 1.9266738225	-0.742839673	 0.122485
H	-0.5966405252	 1.8642024039	 1.0012133667	 0.133466
H	-0.9923696657	-0.4266910783	 0.075368924	 0.077308
H	 0.8762076072	-0.622119305	-2.1621820605	 0.080269
H	 2.722036251	 0.7177833469	-0.1393454478	 0.108316
H	 0.4733416142	-2.6464699405	 0.0671317227	 0.099659
H	 5.4598590514	-2.3679445458	-0.2786075672	 0.307475
