23
gdb 112624	3.53528	0.83901	0.79797	1.7171	82.75	-0.2419	0.0761	0.3179	1560.0944	0.203417	-425.405576	-425.395091	-425.394146	-425.441058	38.76	
C	 0.0739405707	 1.2611277694	 0.2477068757	-0.251673
O	-0.0793526241	-0.101665989	-0.0802426252	-0.28527
C	 0.5969265614	-0.5327894115	-1.2476072377	 0.435477
C	 0.0507965305	 0.1271721469	-2.5128542531	-0.44956
C	 2.1601103977	-0.5457851213	-1.1756990016	-0.314952
C	 2.1317381265	-2.0123946627	-1.6867976763	 0.052237
C	 3.0673769571	-3.0030705719	-1.0275240487	-0.096071
O	 2.7825953193	-4.2916114106	-1.5538341214	-0.422734
C	 0.6233136544	-2.07890761	-1.3260585918	-0.278381
H	 1.1329279435	 1.5548759445	 0.3067747461	 0.103792
H	-0.4292395891	 1.9299785685	-0.4649616319	 0.106119
H	-0.3804381595	 1.4033299734	 1.2316750761	 0.124182
H	 0.253311368	 1.2026540193	-2.5342357129	 0.113011
H	 0.5123592026	-0.310451274	-3.4033596368	 0.119354
H	-1.0314748493	-0.0244448717	-2.5782461634	 0.121514
H	 2.7089950777	 0.1901781524	-1.768862054	 0.092378
H	 2.4941052881	-0.4908928768	-0.1347113492	 0.099736
H	 2.2799003944	-2.059294909	-2.7700343793	 0.077807
H	 4.1140718478	-2.7136201874	-1.2221023684	 0.082023
H	 2.9177809216	-2.975933431	 0.0647784205	 0.080785
H	 3.3436094904	-4.9314515281	-1.1061508187	 0.286038
H	 0.4630021505	-2.5050917107	-0.332208243	 0.105803
H	-0.05446319	-2.5575824388	-2.035912975	 0.098386
