21
gdb 53312	4.95384	0.78322	0.74825	0.1912	92.94	-0.2363	0.058	0.2943	1629.1905	0.18115	-349.911683	-349.901859	-349.900915	-349.94775	35.804	
C	 0.0028300937	 1.5412490111	-0.0895792735	-0.497514
C	 0.0122026256	 0.0867661931	-0.019922059	 0.042698
C	 0.0235093963	-1.1175061178	 0.0293165183	 0.097167
C	 0.0255784854	-2.5684180066	 0.1116072201	-0.17322
C	 0.2424910566	-3.2441744391	 1.5211832791	-0.301147
C	-1.0921022959	-3.9868750809	 1.360028663	 0.372243
C	-1.330990679	-5.4050188107	 1.791929037	-0.49831
C	-2.1946912136	-2.9772939177	 1.1852562875	-0.325676
C	-1.3234705908	-3.3106682192	 0.0056663424	-0.097109
H	 0.7465209969	 1.9120871493	-0.8039705547	 0.145062
H	-0.9757112075	 1.9193947159	-0.4064784374	 0.14565
H	 0.2293209677	 1.9898265746	 0.8843480759	 0.144574
H	 0.7448648676	-2.9794085407	-0.6034996871	 0.096337
H	 1.1110858598	-3.9074376343	 1.5196360731	 0.100693
H	 0.317898492	-2.5618539449	 2.372766286	 0.099627
H	-1.3738204433	-5.4860234417	 2.8852179105	 0.119192
H	-2.2793742518	-5.784866236	 1.397436188	 0.116485
H	-0.5326014311	-6.070695068	 1.4431596504	 0.113395
H	-3.197321873	-3.3922399154	 1.1453261597	 0.105206
H	-2.1354673534	-1.9934951614	 1.6451238573	 0.111941
H	-1.7278374423	-3.7192900898	-0.9132804166	 0.082708
