16
gdb 49449	5.12486	1.17837	1.12482	3.0545	70.05	-0.2384	0.0118	0.2503	1071.6392	0.125481	-437.832863	-437.82612	-437.825176	-437.864259	26.297	
O	 0.1021319278	 0.0828511542	-0.51791026	-0.314778
C	 0.0806947072	 1.2416973855	-0.166648821	 0.131487
N	 1.1048859813	 1.8859865272	 0.478943932	-0.077128
C	 2.5538118437	 1.6297983328	 0.2474486509	-0.073037
C	 2.5795613652	 2.6697743153	-0.934925911	-0.071223
C	 3.8949733227	 3.4203672613	-0.827193249	-0.110652
O	 4.0184383008	 3.5545582482	 0.6065336387	-0.274304
C	 2.8668573047	 2.9167069862	 1.079681984	 0.141185
C	 1.6328186744	 3.2500678802	 0.1787202339	-0.092715
H	-0.8192580249	 1.8852949932	-0.2497781154	 0.074169
H	 2.9906781033	 0.6357891491	 0.2983821947	 0.115541
H	 2.1794994151	 2.395995695	-1.9096411495	 0.102744
H	 4.7501534311	 2.8611865304	-1.2234255605	 0.119326
H	 3.8731084916	 4.4127480952	-1.291860908	 0.116487
H	 2.8003452526	 2.9269401106	 2.1647870575	 0.111963
H	 1.0040893333	 4.1394039656	 0.1590926325	 0.100935
