21
gdb 38331	3.72853	1.39666	1.16949	0.2105	89.18	-0.2278	0.0261	0.2539	1115.1076	0.185523	-349.914005	-349.906704	-349.90576	-349.946312	30.06	
C	-0.0096320174	 1.6383739827	 0.0721126308	-0.228422
C	 1.4928179892	 1.2372090816	-0.0141283568	-0.092859
C	 1.2067277323	 0.2645504641	 1.1657588702	-0.234884
C	 0.0197351371	 0.0846758457	 0.1764447393	-0.092859
C	 1.0628434541	 0.0895753952	-1.0045771014	 0.401797
C	 0.5879792464	 0.4587614468	-2.4423837736	-0.317603
C	 1.2541719223	-0.5530854302	-3.413993064	-0.279868
C	 2.0648811373	-1.4392324737	-2.5057833919	-0.077215
C	 1.9607736054	-1.0943792915	-1.2240613829	-0.160775
H	-0.3107339419	 2.1728848749	 0.9772407614	 0.085434
H	-0.4686828813	 2.0785805247	-0.8139649158	 0.0935
H	 2.3505003343	 1.9041576298	-0.1284641538	 0.064459
H	 1.8839998072	-0.5764252727	 1.3148970264	 0.09114
H	 0.9605379367	 0.7370745226	 2.1204774721	 0.086116
H	-0.8345486906	-0.5878060683	 0.2835890097	 0.064459
H	-0.501892642	 0.408980428	-2.5173174519	 0.104777
H	 0.8719490789	 1.484163308	-2.6950142943	 0.104776
H	 0.5142724548	-1.1291510942	-3.984389757	 0.104169
H	 1.8856830568	-0.0560974499	-4.161558958	 0.104171
H	 2.6620715726	-2.2642986474	-2.879695904	 0.08932
H	 2.4678594778	-1.6091587862	-0.4170803446	 0.090366
