16
gdb 30515	2.58865	1.65168	1.01552	1.1057	80.14	-0.1996	-0.0334	0.1663	1124.6215	0.125229	-434.098855	-434.090482	-434.089538	-434.132158	30.869	
C	 0.0835973906	 1.3794957553	 0.1151250339	-0.32435
N	 0.2003215957	-0.0682115851	 0.1061473665	-0.343912
C	 0.5031998047	-0.6564072784	-0.9756175689	 0.407395
O	 0.726524607	 0.0365783728	-2.1497553776	-0.231176
C	 1.0086943902	-0.6412219427	-3.29904739	 0.097799
N	 1.0964983748	-1.902885665	-3.4156440442	-0.26038
C	 0.8997886444	-2.6652715252	-2.2745959096	-0.109416
C	 0.6264085714	-2.1125496489	-1.0620627257	 0.216411
N	 0.4804520855	-2.7810741003	 0.1274322025	-0.581711
H	 1.0407840118	 1.8657116268	-0.1166636709	 0.125019
H	-0.6459726877	 1.7407734257	-0.6221401267	 0.122319
H	-0.2350181382	 1.7067483698	 1.1072505459	 0.120799
H	 1.152918727	 0.0432419723	-4.1266837428	 0.137883
H	 0.9859845225	-3.739274952	-2.401288532	 0.101467
H	 0.2095238711	-3.7503150254	 0.086824845	 0.253682
H	 0.0441037594	-2.2262381497	 0.8509018347	 0.26817
