16
gdb 23186	2.57197	1.36423	0.98626	1.3162	81.62	-0.2285	0.0085	0.237	1184.3361	0.122358	-400.642556	-400.634138	-400.633194	-400.675459	32.296	
O	-0.1685044947	 1.3358080766	-0.0587416914	-0.392035
N	 0.0097482384	-0.0570631496	 0.0476593132	-0.257402
C	-1.0996676705	-0.6587808124	-0.0435902648	 0.366228
C	-2.5668809192	-0.2475265058	-0.0919073528	-0.327665
C	-2.9259343954	-1.7358549147	 0.0605005567	-0.107811
C	-2.3347118146	-2.5231429741	-1.053739097	-0.313733
C	-1.4048763494	-2.1173027878	 0.0932943841	 0.126535
C	-0.7048482412	-3.0712749701	 0.8811884754	 0.186405
C	-0.1134734592	-3.8777306576	 1.5500588905	-0.416017
H	 0.7314544997	 1.6612836272	 0.0491117146	 0.308514
H	-2.8261674777	 0.3665975645	 0.7747836593	 0.137315
H	-2.9232096102	 0.2504803155	-0.9984850529	 0.123293
H	-3.6918873247	-2.1312358949	 0.7138059729	 0.116199
H	-2.5638296634	-3.5831204671	-1.0661287148	 0.137048
H	-2.1941292333	-2.0765793459	-2.0345299198	 0.124428
H	 0.4143324755	-4.5832505038	 2.1422266267	 0.188696
