17
gdb 82351	2.37975	1.69622	1.36086	0.9691	72.17	-0.2422	0.0254	0.2676	998.9064	0.135344	-421.766519	-421.758448	-421.757504	-421.798884	31.583	
O	 0.4157268689	 0.9436671692	 0.8207776025	-0.426919
C	-0.0625629229	-0.222352502	 0.2019369191	 0.106838
C	-1.5046833948	-0.218400453	-0.2808050627	-0.105013
C	-1.8253726305	 0.545378713	-1.5580933984	-0.343037
C	-1.4957727091	-0.920232577	-1.6011690058	 0.117264
O	-0.1837730909	-1.3099440904	-1.9513896554	-0.247559
C	 0.7413987035	-0.6504820065	-1.088609301	-0.150789
C	 1.3810851503	 0.4983248867	-1.7389413111	 0.348825
C	 1.9119851352	 1.4474353135	-2.2537860323	-0.46457
H	 0.510633777	 1.6229454323	 0.1411640556	 0.282581
H	 0.0500043076	-1.0109949174	 0.9521233449	 0.101978
H	-2.2839433596	-0.375300979	 0.4548931155	 0.097317
H	-2.8632453381	 0.824377884	-1.7052398348	 0.117924
H	-1.1075961454	 1.2520381113	-1.9582956092	 0.130013
H	-2.2243212627	-1.6593826433	-1.9107944052	 0.105674
H	 1.5186881425	-1.3786851182	-0.8345085031	 0.121848
H	 2.3925927291	 2.2681883268	-2.7274963784	 0.207624
