18
gdb 6122	3.11663	1.65875	1.43261	2.3574	68.14	-0.244	-0.0262	0.2178	961.1701	0.151172	-384.950798	-384.941792	-384.940848	-384.98394	32.782	
C	-0.5779060038	 1.5738161562	 0.1556657295	-0.439995
C	-0.0443968722	 0.1543540008	-0.0095382229	 0.197599
C	-1.1591336984	-0.8917492743	 0.1305992261	-0.440924
C	 0.9012466289	-0.1273448997	-1.2340109619	-0.316494
C	 1.9050498185	-0.8915117429	-0.297523709	 0.072455
O	 3.2841847328	-0.707724546	-0.408129871	-0.439392
C	 1.196829786	-0.1661869038	 0.8470850061	 0.315389
O	 1.6410553702	 0.2948953604	 1.8640713666	-0.322025
H	 0.2234384874	 2.3131729493	 0.0681697702	 0.120992
H	-1.3324825399	 1.7944689149	-0.6070368519	 0.118224
H	-1.0417948278	 1.7005031843	 1.1389470478	 0.130864
H	-1.9116207869	-0.7437881079	-0.6516546601	 0.124418
H	-0.7814372252	-1.9147659282	 0.0400550922	 0.121683
H	-1.6576504854	-0.8016598481	 1.10092721	 0.130206
H	 0.4770741866	-0.7071084341	-2.0552503617	 0.109005
H	 1.3548658839	 0.788901453	-1.6187192742	 0.115903
H	 1.677270339	-1.9649022846	-0.3103684447	 0.107209
H	 3.5458035164	-0.1063950494	 0.300899319	 0.294882
