21
gdb 106526	3.09321	1.32688	1.15722	2.4107	77.78	-0.2331	0.0697	0.3028	1135.6318	0.184206	-424.208141	-424.199933	-424.198989	-424.240626	32.67	
O	-0.023429869	 1.4198117857	-0.2166471898	-0.424682
C	 0.0110065365	 0.025361688	 0.0597209076	-0.1777
C	-1.4039399885	-0.5073364398	 0.0028032563	 0.344277
C	-2.1547845202	-0.527477842	-1.366632277	-0.282443
C	-2.8876837067	-1.7762666761	-0.8051246243	 0.127117
C	-1.6176486787	-2.0495088557	 0.0443103023	-0.28244
O	-3.9783746128	-1.4374496676	 0.0403672648	-0.277288
C	-3.8044513242	-0.19011393	 0.7122804523	-0.075922
C	-2.334127104	 0.1119657195	 1.0661249045	-0.269338
H	 0.8701361836	 1.7659738219	-0.1395263154	 0.28893
H	 0.6298304432	-0.509615226	-0.6795771804	 0.079129
H	 0.4424071836	-0.1732717857	 1.0556094658	 0.083097
H	-2.7432145066	 0.3409614466	-1.6678424565	 0.104929
H	-1.4822660394	-0.8063613031	-2.1823157914	 0.094887
H	-3.2517173426	-2.5452486033	-1.489019323	 0.072307
H	-0.851963453	-2.5875025841	-0.5239742448	 0.089345
H	-1.7683304035	-2.5243039215	 1.0173937119	 0.093697
H	-4.1977500643	 0.6182576717	 0.0796467428	 0.097345
H	-4.4325823194	-0.2324981916	 1.6067272534	 0.104404
H	-2.0720235885	-0.2979935882	 2.0493738415	 0.094348
H	-2.1876456157	 1.1953904211	 1.1102010795	 0.116002
