16
gdb 126122	4.57579	0.95975	0.80115	3.1867	71.96	-0.2614	-0.0553	0.2061	1375.0597	0.123648	-437.903679	-437.895243	-437.894298	-437.937908	29.707	
C	 0.0320575556	 1.5516889963	 0.0106932081	-0.380631
C	-0.0421213383	 0.0269064369	 0.0039028608	-0.299018
C	-1.4690443856	-0.5054084983	 0.0126004155	 0.284949
O	-2.4358074685	 0.2293885556	 0.0238208612	-0.319701
C	-1.6502137897	-1.971060774	 0.0075623721	 0.067441
C	-0.7418976165	-2.9906415372	-0.0042875192	 0.000957
O	-1.3557043309	-4.1722998769	-0.0042424438	-0.164162
N	-2.7452523186	-3.965052629	 0.0080964113	-0.123488
C	-2.8970747558	-2.6699489431	 0.01408108	-0.024916
H	 1.0730865506	 1.8856028498	 0.003936879	 0.111849
H	-0.4729790229	 1.9702515122	-0.863180153	 0.135446
H	-0.4588122001	 1.9617398336	 0.8965951554	 0.135439
H	 0.4674228529	-0.3893775365	-0.8760709258	 0.124579
H	 0.4813226263	-0.3978549107	 0.8715789124	 0.12458
H	 0.3370345574	-3.021726045	-0.0130661166	 0.164977
H	-3.887948206	-2.2403356636	 0.0237952425	 0.161699
