16
gdb 58074	1.81241	1.73674	1.12905	5.841	69.47	-0.2937	-0.025	0.2686	1113.7883	0.122759	-434.073407	-434.063801	-434.062857	-434.107541	34.773	
C	-0.2147089216	 1.4818525494	 0.022721447	-0.421859
C	 0.0211579667	-0.0249968613	-0.0404052786	-0.005279
N	 0.9224486428	-0.3479333777	-1.1468697688	-0.536553
C	 0.7795129607	-0.5393273199	 1.248379938	 0.102768
O	 2.0886652729	-0.0438315291	 1.2576575441	-0.431739
C	 0.0873007255	-0.1038836097	 2.4753651955	 0.309268
N	-0.4921491209	 0.2438885618	 3.4109336461	-0.3243
C	 0.7789596894	-2.029617804	 1.2056928466	 0.281834
N	 0.7893935527	-3.1787373717	 1.088268282	-0.328532
H	 0.7331697365	 2.0156596723	 0.1300766692	 0.145609
H	-0.7050936118	 1.8171770345	-0.8962406324	 0.125233
H	-0.8591793931	 1.7442667064	 0.863772702	 0.161337
H	-0.9405137151	-0.5520289912	-0.0903824343	 0.10837
H	 0.8235262199	-1.3127371494	-1.445364296	 0.261312
H	 0.750129169	 0.2506932193	-1.9452299165	 0.250516
H	 2.3353727263	-0.0536494398	 0.3113126361	 0.302014
