16
gdb 112211	2.54897	1.29494	0.94697	2.8119	66.2	-0.2549	-0.0024	0.2525	1204.159	0.12313	-475.002283	-474.993604	-474.99266	-475.036059	31.335	
O	 0.0068566393	 1.4620671989	-0.1659578699	-0.415085
C	 0.0403433574	 0.0849057479	 0.1697269784	-0.079801
C	-1.3390431671	-0.5545640454	 0.1041079163	-0.047581
N	-1.9115993759	-0.637036979	-1.2586639406	-0.381232
C	-2.1376434043	-2.0055834544	-1.2444726747	 0.391262
O	-2.6852406126	-2.7570009292	-1.9997475337	-0.350917
C	-1.4249592328	-2.0975943855	 0.1146752478	 0.254702
C	-0.5448947492	-3.1326975681	 0.6594018361	-0.256265
O	-1.8536607054	-2.8884462575	 1.1920872541	-0.253253
H	-0.1209771178	 1.5252598426	-1.1180242353	 0.286577
H	 0.7334771434	-0.4724654802	-0.4773741002	 0.094888
H	 0.4169203591	 0.0277154263	 1.1968917943	 0.120526
H	-2.0177153447	-0.0918408815	 0.8288331634	 0.110099
H	-2.4017749189	 0.068807103	-1.7880539206	 0.256399
H	-0.430314941	-4.0690760283	 0.1172710341	 0.141568
H	 0.2819900203	-2.8499488895	 1.3085700804	 0.128112
