25
gdb 115278	2.63733	1.09068	0.96688	1.2872	89.12	-0.237	0.0801	0.3171	1424.39	0.227842	-389.524318	-389.513992	-389.513048	-389.559752	39.326	
C	-0.0299414384	 1.5634530093	 0.0989688058	-0.380961
C	 0.0038478117	 0.0353610616	 0.011476827	-0.183921
C	-1.3829349777	-0.5972119295	 0.0339401682	 0.162579
C	-1.4161161637	-2.1269697949	-0.0345024341	-0.241117
C	-2.7710757606	-2.4384338932	 0.6119943796	-0.27415
C	-2.9210469195	-1.3298731004	 1.6851234418	 0.409615
C	-4.3412391966	-0.7632105022	 1.7513534841	-0.419973
C	-2.4545892897	-1.7992551444	 3.06797915	-0.410115
O	-2.0275679309	-0.2741900161	 1.2665742156	-0.319958
H	 0.9808875454	 1.9826090291	 0.1000403879	 0.106153
H	-0.5696310447	 1.9957633365	-0.7512474803	 0.108936
H	-0.5364138001	 1.8823969342	 1.0135114658	 0.134695
H	 0.5099292771	-0.278651796	-0.910613838	 0.089789
H	 0.5807309271	-0.3755816504	 0.849302557	 0.095334
H	-1.9744927629	-0.1847991651	-0.8042898734	 0.054364
H	-1.3238720395	-2.509147698	-1.0544957528	 0.097032
H	-0.592714215	-2.5429767966	 0.557714323	 0.100215
H	-3.5718195536	-2.3549493472	-0.1308373657	 0.09671
H	-2.8268160902	-3.4402139772	 1.0453991042	 0.099678
H	-5.0600771245	-1.5397170326	 2.0349129517	 0.108533
H	-4.3998015792	 0.0435492058	 2.4882614368	 0.117814
H	-4.6376010842	-0.3589663979	 0.7788166451	 0.112233
H	-1.4612415937	-2.2547995588	 3.0102012513	 0.10939
H	-2.3956066192	-0.9479165346	 3.7523586228	 0.120191
H	-3.1481708373	-2.5346549718	 3.4893828765	 0.106934
