15
gdb 4507	3.52196	1.83346	1.22415	0.8878	65.35	-0.2017	0.0122	0.2139	963.174	0.118049	-399.852473	-399.844332	-399.843388	-399.885125	28.775	
C	 0.0207876567	 1.4161366541	 0.0677788622	-0.488188
C	 0.0232451244	-0.064687446	-0.0510265285	 0.383271
N	-0.0146372641	-0.7837185879	-1.1339912118	-0.381746
C	 0.008966875	-2.0866490975	-0.6780154318	 0.24333
O	-0.0185551751	-3.134181448	-1.5299270328	-0.436446
C	 0.0608337407	-2.1196537906	 0.6770353418	 0.226127
C	 0.1047054876	-3.1878137714	 1.701855532	-0.503597
O	 0.0699775293	-0.7935572818	 1.0831640171	-0.20883
H	 0.9221400437	 1.7728805872	 0.577266899	 0.14551
H	-0.0195925111	 1.8530703709	-0.9302571449	 0.154021
H	-0.8421544509	 1.7645216412	 0.645034864	 0.145508
H	-0.0539460459	-2.7631401454	-2.4193014365	 0.303825
H	 1.0127823312	-3.1344183611	 2.3143202732	 0.134261
H	-0.7546537018	-3.1423897891	 2.381565706	 0.134267
H	 0.0900485403	-4.1589337246	 1.2013019309	 0.148688
