19
gdb 92565	2.49537	1.87619	1.80707	2.8546	72.24	-0.2447	0.0748	0.3196	898.3898	0.163046	-423.022536	-423.015862	-423.014918	-423.053329	28.27	
O	 0.2143070181	 1.3429573866	-0.3309739729	-0.447349
C	 0.0572118922	-0.0372192003	-0.0522454646	 0.121399
C	 0.6670250388	-0.4944174244	 1.3044159795	-0.237867
C	-0.509825855	-0.6172015151	 2.296108651	-0.068413
C	-0.9796604376	 0.7487972055	 2.8198809506	-0.086317
O	-1.7151599851	 1.3378039223	 1.7319535754	-0.276775
C	-2.2960572074	 0.2713868468	 0.9995662172	 0.082715
C	-1.4089894495	-0.4809530526	 0.0304726675	-0.113615
C	-1.7094838385	-1.0387392977	 1.413432387	-0.117081
H	-0.3695051302	 1.807949628	 0.2842669508	 0.290259
H	 0.5598111526	-0.5507816498	-0.8770924943	 0.08202
H	 1.1247205718	-1.4812726589	 1.1762508357	 0.097324
H	 1.4499017977	 0.196062107	 1.6319413161	 0.103105
H	-0.3076489243	-1.3127279307	 3.1132697187	 0.076219
H	-1.6415166907	 0.634707999	 3.6900883164	 0.09992
H	-0.1660438935	 1.4316683213	 3.0798502309	 0.113812
H	-3.347478568	 0.4185569415	 0.778619336	 0.10209
H	-1.8871130319	-0.8929615734	-0.8516488259	 0.087686
H	-2.2886020994	-1.932922315	 1.6043368949	 0.090867
