20
gdb 72337	2.27063	2.09137	1.52962	1.8523	82.26	-0.2227	0.0118	0.2345	967.8343	0.172621	-365.978001	-365.970581	-365.969637	-366.009248	30.786	
C	-0.0343403651	 1.4641174722	-0.0103038851	-0.481923
C	-0.0221126655	-0.0574433952	-0.0196341421	 0.335946
C	-1.3516003484	-0.6969564921	-0.4992500739	-0.337242
C	-1.6781796294	-1.695991166	 0.5907619935	-0.058973
C	-0.7720040617	-1.728291432	 1.5727507112	-0.087018
C	 0.3324393635	-0.7477288353	 1.329897442	-0.043873
N	 1.6841605571	-1.2443417159	 0.7990481042	-0.155744
C	 1.4113562688	-2.1096159103	-0.3643892184	-0.257808
C	 1.2955041703	-0.6526555693	-0.5488465587	-0.073232
H	 0.9003823006	 1.8651972546	 0.3956311706	 0.123328
H	-0.158146358	 1.8643465511	-1.0236236579	 0.115164
H	-0.859831209	 1.8441603272	 0.6015801017	 0.116899
H	-2.1511465129	 0.0476908555	-0.6120527696	 0.10287
H	-1.247650333	-1.1847210549	-1.4775267393	 0.107732
H	-2.5725189998	-2.3109283016	 0.5553121035	 0.096443
H	-0.8155124882	-2.3765740915	 2.441023843	 0.097533
H	 0.5379249246	-0.0854279711	 2.1751557229	 0.079426
H	 2.3143175838	-2.583770164	-0.737755364	 0.117277
H	 0.5319478913	-2.7464845429	-0.3686946969	 0.117359
H	 2.0140701609	-0.0860968885	-1.1358245466	 0.085836
