20
gdb 6413	4.72223	0.97602	0.84912	4.4538	68.1	-0.247	0.0526	0.2997	1360.1054	0.175157	-423.276529	-423.266819	-423.265875	-423.310991	35.622	
C	 0.0300845751	 1.5330283917	-0.0696685907	-0.401898
C	 0.0129846087	 0.0089639686	 0.0176886154	 0.113917
O	 0.6529486977	-0.5689838199	-1.1337078537	-0.434446
C	 0.7463516259	-0.5252172693	 1.2491258533	-0.205544
C	 0.7119039159	-2.0526695512	 1.3711126581	 0.108933
O	 1.5183534139	-2.6879176104	 0.3866383956	-0.461008
C	 1.2537302803	-2.5462836568	 2.7117696569	-0.048828
O	 1.2823739691	-3.9568318139	 2.7583433778	-0.431229
H	 1.059433212	 1.9024891272	-0.1065660197	 0.130336
H	-0.4897899288	 1.8788499331	-0.9704907885	 0.107276
H	-0.4713696182	 1.9793159375	 0.7949583691	 0.121743
H	-1.0317245835	-0.3394121703	 0.05937135	 0.0756
H	 0.1458335827	-0.3339624018	-1.9168973747	 0.2895
H	 1.7914042084	-0.1928420979	 1.2192255832	 0.111339
H	 0.2831616669	-0.0798788487	 2.1381310135	 0.100005
H	-0.3337943011	-2.3975273521	 1.2810774723	 0.060782
H	 1.3219579034	-2.2560380045	-0.4561495541	 0.293821
H	 2.2582462558	-2.1168052067	 2.8667153479	 0.081209
H	 0.6099038671	-2.2051692739	 3.5298693321	 0.095727
H	 1.6621256888	-4.2295367507	 1.9134553762	 0.292766
