18
gdb 15140	8.97281	0.71361	0.68855	2.9746	69.99	-0.2555	-0.0264	0.2291	1599.7496	0.151124	-384.91958	-384.91055	-384.909606	-384.954888	30.682	
O	-0.3093332879	 0.474859084	 0.7205214496	-0.238602
C	-0.008984344	 1.3538062498	-0.0424691969	 0.139394
C	 1.4021863286	 1.8952989554	-0.1921728312	-0.140904
O	 1.3801571728	 2.9191408963	-1.1491757071	-0.248223
C	 2.6527841009	 3.4966432514	-1.3886397774	-0.066748
C	 2.5269279782	 4.5391424197	-2.4629048218	 0.008733
C	 2.0711474592	 5.9310771332	-2.1100450811	-0.247375
C	 3.5063907331	 5.6857917507	-2.4999499684	-0.272505
H	-0.7470551912	 1.8493611238	-0.7109887554	 0.096964
H	 1.7505912995	 2.2510587968	 0.7931043623	 0.11927
H	 2.0693258446	 1.0650533687	-0.4836254882	 0.119701
H	 3.043329378	 3.9512589396	-0.4617768963	 0.085206
H	 3.3673169253	 2.711260258	-1.6888478119	 0.091547
H	 2.1973962612	 4.1478305967	-3.4207916343	 0.092621
H	 1.4273195161	 6.4514053746	-2.8098528122	 0.116218
H	 1.8559195609	 6.1414333525	-1.0677063243	 0.115098
H	 4.2606361528	 5.7365952418	-1.721303878	 0.113111
H	 3.8482805421	 6.0328341271	-3.4682815373	 0.116492
