20
gdb 109573	2.338	1.41785	0.96461	2.7924	78.06	-0.2284	0.0278	0.2562	1272.534	0.168928	-440.2994	-440.289108	-440.288164	-440.334997	35.652	
C	-0.0426297975	 1.3725666613	 0.3397161893	-0.246392
O	-0.0362182869	 0.1009534379	-0.2903177382	-0.241823
C	-1.2482458966	-0.5780778943	-0.151920286	-0.035521
C	-1.2237776632	-2.0424522149	-0.6972331767	-0.002303
C	 0.1050521387	-2.5518991975	-1.2344135627	-0.393656
N	-1.5678818042	-2.4714718609	 0.6697217935	-0.076848
C	-1.8550321614	-3.7636351219	 1.2356733523	-0.350111
C	-1.5499729948	-1.2233716065	 1.2330429021	 0.391887
O	-1.7100348929	-0.8398405091	 2.3660929336	-0.389378
H	 0.9452363341	 1.809819109	 0.1796869537	 0.12701
H	-0.8032405132	 2.0319498799	-0.106226894	 0.106209
H	-0.23876769	 1.2867186865	 1.4147366072	 0.146243
H	-2.0912795124	 0.0214225311	-0.528870835	 0.084492
H	-2.0321753976	-2.2492841741	-1.4107504986	 0.079194
H	 0.9189528595	-2.3194810839	-0.5445212418	 0.134809
H	 0.0696365331	-3.634688957	-1.3929323396	 0.113943
H	 0.3271273333	-2.0774126591	-2.194638653	 0.130638
H	-1.0053760175	-4.4488625187	 1.133589436	 0.131805
H	-2.0631032339	-3.6192305979	 2.2986182659	 0.162326
H	-2.7312384767	-4.2241812098	 0.7621795018	 0.127478
