19
gdb 3976	4.40233	1.16027	1.15896	1.016	75.8	-0.2397	0.0087	0.2484	1136.4623	0.163096	-365.021781	-365.012945	-365.012001	-365.055973	33.286	
C	-0.4284609927	 1.5655002274	-0.1282098304	-0.44234
C	 0.0221420872	 0.1132889637	 0.0102847553	 0.351542
C	-1.1461464077	-0.8540906266	-0.164110308	-0.442335
C	 1.2746229127	-0.2450308329	-0.8781485308	-0.367534
C	 2.0478858563	-0.493493509	 0.3974939505	 0.434006
C	 0.8809228461	-0.1605969183	 1.299697573	-0.369149
N	 3.2505374342	-0.8529709925	 0.5634999596	-0.232974
O	 3.55359265	-0.9633944428	 1.9358951286	-0.395983
H	 0.4116239558	 2.257041589	-0.0022209135	 0.114424
H	-0.8672513366	 1.7490438239	-1.1157145608	 0.11407
H	-1.1838534939	 1.8163728926	 0.6252569831	 0.114567
H	-1.6061014286	-0.7417062324	-1.1526448753	 0.114069
H	-0.8199070118	-1.8949400089	-0.0638817009	 0.114427
H	-1.9222127596	-0.6730717577	 0.5883650847	 0.114567
H	 1.1488688833	-1.1237221653	-1.5184934021	 0.116507
H	 1.6535097155	 0.5773791716	-1.4929999162	 0.116505
H	 1.0446219035	 0.7051059114	 1.9495245111	 0.120393
H	 0.5408545202	-0.9928028697	 1.9244390189	 0.120396
H	 4.4768055862	-1.2372072334	 1.9167191233	 0.304842
