25
gdb 114620	2.11615	1.27139	0.93477	0.2994	92.87	-0.2402	0.0807	0.3209	1419.7346	0.228548	-352.341776	-352.331721	-352.330777	-352.376785	38.282	
C	-0.026925577	 1.6476879	-0.1997707085	-0.377751
C	-0.0273859797	 0.153867958	 0.1434822011	-0.200189
C	-1.4019389437	-0.491253247	-0.0222567841	-0.020846
C	-2.0027763669	-0.6524972171	-1.4635374403	-0.248494
C	-2.1911487938	-2.1487435045	-1.1975407851	-0.116147
C	-0.8635950327	-2.7829742736	-0.8854321179	-0.330256
C	-1.5738714688	-2.0117302077	 0.1985110117	 0.3724
C	-1.9935088895	-2.6482854773	 1.4975870103	-0.294424
C	-0.8775586312	-2.6973488831	 2.5512406566	-0.373755
H	 0.9682963777	 2.0859949964	-0.0757386978	 0.109531
H	-0.3376790249	 1.8169046848	-1.2364894488	 0.117536
H	-0.7179274034	 2.2021229374	 0.4453661656	 0.111257
H	 0.7046234594	-0.3650113803	-0.4878198098	 0.093079
H	 0.3132027869	 0.0169210276	 1.1779438355	 0.095417
H	-2.1220054912	 0.0440469078	 0.6091500044	 0.062927
H	-2.9374833349	-0.103755116	-1.5977377849	 0.098283
H	-1.3341807703	-0.4042264545	-2.2964026334	 0.089558
H	-3.0472703032	-2.7402499467	-1.5017097193	 0.079327
H	-0.8816578098	-3.8617220615	-0.7596558698	 0.1045
H	 0.0459263092	-2.4125096058	-1.3532133547	 0.100183
H	-2.855796482	-2.1043182148	 1.9073991669	 0.091101
H	-2.3458160582	-3.668202719	 1.2955100882	 0.092922
H	-1.2217011114	-3.1875913432	 3.4675609334	 0.107969
H	-0.0091437504	-3.2494012609	 2.1772228565	 0.116915
H	-0.5398224101	-1.6912956288	 2.8210286943	 0.118956
