21
gdb 89371	2.75737	1.63398	1.4344	1.2331	82.39	-0.2324	0.0116	0.244	1039.0912	0.183297	-387.104083	-387.096062	-387.095118	-387.135844	33.056	
C	-0.1433611531	 1.5223514638	-0.0780421042	-0.408038
C	 0.0625683306	 0.0180998606	 0.010097532	 0.158524
O	 0.8700470264	-0.4446023247	-1.0843683643	-0.330162
C	 1.9507073986	-1.2513266461	-0.5048055105	 0.402586
C	 2.5527003858	-2.1086644257	-1.5905717041	-0.488401
C	 1.2242011204	-1.9078715882	 0.6852104755	-0.256226
C	 0.8203567591	-0.5303392328	 1.268954647	-0.11157
C	 2.1734983005	 0.1576272754	 1.3005864744	-0.091595
C	 2.8572952669	-0.2692943598	 0.2335546582	-0.107791
H	 0.8098791269	 2.0530958137	-0.0169072421	 0.1211
H	-0.6138204227	 1.7788054456	-1.0318439494	 0.12284
H	-0.7977610997	 1.8712012682	 0.7286551369	 0.105061
H	-0.9151722553	-0.48381991	-0.0436279231	 0.068725
H	 2.9582157629	-1.4838752533	-2.392331449	 0.126303
H	 3.3652916605	-2.7207029138	-1.1873273349	 0.117135
H	 1.7967923068	-2.7691249412	-2.0243521901	 0.122729
H	 0.3788993793	-2.5273429834	 0.3693223365	 0.094188
H	 1.8871248626	-2.4725315392	 1.3429343024	 0.098278
H	 0.2303121097	-0.5131877279	 2.1851694765	 0.063229
H	 2.4606171428	 0.9307906031	 2.0020431389	 0.097804
H	 3.8154610209	 0.0799810557	-0.1311965966	 0.095282
