19
gdb 74477	3.0613	1.41117	1.10661	2.1592	82.88	-0.223	0.0093	0.2323	1143.7629	0.159353	-385.873044	-385.865103	-385.864158	-385.905236	31.454	
C	 0.0076500871	 1.4947264108	 0.0722472043	-0.494525
C	-0.014846628	 0.0018070958	-0.002545874	 0.320841
C	-0.0202614266	-0.7639657433	-1.1009179941	-0.286605
C	-0.054032809	-2.2155305045	-0.7574918301	 0.461232
C	-0.6969956425	-3.2437252494	-1.5911152419	-0.25636
O	 0.7251718812	-3.1330526089	-1.5482000478	-0.286667
C	 0.0241931849	-2.2867187425	 0.7487208259	-0.141869
C	 1.2581216568	-1.7021322276	 1.3942485895	-0.286681
C	 0.0136661934	-0.8525019268	 1.2333378019	-0.141004
H	 0.8905012635	 1.8473148083	 0.6200916581	 0.132132
H	 0.0141673481	 1.9490922011	-0.9217674281	 0.126211
H	-0.867017602	 1.875201427	 0.6150157085	 0.127972
H	 0.0356138403	-0.4149746963	-2.1252993187	 0.096877
H	-1.1135409065	-4.1331858266	-1.1166739774	 0.108745
H	-1.1648106464	-2.9633945606	-2.5350146002	 0.108087
H	-0.5131949036	-3.0695841101	 1.2696079656	 0.089179
H	 1.4982947251	-2.0588488311	 2.3904049967	 0.111674
H	 2.1149695143	-1.4780396045	 0.7680044006	 0.12406
H	-0.5355545601	-0.545060961	 2.116650391	 0.086699
