17
gdb 93215	2.92863	1.41826	0.99867	2.1492	72.28	-0.2422	-0.0444	0.1977	1163.7556	0.137113	-455.199349	-455.191006	-455.190062	-455.232103	31.754	
C	-0.2107606995	 1.498551045	 0.0134403795	-0.388435
C	 0.0637796329	-0.0064281259	 0.0107128439	 0.027662
C	 0.8408038821	-0.4160233783	-1.2309112749	-0.087867
O	 1.1727855762	-1.8221842168	-1.205763185	-0.229259
C	 1.6561380626	-2.3102109876	-0.0584870834	 0.402716
O	 2.0950443322	-3.4298984178	 0.0153359888	-0.34475
C	 1.5443541441	-1.4027371451	 1.1570522144	 0.228167
N	 2.3240442805	-1.8270256866	 2.1924359013	-0.544765
N	 0.7822442931	-0.3780272863	 1.2271463893	-0.308328
H	 0.7277421461	 2.0621912797	 0.0060814624	 0.122107
H	-0.8049345098	 1.7956322116	-0.8568087174	 0.111839
H	-0.7568882161	 1.7704246693	 0.9195589203	 0.13332
H	-0.9037106154	-0.5331679693	 0.0043704253	 0.093855
H	 0.2680801036	-0.2740982496	-2.1496184467	 0.1285
H	 1.7721882733	 0.1604184731	-1.3031306768	 0.118923
H	 2.6272148866	-2.7876728619	 2.1445011865	 0.275379
H	 2.1225976476	-1.4388135037	 3.1000750425	 0.260935
