13
gdb 16274	3.13766	2.15534	1.45442	4.2454	60.82	-0.2559	-0.0459	0.21	824.9705	0.094142	-398.57133	-398.56438	-398.563436	-398.602816	25.034	
O	-0.2278455941	 0.009451868	 0.1570137464	-0.232919
C	-0.0083825485	 1.1347635821	-0.2067305591	 0.0677
C	 1.2765204672	 1.8437554318	-0.0016761041	 0.099856
C	 1.3213579098	 3.3111201223	 0.3452623405	-0.260616
N	 1.7803038113	 2.9419300076	-0.9709780524	-0.142395
C	 3.1913387339	 2.4417531356	-0.7816070455	-0.285295
C	 2.6786771675	 1.2938529028	 0.1150285716	 0.354526
O	 3.1549932169	 0.2913931604	 0.5490714591	-0.27499
H	-0.7659600503	 1.7477009684	-0.7460440697	 0.090591
H	 0.3641088801	 3.8255260878	 0.3588996986	 0.148327
H	 2.0311414705	 3.641705969	 1.1015134205	 0.139846
H	 3.5992851756	 2.0640580901	-1.7222342171	 0.155919
H	 3.8721953403	 3.1793941041	-0.3483927786	 0.139451
