18
gdb 7799	3.25768	1.73563	1.20835	2.9288	68.16	-0.232	-0.0202	0.2117	1001.5945	0.154035	-384.967192	-384.959403	-384.958458	-384.999341	29.233	
C	-0.0050739956	 1.5623240995	-0.0021997807	-0.40377
C	 0.0013249456	 0.0323953847	-0.0362031499	 0.003677
C	 0.7503020759	-0.5099316438	-1.2575158425	-0.072674
O	 0.7024566741	-1.9250978409	-1.3100067903	-0.243528
C	 1.3728676916	-2.5415772581	-0.2273957297	-0.174898
C	 0.8736586428	-2.0649383454	 1.1379870929	 0.367905
O	 0.7432728576	-2.8248063768	 2.0676189986	-0.298682
C	 0.6202424709	-0.5685167612	 1.2416775777	-0.3095
H	 1.0155584457	 1.9604664637	 0.0426853531	 0.117137
H	-0.4885278425	 1.9780355599	-0.8922921875	 0.118983
H	-0.5440390368	 1.9329452525	 0.8752589325	 0.122813
H	-1.0331984779	-0.3263574114	-0.1162039978	 0.093622
H	 0.289925415	-0.1578234831	-2.1853966246	 0.112213
H	 1.7986932768	-0.1596609259	-1.245894878	 0.083116
H	 1.2161663302	-3.618730416	-0.3092613842	 0.134943
H	 2.4608800579	-2.3445188856	-0.2759865031	 0.104456
H	 1.6041004091	-0.1014052231	 1.4088027688	 0.120871
H	 0.0180978397	-0.373119959	 2.1332892147	 0.123318
