21
gdb 95026	2.43306	1.79446	1.36591	1.2348	80.21	-0.2374	0.0682	0.3056	1029.2103	0.184954	-387.062381	-387.054598	-387.053654	-387.094569	31.634	
O	 0.319847968	 1.0635304664	-0.7589745508	-0.433361
C	 0.0577480419	-0.0960975085	 0.0173093176	 0.123892
C	 0.4497529068	 0.040319398	 1.5149991763	-0.263787
C	-0.5868927779	-0.7782120654	 2.3263901023	-0.233255
C	-1.8472063433	-0.8769082874	 1.4387551538	-0.018769
C	-2.9290298548	 0.2237926314	 1.4672708294	-0.065772
C	-2.3673675913	 1.6007895369	 1.2584318088	-0.280634
C	-2.504933228	 0.6975943632	 0.0679151581	-0.037735
C	-1.4443280865	-0.4179031123	 0.002248948	-0.033684
H	 1.2704071385	 1.2128325694	-0.7594230413	 0.280179
H	 0.5940192086	-0.9594912619	-0.4093779668	 0.058368
H	 1.4744033401	-0.3005252393	 1.698988847	 0.083959
H	 0.4200202056	 1.1008287458	 1.7806660033	 0.111931
H	-0.1986530664	-1.7839515798	 2.5212163376	 0.095365
H	-0.7939442173	-0.3256134039	 3.3009977177	 0.101666
H	-2.2968662951	-1.8711522467	 1.475963038	 0.066304
H	-3.9288545386	 0.079057114	 1.859946181	 0.078193
H	-3.1125104612	 2.3904818985	 1.2949230669	 0.107049
H	-1.4051151139	 1.9073342627	 1.649369748	 0.109988
H	-3.1304067218	 0.9777394997	-0.7706848213	 0.081777
H	-1.6939557834	-1.1393995009	-0.7780116836	 0.068325
