15
gdb 20650	5.33793	1.29782	1.07976	2.5735	64.44	-0.2479	-0.0036	0.2444	1069.389	0.118208	-399.796887	-399.788898	-399.787953	-399.829927	27.914	
C	 0.0702210625	 1.4971242087	 0.0206818323	-0.491062
C	-0.0891586073	 0.0181369785	 0.0285717434	 0.439622
C	-1.1661682148	-0.8105170918	 0.0686712934	-0.404826
C	-0.594065727	-2.1132202298	 0.0409222641	 0.401585
C	-1.3032436506	-3.4301567921	 0.0990571042	-0.189583
O	-2.4676483392	-3.3371567506	-0.7087517897	-0.416819
N	 0.7147972466	-2.0689237939	-0.0164861162	-0.212833
O	 1.0413193002	-0.7139297066	-0.0167241747	-0.211444
H	 0.5825542385	 1.8311209607	-0.8875325998	 0.151289
H	-0.9070626448	 1.9809578221	 0.066205467	 0.141814
H	 0.6657753649	 1.8321165865	 0.8762264127	 0.149857
H	-2.2099312054	-0.5490569354	 0.0970840955	 0.123167
H	-0.6168287792	-4.2174241785	-0.2413302893	 0.119331
H	-1.5672986331	-3.6499257758	 1.1462032574	 0.106811
H	-2.9628876115	-4.155417612	-0.6079503202	 0.293093
