25
gdb 100298	1.62634	1.41593	1.07943	2.0133	84.85	-0.2588	0.0624	0.3212	1359.8305	0.225328	-426.633782	-426.621891	-426.620947	-426.670293	44.112	
C	 0.026512348	 1.6287937615	 0.0802647742	-0.401821
C	 0.0370476121	 0.0981289423	 0.0031635001	-0.174709
C	 0.7092988892	-0.496991459	-1.2502409866	 0.347721
O	 2.0762103843	-0.0657475637	-1.1947598026	-0.478859
C	 0.6285096393	-2.0386303329	-1.2452293167	-0.215739
C	 1.1898274368	-2.7196547313	 0.007804567	-0.396204
C	 0.0696605632	 0.0894844106	-2.5394151628	 0.117832
C	 0.6912500474	-0.3948836153	-3.8519461837	-0.439026
O	-1.3224375008	-0.2217567484	-2.4864977284	-0.441122
H	 1.0285310174	 2.0360072651	-0.0799072119	 0.130191
H	-0.649615204	 2.0704943663	-0.657694211	 0.116434
H	-0.3159868532	 1.9534585251	 1.0678455906	 0.103831
H	 0.5774863047	-0.290158022	 0.8712759921	 0.099918
H	-0.9866126877	-0.2834781424	 0.0573547359	 0.10863
H	 2.5767463901	-0.5764687601	-1.8386578102	 0.275477
H	-0.4146480593	-2.3283421665	-1.4071124762	 0.116547
H	 1.1832175334	-2.4101904431	-2.1175148994	 0.078647
H	 2.1920801422	-2.346209424	 0.2390508839	 0.121069
H	 0.5588219017	-2.5518827219	 0.8847780872	 0.121457
H	 1.2573097598	-3.8014071625	-0.1438260323	 0.105956
H	 0.2176365322	 1.1770182191	-2.4851256806	 0.073304
H	 0.531262721	-1.4649908058	-4.0077445502	 0.128254
H	 0.2380923051	 0.137353381	-4.6964589693	 0.10765
H	 1.7648386067	-0.1832416636	-3.8869189267	 0.112009
H	-1.7396465596	 0.1381214617	-3.2750820923	 0.282554
