13
gdb 20964	7.86992	1.18383	1.04249	3.6544	56.5	-0.2853	-0.0666	0.2187	1069.2022	0.094548	-431.858137	-431.850973	-431.850029	-431.890334	24.749	
C	 0.0280230207	 1.5141538641	-0.0742613118	-0.394848
C	-0.0020751702	 0.0029823696	 0.0126862089	-0.053416
O	 0.6634244157	-0.5139972575	-1.1654323046	-0.242785
C	 0.7309708339	-1.8238578559	-1.2586145684	 0.524761
N	 0.269013149	-2.7075250523	-0.4143806672	-0.197136
O	 0.6060719599	-3.8997607712	-0.9916999706	-0.156078
N	 1.269443898	-3.6551434541	-2.1826848785	 0.060197
N	 1.3478043673	-2.4119700008	-2.3487919793	-0.226437
H	 1.0570185629	 1.8816382806	-0.1042096084	 0.140952
H	-0.4926994462	 1.8628353795	-0.9698212708	 0.140936
H	-0.4671500024	 1.9401954959	 0.8030401784	 0.132822
H	 0.5218843957	-0.3715423049	 0.8988135051	 0.135508
H	-1.0241650644	-0.390588673	 0.0338216972	 0.135525
