17
gdb 7327	4.23064	1.15367	0.96952	1.3578	67.31	-0.2386	-0.0596	0.179	1228.3496	0.140065	-401.059241	-401.049789	-401.048845	-401.094832	32.078	
C	-0.0504107032	 1.3223624281	-0.4069122905	-0.373611
C	-0.0789967925	 0.1211166812	 0.5404459049	-0.145651
N	-1.3524282948	-0.5758719487	 0.5214985546	-0.303063
C	-1.5085728836	-1.8405526001	 0.076857391	 0.300592
O	-0.6295301644	-2.5763021605	-0.3414478767	-0.372554
C	-2.9827914941	-2.3069591457	 0.1485100584	 0.312417
C	-3.2366396233	-3.714391646	-0.317069596	-0.470184
O	-3.8408131331	-1.5564686914	 0.5571952752	-0.30471
H	 0.920156871	 1.8249444596	-0.3520317924	 0.123341
H	-0.2177902291	 1.0064089781	-1.4405048139	 0.132676
H	-0.8220523713	 2.0541566087	-0.1448506027	 0.118242
H	 0.6752818111	-0.6163136344	 0.2558886401	 0.148365
H	 0.1410209889	 0.4441026533	 1.5656679853	 0.113014
H	-2.2003030479	-0.1133129268	 0.820179523	 0.262011
H	-2.89334188	-3.8289429548	-1.350020826	 0.160799
H	-2.6369010146	-4.4124786523	 0.2755357856	 0.160706
H	-4.297529069	-3.9502676984	-0.2337602699	 0.13761
