23
gdb 93628	3.07698	1.13381	0.94787	0.8046	91.18	-0.2538	0.054	0.3079	1337.9823	0.205505	-351.146596	-351.136809	-351.135865	-351.180763	37.754	
C	-0.8561135092	 1.1733266438	-0.0369784024	-0.426466
C	 0.0895503838	-0.025797269	 0.0032289764	 0.055091
C	 1.1494350577	-0.0379009232	-1.1276172751	-0.221161
C	 2.3471853993	-0.8637715965	-0.5880104778	-0.222817
C	 1.9277461416	-1.3032058001	 0.8476225304	-0.164878
C	 3.0426285164	-1.5509511369	 1.7481143268	 0.304014
C	 3.9686459999	-1.7538819375	 2.4889023896	-0.453225
C	 0.9152137593	-0.2095681316	 1.3006931109	-0.007147
C	 1.5935202594	 1.0693022203	 1.804126816	-0.400327
H	-0.3099288081	 2.1202336606	 0.0245102128	 0.117508
H	-1.4272260936	 1.1845160021	-0.9715990606	 0.112202
H	-1.5753212941	 1.1456761577	 0.7889433787	 0.11105
H	-0.5194948977	-0.9343900494	-0.1041565879	 0.068259
H	 0.7393246916	-0.453272518	-2.0526720682	 0.096822
H	 1.4638071894	 0.9852537406	-1.3602089409	 0.099385
H	 2.5808017434	-1.7329526044	-1.2075730033	 0.104583
H	 3.2555661211	-0.2583475408	-0.5388735613	 0.112221
H	 1.3575827762	-2.237589582	 0.7568799914	 0.100059
H	 4.7852025022	-1.9378346486	 3.1419587765	 0.188192
H	 0.283280526	-0.6028364806	 2.1051472571	 0.070494
H	 2.2056679657	 1.5447491221	 1.0300800252	 0.114088
H	 0.8505360196	 1.8008433375	 2.1341638628	 0.113157
H	 2.2484579002	 0.8464377239	 2.6504952831	 0.128896
