17
gdb 20141	5.20218	1.39485	1.25579	2.3162	68.24	-0.2306	0.0791	0.3098	983.4248	0.143178	-363.785943	-363.778969	-363.778024	-363.817512	26.609	
C	 0.1425827009	 1.4995688317	-0.0350184327	-0.184764
O	 1.2296183394	 0.5752428178	-0.0696691412	-0.243188
C	-0.1065658712	 0.0525472829	-0.0238773633	 0.084841
C	-0.4893995773	-0.6777914336	 1.2310124536	-0.008091
C	-2.0177292938	-0.9702335333	 1.494366836	-0.25254
C	-1.6847231752	-2.4652794103	 1.528895269	-0.037466
N	-1.1046528206	-2.7791781403	 0.2002097464	-0.332807
C	-0.2461521316	-2.1978419261	 1.2633004106	-0.064087
H	 0.0438879968	 2.0702467925	 0.8884312581	 0.106225
H	-0.0179525334	 2.0711446299	-0.9484121359	 0.111954
H	-0.4316841668	-0.4229672789	-0.9482121211	 0.109357
H	-0.0317849101	-0.1849194656	 2.0927608802	 0.08025
H	-2.3518539422	-0.5695576704	 2.4533200147	 0.105132
H	-2.7151750171	-0.6708335462	 0.7077260034	 0.107308
H	-2.1544951948	-3.2384915767	 2.1236950683	 0.093408
H	-0.9139281581	-3.7805163093	 0.1809330149	 0.229326
H	 0.6429067151	-2.7152941341	 1.601420189	 0.095144
