20
gdb 78885	2.54688	2.10865	1.44917	1.9024	80.14	-0.2187	0.0737	0.2924	967.2464	0.171923	-365.963492	-365.955898	-365.954954	-365.994978	30.996	
C	 0.0882588477	 1.560895929	-0.0455197725	-0.404136
C	-0.0059756768	 0.0341499719	 0.0204229742	-0.062919
C	 0.7633658807	-0.6707150913	-1.0765482546	-0.05459
C	 1.2072347352	-2.0199114277	-0.652820481	-0.06167
C	 1.1659015957	-2.0026489244	 0.8815598588	-0.169472
C	 2.1400473999	-0.8556733517	 0.8177241116	-0.063143
N	 2.1985111357	-0.8943226401	-0.6953199544	-0.16785
C	 0.7088450934	-0.585349512	 1.2168052373	 0.32792
C	 0.3604520184	-0.2274418403	 2.638231162	-0.503399
H	 1.1334022472	 1.8863393226	-0.0298335285	 0.128525
H	-0.3696607218	 1.94295438	-0.963477945	 0.113685
H	-0.4273222841	 2.0289233869	 0.7990775662	 0.113645
H	-1.0597186176	-0.2750944822	-0.0028837727	 0.075173
H	 0.6091732221	-0.4313733759	-2.1233634361	 0.090762
H	 1.303298844	-2.8889300491	-1.2934171897	 0.092818
H	 1.1026499211	-2.8439793056	 1.5574776082	 0.08867
H	 3.0250564303	-0.6113575528	 1.3906950536	 0.091967
H	 0.4827044344	 0.8453868326	 2.8232103438	 0.123556
H	-0.6772542196	-0.4914481529	 2.8722173082	 0.120136
H	 1.002955304	-0.7588149869	 3.3477123305	 0.120321
