19
gdb 104097	2.86486	1.17939	1.09917	1.191	71.18	-0.2522	-0.0312	0.2211	1186.3938	0.157556	-460.18739	-460.178355	-460.177411	-460.221235	34.05	
C	-0.3621495975	 1.7368637548	 0.0405074501	-0.433872
C	 0.0206447654	 0.2691829447	-0.0844064958	 0.333913
C	-1.2219447321	-0.6414000364	-0.0950644669	-0.074732
O	-1.9302636068	-0.5549630676	 1.1203628189	-0.42197
C	 0.9605065617	-0.0515758902	-1.2513563313	-0.394777
C	 1.9012496423	-1.1151555456	-0.6879280398	 0.376765
O	 2.6540295605	-1.8249847165	-1.2972660415	-0.294464
C	 1.6986515128	-1.1106618033	 0.8293740199	-0.194199
O	 0.7857165983	-0.0674863821	 1.112351538	-0.306194
H	 0.5300923246	 2.351196978	 0.1867036353	 0.120148
H	-0.8763782755	 2.0724117498	-0.8653916061	 0.119907
H	-1.0352120309	 1.8779973999	 0.8889368808	 0.138976
H	-1.9041500312	-0.3372197562	-0.896552348	 0.111337
H	-0.9127095727	-1.6800341516	-0.3075460986	 0.081531
H	-1.2584586681	-0.5971191591	 1.8138239406	 0.288828
H	 0.457777192	-0.4135919329	-2.1514932685	 0.139341
H	 1.5588793999	 0.8232314305	-1.5316304841	 0.139021
H	 1.3287145309	-2.0973118168	 1.1475485196	 0.128732
H	 2.6436113765	-0.9230504494	 1.3505309575	 0.14171
