20
gdb 103044	2.44222	1.4661	1.10151	1.9556	85.7	-0.2299	0.0422	0.2721	1181.0347	0.169642	-365.930299	-365.921245	-365.920301	-365.96388	34.836	
C	 0.9931190105	 0.3206638169	 1.1425458937	-0.384456
C	 0.0220918609	 0.1369891833	-0.0305463696	-0.274495
C	 0.6904862521	-0.4989229837	-1.2459677981	 0.113771
C	 1.7697570249	 0.2996874223	-1.7856924893	 0.286006
C	 2.6716011464	 0.9780084126	-2.2005128974	-0.402007
C	 0.852933982	-1.9707136127	-1.4345323769	-0.053485
C	-0.3059222068	-2.776676036	-0.8525282283	-0.273084
C	-1.2244934953	-1.9155968933	-1.7559780904	-0.159445
N	-0.0541786196	-1.1787176641	-2.3575201902	-0.181244
H	 1.3833539579	-0.6437147071	 1.4844672075	 0.117406
H	 1.8443677722	 0.9432572827	 0.8549620573	 0.136196
H	 0.4893929402	 0.7994905384	 1.9874598824	 0.113108
H	-0.8252636358	-0.4669852664	 0.3000960174	 0.104273
H	-0.384564207	 1.1087156752	-0.3339803896	 0.113553
H	 3.463239073	 1.5735968331	-2.582672236	 0.190063
H	 1.7937083504	-2.3848789565	-1.7833366529	 0.101452
H	-0.2815320768	-3.8249245386	-1.1550783115	 0.116069
H	-0.4467111422	-2.7312044677	 0.2311742558	 0.10899
H	-1.7117475857	-2.488286938	-2.5473086747	 0.116948
H	-1.9729609412	-1.2777938404	-1.2785598891	 0.110382
