16
gdb 36247	4.53514	1.09686	1.04999	4.9363	71.32	-0.2508	0.0343	0.285	1138.5409	0.12504	-400.691636	-400.684466	-400.683522	-400.723915	27.534	
N	 0.0066249734	-1.1543598154	 0.1055070117	-0.310333
C	-0.029273711	 0.0003936792	 0.0719510703	 0.253863
C	-0.0339129957	 1.4608510537	 0.0274721153	-0.365549
C	 1.385364646	 2.0444071693	 0.012878425	 0.011599
C	 1.5693401632	 3.5619381905	-0.0090586359	-0.155571
C	 1.5356953275	 3.9763863455	 1.4741649732	 0.094483
O	 1.2575884013	 2.8118499057	 2.2527196551	-0.288175
C	 2.1653491047	 2.1054659942	 1.3603446213	 0.054039
C	 2.8027591308	 3.4642126931	 0.8883920393	-0.147445
H	-0.5857036432	 1.7832709403	-0.8629582885	 0.147336
H	-0.5643836099	 1.8461264236	 0.903817121	 0.168159
H	 2.0038282453	 1.5735555359	-0.7554372655	 0.102463
H	 1.3816507972	 4.2545510886	-0.8194733889	 0.099556
H	 1.2331935197	 4.9462206206	 1.8446671875	 0.119051
H	 2.6406947673	 1.2395259373	 1.8139507667	 0.105567
H	 3.8093265335	 3.846261788	 0.8026793326	 0.110956
