22
gdb 107919	3.45429	1.18732	1.09043	1.4413	86.05	-0.2303	0.0856	0.3159	1251.5136	0.194347	-367.160884	-367.152187	-367.151242	-367.194017	34.051	
C	 0.2780242329	 1.4453270523	 0.1988046287	-0.378505
C	-0.118773097	 0.0037255486	-0.1450424644	-0.294329
C	 0.5599201783	-0.5009217963	-1.38278594	 0.369035
C	 0.3164973323	-0.0898255526	-2.8406232145	-0.302344
C	 1.2384900581	-1.2789461144	-3.2155463117	-0.087909
C	 0.9451690909	-1.8755600991	-1.7859628963	-0.125576
N	 1.9940682141	-0.9614720733	-1.2405814703	-0.189469
C	 2.5901475453	-0.8402049446	-2.6185799988	 0.088678
C	 3.7458311748	-1.8087527244	-2.7883206707	-0.404817
H	 1.3582342851	 1.5152251586	 0.3568341175	 0.13235
H	 0.0094888514	 2.1358154643	-0.6079423286	 0.11327
H	-0.2244991187	 1.7854423853	 1.1092083138	 0.109679
H	 0.1403560769	-0.6589648563	 0.6882234997	 0.10847
H	-1.2061542943	-0.0651617459	-0.2795055978	 0.094679
H	-0.7265963806	-0.2698535167	-3.1160482511	 0.100565
H	 0.6205593847	 0.9085092398	-3.1766153642	 0.090978
H	 1.1570000683	-1.7785599554	-4.1799912746	 0.068596
H	 0.7181266175	-2.8567847163	-1.3891389016	 0.091708
H	 2.9105181943	 0.18184254	-2.8629545777	 0.062584
H	 3.4367407276	-2.8347614043	-2.5630720095	 0.11767
H	 4.1229414358	-1.7816665235	-3.8161403131	 0.110308
H	 4.5670953824	-1.5484868357	-2.1136639448	 0.124382
