21
gdb 99167	5.05119	0.76657	0.71626	1.7198	80.14	-0.2644	0.0199	0.2844	1666.5957	0.18134	-424.2626	-424.252795	-424.251851	-424.298959	34.855	
C	 0.0460629624	 1.6191181515	 0.0098690638	-0.370131
C	-0.1474149536	 0.1234030375	-0.2256877223	-0.302691
C	 0.7543955235	-0.4227206253	-1.3145240124	 0.43963
O	 1.5516440927	 0.2194293688	-1.9519601024	-0.358989
O	 0.5481571387	-1.7470613986	-1.4862156123	-0.25839
C	 1.3330389302	-2.3837371458	-2.4989138637	 0.176651
C	 2.7590857659	-2.8522360767	-2.13267054	-0.23812
C	 2.4536481372	-4.1694807568	-2.9015789416	-0.220471
C	 0.9371655037	-3.8446853588	-2.7722654416	-0.255999
H	 1.076362969	 1.8395830079	 0.3002970365	 0.131844
H	-0.1647511327	 2.1888365849	-0.8986184648	 0.131947
H	-0.6202725805	 1.971387142	 0.8021401597	 0.110644
H	 0.0447617025	-0.4557791794	 0.6853882572	 0.130235
H	-1.1821969716	-0.1101518764	-0.5033634109	 0.130992
H	 1.3310320059	-1.759481193	-3.3949797571	 0.101977
H	 3.5937458709	-2.2304645664	-2.458915246	 0.1137
H	 2.8368182395	-3.0270431264	-1.0556465571	 0.107241
H	 2.7944789442	-4.1261390795	-3.9391626952	 0.1094
H	 2.8045293002	-5.1029400192	-2.4587627829	 0.104933
H	 0.5070683075	-4.2940254252	-1.8729211821	 0.113513
H	 0.2816765544	-4.0470444051	-3.6218227348	 0.102087
