17
gdb 86854	3.3556	1.09616	0.90043	1.2798	74.78	-0.2431	-0.0341	0.209	1264.1558	0.134688	-421.819113	-421.810404	-421.809459	-421.852941	32.669	
O	-0.168781894	 1.4597825181	-0.2056522846	-0.435667
C	-0.0222525503	 0.0612405228	 0.0297605699	 0.017224
C	-1.4026689345	-0.5835023256	 0.0216633408	-0.225794
C	-1.6979798273	-0.8488894638	-1.4842010788	-0.181435
C	-0.3263493606	-1.308579846	-2.036878082	-0.331051
C	 0.6904944679	-0.5291954634	-1.2102163042	 0.37842
O	 1.8426333898	-0.3143467506	-1.4883591369	-0.321971
C	-2.7836267235	-1.7863696191	-1.7185931187	 0.301165
C	-3.6736160427	-2.5741146152	-1.8991688997	-0.437754
H	 0.7083683043	 1.8039555127	-0.4151720955	 0.295921
H	 0.5473849533	-0.130971409	 0.9482842884	 0.087754
H	-1.3728115295	-1.5366868507	 0.5592644843	 0.115822
H	-2.1554279898	 0.0524025718	 0.4906357191	 0.12964
H	-1.94811166	 0.1129909977	-1.9474067951	 0.127214
H	-0.1817552977	-2.3779100565	-1.8345624338	 0.143624
H	-0.1854490404	-1.1546526364	-3.1081429526	 0.140388
H	-4.4636654351	-3.2638442167	-2.0653731204	 0.196499
