13
gdb 25311	2.3356	1.58038	0.94258	5.0457	76.84	-0.2572	-0.0792	0.178	1129.521	0.091391	-415.682565	-415.675215	-415.674271	-415.714781	26.755	
O	 0.0737566188	-0.086837244	-0.0017246155	-0.302874
C	-0.0019285893	 1.1267851263	 0.009434746	 0.066035
C	 1.1738030506	 1.9793065939	 0.0033143027	 0.133413
C	 1.3377601934	 3.3683380845	 0.0133232114	 0.12935
C	 2.7325575719	 3.6310041829	-0.0005719636	-0.259782
C	 3.3719073415	 2.4069979704	-0.018008064	-0.044966
N	 2.4250886416	 1.4313061236	-0.0155157331	-0.27522
C	 0.2902126835	 4.3221471812	 0.0333743091	 0.206354
N	-0.5638619299	 5.1044667335	 0.0496870186	-0.342884
H	-0.9714479151	 1.6596928948	 0.0249878915	 0.111096
H	 3.2002431043	 4.6020418695	 0.0021927854	 0.136365
H	 4.423455767	 2.1691658651	-0.0319619781	 0.152535
H	 2.5635158217	 0.4319211984	-0.0255317804	 0.290576
