17
gdb 74837	2.46319	1.70436	1.09267	3.2381	76.21	-0.2129	-0.006	0.207	1097.3647	0.13806	-418.036644	-418.028895	-418.027951	-418.068781	30.133	
C	 0.0161560572	 1.5179845138	-0.0201166187	-0.489267
C	-0.0575458297	 0.0203861759	-0.004524647	 0.382036
C	-1.18821849	-0.6851714268	 0.140247251	-0.170908
C	-1.1676809006	-2.1589486401	 0.0579344277	-0.08845
N	-0.7018609873	-2.7317201477	-1.2275994528	-0.332635
C	 0.1716133805	-2.8280414123	-0.0378245844	-0.182522
C	 1.4072693197	-1.9830432518	-0.0541196477	 0.465102
O	 2.5297666354	-2.4390025879	 0.0379605577	-0.373831
N	 1.178638796	-0.6234864384	-0.1463048494	-0.408433
H	 0.6841792621	 1.8909360096	 0.7662984483	 0.132875
H	 0.4059411912	 1.8816603853	-0.9785420846	 0.141007
H	-0.9718230716	 1.9543202304	 0.1338003188	 0.140007
H	-2.1310958223	-0.1701485846	 0.2725018455	 0.09357
H	-1.9527476679	-2.6961539362	 0.5834192627	 0.092685
H	-1.1360834093	-3.6407634183	-1.3715310188	 0.239008
H	 0.3325937741	-3.801980066	 0.4123468483	 0.109969
H	 2.0198430227	-0.0646141348	-0.1476655866	 0.249787
