16
gdb 28216	4.76499	1.26245	1.01819	2.5493	72.47	-0.1972	0.0047	0.202	1142.6335	0.125767	-437.909788	-437.902073	-437.901129	-437.942635	27.848	
C	 0.1028816288	 1.430783246	 0.0657345491	-0.491711
C	-0.0024954899	-0.0456490989	-0.049656865	 0.356579
N	-0.2239373937	-0.7521899577	-1.1293335137	-0.390658
C	-0.1853041314	-2.0351768105	-0.6536283045	 0.360013
C	 0.0597156937	-2.0725744112	 0.662250316	 0.180788
C	-0.0315205737	-3.4512150257	 1.2085197858	-0.3779
C	-0.1368293085	-4.1998359296	-0.1815572078	-0.087719
O	-0.3999948383	-3.2312076269	-1.2497695326	-0.282101
O	 0.1699964672	-0.7784248496	 1.0960524238	-0.219394
H	 1.1119988066	 1.7348207391	 0.3649782931	 0.146197
H	-0.1269107223	 1.8761993335	-0.9024105875	 0.159081
H	-0.5939165715	 1.8192031108	 0.8154499505	 0.145365
H	 0.8415333224	-3.801504269	 1.7690191278	 0.124241
H	-0.9163285639	-3.6196739834	 1.8365695051	 0.122935
H	 0.8093535147	-4.6949011536	-0.4188860218	 0.126312
H	-0.9421197602	-4.9355139633	-0.2051359182	 0.127973
