18
gdb 91058	3.72526	1.34639	1.27737	2.0634	78.72	-0.2263	-0.0022	0.2242	1058.2917	0.148201	-401.868495	-401.86105	-401.860106	-401.900428	29.497	
C	 0.203746258	 1.5422199173	 0.0066857015	-0.391912
C	 0.047083297	 0.0271634441	 0.0514676008	 0.108335
O	 0.6480167299	-0.540656358	-1.1432840453	-0.292751
C	 1.290641992	-1.7271855167	-0.7474682342	 0.109493
C	 2.7974556442	-2.103113589	-0.8870659001	-0.115604
N	 3.6342442232	-1.165056697	-0.1123936149	-0.31516
C	 2.8799095461	-2.2385502903	 0.6103893851	-0.165992
C	 1.5059074203	-1.6203232687	 0.7306752455	 0.236988
C	 0.7971461414	-0.6159226269	 1.2233642636	-0.239097
H	 1.2632163393	 1.8116095318	 0.0300470997	 0.135578
H	-0.2368076906	 1.9342771482	-0.9142167611	 0.12654
H	-0.30335775	 2.0080113936	 0.8579888695	 0.109643
H	-1.0258574792	-0.2291361981	 0.0557782658	 0.079107
H	 0.7150363082	-2.6192139115	-1.0478512362	 0.076439
H	 3.2306904607	-2.7310378302	-1.655939114	 0.093792
H	 4.596584592	-1.4952874849	-0.2080183083	 0.230698
H	 3.3882779135	-2.9740374059	 1.2184101561	 0.105941
H	 0.8109680439	-0.1767958277	 2.2128525365	 0.107965
