19
gdb 115083	2.68555	1.46534	1.02803	2.9495	78.01	-0.2067	0.0147	0.2214	1182.5831	0.160841	-419.265081	-419.256031	-419.255086	-419.300109	32.716	
C	-0.009118018	 1.5263719929	 0.0333426749	-0.380166
C	-0.073805392	-0.0039649662	 0.0109739462	-0.139427
N	-1.43538574	-0.5311120935	 0.0138828992	-0.143411
C	-2.0857182013	-0.680736156	 1.3182991259	-0.19847
C	-3.439721696	-1.3155645565	 1.2086961355	-0.138194
C	-3.9961591278	-1.532511057	 0.0187514231	 0.023573
N	-3.3461929415	-1.1893558078	-1.1571897107	-0.390471
C	-2.0421114089	-0.7117400776	-1.2032756616	 0.491123
O	-1.4956546681	-0.490061985	-2.2721644533	-0.427119
H	 1.0329358894	 1.8608662757	 0.0603665312	 0.115305
H	-0.476760005	 1.9328924735	-0.8670342399	 0.142157
H	-0.516848952	 1.943304151	 0.9091405912	 0.113655
H	 0.4198619817	-0.379179506	-0.8867134732	 0.139538
H	 0.4415050492	-0.4223263874	 0.8839001004	 0.094673
H	-1.4288866312	-1.2874434113	 1.9625740231	 0.111469
H	-2.15981478	 0.3016825178	 1.8174920493	 0.110132
H	-3.9584209675	-1.5801376132	 2.1202846688	 0.099143
H	-4.9755472584	-1.9790702966	-0.1056243768	 0.116832
H	-3.7518614027	-1.3731886268	-2.0584019034	 0.259656
