15
gdb 44040	3.46304	1.71872	1.51098	3.5954	71.1	-0.2326	-0.0159	0.2167	879.5024	0.113167	-416.649409	-416.642952	-416.642008	-416.679998	26.326	
O	-0.064501936	 0.0040939335	-0.2098974953	-0.320784
C	-0.0093496178	 1.1792370635	-0.0220090429	 0.344755
N	-1.0097334868	 2.1678079165	 0.1395020139	-0.401158
C	-0.0712209878	 3.1843106469	 0.5839125269	 0.208313
C	 0.609190014	 3.2841405537	 1.9429331441	-0.202934
N	 1.8221484329	 3.3557367662	 1.0228441433	-0.190588
C	 1.0076837855	 4.1917763262	-0.0210729722	-0.050922
C	 1.3702706385	 3.2651523003	-1.1697120826	-0.270988
C	 1.0613455042	 2.34397848	 0.018206676	 0.075306
H	-1.9949746983	 2.0199365338	 0.3247377899	 0.253131
H	 0.4628013418	 4.1928291884	 2.5334693743	 0.106311
H	 0.6094051097	 2.3931041642	 2.5795527738	 0.114802
H	 1.0301518682	 5.2820548292	 0.0492763283	 0.093749
H	 0.672595885	 3.2221591368	-2.0080360997	 0.118401
H	 2.4108371068	 3.2891120607	-1.498783938	 0.122605
