19
gdb 103560	2.46513	1.29573	1.04502	3.1471	71.31	-0.2715	0.0068	0.2783	1211.8999	0.157317	-460.199198	-460.189652	-460.188707	-460.233446	35.124	
C	-0.2976560504	 1.451286138	-0.107267178	-0.417629
C	-0.0017690391	-0.0401143034	-0.0032041119	-0.261471
C	 1.2575677104	-0.5476956346	-0.7081609842	 0.457113
O	 1.7177403931	-0.5282893246	-1.8044974658	-0.32679
O	 1.8087727717	-1.0987864839	 0.4205777326	-0.301513
C	 0.6628866915	-0.6492931423	 1.2630486357	 0.383005
C	 1.1489718334	 0.2860370167	 2.3523282667	-0.442952
C	-0.0179189939	-1.9021569604	 1.8087445456	-0.09846
O	 0.8510345118	-2.6587273213	 2.6249639017	-0.415833
H	 0.562780751	 2.0619146653	 0.1771757593	 0.132562
H	-0.5568865023	 1.702084186	-1.1396287061	 0.144981
H	-1.1417692531	 1.7292580895	 0.5309478709	 0.127264
H	-0.876621429	-0.618972658	-0.3194075416	 0.110589
H	 1.7968652904	 1.0665993661	 1.9480664002	 0.129119
H	 0.2977956204	 0.7617733528	 2.8501855179	 0.125271
H	 1.7063572007	-0.2831741983	 3.099558403	 0.146925
H	-0.8726436547	-1.6179560749	 2.4326086755	 0.117051
H	-0.3996127893	-2.498480472	 0.9653595652	 0.093652
H	 1.6105362573	-2.8924878707	 2.0776071532	 0.297116
