17
gdb 37111	3.94703	1.64134	1.51029	2.0693	75.27	-0.2104	-0.0017	0.2087	914.2982	0.13687	-384.602926	-384.596469	-384.595525	-384.633214	27.588	
C	-0.010237278	 1.532604457	-0.2278481822	-0.280589
C	 1.2792784486	 0.8296986769	 0.0948529251	-0.138525
C	-0.0509686935	 0.0689618755	 0.1117822421	-0.139132
C	 0.473719317	-0.7934336775	-1.0794889015	 0.265902
O	 0.8317253397	 0.0468872551	-2.2047566606	-0.299412
C	 1.738801846	-0.0632908618	-1.1047697133	 0.289672
C	 2.8789683191	-1.0520306755	-1.25638744	-0.361233
C	 2.1223292499	-2.3749606842	-1.3742721796	-0.059122
C	 0.7958116536	-2.2332222437	-1.2326863163	-0.165557
H	-0.3726221848	 2.1840134127	 0.561426239	 0.11127
H	-0.2142900013	 1.8673843241	-1.2369018392	 0.136927
H	 1.9230016577	 1.1098477014	 0.9181339125	 0.092442
H	-0.6030313692	-0.3361194984	 0.9488281351	 0.095193
H	 3.5078830104	-0.854812471	-2.1324748852	 0.128058
H	 3.5415382856	-1.0396709462	-0.3823018257	 0.119511
H	 2.625618837	-3.3084278889	-1.6070628653	 0.101608
H	 0.0673243423	-3.0343359656	-1.2676745949	 0.102986
