25
gdb 36946	4.58739	0.7205	0.70333	0.0536	93.56	-0.2732	0.0842	0.3574	1757.4342	0.230304	-352.340096	-352.33077	-352.329826	-352.375233	35.547	
C	-0.1200076457	 1.5951519054	 0.0106789228	-0.247761
C	-0.155487932	 0.072465734	-0.035269342	 0.068581
C	 0.2810986881	-0.7400370608	 1.220475961	-0.216362
C	-0.8753819473	-1.7348685304	 0.9329349756	-0.210379
C	-1.53047289	-0.6521895432	 0.0340338822	-0.236837
C	 1.2888930747	 2.1748462142	 0.0406080977	 0.068582
C	 2.1839776196	 2.0730275302	-1.2306590873	-0.216362
C	 2.701577227	 3.5065143019	-0.9356642868	-0.210379
C	 1.4702599451	 3.7190447768	-0.0147690466	-0.236837
H	-0.65507755	 1.9986797782	-0.8616597023	 0.084332
H	-0.6748819683	 1.9399807306	 0.8957308597	 0.084333
H	 0.4018069987	-0.2825979924	-0.9109366088	 0.069598
H	 1.2999010141	-1.1347096013	 1.2509138189	 0.091723
H	 0.1034106911	-0.1708356603	 2.1397585928	 0.094591
H	-0.5336999763	-2.5940866092	 0.3483477875	 0.099426
H	-1.4508439772	-2.1052104455	 1.7847375082	 0.09318
H	-2.2608903522	-0.0550007901	 0.5906052944	 0.094848
H	-1.989291972	-0.9713432288	-0.9054432088	 0.091179
H	 1.8342344019	 1.7728436623	 0.9034162814	 0.069597
H	 2.9176396078	 1.2644468389	-1.2815387764	 0.091723
H	 1.574441812	 2.0443478314	-2.1407619396	 0.09459
H	 3.6353246929	 3.4900052355	-0.3659385326	 0.099425
H	 2.8270307222	 4.1858462627	-1.7822144164	 0.09318
H	 0.6418738877	 4.1921317894	-0.5531748663	 0.094848
H	 1.6181963882	 4.2516471203	 0.9283329615	 0.091179
