13
gdb 19631	6.06198	1.77584	1.70563	2.1066	68.75	-0.2258	0.0107	0.2365	763.6568	0.094698	-324.162452	-324.156433	-324.155488	-324.192315	24.063	
C	 0.0204828407	-1.1381404384	-0.0200673362	-0.363574
C	 0.012347661	 0.065903764	-0.0013772059	 0.038849
C	 0.0038936037	 1.4755356845	 0.0205636179	 0.366819
C	 0.0869681335	 2.4860446217	 1.1552472677	-0.168693
C	-0.8222544937	 3.4100459223	 0.3105946403	-0.05412
C	 0.1837099712	 3.4333279568	-0.7820800359	-0.054109
C	 1.1200810603	 2.5097115256	 0.0328162209	-0.168696
N	-0.9133493326	 2.4010699791	-0.8044239635	-0.214978
H	 0.025201576	-2.1996782894	-0.0388511703	 0.185222
H	 0.2196126208	 2.3184302601	 2.2139328284	 0.111431
H	-1.6440933799	 4.0702775855	 0.5572232918	 0.10521
H	 0.3474322721	 4.1163961702	-1.6059502201	 0.105209
H	 2.1894058269	 2.3635381382	 0.0738171849	 0.11143
