19
gdb 46394	3.93136	0.91034	0.78365	3.7914	77.12	-0.2398	0.0365	0.2763	1444.8717	0.159607	-419.191397	-419.182573	-419.181629	-419.226023	31.962	
O	-1.1589340113	 0.3992499645	 0.4642881027	-0.364497
C	-0.4702376633	 1.3484103543	 0.201396041	 0.415996
N	-0.7482786417	 2.6687832594	-0.0546683646	-0.321272
C	 0.6447701615	 3.0946213814	-0.214142013	-0.174795
C	 1.051938624	 1.6087775461	 0.0349737509	-0.148363
C	 1.9062835778	 1.2651550417	 1.246137896	-0.158202
N	 3.3196625911	 1.5222754671	 0.9909287825	-0.065326
C	 3.8434212276	 2.8183806837	 1.4136655217	-0.22161
C	 4.186434763	 1.5780438953	 2.1616481705	-0.220415
H	-1.6211876161	 3.1740210092	-0.0907085916	 0.250633
H	 0.8860769634	 3.4886177819	-1.2059843724	 0.115424
H	 0.9839750222	 3.7997644887	 0.5518764812	 0.109392
H	 1.4614012245	 1.1235759826	-0.8545285941	 0.114131
H	 1.5351500786	 1.8080479333	 2.1357924448	 0.083209
H	 1.7886680049	 0.1953313473	 1.4533272195	 0.128074
H	 4.5640265167	 3.2809377425	 0.7453413946	 0.118293
H	 3.1606102517	 3.5138478848	 1.9001515864	 0.107401
H	 3.729969415	 1.4483297991	 3.141921262	 0.112058
H	 5.1623647305	 1.1146139172	 2.049399182	 0.11987
