21
gdb 59533	4.13419	0.86205	0.77728	2.1524	79.68	-0.2564	0.0704	0.3268	1507.9342	0.18065	-424.194822	-424.185387	-424.184443	-424.229304	35.659	
C	 0.0822320002	 1.4774072033	-0.1493545384	-0.409227
C	 0.0068576286	-0.0428574775	-0.001479695	 0.114164
O	 0.6440972354	-0.4810959642	 1.1966111812	-0.43956
C	-1.4222928336	-0.5526420679	 0.0725251785	 0.062159
C	-2.3017526144	-0.4621782951	-1.2130766752	-0.349434
C	-2.777022972	-1.8839794291	-0.9057454058	 0.463869
C	-4.1464875522	-2.397232201	-0.8582591981	-0.266832
O	-3.2166363424	-2.8220526782	-1.8675276485	-0.272846
C	-1.6357495546	-2.0971142788	 0.0888061783	-0.333013
H	 1.1244978908	 1.8132356012	-0.2013341523	 0.104519
H	-0.4175956525	 1.8123755094	-1.0639262916	 0.122191
H	-0.3910803277	 1.9668116612	 0.7078981102	 0.123532
H	 0.4923470347	-0.5106219892	-0.8764298152	 0.059247
H	 1.5530498014	-0.1650792141	 1.1839363895	 0.28053
H	-1.9222574225	-0.0840100301	 0.9260522531	 0.077359
H	-3.0530196627	 0.3289448125	-1.2689859081	 0.104451
H	-1.6937689099	-0.4397846372	-2.1242915269	 0.110334
H	-4.4169799193	-3.1566380644	-0.125118415	 0.114217
H	-4.9715548121	-1.7812275681	-1.2151993893	 0.112169
H	-0.7963907305	-2.6262335766	-0.3737086396	 0.113123
H	-1.8676109647	-2.570198806	 1.0447490183	 0.10905
