14
gdb 4482	3.60457	1.79973	1.21349	2.0319	59.97	-0.1903	0.0534	0.2438	933.7404	0.106961	-415.901171	-415.893143	-415.892199	-415.933335	29.018	
C	 0.0218720354	 1.4883808419	 0.0921433047	-0.494767
C	 0.046988989	 0.0005185767	-0.003187212	 0.185859
C	-0.0230515061	-0.7774042646	-1.1199829019	 0.235659
O	-0.1918350994	-0.5053171871	-2.4439175519	-0.434762
N	 0.0389998976	-2.1034543642	-0.6812067812	-0.349612
C	 0.1379929985	-2.0360060233	 0.6695879147	 0.433717
O	 0.2028374632	-3.1694349525	 1.3920955798	-0.427407
N	 0.1581046677	-0.8163682638	 1.1248171916	-0.414658
H	 0.9634180671	 1.8849968229	 0.4899453433	 0.125904
H	-0.1495492836	 1.9324682446	-0.8924761535	 0.116435
H	-0.7767559693	 1.8256209894	 0.761735074	 0.133235
H	 0.6359730108	-0.179127073	-2.8137179674	 0.306478
H	-0.0368902697	-2.9287787791	-1.2505742496	 0.272385
H	 0.2552467687	-2.8912731679	 2.3153892895	 0.311534
