12
gdb 20639	7.47132	1.28807	1.10622	5.6316	63.89	-0.2828	-0.0585	0.2243	994.0058	0.084132	-377.535811	-377.528859	-377.527915	-377.56734	24.355	
C	 0.0451145298	 1.5002156195	 0.0065538912	-0.495241
C	-0.08897762	 0.0208938092	 0.0527566046	 0.443585
C	-1.1128499638	-0.8408645865	-0.1891918122	-0.417459
C	-0.5335501	-2.1190576811	 0.0478730448	 0.288801
N	 0.7347635089	-2.0317368889	 0.4032403477	-0.183163
O	 1.0088406868	-0.6819293161	 0.4044846691	-0.190336
C	-1.1665819103	-3.3913041059	-0.0597366945	 0.25195
N	-1.71899054	-4.4019739137	-0.1593001331	-0.319871
H	 0.8159380962	 1.7985172535	-0.7109446262	 0.162128
H	-0.9022645481	 1.9534439538	-0.2892713845	 0.151567
H	 0.3325233636	 1.8954279704	 0.9859104724	 0.162118
H	-2.122099203	-0.6170896742	-0.4885176194	 0.145921
