16
gdb 12697	3.12361	1.97762	1.35112	1.6996	60.2	-0.2587	-0.0424	0.2163	895.9391	0.130317	-420.899178	-420.891438	-420.890494	-420.931594	28.808	
O	 0.0675308342	 1.4040195131	 0.1011564043	-0.433864
C	-0.0038927792	-0.0062847005	 0.0230426641	 0.050273
C	-1.4678353402	-0.4878079265	-0.072129504	-0.23976
C	-1.6984818284	-0.8573713271	-1.5592960911	-0.250834
C	-0.3386718524	-1.439215074	-1.9952360805	 0.069337
O	-0.11116857	-1.5240304226	-3.3709333851	-0.440987
C	 0.607460906	-0.4738358607	-1.304236401	 0.330695
O	 1.5917947735	-0.0002307498	-1.8217256285	-0.34045
H	 0.9192558274	 1.6592651069	-0.2779585042	 0.294554
H	 0.5262535109	-0.4740251436	 0.8677065846	 0.092361
H	-1.6111938961	-1.3669161769	 0.5637092767	 0.108538
H	-2.1449624541	 0.2916524501	 0.2811150423	 0.130622
H	-2.523387825	-1.5565608749	-1.7075127186	 0.114577
H	-1.9003182606	 0.0377703707	-2.1574092024	 0.124199
H	-0.2170510193	-2.4297145419	-1.5178395168	 0.097478
H	 0.7164307332	-1.0478443024	-3.5360156798	 0.29326
