20
gdb 10528	3.37741	1.32698	1.09043	1.5924	72.32	-0.2489	0.0862	0.3351	1167.9036	0.174397	-386.09989	-386.090329	-386.089385	-386.134565	33.701	
C	-0.8011678893	 1.2829079079	-0.8667304278	-0.223688
O	-0.4709021418	-0.0453932632	-1.1929112202	-0.231843
C	 0.307397446	-0.6796857198	-0.2032608833	-0.121517
C	 0.6080318128	-2.1058011007	-0.6300806027	 0.400189
C	-0.4349881741	-2.8991151577	-1.3510361995	-0.307384
C	 0.815052314	-2.4442485929	-2.0829239293	-0.320343
O	 1.3355065242	-2.8210855805	 0.3307094229	-0.28443
C	 2.7197849796	-2.5282533761	 0.3769839454	-0.248214
H	-1.390688818	 1.3405576807	 0.0616644924	 0.106948
H	 0.0973210436	 1.9076678882	-0.7409457802	 0.104784
H	-1.3976147768	 1.6832898517	-1.6900404271	 0.12817
H	 1.2450042945	-0.1196484752	-0.0439491986	 0.083253
H	-0.2263060944	-0.7021924123	 0.7621081008	 0.095461
H	-0.5069953964	-3.9478621905	-1.087617155	 0.116736
H	-1.3688525507	-2.4048893907	-1.5891532575	 0.123465
H	 0.7152142976	-1.6461139622	-2.8085386296	 0.125201
H	 1.5577439115	-3.1990053428	-2.3165129228	 0.111122
H	 3.1954790481	-2.6568485838	-0.6049345787	 0.109013
H	 2.9236461604	-1.5074282597	 0.7290590165	 0.107295
H	 3.1658267794	-3.2324861703	 1.0835662443	 0.125782
