20
gdb 122296	4.35792	0.84917	0.81914	1.1555	76.37	-0.2486	0.0737	0.3223	1463.7016	0.171283	-440.191908	-440.183273	-440.182329	-440.226504	32.34	
O	-0.108978951	 1.4408694393	-0.0769830548	-0.419725
C	-0.0011725492	 0.0329350089	-0.0331676824	-0.06031
C	-1.3687818673	-0.6289240793	 0.0146471907	-0.106523
O	-2.0541616125	-0.2292713619	-1.1702746189	-0.309875
C	-3.3769802617	-0.6173723359	-1.2405370212	 0.392954
C	-4.5797768678	-0.271662587	-0.3218026438	-0.233941
N	-5.2185597202	-1.1031716069	-1.4438329845	-0.136072
C	-4.325973265	-0.2864753543	-2.3971947897	-0.22325
C	-4.0064137051	-2.035542659	-1.2976473956	-0.234949
H	-0.7266104337	 1.6347994573	-0.7918524834	 0.289774
H	 0.5551533888	-0.3580493162	-0.899972003	 0.095286
H	 0.5621204171	-0.2216537388	 0.8706221504	 0.110203
H	-1.2735342386	-1.7240986961	 0.0579222725	 0.096949
H	-1.9209274682	-0.2884224298	 0.9020287025	 0.105649
H	-4.6481221911	-0.7476937985	 0.6592532943	 0.104368
H	-4.9271717399	 0.7640692257	-0.2953002785	 0.106742
H	-4.6514908007	 0.7496233159	-2.5175682576	 0.106019
H	-4.1553757163	-0.774585726	-3.3596203796	 0.107051
H	-3.8184270335	-2.6476900629	-2.1831387607	 0.106235
H	-4.031969754	-2.6363910345	-0.3853030366	 0.103417
