14
gdb 13038	4.93518	1.24334	1.04173	0.5856	64.56	-0.2582	-0.041	0.2172	1069.685	0.104429	-382.495743	-382.487862	-382.486917	-382.528698	27.889	
O	-0.1410816072	-0.0298864705	 0.0232890111	-0.269673
C	-0.0761618465	 1.1598704027	 0.0466620972	 0.335747
C	-1.0460617626	 2.330475716	 0.2447495258	-0.189056
O	 0.0694503222	 3.2435401932	 0.1902017049	-0.282766
C	 1.0464817391	 2.2064785434	-0.0573039296	 0.015324
C	 2.1594610052	 2.1244689348	 0.9930595952	-0.365982
C	 3.0898495519	 3.2424223527	 0.9171197175	 0.297751
C	 3.8494811715	 4.1692032722	 0.833475909	-0.428337
H	-1.7641609169	 2.4788708829	-0.5719902896	 0.136952
H	-1.5768017329	 2.3542042641	 1.2045476059	 0.138547
H	 1.479027333	 2.2919029243	-1.0631831551	 0.12063
H	 1.7052147156	 2.0761909434	 1.9899329235	 0.139378
H	 2.6900075146	 1.1758477966	 0.838266052	 0.150711
H	 4.522730823	 4.9877750641	 0.769356372	 0.200773
