17
gdb 79122	4.30385	1.32329	1.15095	2.6346	72.68	-0.2208	0.0055	0.2263	1062.7324	0.137343	-417.960595	-417.953504	-417.952559	-417.991817	28.568	
C	 0.0741899127	 1.485995399	-0.2314259186	-0.327628
N	 0.036993475	 0.0442417437	-0.0040952293	-0.11166
C	-1.0773290053	-0.4853953886	 0.8563961793	-0.023258
C	-0.2064843378	-1.7368842286	 1.1399404931	 0.001944
N	-0.5568527735	-2.2171761457	 2.4633405219	-0.348306
C	-0.601096443	-1.0665374809	 3.2481609137	 0.416077
O	-0.7031100957	-0.9899781667	 4.4469914591	-0.364696
C	-0.4305111258	 0.0286985347	 2.1995078151	-0.19463
C	 0.7168224383	-0.4736197711	 1.2277934381	-0.038298
H	 1.0598135574	 1.7530710031	-0.6257977641	 0.124891
H	-0.6673789536	 1.7393296222	-0.9957621128	 0.125066
H	-0.1199453843	 2.1112081003	 0.6536548583	 0.103087
H	-2.1278020905	-0.4466559779	 0.5619242152	 0.092355
H	-0.0529911119	-2.4827297528	 0.3651733196	 0.104702
H	-0.1825561413	-3.0721788474	 2.8461410542	 0.252488
H	-0.5056111656	 1.0571116806	 2.5366495297	 0.09775
H	 1.7971954049	-0.4124098039	 1.3762285976	 0.090115
