10
gdb 133452	3.27308	1.50178	1.02944	1.998	53.87	-0.313	-0.0977	0.2153	994.1915	0.052385	-549.833707	-549.826798	-549.825854	-549.865817	24.64	
F	 0.0774687415	 0.0306376732	-0.223009589	-0.006203
C	 0.0079336225	 1.3218134701	-0.0253449756	 0.324737
N	-1.149113058	 1.8394048767	 0.0518779496	-0.118806
O	-1.1952218388	 3.223673546	 0.2636528968	-0.256997
C	-0.0823029424	 4.0051568466	 0.3851456147	 0.5247
O	-0.1772275783	 5.1711988286	 0.56337704	-0.310392
O	 1.1332242043	 3.3899406274	 0.2930797825	-0.255774
C	 1.2842626165	 2.0351950165	 0.0859745984	 0.314344
N	 2.3987150508	 1.4645620643	 0.0004890466	-0.476553
H	 3.1702546722	 2.1262169407	 0.1030555259	 0.260944
