15
gdb 33066	4.62806	0.82329	0.7321	3.7722	63.85	-0.243	0.0068	0.2498	1465.7246	0.112082	-494.943631	-494.93532	-494.934376	-494.977635	29.479	
O	 0.1520024148	 1.3942148851	-0.0682579079	-0.409059
C	 0.1002085997	-0.0180003546	-0.0477654359	-0.064493
C	-1.3420267238	-0.5360385185	 0.133545441	-0.33075
C	-1.4282912113	-2.0144200719	 0.1778291675	 0.319019
C	-1.750832428	-2.9048952035	 1.1137739584	-0.142764
O	-1.6353391763	-4.1810699541	 0.593938393	-0.208021
C	-1.224238575	-4.0552611969	-0.7038074217	 0.501378
O	-1.0181047746	-4.944346656	-1.4635570433	-0.368077
O	-1.0920645625	-2.718523654	-0.9737937622	-0.247674
H	-0.2124628905	 1.6972081479	-0.9059092302	 0.288098
H	 0.5426852695	-0.4604653618	-0.95096258	 0.116034
H	 0.7087550194	-0.3349808528	 0.8049736266	 0.123897
H	-1.7551772145	-0.1275104348	 1.0604476839	 0.132819
H	-1.9620075447	-0.1612354656	-0.6920309507	 0.121684
H	-2.0710133324	-2.8158377385	 2.1364468216	 0.167909
