19
gdb 42036	3.21721	1.48535	1.08329	1.7808	71.09	-0.2411	0.0741	0.3152	1100.6354	0.162325	-460.147889	-460.140594	-460.13965	-460.179689	28.687	
C	-0.0226337886	 1.5084413503	 0.1126178417	-0.115334
O	 1.3498601466	 1.8827340747	-0.1043993604	-0.278179
C	 2.2193958746	 0.742904391	 0.0207150616	-0.11532
C	 1.3434513607	-0.307169031	 0.6830113959	 0.107728
O	 1.6924275541	-1.6621190985	 0.5112995913	-0.269032
C	 0.6642067223	-2.453230274	 1.1079079427	-0.092578
C	-0.7319647014	-2.1122078718	 0.5639133843	-0.092576
O	-1.0351372303	-0.7206952789	 0.6679225385	-0.269032
C	 0.0005197835	-0.0085085203	 0.0296797331	 0.107744
H	-0.3667880116	 1.8412969428	 1.1021187708	 0.105944
H	-0.6393165018	 1.9883774757	-0.6523838791	 0.11115
H	 2.5610225247	 0.4016804141	-0.9668044512	 0.105957
H	 3.0921010329	 1.034189515	 0.6118236945	 0.111142
H	 1.2500329108	-0.0832061306	 1.7599808466	 0.076996
H	 0.9017829524	-3.4987622802	 0.8922199914	 0.113651
H	 0.675319719	-2.3080333708	 2.199938187	 0.100544
H	-0.7989023645	-2.4254466987	-0.4901909677	 0.100545
H	-1.494698496	-2.6475611385	 1.1363947061	 0.113651
H	 0.0652596228	-0.3187868305	-1.0278108871	 0.076999
