19
gdb 71070	3.38305	1.62451	1.29709	1.0358	82.05	-0.2244	-0.0145	0.2099	1016.6154	0.160018	-385.814436	-385.807027	-385.806083	-385.845713	30.384	
C	-0.2044635568	 1.4745785432	-0.0999705382	-0.488003
C	 0.0606006498	-0.0058439948	-0.0414810861	 0.279986
C	 0.7818109429	-0.7617365427	-1.2022475477	-0.325951
C	 0.1032012302	-1.993439013	-0.6308147931	 0.165808
C	 0.733382935	-2.9949420146	-0.0091188754	-0.151574
C	 0.4018013666	-3.0734325834	 1.456153462	-0.113111
O	 0.6442674624	-1.7295907819	 1.9718695391	-0.270658
C	-0.141383619	-0.7716372367	 1.3118566765	 0.084813
C	-0.9348285623	-1.1625487812	 0.1207205669	-0.251408
H	 0.7240922383	 2.0460094713	 0.0152016218	 0.125352
H	-0.654887919	 1.7610428782	-1.0576342554	 0.117272
H	-0.8874577545	 1.7890569477	 0.6964160736	 0.119713
H	 0.373077546	-0.398516607	-2.152909686	 0.104357
H	 1.875881963	-0.7628894524	-1.2445776735	 0.100304
H	 1.7004485757	-3.351504591	-0.3537349484	 0.096335
H	-0.6368832073	-3.3574927812	 1.6623296975	 0.109451
H	 1.0690689313	-3.7294365705	 2.0165065076	 0.114394
H	-0.6253192012	-0.1215422559	 2.0395005456	 0.092366
H	-2.0138346111	-1.1967613041	 0.0221356034	 0.090553
