17
gdb 65296	2.659	1.39336	1.14486	4.6287	74.22	-0.2427	0.0253	0.2679	1112.6225	0.135843	-417.976325	-417.96772	-417.966776	-418.009665	32.006	
N	-0.1248142903	 1.4340716251	-0.1316626195	-0.55602
C	-0.0434808349	-0.000318438	-0.0229217042	 0.041238
C	-0.3795890852	-0.5912795033	 1.3537763716	-0.386516
C	-1.355585679	-0.7333508036	 0.2486659768	 0.459212
C	-2.759560463	-0.1888369308	 0.0416982162	-0.349607
C	-2.9888962496	-1.5355961909	-0.6815733697	-0.076348
O	-1.6479754639	-1.9834465214	-0.3440598732	-0.292389
C	 0.9521490535	-0.6833990676	-0.818576189	 0.249309
N	 1.7610506178	-1.1707689946	-1.4879787492	-0.348594
H	 0.7240471975	 1.8669160376	 0.2219306888	 0.245096
H	-0.2186755123	 1.7140602985	-1.103630435	 0.244706
H	 0.1644201295	-1.4807909386	 1.6509497183	 0.148873
H	-0.5795139467	 0.1316441786	 2.1369059709	 0.136332
H	-3.3351198827	-0.055624939	 0.9592073712	 0.123996
H	-2.8310928068	 0.7140365851	-0.5647654001	 0.125485
H	-3.7478594171	-2.1952227481	-0.2510616262	 0.117571
H	-3.1285577369	-1.4723470192	-1.7658635477	 0.117658
