19
gdb 110478	4.12702	1.35221	1.33618	0.9741	77.88	-0.2322	0.0843	0.3165	1036.7824	0.160307	-385.80231	-385.795126	-385.794182	-385.834169	28.669	
C	 0.1673032898	 1.2713960677	 0.2115239503	-0.238162
O	-0.2780414442	-0.0063379599	-0.1821122694	-0.250663
C	 0.4913802379	-0.5759027158	-1.2018127693	 0.174647
C	 1.8899343913	-1.1852260024	-0.9001883337	-0.125145
C	 1.6701631046	-2.3293027029	 0.1131776335	-0.057009
C	 0.3623653755	-2.9232143078	-0.4151822883	-0.052696
C	 1.6927263666	-3.4200537742	-0.934457729	-0.106365
C	 1.6065558188	-2.2825511936	-1.9993347478	-0.060203
C	 0.0994333543	-1.9993615206	-1.6259450497	-0.124866
H	 1.1937102328	 1.2474231147	 0.6075182577	 0.105379
H	 0.1393560093	 1.9882102551	-0.624678688	 0.101738
H	-0.5039839392	 1.6237264904	 0.998591428	 0.124923
H	 0.5513213459	 0.0925616052	-2.077986528	 0.05928
H	 2.8044527156	-0.5960124179	-0.8540005315	 0.060661
H	 1.949317983	-2.3783952303	 1.1567509541	 0.084641
H	-0.3511086235	-3.4195068558	 0.2279989168	 0.086412
H	 2.141712881	-4.4041934778	-0.9363579809	 0.084355
H	 2.008708876	-2.2688484898	-3.0081690153	 0.068905
H	-0.7461414056	-2.2046059742	-2.2799551895	 0.06417
