15
gdb 43287	3.11347	1.70328	1.15036	4.5198	77.33	-0.2285	-0.0718	0.1567	1001.9402	0.114074	-420.643629	-420.636839	-420.635895	-420.674966	26.23	
O	-0.0748413188	-0.0571311911	-0.047366042	-0.309919
C	-0.0316397275	 1.1457215175	 0.0074809756	 0.323562
C	-1.188411807	 2.0968452935	 0.0424282997	-0.1903
C	-0.7839876842	 3.3437189468	 0.3817020994	-0.172612
C	 0.6529499422	 3.3475695961	 0.5876333129	 0.297741
C	 1.5884413408	 3.9217599213	 1.3436541499	-0.262036
C	 2.8005566161	 3.0084987538	 1.3495149891	-0.109276
O	 2.354597813	 1.7715441951	 0.7705006995	-0.270909
C	 1.2058011711	 2.0708004507	 0.0123406229	-0.019913
H	-2.2097032257	 1.7702361486	-0.1090186421	 0.126601
H	-1.4350394615	 4.1954929456	 0.5412623174	 0.127974
H	 1.5112037903	 4.8157701682	 1.9481534744	 0.117009
H	 3.6451735808	 3.4233986821	 0.7733461174	 0.110809
H	 3.1628421314	 2.8032658025	 2.3642564116	 0.1267
H	 1.4623624192	 2.2100248792	-1.0568662857	 0.104569
