18
gdb 92793	5.62463	0.79974	0.72328	4.1385	75.21	-0.2661	-0.0235	0.2426	1540.7877	0.147245	-439.133993	-439.125082	-439.124138	-439.168682	31.604	
C	 0.0736493595	 1.5645613253	 0.0776116865	-0.407542
C	 0.0657111155	 0.0384541683	 0.0345979342	 0.027248
C	 0.8542126037	-0.5768882744	-1.160004519	-0.171248
N	 1.4648684364	-1.8258489352	-0.6832673891	-0.291536
C	 1.3836729329	-1.8283138113	 0.5804127518	 0.434532
C	 0.7151431321	-0.6580483175	 1.2524096627	-0.346164
O	 1.8702936904	-2.8107827531	 1.3953483579	-0.233725
C	 2.7066392338	-3.7658068242	 0.8607353231	 0.166471
O	 3.0871283272	-4.6758600952	 1.5260849517	-0.252918
H	 1.0959705194	 1.9492699349	 0.1679869942	 0.118389
H	-0.3619077921	 1.986350832	-0.8342660573	 0.121533
H	-0.5035959232	 1.9450309799	 0.926406507	 0.121083
H	-0.9718274053	-0.3079893653	-0.0366162434	 0.088203
H	 0.2166404986	-0.7818671225	-2.0253501734	 0.115175
H	 1.6520095417	 0.0948136781	-1.5062531628	 0.110043
H	 1.4730856694	-0.0315831219	 1.74164641	 0.12758
H	 0.0100697753	-0.9701440912	 2.027266699	 0.132087
H	 2.9532328048	-3.5642932265	-0.189324053	 0.14079
