18
gdb 83037	2.14371	2.03296	1.33217	4.3081	77.55	-0.2396	-0.0382	0.2014	1006.7047	0.148892	-401.965244	-401.957348	-401.956404	-401.997729	30.266	
C	-0.3026731476	 1.388645594	 0.266876221	-0.414717
C	-0.0441588029	-0.065194798	-0.0409217769	-0.010649
C	 0.7159687055	-0.5208481763	-1.2594839131	-0.044013
C	 1.3569035681	 0.4166471686	-2.2773837874	-0.30658
C	 2.7915950145	 0.7290791375	-1.9287869271	-0.054481
C	 3.2868745031	 0.5668014595	-0.6988270571	-0.134602
C	 2.4096188902	 0.1635076021	 0.4294537	 0.354302
O	 2.6265844508	 0.4883424033	 1.5780930645	-0.350091
N	 1.3037527179	-0.6180628451	 0.0723594536	-0.11738
H	 0.4320889896	 2.0485418126	-0.2024810288	 0.127689
H	-1.2992127174	 1.6765882964	-0.083093754	 0.121344
H	-0.2532697165	 1.562275703	 1.3459423618	 0.152733
H	-0.8154237927	-0.741676265	 0.3245921256	 0.100337
H	 0.4365510091	-1.492085647	-1.6638268488	 0.10116
H	 1.3172011231	-0.05130379	-3.2668534007	 0.122665
H	 0.7979556999	 1.3572014791	-2.3806951194	 0.128128
H	 3.4144381609	 1.137823737	-2.7213089369	 0.109061
H	 4.3015318743	 0.8465796682	-0.4387405862	 0.115095
