17
gdb 9879	5.00765	1.00464	0.93437	4.299	68.89	-0.2795	0.0347	0.3142	1237.4553	0.140727	-363.865093	-363.856452	-363.855507	-363.899001	30.591	
C	 0.0486608536	 1.5975434675	-0.3363970676	-0.466094
C	-0.085488844	 0.1019771326	-0.144783433	 0.417297
C	-1.4365023736	-0.4188262155	 0.3172690094	-0.261753
C	-1.7047286768	-0.0694395163	 1.7980746092	-0.336261
C	-2.9714666022	-0.6168679828	 2.2749383155	 0.256369
N	-3.978662578	-1.0557449272	 2.6332758724	-0.304918
C	 0.8140487964	-0.8056218576	-0.873510233	-0.229102
O	 1.0267429533	-0.5274201961	 0.513337716	-0.275935
H	 1.0678304861	 1.8525609836	-0.6352614386	 0.135189
H	-0.6419617899	 1.9526662887	-1.1086159263	 0.128055
H	-0.1733760071	 2.1415208947	 0.5876652781	 0.128768
H	-2.2328112418	-0.0059146289	-0.3112088283	 0.123132
H	-1.4662366605	-1.5060368224	 0.206165069	 0.127387
H	-0.8895770389	-0.4665912273	 2.4122900964	 0.172254
H	-1.721339995	 1.015189497	 1.9489893339	 0.151927
H	 0.4919412	-1.8203216484	-1.1036234028	 0.11729
H	 1.5610536384	-0.3935877415	-1.5508508203	 0.116394
