10
gdb 123311	6.73563	0.95947	0.83983	5.1463	70.47	-0.3019	-0.0947	0.2072	1222.3913	0.053859	-430.43122	-430.424119	-430.423175	-430.463155	25.143	
C	 0.0703895755	-1.1656283893	-0.0051171634	-0.3136
C	-0.0130429116	 0.0327023404	 0.0029809579	 0.240875
C	-0.0960860243	 1.4384100856	 0.0122785201	 0.279236
N	-1.1588939335	 2.1933149239	 0.0307923272	-0.333732
C	-0.6065680114	 3.4479146606	 0.0307150212	 0.245241
N	 0.7086347892	 3.4811700582	 0.0132596641	-0.1241
O	 1.0560085347	 2.1482071731	 0.0008962782	-0.178803
C	-1.381837339	 4.6458305624	 0.0479784818	 0.262666
N	-2.0171559995	 5.6102591817	 0.0620252463	-0.303552
H	 0.1376290099	-2.2270226867	-0.0121992736	 0.225769
