23
gdb 118839	3.33585	0.77479	0.73648	1.3076	83.89	-0.2572	0.079	0.3363	1713.4838	0.202208	-425.407242	-425.396087	-425.395143	-425.444262	39.291	
C	-0.0850927208	 1.4224226229	 0.1203605228	-0.373936
C	-0.0064455698	-0.0697205393	 0.4681579706	-0.219241
C	-1.3590254076	-0.7341762544	 0.383983403	 0.036854
O	-1.8936626658	-0.9822082538	-0.9283907006	-0.310372
C	-1.6246298294	-2.1086897212	-0.0785077229	 0.363289
C	-0.5435871272	-3.062845445	-0.5290412933	-0.469052
C	-2.8929870514	-2.7827241634	 0.4108545574	-0.118816
O	-2.5786434793	-3.5637500665	 1.5443065081	-0.23744
C	-3.6797226787	-4.2937356939	 2.0303329055	-0.222274
H	 0.8990517697	 1.8951581311	 0.1885546984	 0.112593
H	-0.4604982109	 1.5592634339	-0.8981257215	 0.133973
H	-0.7596794309	 1.9538757798	 0.8005354408	 0.114711
H	 0.6996809328	-0.566034531	-0.2029678359	 0.104008
H	 0.3770500001	-0.19785931	 1.488791677	 0.103633
H	-2.0964277767	-0.3092042131	 1.0712060402	 0.078246
H	 0.35565002	-2.5413479832	-0.8583453929	 0.124146
H	-0.2869297675	-3.7423759195	 0.2881422896	 0.139613
H	-0.9089451025	-3.6672269984	-1.3670952818	 0.121274
H	-3.6491369469	-2.0184088544	 0.6493328493	 0.093448
H	-3.3082474523	-3.416871799	-0.3923124299	 0.086987
H	-3.3367023964	-4.8675317818	 2.8946632607	 0.127442
H	-4.5016745673	-3.6320398946	 2.3464176031	 0.105355
H	-4.0739431312	-4.9901333454	 1.2732901824	 0.10556
