14
gdb 8329	6.3103	1.32968	1.32021	2.6248	57.5	-0.2676	0.0003	0.2679	919.7354	0.106893	-419.677479	-419.670689	-419.669745	-419.709073	24.644	
O	 0.0001473091	 0.1312696468	-0.697720643	-0.306702
C	-0.0910648974	 1.1687438527	-0.1302094535	 0.443128
C	-1.1811633734	 2.1540413853	 0.2900986268	-0.495325
C	-0.0059728718	 2.9500616676	 0.8730033917	 0.367339
C	 0.3226372223	 4.4086528261	 0.5297307342	-0.127392
O	 0.2880310512	 4.7746155699	 1.9247630388	-0.269099
C	 0.1094076105	 3.4028164276	 2.3341599253	-0.127418
O	 0.9250120338	 1.9252665987	 0.4117867107	-0.263007
H	-1.7151296647	 2.6196870189	-0.5403455277	 0.150672
H	-1.8982931098	 1.7552722382	 1.0100305761	 0.150677
H	 1.316267378	 4.5381565742	 0.0839912871	 0.12526
H	-0.4226384009	 4.952733646	-0.0619665878	 0.113291
H	-0.7797798645	 3.2677707614	 2.9608159648	 0.113305
H	 0.9897066176	 2.9976089664	 2.8476052167	 0.125271
