21
gdb 110053	2.35692	1.37238	1.1237	1.9904	73.45	-0.248	0.0522	0.3001	1180.7321	0.182743	-461.358749	-461.349266	-461.348322	-461.393247	35.534	
C	 0.6554011633	 1.3261992569	-0.5140063571	-0.407285
C	-0.0201112827	 0.1165513697	 0.1366909643	 0.098086
O	-0.1573561698	-0.9579114216	-0.8001054426	-0.266353
C	 0.980649152	-1.8045634157	-0.7187428317	-0.09122
C	 1.700299363	-1.5071453432	 0.616368743	 0.047699
O	 2.9691764991	-0.8633345021	 0.4415201737	-0.439019
C	 0.7411360604	-0.5255866057	 1.3189708289	-0.016332
C	 1.435635644	 0.4198935407	 2.3074142847	-0.09055
O	 2.2774878271	-0.2810143217	 3.2095739874	-0.430923
H	 1.7014026248	 1.1171227163	-0.754337403	 0.130909
H	 0.1258488093	 1.578769237	-1.4368844186	 0.119761
H	 0.6236487247	 2.1991762869	 0.1459502708	 0.114421
H	-1.0399864648	 0.3898638109	 0.4288277556	 0.081381
H	 0.632607064	-2.8418139984	-0.7835484367	 0.10472
H	 1.6735352693	-1.6230674622	-1.5549619525	 0.087738
H	 1.8383047611	-2.4175833284	 1.2107059374	 0.083647
H	 3.550452006	-1.4663670234	-0.0322235595	 0.289657
H	 0.0239460433	-1.1394514546	 1.874986064	 0.088582
H	 2.001092804	 1.1874390511	 1.7664914679	 0.10331
H	 0.6841708851	 0.9335600854	 2.9166587926	 0.104906
H	 3.0273157867	-0.5738940478	 2.6778698714	 0.286866
