15
gdb 25282	3.1805	1.73303	1.13763	5.9817	75.41	-0.2419	-0.0491	0.1928	1001.5949	0.116279	-416.874399	-416.867684	-416.86674	-416.90595	25.465	
O	-0.0051668855	-0.0155892489	 0.0027581495	-0.312654
C	 0.024411686	 1.1894313157	 0.0088290483	 0.299981
C	-1.2188159131	 2.1154025242	 0.0320083234	-0.332629
C	-0.692912336	 3.5704865887	 0.0319987346	-0.20041
N	 0.756447651	 3.3890662321	 0.0098558516	 0.009942
C	 1.8596357868	 4.1793087157	-0.0021120656	-0.143556
C	 2.9294334612	 3.2916158972	-0.0224156599	-0.085469
N	 2.5023351779	 1.9984292055	-0.02316888	-0.331221
C	 1.1814929143	 2.0896090816	-0.0033087921	 0.263744
H	-1.8413160255	 1.8984457184	-0.8395744337	 0.148075
H	-1.8154358691	 1.8891170022	 0.9191814429	 0.148075
H	-1.0171589342	 4.1373798476	-0.8454196677	 0.138154
H	-0.991299444	 4.1280643787	 0.9244321363	 0.138151
H	 1.8122062185	 5.2559444464	 0.0043101006	 0.140175
H	 3.9809412017	 3.5391506149	-0.036442038	 0.119644
