23
gdb 104306	2.75354	1.31351	1.24348	1.412	84.7	-0.2437	0.0828	0.3264	1185.6311	0.205876	-388.297054	-388.287959	-388.287015	-388.330307	35.932	
C	 0.0510978685	 1.5191223593	-0.1969513265	-0.390186
C	-0.0306486486	 0.0064397156	 0.0341158923	-0.200529
C	-1.4563446961	-0.5597992518	 0.1129083844	 0.375011
C	-2.2426364529	 0.0071329241	 1.3055550104	-0.432285
O	-2.117073659	-0.2177560915	-1.1243351302	-0.299781
C	-3.1068638135	-1.1972511857	-1.4214648267	-0.104127
C	-2.5868264516	-2.4961930926	-0.8334379184	-0.053965
C	-1.1442020773	-2.8101381454	-1.1340083904	-0.308945
C	-1.5065746893	-2.088205578	 0.1390290838	-0.062108
H	 1.0922786405	 1.8312993843	-0.3248689077	 0.106335
H	-0.5027416105	 1.7994931384	-1.0965662172	 0.135123
H	-0.3590854277	 2.0876595087	 0.6435405712	 0.111617
H	 0.4902692384	-0.5101237989	-0.7787951252	 0.097247
H	 0.4937322315	-0.2615885814	 0.9599954835	 0.088905
H	-2.3633361617	 1.088781077	 1.2102788917	 0.123877
H	-3.2382069746	-0.4427472801	 1.3628069879	 0.113607
H	-1.7262531507	-0.2019269779	 2.248595422	 0.109993
H	-4.0799367462	-0.937343722	-0.9748520974	 0.089746
H	-3.2284713837	-1.2134424282	-2.5104467875	 0.104137
H	-3.2861559132	-3.2953240841	-0.6176492519	 0.085573
H	-0.8273091866	-3.8432953462	-1.0454804164	 0.10825
H	-0.6558862178	-2.2522033402	-1.9268114906	 0.12059
H	-1.3806290078	-2.5893846236	 1.0918609589	 0.081914
