18
gdb 33222	5.30589	0.79618	0.72574	1.3045	75.33	-0.1864	0.0562	0.2427	1541.1649	0.148317	-439.103235	-439.094388	-439.093444	-439.137842	32.488	
O	 0.5964108413	 0.0643657065	-1.0206258603	-0.418158
C	-0.0968915782	 0.2348454565	 0.1989916355	-0.06614
C	-1.5875305412	 0.4253170905	-0.0175554054	-0.082795
O	-2.0650616281	-0.7709760617	-0.6313137181	-0.288222
C	-3.372696917	-0.7646601885	-0.9826078308	 0.415924
C	-4.3857516926	 0.1581324551	-0.8652627211	-0.286133
C	-5.550368297	-0.4525679042	-1.4308078457	-0.142439
C	-5.2068448556	-1.7052873206	-1.8636541483	-0.09449
N	-3.8643849066	-1.8883418332	-1.5847989322	-0.326538
H	 0.1417404729	-0.641355189	-1.4939466674	 0.289476
H	 0.0614138429	-0.6176981015	 0.8784363521	 0.096793
H	 0.3141142925	 1.12792664	 0.6805665976	 0.114692
H	-2.1108019602	 0.5951984079	 0.9336423597	 0.107795
H	-1.7737529708	 1.2784603854	-0.6830260826	 0.117734
H	-4.3128077377	 1.1417948637	-0.4323698062	 0.094195
H	-6.5293274168	-0.0048715769	-1.5054037809	 0.092632
H	-5.7812063794	-2.4811157853	-2.3415765822	 0.115356
H	-3.3196264184	-2.7115985845	-1.7713509537	 0.26032
