21
gdb 59672	2.43743	1.37604	0.97957	2.0158	78.59	-0.2524	0.0645	0.317	1258.1971	0.180906	-424.196013	-424.186544	-424.1856	-424.23026	35.665	
C	-0.0235242681	 1.5931515787	 0.023110248	-0.396084
C	 0.0438605567	 0.065275862	 0.0380521145	 0.111703
O	 0.8219966503	-0.4085053379	 1.1382467974	-0.428234
C	-1.3373565225	-0.5804118294	 0.0262576047	-0.079742
C	-2.1963424957	-0.5233876083	-1.2769286335	-0.250442
C	-2.5788138431	-2.0212251941	-1.0778714619	-0.321931
C	-1.4524630585	-2.1097740409	-0.0453478623	 0.445927
C	-0.402792798	-3.1221414593	 0.0975186951	-0.267056
O	-1.4476538391	-2.9678859564	 1.0758360353	-0.27878
H	 0.9845124055	 2.015793438	 0.0418364361	 0.124245
H	-0.5390304228	 1.9588257558	-0.8711831976	 0.118289
H	-0.5670385012	 1.9650668658	 0.9001548086	 0.10737
H	 0.5951312398	-0.2757675333	-0.8478156604	 0.082505
H	 0.3005469318	-0.2952350541	 1.9407921976	 0.28214
H	-1.9181008654	-0.2147586468	 0.8851767644	 0.072012
H	-3.015907099	 0.196386953	-1.2952828902	 0.105934
H	-1.5750674764	-0.3697241247	-2.1638655308	 0.106217
H	-3.5592414645	-2.142964194	-0.6082231413	 0.116033
H	-2.5210366057	-2.6785131432	-1.948505757	 0.106506
H	-0.4574321734	-4.03510266	-0.4949040036	 0.106925
H	 0.5862904794	-2.8230519708	 0.434099257	 0.136461
