18
gdb 47815	2.17614	1.97898	1.20556	1.9704	72.25	-0.2346	-0.0374	0.1972	1034.4063	0.148617	-439.056516	-439.048728	-439.047784	-439.089094	29.758	
O	-0.0421751987	-0.1032133245	-0.1831850605	-0.288127
C	-0.0310513189	 1.0953532197	-0.0424846825	 0.340287
C	-1.3240842678	 1.9213836678	 0.0567268007	-0.156597
O	-1.6276780698	 2.2212312743	 1.4080830542	-0.242413
C	-0.7673518133	 3.1439211016	 2.0591969983	-0.071159
C	 0.6090891918	 2.5614179614	 2.3910386592	-0.171309
N	 1.5432262363	 2.6878003029	 1.2683279666	-0.091891
C	 2.3599212531	 1.5115878707	 0.9453550869	-0.254056
C	 1.2432287618	 1.9089608199	 0.0598197625	-0.099408
H	-1.2313567457	 2.8450499714	-0.5385455502	 0.096698
H	-2.1534734998	 1.3195922226	-0.3208501841	 0.129208
H	-0.6489053393	 4.0605502765	 1.4604259395	 0.103013
H	-1.2865040947	 3.4018128675	 2.9866124385	 0.116796
H	 1.0444875035	 3.1058461217	 3.236707367	 0.111812
H	 0.4591943619	 1.5173837693	 2.712911417	 0.108867
H	 3.3885120348	 1.712831224	 0.6602729391	 0.123104
H	 2.2146516184	 0.611886873	 1.5404781977	 0.129756
H	 1.4564535461	 2.4491705102	-0.8643204599	 0.11542
