21
gdb 30719	2.84447	1.19013	0.90663	1.6655	87.81	-0.1685	0.0558	0.2242	1354.2148	0.182564	-383.315	-383.304645	-383.3037	-383.350684	37.733	
C	 0.0586631395	 1.5760492213	 0.3050473748	-0.361297
C	-0.0074695453	 0.0743346021	-0.0325442506	-0.300122
C	-1.4001552358	-0.4702240377	-0.1053160663	 0.227251
C	-2.2200441943	-0.7377654931	-1.1880174398	 0.161133
C	-1.9101230688	-0.5650675631	-2.6436658077	-0.521711
C	-3.4666466691	-1.2108986543	-0.6673482869	 0.168638
N	-4.5936370241	-1.5181824344	-1.4603899598	-0.605743
C	-3.373843595	-1.2169531321	 0.7051193523	-0.17892
N	-2.1136133213	-0.7540673026	 1.0317944388	-0.309779
H	 1.0960142114	 1.9235294788	 0.3546499602	 0.107427
H	-0.4662747778	 2.1665290223	-0.4516979276	 0.124581
H	-0.4136659142	 1.7850775629	 1.2704837865	 0.110311
H	 0.4907468467	-0.1029062156	-0.9910055983	 0.110738
H	 0.5720426584	-0.4880421373	 0.7127880135	 0.095629
H	-1.9380991275	-1.5178004708	-3.1912719287	 0.109893
H	-2.6322763432	 0.1002703626	-3.1329669685	 0.128494
H	-0.9147055083	-0.1392082314	-2.7979927124	 0.116467
H	-4.3394355258	-2.0394739959	-2.2916367038	 0.235689
H	-5.2835557412	-2.0552922222	-0.9495422352	 0.233089
H	-4.0840350055	-1.5022057871	 1.4641901116	 0.098121
H	-1.7558068387	-0.6745577323	 1.9665346181	 0.250109
