16
gdb 63349	2.60553	1.48512	1.18129	1.6471	66.06	-0.2801	-0.0217	0.2583	1060.1283	0.123258	-475.082786	-475.074405	-475.073461	-475.115899	31.538	
C	 0.0899133985	 1.5716118165	-0.0183699177	-0.429146
C	-0.0592944518	 0.0423435841	-0.0141609553	 0.307913
O	-1.4192941846	-0.333526263	-0.0013342337	-0.473689
C	 0.6845822192	-0.624003764	-1.1796305196	-0.40072
C	 2.0034175446	-1.0762590751	-0.5821881175	 0.420157
O	 3.0057375245	-1.433295676	-1.1109012811	-0.297921
O	 1.8963265197	-1.043094705	 0.8103882388	-0.215513
C	 0.6713170493	-0.5473961038	 1.1891671354	 0.374656
N	 0.1923287757	-0.5715784078	 2.3499672192	-0.539653
H	 1.1406462928	 1.8774684426	-0.0652187392	 0.124521
H	-0.4345462524	 1.9797847997	-0.8865374735	 0.134983
H	-0.3501255228	 1.988747668	 0.8909597257	 0.139095
H	-1.6964573894	-0.3219970421	 0.9250949882	 0.297474
H	 0.1317457791	-1.5094713944	-1.5091892904	 0.166349
H	 0.8582075138	 0.0142125585	-2.0467481296	 0.14819
H	 0.8133564937	-1.0199826783	 3.0232624503	 0.243304
