18
gdb 16947	3.71212	1.99426	1.82589	1.7354	71.6	-0.232	0.0213	0.2533	826.2728	0.156146	-347.813501	-347.806803	-347.805858	-347.84405	26.858	
C	-0.0154366467	 1.4873202062	 0.051601231	-0.509382
C	-0.0658690844	-0.0003943803	-0.0260432706	 0.354785
C	-0.0791573347	-0.8229714787	-1.0783382779	-0.200155
C	 0.0111392879	-2.2307639642	-0.504831959	 0.025792
C	 1.4795094168	-2.4329741513	-0.0027359472	-0.209579
C	 1.4938811085	-1.4753375599	 1.2247032705	-0.217758
C	 0.0264209463	-0.9332990861	 1.1840255694	-0.027179
O	-0.6888440048	-2.0906056526	 0.7402042341	-0.247918
H	 0.897031153	 1.8284481593	 0.5583730305	 0.127826
H	-0.0379119469	 1.9438913708	-0.9416524204	 0.127361
H	-0.8585191094	 1.8856234078	 0.6302178668	 0.130281
H	-0.042195682	-0.5675527435	-2.1294085661	 0.094498
H	-0.4076904496	-3.0467994871	-1.0926756904	 0.07587
H	 1.63486914	-3.4707838487	 0.3016596154	 0.103471
H	 2.2215857365	-2.1813351832	-0.7634478444	 0.097726
H	 1.6672845374	-2.022270866	 2.154221885	 0.103973
H	 2.2389007296	-0.6793359885	 1.1512940308	 0.097513
H	-0.3739918875	-0.5685376339	 2.1303190624	 0.072875
