23
gdb 78588	2.43466	1.55394	1.17498	0.4771	90.05	-0.233	0.09	0.323	1189.8765	0.205512	-351.115072	-351.105823	-351.104879	-351.148608	35.866	
C	-0.1392690797	 1.5850033875	-0.3548407657	-0.435344
C	 0.1222104348	 0.081979331	-0.2909490491	 0.054273
C	 0.8609247289	-0.6846761874	-1.387595303	-0.144297
C	 2.3527086909	-0.8154138911	-0.9943723491	-0.1443
C	 2.5736116113	-0.1328662742	 0.3552259151	 0.054264
C	 3.0734582863	 1.3034549259	 0.4919382508	-0.435344
C	 1.1226569141	-0.6002690855	 0.6955430844	-0.167576
C	 1.3136457452	-1.7375165681	-0.4070477033	 0.370795
C	 1.1730923101	-3.2230069427	-0.36786112	-0.531649
H	 0.7170534962	 2.1549191765	-0.7172941396	 0.120038
H	-0.9748743842	 1.7892777941	-1.0341224268	 0.10889
H	-0.4157992191	 1.9798740974	 0.6295582561	 0.110237
H	-0.8419454526	-0.4205363936	-0.1379435009	 0.069263
H	 0.5538524947	-0.8405749645	-2.4157280746	 0.073702
H	 3.0936064835	-1.0631282476	-1.7462786853	 0.073703
H	 3.2429635054	-0.7785265606	 0.9388493869	 0.069265
H	 2.6104116492	 1.9888308704	-0.2189214615	 0.12005
H	 2.8922333413	 1.690239102	 1.5013861576	 0.110241
H	 4.1551465816	 1.339625442	 0.3186557805	 0.108886
H	 0.8348102481	-0.7579484043	 1.7351568635	 0.056747
H	 0.1561367735	-3.5281785396	-0.0934445638	 0.118753
H	 1.3938704991	-3.6572425546	-1.3493910595	 0.120651
H	 1.8602015715	-3.677561803	 0.3559433171	 0.118753
