21
gdb 32643	4.64062	0.84792	0.77968	3.7156	86.74	-0.2115	0.0366	0.2481	1571.6454	0.183503	-383.323219	-383.313688	-383.312744	-383.358592	34.499	
C	 0.0291739979	 1.5273245723	-0.1782170939	-0.370831
C	 0.0087582607	 0.0153199714	 0.0580718467	-0.158248
N	-1.3301581581	-0.5510151419	 0.0253935119	 0.027185
C	-2.0787993411	-0.9413968391	 1.0954948185	-0.00682
N	-3.2698026912	-1.3688588801	 0.7453245404	-0.325945
C	-3.3137615577	-1.2522140966	-0.6293085138	 0.284424
C	-4.5239248855	-1.6642720935	-1.4096175586	-0.285131
C	-4.8254764552	-3.1668353221	-1.2937145923	-0.364562
C	-2.1228281867	-0.7471533621	-1.0884280727	-0.224605
H	 1.0567169857	 1.9015027581	-0.1372778358	 0.122478
H	-0.3861731769	 1.7775441631	-1.1584463209	 0.131456
H	-0.5597985084	 2.0466721589	 0.5830353273	 0.133936
H	 0.6227862225	-0.4961315007	-0.6913787871	 0.123547
H	 0.4366627398	-0.2219433232	 1.0366472773	 0.123611
H	-1.6924533043	-0.891024167	 2.1038330368	 0.120284
H	-5.3916317524	-1.0982570593	-1.0479682235	 0.109701
H	-4.3859449968	-1.3881012161	-2.4612913369	 0.091492
H	-4.0067465472	-3.763866539	-1.7085717436	 0.109295
H	-4.9462508601	-3.4477372456	-0.2441329943	 0.137256
H	-5.7435941468	-3.4267662677	-1.830321039	 0.102425
H	-1.7688544782	-0.5183513798	-2.0807606266	 0.119052
