21
gdb 58338	1.84034	1.40723	0.93485	1.8249	80.19	-0.2505	-0.0534	0.1972	1343.3666	0.177956	-424.265362	-424.254418	-424.253474	-424.301854	38.548	
C	-0.0002246271	 1.5492376293	-0.0393621197	-0.40902
C	 0.0694432909	 0.0166063425	-0.1106541947	 0.028801
C	 0.7248131957	-0.4325630606	-1.4240315065	-0.407981
C	 0.8092549391	-0.5591042664	 1.1120171723	-0.160312
C	 0.1615173861	-0.1297088423	 2.4274654915	 0.145283
O	 0.7614905135	 0.0623480357	 3.4529786176	-0.250098
C	 0.7836756753	-2.1040716379	 1.1646177984	 0.367635
C	 1.9390255286	-2.748825449	 1.8964759097	-0.48432
O	-0.1297098411	-2.7305733964	 0.6819904595	-0.29902
H	 1.00380123	 1.9892540529	-0.0575904605	 0.119494
H	-0.5531453358	 1.9492693918	-0.8948998488	 0.120441
H	-0.498524438	 1.90327817	 0.8694696433	 0.118219
H	-0.9489633657	-0.3896773881	-0.0851109163	 0.100362
H	 1.7615634636	-0.0800048057	-1.4858813376	 0.11003
H	 0.7226429042	-1.5203791759	-1.5234965613	 0.133877
H	 0.1858560643	-0.0175608687	-2.2815212101	 0.116821
H	 1.8517690563	-0.2235783921	 1.1501905866	 0.098887
H	-0.9473087459	-0.0501488506	 2.3809524106	 0.098868
H	 2.1147620121	-2.2370088169	 2.8485238004	 0.162612
H	 1.7408397543	-3.8090821469	 2.0574706462	 0.143633
H	 2.8533020396	-2.6353583748	 1.3015931195	 0.145788
