19
gdb 45084	2.68274	1.69261	1.2338	3.253	78.26	-0.2275	-0.007	0.2205	1039.7274	0.161755	-385.896169	-385.888914	-385.88797	-385.927714	29.768	
O	 0.0332039295	-0.037326162	 0.0820442993	-0.334525
C	 0.0116976027	 1.1720478806	-0.0024201807	 0.411267
C	-1.3068102435	 1.9512875704	-0.026175799	-0.35928
C	-1.365424245	 3.0211810702	-1.1182360867	-0.023344
C	-1.1860097034	 4.4878028622	-0.8120786928	-0.305967
C	-0.0803856963	 3.7228374429	-1.4980846621	-0.025055
C	 1.2000871672	 3.3264815572	-0.8082519348	-0.034134
C	 1.363673747	 3.2831145478	 0.6752451987	-0.313055
C	 1.2640681089	 1.9714129039	-0.0963582966	-0.122685
H	-2.1043997465	 1.2166525171	-0.1505771866	 0.127726
H	-1.4492681311	 2.40091227	 0.9652407887	 0.121823
H	-2.0361471606	 2.7822119615	-1.9367947322	 0.095788
H	-1.7484039717	 5.2093930278	-1.3944741053	 0.113943
H	-1.0390832549	 4.7760786968	 0.223889735	 0.111961
H	 0.0552449188	 3.9273951157	-2.5551380946	 0.08891
H	 2.096756199	 3.5870654138	-1.3612422106	 0.097906
H	 2.3354209815	 3.5292347676	 1.0876856867	 0.125427
H	 0.5347869002	 3.5603776061	 1.3160497557	 0.12133
H	 2.1598363682	 1.3689639103	-0.1888823019	 0.101963
