16
gdb 84323	2.83446	1.49299	1.0388	3.319	75.35	-0.2711	-0.0516	0.2195	1120.1502	0.124806	-437.945797	-437.937775	-437.936831	-437.979294	29.725	
C	-0.309911387	 1.4734852602	 0.0372493138	-0.390492
C	 0.0884366084	-0.0183596372	-0.0277881951	-0.222457
C	 0.8816481145	-0.3408830424	-1.2554823531	-0.06422
C	 2.0798779008	-0.9200343328	-1.207825871	-0.121884
C	 2.7002606147	-1.2989913811	 0.0552735153	 0.390568
N	 3.8337342264	-1.8580059053	 0.1155562703	-0.498768
O	 1.9995154213	-1.0261214517	 1.2249003591	-0.248151
C	 0.768796716	-0.420841112	 1.2759255824	 0.429029
O	 0.2783557483	-0.2331310599	 2.3509770023	-0.311547
H	 0.5775012241	 2.1128422961	 0.0510948207	 0.133758
H	-0.9105449103	 1.7407631456	-0.8365706138	 0.123879
H	-0.8918345989	 1.6613920445	 0.9408768547	 0.154632
H	-0.8463106693	-0.5978121574	-0.0470580559	 0.137645
H	 0.4368842114	-0.0697862041	-2.2090419237	 0.119706
H	 2.6619238239	-1.1488857143	-2.091417719	 0.131915
H	 4.0907725657	-2.0428169782	 1.086890293	 0.236387
