18
gdb 35873	2.12281	1.7801	1.18087	4.1628	75.07	-0.2812	0.016	0.2972	1080.4597	0.148788	-401.94916	-401.941057	-401.940112	-401.982766	30.512	
N	-0.1006369807	-1.1524937183	 0.0610492548	-0.337268
C	-0.056942391	 0.0022220324	 0.0382696237	 0.286027
C	 0.0009634481	 1.4827194068	-0.0017297066	-0.116451
O	-0.6237350128	 2.0379114357	 1.1400848581	-0.238101
C	 0.3920080634	 2.2050187798	 2.1337266366	-0.094512
C	 1.6129747034	 2.7092817905	 1.3567475997	-0.303394
C	 1.4543439332	 2.0141117261	 0.0013929937	 0.333057
C	 2.5734555532	 1.2580668546	-0.6628161149	-0.314865
C	 2.0819321677	 2.5552035412	-1.2548901393	-0.311766
H	-0.5633486824	 1.814717881	-0.8791077722	 0.131641
H	 0.0072319802	 2.9081090296	 2.8746052056	 0.121842
H	 0.6008815287	 1.2459859605	 2.6296604471	 0.114832
H	 1.5629669329	 3.7966663699	 1.2410662448	 0.116227
H	 2.5554880899	 2.4606082366	 1.8510670407	 0.11411
H	 3.5378235397	 1.2502799257	-0.1659447052	 0.120894
H	 2.3306014252	 0.333594254	-1.1761667397	 0.138481
H	 1.5098823582	 2.5107750232	-2.176419197	 0.12021
H	 2.7088622131	 3.4364266706	-1.16301717	 0.119035
