18
gdb 91309	2.14893	1.89941	1.25776	4.406	74.76	-0.2638	0.0171	0.2809	1027.3107	0.149143	-401.934021	-401.926176	-401.925232	-401.966406	30.587	
O	 0.4852126736	 0.6166961806	-1.108527338	-0.433859
C	 0.0544586935	-0.2641845862	-0.1169828393	 0.164942
C	 0.0934749351	 0.1123290789	 1.3960526571	-0.302367
C	-1.2586611999	-0.638087675	 1.5954922914	-0.009294
C	-2.4845048476	 0.2874885632	 1.7204787951	-0.242079
C	-2.5363920206	 0.4185291917	 0.1548219489	-0.178812
C	-2.2239534269	 1.7346186044	-0.3796655943	 0.287924
N	-1.9492006654	 2.787700604	-0.7749966793	-0.346911
C	-1.4304173542	-0.6950747623	 0.0325697265	-0.085684
H	 0.0287347987	 1.4607664353	-1.0097077976	 0.299868
H	 0.6347581103	-1.18081541	-0.2685653642	 0.097366
H	 0.9529001431	-0.260963736	 1.9561307318	 0.110823
H	 0.0099500659	 1.1891900881	 1.5755703618	 0.110641
H	-1.2272298146	-1.5341107483	 2.2136508958	 0.077474
H	-3.3763334993	-0.2204773838	 2.0938698908	 0.117154
H	-2.3466902963	 1.2163170964	 2.2785544882	 0.121858
H	-3.4917597327	 0.1006329509	-0.2682864875	 0.132157
H	-1.7623176227	-1.5733364321	-0.5214006173	 0.0788
