21
gdb 65134	2.99324	1.34576	1.23949	1.5343	81.25	-0.231	0.0797	0.3107	1125.7089	0.182523	-387.027086	-387.018734	-387.017789	-387.059857	33.12	
C	 0.0169261148	 1.4833924222	 0.2009770642	-0.462175
C	 0.074555523	-0.0280430918	 0.0549507795	 0.354793
C	 0.9904254388	-0.5894533698	-1.0112095478	-0.31402
C	 1.3581472813	-0.7312287292	 0.4422468426	-0.29177
C	-1.2461946468	-0.7377112331	 0.2553232087	-0.114462
C	-1.575817331	-1.7583423851	 1.3378670243	-0.164834
C	-1.0281720032	-1.2982330648	 2.687762548	-0.088392
O	-1.6310393583	 0.0144467781	 2.5372656864	-0.281448
C	-2.2491666698	-0.4016427088	 1.3163768893	 0.070425
H	 0.9983329856	 1.9329702672	 0.0176529519	 0.103467
H	-0.6874226252	 1.9207693038	-0.5165829983	 0.108093
H	-0.3091450763	 1.7587523287	 1.2075971348	 0.1402
H	 0.6725680422	-1.482545089	-1.5400157591	 0.104931
H	 1.5496898767	 0.1127572185	-1.6208770447	 0.106238
H	 2.1715453136	-0.127638644	 0.8317041007	 0.108441
H	 1.2873801624	-1.721073232	 0.879388648	 0.10901
H	-1.7550058955	-0.9989066511	-0.6731490305	 0.092182
H	-1.9664668377	-2.7439297962	 1.1232084393	 0.096629
H	-1.4830671449	-1.8279872476	 3.5323105882	 0.108407
H	 0.0562783822	-1.2434445909	 2.8222073372	 0.112958
H	-3.2712657318	-0.0842652953	 1.1412930873	 0.101331
