10
gdb 770	9.39312	3.67878	2.65177	3.1792	44.1	-0.2328	0.0029	0.2357	457.8147	0.07509	-301.341304	-301.336451	-301.335506	-301.36923	17.997	
N	 0.0108497489	 1.3943703779	 0.1621156316	-0.584593
C	 0.033242489	 0.0155031727	 0.0404512413	 0.416802
N	-1.0827180164	-0.6816677423	-0.0014689543	-0.222687
O	-0.6793839242	-2.0238022337	-0.034112475	-0.167974
C	 0.6564566941	-2.0719119304	-0.0267408607	 0.097688
C	 1.188428603	-0.8271750594	 0.0197781978	-0.318643
H	 0.7469407741	 1.867197567	-0.3421094577	 0.254711
H	-0.8967906265	 1.7905379653	-0.0435305239	 0.261321
H	 1.092313582	-3.0591849108	-0.0537950946	 0.147729
H	 2.226582916	-0.5417152761	 0.0506697054	 0.115647
