19
gdb 72916	2.70628	1.76344	1.38502	2.5851	73.16	-0.2464	0.0635	0.3098	982.6443	0.16057	-423.000116	-422.99262	-422.991676	-423.031931	30.378	
O	 0.2623928908	 1.3040166732	-0.3492832518	-0.473801
C	 0.0768737943	-0.0447992714	 0.0040103484	 0.356127
C	 0.1812374559	-0.9446225765	-1.2395967123	-0.110893
O	-1.1454526521	-1.4712739768	-1.0356768406	-0.290702
C	-1.3797392628	-0.6066215203	 0.1086568813	 0.04443
C	-1.5267699283	-1.3136175106	 1.4396638137	-0.053643
C	-0.7049018188	-2.56528519	 1.6205304981	-0.283419
C	-0.1746433479	-1.2622160438	 2.1462129882	-0.036238
C	 0.8141047028	-0.4655132575	 1.300556568	-0.322301
H	 0.1025469932	 1.8482111865	 0.4293026538	 0.277364
H	 0.2602712966	-0.3679106879	-2.1679520469	 0.110992
H	 0.947346568	-1.7294345882	-1.2230396628	 0.096089
H	-2.1856314499	 0.1065736002	-0.0935095828	 0.074805
H	-2.4548905907	-1.2088809866	 1.9891183172	 0.082474
H	-1.0575357641	-3.2876198539	 2.3482929961	 0.110382
H	-0.2682927119	-3.0048550354	 0.7306122333	 0.12859
H	-0.1280059246	-1.1370168568	 3.2224833602	 0.085028
H	 1.7325557644	-1.0214066169	 1.0818040534	 0.111141
H	 1.1208960052	 0.4394419926	 1.8386208456	 0.093576
