14
gdb 128916	7.42164	0.72557	0.66634	2.2547	67.48	-0.3193	-0.0575	0.2618	1533.0849	0.10133	-432.843925	-432.836052	-432.835108	-432.877826	27.256	
N	-0.0266527079	-1.179843963	-0.0393793409	-0.296019
C	-0.0117013752	-0.0310605728	-0.1606576674	 0.260257
C	 0.0302278842	 1.4220380092	-0.3012920185	-0.341379
C	 1.2983079369	 2.0161717591	 0.3431588378	-0.323467
C	 1.3652699971	 3.5057347356	 0.2128723209	 0.333545
N	 0.4418353103	 4.2112371441	-0.3841565881	-0.129858
O	 0.8461016504	 5.5141694552	-0.3043453659	-0.157593
N	 2.0377628857	 5.6233436283	 0.3512500957	-0.051817
C	 2.3711456793	 4.4066626338	 0.6751423581	-0.106676
H	-0.0115755871	 1.6824252489	-1.3634840774	 0.175259
H	-0.8647589654	 1.8541474705	 0.1570473581	 0.175281
H	 1.3359640724	 1.7423761492	 1.4035437919	 0.153587
H	 2.1883265342	 1.5711907694	-0.1157963434	 0.153571
H	 3.2858045852	 4.2039396823	 1.2106098392	 0.15531
