19
gdb 114790	3.4393	1.34473	1.274	2.885	73.57	-0.2407	0.0807	0.3214	1057.8993	0.161513	-422.990993	-422.983712	-422.982767	-423.022765	29.487	
O	 0.0225138987	 1.4943400296	 0.1533097131	-0.424024
C	 0.0962130914	 0.0832946794	 0.2038085721	-0.065826
C	-1.2866838947	-0.542119184	 0.026835097	 0.076005
O	-1.8884082525	-0.0422082294	-1.1880735564	-0.295669
C	-2.0680539355	-1.1423938638	-2.0733064793	 0.089287
C	-0.7042873016	-1.7501128683	-2.529991852	-0.252718
C	-0.8283847843	-2.7387150358	-1.3671557131	-0.080544
C	-2.3058894943	-2.4025821062	-1.2014755234	-0.09632
C	-1.3467321068	-2.0559735027	-0.1058689613	-0.076592
H	-0.4970917178	 1.6971645099	-0.6343784284	 0.288361
H	 0.790212501	-0.3142851648	-0.5520395469	 0.087834
H	 0.494584185	-0.1832041594	 1.1896896754	 0.102052
H	-1.9187161905	-0.2078757419	 0.8613022651	 0.084434
H	-2.787096217	-0.8560289301	-2.8393145404	 0.085165
H	-0.8042784747	-2.2671770921	-3.4891993885	 0.103178
H	 0.1484021103	-1.0662585561	-2.574144731	 0.098756
H	-0.354737905	-3.7114819837	-1.3048830992	 0.088699
H	-3.1865378114	-3.0240155487	-1.1180301904	 0.09285
H	-1.3441431603	-2.6559077717	 0.7967375975	 0.095073
