23
gdb 84539	2.7474	1.29764	1.16644	0.1522	91.55	-0.2211	0.0224	0.2435	1228.3184	0.205544	-351.166167	-351.156979	-351.156035	-351.1992	36.511	
C	-0.0051007116	 1.584693107	 0.029149718	-0.399324
C	 0.0188954847	 0.0485713867	-0.0087668967	-0.038746
C	 0.7808442912	-0.4968453061	-1.2029785266	-0.090391
C	 1.8381705844	-1.2290114317	-0.8407979146	-0.090497
C	 1.9479591947	-1.355601119	 0.6369514429	-0.123823
C	 0.7669422604	-0.5566137477	 1.1881929449	-0.08808
C	 0.8158308313	-2.0531248345	 1.3966035065	 0.320279
C	-0.1591871012	-2.9875662508	 0.7097336496	-0.460716
C	 1.1731234256	-2.4945450655	 2.806351747	-0.449709
H	 1.0122048546	 1.9868210885	 0.0755777746	 0.118929
H	-0.4885522105	 1.9941794666	-0.8640001421	 0.109264
H	-0.555284261	 1.9458903765	 0.9050052502	 0.110305
H	-1.0230470839	-0.3038483742	-0.0344222443	 0.079185
H	 0.4660950587	-0.3056035745	-2.2237479957	 0.088233
H	 2.5314179271	-1.7076843152	-1.5240302952	 0.090447
H	 2.9281434439	-1.3452934082	 1.1041554909	 0.076003
H	 0.8862316206	 0.0702546317	 2.0669187335	 0.07214
H	-0.3298875383	-2.7217247945	-0.3348447361	 0.123212
H	 0.2144077826	-4.0180870337	 0.7351545601	 0.108274
H	-1.1271973374	-2.9783730783	 1.2253914621	 0.109423
H	 0.2803394388	-2.5405180963	 3.4416190243	 0.11256
H	 1.6280666384	-3.4921533162	 2.8022468482	 0.112589
H	 1.8815094369	-1.8057134807	 3.2774382785	 0.110443
