18
gdb 50384	3.70302	1.18972	1.05044	3.6048	73.44	-0.2464	0.02	0.2664	1155.7961	0.149479	-439.101126	-439.093393	-439.092449	-439.134171	28.79	
O	 0.0620585128	-0.0747913428	 0.6203710455	-0.32775
C	 0.0514941459	 1.1327122754	 0.4996694029	 0.126591
N	 1.0319267029	 1.8535946604	-0.0922210151	-0.045992
C	 2.3741535594	 1.4292075753	-0.4998056368	-0.202599
C	 2.7642080578	 2.9358424984	-0.6154121701	 0.090927
O	 2.8984002797	 3.4546745713	-1.9153200894	-0.255007
C	 1.5913412029	 3.6479749098	-2.459784452	-0.092814
C	 0.7167611097	 4.0835574144	-1.2722476218	-0.234107
C	 1.3248890741	 3.2938935334	-0.1095579203	-0.032224
H	-0.7776551343	 1.7776590691	 0.8590414622	 0.066428
H	 2.9011674047	 0.8651002016	 0.2763778576	 0.125892
H	 2.4105075178	 0.8702699192	-1.4395644689	 0.128823
H	 3.6252478916	 3.2495155164	-0.0257421651	 0.098961
H	 1.6709404457	 4.3967400516	-3.2507941747	 0.119111
H	 1.212018638	 2.7154901362	-2.9018649584	 0.108955
H	 0.834454213	 5.155138081	-1.081957632	 0.115408
H	-0.34419712	 3.870799714	-1.4216621411	 0.116673
H	 1.2250394584	 3.7832902953	 0.8625817175	 0.092723
