18
gdb 20723	3.24208	1.93154	1.2383	2.3369	75.18	-0.2193	0.0341	0.2534	997.879	0.153532	-344.030575	-344.021517	-344.020573	-344.06521	31.574	
C	 0.0220194796	 1.4768781282	-0.0690309771	-0.493393
C	 0.0285219179	-0.0152233996	 0.0343408246	 0.285722
N	 0.036793527	-0.7719613747	-1.058902901	-0.292869
N	 0.0400900548	-2.0373602586	-0.5897464496	-0.263202
C	 0.0321282323	-2.1136716699	 0.7682880468	 0.294785
C	 0.0427286643	-3.4218299383	 1.4896941995	-0.505994
C	 0.0249244974	-0.8047492486	 1.2182408137	 0.065942
C	 0.0176973198	-0.306350981	 2.6302804958	-0.514998
H	 0.9050380604	 1.9188260854	 0.4077070058	 0.122573
H	 0.0124626951	 1.7767929861	-1.1190232186	 0.1379
H	-0.856882912	 1.9114041469	 0.4219312525	 0.122412
H	 0.0408069793	-2.7996516126	-1.2455454196	 0.263132
H	 0.9992451958	-3.9461650874	 1.3757994759	 0.135946
H	-0.1225851646	-3.2696040395	 2.5583660688	 0.140306
H	-0.7449640463	-4.0917340596	 1.1261030457	 0.131585
H	 0.9320653403	 0.2491096845	 2.873079666	 0.126309
H	-0.8233581937	 0.3723407545	 2.816003109	 0.126045
H	-0.0622270472	-1.127021816	 3.3490686416	 0.117802
