14
gdb 124028	4.63446	1.18369	1.00567	2.1526	70.17	-0.2429	-0.077	0.1659	1118.0309	0.10235	-432.845356	-432.838394	-432.83745	-432.877427	25.401	
C	 0.9086841315	 0.8877433276	-0.1852857577	-0.175801
O	-0.15163365	 0.2141819869	-0.8568114835	-0.225569
C	-0.3990200648	 0.6870275443	 0.4684492302	 0.00412
C	-0.5925177391	-0.351163759	 1.5138202685	 0.319406
C	-0.2287419616	-1.6921998192	 1.3256370195	-0.04277
N	-0.3997275104	-2.5806826423	 2.2913235452	-0.231162
C	-0.9405314365	-2.0883175574	 3.413745543	 0.105989
N	-1.3290388712	-0.8339896648	 3.6302411241	-0.176389
N	-1.1538867913	 0.05176232	 2.6536962111	-0.251231
H	 1.7522311872	 0.2641047394	 0.106950552	 0.125402
H	 1.1615026079	 1.872967817	-0.5729027351	 0.135696
H	-1.0722630247	 1.5377315018	 0.5526613658	 0.124587
H	 0.1836246086	-2.0294172867	 0.3788614373	 0.147071
H	-1.0933881655	-2.7782545775	 4.2381997095	 0.140651
