20
gdb 127152	4.19768	0.93353	0.85323	2.1366	82.49	-0.2035	0.0212	0.2246	1418.1576	0.172282	-399.332968	-399.323961	-399.323016	-399.367526	33.221	
C	-0.0402931605	 1.4539064043	-0.0385967522	-0.309941
N	 0.0411153776	 0.0055468397	 0.0365053665	-0.043433
C	 0.8375674726	-0.4212987059	 1.1740812467	-0.316221
C	-1.2930686948	-0.598359207	 0.0179689452	-0.252296
C	-1.2816158336	-2.0869959511	-0.1822082505	 0.341465
N	-1.2050346786	-2.6014514614	-1.4103035055	-0.277738
N	-1.2244179551	-3.9326404703	-1.2225486246	-0.178494
C	-1.318767177	-4.2886992764	 0.0811455563	-0.023619
C	-1.3616706102	-3.1102895898	 0.7938943447	-0.274391
H	 0.9679364308	 1.8773329171	-0.0890029232	 0.114443
H	-0.5797899528	 1.7507738659	-0.9436734995	 0.117048
H	-0.5549190785	 1.9116007903	 0.8302426776	 0.084484
H	 0.403876981	-0.1145847997	 2.1478136953	 0.079689
H	 0.9372005482	-1.5094861785	 1.1763494123	 0.125885
H	 1.839952841	 0.0125761132	 1.1027145174	 0.114119
H	-1.8552453965	-0.3671679128	 0.9454447501	 0.074546
H	-1.8438195599	-0.1467347477	-0.8127619693	 0.115318
H	-1.1853812471	-4.5370586027	-2.0255290607	 0.274588
H	-1.3511531177	-5.3222318639	 0.3876265424	 0.131598
H	-1.441635289	-2.997555313	 1.863125461	 0.102948
