18
gdb 33012	3.79068	1.0966	0.96411	2.7516	79.74	-0.2164	-0.0409	0.1755	1263.8098	0.150259	-398.171788	-398.163532	-398.162587	-398.205649	30.104	
C	 1.1839990921	 0.8356377048	-0.3736350668	-0.311694
N	-0.0784409696	 0.2731350724	 0.0973260901	-0.264045
C	-0.6730819907	-0.6714913281	-0.8310957734	-0.254338
C	 0.0515592548	-2.0007900327	-0.9990822065	 0.346793
N	 0.7370416217	-2.4575048064	 0.0558144643	-0.278409
C	 1.3390962743	-3.6388984564	-0.0871011552	 0.011529
C	 1.264592974	-4.3750274316	-1.2627255735	-0.13577
C	 0.5227489238	-3.809137169	-2.2931965313	 0.008629
N	-0.08301552	-2.6271027509	-2.1750046824	-0.2767
H	 1.9623244574	 0.0892430247	-0.6051756164	 0.097928
H	 1.0023570616	 1.4236899996	-1.2805495329	 0.11884
H	 1.5822466409	 1.5137595663	 0.386880207	 0.11639
H	 0.0845766831	-0.209088213	 0.9757349356	 0.226533
H	-1.6948154525	-0.9000725937	-0.4953968291	 0.120712
H	-0.7723409475	-0.2110165628	-1.8189495947	 0.124886
H	 1.8979491016	-4.0059675934	 0.7714492859	 0.118418
H	 1.7577780139	-5.3333221195	-1.3705058857	 0.111474
H	 0.411795201	-4.3170583503	-3.2491904549	 0.118824
