22
gdb 59436	2.39049	1.26099	1.08224	3.2372	83.65	-0.24	0.0167	0.2567	1274.2549	0.191942	-404.36175	-404.351308	-404.350364	-404.397295	37.875	
C	 0.412925285	 1.484856417	-0.0097910765	-0.397239
C	 0.1317175795	-0.0282400275	 0.0031635363	 0.015481
C	 0.5980860236	-0.6870113767	-1.3015291885	-0.420901
C	 0.6881952782	-0.6437464399	 1.2827548915	 0.005367
C	 1.0540430241	-2.1018886411	 1.4383477827	-0.283043
N	 2.0560681205	-1.0658888092	 1.4615569589	-0.064577
C	 3.2031955917	-0.886843231	 0.7172128594	 0.381036
C	 4.0946717918	-2.1147704696	 0.6502963061	-0.472522
O	 3.5066368524	 0.1785464984	 0.216691774	-0.351754
H	 1.4901039823	 1.6656242052	-0.050665736	 0.160736
H	-0.0587978053	 1.9578352334	-0.8770925147	 0.105212
H	 0.017153934	 1.9684425008	 0.8898614995	 0.10476
H	-0.9570564746	-0.1686095618	 0.0778237842	 0.079841
H	 1.6695989539	-0.5420540492	-1.4602940293	 0.146683
H	 0.3768908633	-1.7587317948	-1.3298992145	 0.105253
H	 0.0762202125	-0.2293912072	-2.1477398394	 0.1165
H	 0.2807151077	-0.1693863391	 2.1768231656	 0.099789
H	 0.8571429608	-2.6122329812	 2.3789874051	 0.120736
H	 1.0011155958	-2.7370693604	 0.5574995978	 0.125247
H	 3.7022007985	-2.8174084969	-0.0936238386	 0.138594
H	 5.0957059931	-1.8095742683	 0.3457352628	 0.147082
H	 4.1323595613	-2.6358728109	 1.6102694437	 0.137719
