23
gdb 122184	3.44099	0.7397	0.70507	2.5755	82.29	-0.2405	0.0785	0.319	1715.1535	0.203979	-425.410782	-425.400231	-425.399287	-425.447281	37.982	
C	 0.0209224434	 1.7576581978	-0.2729949854	-0.437804
C	 0.005961315	 0.2419495579	-0.1268350109	 0.438669
C	-1.4022239094	-0.3607815238	-0.1339450569	-0.235745
C	-2.2887143783	 0.1084324361	 1.0243681296	-0.174019
C	-3.5947974993	-0.6701362206	 1.108610452	-0.075646
O	-4.3566005316	-0.134127391	 2.1801999386	-0.42149
C	 1.0290741059	-0.5199770529	-1.0127314981	-0.338073
C	 1.6838518844	-0.9217193268	 0.3213667483	-0.062478
O	 0.7248278499	-0.1618742989	 1.0808931037	-0.320927
H	 1.0496483533	 2.1285128201	-0.2873972242	 0.114848
H	-0.4703523085	 2.0627312631	-1.2038622987	 0.111977
H	-0.4971923517	 2.2363591284	 0.5624056417	 0.131451
H	-1.8770631089	-0.1337726979	-1.098662187	 0.091719
H	-1.2981211071	-1.4526324082	-0.0869095299	 0.090834
H	-1.7435366642	-0.0085496023	 1.9668806949	 0.127133
H	-2.5344110729	 1.1712927406	 0.9243342352	 0.105095
H	-4.1408107271	-0.5887837766	 0.1533326726	 0.078963
H	-3.3798657435	-1.7398170743	 1.2678815663	 0.083321
H	-5.1742229363	-0.6354719102	 2.2479122528	 0.283927
H	 0.6141000206	-1.337952523	-1.604804866	 0.103791
H	 1.6382744817	 0.1162842651	-1.6574015402	 0.105294
H	 1.6468609788	-1.9911452353	 0.5645238607	 0.09879
H	 2.7081725457	-0.5632768276	 0.4804524906	 0.100371
