21
gdb 38253	3.06274	1.69807	1.38823	1.6882	80.48	-0.2372	0.0803	0.3175	1006.1184	0.18639	-387.0791	-387.072081	-387.071137	-387.110458	29.53	
C	-0.0317701104	 1.682879499	 0.060090992	-0.279676
C	 1.4595619825	 1.3252440579	-0.0373742799	 0.066778
C	 1.7563766871	 0.7453144008	 1.3791837505	-0.281386
C	 0.5755614913	-0.2639767757	 1.4048762207	 0.023691
C	-0.6257859935	-0.2766307404	 2.3521446561	-0.261733
C	-1.7863260813	-0.8227567291	 1.4411883839	-0.200737
C	-1.3165405852	-0.7073030761	-0.0546162156	-0.36221
C	-0.0736909134	 0.1352386677	 0.0688023718	 0.47632
O	 1.0746566622	 0.1489077323	-0.8351757907	-0.355214
H	-0.3944331512	 2.2480720654	 0.9225789676	 0.092133
H	-0.4242089327	 2.0820634164	-0.8761196302	 0.105622
H	 2.2036937348	 1.9571612351	-0.5219615535	 0.076067
H	 2.7318420317	 0.2582112822	 1.436782489	 0.103053
H	 1.7104917111	 1.5214367624	 2.1492495683	 0.098917
H	 0.9574149801	-1.2849633127	 1.2949786268	 0.07651
H	-0.4804907632	-0.8978752925	 3.2395531532	 0.097146
H	-0.8615025688	 0.7330592889	 2.7048401614	 0.097657
H	-2.0109412261	-1.8645246987	 1.6843697863	 0.107197
H	-2.7085401704	-0.2604900162	 1.6089715891	 0.104126
H	-1.0551932893	-1.6911570238	-0.4580070988	 0.114858
H	-2.0806767956	-0.275434923	-0.705436188	 0.100882
