17
gdb 90468	2.24871	1.86178	1.38291	3.6638	71.88	-0.2454	0.0133	0.2587	976.1641	0.137048	-417.99226	-417.984167	-417.983223	-418.025257	30.245	
O	-0.4871004281	 1.3002812949	-0.6968044682	-0.416807
C	-0.0569668826	 0.0948269489	-0.0895126967	 0.103042
C	-1.3060089612	-0.7858924475	 0.1343569107	-0.244055
C	-1.1994420953	-1.9175922815	-0.8728720038	-0.035612
C	-1.0376474594	-1.6547085351	-2.3401362344	-0.163692
C	-1.2499386188	-0.3893050525	-2.992669939	 0.308481
N	-1.4147413363	 0.5671392202	-3.6219974535	-0.34747
N	 0.1365920816	-1.9534213534	-1.4838531221	-0.112001
C	 0.8780577701	-0.7812796976	-0.9727646432	-0.205909
H	 0.2738928647	 1.7577643699	-1.0674077593	 0.287843
H	 0.4388376553	 0.3188134095	 0.8658906614	 0.079285
H	-1.3108919787	-1.2144195331	 1.1404959519	 0.115465
H	-2.2079330539	-0.1801841168	 0.0215629842	 0.143478
H	-1.6298156911	-2.8789099175	-0.6040541136	 0.106164
H	-1.2690885126	-2.4822049124	-3.0076910139	 0.139548
H	 1.3102396679	-0.2082680635	-1.7998503376	 0.122448
H	 1.7037910684	-1.1798796724	-0.375348873	 0.119792
