16
gdb 74865	2.31721	1.7938	1.14602	4.9681	73.95	-0.2605	-0.0188	0.2417	1053.7454	0.124296	-400.752086	-400.744199	-400.743255	-400.784616	29.522	
C	 0.0647181522	 1.4820471747	 0.0345550912	-0.493794
C	-0.0184345897	-0.0064944701	-0.0338521482	 0.307984
C	-0.1399382463	-0.7855391854	-1.1131351113	-0.191903
C	-0.0743096418	-2.2298027315	-0.7522387545	 0.005214
O	 1.1819332169	-2.6043260501	-0.1314459849	-0.240588
C	 0.0786909056	-2.3055409092	 0.7077101586	 0.024793
C	 0.0567531533	-0.8645416017	 1.2418928824	-0.273825
C	 1.2050089784	-0.5410689641	 2.0893906505	 0.292518
N	 2.1028600361	-0.2658135149	 2.7626277032	-0.329415
H	 1.0190254041	 1.8002569069	 0.4705363519	 0.160442
H	-0.0263726564	 1.9286422742	-0.9582664742	 0.133987
H	-0.7255581862	 1.89522999	 0.6739453615	 0.132875
H	-0.2341654206	-0.4271264519	-2.1308229761	 0.111819
H	-0.5416529581	-3.0064763305	-1.3484022928	 0.109763
H	-0.2901840195	-3.1147017292	 1.3307301671	 0.115218
H	-0.849417818	-0.7133598675	 1.8458549955	 0.134912
