23
gdb 120872	4.75822	0.76043	0.72542	1.7897	86.73	-0.2421	0.0905	0.3326	1693.9951	0.204086	-388.270234	-388.260358	-388.259414	-388.305218	36.909	
C	-0.0144464361	 1.6033535224	-0.0072506319	-0.378306
C	-0.045917917	 0.0735933288	-0.0684786349	-0.164046
C	 0.8133918101	-0.4971503738	-1.2025572702	-0.181511
C	 0.7936548165	-2.0193529537	-1.279501715	-0.003234
C	-0.5306265462	-2.7441572942	-1.736271878	-0.312388
C	 0.260940749	-3.3707044726	-2.8988169562	 0.424452
C	 0.0153456624	-4.6643097805	-3.6037853285	-0.499803
O	 0.779234286	-2.268282138	-3.6638960632	-0.288332
C	 1.4919786588	-2.6742124614	-2.4845966736	-0.067804
H	 1.0056362373	 1.9714022712	 0.1499713496	 0.112526
H	-0.3822100614	 2.04333043	-0.9408272884	 0.115473
H	-0.6357433525	 1.9852400781	 0.8090128473	 0.108975
H	 0.2964684765	-0.3384777783	 0.8904775809	 0.089873
H	-1.0827111719	-0.2663645846	-0.1898818662	 0.09741
H	 0.4751170713	-0.0964233494	-2.1655651408	 0.109668
H	 1.8514203911	-0.1586138179	-1.0736335687	 0.087613
H	 1.1560276097	-2.4582927624	-0.3428372592	 0.069805
H	-0.8908571475	-3.4724868671	-1.0054881765	 0.100762
H	-1.3578940738	-2.0999538271	-2.0467119683	 0.103218
H	-0.9050523147	-4.6155229078	-4.1971552908	 0.129444
H	 0.8431139601	-4.8945901712	-4.2798617046	 0.132865
H	-0.0923559095	-5.4842380645	-2.8861623051	 0.122109
H	 2.5375687918	-2.9367052361	-2.6112123078	 0.091231
