19
gdb 103740	2.7671	1.28036	1.03218	3.4405	73.73	-0.2453	-0.0283	0.217	1204.1032	0.154978	-460.148004	-460.138007	-460.137063	-460.182469	36.658	
C	 0.1249616238	 1.1219966211	-0.325131929	-0.249736
O	-0.1648376232	-0.0947446736	 0.3464408166	-0.297532
C	-1.4446731892	-0.6233774439	 0.1097242229	 0.340802
C	-2.5607697686	 0.0490080915	 0.8700410018	-0.470303
C	-1.6712614225	-1.2660528613	-1.2294330568	-0.38788
C	-1.3347564368	-2.151567439	-0.0328993955	 0.26475
O	-0.066102871	-2.7089649575	 0.0723794245	-0.476601
C	-2.3914980208	-3.0380934716	 0.5216973004	 0.107905
O	-3.5812489285	-2.867622211	 0.3886657411	-0.275348
H	 1.1671265148	 1.3616343042	-0.10437351	 0.13579
H	-0.0025276874	 1.0232104926	-1.4107552429	 0.119209
H	-0.510807797	 1.9411516938	 0.0330615419	 0.12363
H	-2.7310497727	 1.0618348029	 0.4887288342	 0.11876
H	-3.4883520954	-0.5144995262	 0.7635676628	 0.16377
H	-2.3079479448	 0.1197955473	 1.9323467699	 0.127242
H	-2.6906803689	-1.3232042074	-1.5964533111	 0.1401
H	-0.8906683448	-1.1882880691	-1.9779326432	 0.124658
H	 0.5270928388	-1.9806279044	 0.307512993	 0.295647
H	-1.9764218257	-3.9033541982	 1.0804934093	 0.095139
