23
gdb 79815	2.0383	1.8516	1.60258	0.1842	87.91	-0.2464	0.0857	0.3321	1049.9314	0.207285	-351.14969	-351.141362	-351.140417	-351.181753	34.211	
C	-0.2554084537	 1.5682628703	 0.0723453714	-0.426212
C	 0.0499299608	 0.0754691399	-0.0177323074	 0.003508
C	 0.629902292	-0.5468476538	-1.2900622041	-0.08945
C	 2.1453183051	-0.4293779032	-1.3687556068	-0.033299
C	 2.8809218569	 0.6351221692	-0.5585000853	-0.245883
C	 2.4362749595	 0.3618623657	 0.9037015877	-0.243979
C	 1.2308467198	-0.5923823361	 0.7912295336	 0.311847
C	 0.8492662483	-1.286332246	 2.0852304457	-0.492665
C	 1.5294046027	-1.4609403772	-0.4718179092	-0.12226
H	 0.6023204265	 2.1944838486	-0.1858215379	 0.116968
H	-1.0684601451	 1.8302698127	-0.6146139155	 0.111049
H	-0.5812545038	 1.8452201488	 1.0818582359	 0.110022
H	-0.8632847783	-0.4776399987	 0.2351458126	 0.065309
H	 0.0588054504	-0.793609254	-2.1791985819	 0.072758
H	 2.5691312264	-0.755591789	-2.3130946182	 0.076714
H	 3.9639369142	 0.51917578	-0.671881742	 0.093667
H	 2.6393188242	 1.6505804597	-0.8886510933	 0.098213
H	 3.2394814183	-0.1364326828	 1.4593531574	 0.089713
H	 2.1883945129	 1.2772615365	 1.4513550996	 0.092175
H	 0.5310744518	-0.5615216285	 2.8439904729	 0.112758
H	 0.024799682	-1.9910655368	 1.9334529377	 0.112475
H	 1.6963976065	-1.8459790345	 2.499463677	 0.110471
H	 1.6743090523	-2.5326648411	-0.5180930398	 0.076099
