23
gdb 113937	3.25272	0.82987	0.75128	1.6018	84.39	-0.2291	0.0813	0.3104	1658.8145	0.202043	-425.390333	-425.379496	-425.378551	-425.426988	39.061	
C	 0.552907318	 0.9871767726	 0.4628165263	-0.227991
O	-0.2820750977	 0.1984338292	-0.3593023857	-0.226647
C	 0.4100856542	-0.4330476057	-1.3806593514	 0.084039
C	 1.1381121574	-1.7351437139	-1.0931522118	-0.358568
C	-0.1511540498	-1.7177473733	-1.9002730014	 0.096819
O	-1.3358384195	-2.1653317709	-1.338072481	-0.252293
C	-1.7136705965	-3.4966020186	-1.6942339877	 0.158563
C	-0.8278089577	-4.5528205518	-1.0292135069	-0.391588
C	-3.178233675	-3.6354821418	-1.2957294755	-0.389534
H	 1.3290835009	 0.3821537705	 0.953520708	 0.107153
H	 1.0490494825	 1.7863166961	-0.1096401529	 0.102782
H	-0.0841124937	 1.4416390725	 1.2251593107	 0.127163
H	 0.8614543944	 0.2460487959	-2.1076029116	 0.082118
H	 2.0831129821	-1.9488260545	-1.5817056474	 0.106281
H	 1.0389209099	-2.1028993814	-0.0779329688	 0.1252
H	-0.0717320835	-1.8879802326	-2.9758942637	 0.082166
H	-1.6272615745	-3.6016006173	-2.7893805603	 0.063073
H	-1.1600025061	-5.5570474544	-1.3120400112	 0.111241
H	 0.2175048827	-4.4459874332	-1.3294551561	 0.123618
H	-0.8848741662	-4.4649512006	 0.0607189301	 0.119503
H	-3.7813512467	-2.8668033424	-1.7854970138	 0.122931
H	-3.5639447039	-4.6195112189	-1.5782193194	 0.109593
H	-3.2876496914	-3.5172720453	-0.2130823284	 0.124376
