16
gdb 123802	5.39447	0.94556	0.83221	4.8254	71.36	-0.2363	-0.0313	0.2051	1328.8139	0.12529	-434.003672	-433.996007	-433.995063	-434.036831	28.423	
C	-0.3602370354	 1.036485503	-0.3191649991	-0.253498
C	 1.0284671773	 1.1454454051	 0.2556007207	-0.282579
C	 0.4117843975	-0.2093687795	 0.0484044558	 0.019861
N	 0.0144171061	-0.9321979931	 1.2218752466	-0.381939
C	-0.9987265908	-1.8571249545	 1.152061658	 0.396396
N	-1.1338791543	-2.8388180379	 2.0123210152	-0.201447
O	-2.2897643818	-3.4938818252	 1.6372798081	-0.152604
N	-2.8518331332	-2.9223988488	 0.542024204	-0.061223
C	-2.0845077268	-1.91942794	 0.2226882113	-0.091754
H	-1.1877266798	 1.3102057597	 0.3246620839	 0.130967
H	-0.5056691672	 1.2510671354	-1.3717225282	 0.122704
H	 1.8428904763	 1.4358289682	-0.3973859157	 0.124643
H	 1.1166468353	 1.4936275773	 1.2782557729	 0.128074
H	 0.7990791718	-0.8061860767	-0.777767553	 0.100377
H	 0.7630796185	-1.2028514686	 1.8446878383	 0.2559
H	-2.3061822735	-1.2877524944	-0.6216350388	 0.146124
