13
gdb 11685	5.4561	1.4777	1.34592	3.6411	66.34	-0.2554	-0.0245	0.2309	889.1917	0.094121	-361.406196	-361.399253	-361.398309	-361.437264	26.289	
O	 0.0658220109	 0.0315345214	-0.0361948231	-0.28749
C	-0.0030402241	 1.2160291157	 0.03680488	 0.418253
C	-1.1351364725	 2.2447668118	 0.1734994653	-0.42538
C	-0.020643002	 3.2983350007	 0.1021575824	 0.126721
C	 1.0066032915	 3.0235693578	 1.12581259	-0.264225
N	 1.0651070996	 2.195878915	-0.1127059207	-0.195958
C	-0.0680710892	 4.4797432066	-0.6888780908	 0.226314
C	-0.1481254163	 5.4869502168	-1.3407924274	-0.385732
H	-1.7859120847	 2.2382450249	-0.7035501495	 0.157804
H	-1.7426613791	 2.2172922643	 1.0811029892	 0.138971
H	 1.8436663511	 3.709048086	 1.1978494837	 0.152385
H	 0.7205390525	 2.5468113386	 2.0609291707	 0.136193
H	-0.2067605877	 6.3733774302	-1.9230017899	 0.202144
