16
gdb 30037	3.34662	1.79742	1.17829	3.3839	77.4	-0.1901	0.0259	0.216	997.3046	0.127475	-396.974583	-396.967235	-396.966291	-397.006826	27.705	
C	 0.0143502726	 1.427742352	 0.0588694141	-0.346378
N	-0.0323125526	-0.0167079594	 0.0002143495	-0.158144
C	-0.0117542246	-0.8212562708	-1.1321232582	-0.113127
C	 0.0274551348	-2.1300060096	-0.757014073	-0.151914
N	 0.0418388202	-2.1389494059	 0.6335624181	-0.019256
C	 0.0708140498	-2.938066584	 1.7684996603	-0.170413
C	 0.0611265183	-2.0445615804	 2.816566088	-0.087052
N	 0.027392397	-0.7261344841	 2.4009025364	-0.418257
C	 0.0138577005	-0.8444055158	 1.0917456222	 0.50879
H	 1.0426213452	 1.8053308296	 0.0139028185	 0.140774
H	-0.5566039402	 1.8497978148	-0.7717288006	 0.136797
H	-0.4338685222	 1.751263131	 1.000243161	 0.170724
H	-0.0354366055	-0.3908711896	-2.119075952	 0.138505
H	 0.0354353784	-3.0249864348	-1.3532373813	 0.143502
H	 0.0956980044	-4.0124679269	 1.72297701	 0.12306
H	 0.0781812538	-2.2868711561	 3.8690004271	 0.102391
