13
gdb 81883	3.2319	1.29934	1.01724	3.3901	60.69	-0.2509	-0.0644	0.1865	1094.9623	0.085472	-493.656799	-493.648341	-493.647397	-493.690614	29.024	
O	-0.1125244044	 1.458531322	 0.2285609239	-0.417084
C	 0.0218957134	 0.0936519098	-0.0195140645	-0.001877
C	-1.2817536216	-0.7078574546	 0.0307336176	-0.034601
O	-2.0843703946	-0.3062346907	-1.0489325497	-0.233465
C	-1.0728626279	-1.2917816941	-1.3459464706	 0.178432
C	-1.4729650232	-2.6285929332	-1.8598888107	 0.049343
O	-2.5877284844	-3.073687282	-1.7758386477	-0.240686
C	 0.2050381295	-0.4617763028	-1.4783826559	 0.33174
O	 1.0644025255	-0.3610764034	-2.3000609518	-0.29047
H	 0.6981482468	 1.8982310849	-0.0508425427	 0.304587
H	 0.7963688056	-0.3847081566	 0.6058575529	 0.104522
H	-1.7575789804	-1.1997320316	 0.8708643581	 0.145223
H	-0.6386510344	-3.1968858975	-2.3211645788	 0.104338
