20
gdb 7597	2.69233	1.57534	1.42255	1.0761	71.04	-0.2516	0.07	0.3215	1033.4069	0.173767	-386.130465	-386.120698	-386.119754	-386.164581	35.692	
C	 0.1443083122	 1.2852802456	-0.4848128965	-0.41888
C	 0.042710438	-0.0174296873	 0.3091382469	 0.058733
O	 0.4715486614	 0.140500887	 1.6603055912	-0.431591
C	-1.3626189723	-0.6203371459	 0.2541295312	 0.402595
C	-2.4367588738	 0.1351535296	 1.0112916709	-0.488851
O	-1.7527755668	-1.0754722982	-1.0536244413	-0.307719
C	-1.5741806718	-2.0559105969	-0.0186830552	 0.025927
C	-0.5084739514	-3.1028987875	-0.2165157931	-0.427698
H	 1.175301424	 1.6491857426	-0.4751592363	 0.122922
H	-0.1659197358	 1.1237984367	-1.520669582	 0.141282
H	-0.4959169546	 2.0670310601	-0.058740016	 0.108085
H	 0.7425793978	-0.7347108553	-0.1261088123	 0.088953
H	 0.0894433319	 0.9567543184	 1.9989113144	 0.281444
H	-2.5371071396	 1.1623825148	 0.6451622008	 0.123043
H	-3.4041383874	-0.3566384007	 0.8870236521	 0.130042
H	-2.2017735708	 0.1700928429	 2.0795912049	 0.12435
H	-2.5198997863	-2.4653238532	 0.3460883869	 0.081127
H	 0.4144304594	-2.6868259571	-0.6235432737	 0.130709
H	-0.2805710184	-3.596402357	 0.7342676627	 0.127875
H	-0.8654494358	-3.8677160986	-0.9144403254	 0.127652
