18
gdb 66265	2.00771	1.6339	1.41171	2.7438	77.88	-0.2399	-0.0265	0.2134	1059.6363	0.14643	-401.9366	-401.927626	-401.926682	-401.970071	33.919	
C	-0.0950373899	 1.6090201419	 0.0050130155	-0.43017
C	 0.0343299903	 0.0837694865	-0.0254550413	-0.021648
N	 0.8990592788	-0.3909278665	-1.1179777324	-0.31834
C	 1.4016901791	-1.7211370946	-0.735582461	-0.177966
C	 1.7813733587	-1.5230533242	 0.7351171361	-0.310748
C	 0.8175595005	-0.4422683776	 1.21966394	 0.412111
O	 0.6816483042	-0.0338701596	 2.3385129298	-0.311566
C	-1.2847716088	-0.5687505724	-0.0198760895	 0.34992
C	-2.3464875753	-1.134890801	-0.0483679418	-0.50526
H	 0.8985288371	 2.0590896447	-0.0599957505	 0.124837
H	-0.6998545821	 1.9633851548	-0.8339604351	 0.119554
H	-0.5711332785	 1.9172458527	 0.9386800096	 0.145257
H	 0.3992317197	-0.4153096919	-2.0000380565	 0.227101
H	 0.63968581	-2.5111130787	-0.8256904449	 0.103582
H	 2.2518369139	-1.9936586542	-1.3659938501	 0.110589
H	 1.7061216068	-2.419359006	 1.3540781499	 0.136297
H	 2.7986002289	-1.12951992	 0.8392080705	 0.144008
H	-3.2905930336	-1.6214840141	-0.0639049881	 0.202441
