13
gdb 130224	3.48229	1.15078	0.88168	3.2101	62.49	-0.2273	-0.0167	0.2106	1203.9669	0.090214	-486.078034	-486.069946	-486.069002	-486.11138	28.406	
N	 0.0507864668	 1.350534708	 0.2631557107	-0.599165
C	 0.0435392309	-0.0162039925	 0.0544665988	 0.268438
N	-1.0436123617	-0.7795835304	 0.147182185	-0.272184
N	-0.5716583376	-2.0160686381	-0.0500580991	-0.09091
N	 0.7273192145	-2.124868326	-0.2837095175	-0.268733
C	 1.1385162889	-0.865885266	-0.213153776	 0.333803
O	 2.4235095761	-0.4636536958	-0.4274350643	-0.229317
C	 3.4317510471	-1.1946561922	 0.1497357825	 0.16349
O	 4.5743614265	-0.9439188417	-0.0596645667	-0.251507
H	 0.7779407395	 1.8344816235	-0.2443368693	 0.265165
H	-0.8542106279	 1.7801089486	 0.1305548926	 0.263308
H	-1.1755195222	-2.8196863373	-0.0349902902	 0.298293
H	 3.0423559289	-1.9969904601	 0.7956931836	 0.119321
