21
gdb 74375	2.69599	1.11184	0.83489	3.308	87.09	-0.2369	-0.0215	0.2155	1408.372	0.182635	-387.129006	-387.119874	-387.11893	-387.163494	34.047	
C	-0.0200547366	 1.5444281737	 0.0711890305	-0.474564
C	 0.0159570774	 0.0433781896	-0.0185756226	 0.307737
C	 0.0603947666	-0.5963996953	-1.1910805588	-0.165317
C	 0.0653945342	-2.1004444364	-1.359559378	-0.095139
C	-0.2575725787	-2.8263194161	-0.0365949574	-0.223924
C	 0.4541758525	-2.1638223625	 1.1459979478	-0.218993
C	 0.0142228063	-0.7034704003	 1.2964231075	-0.278843
C	-0.9691351669	-2.4849008674	-2.4056132249	 0.152214
O	-0.7358489313	-3.0503116459	-3.4417360856	-0.25045
H	 0.8541577811	 1.9290018635	 0.6120181474	 0.124959
H	-0.0449818016	 2.0118583105	-0.9165493592	 0.122885
H	-0.9023596526	 1.8816381601	 0.6308484093	 0.125137
H	 0.0937821113	-0.0147077726	-2.1106396846	 0.087135
H	 1.0358103286	-2.4329461162	-1.7504900443	 0.095622
H	-1.342740195	-2.7948443831	 0.1361511276	 0.099435
H	 0.017652787	-3.8823302836	-0.1207625063	 0.10827
H	 0.2524124135	-2.7179689484	 2.0686801388	 0.096937
H	 1.5384692752	-2.20197758	 0.983496054	 0.104842
H	 0.6668619301	-0.1828532443	 2.0091990054	 0.102518
H	-0.9929515372	-0.6534882568	 1.7375075864	 0.109002
H	-2.0097792341	-2.1890767784	-2.1301219532	 0.070538
