21
gdb 81942	2.24461	1.75623	1.15752	2.6526	81.43	-0.237	-0.0152	0.2217	1134.1211	0.182468	-387.122619	-387.113767	-387.112823	-387.155896	34.167	
C	 0.1621393166	 1.6522243781	 0.0292741461	-0.39341
C	 0.1028694424	 0.125676806	-0.0247533368	-0.098667
C	 0.7691018245	-0.5559381193	-1.2091261509	-0.048712
C	 2.278360659	-0.573725396	-1.2309426125	-0.297574
C	 1.5256662296	-1.778569295	-0.7205922018	-0.048712
C	 1.3573628838	-1.9016265785	 0.7853076383	-0.098667
C	 2.5946272968	-2.2787610547	 1.6000010979	-0.39341
C	 0.7597476636	-0.5434107151	 1.1967137326	 0.364995
O	 0.810317132	-0.069900191	 2.3034333207	-0.322841
H	 1.191253391	 2.0069899758	-0.0842425727	 0.119758
H	-0.4389607719	 2.0987026621	-0.7681129975	 0.110802
H	-0.2113525483	 2.0078515406	 0.9931307922	 0.135472
H	-0.9532259275	-0.1869169903	 0.0057274653	 0.10085
H	 0.2417279713	-0.5785397733	-2.1560379928	 0.085293
H	 2.7656671137	-0.657679827	-2.1957184636	 0.114929
H	 2.8202285516	 0.0455055663	-0.5203836601	 0.11772
H	 1.5455384308	-2.685536915	-1.3141332527	 0.085293
H	 0.5650110854	-2.6404396809	 0.9860947642	 0.10085
H	 3.4338490184	-1.6171236781	 1.3638586031	 0.119758
H	 2.3828862054	-2.1845202346	 2.6683038932	 0.135473
H	 2.9057750421	-3.3065173701	 1.3916877275	 0.110802
