19
gdb 46321	2.95712	1.34082	1.2018	3.2981	76.08	-0.2261	-0.023	0.2031	1118.9265	0.159557	-423.042726	-423.034502	-423.033558	-423.076393	30.919	
O	-0.4798326888	 0.3861167607	-0.9392727267	-0.298914
C	-0.2424941229	 1.3647902676	-0.295260973	 0.339472
C	-1.0676246614	 2.2819836218	 0.6272569221	-0.347472
C	 0.0627763913	 3.3428399827	 0.4876952383	-0.300472
C	 1.0081609343	 2.2794092868	-0.1607654802	 0.349659
C	 2.1210758031	 1.682451535	 0.7324839381	-0.297892
C	 3.394482961	 2.2932300895	 0.1262198815	-0.22584
C	 3.0153707482	 2.3540038849	-1.3527554392	-0.075191
O	 1.624041953	 2.6773860758	-1.3666008526	-0.301169
H	-2.0623867109	 2.547797912	 0.263104409	 0.133932
H	-1.167420586	 1.8612737187	 1.6331735969	 0.130279
H	-0.1849198957	 4.1188260379	-0.2390525903	 0.123495
H	 0.4200038213	 3.8075920683	 1.4083976102	 0.101995
H	 1.9809690924	 1.9134799416	 1.7905537721	 0.110226
H	 2.138396417	 0.5928581291	 0.6218392387	 0.123869
H	 3.5639134995	 3.3020874086	 0.5163872263	 0.111449
H	 4.2891125032	 1.6956357142	 0.3163420009	 0.108144
H	 3.5457389035	 3.1260173019	-1.9175621466	 0.109972
H	 3.1842897277	 1.3855507829	-1.8459341655	 0.104458
