19
gdb 119433	3.32672	0.92526	0.84051	2.1909	72.38	-0.2297	0.0694	0.2991	1413.1844	0.15728	-460.105797	-460.09642	-460.095476	-460.140404	34.634	
O	 0.0813753908	 1.4015326568	 0.1694789825	-0.41943
C	 0.0063981025	-0.0139784498	 0.2157569025	-0.06084
C	-1.3916518474	-0.5385387741	-0.1402239975	-0.32359
C	-1.4792006608	-2.0287496517	-0.0781138092	 0.426158
C	-1.6450526583	-2.8797010607	 1.1635756745	-0.402934
C	-2.59533866	-3.0405903969	-0.005493688	 0.241114
O	-3.9587062203	-2.8460882902	 0.070003574	-0.454688
C	-1.87520569	-3.7485124912	-1.149681757	-0.137058
O	-0.7818997437	-2.7916790655	-1.0793726317	-0.32808
H	-0.0316825047	 1.6722838733	-0.74718023	 0.281892
H	 0.7557406789	-0.4820248256	-0.4392102396	 0.10819
H	 0.2543547496	-0.2937628241	 1.2448366134	 0.114594
H	-2.1259084784	-0.1028756826	 0.5458154639	 0.118599
H	-1.6569072684	-0.209418574	-1.1538845873	 0.100081
H	-0.9114783306	-3.6434718327	 1.4094170817	 0.112118
H	-2.0840371405	-2.3575564902	 2.0090784523	 0.118466
H	-4.3228238212	-3.4708699595	 0.7067601647	 0.290861
H	-1.5387333861	-4.7810264497	-0.9978144452	 0.100692
H	-2.4092778314	-3.6605400315	-2.1026113839	 0.113855
