18
gdb 11905	4.26847	1.53729	1.37336	1.7612	74.39	-0.2336	0.0123	0.246	955.6683	0.154646	-347.799774	-347.792346	-347.791402	-347.83156	29.187	
O	-0.3616531022	 1.4425885466	-0.4407325304	-0.434802
C	 0.0305529716	 0.1450719966	 0.0120135352	 0.091539
C	-1.1609494167	-0.8147455268	 0.2950013608	-0.333814
C	-1.1622465062	-1.8203923328	-0.8637615293	 0.347926
C	-1.8099947184	-3.1813780626	-0.7484143586	-0.314305
C	-2.4053738138	-2.1521675427	-1.6700341666	-0.313773
C	 0.148753627	-1.6310253955	-1.5360691935	-0.124813
C	 0.8283755526	-0.595466467	-1.0384345448	-0.136596
H	-0.7130410523	 1.3350844888	-1.3318539339	 0.273951
H	 0.6033289324	 0.3460584315	 0.9227773145	 0.085916
H	-0.997402604	-1.3375620972	 1.2433950833	 0.105107
H	-2.0904281627	-0.2465097799	 0.3860655642	 0.105746
H	-1.2983155399	-4.0311076859	-1.1887969667	 0.112228
H	-2.3343591403	-3.407731048	 0.1745246357	 0.114384
H	-3.3331383729	-1.6738399255	-1.3732226545	 0.115956
H	-2.3001001245	-2.2966629946	-2.7403828962	 0.111621
H	 0.4805527688	-2.2776595218	-2.3426284678	 0.096621
H	 1.7966111816	-0.2461269131	-1.3775561415	 0.097107
