16
gdb 32375	4.15181	0.96262	0.81897	5.3823	81.2	-0.2424	-0.0383	0.2041	1376.4504	0.125996	-396.992156	-396.983823	-396.982879	-397.025838	30.136	
C	-0.286369286	 1.5026704388	 0.0123228555	-0.369679
C	 0.0579314926	 0.0060600361	-0.0477959287	-0.297616
C	 0.7256743288	-0.4861561761	 1.1992240691	 0.280718
C	 0.2725422244	-1.4173051832	 2.1109113669	-0.172558
N	 1.2401050184	-1.5061326153	 3.0745473322	-0.284151
C	 2.2354929552	-0.6362594802	 2.7195867495	 0.248249
N	 1.949020853	-0.0092899639	 1.5934591374	-0.331104
C	 3.4060602324	-0.4771147341	 3.5052500391	 0.236549
N	 4.3456633012	-0.3766440792	 4.174421406	-0.335927
H	 0.6144747874	 2.0930047432	 0.1988403733	 0.143483
H	-0.7300488427	 1.8368260782	-0.9301954375	 0.113028
H	-0.9982732592	 1.7103279813	 0.8174881301	 0.115202
H	-0.8481461516	-0.5838123568	-0.2247603894	 0.101258
H	 0.7238229165	-0.1760217297	-0.8996874881	 0.12251
H	-0.628228744	-2.0071713971	 2.1533415022	 0.145021
H	 1.2320771235	-2.098548232	 3.8889652725	 0.285017
