18
gdb 13780	2.74347	1.53798	1.29788	2.8005	69.49	-0.2416	-0.0179	0.2237	1026.447	0.151615	-384.937187	-384.928192	-384.927247	-384.971203	32.172	
C	-0.0467132295	 1.0426602853	 0.9024473932	-0.424347
C	-0.1558781235	 0.3304779194	-0.4446735466	 0.112232
O	 0.9815928097	-0.4892756583	-0.7023589883	-0.432578
C	-1.4647698772	-0.4365912056	-0.583832328	-0.003825
C	-1.6093768065	-1.6300269209	-1.4591793959	-0.318481
C	-1.7481272027	-1.8063732621	 0.0498042367	-0.103944
C	-0.7277205932	-2.5900063179	 0.7839300167	 0.136232
O	-0.93085908	-3.1295449213	 1.8466845009	-0.275956
H	 0.8759003746	 1.6288395391	 0.9515309954	 0.125793
H	-0.8910227771	 1.7208649583	 1.0579372825	 0.126469
H	-0.049525641	 0.318082914	 1.7256299589	 0.131466
H	-0.1562655211	 1.0875130463	-1.2420771175	 0.093003
H	 1.3910533005	-0.7125849248	 0.1391409101	 0.288712
H	-2.327394511	 0.2245294771	-0.5361501641	 0.09829
H	-2.5005839372	-1.7502038624	-2.0641527636	 0.122541
H	-0.6964762715	-2.0211074844	-1.8960263885	 0.141517
H	-2.7447341013	-1.9298774201	 0.4610647489	 0.10544
H	 0.255407168	-2.6775624916	 0.2751134192	 0.077435
