15
gdb 132590	3.14282	1.38832	0.96933	3.1241	73.15	-0.2221	-0.0343	0.1878	1131.7081	0.113152	-458.161024	-458.15324	-458.152296	-458.19312	29.838	
C	-0.0499795507	 1.5155748007	-0.0299441147	-0.502878
C	-0.0170800508	 0.0125137201	-0.0141322667	 0.284051
N	-0.0091665246	-0.6383950235	-1.1709482876	-0.274719
C	 0.0077145082	-1.9748050474	-1.1605246835	-0.17959
C	 0.0207591561	-2.6461828161	 0.0526620916	 0.296853
F	 0.0404145925	-3.9750836891	 0.0679146699	-0.069375
N	 0.0215755973	-2.0484420136	 1.2229870548	-0.363834
C	-0.0019117317	-0.7124624266	 1.2061240732	 0.324983
N	-0.0588047434	-0.07643821	 2.4233687348	-0.565712
H	 0.8451311028	 1.9496659461	 0.4366243929	 0.122994
H	-0.0967072755	 1.8641573528	-1.0622596263	 0.14935
H	-0.9196660964	 1.9040432081	 0.5142007828	 0.134981
H	 0.0115910832	-2.5056200039	-2.1055644874	 0.120779
H	 0.1663478489	-0.6591392718	 3.215491881	 0.262999
H	 0.2803525842	 0.8698599141	 2.4757225951	 0.259115
