18
gdb 108724	3.19558	1.17541	0.96321	4.4601	80.14	-0.2307	-0.051	0.1798	1254.9823	0.148307	-401.95381	-401.945548	-401.944604	-401.987147	31.029	
C	-0.2290646956	 1.5231764206	-0.0494430254	-0.380025
C	 0.0830515534	 0.0154724369	 0.0019645905	-0.295898
C	 0.8123517332	-0.4734981575	-1.209309823	 0.389316
C	 2.0595328356	-0.9724128708	-1.2760645856	-0.334617
C	 2.4175561405	-1.3490735081	-2.6672392359	 0.448603
O	 3.4822390613	-1.7439566343	-3.0810012256	-0.336521
C	 1.1659456181	-1.0929115943	-3.4968544101	-0.174253
N	 0.0122277718	-1.9240362271	-3.038382056	-0.328908
C	 0.1697725816	-0.5184992555	-2.5720168793	-0.158601
H	 0.691546785	 2.1108120046	-0.1124148271	 0.129787
H	-0.849671329	 1.7775995804	-0.9144143158	 0.121455
H	-0.7700956525	 1.8315248362	 0.8495798451	 0.124016
H	 0.6715919664	-0.2080075354	 0.8974374122	 0.114375
H	-0.8597340767	-0.5411991339	 0.0918786482	 0.12268
H	 2.7358396821	-1.124252152	-0.4440779119	 0.112037
H	 1.2535403733	-0.8279951374	-4.543380392	 0.109122
H	-0.6699597123	-1.9416529492	-3.7979394167	 0.235806
H	-0.5580808662	 0.2247402268	-2.8766404215	 0.101629
