15
gdb 49281	2.10462	1.70872	1.00874	7.782	76.23	-0.2319	-0.0473	0.1846	1120.1768	0.113803	-416.84162	-416.833452	-416.832507	-416.875098	29.105	
O	-0.118632032	-0.0202998989	 0.1244499508	-0.296587
C	-0.0559217783	 1.1944557924	 0.1245232028	 0.067534
C	 1.172814432	 1.9447755468	 0.0807167574	 0.165369
C	 1.3044231771	 3.2873434302	-0.0363979067	-0.073658
N	 2.5922248788	 3.6959078001	-0.2164316467	-0.288087
C	 3.5076165275	 2.5701538094	 0.0299504032	-0.185362
C	 2.5642031506	 1.3177607509	-0.0036181387	-0.249594
C	 2.8771244186	 0.3816949651	 1.0773696038	 0.290799
N	 3.1794337099	-0.3244437114	 1.9403339766	-0.327835
H	-0.9768077907	 1.8204880151	 0.1551430166	 0.059318
H	 0.5035966831	 4.017141184	-0.0488127068	 0.148378
H	 2.8744368168	 4.6307576835	 0.033143001	 0.261941
H	 4.286211766	 2.5216182563	-0.73426316	 0.138139
H	 3.9880357342	 2.6635197877	 1.0098572541	 0.142969
H	 2.6732384665	 0.7744484289	-0.9500707876	 0.146675
