19
gdb 77735	2.33454	1.98921	1.36443	1.7578	82.55	-0.2124	-0.0338	0.1786	999.6879	0.159009	-385.796476	-385.788673	-385.787729	-385.828166	31.665	
C	 0.4072734556	 1.4637129939	 0.3355016785	-0.492224
C	 0.0769996838	 0.0362467742	-0.0237122607	 0.250467
C	-1.1884741572	-0.6676288114	 0.6338442525	-0.092567
C	-2.0163019227	-1.7943399748	-0.0171421203	-0.262951
C	-0.9320972796	-2.4152906854	-0.8947499236	-0.144282
C	 0.2748734868	-1.9560500681	-0.5025630215	 0.011667
C	 0.1862885898	-1.1983863707	 0.8290525775	-0.147283
C	 0.8144942734	-0.7048550403	-1.2177766272	 0.076485
O	 0.5152710373	-0.4608891331	-2.5499385105	-0.41606
H	 1.4908180956	 1.6286765085	 0.3178051857	 0.120794
H	-0.0462122067	 2.1662968799	-0.372120268	 0.127518
H	 0.0478402652	 1.7187563011	 1.3374845191	 0.12061
H	-1.6500792327	-0.0425040691	 1.3963618956	 0.078171
H	-2.468105262	-2.4271353862	 0.7605746589	 0.10943
H	-2.8373572532	-1.4509054775	-0.6596471028	 0.103243
H	-1.1507897298	-2.6798810905	-1.9266853368	 0.092638
H	 0.7492565566	-1.3758900934	 1.7360999247	 0.090027
H	 1.8863449325	-0.5042218534	-1.1071765542	 0.097318
H	-0.4140870128	-0.6848855538	-2.684843537	 0.276999
