11
gdb 16794	3.78549	2.17535	1.49701	1.5395	51.73	-0.2802	-0.0563	0.224	758.6724	0.073236	-434.576995	-434.571052	-434.570108	-434.607222	22.121	
O	 0.0413371303	-0.0325351712	-0.0743334591	-0.333267
C	 0.0232727324	 1.1669492061	-0.0092016855	 0.454635
N	-1.112687358	 1.9686761831	 0.1162845873	-0.383879
C	-0.8818844352	 3.34167851	 0.0137541031	 0.454635
O	-1.7206170065	 4.2007337241	-0.0296388781	-0.333267
C	 0.6294277912	 3.4916866901	-0.0501081943	-0.096573
O	 1.2542522598	 2.9432699413	 1.117111889	-0.22843
C	 1.1942615807	 2.1346161696	-0.064431786	-0.096572
H	-2.0371123354	 1.5825451332	 0.2460251422	 0.280435
H	 1.0804474744	 4.3714262162	-0.4935891127	 0.141142
H	 2.1329125663	 1.8427723675	-0.5202798659	 0.141141
