21
gdb 50563	2.98697	1.31089	1.14718	2.9025	81.6	-0.2421	-0.0197	0.2224	1149.2681	0.184991	-387.0988	-387.090883	-387.089939	-387.131745	31.079	
O	 0.2193791268	-0.1718233001	 0.3680330591	-0.259501
C	 0.0788611688	 0.9641320382	-0.0072111186	 0.156763
C	 1.1958745225	 1.9864286718	-0.0813413823	-0.058637
C	 1.0645979058	 2.9195321682	-1.3192164795	-0.24825
C	 0.4616990915	 4.3151623923	-1.0096472244	-0.204109
C	 0.6985321112	 4.7208621126	 0.4531142687	 0.006389
C	 2.0388154069	 4.1310914679	 0.9841971224	-0.243096
C	 1.2460742715	 2.8135716114	 1.2264295773	-0.019546
C	-0.0195535026	 3.7073861425	 1.3823568166	-0.226721
H	-0.9234979343	 1.3342245793	-0.3293981148	 0.070127
H	 2.1242774184	 1.4090637039	-0.1518328464	 0.09285
H	 2.0687608453	 3.0562141845	-1.7293739824	 0.114831
H	 0.4913368575	 2.4249619069	-2.1116019558	 0.10163
H	 0.9050829675	 5.0516980058	-1.6891312307	 0.096878
H	-0.6174568238	 4.3266690658	-1.2057405849	 0.099001
H	 0.5044690329	 5.7845778575	 0.6100794368	 0.061132
H	 2.905886328	 4.1058888419	 0.3178812517	 0.092506
H	 2.3315241862	 4.5925817103	 1.9310362857	 0.10071
H	 1.5316508343	 2.1780555142	 2.0670686798	 0.077528
H	-0.1080086011	 4.0817611519	 2.4057122231	 0.099136
H	-0.9912198135	 3.3193800732	 1.0633247986	 0.090379
