21
gdb 91763	2.41784	1.74075	1.5892	2.3288	76.54	-0.2476	0.0763	0.324	993.4914	0.185904	-424.250574	-424.243089	-424.242145	-424.282002	30.869	
C	-0.1234139659	 1.5198531138	-0.07312435	-0.414971
C	-0.003413429	 0.0094375381	 0.0462813255	 0.15258
O	 0.6597203637	-0.5356847811	-1.1178793624	-0.288994
C	 1.53755823	-1.5738582785	-0.7099162132	 0.218388
C	 1.0295466769	-1.9901553951	 0.6733942606	-0.25462
C	 0.7891601405	-0.5772279032	 1.2317708353	-0.050072
C	 2.1725978146	 0.0753288039	 1.4419088734	-0.23719
C	 3.0098405502	 0.0693997581	 0.146234929	-0.069519
O	 2.8747400099	-1.1264903122	-0.6196520259	-0.262796
H	 0.8499511749	 2.0145034409	-0.0977265634	 0.122768
H	-0.657136128	 1.7792178561	-0.9917825554	 0.129906
H	-0.6926648372	 1.9179950537	 0.7734142516	 0.114011
H	-1.021488968	-0.4105282691	 0.0803359268	 0.071699
H	 1.5391163083	-2.352997224	-1.4749347703	 0.083681
H	 0.0989642952	-2.561549111	 0.5964550153	 0.099428
H	 1.7698579778	-2.5752398638	 1.2215655628	 0.104147
H	 0.2037211717	-0.5581765345	 2.1548380262	 0.067017
H	 2.0803895314	 1.1072958834	 1.7985177076	 0.099657
H	 2.69361843	-0.4852731098	 2.2263384981	 0.103018
H	 2.7341288292	 0.9255295936	-0.4814436282	 0.106423
H	 4.075617334	 0.1571446808	 0.3748114066	 0.105437
