19
gdb 41007	3.06733	1.97737	1.48948	1.5143	79.07	-0.236	0.0771	0.3131	921.3476	0.161861	-385.805432	-385.799126	-385.798182	-385.835667	27.473	
C	-0.0595628262	 1.4862665695	 0.2094474805	-0.276909
C	 1.4975560018	 1.5594929403	-0.0636583053	-0.371772
C	 1.2845909327	 0.2657374267	-0.8770712293	 0.362992
C	 0.0667498973	-0.0517705291	-0.0605790225	 0.106218
O	-0.6795544364	-0.9106403448	-0.9250796208	-0.299284
C	 0.254764269	-1.055410828	-1.9968392657	 0.136156
C	 0.7878536531	 0.3322138728	-2.3804924803	-0.110699
C	 2.1243701331	-0.28912508	-2.841698381	-0.261389
C	 1.7953912132	-1.0453834009	-1.5362494688	-0.22206
H	-0.4137870053	 1.7945803053	 1.1948713743	 0.100644
H	-0.627074235	 2.0052872029	-0.5651226678	 0.116941
H	 1.8839238049	 2.4345129693	-0.588965678	 0.108927
H	 2.0697944833	 1.4097301643	 0.8560724019	 0.111299
H	 0.2690827803	-0.5774781905	 0.8808133537	 0.076758
H	-0.1012573569	-1.7754273928	-2.7330325002	 0.087472
H	 0.2171878863	 1.1368525929	-2.8464148809	 0.071638
H	 2.1009288156	-0.8624856422	-3.7734679447	 0.090702
H	 3.0019094425	 0.3599766099	-2.8078695237	 0.099747
H	 2.3516453167	-1.8538517057	-1.0602849415	 0.072621
