18
gdb 15252	3.22624	1.30105	1.10836	2.8409	70.15	-0.2408	-0.0183	0.2225	1128.6634	0.151868	-384.934145	-384.925184	-384.92424	-384.968095	32.033	
C	-0.0617956565	 1.5717605394	-0.2704892432	-0.379435
C	 0.0127681932	 0.1016941668	 0.1606937251	-0.201452
C	-1.3537613114	-0.5574601315	 0.1247853212	-0.040612
C	-1.8578615418	-1.2491605861	-1.0880079747	 0.074614
O	-0.9937787962	-1.2990497888	-2.1807514662	-0.40967
C	-1.5542434019	-2.0862998055	 0.1661696219	-0.190249
C	-0.4052322869	-3.0148738976	 0.1811943585	 0.154991
O	-0.3925567583	-4.05312996	 0.802416692	-0.278142
H	 0.9226550036	 2.0459223847	-0.2146666552	 0.115222
H	-0.4203978818	 1.6570417328	-1.3008332816	 0.130927
H	-0.743115702	 2.141215397	 0.3714700962	 0.112953
H	 0.7055855168	-0.428735728	-0.4965466082	 0.120846
H	 0.4193565543	 0.0315049872	 1.1766888557	 0.105184
H	-2.109500109	-0.0220454997	 0.6947654222	 0.10067
H	-2.9130987132	-1.1496043914	-1.3407077523	 0.100634
H	-1.1868822185	-2.0941235085	-2.6886642228	 0.297747
H	-2.4051077467	-2.4505603234	 0.7324731819	 0.104632
H	 0.4658998464	-2.7118169974	-0.4352317805	 0.081141
