16
gdb 63613	2.93897	1.07104	0.95762	3.8332	72.88	-0.2932	-0.098	0.1952	1268.7988	0.120709	-437.890136	-437.880706	-437.879762	-437.924762	33.248	
C	 0.2055478698	 1.4875433284	-0.413526012	-0.468146
C	-0.0262854973	 0.0461049726	-0.0264268538	 0.386557
C	-1.2565135263	-0.611965901	-0.6126637821	-0.448716
O	 1.1392857382	-0.7765141152	 0.0139762878	-0.256386
C	 0.5110576844	-0.5167866492	 1.2567600589	-0.124419
C	 1.2548980968	 0.3314397525	 2.2353406735	 0.307143
O	 2.2208651629	 1.0111285351	 1.9962975574	-0.274
C	 0.6729839671	 0.2984358905	 3.597073486	 0.211276
N	 0.204887789	 0.2691733793	 4.6540309953	-0.296657
H	 1.1162797319	 1.8805755633	 0.0382086418	 0.165008
H	 0.3036215739	 1.5554495852	-1.5020521105	 0.136869
H	-0.6459557475	 2.1077828857	-0.1161072727	 0.130105
H	-1.2152276005	-0.5664100642	-1.7060664006	 0.139195
H	-1.323024228	-1.6605941714	-0.3147544285	 0.136176
H	-2.1641245464	-0.0929939242	-0.289285466	 0.13529
H	-0.0275742979	-1.3513872674	 1.7069273553	 0.120706
