18
gdb 79602	2.61767	1.59495	1.15295	2.6782	76.18	-0.2399	-0.0292	0.2107	1091.5488	0.148286	-401.925078	-401.917405	-401.916461	-401.957072	30.103	
C	 0.0942833399	 1.5883167043	 0.0185110745	-0.423134
C	 0.0500333446	 0.0751405514	 0.030729467	-0.032718
C	 0.5891862992	-0.6785270314	-1.1490978319	-0.022626
C	 1.3733155105	-0.6755038391	 0.1448729251	-0.169595
C	 1.370026036	-2.1061479143	 0.627955759	 0.398818
O	 1.9971144796	-2.5481904613	 1.5571348942	-0.32249
C	 0.5947762559	-2.9324585374	-0.3828421483	-0.137443
C	-0.8544685668	-2.6634630365	-0.6193388109	-0.25246
N	 0.1574393841	-2.0542249087	-1.4802584993	-0.106525
H	 0.9613379289	 1.9555202655	-0.5396027168	 0.123291
H	-0.8057783965	 1.998988644	-0.4512390105	 0.12762
H	 0.1578377821	 1.9883340661	 1.0356274441	 0.129987
H	-0.7988891423	-0.3304292284	 0.5694864871	 0.096558
H	 0.9130801141	-0.1174949679	-2.0186171199	 0.10567
H	 2.2792482544	-0.1053292205	 0.3149699023	 0.111106
H	 1.0181650515	-3.9017375858	-0.6306929615	 0.117145
H	-1.449633142	-3.4343215559	-1.1011856181	 0.129006
H	-1.4073397332	-2.0611740741	 0.0922344539	 0.12779
