25
gdb 60125	2.49125	1.05764	0.89398	0.9837	89.97	-0.2256	0.08	0.3056	1486.7493	0.225855	-389.482876	-389.47156	-389.470616	-389.519465	41.328	
C	 0.0306853035	 1.5045536502	 0.1227104817	-0.39195
C	-0.0113340871	-0.0151130744	 0.0156062747	 0.156232
C	 0.3822272535	-0.7018801789	 1.3252599216	-0.39006
O	-1.3345847716	-0.3454595924	-0.4064605249	-0.261243
C	-1.5166233337	-1.66774425	-0.8153542009	 0.110979
C	-2.3259877967	-2.626297318	 0.0396175205	-0.053563
C	-2.8525987193	-2.2172656392	 1.3977758728	-0.404931
C	-2.9032483429	-2.0529399477	-1.2501261881	-0.076046
C	-4.0276119277	-1.0386195098	-1.259918328	-0.400196
H	 1.036129403	 1.8453198908	 0.3867769519	 0.111481
H	-0.2569216522	 1.9623145254	-0.8272454631	 0.121759
H	-0.6649522957	 1.8500530667	 0.8942452687	 0.120839
H	 0.690382205	-0.3382452352	-0.7725161004	 0.065202
H	-0.2846364446	-0.3938837682	 2.1367896934	 0.120541
H	 0.3334460254	-1.7901513777	 1.233885691	 0.122161
H	 1.4072010634	-0.4316136133	 1.5996964394	 0.110811
H	-0.6723703625	-2.0670285385	-1.379425528	 0.075918
H	-2.0215047137	-3.6690286867	-0.0204495735	 0.074585
H	-2.9792333648	-1.1352075632	 1.4693933046	 0.128162
H	-3.819047628	-2.6885218506	 1.6087175384	 0.111372
H	-2.1586483166	-2.5186194681	 2.1900143724	 0.111338
H	-2.9410208229	-2.7521998158	-2.0820818106	 0.079285
H	-3.8850332222	-0.2663714761	-0.502701163	 0.132289
H	-4.0775962979	-0.5342756128	-2.2309807126	 0.114689
H	-4.9961521438	-1.5199044268	-1.0852485378	 0.110347
