17
gdb 63135	2.41555	1.89835	1.37507	3.3179	67.87	-0.2253	-0.0168	0.2085	964.0529	0.134909	-458.941198	-458.93321	-458.932266	-458.973165	31.268	
C	-0.1052408212	 1.6110300745	 0.0457171592	-0.479589
C	 0.0001164695	 0.0991583797	-0.0026659059	 0.409049
O	-1.2642212052	-0.5385586167	 0.0266787695	-0.472339
C	 0.8354149318	-0.6161356892	-1.1241884571	-0.230904
C	 2.2246278414	-0.0087919492	-0.8957889917	-0.103751
O	 2.2853529917	-0.0081105523	 0.5645569252	-0.278643
C	 1.0379537141	-0.611002628	 0.9348135926	-0.09188
C	 0.9417656207	-1.7734050585	-0.0890398023	 0.452093
O	 0.9440652139	-2.9624032529	-0.0999290813	-0.311757
H	 0.8745596799	 2.0831759927	 0.1356902925	 0.144451
H	-0.6103565527	 1.9925421244	-0.8465909043	 0.132164
H	-0.6950145713	 1.9132689831	 0.9193262425	 0.113725
H	-1.7040427159	-0.3030163784	 0.8512400828	 0.285894
H	 0.4665237644	-0.7429054388	-2.1389588056	 0.100669
H	 3.0328997547	-0.6250944283	-1.3043044183	 0.124348
H	 2.3341984859	 1.0152908397	-1.2674136112	 0.112169
H	 0.9480195784	-0.6925997318	 2.0161253936	 0.094301
