17
gdb 102363	1.76417	1.63089	1.14304	3.9546	71.12	-0.2557	-0.04	0.2157	1148.5182	0.130664	-458.908331	-458.897855	-458.896911	-458.944059	36.428	
C	 0.0571441216	 1.423592456	-0.0621414904	-0.258688
O	-0.060437363	 0.016497458	-0.2290946987	-0.290697
C	-1.3479070505	-0.5560542468	 0.004278341	 0.036015
C	-2.2759940937	-0.3069010234	-1.2055198735	-0.078468
O	-1.6201059041	-0.648049205	-2.4032576333	-0.42632
C	-1.0578066502	-2.075928148	 0.1338946737	 0.147504
O	-1.8897631644	-2.9252062702	-0.0019667595	-0.236462
C	-1.9631881606	-0.1144277522	 1.2549528191	 0.319867
C	-2.4858179709	 0.2310129442	 2.2811638491	-0.450627
H	 1.1061415112	 1.6618850904	-0.2489932567	 0.138309
H	-0.5657099241	 1.9802597235	-0.7745842583	 0.119892
H	-0.2108679262	 1.7284870661	 0.9551879551	 0.135269
H	-3.1499807541	-0.9545435853	-1.103494521	 0.143525
H	-2.6147147715	 0.7398323205	-1.1961370274	 0.096565
H	-0.7299990803	-0.2792920007	-2.3440488074	 0.289168
H	 0.0032393619	-2.2868786188	 0.3806918828	 0.104762
H	-2.951580651	 0.5298355416	 3.1884298253	 0.210387
