19
gdb 36658	2.96724	1.2356	1.0367	2.8558	78.52	-0.2311	0.0263	0.2574	1196.712	0.160663	-382.035899	-382.027419	-382.026475	-382.069764	31.777	
N	 0.7384096259	 0.0579675106	 1.6040953226	-0.319655
C	 0.3843826599	 0.7094516029	 0.7168738235	 0.268364
C	-0.0265348126	 1.532541134	-0.443271253	-0.295624
N	 0.9753515163	 2.4505147247	-0.9601456653	-0.290031
C	 1.3439095064	 3.5225301296	-0.0674915414	 0.036927
C	 2.3004679667	 3.4637914097	 1.1006790545	-0.061805
C	 3.478778124	 2.5256367526	 0.8119270198	-0.23879
C	 3.8145933744	 3.3553224264	-0.4690981235	-0.243733
C	 2.6260255391	 4.2805349824	-0.1748594321	-0.097662
H	-0.3374297217	 0.8515290688	-1.2428211007	 0.153054
H	-0.9158071207	 2.1047221496	-0.1548792115	 0.155093
H	 1.7863982875	 1.9453727187	-1.2951950498	 0.236072
H	 0.490390195	 4.170234601	 0.1272334707	 0.096128
H	 2.0132116971	 3.8188477455	 2.0834799302	 0.087428
H	 4.2675657711	 2.5991909568	 1.562558513	 0.111292
H	 3.2302916083	 1.4681729187	 0.6832866927	 0.11068
H	 4.7713530228	 3.8734973556	-0.3802255025	 0.110907
H	 3.8088202782	 2.83383272	-1.433710593	 0.093641
H	 2.6327935523	 5.3542490126	-0.3239308442	 0.087711
