21
gdb 79132	2.20415	2.09782	1.33945	0.7012	90.28	-0.1937	-0.0222	0.1715	1041.9846	0.182219	-349.865347	-349.857275	-349.856331	-349.897237	32.921	
C	 0.4074843021	 1.3335664085	 0.7045455192	-0.411352
C	 0.0989306296	-0.0423945938	 0.1414893576	-0.000897
C	 0.8289639502	-0.5732361963	-1.1486030031	-0.084291
C	 2.1261992924	-1.4813048735	-1.0057367785	-0.041356
C	 2.9866204583	-1.5915412399	 0.2635514375	-0.310983
C	 1.9281547937	-1.262587342	 1.3174927637	 0.273661
C	 2.2777161011	-0.5214632515	 2.5677942908	-0.474872
C	 0.6995299662	-1.3422584231	 0.7458666186	-0.077687
C	 0.7797537386	-1.9846966922	-0.6513762329	-0.105717
H	 1.481145586	 1.4878967119	 0.8386504197	 0.117019
H	 0.0404045518	 2.103655352	 0.0166117069	 0.112367
H	-0.0854715992	 1.495410133	 1.6694541663	 0.116946
H	-0.9775839593	-0.1241498676	-0.0612639715	 0.076558
H	 0.5770572295	-0.2362916384	-2.1532520743	 0.079113
H	 2.5642449073	-1.7207267799	-1.9737689022	 0.073306
H	 3.4704277615	-2.5792003729	 0.310540205	 0.102766
H	 3.7908328168	-0.8479062923	 0.3451889978	 0.102896
H	 3.0482744702	 0.2423532799	 2.401913747	 0.118863
H	 1.3996213016	-0.0518853497	 3.0190206367	 0.124858
H	 2.6907785051	-1.2142524653	 3.3147818441	 0.126794
H	 0.2330318264	-2.8443805169	-1.0172214686	 0.082008
