18
gdb 101072	2.24673	1.2457	1.09668	4.4488	72.93	-0.2726	0.0037	0.2763	1224.7021	0.144521	-439.060226	-439.050339	-439.049395	-439.095602	34.627	
C	 0.1842798682	 1.3160196091	 0.3145465129	-0.23571
O	-0.0336441498	-0.0557601353	 0.0614115384	-0.249912
C	 0.5354372558	-0.541261273	-1.1374475494	 0.060009
C	 2.0641037557	-0.596388178	-1.1214536968	-0.431445
C	-0.069287951	-1.9266605187	-1.3368840081	 0.257808
C	-1.2989288798	-2.1049050353	-2.1291766088	-0.213284
O	-0.0189296235	-2.4288510852	-2.6730949877	-0.262202
C	 0.2313673757	-2.9022689304	-0.3004680632	 0.279108
N	 0.4815173278	-3.6719908052	 0.5239885365	-0.335663
H	 1.2368072958	 1.5426977255	 0.5306813137	 0.118085
H	-0.1403690149	 1.9390647138	-0.5332667044	 0.106549
H	-0.4139795692	 1.5731965238	 1.1912619256	 0.137807
H	 0.2022399598	 0.0690136767	-1.9931734884	 0.078403
H	 2.4251072971	-1.0703953007	-2.0388499316	 0.141859
H	 2.4953492	 0.4062028049	-1.0701171465	 0.124353
H	 2.4171808917	-1.1738200863	-0.2621597291	 0.149068
H	-1.948422835	-2.9529421017	-1.92618498	 0.14328
H	-1.7782185045	-1.2199349239	-2.5431210932	 0.131887
