15
gdb 127566	3.22003	1.48256	1.02291	7.0612	72.59	-0.2292	-0.0419	0.1873	1095.5299	0.114258	-450.160453	-450.152451	-450.151507	-450.193067	29.69	
C	 0.0523119503	 1.4541921148	-0.0512286566	-0.342986
N	 0.0169701274	 0.0012303099	 0.0135731004	-0.061496
N	-0.0741852678	-0.6386768159	-1.1847834723	-0.1773
C	-0.0619371087	-1.9254012123	-1.1532504961	-0.084536
C	 0.0488105208	-2.7378090916	 0.0810935893	 0.352649
O	 0.0828373722	-3.9523833364	 0.0399000513	-0.367936
N	 0.0949525583	-2.0065989009	 1.260088952	-0.397897
C	 0.082420047	-0.7074566788	 1.1850893215	 0.500122
N	 0.1940716501	 0.0258408867	 2.341869337	-0.566603
H	 0.9179533695	 1.8420995794	 0.4935687198	 0.154312
H	 0.130722486	 1.7231445775	-1.1032010373	 0.172197
H	-0.8629195282	 1.8997677474	 0.358117435	 0.138301
H	-0.1317399297	-2.4366316314	-2.1081398222	 0.141849
H	 0.0904871444	-0.5499680565	 3.1649953553	 0.277011
H	-0.2587636116	 0.924401988	 2.3933843031	 0.262312
