16
gdb 127987	3.96096	1.30217	1.00914	4.0791	75.01	-0.2173	-0.0006	0.2167	1155.9006	0.124745	-434.014567	-434.006558	-434.005614	-434.047691	28.809	
C	 0.0029633837	 1.533506255	 0.02739026	-0.325192
N	-0.1050916121	 0.0824023256	 0.0269882346	-0.375302
C	 0.4833460987	-0.5641772198	 0.9287461311	 0.513103
O	 1.2876687723	-0.0705813058	 1.9559116492	-0.275386
N	 1.5794784435	-1.1119862094	 2.9352086919	-0.235463
C	 1.0991649717	-2.1473909519	 2.3494073433	 0.387186
C	 0.5455818888	-3.5532982039	 2.4906372062	-0.351518
C	-0.2923304442	-3.1785989757	 1.2059855428	-0.171272
N	 0.5259397808	-1.9404598508	 1.1304234633	-0.13799
H	 0.8775710775	 1.856149411	-0.5524150797	 0.125097
H	-0.8825598525	 1.953866995	-0.4575105292	 0.119979
H	 0.0939291548	 1.9636638951	 1.0328386427	 0.124933
H	 1.2720852512	-4.3521648173	 2.3379433739	 0.153302
H	-0.0266348608	-3.7368084376	 3.3995182236	 0.156095
H	-0.1843057602	-3.827154541	 0.3362441203	 0.143701
H	-1.3476368533	-2.9803063488	 1.4072518861	 0.148726
