22
gdb 7197	5.73205	0.71417	0.66415	0.2259	75.47	-0.258	0.0707	0.3287	1734.4584	0.197972	-387.341796	-387.331189	-387.330245	-387.377884	37.296	
C	-0.0024237596	 1.584425802	 0.0746603717	-0.38192
C	 0.0012809929	 0.0543855046	 0.0323109124	-0.163565
C	-1.4057558234	-0.5485170891	-0.0301431563	-0.18203
C	-1.4184496783	-2.0816742143	-0.0094857764	 0.113638
O	-0.7644273358	-2.5955064394	 1.1546338577	-0.430119
C	-2.8330413665	-2.652073356	-0.1513744588	-0.188437
C	-2.8639890153	-4.1742030566	-0.2007829345	-0.076297
O	-4.2227100909	-4.5770847317	-0.307263393	-0.424169
H	 1.0154982238	 1.9844136289	 0.1174264594	 0.111727
H	-0.4887477506	 2.0072538698	-0.811799325	 0.111788
H	-0.5420916251	 1.9560578985	 0.9532263449	 0.110983
H	 0.5761654607	-0.2878565972	-0.8385066304	 0.092992
H	 0.5176370573	-0.3465383899	 0.9109753248	 0.107673
H	-2.0050700826	-0.1808730661	 0.817351174	 0.081603
H	-1.9211764376	-0.2021138087	-0.9357674773	 0.094563
H	-0.8008962809	-2.448892626	-0.8407967323	 0.084574
H	-1.2649823013	-2.2942720605	 1.9219528957	 0.275864
H	-3.4532576888	-2.3136507366	 0.6904642273	 0.093153
H	-3.3013424936	-2.2567195619	-1.0605244923	 0.104815
H	-2.2748281419	-4.5271717177	-1.0636351236	 0.081974
H	-2.3898898806	-4.5794191126	 0.7037651466	 0.096654
H	-4.2510140318	-5.5379582796	-0.2893148248	 0.284537
