21
gdb 119878	3.07677	1.09466	0.83227	1.5154	82.05	-0.2024	0.064	0.2664	1439.0382	0.18302	-420.428531	-420.418801	-420.417857	-420.463739	34.579	
C	 0.0422194948	 1.5010328553	-0.1177375569	-0.39299
C	-0.0257949957	-0.0121307469	-0.0480163451	-0.035141
O	 0.7581343239	-0.5316610103	-1.1368704928	-0.277332
C	 0.8039723555	-1.8623559362	-1.2308912759	 0.496001
N	 0.1992622768	-2.6920834528	-0.4670409262	-0.382898
C	 0.5948861947	-4.0226388305	-0.9522889587	-0.166983
C	 1.2659600654	-3.7837728282	-2.3314548068	-0.180087
N	 1.6162245364	-2.3664072926	-2.2376776492	-0.130146
C	 1.9125919877	-1.6196846893	-3.4413312654	-0.33748
H	 1.0744558177	 1.8508489334	-0.0256977782	 0.127857
H	-0.3626339116	 1.8676300779	-1.0654535228	 0.126523
H	-0.5431727195	 1.9355478163	 0.6979591495	 0.122236
H	 0.3764467297	-0.4008131046	 0.8929041626	 0.122603
H	-1.050941589	-0.3842128802	-0.1418961104	 0.122913
H	 1.3023786191	-4.478625721	-0.2464553474	 0.103293
H	-0.268903259	-4.6903074583	-1.0204992847	 0.105003
H	 2.1487232976	-4.4065853161	-2.5055332517	 0.106657
H	 0.5615904409	-3.9512610125	-3.1636627997	 0.091543
H	 1.1050095526	-1.6899056709	-4.1893142079	 0.107138
H	 2.0621292414	-0.569914439	-3.1872951942	 0.147838
H	 2.8311256806	-2.0011300934	-3.8986289081	 0.123451
