21
gdb 95865	2.29007	1.31866	1.06944	1.3652	83.34	-0.2551	0.053	0.3082	1228.9757	0.183227	-387.079315	-387.070367	-387.069422	-387.112528	35.276	
O	-0.0928915055	 1.4813848405	 0.0789173996	-0.44157
C	 0.0467417038	 0.0652981773	 0.0505701313	 0.13752
C	 0.7647872132	-0.4664266462	 1.2967956123	-0.215608
C	 0.7937602319	-2.0020363506	 1.3197557392	-0.205642
C	-0.6210801711	-2.5842743646	 1.2096144585	-0.197094
C	-1.3633904544	-2.0592845347	-0.0455773192	-0.173881
C	-1.3644315814	-0.5108353417	-0.0553674051	-0.201113
C	-0.7929728761	-2.6096822819	-1.2761779023	 0.355682
C	-0.3229975704	-3.0656693178	-2.2852369522	-0.504655
H	 0.7882784931	 1.8626045447	 0.1476433422	 0.277565
H	 0.6142575509	-0.2423047033	-0.842823693	 0.075708
H	 1.7865143814	-0.0660992266	 1.3350773847	 0.079385
H	 0.2401264644	-0.0836290054	 2.1824064011	 0.098859
H	 1.3999503913	-2.3720234667	 0.4836092392	 0.111104
H	 1.2744323316	-2.3574966043	 2.2373956174	 0.094636
H	-0.5884155984	-3.6777947342	 1.1879620428	 0.10347
H	-1.2074426397	-2.2951981057	 2.091259085	 0.094981
H	-2.4070797628	-2.3941468146	 0.0101084311	 0.103062
H	-1.9487581145	-0.1535207819	 0.8012615138	 0.101158
H	-1.8475640934	-0.1330362011	-0.9606509087	 0.111373
H	 0.0828896661	-3.4690549211	-3.1796644075	 0.195059
