21
gdb 103557	2.59217	1.16243	0.99538	3.6868	79.06	-0.2347	-0.0129	0.2219	1286.0556	0.179494	-424.23767	-424.227468	-424.226524	-424.272695	37.622	
C	-0.6325332658	 1.242744034	-0.0474185324	-0.415476
C	 0.0995112742	-0.0918411852	-0.0646049791	-0.146667
C	 1.455763666	-0.1847417034	-0.779490322	 0.390679
O	 1.9093985763	 0.3577819536	-1.7465314499	-0.303017
C	 2.0368725663	-1.0953369979	 0.3079081692	-0.37584
C	 0.8165257476	-0.6945695355	 1.2066505585	 0.311528
C	 1.1973106059	 0.346704228	 2.2598349326	-0.452066
C	 0.0741245816	-1.8689494227	 1.8286925688	-0.138301
O	 0.9343526506	-2.4945988397	 2.7694949711	-0.423393
H	-0.0094547716	 2.0408307435	 0.365002197	 0.126254
H	-0.9014189652	 1.5303031885	-1.0681436548	 0.135538
H	-1.5531106571	 1.1895919782	 0.5426018095	 0.116708
H	-0.5517305409	-0.86560673	-0.4972628863	 0.09487
H	 2.0232007347	-2.1492695064	 0.0106956078	 0.125923
H	 3.039142458	-0.8485300081	 0.6659594438	 0.127494
H	 1.7904356961	 1.1589814828	 1.8272871848	 0.116522
H	 0.3081971924	 0.7902400933	 2.7211969801	 0.112158
H	 1.7884619691	-0.1244543878	 3.0487283434	 0.13945
H	-0.8503697668	-1.5095457256	 2.3108952254	 0.08729
H	-0.2210907895	-2.575239115	 1.0352319455	 0.080289
H	 0.4556076382	-3.2159440546	 3.1877268569	 0.290056
