19
gdb 72203	3.25024	1.79076	1.55561	1.4406	77.17	-0.2303	0.0739	0.3042	915.8404	0.161807	-385.848648	-385.84211	-385.841166	-385.878958	28.646	
O	-0.0070407047	 1.3250632337	 0.1257703388	-0.483799
C	 0.0683202072	-0.062741895	 0.0120698596	 0.411719
C	-0.1407451484	-0.7144911955	-1.3461728273	-0.288136
C	 0.0211094856	-2.2083040014	-1.0416491542	-0.049671
C	-1.2289927267	-2.7385504697	-0.2807313405	-0.237952
C	-0.5448689822	-2.3053529897	 1.0319451774	-0.030447
C	-0.3867742605	-0.7858706039	 1.2621249185	-0.113251
C	 1.0853443301	-0.8256958683	 0.8198954594	-0.161144
C	 0.8457729332	-2.265903009	 0.3248791023	-0.054554
H	 0.724058891	 1.7019915673	-0.3769556417	 0.279673
H	-1.1179205148	-0.4837612372	-1.7834672526	 0.101565
H	 0.6301505966	-0.3530512849	-2.0414390821	 0.078993
H	 0.3785203147	-2.7949180827	-1.888615144	 0.063252
H	-2.1968689688	-2.2977455095	-0.5400242842	 0.091017
H	-1.3070480097	-3.8287019383	-0.3374442778	 0.093271
H	-0.7048357896	-2.8730352097	 1.9501770285	 0.063721
H	-0.8353613496	-0.2052120804	 2.059251456	 0.089587
H	 1.9669536046	-0.3894519636	 1.2723817996	 0.081709
H	 1.5943969018	-3.0445790722	 0.4526869243	 0.064447
