20
gdb 50078	3.15274	0.9499	0.7909	3.189	81.29	-0.2469	-0.0252	0.2216	1464.6895	0.170875	-403.118842	-403.109981	-403.109037	-403.153629	32.611	
O	-0.31666725	 0.3045451085	 0.7587957098	-0.261209
C	 0.2972149903	 0.675298596	-0.2108211115	 0.174031
C	 1.3760994432	 1.6993801629	-0.160712969	-0.129172
N	 2.3347181446	 1.6809883986	-1.2862285609	-0.339755
C	 1.4532714496	 2.8339794858	-1.1527450654	-0.039218
C	 0.4404847083	 3.0899157682	-2.2339740148	 0.06188
C	-0.7885696168	 3.9870088255	-1.9066249707	-0.233754
C	-0.6476194152	 4.6263302828	-3.314377451	-0.209781
C	 0.80961534	 4.0941824666	-3.3665248757	-0.235076
H	 0.1021090533	 0.2632880512	-1.2244902466	 0.085357
H	 1.7338298723	 1.9100862228	 0.8443449579	 0.103259
H	 3.2712277326	 1.8825839044	-0.9475124789	 0.24303
H	 1.8842686572	 3.7439732724	-0.7312200898	 0.089054
H	 0.119404298	 2.1410231593	-2.6711811964	 0.079668
H	-1.7272821155	 3.4888099787	-1.6536001418	 0.105549
H	-0.5541469696	 4.705380335	-1.113855963	 0.099996
H	-1.2862637537	 4.1291416323	-4.0499320978	 0.10634
H	-0.7978273137	 5.7047464148	-3.399091935	 0.09903
H	 1.5245906373	 4.8446554541	-3.0117985457	 0.096215
H	 1.1788510677	 3.68149259	-4.3077871235	 0.104558
