14
gdb 18220	4.53132	1.69798	1.40076	3.0811	62.69	-0.2471	-0.0372	0.21	854.4334	0.107078	-382.527785	-382.521187	-382.520243	-382.55902	24.492	
O	-0.0536323294	-0.033801103	-0.1465380069	-0.249051
C	 0.0194187333	 1.1361736322	 0.1241817124	 0.150811
C	 1.30908873	 1.9506460565	 0.0561714708	-0.146673
C	 1.3046055848	 2.8831156073	-1.1489910683	-0.097625
C	 1.439072364	 4.1656966126	-0.8007914506	-0.081534
C	 1.5164708988	 4.2951694318	 0.6829373323	 0.00055
O	 0.3271196731	 3.8208352145	 1.3607289638	-0.24993
C	 1.4349397454	 2.9281056182	 1.2296527031	 0.004088
H	-0.8656167381	 1.7283883418	 0.4347725602	 0.10736
H	 2.1433950215	 1.2421111231	 0.0168202594	 0.106644
H	 1.1653397593	 2.5064206479	-2.1555499253	 0.122501
H	 1.4738899763	 5.0085315164	-1.4793484079	 0.11475
H	 2.0252623664	 5.1165887663	 1.1765096836	 0.10749
H	 1.9013255446	 2.6167462245	 2.1598363434	 0.110619
