25
gdb 90712	3.02703	1.15031	1.106	0.1317	92.49	-0.2571	0.0804	0.3374	1305.662	0.228603	-352.343433	-352.333909	-352.332965	-352.37703	38.094	
C	 0.1634550741	 1.6392918451	-0.1261087467	-0.411268
C	 0.0687112244	 0.1273936518	 0.0172347839	 0.04987
C	 0.9362653009	-0.790385776	-0.8988405741	-0.284318
C	 1.274169433	-1.6953924953	 0.324545833	-0.03437
C	 0.6541738873	-0.5969279797	 1.2585680612	-0.027108
C	 2.0990634337	-0.2129858627	 1.6960809539	-0.291843
C	 2.66043147	-1.5069890086	 1.0136330987	 0.345981
C	 2.8746696336	-2.6181058831	 2.0470061822	-0.433353
C	 3.9015426988	-1.3508427693	 0.1406989333	-0.451843
H	 1.1979292101	 1.9920719383	-0.0580867957	 0.112933
H	-0.2280744684	 1.9640165666	-1.0968814958	 0.112135
H	-0.4144037241	 2.1505445493	 0.6523869848	 0.111511
H	-0.9818614108	-0.1714310669	-0.078728868	 0.068544
H	 0.400244258	-1.2830846147	-1.7135938248	 0.09582
H	 1.8036690252	-0.2835582848	-1.3320343406	 0.093732
H	 0.8888064491	-2.7162298024	 0.2685730749	 0.050644
H	-0.0335608494	-0.8250489015	 2.0748462792	 0.05512
H	 2.4680914022	 0.7143003327	 1.2486895909	 0.09097
H	 2.2639723104	-0.1508018094	 2.7752818451	 0.092737
H	 1.987747138	-2.7564946751	 2.6748441684	 0.111077
H	 3.0876258987	-3.5748881519	 1.5559144386	 0.107784
H	 3.7176985307	-2.3829165075	 2.7070890504	 0.10679
H	 4.7781496017	-1.1141145528	 0.7555807497	 0.109689
H	 4.1220898187	-2.2761417787	-0.4049685252	 0.108989
H	 3.7932560442	-0.5476575433	-0.5943660073	 0.109776
