19
gdb 62043	4.01899	0.69584	0.64544	5.0508	77.38	-0.2472	0.0265	0.2738	1729.2705	0.158172	-419.182189	-419.172406	-419.171461	-419.218137	34.426	
C	 0.0880258839	 1.5160424156	-0.1534812665	-0.395601
C	-0.0233564481	-0.0116482207	 0.044319761	-0.097563
N	 0.8119216686	-0.5890847536	 1.0942343429	-0.295593
C	 2.2461181639	-0.5793433299	 0.8281599439	-0.166387
C	 2.96256389	-1.278226792	 1.9553365404	 0.083331
C	 4.2905292694	-0.853568291	 2.4093925225	-0.179404
O	 3.1212935752	-0.5070959167	 3.1530298445	-0.237185
C	-1.4279331302	-0.3766919833	 0.3053594284	 0.27995
N	-2.5356403133	-0.6315869113	 0.5112573898	-0.317753
H	 1.1152735453	 1.7898527689	-0.4062907498	 0.129366
H	-0.5666096208	 1.8520882127	-0.9623690622	 0.140268
H	-0.1998391772	 2.0415538355	 0.7617109957	 0.136482
H	 0.2601687817	-0.5059944926	-0.8946004063	 0.130794
H	 0.6242113169	-0.1350104824	 1.9832253118	 0.238897
H	 2.4251189389	-1.1244078719	-0.1085281595	 0.111853
H	 2.6794982595	 0.4281142029	 0.7106918323	 0.093248
H	 2.652246556	-2.3083923374	 2.1295946411	 0.10807
H	 4.9519684089	-1.5755043456	 2.8853711934	 0.121795
H	 4.7911321412	-0.0236197573	 1.9121354568	 0.115433
