17
gdb 115129	2.60013	1.42715	1.08861	4.9101	71.61	-0.2389	-0.068	0.1709	1139.8276	0.136338	-455.151411	-455.142774	-455.14183	-455.185203	31.199	
C	 0.0493988844	 1.3365957606	 0.3263178076	-0.326538
N	-0.068419056	-0.1015019052	 0.0985410072	-0.294254
C	-1.4243728733	-0.55174525	-0.2016418548	-0.095741
C	-1.4305881277	-2.0299501944	-0.5960325466	-0.117964
O	-1.553336418	-2.79813544	 0.621755645	-0.242209
C	-2.0451748581	-2.0339987961	 1.6318378258	 0.343642
N	-2.3620513036	-2.4305036764	 2.7865660185	-0.50603
C	-2.157223468	-0.5986891858	 1.1489541308	 0.346796
O	-2.6835191028	 0.3094365045	 1.7287235153	-0.285272
H	 1.0964440592	 1.5813141402	 0.5225085419	 0.125458
H	-0.3024595181	 1.9461832807	-0.523616028	 0.101003
H	-0.5373630693	 1.621197064	 1.2031069859	 0.159397
H	 0.5554049003	-0.389442249	-0.6473693173	 0.224721
H	-1.9602596314	 0.0790078037	-0.9285222272	 0.0865
H	-2.2798630168	-2.2662798625	-1.2462204795	 0.125689
H	-0.5081269992	-2.3470289845	-1.0892785551	 0.122283
H	-2.2028570715	-3.4361390398	 2.8826013506	 0.232519
