23
gdb 81355	2.3979	1.42225	1.28258	1.668	84.32	-0.239	0.0807	0.3198	1174.0507	0.206221	-388.279714	-388.270753	-388.269809	-388.312582	35.559	
C	-0.0294784627	 1.5891946963	 0.0044553457	-0.423295
C	-0.0448502092	 0.0674539897	-0.0087887257	 0.026027
C	 1.1448579708	-0.6062661752	-0.7399934294	 0.058885
O	 1.9659963656	-0.358436425	 0.4459773284	-0.307034
C	 0.7132957226	-0.6184126708	 1.156870717	 0.058886
C	 0.528141819	-2.1356259364	 0.9193404815	 0.00522
C	-0.820040498	-2.7135443485	 1.3473843887	-0.415974
C	 0.879370651	-2.1257393505	-0.6244362784	 0.005219
C	-0.1493389043	-2.6946613381	-1.6005987422	-0.415974
H	 0.9718493894	 1.9610790556	 0.234617417	 0.135849
H	-0.3326176219	 1.9927680038	-0.9678478371	 0.110895
H	-0.7244783215	 1.9817325049	 0.7548076949	 0.110895
H	-1.0446069529	-0.3121969257	-0.2386784418	 0.062559
H	 1.5708353535	-0.2175139102	-1.6671999282	 0.06903
H	 0.6951457111	-0.2421622171	 2.1817625746	 0.06903
H	 1.3189369022	-2.6599772072	 1.4644622944	 0.077902
H	-1.6668783087	-2.2137830362	 0.8678769135	 0.115152
H	-0.8890194303	-3.7794974309	 1.1080867358	 0.118271
H	-0.95063033	-2.6144975727	 2.4307780583	 0.113566
H	 1.8296097742	-2.6456060112	-0.7801387548	 0.077902
H	-1.1216668765	-2.1984651104	-1.5285570082	 0.115153
H	 0.2013208227	-2.5820192753	-2.6325656347	 0.113566
H	-0.3120613961	-3.7632655788	-1.4277299595	 0.11827
