16
gdb 11776	4.52403	1.74639	1.59902	2.7034	69.56	-0.2392	-0.0253	0.2139	832.4872	0.131186	-346.576151	-346.56958	-346.568636	-346.606993	25.757	
O	-0.0243775294	-0.094806596	-0.084436543	-0.249734
C	 0.0553452523	 1.0770850831	 0.1905520389	 0.03351
C	 1.3036167303	 1.8862565624	 0.090694345	 0.225785
C	 2.6889194913	 1.2833928677	-0.3132331731	-0.241837
C	 2.9992669398	 2.7943260143	-0.5991286373	-0.080313
C	 1.5233742372	 2.8876425316	-1.1180846426	-0.248523
C	 2.8298662116	 3.3856438054	 0.8074558638	-0.086674
C	 1.7133557046	 2.8086514784	 1.2574988729	-0.136413
H	-0.842539332	 1.6473396263	 0.5281709503	 0.070068
H	 3.2623321124	 0.7907936228	 0.473910914	 0.102542
H	 2.6377839871	 0.6627527259	-1.2114623554	 0.110654
H	 3.8446503937	 3.1129342326	-1.2072488849	 0.069238
H	 1.3684826396	 2.4157500241	-2.0928594353	 0.109577
H	 1.024623034	 3.8569086631	-1.0581931134	 0.10321
H	 3.4856700778	 4.0954087212	 1.2911350356	 0.107896
H	 1.1976041998	 2.908546257	 2.2017643344	 0.111014
