24
gdb 13815	3.53909	1.11302	0.96154	0.0868	85.99	-0.2628	0.0876	0.3504	1358.9361	0.222088	-314.273002	-314.262945	-314.262001	-314.307817	37.279	
C	-0.4304389262	 1.5470845222	 0.7345698374	-0.373426
C	-0.316222392	 0.0213757694	 0.8413397662	-0.196306
C	-1.5612084979	-0.686068776	 0.3423167249	 0.006436
C	-1.7466587576	-0.9849217893	-1.128627927	-0.312
C	-1.5819200471	-2.118827188	-0.1445484974	 0.013159
C	-0.3624309355	-3.0258750167	-0.1702335874	 0.023495
C	-0.1269561534	-3.6717343234	 1.2034518956	-0.387118
C	-0.5077069385	-4.0949639137	-1.2640101403	-0.38369
H	 0.4739050274	 2.041307122	 1.1035417561	 0.107684
H	-0.5862105421	 1.8567882916	-0.3041219899	 0.117578
H	-1.2772337377	 1.9209827734	 1.3208162245	 0.112231
H	 0.5600111571	-0.3138497508	 0.2749470516	 0.095719
H	-0.127545797	-0.255330482	 1.8872655857	 0.095204
H	-2.4632514761	-0.3747888864	 0.8663443534	 0.074952
H	-2.7139142534	-0.8171779719	-1.5900807613	 0.104241
H	-0.9045475557	-0.7730815216	-1.7826253702	 0.103701
H	-2.497546489	-2.6598946669	 0.0920002663	 0.072407
H	 0.5185451574	-2.4188768447	-0.4154354937	 0.067682
H	-0.985102306	-4.2896036728	 1.4941364658	 0.109361
H	 0.75700025	-4.3184327573	 1.1920174002	 0.106248
H	 0.0159633175	-2.915056432	 1.9807886049	 0.115263
H	 0.3774630451	-4.738437552	-1.309255667	 0.105382
H	-1.3748894732	-4.7372543224	-1.0687550221	 0.108855
H	-0.6478918262	-3.6383523506	-2.2486946563	 0.112942
