18
gdb 22741	4.97252	0.96165	0.86531	1.498	86.98	-0.2102	-0.0253	0.1849	1337.2153	0.147767	-401.913818	-401.905614	-401.90467	-401.946957	31.808	
O	-0.1079733466	 1.344673442	 0.0084267547	-0.399172
N	 0.0272857094	-0.0584305813	 0.0041683657	-0.238067
C	-1.1141356455	-0.6354102051	 0.01130512	 0.363968
C	-1.2368317792	-2.1535590596	 0.0086912895	-0.397049
C	-2.7549746526	-2.3940076219	 0.019551655	 0.334492
C	-3.399186197	-3.5450593683	-0.7290695197	-0.308244
C	-3.3879122973	-3.5483952311	 0.7726510524	-0.308239
C	-3.3726814553	-1.0476947463	 0.0272059557	-0.132706
C	-2.459085198	-0.0637868315	 0.0226300427	-0.169739
H	 0.8102328483	 1.6333274457	 0.0022820189	 0.303901
H	-0.7575385477	-2.5815094548	-0.8770419686	 0.126781
H	-0.7442435837	-2.5856491766	 0.8850684255	 0.12678
H	-4.3391643248	-3.3595350762	-1.2382517781	 0.116145
H	-2.7366295444	-4.2286823554	-1.2497412557	 0.118718
H	-2.7176323642	-4.23429819	 1.2802753567	 0.118719
H	-4.3201323531	-3.3651625476	 1.2967077801	 0.116146
H	-4.4487573439	-0.9074845358	 0.0355534455	 0.106481
H	-2.6498262145	 0.998992154	 0.0264792596	 0.121085
