19
gdb 50523	2.98001	1.26471	1.07642	3.8486	75.71	-0.2418	-0.029	0.2128	1174.4172	0.158178	-422.996007	-422.987434	-422.98649	-423.030246	31.248	
O	-0.2946285868	 0.1797546477	-0.2464386459	-0.238623
C	 0.0866599412	 1.2306988036	 0.194339054	 0.145176
C	 1.4456246682	 1.8424023121	-0.0689511397	-0.034803
O	 2.3535165035	 0.9770824752	-0.7505996082	-0.270641
C	 2.3619566577	 1.819689949	-1.9207868342	-0.115606
C	 1.4777065492	 2.8810685029	-1.2285194498	 0.279477
C	 0.251035241	 3.4677471415	-1.9725008294	-0.287833
C	 1.0644982697	 4.7727736195	-2.1956044463	-0.215338
C	 2.0247102956	 4.3184535435	-1.0623172384	-0.282297
H	-0.566197764	 1.868772658	 0.8378446296	 0.068146
H	 1.8528747724	 2.2189921942	 0.8828115162	 0.089385
H	 3.37682076	 2.1389277643	-2.1881612075	 0.104238
H	 1.8979552768	 1.3201378763	-2.7807171106	 0.111319
H	-0.1018700183	 2.9211267038	-2.8505541653	 0.111829
H	-0.5988629123	 3.6328713374	-1.3037907108	 0.107968
H	 1.5590867077	 4.784116517	-3.170436398	 0.110932
H	 0.5410968531	 5.7212665565	-2.0615146968	 0.105157
H	 1.7402745909	 4.744809913	-0.0948699579	 0.105193
H	 3.0995076544	 4.4619259745	-1.2028457712	 0.106321
