14
gdb 19812	4.2478	2.13345	1.87122	3.9656	60.68	-0.2444	0.0061	0.2505	723.0815	0.108965	-378.671373	-378.665425	-378.664481	-378.701284	23.598	
O	-0.0149072035	-0.0058906989	 0.0011218573	-0.347075
C	 0.0008726324	 1.1931169119	-0.008950409	 0.393418
N	-1.0140150781	 2.1432324488	 0.0200177512	-0.316527
C	-0.1213892328	 3.2972842147	 0.1053072374	-0.002403
C	 0.4402796837	 3.6950147606	 1.4918138481	-0.038442
C	 0.6410993572	 2.542624437	 2.3869307369	-0.254555
N	 1.6453612809	 2.7753421468	 1.3309030483	-0.141749
C	 1.0676763926	 2.3257606314	-0.010809434	-0.131373
H	-1.9837936193	 2.0314637378	 0.285072845	 0.250177
H	-0.31366333	 4.1051094736	-0.5987428727	 0.099993
H	 0.5693120949	 4.7228582946	 1.8148775554	 0.103894
H	 1.039573037	 2.7538618936	 3.3744971294	 0.13166
H	-0.0116244711	 1.6760474541	 2.3433211844	 0.139503
H	 1.8143886261	 2.3519938841	-0.8002860678	 0.113479
