22
gdb 105803	2.62233	1.4665	1.14745	1.4489	85.59	-0.2092	0.0699	0.2791	1188.278	0.193594	-367.123534	-367.114462	-367.113518	-367.157065	35.332	
C	 0.2248664819	 1.8078085953	-0.3879514577	-0.37737
C	 0.297236294	 0.2800913026	-0.2628953868	-0.278298
C	 0.8500205789	-0.4097395422	-1.486673101	 0.300202
C	 2.2038143824	 0.0479322808	-2.0771132944	-0.124912
C	 2.7011838089	-0.764401091	-3.2436273831	-0.311074
C	 1.5010386242	 0.124730471	-3.4116333695	 0.00602
N	 0.1636387338	-0.2895731785	-2.8391840793	-0.210231
C	 0.2061645025	-1.5927949682	-2.1096884336	-0.025553
C	 0.7594864635	-2.9339269628	-2.5806107287	-0.443753
H	 1.2168625945	 2.2573805081	-0.4949629883	 0.113983
H	-0.3677582263	 2.0871961452	-1.2638116994	 0.135928
H	-0.2424167496	 2.2467695665	 0.4986146597	 0.110123
H	 0.9168285968	 0.0027246717	 0.6018930052	 0.097667
H	-0.7062724911	-0.1122732541	-0.063180535	 0.101474
H	 2.8201534726	 0.7890409897	-1.5861188742	 0.091117
H	 3.590084723	-0.3307934608	-3.6961174442	 0.112945
H	 2.6845583064	-1.8409436444	-3.2894258905	 0.11487
H	 1.4685386759	 0.9222534764	-4.1430108473	 0.099845
H	-0.7952820894	-1.7185440615	-1.6986087667	 0.09707
H	 1.7124068456	-3.191470347	-2.1119284642	 0.133936
H	 0.0472604565	-3.7216314948	-2.318735063	 0.116388
H	 0.887117895	-2.9629763621	-3.665917438	 0.139622
