19
gdb 78368	4.04114	1.21818	1.13121	1.5559	82.69	-0.2248	0.0059	0.2307	1155.244	0.160021	-385.833646	-385.826029	-385.825085	-385.86555	30.146	
C	-0.2039835807	 1.2605113262	 0.130920981	-0.427503
C	 0.109919814	-0.2065642202	-0.0695715317	 0.01056
C	 0.9072559008	-0.5809064517	-1.2828359749	-0.116743
C	 1.5475775742	-0.6605467699	 0.1345798746	-0.187089
C	 1.5125411997	-2.161738894	 0.0273145665	 0.241125
C	 1.114015075	-3.3151680523	 0.547884746	-0.256113
C	 0.441905944	-4.0886869511	-0.591002338	-0.108835
O	 0.1848282434	-3.1156266093	-1.6258680261	-0.283699
C	 1.1542647755	-2.1030125932	-1.4230330736	 0.093924
H	 0.6245377081	 1.8948381983	-0.2014940035	 0.116658
H	-1.0935458218	 1.5485975379	-0.4396467059	 0.124827
H	-0.3946101368	 1.4840180307	 1.18572968	 0.121593
H	-0.670138755	-0.8889634878	 0.2591822667	 0.095046
H	 1.1105311094	 0.1401227322	-2.0660198915	 0.08414
H	 2.2960442299	-0.0223389642	 0.5856707234	 0.097169
H	 1.117803253	-3.6590010984	 1.574216979	 0.103992
H	 1.0678338527	-4.9064251979	-0.9862959742	 0.099929
H	-0.5157697466	-4.524115547	-0.2814003138	 0.113592
H	 2.020160621	-2.2477153083	-2.090795224	 0.077426
