20
gdb 100637	2.47516	1.10894	0.95956	2.0865	75.49	-0.2582	0.0233	0.2815	1306.3613	0.170376	-436.463341	-436.452823	-436.451879	-436.498382	38.95	
C	-0.0015582452	 1.5781741702	 0.1887407199	-0.411656
C	 0.0322791674	 0.0458074617	 0.0550142697	 0.059613
N	 0.6806683714	-0.5125234736	 1.2465832053	-0.510511
C	-1.3628414272	-0.4482146181	-0.086158911	 0.249279
N	-2.4354889992	-0.8709408977	-0.1846170851	-0.346089
C	 0.8189075898	-0.4508639462	-1.2075776994	 0.004791
N	 0.2116381452	-0.1369947482	-2.4985212815	-0.535716
C	 2.276658744	 0.0322709563	-1.2529861393	-0.058236
O	 2.9611105385	-0.6054102311	-2.3078735263	-0.424543
H	 1.005686726	 1.9524131249	 0.3799194769	 0.146753
H	-0.3995490576	 2.0489011389	-0.7136392041	 0.126943
H	-0.6444879274	 1.8729161902	 1.0231397127	 0.134275
H	 0.1901170852	-0.2183895509	 2.0861433908	 0.241952
H	 0.6426542954	-1.5279912501	 1.2266059312	 0.244399
H	 0.8538248303	-1.5457390928	-1.1391951085	 0.099293
H	-0.6836287658	-0.6001207463	-2.6152262721	 0.25367
H	 0.0557881521	 0.8616142136	-2.6010808152	 0.234053
H	 2.297366163	 1.1296077425	-1.3705804245	 0.076632
H	 2.7871511497	-0.2123979556	-0.3195888964	 0.127748
H	 2.3477197144	-0.5817884376	-3.0559679132	 0.287349
