15
gdb 20913	3.3757	1.96584	1.35135	2.3155	62.26	-0.2373	0.0279	0.2652	899.4118	0.120823	-396.015805	-396.008369	-396.007424	-396.048213	26.686	
C	-0.1928560934	 1.5651178273	-0.0534263582	-0.376368
C	 0.0962059449	 0.0658579474	 0.014586485	-0.150896
N	 0.7827130856	-0.4208706346	-1.1699990929	-0.022604
N	 0.1467549429	-0.5119667025	-2.3818728357	-0.263622
C	 1.1041269598	-0.9619064705	-3.167621723	 0.038017
N	 2.3141502561	-1.1698228209	-2.5683062794	-0.380119
C	 2.0587859591	-0.8149658638	-1.3268208694	 0.459074
O	 2.9124842863	-0.8217855359	-0.2948676849	-0.423174
H	 0.7356898641	 2.1406203838	-0.1095371231	 0.128676
H	-0.7967886733	 1.793883059	-0.9346866463	 0.149395
H	-0.7419176514	 1.8813861474	 0.838386257	 0.121773
H	 0.7322958526	-0.1767119933	 0.8692723227	 0.138835
H	-0.8339750726	-0.5014637869	 0.1130272946	 0.134397
H	 0.9321098468	-1.1536472664	-4.2163213534	 0.125763
H	 3.7533343327	-1.1522918603	-0.635520373	 0.320854
