18
gdb 113125	2.34319	1.22663	0.92697	1.2604	87.12	-0.234	0.0138	0.2478	1321.1846	0.143525	-364.709335	-364.699493	-364.698549	-364.743873	36.576	
C	 0.2693802369	 1.5653330568	 0.0811481962	-0.380058
C	-0.2382062537	 0.1449058823	-0.1513107037	-0.119304
N	 0.5324961446	-0.4834166477	-1.2258798213	-0.115538
C	 1.7276413881	-1.2068455063	-0.8628421416	-0.267612
C	 0.5073047505	-1.9645791251	-1.3462358349	-0.020313
C	-0.2156234814	-2.7592876247	-0.3801702366	 0.308114
C	-0.8379290308	-3.4266264964	 0.4025993296	-0.479049
C	 0.4731595769	-2.4696879289	-2.6992935374	 0.26361
C	 0.4592388576	-2.9049976034	-3.81878537	-0.421418
H	 1.3136531523	 1.5610168295	 0.4106440596	 0.118706
H	 0.2068364923	 2.1539433543	-0.8381009925	 0.13144
H	-0.3259008619	 2.0599630876	 0.85451668	 0.116519
H	-0.1950321912	-0.4342517067	 0.7834692469	 0.100242
H	-1.285991045	 0.1635057038	-0.4696908701	 0.115338
H	 2.5760579916	-1.1103436476	-1.5341211905	 0.131057
H	 1.9691053437	-1.3234677449	 0.1930697569	 0.121768
H	-1.3823784212	-4.0227254876	 1.0926415313	 0.200585
H	 0.4387013008	-3.2825798051	-4.8110102218	 0.195914
