21
gdb 64769	2.86296	1.16581	1.03714	1.6101	83.41	-0.25	0.0471	0.2971	1256.2809	0.18165	-387.066652	-387.05719	-387.056246	-387.101311	35.636	
C	-0.1735824248	 1.7131669043	-0.0193358155	-0.455889
C	 0.0759242663	 0.2043433452	 0.0047693012	 0.301492
C	-1.2642884465	-0.5855120936	 0.0340142625	-0.392867
C	-2.1230027179	-0.2704547233	 1.1696689924	 0.302603
C	-2.8178201757	-0.0062527268	 2.1151681525	-0.446768
C	 0.9280066477	-0.2952537924	-1.1992366788	-0.291352
C	 1.9322868389	-1.2955907562	-0.5705863981	-0.073488
O	 1.5289866839	-1.4753308247	 0.782201791	-0.249622
C	 0.9587898782	-0.2432954812	 1.1880299898	-0.114392
H	 0.77244724	 2.2642430325	-0.0335812465	 0.111226
H	-0.7440100365	 2.004372004	-0.9081662142	 0.114712
H	-0.7431298397	 2.0328771972	 0.8583542758	 0.132734
H	-1.8101012087	-0.3935677455	-0.8987520065	 0.123397
H	-1.0315149393	-1.6572157357	 0.0460348697	 0.140777
H	-3.441050193	 0.2185878541	 2.9448734225	 0.19455
H	 0.3035652148	-0.7656308165	-1.9640872492	 0.103841
H	 1.4509245754	 0.5375428792	-1.6766326602	 0.100355
H	 1.9359375991	-2.2776140112	-1.0510254051	 0.108169
H	 2.9561698883	-0.8927832626	-0.6113664704	 0.091508
H	 1.7430837807	 0.5083444274	 1.3832007702	 0.078312
H	 0.3989213687	-0.4119825945	 2.1110190969	 0.120701
