17
gdb 37466	2.82529	2.16136	1.83415	3.0197	68.84	-0.2246	0.0665	0.2911	819.857	0.138885	-421.783444	-421.777471	-421.776527	-421.813486	25.485	
C	 0.0078087502	 1.5609352923	 0.0511839028	-0.073065
O	 1.3545249849	 1.9875422206	-0.1859798735	-0.249392
C	 2.0360936472	 0.9509004713	-0.8276224562	 0.110009
C	 2.4355197808	-0.3438500642	-0.1091613013	-0.128297
C	 1.9919860221	-0.6821204927	 1.2960329047	 0.050175
O	 1.399884447	 0.355903029	 2.092534832	-0.243441
C	 0.5365924261	-0.5393429418	 1.3744680344	 0.014509
C	 0.0375762768	 0.0168719275	 0.024826224	-0.105381
C	 1.1861637377	-0.2586290512	-0.9867227651	-0.13839
H	-0.3065325954	 1.9629763585	 1.017024406	 0.122208
H	-0.6491763518	 1.9550569059	-0.7375229154	 0.091088
H	 2.7075956267	 1.3035459112	-1.6041948895	 0.102513
H	 3.335605824	-0.8245119232	-0.4767030189	 0.085468
H	 2.5557616023	-1.4246592941	 1.8550648225	 0.097315
H	-0.1106499774	-1.157975151	 1.9915578327	 0.095204
H	-0.9180286323	-0.4186719088	-0.2705590915	 0.079636
H	 1.0290137012	-0.8009879293	-1.9111755978	 0.08984
