21
gdb 115666	2.45853	0.94944	0.74233	1.882	87.94	-0.2436	0.0461	0.2896	1611.3425	0.18049	-387.055668	-387.045103	-387.044159	-387.093983	36.34	
C	 0.0108073373	 1.6073384626	 0.1656268748	-0.386354
C	-0.0212072304	 0.0802563261	 0.0544925249	-0.186206
C	 0.8851176981	-0.5795451209	 1.0777037899	 0.154519
O	 0.4731569957	-0.3136497199	 2.4412010868	-0.289675
C	 0.2146813063	-1.7028621969	 2.702304873	-0.073666
C	 0.7539221112	-2.1235171029	 1.3074057025	-0.271301
C	-0.1100040094	-2.9020562831	 0.4447285728	 0.110035
C	-0.836167257	-3.5537412685	-0.2625441658	 0.044872
C	-1.7094594149	-4.3439993461	-1.1185380185	-0.497826
H	 1.0150418376	 1.9997704393	-0.0304518707	 0.111039
H	-0.6745423129	 2.0698459704	-0.5506915345	 0.110023
H	-0.2812785806	 1.9217500197	 1.1715615932	 0.136456
H	-1.043186574	-0.2899465178	 0.1920100079	 0.105418
H	 0.2963510667	-0.2418086714	-0.9454783429	 0.098906
H	 1.9240823729	-0.2550917477	 0.925945513	 0.073183
H	 0.7829754832	-2.0761403196	 3.5620895127	 0.103415
H	-0.8514270927	-1.9073509999	 2.8550762983	 0.106278
H	 1.7374009312	-2.5964835442	 1.3802458355	 0.104583
H	-1.9833808926	-3.7918974595	-2.0244384294	 0.149167
H	-1.2247521053	-5.2751114733	-1.4324298065	 0.148397
H	-2.6378997203	-4.6115941664	-0.601919077	 0.148738
