16
gdb 124141	3.50631	0.9572	0.75902	3.4385	83.42	-0.2306	-0.017	0.2136	1464.8874	0.122941	-400.736245	-400.727085	-400.726141	-400.772689	31.538	
C	-0.042372407	 1.4787748368	 0.0598906356	-0.509385
C	-0.0000810979	 0.0251020767	 0.0566738698	 0.19622
C	 0.0429303463	-1.1806532313	 0.0546923901	-0.112134
C	 0.05628855	-2.5919226222	 0.0491718467	-0.017629
C	 1.1141350959	-3.4500724583	 0.1366778537	-0.039123
O	 0.7007373402	-4.7188258221	 0.0948920844	-0.166466
N	-0.6912942443	-4.7377705876	-0.0256901356	-0.189324
C	-1.0696328657	-3.4851241893	-0.0525123576	 0.289397
C	-2.5106878622	-3.1183016179	-0.1755129194	-0.506276
H	 0.5294173166	 1.8961680937	-0.7765511323	 0.153346
H	-1.0717459963	 1.8430496403	-0.0275202971	 0.153272
H	 0.3767917101	 1.887827835	 0.9860507751	 0.153346
H	 2.1772965067	-3.2928321566	 0.2294477648	 0.156234
H	-2.8316616476	-2.5211897878	 0.6839648606	 0.144034
H	-2.6796923499	-2.5128842257	-1.0717138087	 0.144034
H	-3.125063073	-4.0182790836	-0.2329499815	 0.150453
