18
gdb 60685	2.3544	1.36996	1.21969	1.6665	73.27	-0.2315	-0.0508	0.1806	1120.3409	0.143722	-439.061454	-439.05181	-439.050866	-439.096154	34.286	
C	 0.5603326753	 1.3552209961	-0.1946618024	-0.411787
C	-0.1207676775	-0.0238780544	-0.0049484331	 0.071388
C	 0.1199932247	-0.4179330125	 1.4610160779	 0.138301
O	 0.9320323216	-1.2240447393	 1.8364852574	-0.262865
C	-1.6329042978	 0.1837504411	-0.1856110636	 0.141703
O	-2.3157870228	 0.8137278484	 0.5793336904	-0.257681
N	 0.3136060208	-0.9205656357	-1.0638987892	-0.115047
C	 1.6293369864	-1.5508753602	-1.075635502	-0.225554
C	 0.3962554338	-2.3698166101	-0.8914981319	-0.237842
H	 1.6376173753	 1.2620983906	-0.0330213671	 0.137798
H	 0.3890283821	 1.7043083747	-1.2163488972	 0.142518
H	 0.151696963	 2.0868336696	 0.5059232604	 0.145301
H	-0.526435343	 0.1386181139	 2.1718504872	 0.11855
H	-2.0393052949	-0.2940865824	-1.1014923704	 0.105394
H	 2.13593368	-1.5308205249	-2.037191416	 0.114934
H	 2.2660284869	-1.4421167013	-0.2048861512	 0.140717
H	 0.2412273578	-2.7934635732	 0.0950203719	 0.136598
H	-0.0072032316	-2.9489477303	-1.717609141	 0.117574
