15
gdb 12336	3.20206	2.21089	1.36069	4.1527	62.82	-0.2463	0.0053	0.2516	862.7181	0.120624	-399.839322	-399.832279	-399.831335	-399.870775	26.666	
O	 0.671308683	 1.0529109869	-0.5464316654	-0.439484
C	 0.1961091439	-0.0986231953	 0.1046562744	-0.001659
C	 0.7887079065	-0.236649295	 1.4790741781	-0.074218
C	 0.1202220911	-0.811749018	 2.4718918005	-0.067645
C	-1.2907679169	-1.3037371497	 2.3202308845	-0.202074
N	-1.9396142413	-0.7588661555	 1.1347364935	-0.326744
C	-1.335700894	-0.0601727279	 0.1439710248	 0.385784
O	-1.9467723873	 0.5657506277	-0.7092239416	-0.397808
H	-0.0822356898	 1.3584895868	-1.0771341132	 0.29383
H	 0.4621532589	-1.0010975344	-0.4811377157	 0.100521
H	 1.8053596276	 0.1228364227	 1.6021972281	 0.115318
H	 0.5740276366	-0.9637573103	 3.4461068838	 0.105233
H	-1.3053825754	-2.4053146012	 2.2972073229	 0.127549
H	-1.8779288791	-1.0127983795	 3.2012975698	 0.127831
H	-2.9487535436	-0.7254576272	 1.1188893555	 0.253567
