20
gdb 22341	3.06914	1.15021	0.87654	0.9649	88.12	-0.214	-0.0196	0.1944	1352.7303	0.170044	-403.138585	-403.129171	-403.128227	-403.172904	35.39	
C	-0.2347082363	 1.5159069977	 0.0154197471	-0.396128
C	 0.0633899852	 0.0114764857	-0.0399848694	-0.029105
C	 0.9688956345	-0.4111699411	-1.2265853533	-0.30543
C	 2.0173787712	-1.3278849349	-0.6155986459	 0.312643
N	 2.7859977307	-1.9978038322	-1.3876219014	-0.243862
O	 3.7117201348	-2.7971022432	-0.6877700185	-0.400714
C	 1.9043936039	-1.2439692462	 0.8550602603	 0.235778
C	 2.8265017312	-1.8882629942	 1.847411183	-0.488798
C	 0.826130292	-0.5001930287	 1.1557564797	-0.143947
H	 0.6926401168	 2.0950966388	 0.082348489	 0.118197
H	-0.7737465123	 1.8411165838	-0.880443143	 0.116967
H	-0.8507756268	 1.7654210969	 0.8858071403	 0.113504
H	-0.8998380656	-0.5165758067	-0.1008294041	 0.085716
H	 0.4248625997	-0.9027040896	-2.0361075166	 0.120631
H	 1.458752919	 0.4689804049	-1.659193289	 0.120096
H	 4.189115286	-3.2194182278	-1.4088331057	 0.303943
H	 3.8612627119	-1.5702454721	 1.6913156056	 0.137719
H	 2.528762365	-1.6296108496	 2.8677611811	 0.10838
H	 2.822372474	-2.9765789793	 1.7434329069	 0.141728
H	 0.5049747751	-0.2865293221	 2.1714560837	 0.092682
