19
gdb 67667	2.23239	2.16182	1.65623	0.5108	86.36	-0.1895	-0.0146	0.1749	937.4703	0.160417	-348.697649	-348.690343	-348.689399	-348.728764	30.154	
C	-0.0161925198	 1.6347860325	-0.1434907889	-0.503907
C	 0.0099748324	 0.1322591852	-0.0607586589	 0.293797
C	 0.6311833315	-0.8503449065	-0.9850429708	-0.099389
C	 1.7187243622	-1.6122711349	-0.2198839638	-0.266265
C	 1.2519115577	-1.4357415197	 1.2214231026	-0.099213
C	 0.185387948	-0.61768424	 1.2675042501	 0.019326
C	-1.164297191	-1.1479995651	 1.6540194284	-0.163506
C	-1.7348231814	-1.4246199953	 0.4673094007	-0.071812
C	-0.9523463243	-0.8258318485	-0.6835795679	-0.130513
H	 0.9232016362	 2.0708019488	 0.2151632549	 0.11932
H	-0.1667255399	 1.9616408404	-1.1777104887	 0.114094
H	-0.8296713568	 2.0503103831	 0.462114007	 0.122375
H	 0.8335962045	-0.5738833097	-2.0176885374	 0.078409
H	 1.7436246893	-2.6889218182	-0.4374473759	 0.111534
H	 2.7191278093	-1.2269174501	-0.473581242	 0.101354
H	 1.4534975449	-2.1992465244	 1.9668214902	 0.091513
H	-1.4869853033	-1.4790562764	 2.6316222404	 0.105674
H	-2.6643549333	-1.9641094929	 0.3249606898	 0.09655
H	-1.5092817363	-0.5384250884	-1.5718966997	 0.080658
