20
gdb 60485	5.29589	0.54338	0.51245	3.3151	77.39	-0.276	0.0299	0.3059	2087.412	0.168383	-440.289507	-440.278746	-440.277802	-440.32716	37.134	
C	-0.2734367768	 1.0688389732	-0.4134117472	-0.401721
C	 0.1023330762	-0.2214537014	 0.3077394846	 0.113193
O	 0.8101363445	 0.0178257334	 1.5175973155	-0.428039
C	-1.1120557771	-1.1075028754	 0.6021746798	-0.085743
O	-1.7094685548	-1.4818092247	-0.6267418963	-0.240522
C	-2.8967399845	-2.2257209368	-0.5142001241	-0.062033
C	-2.612669906	-3.7243148954	-0.2521519885	-0.346872
C	-3.8450388141	-4.5020376121	-0.188306894	 0.253712
N	-4.8394352867	-5.0889680276	-0.1420891667	-0.30088
H	 0.6207904072	 1.6577940177	-0.6332835032	 0.126405
H	-0.7955509511	 0.8482575566	-1.3476015606	 0.138324
H	-0.942813157	 1.6775980425	 0.2091020998	 0.103264
H	 0.7913982901	-0.7999045202	-0.3183900164	 0.101885
H	 0.3179808537	 0.6744577863	 2.0226497399	 0.280426
H	-0.773045854	-1.9812017773	 1.1769511902	 0.101428
H	-1.8376903874	-0.5563898586	 1.2261920895	 0.081917
H	-3.5452382429	-1.8273230438	 0.2795660933	 0.113086
H	-3.4265109671	-2.1228893206	-1.4654461378	 0.132
H	-1.9760815178	-4.1138384849	-1.0533137573	 0.16275
H	-2.0669836444	-3.852230171	 0.6884863495	 0.157418
