14
gdb 10290	2.19029	2.02437	1.28751	5.3554	58.89	-0.2624	-0.0123	0.25	957.8899	0.105562	-415.883087	-415.874287	-415.873343	-415.917103	30.018	
C	 0.6839403977	 0.5498599787	-0.0648737492	-0.252158
O	-0.2845901582	-0.1599096883	-0.8275741739	-0.241629
C	-1.4885051614	-0.3815896863	-0.1241708247	-0.114766
C	-2.5581231512	-0.5883476781	-1.1099182436	 0.290649
N	-3.3996723201	-0.7649208126	-1.8804391629	-0.306159
C	-1.4395134773	-1.613936462	 0.832982246	 0.365375
N	-0.4968906931	-2.5187198961	 0.4801666156	-0.507742
O	-2.1928505679	-1.7000771407	 1.7754522709	-0.339391
H	 1.5549086741	 0.675362991	-0.7101080816	 0.146183
H	 0.3067692008	 1.5385451092	 0.228351613	 0.131142
H	 0.9777789841	-0.003784949	 0.8366563861	 0.128917
H	-1.759763187	 0.4776731463	 0.5042087632	 0.146084
H	 0.0479394431	-2.3810796431	-0.3547516686	 0.278843
H	-0.4345033136	-3.3841275491	 0.9904937997	 0.274653
