21
gdb 93665	2.5167	1.39353	1.20247	1.2827	73.49	-0.2547	0.0629	0.3177	1140.1072	0.181428	-461.375766	-461.366002	-461.365058	-461.410246	37.432	
C	-0.5555423735	 1.5170465266	 0.0845317688	-0.45578
C	 0.1177166461	 0.1520898928	 0.0179240593	 0.366554
O	-0.8531402287	-0.8931676451	-0.1378828027	-0.47838
C	 1.0994504938	-0.0174767215	-1.1580768822	-0.213464
C	 2.0970019482	-1.1228389977	-0.7232562865	-0.25749
C	 1.7933392191	-1.406363212	 0.7711146459	 0.112413
O	 2.9473384079	-1.5128164272	 1.6033145652	-0.458976
C	 0.9898090448	-0.181603352	 1.2443098784	 0.081358
O	 1.8630190467	 0.8987309152	 1.5103337189	-0.456521
H	 0.183125636	 2.3026173041	 0.256834409	 0.140709
H	-1.0919532318	 1.7215999095	-0.8469808351	 0.117001
H	-1.2797068674	 1.5519260253	 0.9079131944	 0.099534
H	-1.4707543519	-0.8305374256	 0.5991983936	 0.274484
H	 0.5483497349	-0.2690638131	-2.0668322972	 0.105191
H	 1.6237164001	 0.9250894697	-1.3268708607	 0.1106
H	 1.9966337122	-2.0299424175	-1.3245253675	 0.103329
H	 3.1305294979	-0.7760468117	-0.8211914989	 0.097717
H	 1.1740977441	-2.3046104097	 0.8707500444	 0.082799
H	 3.5894148272	-2.0787766913	 1.1658736179	 0.290056
H	 0.3701957656	-0.4102303377	 2.1271218798	 0.047023
H	 2.6708692687	 0.4963724488	 1.8583593552	 0.291845
