10
gdb 21985	5.57739	1.70264	1.30443	4.6226	51.71	-0.3041	-0.1019	0.2023	817.5126	0.060603	-450.493176	-450.487223	-450.486279	-450.524101	20.802	
O	-0.0824989309	 0.0076755992	 0.0037915194	-0.350588
N	-0.0189502154	 1.2311072708	 0.0070518763	 0.374531
O	 0.9933578471	 1.9053084242	 0.0025212182	-0.328833
C	-1.3060437205	 1.9209829237	 0.0170978175	 0.480349
N	-1.3496388942	 3.2295102083	 0.0211845447	-0.151491
O	-2.6918280862	 3.5220905512	 0.0304592116	-0.148168
C	-3.4075547118	 2.3798579424	 0.0316090948	 0.106313
C	-2.5803853273	 1.3053181711	 0.0232122869	-0.326223
H	-4.4794127715	 2.4994914011	 0.0386912454	 0.176715
H	-2.8093553792	 0.2551146781	 0.0215342453	 0.167393
