17
gdb 27927	2.4994	1.31929	0.87287	3.5303	80.77	-0.2256	-0.0383	0.1874	1299.3372	0.134454	-421.890159	-421.881158	-421.880214	-421.924131	32.025	
C	 0.108217498	 1.4484668194	 0.1316879931	-0.490644
C	-0.0692165008	-0.0228011447	 0.0367406318	 0.368466
C	-1.1323585465	-0.835882377	-0.1555938527	-0.388177
C	-0.6279077104	-2.1864597108	-0.1460869505	 0.096202
C	-1.4071524293	-3.4045208963	-0.3163495014	 0.066018
O	-2.6070925474	-3.432073123	-0.491527568	-0.284709
C	 0.7272911324	-2.0880383422	 0.0549102817	 0.282159
C	 1.8290106739	-3.0785975459	 0.1679653435	-0.495472
O	 1.0747569719	-0.7846364586	 0.1666221433	-0.214924
H	 0.7831810678	 1.8226970921	-0.6462904415	 0.14105
H	-0.857829098	 1.9438104165	 0.0151363574	 0.142779
H	 0.5303687969	 1.7405019061	 1.099870917	 0.141048
H	-2.1619273071	-0.5470038005	-0.2911786728	 0.134605
H	-0.8199843089	-4.3491044259	-0.2757359377	 0.057745
H	 1.4455774671	-4.0949018225	 0.0649589278	 0.14602
H	 2.5852245828	-2.9147673006	-0.6078747011	 0.148917
H	 2.3326795774	-2.9963996258	 1.1376065802	 0.148917
