15
gdb 54441	3.71302	1.18334	1.00816	3.6665	67.11	-0.2522	-0.0386	0.2136	1136.198	0.11261	-453.95389	-453.945802	-453.944858	-453.986919	30.122	
N	 0.5342315047	 0.2223809767	-0.9981140315	-0.5399
C	-0.0334046286	 0.1668839252	 0.233694211	 0.321309
O	 0.4808995521	 0.5801030888	 1.255651207	-0.363045
C	-1.3818822465	-0.4912626754	 0.2572298172	 0.249476
C	-2.3632675003	-0.4396786371	 1.4357387363	-0.427945
C	-2.6438328303	-1.9434342292	 1.1605063896	 0.415208
O	-3.243076191	-2.7936677112	 1.7486470192	-0.29419
C	-1.6968991131	-1.9643865568	-0.0255951918	-0.201463
N	-2.0466268528	-0.8897469114	-0.9659142611	-0.370271
H	 1.4343180002	 0.6603820327	-1.0973416128	 0.26588
H	 0.0059631114	-0.0530208298	-1.8093448309	 0.275306
H	-1.8706207816	-0.3177510868	 2.4033824647	 0.168734
H	-3.1860736623	 0.2759008607	 1.3513418122	 0.124627
H	-1.0613575344	-2.7688118577	-0.3762939045	 0.127584
H	-3.0394160174	-0.6632705787	-0.9720618449	 0.24869
