18
gdb 22529	1.93715	1.5956	1.11858	0.6405	82.96	-0.2376	-0.0327	0.2049	1163.2653	0.144487	-401.860136	-401.85057	-401.849626	-401.894343	35.984	
C	 0.3290418991	 1.3359581281	-0.7382880241	-0.461906
C	 0.0391987788	-0.0003814623	-0.0723640855	 0.285188
C	 1.1980972827	-0.8902503222	 0.3009253285	-0.32235
C	 0.4154614581	-0.1870610492	 1.3806720373	-0.278925
C	-1.2299154079	-0.6567583253	-0.5459958832	 0.103889
N	-2.4221987343	-0.2717191746	-0.2395640095	-0.173199
O	-2.4074548723	 0.821843311	 0.6208942534	-0.381848
C	-1.1489324231	-1.7696743611	-1.4350448961	 0.301703
C	-1.0126261009	-2.7052993794	-2.1807397482	-0.427005
H	 1.2547617414	 1.7642790643	-0.3409618829	 0.11312
H	 0.4512354047	 1.2179822971	-1.8204533128	 0.122476
H	-0.4823834806	 2.0453908979	-0.5574184165	 0.137069
H	 1.0717983421	-1.9620281718	 0.1950740282	 0.122932
H	 2.1955639505	-0.5335985418	 0.0670105594	 0.11062
H	 0.8679807904	 0.6580688842	 1.8885898349	 0.112753
H	-0.240252089	-0.7824258243	 2.0053195598	 0.121627
H	-3.3476129714	 0.9854850626	 0.7552116699	 0.312912
H	-0.9127493183	-3.5299082832	-2.8424783426	 0.200943
