23
gdb 111810	2.68194	1.30912	1.25406	1.2917	83.78	-0.261	0.0741	0.3351	1165.1113	0.209673	-388.309623	-388.301428	-388.300484	-388.342263	33.011	
O	-0.1501644563	 1.4844623603	-0.1999369972	-0.424438
C	 0.0052288377	 0.0861660393	 0.0189217287	-0.127742
C	-1.3738116426	-0.5466281775	-0.0689637937	 0.05717
C	-2.0748812729	-0.5141043497	-1.4503958202	 0.006128
C	-1.2065677323	-1.4782712554	-2.2927125834	-0.214678
C	-0.7781368309	-2.5682158285	-1.257588882	-0.210924
C	-1.4489284258	-2.0880033318	 0.0531892949	-0.022747
C	-2.9721389375	-2.317448075	-0.0800091123	-0.213072
C	-3.4046429382	-1.2300713657	-1.1198765287	-0.21744
H	 0.7188207527	 1.8934237508	-0.1533099106	 0.284671
H	 0.6923145006	-0.3499482309	-0.7204297941	 0.08513
H	 0.4333877228	-0.1116401402	 1.0154136411	 0.081202
H	-2.0002590735	-0.0616902607	 0.6897414884	 0.067812
H	-2.197189398	 0.4753814842	-1.8918435876	 0.066517
H	-1.7679344648	-1.8949647874	-3.1341955735	 0.090385
H	-0.337449748	-0.9652320305	-2.7147639953	 0.094746
H	-1.1166132645	-3.5707452771	-1.5359314719	 0.091036
H	 0.3100941922	-2.6187070689	-1.1562033808	 0.090914
H	-1.0154962679	-2.5223470327	 0.9574004598	 0.049616
H	-3.2029882413	-3.3347037074	-0.4102663109	 0.090175
H	-3.4746866868	-2.1669400377	 0.880345255	 0.091905
H	-4.1255595039	-0.5325319103	-0.6827917078	 0.093795
H	-3.8709223909	-1.6603466273	-2.0112614479	 0.089842
