16
gdb 51972	2.64619	0.86928	0.68532	3.3622	73.28	-0.2543	-0.0341	0.2202	1565.2426	0.120798	-437.88982	-437.879956	-437.879012	-437.926536	33.814	
O	 0.6184241431	-0.1593272741	-0.6961659951	-0.228495
C	 0.713055503	 1.0280387367	-0.8544961083	 0.153442
C	 1.7265846131	 1.9055426116	-0.1331084452	-0.247513
N	 2.1864494069	 3.0051739881	-0.9507316744	-0.332443
C	 1.8660361413	 4.296916232	-0.6673625949	 0.434203
O	 1.166103966	 4.6335942366	 0.2673446049	-0.368577
C	 2.4525363413	 5.3597094669	-1.6180122555	-0.482716
C	 3.2806617497	 4.8730571856	-2.7107309251	 0.281116
C	 3.9618092467	 4.4431566335	-3.6039826472	-0.421741
H	 0.0473040639	 1.5888814711	-1.5498619297	 0.086443
H	 1.2271607072	 2.3531963564	 0.7356887222	 0.176087
H	 2.5526768659	 1.2820923582	 0.2228127755	 0.136131
H	 2.791761299	 2.8287780838	-1.7385440856	 0.262779
H	 1.5995112336	 5.9297900053	-2.0029954412	 0.170707
H	 3.0157685628	 6.0556120474	-0.9859961192	 0.171186
H	 4.5663880464	 4.0846277909	-4.4006026711	 0.209392
