20
gdb 38432	3.98745	1.26392	1.1544	1.7879	84.18	-0.2251	0.021	0.2462	1128.1026	0.173091	-365.975525	-365.968015	-365.967071	-366.007707	30.115	
C	 0.0397755529	 1.4481823467	-0.0625019609	-0.246353
C	 1.2973888457	 0.677305633	-0.0029780435	-0.086544
N	-0.0505203092	-0.0052004064	 0.1571146281	-0.127752
C	 0.1637262386	-0.6243090523	-1.1965667049	-0.228998
C	 1.6068349659	-0.0225548854	-1.3321405861	 0.324425
C	 2.0056760258	 0.8414587058	-2.5578686603	-0.299791
C	 3.0802641647	 0.0363609225	-3.3363284063	-0.265235
C	 3.4878694005	-1.0320494259	-2.3523825023	-0.084981
C	 2.6973581294	-1.0594414281	-1.281449845	-0.121755
H	-0.2342355463	 2.0271360288	 0.8143944862	 0.1193
H	-0.3064312048	 1.8648615643	-1.0064698119	 0.108697
H	 1.9935703978	 0.7653625951	 0.8267447116	 0.090492
H	 0.152335691	-1.7136524925	-1.1200516105	 0.111251
H	-0.5721994778	-0.3091923708	-1.9456780067	 0.097356
H	 1.145554485	 1.0988285763	-3.1815948673	 0.097241
H	 2.4308737837	 1.7848985431	-2.1994238764	 0.106844
H	 2.6744921586	-0.4132673575	-4.2528583299	 0.107858
H	 3.9226226179	 0.6616175689	-3.6546716101	 0.104899
H	 4.3144830813	-1.7104714914	-2.5339752364	 0.094196
H	 2.7765122594	-1.7588504042	-0.4553668075	 0.09885
