21
gdb 77520	2.4002	1.53384	1.39948	1.2227	77.8	-0.2491	0.074	0.3231	1070.6737	0.182371	-424.226079	-424.217204	-424.21626	-424.258577	35.584	
C	-0.0599254188	 1.504373831	 0.050071765	-0.498523
C	-0.0240081536	-0.0046273161	-0.0054283602	 0.306752
C	 0.367785577	-0.7935350366	-1.294571568	-0.338533
C	-0.3738406269	-1.956974443	-0.5634188381	 0.36098
O	-0.9475820779	-3.0464851425	-1.2210655129	-0.495577
C	 0.5374281417	-2.2232397845	 0.6488919562	-0.273996
C	 0.8108640564	-0.7473218705	 1.0681272972	-0.242901
C	-1.3218031467	-0.8565759241	-0.0277860399	 0.082724
O	-1.9800561829	-1.0221683709	 1.2036500898	-0.450103
H	 0.9482623045	 1.9265505196	-0.0308157098	 0.112491
H	-0.6633280207	 1.921839563	-0.7628798343	 0.110942
H	-0.4890996576	 1.8484261173	 0.9978102443	 0.12458
H	-0.1646516744	-0.4533431588	-2.185817257	 0.097571
H	 1.4335874148	-0.9158037737	-1.5064309537	 0.085886
H	-0.2592002791	-3.6984621867	-1.3898608372	 0.278251
H	 0.0157208581	-2.7906663259	 1.4228800575	 0.102404
H	 1.4445520568	-2.7682175729	 0.3653207598	 0.081366
H	 1.8691150381	-0.4749564939	 1.0093051583	 0.088747
H	 0.4537927445	-0.5323475602	 2.0775708707	 0.111344
H	-2.0098195488	-0.5178663819	-0.8140281471	 0.066475
H	-2.6779328644	-1.6740850686	 1.082024509	 0.289118
