17
gdb 34012	3.46892	1.33439	1.13259	4.2506	79.21	-0.2264	-0.0049	0.2216	1085.298	0.138806	-380.872571	-380.86511	-380.864166	-380.90428	29.579	
N	-0.0462587725	-1.1364423005	-0.567795864	-0.350409
C	-0.0367450149	-0.0160610173	-0.2744425558	 0.203699
C	-0.0050021838	 1.370258632	 0.088385639	 0.111474
C	 0.3991044695	 2.3785916526	-1.0045963571	-0.318716
C	 1.3743812285	 2.1159218491	 0.0807723133	-0.019839
N	 1.6516250499	 3.0613793338	 1.1127557901	-0.285926
C	 0.4857698792	 3.8221157284	 1.5941146638	-0.246807
C	-0.7239661097	 2.9524487973	 1.8408768688	-0.097897
C	-0.929172476	 1.8210201366	 1.1619022512	-0.096233
H	 0.6202009144	 1.9704189543	-1.9837660287	 0.143747
H	-0.1659085904	 3.3027645699	-1.0158778044	 0.137831
H	 2.2300825211	 1.498163902	-0.1687452711	 0.126228
H	 2.0596837529	 2.5627672717	 1.8976555146	 0.233088
H	 0.7847746602	 4.331047682	 2.5155984533	 0.119749
H	 0.264983792	 4.621587081	 0.8740087529	 0.126522
H	-1.4224575652	 3.2554727621	 2.6148503928	 0.101525
H	-1.7747982951	 1.178568325	 1.3840712411	 0.111965
