18
gdb 56336	4.99275	0.66446	0.60925	1.7947	70.37	-0.2449	0.0296	0.2744	1756.5623	0.147989	-472.469139	-472.458944	-472.458	-472.505829	35.349	
N	 0.0342556004	 1.1659074668	 0.0889662142	-0.563197
C	-0.2076201012	-0.1935821455	-0.0671961981	 0.448969
O	 0.5281850822	-0.9253635421	-0.7072010172	-0.396436
N	-1.3300491619	-0.6499262277	 0.5836141359	-0.334853
C	-1.5815565871	-2.0803791382	 0.6670016593	-0.151842
C	-2.1841304375	-2.6246574249	-0.6396395416	-0.153882
N	-2.4153402116	-4.0593538081	-0.582374772	-0.266619
C	-3.4656896611	-4.59616586	 0.0881921607	 0.150821
O	-4.305049658	-3.9530442299	 0.6861609181	-0.330262
H	 0.7124729228	 1.5134480419	-0.5719526902	 0.261296
H	-0.7612583516	 1.7737637001	 0.2152479824	 0.247665
H	-1.7450166024	-0.0629406033	 1.2879109465	 0.245995
H	-0.648908865	-2.6134943061	 0.8822788834	 0.119661
H	-2.2856178017	-2.2603670102	 1.4815706308	 0.128716
H	-3.1376892573	-2.1253165044	-0.8333479116	 0.12922
H	-1.4995884848	-2.4128504392	-1.4623202488	 0.135119
H	-1.7479017014	-4.6814437982	-1.0082398772	 0.254403
H	-3.4814319027	-5.7026340009	 0.0243268354	 0.075225
