22
gdb 57392	2.73512	1.31964	1.19909	1.9586	81.26	-0.2473	0.0779	0.3252	1176.1363	0.19341	-404.315412	-404.30608	-404.305136	-404.349064	36.806	
C	 1.1399096384	 0.8015895102	 0.6997461593	-0.430426
C	-0.0484671328	 0.1680514006	-0.0383449458	 0.251583
C	-0.748024763	-0.8655492623	 0.8444461225	-0.410307
O	-1.0373348234	 1.1683916667	-0.3151850115	-0.467166
C	 0.3909000359	-0.4306797723	-1.366154257	 0.364168
C	-0.2412091547	-1.604515308	-2.1408245361	-0.318171
C	 1.1692332196	-1.9286018483	-2.7398823236	-0.241869
C	 1.7404108007	-0.7376734731	-1.9616676555	-0.101963
N	 1.0313181998	 0.4927908089	-2.3076452625	-0.371465
H	 1.8551116158	 0.0427908935	 1.0330567978	 0.107356
H	 1.6648144648	 1.5051218826	 0.0473109179	 0.127919
H	 0.772522053	 1.3434449839	 1.5754974183	 0.116438
H	-1.048587848	-0.401156574	 1.7874953501	 0.120714
H	-1.6474977436	-1.246282724	 0.3541054262	 0.12279
H	-0.0833598426	-1.7055556065	 1.0673225556	 0.109674
H	-0.6253660022	 1.7791809303	-0.9385919451	 0.28236
H	-0.6074075325	-2.4090294771	-1.5006940124	 0.112181
H	-1.0363871399	-1.3289218584	-2.8413249758	 0.100441
H	 1.5512461577	-2.8935224708	-2.3984737374	 0.109472
H	 1.2783006141	-1.8761607232	-3.8284842514	 0.098933
H	 2.7361132759	-0.6472664915	-1.5421310378	 0.094853
H	 0.6210838969	 0.454858093	-3.2396582657	 0.222487
