21
gdb 98468	2.29549	1.26076	1.0078	2.7901	80.19	-0.2353	0.0324	0.2677	1310.197	0.182173	-420.424486	-420.414272	-420.413328	-420.460029	36.709	
C	 0.6967256891	 1.1469915996	 0.0859320657	-0.387041
C	 0.1190784109	-0.2357282709	-0.2402821411	-0.25718
C	-1.3837090139	-0.3169048007	-0.0514399174	 0.220925
C	-1.9918903273	-1.5919756178	 0.4288228594	-0.266512
N	-1.9599803373	-0.4121718746	 1.3062485184	-0.368236
C	-2.1874547945	 0.5221204272	-1.0330026938	 0.371029
O	-1.7885114275	 0.7111837482	-2.1725262652	-0.400959
N	-3.3561865721	 0.9976475759	-0.5359327553	-0.314543
C	-4.2657909894	 1.8068301699	-1.31704929	-0.333818
H	 1.7828632172	 1.1528972809	-0.0442209366	 0.115081
H	 0.2748438745	 1.9059630751	-0.5785196464	 0.142533
H	 0.4827922366	 1.4407887686	 1.1196884903	 0.107719
H	 0.3375047227	-0.4849127785	-1.2827201499	 0.13329
H	 0.5948732074	-1.0013511153	 0.3853809606	 0.082273
H	-2.9823890351	-1.88297203	 0.091461402	 0.126391
H	-1.3190369459	-2.4188283238	 0.6408992146	 0.119563
H	-1.2173166869	-0.4968481082	 1.9956631386	 0.235857
H	-3.513591921	 0.8382041358	 0.4492606397	 0.261446
H	-5.2707684835	 1.3705719731	-1.3342616785	 0.122732
H	-4.3378022647	 2.8273556794	-0.9226320544	 0.123657
H	-3.8761363993	 1.8494900961	-2.3353207605	 0.165794
