10
gdb 132485	3.28819	1.40388	0.98384	2.0509	53.11	-0.271	-0.0794	0.1916	1014.4266	0.052885	-557.858481	-557.851865	-557.850921	-557.889967	24.02	
F	 0.0762267664	 0.0944344053	 0.0022441647	-0.024093
C	-0.0770731241	 1.3886120332	 0.011488866	 0.431158
N	-1.2384562601	 1.9089251329	 0.0301857543	-0.361756
C	-1.2562734527	 3.2884909185	 0.0379450979	-0.106249
C	-0.1308828967	 4.0337674723	 0.0266639719	 0.101598
F	-0.1539695518	 5.358083346	 0.0340427861	-0.043405
C	 1.18467718	 3.4232934714	 0.005572366	 0.369017
O	 2.2613705061	 3.9285754583	-0.0067583883	-0.300945
O	 1.1006632983	 1.9952506076	-0.0012399088	-0.221708
H	-2.2316527355	 3.7621646046	 0.0537442802	 0.156383
