23
gdb 120653	4.17124	0.73031	0.68362	2.0033	86.86	-0.2389	0.0724	0.3113	1750.7057	0.204914	-388.258605	-388.248784	-388.24784	-388.294107	35.968	
C	-0.1948211169	 1.566080603	-0.0294109787	-0.3814
C	-0.2114599909	 0.0408431759	-0.1590159513	-0.155386
C	 0.9334855515	-0.5008692193	-1.0254430393	-0.195044
C	 0.9268103868	-2.0103589809	-1.1497566582	-0.064498
C	 0.0718425787	-2.6946928637	-2.1979480831	-0.35397
C	 1.5651798949	-2.6967552388	-2.3190622327	 0.279753
C	 2.4433536996	-2.1095789563	-3.4210773884	-0.13615
O	 3.3183238687	-3.2579511214	-3.3630911768	-0.277421
C	 2.5253529703	-3.8817037586	-2.3287974185	-0.136711
H	 0.7412850952	 1.9151343308	 0.4206131351	 0.114197
H	-0.2887793007	 2.0483377974	-1.0089533302	 0.113409
H	-1.018295639	 1.9230739528	 0.5968384259	 0.112232
H	-0.1523691484	-0.4133196092	 0.838876863	 0.094904
H	-1.168411306	-0.2864817455	-0.5843390529	 0.099421
H	 0.8727897558	-0.052887067	-2.0269073479	 0.091386
H	 1.8935142044	-0.1701620126	-0.6047917401	 0.096631
H	 1.0125576731	-2.538429899	-0.2008103833	 0.081621
H	-0.4249987046	-3.6256689442	-1.9424638668	 0.111352
H	-0.4891697084	-2.064476218	-2.8831647736	 0.110388
H	 1.9712591151	-2.0035202397	-4.4070561336	 0.09845
H	 2.9728020407	-1.1789780376	-3.1763090836	 0.100078
H	 3.1035212094	-4.0421136055	-1.4084935679	 0.098064
H	 2.1028370707	-4.8408074625	-2.6582952069	 0.098691
