18
gdb 76937	2.696	1.14824	1.04802	3.285	81.48	-0.2527	-0.0005	0.2522	1234.9245	0.143834	-401.913654	-401.903701	-401.902757	-401.948228	35.895	
C	 0.0545236518	 1.3853291153	-0.2478888922	-0.416624
C	-0.0441992767	-0.1023190277	-0.0078109333	-0.030468
N	 1.0494159677	-0.9981760093	-0.2909487531	-0.079364
C	 2.2491489006	-0.7133812189	-0.9045946373	 0.143223
O	 2.3721809519	-0.0355697448	-1.8978502899	-0.304119
C	 0.6897245167	-0.8358768912	 1.1182825376	 0.032478
C	 1.6286568977	-0.0987408905	 2.0604477233	-0.464567
C	 0.0238493618	-1.9687127662	 1.7234296382	 0.30367
C	-0.5305254622	-2.8896445854	 2.2610035956	-0.413884
H	 1.013294118	 1.8030067054	 0.061895712	 0.131934
H	-0.0603378069	 1.5935495947	-1.3150194394	 0.154243
H	-0.7445212839	 1.9010459753	 0.2939024774	 0.126143
H	-1.0143125326	-0.5278090088	-0.2609734506	 0.112113
H	 3.0921170721	-1.247308187	-0.4251704879	 0.087014
H	 2.1266447478	 0.7372013385	 1.565791091	 0.133376
H	 1.0696409379	 0.2833518562	 2.9192818285	 0.141962
H	 2.3954395308	-0.7800040337	 2.439966496	 0.141625
H	-1.0213320024	-3.711161862	 2.721778844	 0.201246
