17
gdb 81931	2.44873	1.69456	1.27382	0.9316	67.86	-0.2413	-0.0293	0.2119	1006.8253	0.136316	-458.969931	-458.961785	-458.960841	-459.002449	31.349	
O	-0.0381273507	 1.4782979085	-0.0166986935	-0.438958
C	-0.0375289041	 0.0718709613	 0.0031913561	 0.131262
C	-1.4253223486	-0.5776081598	-0.04958769	-0.069859
C	-2.1309287144	-0.5938004836	-1.3608715609	-0.291953
C	-1.3398253313	-1.8280257259	-0.919799129	-0.159097
C	 0.0504481759	-1.9090240157	-1.4431333132	 0.404712
O	 0.5805589091	-2.8554577937	-1.9740093819	-0.339462
C	 0.7621358302	-0.564137953	-1.159504809	-0.072703
O	 0.6538956994	 0.3030845978	-2.2900871128	-0.435902
H	-0.0112474829	 1.7408807548	-0.945393404	 0.296249
H	 0.4367669712	-0.2282434446	 0.944858577	 0.096509
H	-2.0112240327	-0.587580534	 0.8620698954	 0.1002
H	-3.2084535333	-0.7142008638	-1.3479297845	 0.126237
H	-1.7478960704	-0.0025284168	-2.1827307463	 0.140758
H	-1.8714320821	-2.7487583478	-0.7152932615	 0.109288
H	 1.8139053325	-0.7367613423	-0.9056916172	 0.097685
H	 1.1418581122	-0.0926537715	-3.0198748848	 0.305034
