11
gdb 130550	3.78424	1.26852	0.95005	2.4338	64.34	-0.2866	-0.096	0.1906	1105.113	0.065036	-451.507502	-451.500169	-451.499225	-451.540254	25.574	
O	-0.0294482443	-0.0373067119	 0.0032851142	-0.261563
C	-0.036210115	 1.1722908185	 0.0067190327	 0.154495
C	 1.1736771723	 1.9652581734	 0.0006105217	 0.311996
C	 2.2010876135	 2.5906311169	-0.0047029371	-0.420813
C	-1.3217303501	 1.9368656456	 0.0173695943	 0.303587
N	-1.355675354	 3.2475533466	 0.0211037089	-0.169779
O	-2.7118940753	 3.5356339489	 0.0309332186	-0.145632
C	-3.3454840779	 2.3532990807	 0.0320672625	 0.109621
N	-2.5587464545	 1.3294545226	 0.0240364762	-0.285904
H	 3.1065747122	 3.1479728102	-0.0093975107	 0.223479
H	-4.4252123667	 2.3760204585	 0.0393623387	 0.180513
