20
gdb 103099	1.85542	1.49151	1.13629	3.3783	80.34	-0.2331	0.0318	0.2648	1204.8994	0.17078	-399.323546	-399.313365	-399.312421	-399.358272	37.632	
C	-0.3675001335	 1.470461022	-0.1077561451	-0.390147
C	 0.1714993868	 0.0478667151	 0.0843664842	-0.246336
C	 0.8206085389	-0.5318647226	-1.1676247313	 0.25412
N	 1.9416395008	 0.1793834002	-1.7439881953	-0.554197
C	 0.8981078882	-2.0107062485	-1.3667434155	-0.008514
N	 0.4676286105	-2.9479132266	-0.3763933269	-0.519233
C	-0.066440473	-1.1721168765	-2.2548577101	-0.25792
C	-1.4704678118	-1.3174886755	-2.0407189714	 0.291149
N	-2.6010366477	-1.4660718785	-1.8332761635	-0.357916
H	 0.4271564051	 2.1718420152	-0.3823944289	 0.107294
H	-1.1335053927	 1.4980891389	-0.8888434527	 0.137234
H	-0.8202255859	 1.83756407	 0.8174065009	 0.12285
H	 0.9190142508	 0.0340789013	 0.8881907239	 0.102877
H	-0.6502951054	-0.5915409694	 0.4208215389	 0.11156
H	 1.6855159481	 1.1391527896	-1.9576563897	 0.234307
H	 2.7071663814	 0.2186431318	-1.0756374489	 0.234205
H	 1.7794747104	-2.3415111486	-1.9056230443	 0.117574
H	-0.4048975069	-2.6657939707	 0.0577295147	 0.247032
H	 0.2942382511	-3.8514454446	-0.8064922099	 0.243466
H	 0.2383451148	-0.9899059526	-3.2787701593	 0.130593
