16
gdb 29661	2.35939	1.68968	0.99766	3.6954	67.99	-0.1923	0.0479	0.2401	1135.3488	0.122731	-475.08225	-475.072903	-475.071959	-475.116471	32.622	
C	 0.015876782	 1.4383810941	 0.0203297525	-0.34747
N	 0.0508694514	-0.0064585583	 0.0453394373	-0.178118
C	 0.0371911987	-0.7644198737	-1.0932745508	 0.47898
O	-0.0023473285	-0.433848997	-2.2496659193	-0.414543
O	 0.0776265453	-2.0914846649	-0.6667001043	-0.249463
C	 0.0970768712	-2.089463267	 0.7065826753	 0.30712
O	 0.1923714785	-3.2773132693	 1.3238249273	-0.423536
C	 0.0724639052	-0.8430813194	 1.1930619055	 0.153463
C	 0.0782459072	-0.3393518106	 2.5910860976	-0.506171
H	 0.9010397314	 1.8666319438	 0.5025077846	 0.135556
H	-0.0015061098	 1.7407108508	-1.0276500483	 0.174327
H	-0.8794829878	 1.8251659599	 0.5189362516	 0.134676
H	-0.2292501846	-3.9455942449	 0.7696083313	 0.313638
H	 0.0546002937	-1.1878761511	 3.2782755326	 0.152231
H	 0.9752210099	 0.2501360395	 2.8175241022	 0.135674
H	-0.7922793839	 0.292413458	 2.8048438149	 0.133636
