17
gdb 33968	2.433	1.69449	1.20411	0.9323	80.06	-0.2324	0.03	0.2624	1056.9961	0.133879	-384.594829	-384.586801	-384.585857	-384.627098	31.788	
C	 0.0253472949	-1.2436966783	-0.0655175713	-0.415982
C	 0.0192687238	-0.0403514955	-0.0263329139	 0.201257
C	-0.0175148971	 1.3763558656	 0.0326935737	 0.011427
C	 0.2584277616	 2.3048288913	-1.1526842209	-0.34154
C	 1.0829344986	 2.4403253791	 0.0799955137	 0.048011
O	 0.4069260503	 3.2016629556	 1.0780215249	-0.309021
C	-0.6338544477	 2.2103177911	 1.1408622303	 0.419337
C	-2.0504544759	 2.541983836	 1.4563597824	-0.337974
C	-1.1926019204	 1.7437682978	 2.4362570882	-0.348916
H	 0.0406096238	-2.3046740623	-0.0996498572	 0.18741
H	 0.7396158121	 1.8117693856	-1.9907871164	 0.130662
H	-0.460236166	 3.0787963587	-1.4055959469	 0.12322
H	 2.1602010596	 2.3510092634	 0.1473082756	 0.121639
H	-2.2682923952	 3.572496391	 1.7149969724	 0.128271
H	-2.8380950207	 2.0294318694	 0.9142050789	 0.12414
H	-1.386527356	 0.6822949183	 2.5495544953	 0.129928
H	-0.8528079657	 2.2508200932	 3.3325069315	 0.128131
