21
gdb 59737	2.48047	1.32908	0.91501	1.7492	78.54	-0.2401	-0.0253	0.2148	1306.3581	0.181538	-424.254516	-424.245147	-424.244203	-424.28884	34.935	
C	 0.0029957911	 1.5599230506	-0.0091472104	-0.398039
C	 0.068598697	 0.0286380573	 0.1032050252	 0.023844
C	 0.7323915241	-0.3852873736	 1.4247681866	-0.400865
C	-1.3291250495	-0.5995693342	-0.0505948496	-0.105962
C	-2.1585318313	-0.1537936293	-1.2665704765	-0.117422
O	-3.1130053633	-1.1917520162	-1.4880715416	-0.248708
C	-2.4615034807	-2.4210766219	-1.2482080608	-0.176901
C	-1.3470658796	-2.1236586805	-0.240526509	 0.353471
O	-0.6243073066	-2.945568714	 0.2607989945	-0.304758
H	 1.0010913528	 1.9942494977	 0.107254488	 0.116678
H	-0.3903457696	 1.8908986085	-0.9753426843	 0.116049
H	-0.6346931054	 1.9828074464	 0.7763699171	 0.114529
H	 0.6892675579	-0.3458249708	-0.7232949903	 0.077852
H	 0.79896345	-1.4704847838	 1.5114014036	 0.151017
H	 1.7405881575	 0.0360011357	 1.4940930619	 0.107579
H	 0.1573855999	-0.0071817822	 2.2791792284	 0.106535
H	-1.9186094329	-0.3976594803	 0.857227642	 0.108668
H	-2.7136363413	 0.7729799666	-1.1135135539	 0.121844
H	-1.5092985468	-0.0290502629	-2.1500615764	 0.095709
H	-3.1767876181	-3.1521331839	-0.8599490745	 0.138996
H	-2.0062383653	-2.8391333693	-2.1624493699	 0.119883
