19
gdb 91043	2.22823	1.83423	1.51234	0.7648	74.19	-0.232	0.0612	0.2933	989.5966	0.158642	-422.962777	-422.954799	-422.953854	-422.994651	32.152	
C	-0.3524773145	 1.5331877554	-0.1175083552	-0.42045
C	 0.0877264218	 0.0848407862	-0.0812277919	 0.087085
O	 1.2084440161	-0.2505617756	-0.9558297164	-0.320003
C	 1.8287636537	-1.08678986	 0.0588113087	 0.02879
C	 3.0108281898	-0.4628986987	 0.8327161858	-0.065438
C	 2.8520032425	 1.0218815049	 0.9128346884	-0.297698
C	 2.0026637603	 0.166094623	 1.8148461194	-0.093654
C	 0.8305985087	-0.5611535203	 1.1140411714	 0.336451
O	 0.1313913987	-1.3358014147	 2.0346366966	-0.478615
H	-0.6138710011	 1.8250994458	-1.1397954029	 0.128668
H	-1.2452156378	 1.655549681	 0.5053200983	 0.122153
H	 0.4164773937	 2.2125191182	 0.2529662423	 0.129581
H	-0.7722859831	-0.5556000817	-0.348677798	 0.057452
H	 1.9132714001	-2.1356785427	-0.2353027277	 0.076135
H	 3.947176643	-0.9666043352	 1.0383884285	 0.087755
H	 3.6544475766	 1.5388576254	 1.4299380501	 0.112898
H	 2.4434544155	 1.5588475726	 0.0669185713	 0.130744
H	 2.0558102349	 0.2396349024	 2.8938174739	 0.097245
H	-0.4769807989	-1.9061714659	 1.5513518474	 0.280902
