19
gdb 48248	2.51365	1.0637	0.80837	2.7752	82.21	-0.245	-0.0219	0.223	1427.6278	0.156073	-385.849995	-385.840114	-385.83917	-385.885958	35.285	
O	 0.2961264401	-0.0462798892	 0.3790652013	-0.249344
C	 0.2055606638	 1.1073132555	 0.052856838	 0.178166
C	 1.3806631779	 2.0607409531	-0.0989921051	-0.087832
C	 1.2512135298	 2.899111045	-1.3931618026	-0.381719
C	 1.2623105434	 2.0889682943	-2.6047699503	 0.284477
C	 1.272004145	 1.3909775521	-3.583032579	-0.421653
C	 1.4314419592	 2.9614916916	 1.127505158	 0.009865
C	 2.0362213527	 2.4578474797	 2.4120253135	-0.276128
C	 2.7535490054	 3.5118920253	 1.6064737056	-0.275223
H	-0.7905686311	 1.5797656503	-0.126115463	 0.07019
H	 2.2875428691	 1.4493594066	-0.141094049	 0.103425
H	 0.3224516688	 3.4848029722	-1.3498013171	 0.131457
H	 2.068371911	 3.6293533279	-1.4180567348	 0.140944
H	 1.2783726519	 0.7808679796	-4.4520861964	 0.199576
H	 0.5742849616	 3.6239243547	 1.2274829051	 0.088243
H	 1.5708864694	 2.749228964	 3.3467553109	 0.118256
H	 2.4440403333	 1.4527941973	 2.4129533285	 0.130629
H	 3.6482085264	 3.2162822139	 1.0682390445	 0.118651
H	 2.7791462222	 4.5266892762	 1.9874836919	 0.118019
