19
gdb 78460	3.77994	1.19824	1.11979	2.734	74.23	-0.2379	0.0707	0.3086	1131.1734	0.160073	-422.963741	-422.955938	-422.954994	-422.995496	31.781	
O	 0.0825327967	 1.3817537405	 0.0219892635	-0.450494
C	 0.0980244056	-0.0152874441	-0.0288137731	 0.118333
C	-0.3141904894	-0.7804747993	 1.2070545305	-0.1015
C	-1.2247047785	-0.7454683436	-0.0333298719	-0.101504
C	-1.3141322701	-2.2503852874	-0.3359202782	-0.089167
C	-1.5646361766	-2.8073793096	 1.112875826	-0.250543
C	-0.092992862	-2.297335064	 1.3276344948	-0.089159
C	 0.1539075343	-2.752490296	-0.1470821523	 0.190328
O	 0.3917828719	-4.1228926794	-0.360372514	-0.467159
H	-0.6560502674	 1.6640850534	 0.5720063116	 0.28268
H	 0.9312094661	-0.3194407915	-0.6490054635	 0.113585
H	-0.5351664683	-0.2115437489	 2.1056838811	 0.084159
H	-2.1325861142	-0.1501349128	-0.0704582607	 0.084158
H	-1.9069446991	-2.5639098867	-1.195642553	 0.068074
H	-2.3512267951	-2.3316075609	 1.7037012133	 0.095874
H	-1.6859487463	-3.8935429157	 1.1712772588	 0.082863
H	 0.5404814742	-2.658010847	 2.1384789192	 0.068075
H	 0.9421556604	-2.2578658615	-0.7117356759	 0.081459
H	-0.2679158922	-4.6419213754	 0.1090971136	 0.27994
