21
gdb 108117	2.97477	1.48289	1.34054	1.709	81.38	-0.236	0.0855	0.3215	1073.5686	0.184058	-387.054797	-387.047149	-387.046205	-387.086847	31.175	
C	-0.0915278044	 1.5781549741	 0.0299269134	-0.379568
C	-0.0293936603	 0.044713921	-0.0074805827	-0.305736
C	 0.6558700321	-0.4881361551	-1.2426097591	 0.346213
C	 0.1139518751	-0.3410794928	-2.6776671149	-0.293251
C	 1.1931089814	-1.3976235575	-2.9849780828	 0.072204
O	 2.4069834156	-0.6526447729	-2.7885649938	-0.271006
C	 2.2484442741	-0.4278896066	-1.379645476	 0.041637
C	 2.3336251569	-1.86328348	-0.8133417682	-0.249199
C	 0.9874651862	-2.0075055722	-1.5349689436	-0.120274
H	 0.9113036107	 2.017626324	 0.0148550056	 0.118679
H	-0.638257262	 1.9730652831	-0.832456099	 0.121864
H	-0.5965072414	 1.9291437896	 0.9349013681	 0.112959
H	 0.4859928546	-0.3207194914	 0.8903131901	 0.096575
H	-1.0479607551	-0.3624055961	 0.0412801427	 0.096532
H	-0.903007977	-0.7401939186	-2.7444270498	 0.094515
H	 0.1936919553	 0.6122248458	-3.2068755374	 0.097927
H	 1.2367150573	-1.9837395884	-3.9013582577	 0.075944
H	 2.8666392543	 0.4030139301	-1.0421634187	 0.074571
H	 3.1909762737	-2.4620342641	-1.1299735307	 0.099026
H	 2.2096032504	-1.9083013797	 0.2715284969	 0.100576
H	 0.2794309024	-2.8233891925	-1.3971710025	 0.069813
