19
gdb 57618	4.15777	0.842	0.83336	2.9516	79.59	-0.3297	0.0006	0.3303	1410.1788	0.157434	-382.114361	-382.104302	-382.103357	-382.149315	36.308	
C	 0.0093323685	 1.5825780652	 0.058835834	-0.425531
C	 0.0376187152	 0.0460902613	 0.0636148853	 0.229159
C	 0.7779022662	-0.4781298939	 1.3041014173	-0.425536
C	-1.4131763418	-0.5156134766	 0.0294752081	-0.364802
C	-2.2147988298	-0.1167073792	 1.1839487006	 0.273843
N	-2.8391297159	 0.2055180038	 2.1014516244	-0.311499
C	 0.7231324208	-0.4802151595	-1.2304314931	-0.364802
C	 2.111064705	-0.044968292	-1.3673163735	 0.273842
N	 3.2078143711	 0.3058209892	-1.4648715843	-0.311499
H	 1.0251745879	 1.9867977633	 0.0499452288	 0.147314
H	-0.5161168964	 1.9692968688	-0.8213958053	 0.117491
H	-0.4997536359	 1.9615153806	 0.9491427552	 0.147314
H	 0.2841857165	-0.1400398376	 2.219166814	 0.147307
H	 0.8050173532	-1.5733406066	 1.3194476651	 0.117488
H	 1.8090237445	-0.1148836629	 1.3198154088	 0.147307
H	-1.9273109171	-0.1749343358	-0.8773621526	 0.150657
H	-1.3916048705	-1.6114230086	-0.0089591931	 0.150645
H	 0.7060616274	-1.5766669571	-1.246014785	 0.150646
H	 0.169909501	-0.1402341324	-2.1142346547	 0.150656
