14
gdb 42740	2.74069	1.65929	1.26132	5.79	66.06	-0.2599	-0.0488	0.2111	969.5757	0.101744	-436.680239	-436.673231	-436.672286	-436.712008	26.411	
O	-0.04105903	 0.0472401784	-0.0145261268	-0.291504
C	-0.0725661221	 1.2374289465	 0.0134293056	 0.445946
C	-1.2486755205	 2.2230835828	 0.0358692389	-0.031292
C	-0.8301466469	 3.2449197194	-1.0502894466	-0.258657
C	 0.2225920586	 3.5278834227	 0.0436950863	 0.072786
O	-0.769512765	 3.1613474498	 1.0501418518	-0.279995
C	 1.1278930422	 2.2653669043	 0.0267489298	-0.287874
C	 1.9934463795	 2.1412267095	 1.1848231049	 0.292854
N	 2.6884872648	 2.0503613686	 2.1037342322	-0.314453
H	-2.2522837108	 1.8336030252	 0.1854959959	 0.11993
H	-0.5085139268	 2.8899401509	-2.0325979285	 0.122282
H	-1.55678049	 4.0530499144	-1.130813341	 0.140514
H	 0.6941147291	 4.4950009296	 0.203981645	 0.11981
H	 1.7180600178	 2.157028768	-0.8889290177	 0.149655
