18
gdb 14367	3.97587	2.11863	1.82871	2.1589	70.91	-0.2304	0.0759	0.3064	791.3771	0.155845	-347.721475	-347.715131	-347.714187	-347.752027	26.001	
C	-0.0383123155	 1.6016619379	 0.1084944604	-0.270281
C	 1.4442178541	 1.2092608397	 0.0686815278	 0.002744
O	 1.1159403673	 0.0326474849	 0.9449959895	-0.373256
C	 0.0907259684	 0.0678024881	-0.1332937076	 0.449842
C	-0.9314299692	-0.878708767	-0.6962876096	-0.366028
C	-0.89808217	-0.4330126825	-2.2127922887	-0.193319
C	 0.3891505716	 0.4660771158	-2.4626459046	-0.287013
C	 1.1853437118	 0.2853802171	-1.167484916	 0.008028
H	-0.4146347239	 1.8766197215	 1.0941471151	 0.105009
H	-0.4401088646	 2.2316898002	-0.6875117346	 0.096853
H	 2.3305346325	 1.776500802	 0.3553098746	 0.090331
H	-0.5911426873	-1.912978016	-0.5855108936	 0.118856
H	-1.9303210637	-0.7970300538	-0.2607745707	 0.107086
H	-0.8890803139	-1.3133640138	-2.860023876	 0.110558
H	-1.8022899295	 0.1280182478	-2.4628756253	 0.108844
H	 0.9435019438	 0.1297882473	-3.3417782921	 0.102476
H	 0.0951776643	 1.5010708383	-2.6515116111	 0.108931
H	 1.8950401137	-0.5448067476	-1.2037661175	 0.08034
