18
gdb 31270	2.05185	1.6743	1.0132	0.7928	76.1	-0.1912	0.0459	0.2371	1180.659	0.147732	-439.098463	-439.089279	-439.088335	-439.13263	33.426	
C	 0.2975840999	 0.6135376769	 0.5419347722	-0.263445
O	-0.4548924069	 0.3388443788	-0.6497752387	-0.277378
C	-1.5176392268	-0.4812824942	-0.47594547	 0.291831
C	-1.598143837	-1.8453256047	-0.2777390348	 0.187705
C	-0.441788086	-2.7781254974	-0.1633444814	-0.222804
O	 0.1237911802	-2.6968776884	 1.1556921697	-0.412709
C	-2.9910961153	-2.1568622134	-0.2125497826	-0.240277
C	-3.6999333439	-0.9938220695	-0.3789260942	-0.092351
N	-2.7880346323	 0.0283443625	-0.529337722	-0.294463
H	 1.1746195081	 1.1821883518	 0.2255507189	 0.12323
H	-0.2935433609	 1.2172071321	 1.2426127867	 0.111133
H	 0.5987533647	-0.3176385708	 1.0300367235	 0.153455
H	-0.7788344955	-3.8043039012	-0.3696202824	 0.092063
H	 0.3217581099	-2.5219443824	-0.913208544	 0.093959
H	 0.8877408356	-3.2833125944	 1.1782733438	 0.279954
H	-3.4128079846	-3.1400675635	-0.0659745504	 0.09215
H	-4.7596580004	-0.8027982181	-0.4146521301	 0.116419
H	-2.9947895987	 0.9968151758	-0.7027524542	 0.261528
