20
gdb 96705	2.55827	0.97673	0.79403	3.0479	86.2	-0.2363	-0.0354	0.2009	1522.9624	0.168676	-399.351453	-399.340576	-399.339632	-399.387697	38.225	
C	 0.0289356071	 1.5052982666	 0.0367768043	-0.342947
N	 0.0594376667	 0.0601822301	 0.0126728852	-0.299368
C	-1.0178838604	-0.6214781848	 0.0085458751	 0.326836
N	-1.0376613358	-1.9902903843	 0.0695596762	-0.349566
C	 0.1824343565	-2.7944910174	-0.0010036327	 0.070506
C	-0.1042351909	-4.1752485286	 0.5906247341	-0.405527
C	 0.7363949671	-2.8756810028	-1.43050463	-0.385576
C	-2.3583655707	-0.03697961	-0.024892849	 0.223399
N	-3.41155163	 0.4386640285	-0.0655388956	-0.333574
H	 0.5989676396	 1.8924145338	-0.8158147978	 0.13086
H	-0.978317377	 1.9440349232	 0.0083255577	 0.127928
H	 0.5343224086	 1.8642168017	 0.9414951279	 0.131609
H	-1.9080186699	-2.4429611065	-0.1618884386	 0.253453
H	 0.9166315869	-2.275387626	 0.6226535973	 0.11733
H	-0.8584636445	-4.7081705285	-0.0016326857	 0.114613
H	 0.8036087649	-4.7845011411	 0.5893839076	 0.126946
H	-0.46802501	-4.0968275488	 1.6188374242	 0.127332
H	 0.0272272772	-3.3809308818	-2.0958795673	 0.108307
H	 0.9309980051	-1.8740820395	-1.8199731252	 0.140452
H	 1.6752888995	-3.4384179538	-1.4451113377	 0.116987
