17
gdb 107142	2.90451	1.28357	1.14679	1.8606	67.82	-0.2333	0.0544	0.2877	1117.5393	0.133697	-458.867294	-458.858945	-458.858	-458.900112	32.367	
O	 0.2610894031	 1.3086104189	 0.3566825704	-0.407304
C	 0.0322924378	-0.0600911448	 0.0624567514	-0.182364
C	-1.4263478709	-0.3983358502	 0.0845565614	 0.390632
O	-1.8670238681	-1.6034685822	-0.5665057672	-0.28128
C	-2.4724837632	-0.3567683067	-0.9387364108	-0.154525
C	-3.5355073981	 0.0462799153	 0.148022831	 0.357947
O	-4.4434038093	 1.0634733683	-0.0644605642	-0.453557
C	-3.6192422526	-0.9720858536	 1.2501018049	-0.352216
C	-2.4506955926	-0.0031370136	 1.1990894585	-0.191428
H	-0.1883130687	 1.8311230573	-0.316260868	 0.28693
H	 0.4512493805	-0.3626583253	-0.9086371625	 0.104557
H	 0.5603935613	-0.6222225552	 0.8410980385	 0.122169
H	-2.4664149778	-0.0741609078	-1.9862875174	 0.106995
H	-5.2601575931	 0.6748151052	-0.3986567242	 0.289779
H	-4.3503313238	-0.7207507668	 2.0125638397	 0.116139
H	-3.4755872887	-2.0288508395	 1.0615338286	 0.134076
H	-2.2321180258	 0.7089676906	 1.9822690599	 0.113451
