14
gdb 43788	3.85624	1.32013	1.15895	4.4227	66.6	-0.2884	-0.0131	0.2753	1019.7111	0.102323	-436.708085	-436.701292	-436.700348	-436.739381	26.321	
O	-0.0641681939	 0.0769195403	-0.0378425911	-0.329392
C	 0.0356957459	 1.2613288838	-0.0053823259	 0.467786
O	-1.0449301285	 2.1304842921	 0.01056686	-0.280536
C	-0.3768738282	 3.4264587035	 0.0499422232	 0.331842
C	 0.7345594966	 3.2632068066	-1.0214222672	-0.27013
C	 1.2283104632	 2.2078513118	 0.0281856028	-0.21677
C	 0.7198841442	 3.2055301975	 1.1260810644	-0.270123
C	-1.3321394848	 4.5125684956	 0.072630443	 0.211625
N	-2.0477401982	 5.4185854223	 0.0921159172	-0.324261
H	 0.4154897236	 2.9159266494	-2.0050070958	 0.14256
H	 1.3915194601	 4.1302533324	-1.0935403661	 0.137735
H	 2.21669912	 1.7603884222	 0.0229250822	 0.119368
H	 1.3754840125	 4.0672113517	 1.2535989364	 0.137735
H	 0.3875400376	 2.806072511	 2.0851590171	 0.142561
