20
gdb 119513	4.03389	0.92116	0.86019	2.5148	78.5	-0.2189	0.0671	0.286	1395.2215	0.170467	-403.049885	-403.04123	-403.040286	-403.083607	33.121	
O	-0.1140854357	 1.4722397129	-0.0188013325	-0.418976
C	-0.0008532248	 0.0662071437	-0.1717067422	-0.065698
C	-1.360012503	-0.5487711963	 0.1558164717	-0.304964
C	-1.3537505208	-2.0475222813	 0.0678262301	 0.354349
C	-1.5508642431	-2.8352497324	-1.2037701509	-0.360063
C	-2.4828077071	-3.0454209114	-0.0401221332	-0.074538
N	-1.9886319389	-3.8696626463	 1.135784554	-0.139201
C	-0.6252911463	-4.3735046862	 0.8768915555	-0.250592
C	-0.804568809	-2.9442511407	 1.2058675179	-0.090295
H	 0.7391460006	 1.867490419	-0.2193711096	 0.285759
H	 0.287749468	-0.2061881446	-1.1993377022	 0.088429
H	 0.766770637	-0.3490965048	 0.5019133322	 0.087472
H	-1.6510045375	-0.2284796387	 1.1642647153	 0.110804
H	-2.1059020513	-0.1355237634	-0.5328265276	 0.107075
H	-2.0113317281	-2.2563799615	-1.9999364161	 0.116807
H	-0.851260852	-3.577428048	-1.571482718	 0.111897
H	-3.5532587643	-2.8970415439	-0.1109394155	 0.10377
H	-0.2790886522	-5.0170569889	 1.681205825	 0.122292
H	-0.3302330537	-4.7097198287	-0.1101051834	 0.118997
H	-0.4979286781	-2.5223115085	 2.1591343797	 0.096676
