18
gdb 38485	3.28402	1.72433	1.58875	2.0912	73.47	-0.2162	0.0562	0.2724	906.6756	0.150066	-401.865769	-401.859198	-401.858254	-401.896254	27.865	
C	-0.0330001603	 1.4274570375	 0.0079957087	-0.376091
C	 1.3453029893	 0.7949370356	-0.0804252677	 0.136833
C	 1.6743593574	 0.0999594559	 1.247363557	-0.130961
O	 0.4124156069	-0.6317334511	 1.2547655402	-0.326269
C	 0.0915386875	-0.0597805814	-0.0183173012	 0.407381
C	 0.0138085765	-0.8889303562	-1.2685603169	-0.148706
N	-0.1467786215	-0.0487136509	-2.4703650163	-0.334243
C	 1.2015826491	-0.5379381977	-2.1164643966	-0.025483
C	 2.0636797972	 0.5224787678	-1.3998820697	-0.305394
H	-0.3362054739	 1.9101199323	 0.9329346139	 0.111606
H	-0.3943638541	 1.8802186654	-0.9066567525	 0.14592
H	 2.5217964037	-0.592372819	 1.1739221659	 0.103462
H	 1.787499668	 0.7255644606	 2.1412600005	 0.104684
H	-0.4143873239	-1.8845531054	-1.2353857769	 0.095908
H	-0.5298562141	-0.6048573518	-3.2302515191	 0.235528
H	 1.6755560682	-1.2550406599	-2.7817345214	 0.086766
H	 2.1872035518	 1.4136792586	-2.0230750719	 0.115562
H	 3.0631489623	 0.1174738998	-1.2077715661	 0.103496
