15
gdb 25477	5.47992	0.97473	0.82754	1.1575	83.32	-0.2283	-0.0519	0.1764	1310.27	0.116017	-413.045102	-413.037709	-413.036765	-413.077452	27.331	
N	-0.5090877541	-2.9926725096	-0.1672559846	-0.471052
C	-1.5771463016	-2.3133905306	-0.0349059298	 0.0929
N	-1.5618204092	-0.9547725585	-0.2803742049	-0.361109
C	-2.6360163971	-0.0940268684	-0.1783932595	 0.436253
C	-2.4721097237	 1.2781892378	-0.4613733654	-0.086325
N	-3.4763316281	 2.1337502766	-0.3751462115	-0.223656
C	-4.665741091	 1.6391027597	-0.0048104308	-0.032734
C	-4.825747981	 0.288646488	 0.2733645412	-0.012111
N	-3.8200018338	-0.5852271855	 0.1900416754	-0.318881
H	-0.6866886598	-3.9712464617	 0.0491913636	 0.23061
H	-2.562226582	-2.6747137942	 0.263195567	 0.138561
H	-0.6674981238	-0.5768504358	-0.5596965821	 0.262013
H	-1.5013160673	 1.6691515287	-0.7613834889	 0.110396
H	-5.4952978123	 2.3348783032	 0.0683761853	 0.116269
H	-5.7916288553	-0.1098293196	 0.5735405652	 0.118866
