15
gdb 9058	5.09027	0.90255	0.79988	2.7374	67.91	-0.2723	0.0054	0.2777	1343.0857	0.116552	-362.636303	-362.627401	-362.626457	-362.670297	31.253	
O	-0.0812387922	 1.4268042183	 0.024093858	-0.407092
C	 0.0212002098	 0.014036203	 0.0115399937	-0.023258
C	 0.6959909146	-0.5323883278	-1.2584679578	-0.198505
C	-0.0626845263	-0.1006186946	-2.5282193641	-0.362468
C	 0.5878095645	-0.5638656773	-3.746296885	 0.283316
C	 1.1465188253	-0.9566361149	-4.7349961205	-0.423449
C	 0.7167981071	-0.4795520113	 1.2180584796	 0.255592
N	 1.2904182951	-0.8467941425	 2.1514668661	-0.309862
H	 0.8085648161	 1.7950856606	 0.0808216001	 0.298018
H	-1.0138137514	-0.3455064014	 0.0539624927	 0.14294
H	 1.73032794	-0.1726529578	-1.3003267715	 0.124408
H	 0.7440242964	-1.6242837674	-1.1988650779	 0.136711
H	-1.0896226847	-0.4876632035	-2.4881596079	 0.13507
H	-0.1499356336	 0.9914082487	-2.5382131824	 0.148999
H	 1.6289196393	-1.2981630223	-5.6171867933	 0.19958
