17
gdb 9503	2.69499	1.82381	1.67222	1.0214	65.46	-0.2281	-0.0287	0.1994	887.7671	0.139923	-400.977996	-400.969276	-400.968332	-401.011316	31.263	
C	-0.0768100397	 1.7760765915	-0.0697889159	-0.447035
C	 0.0586001005	 0.26695511	 0.0426748675	 0.226288
N	 1.2440069506	-0.2996357613	-0.6823765961	-0.352732
C	 1.5820571254	-1.1606989382	 0.4811361478	-0.199659
C	 0.597758329	-0.3457698443	 1.363202697	 0.08045
O	 1.1834810354	 0.6414947285	 2.1809070887	-0.436055
C	-1.1899048626	-0.4468451798	-0.4467561036	 0.111099
O	-1.8052500257	-1.2927409861	 0.1526390322	-0.256653
H	 0.8612375912	 2.2495897437	 0.2222410237	 0.147641
H	-0.3059315965	 2.0607198206	-1.1028810018	 0.112727
H	-0.8766231	 2.1502451866	 0.5777100116	 0.125174
H	 1.0349382799	-0.7900150061	-1.5484955928	 0.217049
H	 1.297371515	-2.2149707692	 0.3799916479	 0.105286
H	 2.6349154505	-1.0918278835	 0.7731623294	 0.105157
H	-0.1453615289	-0.9391397351	 1.903586461	 0.094777
H	 1.4656164759	 0.223239733	 2.9997291238	 0.289048
H	-1.4794197101	-0.1573029902	-1.4860795504	 0.077437
