23
gdb 115705	2.65927	1.00456	0.89044	2.7505	81.31	-0.2442	0.0625	0.3067	1444.2332	0.204909	-425.402478	-425.392165	-425.39122	-425.439451	37.559	
C	 0.7433691973	-1.2103255353	-2.292952908	-0.401728
C	 0.2906029964	-0.3749187552	-1.0840725881	 0.023539
C	 0.4668146164	 1.1203609969	-1.3975403689	-0.397144
C	-1.1502657721	-0.6532667925	-0.5981703065	-0.07285
C	-2.219334764	-1.2182442317	-1.5670164177	-0.081861
O	-2.4503567293	-2.3699273085	-0.7266536262	-0.311179
C	-1.4852797488	-1.9104921366	 0.2553995156	 0.112824
C	-0.4690887686	-3.0054174468	 0.5386789308	-0.082201
O	-1.1443511776	-4.1647266851	 0.9931320169	-0.424831
H	 1.8163072261	-1.0755623012	-2.4625026862	 0.115576
H	 0.5584383345	-2.2796716662	-2.1646461435	 0.125041
H	 0.2291875349	-0.893036919	-3.2067872512	 0.117084
H	 0.9577025098	-0.6126450482	-0.243851037	 0.081996
H	 0.2592192178	 1.7413820374	-0.5201150947	 0.113295
H	 1.4874780597	 1.3364338991	-1.729442246	 0.112829
H	-0.2137960568	 1.4353276883	-2.1978125582	 0.115537
H	-1.5098212597	 0.2449873542	-0.089729803	 0.079566
H	-3.1251037358	-0.6097190101	-1.6756807969	 0.100231
H	-1.8706445692	-1.5103101955	-2.5630971568	 0.104433
H	-1.9964925161	-1.6725399958	 1.1985932163	 0.080318
H	 0.1337966024	-3.2252618249	-0.3534867786	 0.089067
H	 0.2132373553	-2.6967844941	 1.3386930417	 0.106233
H	-1.8347673826	-4.3376686592	 0.3408012962	 0.294225
