21
gdb 96322	2.18448	1.50018	0.94114	2.0864	82.4	-0.2399	0.0152	0.2551	1294.0597	0.18221	-424.22892	-424.219736	-424.218792	-424.263322	34.498	
C	 0.3598222864	 1.6125378787	-0.0892328123	-0.39708
C	-0.0840645855	 0.150903225	-0.0400481559	 0.065769
O	 0.3098682898	-0.4151611733	-1.2841133326	-0.234689
C	-0.0572603063	-1.7429177465	-1.5032350879	 0.012154
O	 0.8369931886	-2.6629532377	-0.946955868	-0.221521
C	 0.6451149007	-2.9591334931	 0.4188331166	-0.167751
C	 0.7429614508	-1.8241375417	 1.4179691423	 0.246297
C	 1.1599070881	-2.2947044988	 2.7912812595	-0.467256
C	 0.4367234088	-0.5426699371	 1.1996923015	-0.131706
H	 1.4511037035	 1.6744136402	-0.1308020921	 0.130863
H	-0.0497681587	 2.0962743729	-0.9791056357	 0.122728
H	 0.0119818323	 2.1526386505	 0.7958382304	 0.113425
H	-1.1902403371	 0.1283113769	 0.0107984143	 0.077395
H	-1.0843375473	-1.9301252617	-1.1363445392	 0.068966
H	-0.0137257684	-1.8968409663	-2.584544656	 0.111219
H	-0.3346120053	-3.4539245572	 0.5640103542	 0.100046
H	 1.4056560569	-3.7110725601	 0.6560295148	 0.114684
H	 0.5200176162	-3.1168046929	 3.1385948544	 0.123972
H	 2.1863253907	-2.6831785746	 2.781691861	 0.129319
H	 1.1046206309	-1.4906321643	 3.5285824739	 0.123335
H	 0.5074904549	 0.1282379611	 2.055273677	 0.079833
