23
gdb 75566	2.25984	1.58642	1.16385	0.3724	91.2	-0.2105	0.0258	0.2363	1190.3237	0.208272	-351.155809	-351.147147	-351.146203	-351.18878	34.527	
C	-0.0147595414	 1.5070547985	 0.1630110894	-0.484891
C	 0.0376892693	 0.0084188507	-0.0214398514	 0.346781
C	-0.1754623435	-0.5270038654	-1.2315008721	-0.176076
C	-0.1105085347	-1.9821331594	-1.6444742732	-0.265334
C	-0.9215008836	-3.0190061275	-0.8101942533	-0.197556
C	-1.480033673	-2.5513845447	 0.5433929025	-0.208085
C	-0.4788019494	-2.018142325	 1.5553263593	-0.012128
C	 1.0085550428	-2.0716654612	 1.3453320884	-0.313143
C	 0.286939712	-0.7391785578	 1.24505357	-0.092779
H	 0.9374171208	 1.8880649103	 0.5548434583	 0.121039
H	-0.2275741549	 2.0249405017	-0.7755019507	 0.115983
H	-0.7848315211	 1.7908362193	 0.8922554553	 0.120479
H	-0.3661791661	 0.1707501189	-2.044111309	 0.071251
H	-0.4421279045	-2.0483306885	-2.685466661	 0.096923
H	 0.9434466387	-2.2892242835	-1.6735798083	 0.11261
H	-1.7767949702	-3.356766012	-1.405979895	 0.095783
H	-0.3026512685	-3.9094205999	-0.6521067451	 0.097058
H	-2.2378814569	-1.7773993396	 0.3651515407	 0.102185
H	-2.0123625976	-3.3988366046	 0.9919770918	 0.091235
H	-0.810813338	-2.1075036201	 2.5861455092	 0.081559
H	 1.6453893992	-2.219526559	 2.2109158526	 0.10654
H	 1.3949402369	-2.5205788711	 0.4404271395	 0.117351
H	 0.4433698038	-0.0859985502	 2.0982908022	 0.073213
