15
gdb 77805	2.43813	1.42592	1.08245	3.7614	68.41	-0.256	-0.0532	0.2028	1099.085	0.110388	-457.755762	-457.747546	-457.746602	-457.788823	30.216	
O	-0.2769904217	 1.4493213065	-0.0265874106	-0.411421
C	-0.1669488275	 0.063312252	 0.0211849785	 0.051563
C	-0.4664578801	-0.745854996	 1.2576652094	-0.298377
C	-1.6232484746	-0.1381270214	 2.0156145423	 0.444282
O	-1.7975323913	 0.0572270872	 3.182805046	-0.309238
C	-2.5357337989	-0.0578765424	 0.7762325897	-0.416922
C	-1.4197401204	-0.7392431171	-0.0269500522	 0.208828
C	-1.6128286594	-1.8801640757	-0.938877711	 0.072502
O	-2.6894914304	-2.3475332467	-1.2182003126	-0.25519
H	 0.4237291634	 1.8302980532	 0.5140785702	 0.300958
H	 0.6582675219	-0.3514552448	-0.5621846996	 0.111324
H	 0.2083475566	-1.5170684922	 1.6111651738	 0.12453
H	-3.4136877431	-0.6982874589	 0.8911167376	 0.15633
H	-2.8351237196	 0.936372652	 0.4428416315	 0.145631
H	-0.6698202448	-2.3006482958	-1.3568627131	 0.075201
