22
gdb 119279	2.08259	1.18838	0.89177	4.011	86.52	-0.2992	0.0332	0.3324	1425.725	0.194051	-367.230362	-367.220511	-367.219567	-367.26545	36.225	
C	 0.2751905552	 1.5698680581	 0.0463893296	-0.381288
C	 0.1278277049	 0.0471939231	-0.0233349701	-0.186329
C	 0.6602440759	-0.6511617192	 1.2325530421	-0.233968
C	 0.5625033117	-2.1896318693	 1.2090585159	 0.16065
C	 1.6071828203	-2.8767010331	 0.2570745553	-0.251274
C	 2.5121844068	-3.1580587861	 1.484537448	-0.214679
C	 1.3099515461	-2.858175578	 2.4171958943	-0.259464
C	-0.8201965377	-2.6194832658	 1.0303649477	 0.246658
N	-1.9129782804	-2.9743269623	 0.8942319593	-0.360813
H	 1.32546606	 1.8647505079	 0.1507249434	 0.113134
H	-0.1159639369	 2.0463455286	-0.8573984946	 0.117777
H	-0.2704407891	 1.9816289255	 0.902420619	 0.118868
H	-0.9272154563	-0.2161034044	-0.1619719831	 0.126095
H	 0.6562534747	-0.3309549891	-0.9075259883	 0.100263
H	 1.7147268576	-0.3871459189	 1.3849132719	 0.099588
H	 0.1190091859	-0.2843144421	 2.1139208371	 0.111037
H	 1.2100205097	-3.7899452349	-0.189842188	 0.1248
H	 2.0098931257	-2.2448994728	-0.5373266111	 0.111938
H	 2.9447996799	-4.1574742651	 1.5524910722	 0.110896
H	 3.3185288686	-2.4284466255	 1.5893964723	 0.111566
H	 1.4809380828	-2.2061905548	 3.2770197495	 0.110614
H	 0.8054066946	-3.7645425217	 2.7572559573	 0.123929
