17
gdb 52912	2.16889	1.17746	0.86801	3.2941	82.32	-0.2446	0.0131	0.2577	1378.3674	0.135244	-380.829242	-380.819661	-380.818716	-380.86643	33.011	
C	 0.0205723979	 1.5077920945	-0.0310329919	-0.501126
C	 0.0365140822	 0.0529803982	-0.0187654626	 0.106175
C	 0.0525752457	-1.150105208	-0.0114822953	 0.040756
C	 0.065454206	-2.6042155397	 0.0038114198	-0.039843
C	 0.1315332187	-3.2402249856	 1.4451625816	-0.18924
N	-1.3315223258	-3.4272747957	 1.407929337	-0.303888
C	-1.3628859226	-3.2692766627	-0.0586851771	-0.189239
C	 1.0356685487	-3.1388565989	-0.9499919027	 0.236366
N	 1.7951158731	-3.5890196468	-1.6959814274	-0.344358
H	 0.7420261723	 1.9019077651	-0.754654636	 0.158132
H	-0.9689243134	 1.8905327968	-0.3029775626	 0.154486
H	 0.2773975893	 1.9147760649	 0.9528130216	 0.154486
H	 0.7239622151	-4.1638173694	 1.4420497094	 0.116265
H	 0.4915746303	-2.5727817109	 2.2318365813	 0.127833
H	-1.6594047042	-4.3223781644	 1.7510478433	 0.2291
H	-2.1599555619	-2.6243270097	-0.4364234747	 0.127833
H	-1.3380996514	-4.2039042776	-0.633020864	 0.116264
