16
gdb 71540	2.5701	1.56362	1.46583	3.3834	74.49	-0.272	0.0179	0.2899	972.4301	0.124696	-400.692264	-400.684854	-400.68391	-400.723953	29.119	
O	 0.1251157592	 1.317029897	 0.1071176255	-0.46189
C	 0.0919752883	-0.0448708362	-0.0315258535	 0.382771
C	 0.625070043	-0.9461089897	-1.1622475897	-0.334021
C	 0.0664694686	-1.9201074753	-0.1040710211	-0.08084
C	 0.5338403637	-1.023763808	 1.0979181541	-0.10131
C	-0.8592161209	-1.0403901728	 1.757954277	-0.314921
C	-1.1625741365	-1.0046461606	 0.2441784628	 0.171487
C	-2.420916188	-0.9647463559	-0.4427324802	 0.142611
N	-3.42885384	-0.9051004634	-1.0094732669	-0.351198
H	-0.3111534639	 1.7221810142	-0.6514847495	 0.298338
H	 0.0999825433	-0.9095341589	-2.1215186519	 0.113559
H	 1.7095035258	-0.9518279975	-1.3046526365	 0.108701
H	 0.0366748644	-3.0065287227	-0.1185670493	 0.1016
H	 1.5191000321	-1.0488881507	 1.5606816994	 0.09171
H	-1.146867715	-1.9547397602	 2.2831640824	 0.110289
H	-1.1447062041	-0.1522429593	 2.3257260074	 0.123114
