18
gdb 41709	3.85187	1.50685	1.27647	1.5336	74.57	-0.2327	0.0169	0.2495	1004.0386	0.151195	-401.962142	-401.955506	-401.954562	-401.992886	27.325	
C	 0.2612059275	 1.3429950488	-0.464251204	-0.226263
C	 1.4437644051	 1.9651374213	 0.3245044289	-0.225379
C	 2.1160481049	 0.7986976206	 1.0371252742	-0.12651
C	 2.4742637556	-0.3891991043	 0.1951119935	 0.008693
O	 3.2283716014	-1.4046488743	 0.8485354275	-0.221725
C	 2.4077874917	-1.9025278324	 1.8134820598	 0.080693
N	 1.2324659355	-1.4290398384	 1.9269431167	-0.333129
C	 1.1445591546	-0.3788063646	 0.9486250262	 0.36614
C	-0.1505057826	 0.0807601434	 0.326861117	-0.305981
H	-0.5650793481	 2.0455902005	-0.5954817901	 0.103919
H	 0.5928099982	 1.0550547907	-1.4677247351	 0.106439
H	 2.1220981117	 2.525478677	-0.3282990588	 0.101229
H	 1.0723028669	 2.6652963507	 1.0810575438	 0.109298
H	 2.688065118	 0.975531551	 1.9425738756	 0.093646
H	 2.6540001053	-0.3556312403	-0.8738629758	 0.107951
H	 2.8448744603	-2.6869727536	 2.418526281	 0.1425
H	-0.8586665839	 0.3240184777	 1.1275091543	 0.114202
H	-0.6202684422	-0.6774948737	-0.3074229046	 0.104278
