19
gdb 74997	3.43053	1.33522	1.05455	2.2065	78.17	-0.2445	0.0086	0.2531	1166.7342	0.159951	-423.011529	-423.003514	-423.00257	-423.044201	30.571	
C	 0.059550247	 1.5300476752	-0.0292056763	-0.478427
C	-0.0315524325	 0.0315896521	-0.0477221651	 0.292445
C	-1.1617299915	-0.6434924231	-0.2642033608	-0.189011
C	-1.2013999048	-2.1283371609	-0.1480491606	 0.087683
O	-1.485627084	-2.8574087872	-1.3767268532	-0.299363
C	-0.3124200142	-3.6791187288	-1.1940289862	-0.090973
C	 0.1711668207	-2.8211136177	-0.0159525275	 0.050368
O	 1.2629151962	-2.014710031	-0.3938004511	-0.257276
C	 1.2570336697	-0.7259140119	 0.1914731637	-0.164757
H	 0.7378467742	 1.8939800252	-0.8113757176	 0.130975
H	-0.9193249298	 1.9923796492	-0.1787947175	 0.12811
H	 0.4624828625	 1.8915050887	 0.9259746138	 0.127776
H	-2.0934092129	-0.1263424821	-0.4806055012	 0.091821
H	-1.9119590615	-2.4353726092	 0.6338956597	 0.075249
H	-0.572093261	-4.7137027149	-0.9353039859	 0.095835
H	 0.3512212616	-3.6653320009	-2.0643493261	 0.115595
H	 0.3695484028	-3.3312081811	 0.9361793095	 0.069798
H	 2.0950632708	-0.190706709	-0.2688079462	 0.116007
H	 1.4727964468	-0.7807324826	 1.2743805386	 0.098144
