22
gdb 113675	3.5845	0.83949	0.77295	1.5466	85.58	-0.2257	-0.0216	0.2041	1613.8483	0.191854	-404.345457	-404.335018	-404.334074	-404.381681	37.407	
C	-0.4648263549	 1.6526891909	 0.5909649279	-0.373943
C	-0.1878483211	 0.1522060473	 0.6462716371	-0.129253
N	-1.2935743675	-0.5673546839	 0.0042662505	-0.081426
C	-1.2175227802	-0.8284765965	-1.4118996516	-0.239989
C	-1.1290564228	-1.9669897846	-0.4361037794	-0.108454
C	 0.1739907898	-2.7038726565	-0.3141341381	 0.382661
O	 1.2441207897	-2.196995794	-0.585592443	-0.327352
C	 0.0649597538	-4.138281149	 0.1824761309	-0.28803
C	 1.4035134274	-4.8667734701	 0.2503288013	-0.37962
H	 0.3236581696	 2.2042559126	 1.1119421307	 0.113673
H	-0.4948591907	 2.0076956907	-0.4444898881	 0.117768
H	-1.4250456798	 1.8900376499	 1.0577851742	 0.123064
H	 0.783528575	-0.0775969981	 0.1927251379	 0.128443
H	-0.1491777687	-0.1815410306	 1.6900035363	 0.098255
H	-2.1328597619	-0.6922068953	-1.9824416737	 0.117265
H	-0.2907776916	-0.587573582	-1.9304513209	 0.132092
H	-2.0135940263	-2.5738401878	-0.2555056784	 0.089674
H	-0.427239642	-4.1110081653	 1.1654110907	 0.127504
H	-0.6459779972	-4.6648407577	-0.470401346	 0.123959
H	 1.8752071375	-4.908043533	-0.7348817994	 0.131153
H	 2.095509798	-4.3474188232	 0.917947207	 0.132483
H	 1.270234704	-5.8892585639	 0.6142592441	 0.110069
