25
gdb 120140	2.77538	0.92481	0.8273	0.2284	93.25	-0.2452	0.0866	0.3318	1581.1518	0.229184	-352.334427	-352.324532	-352.323588	-352.36942	37.775	
C	 0.1841788795	 1.6677622499	 0.4906503545	-0.382507
C	 0.0359028579	 0.1448928773	 0.5336115116	-0.158797
C	-1.3673213639	-0.3363412277	 0.1364672757	-0.209575
C	-1.4809524248	-1.8495235391	 0.1658636073	 0.020303
C	-1.8503904581	-2.6879999262	 1.3588852374	-0.069394
C	-3.0112849344	-2.070290611	 2.1538814574	-0.265189
C	-3.9276013285	-2.1970592829	 0.8875863062	 0.050535
C	-4.7587527822	-1.0196161804	 0.3877896528	-0.413878
C	-2.7179717411	-2.7100470259	 0.0874909567	-0.120809
H	 1.1941940726	 1.9802277677	 0.7742740851	 0.109655
H	-0.0146446459	 2.0568655815	-0.5143315793	 0.112436
H	-0.5188872548	 2.1541892835	 1.1762214998	 0.11226
H	 0.7771693487	-0.3145865472	-0.133961303	 0.091709
H	 0.2688881993	-0.2223451368	 1.5412803442	 0.099144
H	-2.1001151935	 0.1268907442	 0.8043234453	 0.09881
H	-1.6028725586	 0.0286324568	-0.8730058691	 0.090884
H	-0.6739434847	-2.3192772459	-0.3985534523	 0.077978
H	-1.1946619744	-3.4624246398	 1.7395900258	 0.077953
H	-3.351681198	-2.6946571134	 2.9827076008	 0.09822
H	-2.8448192898	-1.0587701838	 2.5399338742	 0.092998
H	-4.6017817391	-3.0451574863	 1.0509727531	 0.073807
H	-4.1558254483	-0.1256223497	 0.2122952946	 0.118802
H	-5.2563596903	-1.2718466616	-0.5556664789	 0.111632
H	-5.5393555349	-0.7594550603	 1.1121141936	 0.109275
H	-2.7867595828	-3.490211393	-0.6636851134	 0.07375
