18
gdb 90216	3.06743	1.75825	1.57735	3.2637	76.62	-0.2014	0.0397	0.2411	915.6773	0.147481	-401.762457	-401.755304	-401.754359	-401.793454	29.585	
O	 0.1097212137	 1.3027468365	-0.3309092149	-0.414439
C	 0.0460339269	-0.0666931497	-0.0161814198	 0.001876
C	 0.1890081437	-0.416809882	 1.5399782899	-0.37139
C	-1.369373392	-0.4444363253	 1.6118092633	 0.17401
C	-2.296958244	 0.7653331028	 1.5201542421	-0.21081
N	-2.8905323247	-0.1038002169	 0.4070124067	-0.208321
C	-2.590462581	-1.3845426715	 1.2695325996	-0.045325
C	-1.858825501	-2.0677259942	 0.1152704242	-0.298928
C	-1.4167911555	-0.6027634963	 0.0990359837	 0.285839
H	 1.0206214411	 1.5937937876	-0.2160032036	 0.289936
H	 0.6840203782	-0.6630340015	-0.6851662085	 0.078823
H	 0.6663469484	-1.3873816857	 1.6995869896	 0.113732
H	 0.6949036679	 0.3357393735	 2.1525649816	 0.105687
H	-2.995797493	 0.9413176251	 2.3457320464	 0.089823
H	-1.8832126441	 1.7055433611	 1.1499990125	 0.122518
H	-3.3801271573	-1.7651256805	 1.925641516	 0.079173
H	-1.1050338039	-2.8117178306	 0.3864960706	 0.09896
H	-2.4748498035	-2.4054143925	-0.7224344094	 0.108836
