21
gdb 124530	3.76813	0.95202	0.91569	2.0222	86.78	-0.2291	0.0284	0.2575	1425.135	0.182624	-383.306622	-383.296756	-383.295812	-383.343742	35.218	
C	 0.0236946959	 1.542387974	 0.1931177748	-0.384644
C	-0.0804053681	 0.0183223708	 0.0069174194	-0.064462
C	 0.8161964919	-0.7238182169	 1.0136881756	-0.384654
C	-1.5080641742	-0.450721468	 0.090347378	 0.358814
N	-2.089202494	-1.0331327552	-0.9597805749	-0.347452
N	-3.3435435936	-1.3261724847	-0.557762854	 0.061525
C	-4.255123979	-1.9764090881	-1.4718376558	-0.315461
C	-3.5716422466	-0.9437728693	 0.7219250977	-0.020904
C	-2.4061751359	-0.3701994912	 1.1822694955	-0.317774
H	 1.0611831462	 1.876315342	 0.0848137275	 0.107484
H	-0.5853185992	 2.0726653476	-0.5448370705	 0.118433
H	-0.3206554616	 1.8424019035	 1.1891887401	 0.11105
H	 0.2615639723	-0.2283233928	-1.0045889851	 0.088267
H	 0.5052262585	-0.519150032	 2.0442963512	 0.111052
H	 0.7710259075	-1.8058904783	 0.8595805305	 0.118421
H	 1.8594471435	-0.4063778571	 0.9113370695	 0.107489
H	-3.8569631478	-2.9466659513	-1.7819052461	 0.146913
H	-5.2131816083	-2.1248421263	-0.970654285	 0.135217
H	-4.4063014832	-1.3595346593	-2.3620858907	 0.147095
H	-4.527769678	-1.1071612704	 1.194672173	 0.124956
H	-2.2318470163	 0.044767713	 2.1618725494	 0.098636
