18
gdb 97395	3.36237	0.91961	0.86668	2.085	72.48	-0.2425	0.0226	0.2651	1413.6805	0.145119	-476.178864	-476.169319	-476.168375	-476.213778	34.415	
C	 0.1930458372	 0.7913971198	 0.4532419708	-0.314551
N	-0.321396917	-0.2859878544	-0.3677332844	-0.211947
C	 0.5101797324	-0.9718281112	-1.0072363711	 0.143844
O	 0.0697905193	-1.9886841416	-1.8050536395	-0.232095
C	 1.0491511603	-2.7383802672	-2.4675429243	-0.01517
C	 2.0253792004	-3.5713463157	-1.6403017959	 0.057849
O	 1.9798993043	-3.4800157059	-0.2584384588	-0.420769
C	 0.8446437395	-4.2299887767	-2.3197349356	 0.02512
O	-0.1614296888	-4.638972546	-1.4398512994	-0.430221
H	 1.2891232354	 0.8959438201	 0.4204706284	 0.101658
H	-0.2545668279	 1.7394242033	 0.1345080255	 0.128973
H	-0.1065597338	 0.6321441653	 1.4950594475	 0.130509
H	 1.5988972117	-0.8435610293	-1.0118726488	 0.099913
H	 1.3613416463	-2.332775779	-3.4266140754	 0.10952
H	 3.025875151	-3.7145109705	-2.0385657203	 0.109329
H	 1.215346841	-4.0122514196	 0.0140110249	 0.296805
H	 0.9799024857	-4.8848354045	-3.1752080188	 0.109134
H	-0.7917754072	-3.9078348767	-1.3679189449	 0.312099
