21
gdb 96458	2.46178	1.65581	1.15334	1.9421	78.56	-0.2542	0.0798	0.334	1124.9472	0.184317	-424.218329	-424.210182	-424.209237	-424.250743	32.355	
C	 0.428275876	 1.6010221833	-0.0879229972	-0.393011
C	-0.0229552284	 0.1434329021	-0.0477272373	 0.089147
O	 0.4500943424	-0.4529054604	-1.2532538403	-0.241109
C	-0.1215006058	-1.6795005079	-1.607819651	 0.018094
O	 0.4477474999	-2.7898155241	-0.9712957162	-0.226112
C	-0.0102316336	-3.0361414977	 0.3469927825	-0.116022
C	 0.4815070198	-2.0554138595	 1.3947887583	-0.046421
C	 1.7836603458	-1.3089394246	 1.2366911781	-0.297711
C	 0.4726223068	-0.5572934024	 1.2103960293	-0.005468
H	 1.5206996944	 1.6574580752	-0.0803325064	 0.129582
H	 0.0619237898	 2.0848713323	-0.99697889	 0.119345
H	 0.0463333102	 2.1487312105	 0.7785266522	 0.111695
H	-1.1270067998	 0.1117801552	-0.0563130195	 0.065047
H	-1.212161595	-1.6572734415	-1.4271695714	 0.073387
H	 0.0837936229	-1.8100452968	-2.6731845964	 0.112164
H	-1.1132886088	-3.0723101844	 0.3569341327	 0.088045
H	 0.3506214461	-4.0403135768	 0.595521178	 0.111881
H	 0.239389711	-2.394134959	 2.4001898698	 0.08297
H	 2.4345666893	-1.1997682939	 2.0968076254	 0.10561
H	 2.2887915722	-1.4245130919	 0.2850535503	 0.137935
H	 0.2286374547	 0.0087626622	 2.1066148289	 0.080951
