15
gdb 27358	2.01299	1.83547	0.96585	6.614	71.08	-0.2289	-0.0181	0.2109	1149.1924	0.113958	-454.029463	-454.021544	-454.0206	-454.061973	29.73	
C	-0.0177685149	 1.5057022921	 0.0900365891	-0.496436
C	-0.0006571384	 0.0130699567	-0.0320451381	 0.380304
C	-0.0209957078	-0.6895902386	-1.1809750484	-0.301245
C	-0.0013260943	-2.1618577602	-1.1878857941	 0.379749
O	-0.018041402	-2.8139913771	-2.2124868841	-0.368175
N	 0.0407966604	-2.7881554339	 0.077772398	-0.423181
C	 0.0582532628	-2.056445242	 1.1305107942	 0.503487
O	 0.0979554708	-2.5935363455	 2.3616122753	-0.410436
N	 0.0401875096	-0.694300376	 1.1611385281	-0.408405
H	 0.8758874203	 1.868827452	 0.611539255	 0.143602
H	-0.0504372567	 1.9668954621	-0.897474081	 0.155072
H	-0.8918596582	 1.8447343329	 0.6587770338	 0.143573
H	-0.0527207035	-0.1848580712	-2.1375931973	 0.112464
H	 0.1076352187	-3.5520049316	 2.2240758216	 0.317405
H	 0.0570005433	-0.2236164497	 2.052141628	 0.272223
