15
gdb 34440	3.06417	1.74901	1.27863	4.7001	69.06	-0.2446	0.0128	0.2575	942.9609	0.114583	-416.742267	-416.735604	-416.73466	-416.77329	26.436	
N	 0.0137013442	-1.1335221935	 0.0468130808	-0.328424
C	 0.0043143834	 0.0224802054	 0.0391173576	 0.186409
C	-0.0329804001	 1.4632996962	 0.0532717012	 0.185952
C	-0.9327891436	 2.1803099898	 1.0642359893	-0.244681
N	-0.5807383765	 3.5978063883	 0.7823067284	-0.324159
C	 0.3140802132	 3.4774863271	-0.344326918	-0.029712
C	 1.294143148	 2.3032441548	-0.0913659949	 0.028878
O	 1.378911972	 2.006673172	-1.5168306545	-0.302706
C	-0.0388423771	 2.274500836	-1.2936295716	 0.003198
H	-1.9921846889	 1.9607154273	 0.8939726485	 0.123921
H	-0.689392879	 1.9038251298	 2.0951442229	 0.13365
H	-1.401056779	 4.1479910786	 0.5549814165	 0.232376
H	 0.6921788683	 4.4018737426	-0.7748789239	 0.107726
H	 2.1970661507	 2.2452838973	 0.5142380883	 0.117195
H	-0.7248590454	 2.1805888883	-2.1349253706	 0.110377
