16
gdb 14848	2.35596	2.28981	1.28199	4.7594	65.71	-0.2483	0.0128	0.261	945.8261	0.130501	-379.890597	-379.882455	-379.881511	-379.923586	28.61	
C	-0.4603992552	 1.1774706203	-0.1527248408	-0.253288
O	 0.4234801495	 0.1070411881	 0.1413472371	-0.228136
C	 0.9484306224	-0.5241031318	-0.9789270236	 0.133875
C	 2.0128913874	-1.5746442184	-0.5965340867	-0.194409
N	 1.0507293857	-2.6635830706	-0.8833475668	-0.297306
C	 0.1240104607	-1.7412366933	-1.5690282443	-0.184174
C	-1.2784128548	-1.8725914077	-1.1760199476	 0.328445
N	-2.3941836718	-1.9595209692	-0.8867167228	-0.336194
H	 0.0393478474	 1.9436742593	-0.7643366302	 0.107857
H	-1.3618556883	 0.8339251786	-0.6739692162	 0.13527
H	-0.751524977	 1.616223432	 0.8033521838	 0.139179
H	 1.2421577653	 0.2048319085	-1.7452836175	 0.079935
H	 2.8969501831	-1.5453792045	-1.2454963585	 0.10163
H	 2.3282306075	-1.5295972341	 0.4497093501	 0.129121
H	 1.3905747131	-3.4300816527	-1.4511979255	 0.230207
H	 0.176398855	-1.7577467045	-2.6664447006	 0.107989
