18
gdb 18807	3.02231	2.9262	2.34135	1.3903	69.84	-0.2362	0.0867	0.3229	707.0989	0.157659	-347.773342	-347.767753	-347.766809	-347.802545	24.329	
C	-0.053471645	 1.51082187	 0.147006855	-0.230595
C	 1.4913142569	 1.4383784668	-0.0327818074	-0.055438
C	 2.1059617154	 1.140744318	 1.3331375033	-0.084116
O	 1.345248801	 0.1149136628	 1.9764336022	-0.268298
C	 0.7929940554	-0.7786593989	 1.0217856463	 0.111448
C	 1.827695508	-1.1544403113	-0.0756296559	-0.259067
C	 1.3147275517	 0.0827094946	-0.8353752838	-0.03003
C	-0.0472249051	-0.0068342966	-0.0781281777	-0.035388
H	-0.429752421	 1.8984046909	 1.0984133542	 0.100848
H	-0.544419521	 2.0300166749	-0.680827045	 0.095257
H	 2.0030154249	 2.2626875586	-0.5342609079	 0.065808
H	 3.1590338946	 0.8370437863	 1.2356985584	 0.091922
H	 2.0689763339	 2.0177876315	 1.9887385534	 0.104145
H	 0.3006594633	-1.5720597733	 1.5860889643	 0.0765
H	 2.8776385916	-1.2326007952	 0.2222253771	 0.097876
H	 1.5362278462	-2.0716875104	-0.5964458549	 0.098938
H	 1.4031371029	 0.1615920071	-1.9199386661	 0.06079
H	-0.9196306436	-0.539977626	-0.4603199055	 0.0594
