23
gdb 99876	1.93706	1.45174	1.05601	0.8751	87.84	-0.2571	0.0411	0.2982	1296.6404	0.20095	-388.253759	-388.242286	-388.241342	-388.289638	42.356	
C	-0.0664369617	 1.3577381557	 0.1191202161	-0.248431
O	-0.0211792358	-0.0412458962	-0.0761352573	-0.269198
C	 0.6621615112	-0.5196320429	-1.2421631587	 0.165645
C	-0.0036587682	-0.0014231632	-2.5321265606	-0.436958
C	 2.071092521	-0.0824499125	-1.207674065	 0.346992
C	 3.2144637434	 0.2893462644	-1.1730929569	-0.485422
C	 0.5943727537	-2.0740749545	-1.1010208887	 0.031389
C	-0.8518137149	-2.5834861002	-1.0282215774	-0.412982
C	 1.3871501345	-2.8168105426	-2.1833065598	-0.411388
H	 0.9348224006	 1.8067679009	 0.0906395274	 0.118662
H	-0.7029181732	 1.8649783837	-0.6188774325	 0.105852
H	-0.4967411061	 1.5139044227	 1.1114187973	 0.126244
H	 0.1236906706	 1.0785809831	-2.6314787499	 0.125027
H	 0.4479124081	-0.465752247	-3.4117090435	 0.129228
H	-1.0726048573	-0.2275894548	-2.5195534936	 0.125899
H	 4.226088766	 0.6119538409	-1.1413379046	 0.195665
H	 1.0684973033	-2.2745092581	-0.1329294954	 0.090119
H	-1.3619723149	-2.4943050304	-1.9936147992	 0.109528
H	-0.8571578194	-3.6439363812	-0.7563593468	 0.108061
H	-1.4257896268	-2.0327761672	-0.2813463822	 0.13288
H	 2.4151957494	-2.4531148348	-2.2550603541	 0.127251
H	 1.4219124351	-3.8854125173	-1.9491124743	 0.11309
H	 0.9188236714	-2.7174329587	-3.1686634603	 0.112846
