19
gdb 18647	2.71914	2.22316	1.74045	2.4588	70.7	-0.2156	0.0669	0.2824	855.916	0.166528	-365.035134	-365.027246	-365.026302	-365.067224	29.962	
C	 0.2074836699	 1.6359907312	-0.032280818	-0.311633
N	 0.1280042519	 0.1848516169	 0.0237399632	-0.082893
C	 1.1865324567	-0.7155419468	-0.3927385722	-0.032775
C	 2.6252127408	-0.2147137603	-0.491141361	-0.234453
C	 2.9693589962	 0.3824216768	 0.8950751303	-0.274715
C	 1.8953406611	-0.1412357452	 1.8877218873	 0.125801
O	 1.4223177273	 0.8428707429	 2.8018465847	-0.43801
C	 0.7432842657	-0.6503999031	 1.038727594	-0.039003
H	 1.2192188868	 2.0610822354	-0.0381359408	 0.10089
H	-0.2988874356	 1.9705467754	-0.9443777616	 0.114908
H	-0.3229476122	 2.0504569069	 0.8282539625	 0.137171
H	 0.8816921492	-1.5159965548	-1.0639129469	 0.083296
H	 3.2728611526	-1.0669459309	-0.7237145501	 0.103996
H	 2.7620251513	 0.5106971801	-1.3013132369	 0.105084
H	 3.979331092	 0.1072481137	 1.2136385375	 0.095438
H	 2.925891786	 1.4747663896	 0.8873708153	 0.113758
H	 2.2937033083	-1.0032208048	 2.4472842184	 0.065402
H	 2.1590432998	 1.1084929348	 3.3611859015	 0.282088
H	 0.0827835023	-1.3856387978	 1.4929574226	 0.085652
