17
gdb 31082	2.2704	1.48493	0.90883	1.6525	73.12	-0.1684	0.0544	0.2227	1250.3756	0.137071	-451.347726	-451.338188	-451.337244	-451.382219	34.157	
C	-0.0642610421	 1.4044754407	 0.0752341384	-0.230766
O	-0.0127261235	-0.0149800036	 0.0409114996	-0.283438
C	-1.2079231332	-0.6473199862	 0.0067152715	 0.337726
C	-1.3694170071	-2.0079747875	-0.0108825444	 0.106343
N	-0.5146052263	-3.125269109	 0.0108953501	-0.620817
N	-2.7660154371	-2.1712828278	-0.0363816873	-0.302994
C	-3.3224359216	-0.9395313229	-0.0316685545	 0.378758
N	-4.698698888	-0.7319624512	-0.1369553192	-0.596605
N	-2.4101036738	 0.0144060036	 0.003797486	-0.406077
H	 0.9741019406	 1.7410291896	 0.0992190535	 0.117885
H	-0.5668527941	 1.8082374206	-0.8102595451	 0.126208
H	-0.5939465675	 1.7644159711	 0.9639818078	 0.12415
H	 0.0699928091	-3.1746521443	-0.8176090929	 0.243155
H	 0.1066265683	-3.1112197781	 0.8133003885	 0.243441
H	-3.2324848066	-3.0568991169	-0.135580427	 0.260195
H	-5.2353065646	-1.2320638178	 0.5628986172	 0.245704
H	-4.8918955325	 0.2594599897	-0.0641611822	 0.257132
