15
gdb 2390	6.22101	2.03752	2.02885	2.4446	56.47	-0.2489	0.0618	0.3107	692.6136	0.125312	-345.60923	-345.602813	-345.601868	-345.64007	23.02	
C	-0.0445918818	 1.3497636998	-0.3021729235	-0.072322
C	 1.4276566888	 1.5585631674	 0.1002547396	-0.348882
C	 1.3000501494	 0.1657735075	 0.7447612885	 0.380149
C	 2.257415525	-1.0020180287	 0.4422932398	-0.126638
O	 2.6481964921	-1.0893989884	 1.8280804624	-0.274307
C	 1.6480962508	-0.1251937196	 2.2164862174	-0.126638
O	-0.0674091479	 0.0507022396	 0.3319981858	-0.303474
H	-0.768386453	 2.0362812538	 0.1514202969	 0.108135
H	-0.2432490162	 1.2805944669	-1.3776647454	 0.108135
H	 2.1392885507	 1.6215770472	-0.7251457766	 0.116617
H	 1.6155616736	 2.3752382724	 0.7998332514	 0.116617
H	 1.7336399634	-1.9023195692	 0.0951944864	 0.11053
H	 3.1081674196	-0.7913080394	-0.2174315945	 0.100774
H	 2.0713710303	 0.7006651489	 2.8014733822	 0.100774
H	 0.8156487052	-0.5813095682	 2.7681661395	 0.11053
