27
gdb 118574	2.66137	0.71282	0.59005	0.9951	93.91	-0.242	0.0859	0.3279	2043.2607	0.249403	-390.697541	-390.685268	-390.684324	-390.735966	43.152	
C	-0.0299136925	 1.0103762291	-1.2714777324	-0.381717
C	 0.1516163667	-0.4488837867	-0.8448375967	-0.172989
C	 0.891559817	-0.5937970156	 0.4884235498	-0.163353
C	 1.0655117346	-2.0438090592	 0.9541247704	 0.100014
C	 1.8564687224	-2.1329527784	 2.2641388789	-0.163337
C	 2.1042536307	-3.5642601909	 2.7499997396	-0.173011
C	 2.8736399392	-3.62105965	 4.0725889822	-0.38172
O	-0.2266149821	-2.6307772805	 1.1471534795	-0.252219
C	-0.5103850147	-3.7469642287	 0.3354642259	-0.234386
H	 0.9362860022	 1.5139152128	-1.3898731488	 0.110761
H	-0.5624089315	 1.0847918619	-2.2249439481	 0.109332
H	-0.6037996039	 1.5714538175	-0.5254866703	 0.114651
H	-0.8279065351	-0.9317535655	-0.7574694451	 0.109545
H	 0.6991036851	-0.9923042558	-1.6271635851	 0.086544
H	 1.8833360581	-0.1279784975	 0.4141867523	 0.086833
H	 0.3468961969	-0.0467233165	 1.2695347151	 0.098713
H	 1.6031053863	-2.6066411106	 0.1740923165	 0.060993
H	 2.8160939272	-1.6159518149	 2.1301355021	 0.08684
H	 1.3062885244	-1.5761307845	 3.0344232094	 0.098704
H	 1.1385603873	-4.069026257	 2.8636314554	 0.109545
H	 2.6586507124	-4.1199484461	 1.9812760334	 0.086556
H	 3.0349117684	-4.6539284564	 4.3971799771	 0.109336
H	 3.8559013676	-3.1433365717	 3.9828512854	 0.110768
H	 2.3279304417	-3.1034940637	 4.8694478292	 0.114653
H	-0.4875962851	-3.4990043607	-0.7363030626	 0.103393
H	 0.1887056266	-4.5782550441	 0.5112342881	 0.103395
H	-1.5193911201	-4.0826017564	 0.5920970389	 0.122157
