25
gdb 78052	2.70197	1.1465	1.05595	0.0661	93.58	-0.2423	0.0899	0.3322	1357.2216	0.227526	-352.341296	-352.331137	-352.330193	-352.375293	39.694	
C	-0.4332001189	 1.4690725084	 0.3928665089	-0.41005
C	-0.1456535448	-0.0160352827	 0.1949616273	-0.009855
C	 0.3288715561	-0.3778370676	-1.2231885265	-0.087613
C	 1.6515238597	-0.9218764607	-0.665011805	-0.087532
C	 1.2138868502	-0.5756679808	 0.7687775174	-0.009892
C	 2.1363139347	 0.4113377759	 1.4775261337	-0.410075
C	 0.688399848	-1.8357498212	-1.3847252852	 0.317571
C	-0.0641003386	-2.9617184879	-0.6988633923	-0.462167
C	 1.1339378722	-2.1987056901	-2.7940962421	-0.45183
H	 0.3793525778	 2.0994903845	 0.0187019371	 0.115047
H	-1.3410125211	 1.7501170538	-0.1527095498	 0.110909
H	-0.5924332068	 1.7129132522	 1.4483887475	 0.111239
H	-1.0228778105	-0.5833051794	 0.5295263807	 0.061894
H	 0.1677395547	 0.2534762444	-2.092032181	 0.069398
H	 2.6593766248	-0.7713716934	-1.0405000753	 0.069392
H	 1.0825395006	-1.4500426314	 1.4180010151	 0.061912
H	 2.3623849278	 1.2832306162	 0.8559422581	 0.115046
H	 1.7011234659	 0.7686087908	 2.4166229077	 0.111227
H	 3.089301927	-0.0735208579	 1.7172917997	 0.110903
H	-0.386561311	-2.7084694549	 0.3130151201	 0.117994
H	-0.9589468294	-3.2317349756	-1.2721906549	 0.110415
H	 0.5635955792	-3.8581776293	-0.6301756863	 0.110412
H	 1.7974976962	-3.0712536679	-2.7836074783	 0.112094
H	 0.2731482708	-2.4443553372	-3.4269125706	 0.11209
H	 1.6737893052	-1.3733124279	-3.2689648159	 0.111471
