14
gdb 75855	3.25313	1.38547	0.98361	1.5348	70.22	-0.2694	-0.0761	0.1933	1107.7759	0.101297	-432.923352	-432.915155	-432.914211	-432.956569	28.664	
C	-0.0075352121	 1.4722468871	-0.0154010376	-0.360603
N	 0.0197874734	 0.0215434625	-0.0149037406	-0.158297
C	-1.1162322446	-0.7887154463	-0.1250088137	 0.393809
O	-2.2502494144	-0.397573402	-0.233135071	-0.357455
C	-0.5482696703	-2.2087938778	-0.0726776751	-0.306997
N	 0.9019822027	-2.0803309619	 0.0665228359	-0.290579
C	 1.1254216529	-0.8177776994	 0.0898179047	 0.294486
C	 2.437136031	-0.2464139774	 0.2163979852	 0.275852
N	 3.4731122351	 0.2554238568	 0.3164416328	-0.31578
H	 0.5647268192	 1.8772982747	-0.8546419038	 0.155585
H	-1.0547817444	 1.7627566211	-0.1154996694	 0.177257
H	 0.3945171977	 1.8746883458	 0.918552161	 0.155583
H	-0.9685141078	-2.7676528167	 0.7705531428	 0.16857
H	-0.8005273984	-2.7650528266	-0.982022771	 0.16857
