15
gdb 67921	2.02923	1.83064	1.18215	5.6165	70.85	-0.2653	-0.0205	0.2447	1049.2289	0.112312	-416.818011	-416.809976	-416.809032	-416.850628	29.909	
C	-0.0170820606	 1.5553660525	 0.0548915734	-0.485146
C	 0.0092640388	 0.058952636	 0.0805011696	 0.350423
N	-1.2325885234	-0.7225750447	 0.075810805	-0.386622
C	-0.7055796466	-1.6860401835	 0.9645239697	 0.440863
O	-1.1652786258	-2.6840373466	 1.4291077853	-0.321087
C	 0.6130805945	-0.9225298224	 1.067571083	-0.289567
C	 1.1879678032	-0.7913354399	-0.3573081836	-0.239738
C	 1.0614043696	-1.8242576849	-1.35118914	 0.303623
N	 0.938126593	-2.6313154579	-2.1703907652	-0.332192
H	 0.976471181	 1.9654197151	 0.2555929613	 0.134494
H	-0.3395357023	 1.9230754637	-0.9251139761	 0.141966
H	-0.7141290546	 1.9342804481	 0.8075222759	 0.147739
H	-1.7356847856	-0.9741271529	-0.7689349693	 0.257997
H	 1.2333072528	-0.758899586	 1.9376134406	 0.131718
H	 2.141594846	-0.2697384966	-0.3836622296	 0.145529
