17
gdb 88727	3.34564	1.09987	0.90584	2.3217	74.42	-0.2432	0.0034	0.2465	1257.1985	0.135221	-417.960099	-417.951533	-417.950588	-417.993937	31.816	
O	-0.0317471387	 1.4718952248	 0.160741894	-0.428346
C	 0.0906026124	 0.0906881284	 0.056309704	 0.128483
C	-0.3818128428	-0.8129416208	 1.1667963876	-0.33923
C	-1.1503964139	-0.749301993	-0.138654078	-0.014073
N	-2.3730962605	 0.0136303929	-0.1220873226	-0.100757
C	-3.2608740285	-0.081311195	-1.2644162377	-0.241352
C	-3.6563713753	-0.6843852701	 0.0534700415	-0.144892
C	-3.6912547655	-2.1207137126	 0.18038519	 0.29298
N	-3.7208686136	-3.2703259819	 0.3033816839	-0.331267
H	-0.9769277974	 1.6522558826	 0.2603916543	 0.287667
H	 0.9850605669	-0.1877850491	-0.4913171394	 0.110175
H	 0.1643755277	-1.7229981281	 1.3874604948	 0.125346
H	-0.8390601187	-0.3301164629	 2.0237832775	 0.124858
H	-1.1180870316	-1.6130313528	-0.8015852779	 0.103182
H	-3.7386492998	 0.8397499868	-1.584440186	 0.139204
H	-2.9968370372	-0.773369256	-2.060923178	 0.144076
H	-4.3751456734	-0.1667765433	 0.6821025419	 0.143946
