17
gdb 76419	2.9231	1.18692	1.15835	1.2214	63.85	-0.2501	0.044	0.2941	1131.7098	0.134136	-496.040105	-496.031447	-496.030503	-496.073413	32.833	
O	-0.1390068492	 1.400878664	-0.0112818918	-0.444426
C	-0.1277725301	 0.0146804492	-0.1874699701	-0.003041
C	-0.3650343452	-0.7983283043	 1.0716952204	-0.010683
O	-0.6165117303	-0.0692171538	 2.2369474634	-0.441017
C	-1.4512718267	-0.6998323919	 0.0123439202	 0.306318
O	-2.5240787733	 0.1357046234	 0.3455614945	-0.480396
C	-1.8347494315	-1.8790034861	-0.8200283673	 0.010059
C	-1.683431354	-1.8861693036	-2.2806160325	-0.176223
O	-0.7480266474	-2.5694863242	-1.4389140036	-0.234306
H	-1.0670161546	 1.670162601	-0.0936560618	 0.295339
H	 0.5774766132	-0.3472263233	-0.9278879101	 0.1222
H	 0.1597641152	-1.7363387727	 1.2228159603	 0.119031
H	-0.2453514685	 0.8129873169	 2.0767296325	 0.297781
H	-2.4809074811	 0.2376861331	 1.3109191378	 0.295794
H	-2.5939021917	-2.5238386382	-0.3751565972	 0.100437
H	-2.3196615613	-2.5308398469	-2.8838359522	 0.122423
H	-1.2973691234	-1.0000920524	-2.7809065724	 0.120709
