11
gdb 21093	7.31066	1.39168	1.17787	5.7717	60.15	-0.3065	-0.0626	0.2439	929.218	0.073606	-389.755731	-389.749027	-389.748083	-389.787148	22.684	
C	 0.0194604979	 1.4463715073	 0.0137869874	-0.32257
N	-0.0259648855	-0.00548747	 0.0305665657	 0.141304
N	-0.2583983401	-0.7292445092	-1.0639128133	-0.10511
N	-0.22969652	-1.9788285139	-0.6931676828	-0.23947
C	 0.0248005653	-1.9611408752	 0.6412763972	 0.300461
N	 0.1575982663	-0.723888619	 1.1217111115	-0.27565
C	 0.1383593492	-3.1299404591	 1.4435831075	 0.284424
N	 0.2298131051	-4.0836087446	 2.0897134669	-0.316804
H	 1.0023126591	 1.7839475325	 0.3469801098	 0.175117
H	-0.1641803591	 1.7620340446	-1.0119443408	 0.183195
H	-0.7498164683	 1.8426628466	 0.6787300008	 0.175103
