14
gdb 131076	4.40248	0.92181	0.8245	4.8105	65.74	-0.2765	-0.0376	0.2389	1324.7464	0.100689	-473.829921	-473.822048	-473.821104	-473.864315	26.982	
O	 0.3638550089	 0.0857502448	 0.4994922425	-0.261347
C	 0.5062602464	 1.2645703668	 0.595483569	 0.181606
O	 0.6763698563	 2.061655951	-0.4857772074	-0.174205
C	 0.8796896156	 3.4616710758	-0.2494066504	-0.220899
C	 2.3276723716	 3.814102116	-0.2484587836	 0.443948
C	 3.1406328952	 4.4479999308	-1.1342580059	-0.334316
C	 4.4073001697	 4.4255082105	-0.490924081	 0.044236
N	 4.3598647236	 3.8310530525	 0.6753532195	-0.125763
O	 3.0345576273	 3.4431063218	 0.8356665144	-0.206539
H	 0.503792469	 1.8264619624	 1.548768219	 0.090635
H	 0.371290645	 3.9886406127	-1.0580622503	 0.147526
H	 0.4193183708	 3.7539477307	 0.7022885577	 0.139365
H	 2.881576705	 4.8603952867	-2.0948988528	 0.132985
H	 5.3508642457	 4.8215385374	-0.8385569306	 0.142767
