14
gdb 52516	2.42412	1.04897	0.78289	4.9612	73.57	-0.2977	-0.086	0.2117	1418.7067	0.097457	-436.679712	-436.669865	-436.66892	-436.716982	32.625	
C	 0.0472803951	 1.3846050839	-0.0836062352	-0.507475
C	-0.0133542919	-0.0639022413	-0.0623377459	 0.168942
C	-0.071699187	-1.2699289157	-0.0510373932	 0.014467
C	-0.0752297851	-2.6970257496	-0.0461572914	 0.197118
O	-1.0666198101	-3.3954210165	-0.0710089592	-0.305632
C	 1.3082694536	-3.4068695066	 0.0169555487	-0.08585
O	 1.1331439225	-4.7849927545	 0.0787349902	-0.405254
C	 2.1215225774	-2.9992687056	-1.1478244024	 0.261755
N	 2.7580727853	-2.6740767814	-2.0553073252	-0.315584
H	 0.7122656674	 1.7276944982	-0.883207409	 0.179344
H	-0.9431405713	 1.8213498151	-0.2440982282	 0.172183
H	 0.4414054048	 1.7657316255	 0.8646743831	 0.172736
H	 1.8213701303	-3.0397398598	 0.9193271888	 0.146789
H	 0.178538799	-4.9243455717	-0.0551835711	 0.306461
