18
gdb 83016	2.95299	1.25103	0.94258	1.0342	88.1	-0.2182	-0.0253	0.1929	1257.7262	0.147051	-364.769636	-364.761296	-364.760352	-364.802318	32.317	
C	-0.0448006469	 1.485192642	-0.0152255298	-0.416202
C	-0.0071959273	-0.0183727596	-0.1246199148	 0.030789
C	 0.7549390796	-0.7293288397	-1.1927222315	-0.183625
N	 1.2744722883	-0.6599058938	 0.193658422	-0.12119
C	 1.1671718156	-2.0253676677	 0.753344363	-0.201703
C	 0.5455201347	-2.8741846984	-0.3285808081	-0.213472
C	 0.3425228952	-2.1508692237	-1.442111419	 0.240764
C	-0.183031693	-2.5899091113	-2.6791674458	 0.20585
C	-0.6185170932	-2.9187306003	-3.7534852085	-0.428256
H	 0.8877072411	 1.922101812	-0.3819768276	 0.127596
H	-0.8763595482	 1.8971626378	-0.5968652856	 0.118243
H	-0.1732763127	 1.7946910942	 1.027850964	 0.121148
H	-0.9073885342	-0.5341598704	 0.2122637225	 0.085164
H	 1.2816617952	-0.1810081806	-1.9692692205	 0.09775
H	 2.1685324923	-2.3871909418	 1.0257262079	 0.118918
H	 0.5760396029	-2.0138353853	 1.6788462975	 0.116597
H	 0.2931658754	-3.9200976333	-0.2057396414	 0.107358
H	-1.0060022748	-3.2224642201	-4.6941571942	 0.19427
