19
gdb 92751	3.24761	1.05381	0.88195	3.4126	79.59	-0.2386	-0.0446	0.1939	1343.9523	0.157993	-423.061229	-423.052044	-423.051099	-423.095739	33.808	
C	-0.1412788174	 1.4858578228	-0.0517030709	-0.48957
C	-0.2652855442	-0.0273692757	-0.0572975786	 0.282951
O	-0.5974376494	-0.638951378	 0.9393525939	-0.309471
C	 0.0334572386	-0.7282662506	-1.335851893	 0.244596
C	-0.0419526324	-2.0586669926	-1.47447363	-0.123822
C	 0.3392526216	-2.5097352945	-2.8550682233	-0.288101
C	 0.356277971	-1.1928490555	-3.6786707247	 0.117798
O	-0.8797355896	-0.9756074921	-4.3485735313	-0.436468
C	 0.4841141972	-0.0695630408	-2.6254491689	-0.335854
H	 0.8641198473	 1.794560967	-0.3603145072	 0.134705
H	-0.841544742	 1.9289862624	-0.7692773444	 0.142189
H	-0.3534983542	 1.8655162344	 0.9480792214	 0.138654
H	-0.3258697234	-2.728546165	-0.6715864638	 0.123112
H	 1.3256583477	-2.9955741319	-2.8467298733	 0.11506
H	-0.3610181781	-3.2396611117	-3.2801197719	 0.105452
H	 1.1860083694	-1.1746287138	-4.3982236871	 0.065158
H	-1.0101228469	-1.6945926171	-4.9751697536	 0.28147
H	-0.1301119635	 0.7836465819	-2.9285352248	 0.124347
H	 1.5190674082	 0.2886698308	-2.5499156786	 0.107797
