18
gdb 87386	2.22775	1.64085	1.11593	2.5512	74.55	-0.214	-0.0223	0.1917	1115.6487	0.145196	-439.047097	-439.038056	-439.037112	-439.08075	33.579	
C	-0.2605838965	 1.5359752404	-0.0381638157	-0.318992
N	-0.0161006303	 0.1050805227	 0.0340926253	-0.149469
C	-1.1943227226	-0.7624474517	 0.3014755156	-0.291559
C	-0.3552909079	-1.4934891513	 1.3617543684	 0.335348
O	-0.4927287007	-2.4552615858	 2.0609086893	-0.311418
C	 0.7263267739	-0.4732806729	 1.1621834262	 0.230055
C	 2.2164432055	-0.6875664122	 1.288866028	-0.376384
C	 1.5009744475	 0.1778078788	 2.2908159503	 0.029051
O	 1.6598308241	 1.5625963344	 2.2417257405	-0.415099
H	 0.6855157975	 2.0715021276	-0.1317840833	 0.130354
H	-0.8652387655	 1.7409141681	-0.9275708162	 0.115976
H	-0.7885486772	 1.9375428603	 0.8433884197	 0.104237
H	-2.0514072442	-0.2376145047	 0.7510547605	 0.120711
H	-1.5398948426	-1.3495411932	-0.5553458376	 0.13122
H	 2.5625645498	-1.6736556873	 1.5818910486	 0.13272
H	 2.8232085818	-0.1673093624	 0.5541329093	 0.127892
H	 1.3206627006	-0.2349774084	 3.2843081967	 0.110371
H	 2.5566858967	 1.7680489877	 2.5273089346	 0.294985
