17
gdb 27316	3.21585	1.36717	0.97082	7.1059	79.07	-0.2254	-0.0138	0.2116	1198.0566	0.136487	-418.086031	-418.077322	-418.076378	-418.119687	31.778	
C	-0.026022286	 1.5124563021	 0.0358114506	-0.48852
C	-0.0009132129	 0.0095715692	-0.032804644	 0.390637
N	-0.093928753	-0.6011987692	-1.1657344715	-0.346028
C	-0.0691305233	-2.0099807017	-1.2159464673	 0.315083
O	-0.1559509868	-2.6003895798	-2.2776731438	-0.361135
C	 0.0657080745	-2.7375075942	 0.064319823	 0.147121
C	 0.0929788597	-4.2337238404	 0.0203190874	-0.474226
C	 0.1570922936	-2.0230813786	 1.2028713089	-0.082323
N	 0.1246295709	-0.6450591913	 1.1641961195	-0.337246
H	 0.8960651602	 1.9021113089	 0.4819474574	 0.138557
H	-0.1277886746	 1.9073097157	-0.9736620834	 0.169976
H	-0.8659887181	 1.8651510392	 0.6450592904	 0.138614
H	 0.9199985738	-4.5813881593	-0.6073319728	 0.146233
H	 0.1949777141	-4.6698045399	 1.0182920065	 0.105236
H	-0.8204280908	-4.6178332093	-0.4454186576	 0.14625
H	 0.2583505579	-2.4659615151	 2.1874388851	 0.127083
H	 0.1933828907	-0.1168554063	 2.0187247316	 0.264687
