13
gdb 131167	3.35627	1.28505	0.92926	5.4163	68.12	-0.2145	-0.0353	0.1792	1151.4708	0.088711	-486.028333	-486.020114	-486.01917	-486.062146	28.916	
O	 0.089380833	 1.3834216589	-0.1277677676	-0.446415
C	 0.0710097527	 0.0351868886	-0.0151269343	 0.22122
C	 0.0374197152	-0.8781985485	-1.0394925218	 0.460589
N	 0.0149881767	-0.6439521289	-2.3905325354	-0.401997
C	-0.0185402518	-1.5549398983	-3.4348820805	 0.078086
N	-0.0339501714	-2.8103354843	-3.2639857786	-0.420179
O	 0.0295871225	-2.0914425091	-0.5031406317	-0.185947
N	 0.0585312712	-1.9086791239	 0.9241827695	-0.041419
N	 0.0828899838	-0.6572012694	 1.1436593256	-0.196072
H	 0.1121402586	 1.7542090924	 0.7621077027	 0.316082
H	 0.0248619804	 0.3337148272	-2.6351242289	 0.27808
H	-0.0291356524	-1.0281819109	-4.3959991227	 0.103118
H	-0.0582699785	-3.2889327337	-4.1613886264	 0.234855
