19
gdb 52584	2.37028	0.99098	0.8114	3.5194	85.35	-0.2362	0.0113	0.2475	1512.6375	0.156336	-382.039237	-382.028283	-382.027339	-382.076655	37.274	
C	-0.0019725652	 1.5020357993	 0.0981984088	-0.503795
C	-0.0188308906	 0.0495165569	 0.0153161944	 0.185917
C	-0.0311349786	-1.1510243245	-0.0545119003	 0.026673
C	-0.0490891597	-2.6148022796	-0.1079044313	-0.323512
C	-1.4589085077	-3.1110572407	-0.0413708775	 0.286353
N	-2.5272038566	-3.5525918939	-0.040207541	-0.336844
N	 0.68345462	-3.1493591169	-1.2543420012	-0.040474
C	 0.8865378716	-4.5897580654	-1.1554373484	-0.33088
C	 0.1280345914	-2.7532085622	-2.544184792	-0.335732
H	 0.8623709459	 1.9160850601	-0.4317265169	 0.156589
H	-0.9059225062	 1.9339127	-0.343894753	 0.158155
H	 0.0539933244	 1.8356434469	 1.1397811611	 0.157037
H	 0.4496938283	-3.0013096789	 0.7915366579	 0.14913
H	-0.049502304	-5.1710168074	-1.219430496	 0.121949
H	 1.5433471975	-4.9109909438	-1.9684447248	 0.127579
H	 1.377974632	-4.8311083224	-0.207316341	 0.121972
H	 0.0329012335	-1.6657238248	-2.582216787	 0.136855
H	 0.8153866258	-3.0676668212	-3.3343962993	 0.124241
H	-0.8604344918	-3.2000090616	-2.7463442825	 0.118789
