20
gdb 18083	4.65033	1.1693	1.1303	0.866	75.62	-0.2481	0.0853	0.3334	1161.0297	0.177414	-348.958231	-348.950033	-348.949089	-348.991491	30.273	
C	 0.2223243676	 1.3203027367	-0.0758463367	-0.222544
O	 0.3715669034	-0.0767918913	-0.0358646282	-0.231248
C	 0.5137647529	-0.573744729	 1.2817343174	-0.084488
C	 0.6006421602	-2.0760261091	 1.2179694705	-0.014137
C	 1.8278935817	-2.8592535045	 0.8379551451	-0.046723
C	 3.1090474111	-2.2207849373	 1.3890248405	-0.231358
C	 2.5250141969	-2.332287287	 2.8351109474	-0.22822
C	 1.2458455664	-2.9551678113	 2.2565579348	-0.083294
H	 1.0950053171	 1.8403433536	 0.3523976943	 0.099382
H	 0.120553596	 1.6108458615	-1.1245938002	 0.124384
H	-0.6732977398	 1.6545045345	 0.4731734915	 0.099893
H	 1.4036129797	-0.13310781	 1.7574365515	 0.085575
H	-0.3540666754	-0.2739039312	 1.8952691087	 0.081307
H	-0.3044882709	-2.5205248139	 0.8090032242	 0.089905
H	 1.7936848184	-3.588716435	 0.0375995706	 0.081744
H	 3.9876549447	-2.8548718084	 1.2535005836	 0.10179
H	 3.3491016023	-1.2193106642	 1.0181944025	 0.100806
H	 3.0882670267	-3.0427151152	 3.4443085721	 0.102006
H	 2.4117930412	-1.4072033664	 3.4096102753	 0.094386
H	 0.6958358697	-3.7687822125	 2.7153360449	 0.080835
