16
gdb 66419	2.43599	1.34429	1.16153	3.1565	72.19	-0.2511	-0.035	0.2161	1119.4027	0.122348	-437.865424	-437.856936	-437.855992	-437.898842	30.844	
C	-0.0192480053	 1.60076286	 0.0107161845	-0.493373
C	 0.0540526947	 0.1041133571	 0.0087641143	 0.155496
C	 0.6160587966	-0.9287523284	-0.926961434	 0.029921
O	 1.1004848812	-1.7406190891	 0.1719538933	-0.2767
C	 0.6653864591	-0.7602331207	 1.0725729159	 0.396037
N	 0.8377282	-0.6512462097	 2.3060053521	-0.546417
C	-0.8770353785	-0.7964576154	-0.8568194561	-0.183001
C	-1.7784743209	-1.8421721295	-0.2979647941	 0.154689
O	-2.898201341	-2.0255273677	-0.7084915116	-0.261509
H	 0.9367391871	 2.0332748	 0.3205065936	 0.143235
H	-0.2671059365	 1.9833650147	-0.9832218991	 0.130163
H	-0.7870461259	 1.9482464614	 0.7085121838	 0.151057
H	 1.2300152237	-0.8682306515	-1.8153354859	 0.137803
H	 1.3686717493	-1.4366212588	 2.6857626155	 0.238567
H	-1.3196504692	-0.2443949201	-1.6819554289	 0.122604
H	-1.3571950344	-2.4481466125	 0.5279334267	 0.101427
