16
gdb 96921	2.77553	1.34336	1.08736	1.85	78.26	-0.246	0.0074	0.2534	1147.55	0.122209	-400.673439	-400.664896	-400.663952	-400.707023	31.351	
C	 0.058796129	 1.3832618188	-0.0487270573	-0.340358
N	-0.0372796592	-0.0686622503	-0.0930604488	-0.338366
C	 0.5735213855	-0.6960657526	-0.9792904529	 0.494575
O	 1.3718800797	-0.2320093483	-2.0466464181	-0.277455
C	 1.4672610185	-1.5763773205	-2.5511664755	 0.074855
C	 2.1932119054	-2.4601312609	-1.5768266422	-0.254006
C	 3.2314714635	-2.0000100609	-0.7018149396	 0.333813
C	 4.1081814682	-1.6300478737	 0.0321172803	-0.419326
C	 0.6931424645	-2.1292336195	-1.3830621547	-0.256634
H	 0.6533351839	 1.8176748719	-0.8601803304	 0.130906
H	-0.9505442057	 1.8071120867	-0.0801278943	 0.129043
H	 0.500426281	 1.6786189808	 0.9090483112	 0.133397
H	 1.3918031256	-1.7202270034	-3.6205180564	 0.129699
H	 2.318176393	-3.4762245329	-1.9471861938	 0.130694
H	 4.8791228545	-1.2951510027	 0.6809782606	 0.201111
H	-0.0609145376	-2.8976816025	-1.299887948	 0.128053
