18
gdb 54862	3.10346	1.31014	1.23284	3.2061	77.09	-0.2316	-0.0054	0.2262	1086.081	0.147958	-401.945345	-401.93726	-401.936316	-401.978361	30.845	
C	 0.581337937	 0.4870003399	-0.7776553666	-0.484923
C	-0.1649698521	 0.1562557818	 0.4950410717	 0.382456
O	 0.106791081	 0.6608457919	 1.5605456464	-0.313045
C	-1.2907093204	-0.8920717169	 0.4100117618	-0.117427
C	-2.1571121491	-0.8756283584	-0.8374013722	-0.11219
C	-2.2298829593	-2.0699234907	-1.4302801945	-0.05427
C	-1.377669073	-3.0657482628	-0.7175152172	-0.089229
N	 0.0681976037	-2.704087672	-0.7571806623	-0.32549
C	-0.7515250061	-2.3330342942	 0.4170083279	-0.069366
H	 1.4262606975	 1.1386281327	-0.5510770209	 0.129552
H	 0.9053028203	-0.4384018065	-1.2636984172	 0.172371
H	-0.0909488516	 0.9910879207	-1.481960186	 0.132902
H	-1.8935521875	-0.7332220938	 1.3119505973	 0.103484
H	-2.6475354651	 0.026933653	-1.1846877012	 0.106236
H	-2.8014349056	-2.3015376286	-2.3207380051	 0.105648
H	-1.6494735578	-4.1143006816	-0.6644176841	 0.096268
H	 0.621267974	-3.5223482366	-0.5074382206	 0.233431
H	-0.5347015958	-2.802774848	 1.3691829627	 0.10359
