19
gdb 72173	2.34177	2.19213	1.69287	2.6095	73.17	-0.2331	0.0717	0.3048	894.7387	0.162236	-423.017277	-423.010462	-423.009518	-423.047929	28.907	
O	-0.0623847205	 1.3939995379	 0.0288711143	-0.495159
C	-0.0029812634	 0.0041031202	-0.0375434602	 0.40328
C	 0.2152637371	-0.7989749434	-1.3429745671	-0.319037
C	-0.4382476696	-1.9418590924	-0.5197451327	-0.081125
C	 0.6449005653	-2.204734678	 0.548615127	-0.215112
C	 0.7406046426	-0.7556427698	 1.1133519368	-0.125518
C	-0.2924153094	-0.6378444457	 2.237990023	-0.078474
O	-1.5317375497	-0.9599148424	 1.5786755061	-0.285194
C	-1.2836520743	-0.8183029549	 0.1951726454	 0.110317
H	 0.8356788341	 1.7416490214	-0.0032799188	 0.278893
H	-0.4223547476	-0.4227542247	-2.1465222757	 0.105376
H	 1.2334107287	-0.9566595032	-1.7083849761	 0.089448
H	-0.9043018475	-2.7984189047	-1.0029170183	 0.067779
H	 0.3371066492	-2.9236439213	 1.312662459	 0.104335
H	 1.5785193003	-2.5557971299	 0.1000212703	 0.093925
H	 1.7406831041	-0.3976399581	 1.3657382948	 0.05911
H	-0.1290580451	-1.3501619881	 3.0533091347	 0.10039
H	-0.3401762043	 0.3789784629	 2.6517047789	 0.098861
H	-2.1847760802	-0.5020498358	-0.3297215313	 0.087903
