20
gdb 84889	2.20894	1.74522	1.24782	1.2757	80.	-0.2387	0.0094	0.248	1079.7717	0.172696	-403.134352	-403.126057	-403.125113	-403.166986	32.722	
O	 0.0040557829	 1.4974674874	-0.0480963505	-0.431973
C	-0.0352008755	 0.0659343687	 0.0082901785	 0.012529
C	 0.7443306611	-0.4428469307	 1.1941840316	-0.102845
C	 0.177988543	-1.0556367028	 2.2356924211	-0.050381
C	-1.2983520595	-1.3337037144	 2.342752832	-0.250065
C	-2.1121767846	-0.4628595046	 1.3745264437	-0.28136
C	-1.4611453388	-0.4749262139	 0.0071513923	 0.34421
C	-2.2483860405	-0.352348625	-1.2373908116	-0.299624
N	-1.7600897849	-1.676353993	-0.798544951	-0.362908
H	-0.1435142417	 1.8214734128	 0.8468880583	 0.277967
H	 0.4543753177	-0.2502274154	-0.9232625049	 0.074609
H	 1.8144210144	-0.2526102249	 1.1784914406	 0.093534
H	 0.8036761926	-1.3929211842	 3.05943922	 0.09237
H	-1.4820254786	-2.3938587208	 2.1192443457	 0.130658
H	-1.6327155909	-1.1813810903	 3.3757287611	 0.101785
H	-3.1423805148	-0.8214676608	 1.3034152048	 0.10514
H	-2.1497877424	 0.5699260336	 1.7465420403	 0.089911
H	-3.3267434085	-0.225283375	-1.1889533737	 0.113133
H	-1.7750387054	 0.125619111	-2.0913134024	 0.116403
H	-0.9469478655	-1.9421796777	-1.350318916	 0.226908
