17
gdb 47840	2.58097	1.59228	1.0954	4.2099	70.25	-0.2576	-0.0234	0.2342	1082.7661	0.13726	-458.982089	-458.974376	-458.973432	-459.01454	29.374	
O	 0.091277141	 0.0680230098	-0.4900833148	-0.30756
C	-0.0043355539	 1.1589307955	-0.0029052539	 0.41804
C	-1.3384869496	 1.9006971093	 0.1071660351	-0.390489
C	-1.4566612777	 2.9116211408	-1.0090628226	-0.049793
C	-0.961962682	 4.1476279622	-0.9629764464	-0.049274
C	-0.2391270611	 4.7253059982	 0.2286198118	-0.138154
O	 1.0643142826	 4.167814947	 0.4492278025	-0.221908
C	 1.1441649423	 2.9990608549	 1.1848436166	 0.021172
O	 1.1245382594	 1.7924254519	 0.4134530686	-0.222085
H	-2.1140901159	 1.1390375852	 0.0246790113	 0.138426
H	-1.4376773393	 2.3849867676	 1.0834819861	 0.118403
H	-1.9270587498	 2.555277546	-1.9209916443	 0.116016
H	-1.0535343631	 4.7866645705	-1.8364908422	 0.104482
H	-0.0662479597	 5.7940106386	 0.0841444086	 0.122954
H	-0.8387618862	 4.6110832121	 1.1444724169	 0.106536
H	 2.1362833545	 2.9845919762	 1.6396388325	 0.134941
H	 0.3746978684	 2.9564370741	 1.9681121243	 0.098293
