21
gdb 88837	2.95773	1.09281	0.88243	3.0855	78.73	-0.2363	0.0751	0.3114	1356.6015	0.181596	-424.186915	-424.17744	-424.176496	-424.222356	34.918	
C	-0.5306731957	 1.3516469762	 0.0985488558	-0.396633
C	 0.1263799606	-0.0095274985	-0.0199739742	 0.143451
O	 1.2921390072	 0.014711529	-0.8790961324	-0.294524
C	 2.1148096059	-0.6069219459	 0.1273992825	-0.086365
C	 0.9650929946	-0.5906174432	 1.1601345722	-0.061431
C	 1.175617009	 0.2628451143	 2.3819739549	-0.022455
C	 0.2029477497	 0.1936299274	 3.5481859184	-0.343807
C	 1.5970755367	-0.3631597035	 3.683205446	 0.085552
O	 1.7904039949	-1.7487017875	 3.6866943004	-0.416464
H	 0.1657811907	 2.1034112723	 0.4795896458	 0.116007
H	-0.8762702151	 1.6796991119	-0.8870419446	 0.123265
H	-1.3971390864	 1.3065927514	 0.7667600089	 0.11502
H	-0.6071711425	-0.7359273606	-0.4001820567	 0.066948
H	 2.4579843081	-1.6039868932	-0.1762174909	 0.097815
H	 2.9904562556	 0.0058490256	 0.3779332748	 0.095149
H	 0.6446114652	-1.5866381322	 1.4664555707	 0.084681
H	 1.6074719505	 1.2405500908	 2.1858121726	 0.090766
H	-0.0572524878	 1.1047950262	 4.0758094978	 0.11227
H	-0.600081636	-0.5325768708	 3.4696665185	 0.113758
H	 2.3059875427	 0.1936034195	 4.295932975	 0.087426
H	 1.4617063521	-2.0922576392	 4.5237119943	 0.28957
