15
gdb 30580	6.86743	0.65473	0.61778	3.3906	84.68	-0.215	-0.0169	0.1982	1741.1155	0.113607	-416.807332	-416.798792	-416.797848	-416.84228	29.892	
O	 0.316826254	 0.5923227776	 1.0051494456	-0.409062
C	-0.0946050694	 0.1624328049	-0.2871519473	-0.232461
C	-1.4470358738	-0.3713211921	-0.2219795621	 0.279808
C	-2.5705356774	-0.8095822124	-0.2029337894	-0.063295
C	-3.8767866739	-1.3433372135	-0.1569591883	 0.160889
N	-4.9607754802	-0.8710450701	-0.7555854986	-0.299788
C	-5.9715857824	-1.7259614405	-0.4146614969	-0.098134
C	-5.5093046195	-2.7308147712	 0.401204131	-0.104263
N	-4.1723583879	-2.479303564	 0.5568828218	-0.2855
H	 1.2024574122	 0.9594471622	 0.9160632704	 0.291091
H	-0.0827025859	 0.9929883293	-1.0112649525	 0.127421
H	 0.5814697456	-0.6140038093	-0.6820641916	 0.118404
H	-6.9787814236	-1.5749106559	-0.7721896973	 0.109461
H	-5.9921523092	-3.5718099455	 0.8702686876	 0.132422
H	-3.5155592688	-3.0129250794	 1.1016339676	 0.273009
