18
gdb 112278	2.44808	1.22673	0.89898	2.9186	69.71	-0.2327	0.0235	0.2562	1298.0584	0.146155	-476.219188	-476.209474	-476.20853	-476.254397	33.987	
C	 0.2892015898	 1.3900605032	-0.1449619806	-0.247332
O	-0.2556113535	 0.1352560684	 0.2372132902	-0.24554
C	 0.5102326028	-0.5155631064	 1.2065726162	-0.048396
C	 0.0306358389	-1.9621037004	 1.5338402703	 0.006269
C	-1.0788691642	-2.514213001	 0.6581528233	-0.07489
O	-1.1318776095	-3.9119589607	 0.9148156509	-0.432054
N	 1.3788738633	-2.4123362538	 1.1648134848	-0.324203
C	 1.8362030994	-1.1952297457	 0.7281821747	 0.409935
O	 2.8461415049	-0.8354606169	 0.181853287	-0.368749
H	 1.2967474485	 1.2781637451	-0.5608014942	 0.148793
H	-0.3784517257	 1.8064271072	-0.9020302907	 0.12833
H	 0.3334353326	 2.0785350245	 0.71274547	 0.108308
H	 0.6563011048	 0.1133014913	 2.0976400246	 0.091395
H	-0.2063242937	-2.1425959467	 2.5875627443	 0.093794
H	-2.0246450804	-2.0134070978	 0.9134840666	 0.099975
H	-0.8572663579	-2.2999543909	-0.3951691581	 0.104209
H	-1.7821063555	-4.3023764542	 0.323879606	 0.292082
H	 1.7442544854	-3.3476478354	 1.0611312048	 0.258074
