19
gdb 55914	4.04873	1.01206	0.90162	1.6146	76.41	-0.2483	0.0272	0.2755	1328.8634	0.159191	-419.164816	-419.156169	-419.155225	-419.198839	32.051	
C	-0.0862490281	 1.3917286878	-0.0218221039	-0.443534
C	-0.036119656	-0.0785581178	 0.2799331265	 0.410022
N	 0.8846784505	-0.5872918427	 0.9888110156	-0.519618
O	-1.093687704	-0.7096222618	-0.310781425	-0.254471
C	-1.1942052991	-2.1183330322	-0.1724205895	 0.094446
C	-1.7285897158	-2.7184473131	 1.1568268047	-0.203393
N	-2.8660032041	-3.4003679244	 0.4422097529	-0.124605
C	-3.6561793279	-2.3075207289	-0.1441346084	-0.231083
C	-2.4188764992	-2.7063846065	-0.8430757701	-0.067766
H	 0.7547668744	 1.8919584117	 0.4558036114	 0.148366
H	-0.0513489448	 1.5567689381	-1.103138421	 0.139609
H	-1.0262685543	 1.8198659896	 0.3400964552	 0.13768
H	 0.7838395987	-1.5936868219	 1.1119491577	 0.218762
H	-0.2628397093	-2.5912107927	-0.500469765	 0.101354
H	-1.0644127335	-3.4562782163	 1.610831921	 0.119146
H	-2.0497954411	-1.9968877596	 1.9139334406	 0.120099
H	-4.5923748404	-2.6464182406	-0.5760797958	 0.128006
H	-3.7050244623	-1.349800279	 0.3682445662	 0.123598
H	-2.4219058436	-3.2144255097	-1.8009946332	 0.103383
