17
gdb 20822	3.25676	1.78883	1.25869	1.7545	70.59	-0.1983	0.0365	0.2348	979.7626	0.14419	-360.070495	-360.062351	-360.061407	-360.103066	30.105	
C	-0.0328226542	 1.5618562248	 0.1293038827	-0.36555
C	-0.0570189787	 0.0286021286	-0.0094345731	-0.318143
C	 0.6577475768	-0.4825099637	-1.224498717	 0.176726
C	 0.1309299605	-0.8796947768	-2.4372422106	-0.118645
N	 1.1659815837	-1.2673190227	-3.2158628962	-0.195515
N	 2.3663298291	-1.1433597756	-2.5964070267	-0.307364
C	 2.0584426017	-0.6748736786	-1.3911629059	 0.285115
N	 3.0444263418	-0.4974704894	-0.4152589098	-0.592188
H	 0.9925241448	 1.9457009858	 0.1754668912	 0.10846
H	-0.5185974884	 2.0388932874	-0.7276247724	 0.118498
H	-0.5497273358	 1.8839325005	 1.0392818248	 0.110636
H	 0.3920529745	-0.4198537988	 0.8859965474	 0.110957
H	-1.0990629192	-0.3104126539	-0.0289798077	 0.101005
H	-0.8901617717	-0.922512331	-2.7849240441	 0.124574
H	 1.1378115072	-1.6279351607	-4.1524505819	 0.269533
H	 3.9705068447	-0.5670979371	-0.8188388054	 0.24789
H	 2.9525553431	 0.3738805112	 0.0903880147	 0.24401
