19
gdb 121437	2.30298	0.9392	0.69963	3.345	81.6	-0.2758	-0.0474	0.2284	1638.6443	0.157329	-419.221238	-419.210799	-419.209855	-419.257838	35.732	
C	-0.0511280356	 1.5337309771	 0.091199896	-0.382037
C	-0.090148003	 0.010443909	-0.0462579311	-0.157948
C	 0.7386102569	-0.4871838308	-1.2378829321	-0.165574
N	 0.7512174441	-1.9388184476	-1.2799486624	-0.313129
C	 0.2881715364	-2.5780603024	-2.2653495965	 0.34064
O	 0.2612043085	-3.9185204659	-2.3451769602	-0.239489
C	 0.7977438252	-4.6187216197	-1.217515669	-0.236507
C	-0.2859591323	-1.989957159	-3.4671961878	 0.254974
N	-0.7331763351	-1.4680089788	-4.3963707168	-0.333254
H	 0.9724389095	 1.8934097892	 0.2441892669	 0.117431
H	-0.4450012155	 2.0258073523	-0.8046913838	 0.122921
H	-0.6508723179	 1.8661778307	 0.9434007664	 0.118473
H	 0.2868836638	-0.4662227187	 0.8654874775	 0.109239
H	-1.1252738784	-0.3299228977	-0.1704513327	 0.103453
H	 0.3640500181	-0.035481392	-2.1682332348	 0.118165
H	 1.7774728226	-0.1562031444	-1.1111580894	 0.11593
H	 0.686856514	-5.6763780883	-1.4554370769	 0.140367
H	 1.8504032321	-4.3626332339	-1.0705013567	 0.143382
H	 0.2458583665	-4.3654412391	-0.3084419466	 0.142964
