17
gdb 77023	2.96264	1.06548	0.96752	2.7295	79.08	-0.2525	0.0066	0.2591	1261.6546	0.133771	-380.814183	-380.804717	-380.803773	-380.848922	33.943	
C	-1.7937285026	 0.8135157139	-0.7476945456	-0.332816
N	-0.8288811353	-0.2577310427	-0.5144472469	-0.085755
C	 0.3664626295	-0.3762894183	-1.3239564622	 0.004267
C	 0.7269656395	 0.5858533004	-2.451143538	-0.400803
C	-0.0113143155	 0.2912726562	-3.6750229626	 0.299739
C	-0.6272045983	 0.0301460872	-4.6730915234	-0.430405
C	 0.4615355112	 0.040018801	 0.1229194726	-0.190939
C	 0.8338535568	 1.3977022606	 0.438177366	 0.297357
N	 1.1185805458	 2.4869880931	 0.7062895232	-0.343096
H	-1.3540855195	 1.80490174	-0.9160951995	 0.130581
H	-2.3949112736	 0.5434919332	-1.6191803905	 0.146712
H	-2.4504381909	 0.8783983888	 0.1239636095	 0.138491
H	 0.6340446749	-1.4089253533	-1.5419108435	 0.118971
H	 0.5603272969	 1.6247533491	-2.1502925678	 0.157031
H	 1.8045391121	 0.4979620305	-2.6399320271	 0.148664
H	-1.1674965414	-0.1897712517	-5.5605223971	 0.203064
H	 0.7831045204	-0.681702918	 0.869478323	 0.138937
