23
gdb 77470	1.8957	1.45344	1.34837	1.1415	86.24	-0.2344	0.0763	0.3107	1196.671	0.203626	-388.269689	-388.259388	-388.258444	-388.303881	39.179	
C	 0.1405050878	 1.6483035351	-0.3670481352	-0.425697
C	 0.2795180048	 0.1460775225	-0.2064317487	-0.120353
C	 1.5213698745	-0.6724783535	-0.4196488643	 0.334889
O	 1.5714897597	-1.7432811717	-1.302508233	-0.465737
C	 2.7732698992	 0.0220512381	 0.13268875	-0.332626
C	 2.1284025862	-0.0208399044	 1.5617810746	 0.001799
C	 2.0562103052	 1.2326133913	 2.4292387205	-0.419668
C	 0.8568944363	-0.6524571078	 0.9596728704	 0.250311
C	 0.0466737492	-1.7094717517	 1.6578421305	-0.495446
H	 1.0745462379	 2.1825548694	-0.181620763	 0.122846
H	-0.1733553794	 1.8924443407	-1.3887485204	 0.108347
H	-0.6160415987	 2.0558433683	 0.3128392113	 0.117408
H	-0.5834246613	-0.3932966214	-0.5981183512	 0.081986
H	 1.4539385591	-1.4063402997	-2.1971487144	 0.282295
H	 3.660505624	-0.609813176	 0.0546393026	 0.105219
H	 3.0118028583	 1.0096974191	-0.2775527252	 0.087313
H	 2.6393037701	-0.8017314034	 2.1378513719	 0.073754
H	 1.5724696043	 2.0704443968	 1.922265565	 0.116727
H	 1.4934879653	 1.034616481	 3.3486013908	 0.113254
H	 3.0606902494	 1.5569162577	 2.7242156478	 0.111485
H	-0.6093504618	-1.2777254556	 2.4237879958	 0.114629
H	-0.5857148454	-2.2535225813	 0.9489827993	 0.122928
H	 0.6956213855	-2.4413936536	 2.1530725948	 0.114336
