19
gdb 64587	3.59655	1.14807	1.12238	3.5189	76.71	-0.2383	-0.0179	0.2205	1160.4003	0.159176	-423.027464	-423.018956	-423.018012	-423.060654	31.754	
C	 0.1192214046	 1.5518192182	-0.0004022471	-0.506537
C	 0.0308962837	 0.0413089026	-0.0824448231	 0.190392
C	-1.1870122151	-0.5770172548	 0.4986119416	 0.117697
O	-2.0893715818	 0.0203609738	 1.0343649754	-0.275508
C	 0.6386692834	-0.7920557164	-1.2332763068	-0.142107
C	 1.6238558778	-0.1094295906	-2.1672751101	-0.266426
C	 2.7405593438	 0.4020695962	-1.2231327214	-0.081727
O	 2.525003354	-0.1916990866	 0.0692350736	-0.25436
C	 1.2943744786	-0.8394451649	 0.0916811983	 0.067486
H	 1.0323198877	 1.8672094962	 0.5111287477	 0.137626
H	 0.0936599419	 2.0280993114	-0.9854968862	 0.117104
H	-0.7396685258	 1.9138885739	 0.5689911387	 0.152752
H	-1.2164372758	-1.689481393	 0.4153510575	 0.06412
H	 0.0536341154	-1.6212840096	-1.6148395812	 0.100142
H	 2.007761242	-0.8476416316	-2.8774982517	 0.118738
H	 1.1822666035	 0.7057296047	-2.7475492737	 0.119308
H	 3.7430736451	 0.1186540166	-1.5586679987	 0.114604
H	 2.7092594092	 1.491610771	-1.125209257	 0.113709
H	 1.2775592078	-1.687238107	 0.7670188542	 0.112985
