20
gdb 6094	4.19413	1.00241	0.85857	2.9605	72.69	-0.2423	-0.01	0.2323	1374.7742	0.172598	-386.161316	-386.151033	-386.150089	-386.198001	35.451	
C	 0.5522824851	 1.2630087293	-0.3006852636	-0.39436
C	-0.1589649654	-0.020065572	 0.1365840977	 0.161577
C	-0.1045860019	-1.102854094	-0.9345665612	-0.389951
O	 0.4330467025	-0.5840847841	 1.3067896506	-0.258448
C	 0.1773261805	 0.1025028901	 2.5052403491	-0.162355
C	 0.6254596187	-0.717558722	 3.7179821326	 0.351297
C	 1.065280359	-2.142549398	 3.4735048697	-0.465541
O	 0.6000068448	-0.2087120226	 4.8139647963	-0.297459
H	 1.6072924994	 1.0586533811	-0.5099134694	 0.123966
H	 0.0906421498	 1.6618917349	-1.2093220223	 0.118281
H	 0.4977422366	 2.0411153212	 0.4658634768	 0.119943
H	-1.2137046247	 0.2150498328	 0.3601612477	 0.067523
H	 0.9348689678	-1.3630224553	-1.1584960259	 0.124284
H	-0.6177155407	-2.0055405489	-0.5929049726	 0.12064
H	-0.5805650735	-0.7577647464	-1.8569482094	 0.115784
H	 0.6891064066	 1.0745683755	 2.5599830844	 0.122182
H	-0.9011571526	 0.304084149	 2.629157967	 0.115492
H	 0.260547101	-2.7074472224	 2.9915827107	 0.143307
H	 1.9062343869	-2.1589040459	 2.773231238	 0.149969
H	 1.34352868	-2.6062008923	 4.4203048338	 0.133869
