15
gdb 125155	3.1039	1.40067	1.03496	3.4226	68.64	-0.2593	-0.0406	0.2187	1104.7689	0.111506	-453.90315	-453.895167	-453.894223	-453.936532	28.501	
C	-1.0637307817	 1.0174386711	-0.4068882982	-0.508722
C	-0.1805275905	-0.1609777855	-0.1743697394	 0.152861
C	 0.6406543781	-0.8684460847	-1.0050347432	 0.334558
O	 1.2395618799	-1.8347008251	-0.301994472	-0.226766
N	 0.7499443839	-1.7181247797	 1.0387478109	-0.016088
N	-0.053338836	-0.754877215	 1.0663286872	-0.157772
C	 0.9898616162	-0.782550358	-2.4355240255	-0.037131
C	-0.0285890271	-0.9136035625	-3.4961042428	-0.170567
O	 0.5171736967	 0.3579250011	-3.1485798471	-0.215242
H	-0.8059035619	 1.8329052341	 0.2759486632	 0.1478
H	-0.9546392325	 1.3725668225	-1.4317993081	 0.157715
H	-2.1138212677	 0.7637575665	-0.2275925571	 0.141776
H	 2.0103955447	-1.0837433506	-2.6673498148	 0.129322
H	 0.2671655843	-1.3003095405	-4.4694492247	 0.13557
H	-1.0678344767	-1.0699677137	-3.2150607485	 0.132684
