17
gdb 95013	3.03997	1.69393	1.38216	1.1573	66.36	-0.2429	0.0533	0.2961	941.9608	0.137275	-458.884905	-458.877988	-458.877044	-458.916145	27.909	
O	 0.1115905299	 1.432140205	-0.1655957194	-0.436773
C	 0.0782206719	 0.01724276	-0.017762422	 0.085295
C	 0.7640807152	-0.4603119503	 1.2621566686	-0.115942
O	-0.0913897475	-0.3049156602	 2.3933166638	-0.275805
C	-1.3940198102	-0.753478414	 2.1436436308	 0.115
C	-1.7084103814	-1.6949417682	 0.9335825249	-0.022686
O	-3.1003103323	-1.2222575558	 1.0002376361	-0.304658
C	-2.2878147955	 0.0015982798	 1.1185828572	 0.005414
C	-1.3605830802	-0.5107072422	-0.0182438572	-0.04028
H	-0.2285728502	 1.8164936373	 0.6504621592	 0.288258
H	 0.6275901103	-0.3738888665	-0.8806991292	 0.094919
H	 1.0467532484	-1.519018892	 1.154985708	 0.099393
H	 1.6650778239	 0.1242801817	 1.4620269869	 0.121048
H	-1.8801712925	-1.0117728807	 3.0847068148	 0.102638
H	-1.5498936678	-2.7660765965	 0.8058566611	 0.09722
H	-2.8145038026	 0.9521601914	 1.2085396534	 0.09695
H	-1.8378595295	-0.5504231688	-0.9985539171	 0.090009
