19
gdb 38807	3.16237	1.90353	1.60584	1.3899	79.21	-0.2265	0.0188	0.2454	901.7571	0.163468	-385.887028	-385.880838	-385.879894	-385.917133	27.05	
C	-0.0564673819	 1.5973532735	 0.0615759083	-0.249231
C	 1.4749671803	 1.3922232963	 0.0256405078	 0.094894
O	 1.7412631606	 0.7251723563	 1.2623430578	-0.286655
C	 0.7329215474	-0.3226305395	 1.2585525467	 0.107405
C	 1.4374263403	-1.6783093354	 1.2151192417	-0.278996
C	 2.2354277055	-1.8317982087	-0.0548689588	-0.054081
C	 2.1548109643	-0.9496114737	-1.0519150373	-0.078172
C	 1.2138244248	 0.20701027	-0.9799321798	-0.046982
C	-0.0215313378	 0.047074189	-0.0340443763	-0.081576
H	-0.4658787081	 2.0561865742	 0.9647123081	 0.098184
H	-0.4617273232	 2.0656802511	-0.8373976272	 0.0989
H	 2.2046280621	 2.1844119169	-0.1364419164	 0.077899
H	 0.1120699687	-0.2267088817	 2.1567413574	 0.070464
H	 2.1052859683	-1.744674152	 2.0837168361	 0.117246
H	 0.7107466513	-2.4965585708	 1.330663145	 0.099382
H	 2.9003729866	-2.6885616447	-0.1274565246	 0.086831
H	 2.7627919932	-1.0667490222	-1.9446773094	 0.083466
H	 0.9258329652	 0.5858139416	-1.9625745567	 0.07182
H	-0.8850874276	-0.56075171	-0.3020168324	 0.069201
