18
gdb 113522	2.72148	1.18998	1.06855	3.9509	74.57	-0.251	0.0279	0.2788	1202.996	0.147432	-439.059974	-439.051258	-439.050314	-439.093684	32.2	
O	 0.1437317231	 0.4612891016	 0.9248929933	-0.414684
C	-0.2026716583	 0.1533748532	-0.4193065448	-0.101472
C	-1.532749808	-0.5527437986	-0.4118547013	-0.055727
C	-1.8055541858	-1.6485919864	-1.4082180879	-0.366629
C	-1.5802256861	-1.9876180415	 0.0371435713	 0.206886
C	-0.5199314928	-2.8292743342	 0.7399353383	-0.156432
O	-1.5648706493	-3.3504829075	 1.6281637241	-0.26895
C	-2.5406451417	-2.5993019818	 0.9955375633	 0.394895
N	-3.7747766574	-2.5075888128	 1.1986423187	-0.567011
H	 0.924851057	 1.0228568963	 0.9145455518	 0.289777
H	-0.2712027102	 1.0650722095	-1.0322552924	 0.099245
H	 0.5568909266	-0.4958508451	-0.8857828045	 0.082378
H	-2.3779652891	 0.0540031895	-0.1011679802	 0.119065
H	-2.8154693484	-1.7627142078	-1.7857137681	 0.141772
H	-1.0203188384	-1.907152153	-2.1122904052	 0.117861
H	-0.0655169505	-3.6384155185	 0.1617374667	 0.115702
H	 0.2317644127	-2.2719093004	 1.3027159248	 0.135672
H	-4.0738923434	-3.0989616126	 1.9747547022	 0.227651
