19
gdb 40838	3.70063	1.14372	0.98443	2.6676	71.53	-0.2586	0.0879	0.3464	1222.7398	0.160566	-460.136585	-460.128685	-460.12774	-460.16948	30.001	
C	 0.4781106506	 1.5031060559	 0.2208646114	-0.172043
O	 1.2724098464	 0.3857946183	-0.1939184773	-0.235285
C	-0.1000328846	 0.1598922983	 0.1153859638	 0.059788
C	-0.4016132351	-0.7041020279	 1.3196068563	 0.090545
C	 0.0962540322	-2.1458894317	 1.1347207176	-0.212175
C	-0.084950548	-2.9133575555	 2.4459651616	-0.097643
O	 0.5100473406	-2.2012478285	 3.52337338	-0.228945
C	-0.0194102413	-0.9101372679	 3.6214848297	 0.018863
O	 0.2050778711	-0.1334331527	 2.4719549302	-0.252392
H	 0.7153034667	 1.8945153384	 1.2056191062	 0.134204
H	 0.2685813103	 2.2396666714	-0.553571921	 0.110339
H	-0.7220580002	-0.0749468224	-0.7509165614	 0.0922
H	-1.4992552354	-0.7144382942	 1.4577927015	 0.064947
H	-0.4488407787	-2.6396443263	 0.3222610984	 0.097121
H	 1.156711267	-2.1088933286	 0.8684751456	 0.134143
H	-1.1586515425	-3.0686501004	 2.6502656935	 0.087372
H	 0.3989780008	-3.8925319242	 2.4130986114	 0.115952
H	-1.1079661968	-0.9644916943	 3.8222050752	 0.072839
H	 0.4930987569	-0.4113607378	 4.4461315372	 0.120172
