20
gdb 19287	3.29695	1.69467	1.36295	1.3289	74.27	-0.2472	0.0604	0.3075	993.0171	0.177008	-348.975512	-348.96717	-348.966225	-349.008146	31.768	
C	-0.0040302486	 1.5629962064	 0.1108334373	-0.379238
C	 0.0897670247	 0.0328099159	 0.1147200123	-0.188547
C	 0.6703741302	-0.5337450951	-1.1781265446	-0.013021
C	 0.897856893	-2.0460674755	-1.3012940693	-0.075772
C	-0.4023118912	-2.7979507418	-1.2918930328	-0.279837
C	 0.0221341668	-2.1096149657	-2.5591913305	-0.049101
C	-0.2473603717	-0.6150471713	-2.4680400725	 0.085706
O	-1.620960893	-0.3031056633	-2.339927287	-0.427261
H	 0.9804989804	 2.0227337236	-0.0319315349	 0.113222
H	-0.6530721049	 1.9244508543	-0.6949869109	 0.096181
H	-0.4150516181	 1.9407329305	 1.0521435686	 0.114236
H	 0.7181826462	-0.2906876119	 0.9546093863	 0.093555
H	-0.9045429589	-0.3903383038	 0.2897474479	 0.106962
H	 1.5897986308	 0.0079374506	-1.4296673402	 0.061003
H	 1.8438731956	-2.5439755998	-1.124910858	 0.081033
H	-0.3067404805	-3.8789187694	-1.3117086524	 0.107605
H	-1.2622338601	-2.4394311814	-0.736007495	 0.122671
H	 0.1843446088	-2.6557013229	-3.4801862545	 0.08161
H	 0.1998034665	-0.0660536208	-3.3061451594	 0.065582
H	-1.7179205061	 0.6539613415	-2.3608018505	 0.283411
