18
gdb 40443	3.64207	1.22915	1.10745	2.9456	71.67	-0.2465	0.0649	0.3115	1136.2426	0.148726	-439.033297	-439.025545	-439.024601	-439.066102	29.392	
C	-0.0805211543	 1.4728308356	-0.0640752472	-0.240411
N	 1.233959423	 0.8181299498	 0.0182193826	-0.317724
C	 0.0149122258	-0.0068866122	 0.0526776399	-0.133888
C	-0.2681644377	-0.7366304199	 1.3205084056	 0.451089
C	 0.0664211158	-0.1621908783	 2.6852820735	-0.156692
O	-0.033818023	-1.249484496	 3.6009865633	-0.260152
C	 0.1470455041	-2.47989044	 2.9112725871	-0.100056
C	-0.2229063042	-2.1959428725	 1.4740362748	-0.060254
O	-1.4776386209	-1.5165029737	 1.3413622545	-0.301577
H	-0.3448842623	 2.0737427447	 0.8011892477	 0.126626
H	-0.4080074696	 1.8828751239	-1.0155160478	 0.119294
H	 1.6668491447	 0.7672171815	-0.8994230864	 0.239115
H	-0.2454439284	-0.5790318189	-0.8352448557	 0.090133
H	 1.079235965	 0.2639530221	 2.6578773381	 0.120819
H	-0.6379504706	 0.6088971195	 3.0142758503	 0.112732
H	 1.1922429251	-2.8289517872	 2.9568667329	 0.095011
H	-0.4923141902	-3.2292305778	 3.3898782816	 0.118335
H	 0.0473602278	-2.8809615105	 0.6743897851	 0.0976
