17
gdb 27989	2.5445	1.39141	0.90969	1.3486	79.33	-0.2313	-0.0454	0.186	1256.2601	0.135712	-418.082848	-418.074045	-418.073101	-418.116436	31.601	
C	-0.0331489151	 1.5033396036	 0.0706899608	-0.48742
C	-0.0082343745	 0.0155262667	-0.0279576769	 0.270692
C	-0.0315102622	-0.7707295972	-1.1354878304	-0.19209
N	 0.0096798779	-2.087479436	-0.6720010189	-0.090173
C	 0.0033224668	-3.2296014804	-1.4655231643	 0.17016
O	-0.0391160686	-3.2106132751	-2.667736418	-0.28651
C	 0.0564380614	-2.0163144978	 0.7208718501	 0.353357
C	 0.1103499942	-3.2091031798	 1.6166289678	-0.504722
N	 0.0465610546	-0.7775774692	 1.1213392858	-0.343274
H	 0.8590244219	 1.874584909	 0.586366746	 0.13833
H	-0.0768109759	 1.9637076555	-0.9193657107	 0.124796
H	-0.900291249	 1.8411673621	 0.648344769	 0.138334
H	-0.0723024148	-0.5651891936	-2.1907320426	 0.156197
H	 0.0417453515	-4.1548464002	-0.8667799001	 0.106129
H	 1.0014269025	-3.8211454692	 1.4388254985	 0.141705
H	 0.1391154485	-2.8498256633	 2.6459055432	 0.162792
H	-0.7667493391	-3.8551293549	 1.5001252108	 0.141697
