13
gdb 131380	3.5755	1.76645	1.1829	2.5399	65.04	-0.2056	0.0121	0.2178	933.7107	0.092752	-448.950671	-448.944054	-448.94311	-448.981475	25.689	
O	-0.0449303464	 1.3219898833	 0.0116611569	-0.413037
C	 0.0164746716	-0.0116265227	 0.0078030994	 0.466776
N	 1.0958046169	-0.7375450068	 0.0140011039	-0.326904
N	 0.6461285824	-2.0517455473	-0.0548116956	-0.373516
C	-0.7176732776	-2.0882273595	-0.0042837714	 0.509071
N	-1.7020669852	-2.9500026015	 0.0126456309	-0.402052
C	-2.8222378552	-2.1295072506	 0.0144022346	-0.077398
C	-2.5182427465	-0.7908826678	-0.0027959819	-0.169315
N	-1.124198099	-0.7679874304	-0.0129501109	-0.079202
H	 0.8626587207	 1.6535958858	 0.0230806532	 0.323262
H	 1.2741683711	-2.7856012728	 0.2207693593	 0.284411
H	-3.812133292	-2.5614754362	 0.0278575402	 0.115313
H	-3.1145083407	 0.1031027965	-0.0147074389	 0.142592
