17
gdb 36097	3.64182	1.15628	1.04466	1.9529	76.75	-0.2332	0.0433	0.2766	1169.9451	0.133984	-384.57143	-384.563459	-384.562515	-384.60427	31.137	
C	-0.0830642521	-1.2006511495	 0.1909849856	-0.452063
C	-0.0652812932	-0.0054789056	 0.0666335904	 0.311282
C	-0.0093683556	 1.446091451	-0.0994196233	-0.471159
C	 1.4019202256	 1.9816435088	-0.07602436	 0.331375
C	 2.1438338578	 2.4201486253	 1.1541135166	-0.321554
C	 1.8875111514	 3.4204287416	 0.05065785	-0.177555
C	 2.837162833	 3.1752869701	-1.1649291108	 0.02332
O	 3.7277610444	 2.0909432799	-0.8646405174	-0.236627
C	 2.3892879929	 1.7927679575	-1.2804075561	-0.034558
H	-0.1067856502	-2.2556563726	 0.3080309536	 0.197618
H	-0.498068554	 1.7189212709	-1.045500653	 0.130614
H	-0.5932260166	 1.932427631	 0.6922694073	 0.133483
H	 1.5210132229	 2.5532224671	 2.0335742497	 0.112385
H	 3.1489947355	 2.0683534928	 1.3477128129	 0.138737
H	 1.3002718594	 4.3193194535	 0.1859441411	 0.094524
H	 3.1567846742	 3.897959614	-1.9054937868	 0.109509
H	 2.2560175348	 1.1332434942	-2.1296644896	 0.110668
