21
gdb 94739	2.5877	1.46624	1.22849	2.1556	77.16	-0.248	0.0673	0.3153	1108.1543	0.183112	-424.227239	-424.218576	-424.217631	-424.260188	34.378	
O	-0.0177131711	 1.4379329909	-0.0299772878	-0.43846
C	 0.0542417811	 0.0266642397	 0.0907561802	 0.121074
C	 0.5508659375	-0.4778118812	 1.4634227425	-0.260447
C	 0.0348702698	-1.9250853878	 1.5215539475	-0.289229
C	-1.3428970518	-1.8793008041	 0.8282533891	 0.420475
O	-1.6517785776	-3.0570158368	 0.1116961916	-0.491
C	-2.5072146449	-1.2834703867	 1.6783119134	-0.284151
C	-2.4485362873	 0.0255767309	 0.8406160603	-0.224276
C	-1.3392821775	-0.5926921487	-0.0583564457	-0.038593
H	 0.8704618408	 1.7918773256	 0.0780535856	 0.281187
H	 0.7066613774	-0.388701683	-0.694916163	 0.066498
H	 1.6370487691	-0.402832934	 1.578684761	 0.088974
H	 0.0948967487	 0.1350470377	 2.2499530228	 0.108273
H	 0.6824174043	-2.5825200597	 0.930088101	 0.103236
H	-0.010405632	-2.3276068124	 2.539522407	 0.088535
H	-1.714355932	-3.7815749764	 0.7440500646	 0.271706
H	-3.4318469996	-1.8498600426	 1.544121771	 0.099446
H	-2.3079808109	-1.1795407694	 2.7494484256	 0.087485
H	-3.3710445842	 0.2699948505	 0.3114385034	 0.101206
H	-2.1245966944	 0.9132345331	 1.3857858833	 0.11314
H	-1.6301102052	-0.7511438357	-1.0970108133	 0.074921
