15
gdb 52754	2.41427	0.88747	0.67192	4.0725	78.61	-0.2799	-0.0193	0.2606	1631.2219	0.109402	-416.774334	-416.764126	-416.763182	-416.812449	33.104	
C	 0.0144516697	 1.4873084634	 0.0146776385	-0.503703
C	-0.0079994267	 0.0344029787	-0.017084364	 0.191249
C	-0.0385993641	-1.16674473	-0.0476521829	 0.020848
C	-0.0446669384	-2.6216294011	-0.0816727492	-0.222331
O	-1.3750816668	-3.0957698301	 0.1401853645	-0.178507
C	-1.4864858289	-4.3870235056	 0.553824479	 0.143828
N	-2.6302977955	-4.8778024482	 0.7285269281	-0.425688
C	 0.4781538925	-3.1294545843	-1.3731898796	 0.296949
N	 0.8963231554	-3.5535608244	-2.3624204979	-0.312098
H	 0.6546644456	 1.8561549651	 0.8225583847	 0.159673
H	 0.3908677622	 1.8933208925	-0.929832902	 0.164902
H	-0.9931096006	 1.8851904666	 0.1740351682	 0.166952
H	 0.6184448924	-3.0099251891	 0.7068810108	 0.154687
H	-0.52056876	-4.8866209905	 0.7061458747	 0.103445
H	-2.5576549068	-5.8404637628	 1.050930657	 0.239795
