17
gdb 36587	2.57926	1.16543	0.99064	4.4368	78.13	-0.2435	0.0192	0.2627	1242.356	0.13446	-380.816922	-380.807658	-380.806714	-380.851687	34.041	
C	 0.2966489626	-0.2805225545	 1.349543219	-0.463007
C	 0.104154824	 0.4577909456	 0.4197348903	 0.318532
C	-0.0985052258	 1.3312275761	-0.7431866499	-0.335584
N	 1.0315060094	 2.1939215186	-1.1051692414	-0.33597
C	 1.2852608239	 3.3105853649	-0.2310372447	 0.185621
C	 1.9372839098	 3.1665651811	 1.147673736	-0.288191
C	 2.7161877038	 3.7446830833	 0.0012425544	-0.314321
C	 0.2958475624	 4.3603393304	-0.3632261493	 0.285909
N	-0.5096407697	 5.1861783351	-0.4478511108	-0.349413
H	 0.4505140141	-0.9283210656	 2.1771510673	 0.203885
H	-0.3367639663	 0.7128935802	-1.6163117526	 0.142381
H	-0.9710254902	 1.9741135269	-0.5796781165	 0.162469
H	 1.8738755912	 1.647860201	-1.2374585839	 0.232267
H	 1.6098392235	 3.8321709419	 1.9376643868	 0.139404
H	 2.150784619	 2.1518086655	 1.4580055808	 0.141415
H	 3.4822591761	 3.1344983409	-0.466389328	 0.128702
H	 2.9258052922	 4.8072504885	-0.0068722775	 0.145902
