22
gdb 94820	3.72694	1.10506	0.96603	1.7813	89.61	-0.2288	0.0211	0.2499	1313.5077	0.196159	-367.210885	-367.202421	-367.201477	-367.243708	33.922	
C	-0.0347987711	 1.5709461365	 0.0075849377	-0.401701
C	 0.0007490897	 0.03540816	 0.0001878261	-0.013296
C	 0.6433739599	-0.5112227005	-1.2859909745	-0.21105
C	 0.8815968808	-2.0229529172	-1.184442608	-0.306408
C	 1.8023765342	-2.3519661692	-0.0195234619	 0.317143
C	 2.3341856777	-3.7372914451	 0.0969416491	-0.292938
N	 3.2433901708	-2.6411578891	-0.2661700158	-0.355073
C	 1.5418305729	-1.5476652964	 1.2014102195	-0.084486
C	 0.7169796516	-0.4999973146	 1.2189118051	-0.070128
H	 0.9794325563	 1.9845762371	-0.0145402888	 0.119914
H	-0.5758130825	 1.9546691384	-0.8637438281	 0.110326
H	-0.53159109	 1.9520915794	 0.9060140541	 0.111547
H	-1.0437388685	-0.3156853978	 0.0350417901	 0.080073
H	 0.0096136345	-0.2800322094	-2.1493342297	 0.089557
H	 1.6023644514	-0.001551586	-1.4480930927	 0.101482
H	-0.0822224463	-2.5277919166	-1.0324826052	 0.104074
H	 1.2994360939	-2.4212908508	-2.1170425143	 0.084378
H	 2.5113465914	-4.1739141779	 1.0768685639	 0.1143
H	 2.0396829827	-4.4535470024	-0.6673722896	 0.106472
H	 3.4151290217	-2.6573147961	-1.2694855266	 0.22531
H	 2.0647038324	-1.855287742	 2.1030545489	 0.088172
H	 0.5483840865	 0.0309324397	 2.1539138805	 0.082331
