20
gdb 82847	3.07281	1.75446	1.73316	0.6108	77.07	-0.205	0.0928	0.2978	918.1508	0.174752	-403.129967	-403.123296	-403.122352	-403.160554	28.548	
C	-0.1497586833	 1.5938865445	-0.0342724921	-0.431856
C	 0.0455546373	 0.0902238649	-0.0363608282	 0.065033
C	 0.645673497	-0.6204833282	-1.2602303288	 0.073923
O	 1.8105236267	 0.0882990734	-1.7215593333	-0.286047
C	 2.8607120084	-0.2494873653	-0.7933345057	 0.083003
C	 2.7013902831	-1.770374532	-0.6468765149	-0.239894
C	 1.2408046201	-1.6412776749	-0.2530806505	-0.016062
N	 1.1400498022	-0.5371296386	 0.8157544747	-0.161438
C	 2.4187821884	 0.2063220069	 0.608111215	-0.183188
H	 0.6601937896	 2.1099438458	-0.5540705821	 0.13282
H	-1.0851156864	 1.8427662061	-0.5464304675	 0.116645
H	-0.2177089792	 1.9764766423	 0.989654184	 0.124245
H	-0.8882470678	-0.4025861567	 0.26237668	 0.074939
H	 0.0347253013	-0.8995793254	-2.1239160478	 0.066841
H	 3.8037643455	 0.1407278429	-1.1765733711	 0.076569
H	 2.8393459711	-2.3040111976	-1.5900453219	 0.108928
H	 3.3328477511	-2.2075076204	 0.1299024998	 0.108645
H	 0.6648303127	-2.5309045459	-0.0056962077	 0.079344
H	 3.1479694657	-0.0938907539	 1.3696866575	 0.099006
H	 2.2678817367	 1.2826999021	 0.6947545305	 0.108545
