18
gdb 63389	3.114	1.15456	0.98158	4.1339	73.	-0.2746	0.0156	0.2902	1222.3911	0.145037	-439.087871	-439.078508	-439.077564	-439.121438	35.662	
C	 0.5867280363	 1.4244273128	 0.1152681896	-0.462304
C	-0.1369494017	 0.0935324276	-0.0431283323	 0.414525
O	-1.5222223132	 0.2727228235	-0.2486139826	-0.474805
C	 0.5692328539	-0.9044969862	-1.0209893047	-0.300375
C	 1.1632145343	-1.6466381818	 0.2061193539	 0.252525
O	 2.493408969	-1.2014435758	 0.4047460843	-0.462307
C	 0.1141083088	-0.9196057523	 1.1049667836	-0.308272
C	 1.1049000424	-3.1131421565	 0.198377062	 0.236676
N	 1.0627697136	-4.2683712587	 0.218158063	-0.338128
H	 1.6488366098	 1.2679601055	 0.3169912007	 0.142218
H	 0.5032703924	 2.0188203608	-0.8036238548	 0.10966
H	 0.1470742207	 1.9974178343	 0.9378371108	 0.12506
H	-1.6455455783	 0.9742479325	-0.8972432398	 0.278152
H	-0.1680980595	-1.512913092	-1.5461153791	 0.129147
H	 1.3172137003	-0.5203457627	-1.7172443784	 0.121107
H	 2.7961580715	-1.522732003	 1.2623220984	 0.291924
H	 0.4910107518	-0.5366061405	 2.056397588	 0.109252
H	-0.7748583121	-1.5301153075	 1.2725836375	 0.135946
