16
gdb 51932	3.26204	0.62625	0.56401	3.3615	80.87	-0.2643	0.0146	0.2789	1916.8242	0.121136	-400.670225	-400.660121	-400.659177	-400.708282	34.044	
H	 2.1457361203	-2.777707454	 2.1554664769	 0.230587
N	 1.8679003568	-2.9931172763	 1.2001857663	-0.43592
C	 1.7583839735	-1.9283497577	 0.5341289152	 0.135655
H	 1.9207174101	-0.9058324751	 0.8998607476	 0.095398
O	 1.4133504937	-1.9888429258	-0.7713413577	-0.17144
C	 1.2824258729	-0.7306443639	-1.4411939196	-0.238927
H	 2.1877451232	-0.1262410043	-1.2902940619	 0.138094
H	 1.2324685016	-0.9836031366	-2.5037626558	 0.154521
C	 0.1007172285	 0.0229961025	-1.0351562088	 0.098047
C	-0.8705019617	 0.6389959828	-0.6830899818	 0.068869
C	-2.0595000921	 1.3819623388	-0.2628149956	-0.490776
H	-2.5774643505	 1.7712107122	-1.1500959236	 0.167148
H	-2.767872177	 0.6881790481	 0.2105001078	 0.170771
C	-1.7700288404	 2.4848724058	 0.655367678	 0.313508
C	-1.5438549042	 3.3920538356	 1.4080424037	-0.439733
H	-1.3421507546	 4.1940679679	 2.0741970093	 0.2042
