17
gdb 70651	2.44699	1.62563	1.21024	5.1262	71.99	-0.2508	0.0155	0.2663	1049.3262	0.137149	-417.998182	-417.990014	-417.989069	-418.03087	30.914	
N	 0.2058861602	 1.302940582	 0.0352487801	-0.596836
C	-0.0297871243	-0.111271623	-0.0190052159	 0.292355
C	-0.5941348392	-0.8673167295	-1.202771887	-0.333039
C	-1.3887681408	-0.749560677	 0.0798212726	-0.105376
C	-1.249221702	-1.9033549121	 1.0533218183	-0.097631
O	 0.153144428	-2.1837321281	 1.1108792001	-0.264019
C	 0.8468679743	-0.959903386	 0.9112176844	-0.029955
C	 2.180683223	-1.2521367521	 0.3680868612	 0.273061
N	 3.2341454393	-1.4286654001	-0.0712143926	-0.32277
H	 0.9452794568	 1.5686663861	-0.6093154961	 0.245082
H	-0.6225058213	 1.8210005774	-0.2349049613	 0.237187
H	-0.9241008955	-0.2654486868	-2.0423262908	 0.114074
H	-0.1739974559	-1.8333961571	-1.4655865247	 0.136251
H	-2.28952337	-0.1462867453	 0.1077031846	 0.098782
H	-1.63339222	-1.6193805936	 2.0447342379	 0.10598
H	-1.7423942796	-2.827311272	 0.737267902	 0.122333
H	 0.9738083072	-0.399569693	 1.8503682971	 0.124523
