15
gdb 98919	8.09844	0.54223	0.51142	4.648	73.94	-0.2668	-0.0622	0.2046	2022.9777	0.108821	-457.768876	-457.758683	-457.757739	-457.807017	32.479	
C	-0.1067347865	 1.3497111769	 0.1894472102	-0.24247
O	 0.0210487333	-0.0659141324	-0.0159438036	-0.232067
C	 0.6577638615	-0.4278136056	-1.1434444611	 0.472646
O	 1.1058789156	 0.3363922908	-1.9530050191	-0.335919
C	 0.7118739541	-1.9549832325	-1.215529254	-0.525864
C	 1.3794696615	-2.4664312043	-2.3967009085	 0.147139
C	 1.9288404724	-2.924395457	-3.3680103897	 0.027243
C	 2.5949921944	-3.4168851224	-4.5467056093	 0.023753
O	 2.7518569028	-4.5878281205	-4.8061199532	-0.22925
H	 0.8784531429	 1.8191204058	 0.2415527718	 0.147155
H	-0.6726726041	 1.8050467573	-0.6266868661	 0.147093
H	-0.6368339974	 1.463874807	 1.1345002674	 0.14003
H	 1.2041108879	-2.3220772867	-0.306210615	 0.1772
H	-0.3156440787	-2.3357012091	-1.1592740563	 0.177192
H	 2.9653776401	-2.6182915575	-5.2205611637	 0.106119
