21
gdb 89806	3.01075	1.35044	1.11204	1.3228	82.13	-0.2444	0.0752	0.3196	1163.4403	0.183871	-387.073426	-387.065286	-387.064342	-387.105768	33.117	
O	-0.0780894835	 1.4579848537	 0.037458719	-0.437475
C	-0.00611936	 0.0388787894	-0.000987833	 0.125986
C	 0.7065189243	-0.5841076668	 1.2283478755	-0.367471
C	 0.0308235092	-1.9378145465	 1.431054295	 0.40393
C	 0.7819920342	-3.2256096902	 1.1945692671	-0.31964
C	 0.3625244871	-2.8336577548	 2.5935539514	-0.321958
C	-1.3718522951	-1.7888687672	 0.895306154	-0.109225
C	-2.1461541168	-0.5637683863	 1.3170226589	-0.297864
C	-1.3987183218	-0.564054809	 0.0066173029	-0.03702
H	 0.8169025117	 1.8023213654	-0.0446387526	 0.279299
H	 0.5019542939	-0.2856511839	-0.9230617149	 0.064713
H	 1.7889089294	-0.6677931785	 1.0906679718	 0.089998
H	 0.5376472145	 0.0751768374	 2.0875320034	 0.110048
H	 0.2571084682	-4.0463168481	 0.7156275538	 0.108317
H	 1.8358463975	-3.1662141126	 0.941269764	 0.10603
H	 1.1335864	-2.5118569715	 3.2864380598	 0.106861
H	-0.4462001774	-3.3887724578	 3.0577231163	 0.110215
H	-1.9211828268	-2.687537149	 0.634678554	 0.077292
H	-3.2274797228	-0.6204187363	 1.257859701	 0.107852
H	-1.7813114978	 0.0455634156	 2.1363538684	 0.118156
H	-1.967194708	-0.540259523	-0.9157711359	 0.081957
