15
gdb 25737	2.82065	1.5509	1.00684	3.8785	72.54	-0.1959	-0.0156	0.1803	1097.9985	0.115558	-450.205802	-450.197764	-450.19682	-450.238217	30.774	
N	-0.0434707072	 1.4043244308	-0.0088140609	-0.560875
C	 0.0448922154	 0.0155792482	-0.0651373612	 0.305708
O	 1.1256520969	-0.5515440497	-0.2034095008	-0.391805
C	-1.194972096	-0.7206761411	-0.0056006887	 0.164705
C	-1.3634115565	-2.0996817058	 0.0925971043	 0.292855
N	-0.379104971	-3.0347182776	 0.2237165219	-0.591951
N	-2.6936407723	-2.4288217949	 0.1062678533	-0.314991
C	-3.3344553135	-1.2794562053	 0.0095578331	 0.021975
N	-2.5015757775	-0.2166362621	-0.0357704588	-0.357512
H	 0.8616737851	 1.8429425568	 0.0947356743	 0.25622
H	-0.7481367477	 1.7935109788	 0.6012059808	 0.244031
H	 0.5352973721	-2.7149621665	-0.0655439631	 0.273852
H	-0.6379442122	-3.9767814694	-0.0220979232	 0.254758
H	-4.4085659682	-1.1707960841	-0.029550845	 0.137125
H	-2.7620539075	 0.7265418119	-0.2690336861	 0.265905
