17
gdb 74829	4.34102	1.09751	0.97023	4.2651	75.98	-0.2477	-0.0385	0.2092	1222.8358	0.134116	-421.829255	-421.820961	-421.820017	-421.862208	30.873	
C	-0.0680369605	 1.4776696144	-0.074371178	-0.486466
C	-0.0543419108	-0.0159246683	-0.0311070015	 0.316829
C	-0.0877067421	-0.8621109554	-1.0688857677	-0.190884
C	 0.0532928324	-2.2726927814	-0.6165388601	-0.037678
O	 1.2736685341	-2.5507164595	 0.0829791051	-0.274871
C	 0.1344184634	-2.2318336069	 0.8755370058	 0.316077
C	 0.0381342137	-0.7676430627	 1.2887582998	-0.40226
C	-0.4330672044	-3.3251577808	 1.7174509017	 0.074738
O	-0.1787786866	-4.4941221074	 1.5860377214	-0.25375
H	 0.8590810463	 1.8909613899	 0.3423229875	 0.13685
H	-0.1743831771	 1.8491037447	-1.0966467335	 0.131178
H	-0.8895727929	 1.8847185836	 0.5284523293	 0.129648
H	-0.1703885177	-0.5799444876	-2.1114049343	 0.103958
H	-0.3647105635	-3.1188725268	-1.1534224685	 0.117183
H	 0.9076680312	-0.4535878724	 1.8787370611	 0.132671
H	-0.8493797343	-0.5922084351	 1.9127894987	 0.116839
H	-1.149820801	-2.9654528683	 2.491794683	 0.069937
