18
gdb 113743	2.90165	1.08104	0.86905	3.9948	73.64	-0.2601	0.0115	0.2715	1328.5611	0.145793	-439.061135	-439.051509	-439.050565	-439.095915	34.474	
C	 0.0712561078	 0.9753532863	-0.3489080077	-0.252969
O	-0.4274132147	-0.1333552844	 0.3902615199	-0.236955
C	 0.4800280923	-0.6132853346	 1.3237321472	 0.112086
C	 0.2457299591	-1.9993566575	 1.825155297	-0.327092
C	 1.4429327007	-1.7197617634	 0.9338439103	-0.071015
C	 1.4311631981	-2.2350283342	-0.4904994192	-0.042532
O	 2.246802481	-1.4765901525	-1.3725640814	-0.408911
C	 1.8148009174	-3.66318629	-0.5323200383	 0.272096
N	 2.1489337293	-4.769225043	-0.5579188004	-0.320312
H	 0.9643561125	 0.7006277704	-0.9223952635	 0.135097
H	-0.7241758146	 1.2827690675	-1.0307746788	 0.131776
H	 0.313477242	 1.8159616108	 0.3175567338	 0.109256
H	 0.8513074757	 0.1375806915	 2.0227026645	 0.09355
H	 0.4172340126	-2.2219961974	 2.8713758754	 0.12708
H	-0.5847705432	-2.5356431906	 1.3781089937	 0.137385
H	 2.4225154366	-1.7250583129	 1.4053690216	 0.096896
H	 0.4159830101	-2.1401213822	-0.8873645892	 0.151801
H	 3.1610516473	-1.5470611738	-1.0742648451	 0.292764
