11
gdb 444	8.13281	3.73274	2.59999	4.2248	48.42	-0.2428	-0.0263	0.2166	475.489	0.086559	-285.336744	-285.331604	-285.33066	-285.36533	18.405	
O	-0.0238147023	-0.0522936332	 0.0031447838	-0.384427
C	 0.0060395452	 1.1598586844	 0.0101761168	 0.399345
N	-1.0833450971	 2.0075338335	 0.0281979381	-0.322426
C	-0.7238270058	 3.4042661325	 0.0313316947	-0.205432
C	 0.7827192372	 3.3408812226	 0.0111258217	-0.068085
C	 1.1920619912	 2.0720675883	-0.001456337	-0.171027
H	-2.0258440776	 1.6585043219	 0.0388048223	 0.25502
H	-1.114846279	 3.9424446055	-0.8451030764	 0.127141
H	-1.0916104612	 3.9325049182	 0.9237220085	 0.127101
H	 1.3945450855	 4.2333690798	 0.0076941518	 0.119459
H	 2.2033796139	 1.6924202466	-0.0172839444	 0.123332
