17
gdb 51058	4.44819	1.08665	1.03585	2.6889	75.76	-0.2279	-0.0214	0.2065	1170.4014	0.134357	-384.583462	-384.575895	-384.574951	-384.616502	28.809	
O	-0.6363645907	 0.6135592352	 0.6065951971	-0.238617
C	 0.1649771798	 0.9148924402	-0.2388040852	 0.167073
C	 1.246758719	 1.9677286776	-0.0722343948	-0.425346
C	 1.2281773396	 2.9745478198	-1.1805138117	 0.358131
C	 0.1616456627	 4.0359421681	-1.6110308955	-0.158547
C	 0.6260461767	 3.9177639514	-3.0551848729	-0.082686
C	 1.2703169825	 4.9388050045	-2.1293935755	-0.081965
C	 2.3340355145	 3.8829700763	-1.7054911378	-0.164233
C	 1.6900049313	 2.8615758417	-2.6335490308	-0.148583
H	 0.1608449191	 0.4254161604	-1.2400740694	 0.076431
H	 1.1310046101	 2.4327411239	 0.9128026504	 0.124681
H	 2.2157796718	 1.4461813568	-0.0878790959	 0.122448
H	-0.8126187428	 4.291621092	-1.2162791712	 0.094995
H	 0.0707791239	 4.0674952892	-3.9709545438	 0.090792
H	 1.3024263689	 6.0171682587	-2.2034920758	 0.090516
H	 3.3616845531	 3.9642948511	-1.3762216156	 0.087506
H	 2.1394099706	 2.0246827131	-3.1520191717	 0.087403
