19
gdb 95713	2.78658	1.37055	1.03203	3.3278	72.43	-0.2421	-0.0291	0.2129	1182.7897	0.158804	-460.176284	-460.16745	-460.166506	-460.210244	32.46	
C	 0.17233948	 1.5724845334	 0.0028647677	-0.397627
C	-0.0215246082	 0.0681369069	 0.029735142	 0.208604
O	 0.6336295158	-0.4731774454	-1.0945005431	-0.245421
C	 0.0954891051	-1.6433422473	-1.6881868441	-0.071499
C	-0.3443305297	-2.7402286826	-0.6945935758	-0.342537
C	 0.5244677521	-2.799615586	 0.557785363	 0.387743
O	 1.3404616774	-3.6691092795	 0.7432632201	-0.290391
C	 0.2489473822	-1.7204318473	 1.6221129467	-0.169381
O	 0.5631901338	-0.3991479703	 1.2240352983	-0.236513
H	 1.2421989779	 1.79489306	 0.010036331	 0.142418
H	-0.2698628423	 1.9903254741	-0.9042161366	 0.122339
H	-0.2921131834	 2.0310118821	 0.8785500662	 0.12452
H	-1.0942645831	-0.1949825562	 0.0088644753	 0.056738
H	-0.7510540535	-1.3888955187	-2.3431039001	 0.101159
H	 0.8996919673	-2.0298364165	-2.3197462737	 0.131286
H	-1.3806726646	-2.5675416806	-0.3829666552	 0.117403
H	-0.2988745038	-3.7118118745	-1.1926570172	 0.130139
H	-0.8135852625	-1.7930562665	 1.9148646502	 0.097381
H	 0.8711578795	-1.938608565	 2.4914800152	 0.133639
