15
gdb 82268	3.28369	1.3904	1.08447	6.3258	73.12	-0.2601	-0.0567	0.2034	1067.209	0.114538	-416.797533	-416.790135	-416.789191	-416.829525	28.35	
O	 0.0662378955	 1.392127616	 0.1022616683	-0.418518
C	 0.0548414147	-0.0135479555	 0.0403152787	 0.038296
C	-1.3593436299	-0.6019609911	-0.0342276141	-0.082191
N	-2.1075580301	-0.0035211532	-1.1581862275	-0.344957
C	-1.4890012748	-1.3592681069	-1.2999928625	-0.079393
C	-0.1614816409	-1.2954477391	-1.974956367	-0.139099
C	 0.6948924243	-0.5585880835	-1.2519211667	 0.13588
C	 2.0226061238	-0.2180715683	-1.6218502868	 0.227976
N	 3.1139205015	 0.0585017704	-1.8946369988	-0.333314
H	-0.5694872019	 1.6865490922	-0.5661500966	 0.294795
H	 0.5971871128	-0.3640046475	 0.9241474284	 0.109192
H	-1.8845866216	-0.8764785469	 0.8726610153	 0.106065
H	-3.1060071978	-0.1094261442	-0.9882640364	 0.242981
H	-2.1384056718	-2.2192123124	-1.4125341646	 0.109752
H	 0.0554759561	-1.7519887301	-2.9324485296	 0.132534
