17
gdb 92258	2.65397	1.7633	1.34908	1.7702	67.57	-0.234	0.0473	0.2813	972.7955	0.135832	-458.889872	-458.882434	-458.881489	-458.921694	29.096	
O	-0.0007537034	 1.4357668127	-0.162008503	-0.43256
C	-0.0056143181	 0.0410280045	 0.0080957268	 0.007652
C	 0.1650775092	-0.5708107617	 1.45415817	-0.292953
C	-1.0850476669	-1.4683033393	 1.2197132745	 0.024461
O	-2.2928015223	-1.0286053161	 1.8879211362	-0.303289
C	-2.5820807565	-0.1259943226	 0.8016463592	-0.0059
C	-3.3884136381	-0.7141543351	-0.3816416514	-0.117082
O	-2.1651287303	-0.9730103909	-1.1377451081	-0.335635
C	-1.3779677339	-0.5901316346	-0.0291481171	 0.42943
H	 0.9107171077	 1.7368444387	-0.2247147009	 0.289262
H	 0.6701719579	-0.4588093691	-0.70089453	 0.084463
H	 1.1017554817	-1.1034861809	 1.626676724	 0.107142
H	 0.0040425818	 0.1661436574	 2.2429569747	 0.121674
H	-0.9540838619	-2.5508261069	 1.2341790066	 0.087923
H	-2.7972494123	 0.8937299308	 1.121866414	 0.103382
H	-3.9321688124	-1.6329527222	-0.1404817485	 0.116789
H	-4.0365198324	-0.0130001847	-0.9173481069	 0.115241
