21
gdb 120953	4.44249	0.91729	0.89082	0.9209	78.83	-0.2432	0.0899	0.3331	1404.0792	0.18352	-424.192496	-424.184053	-424.183109	-424.226066	31.985	
C	-0.0960360636	 1.3409314365	-0.0361723894	-0.225449
O	-0.063955807	-0.0649064366	-0.0610016077	-0.235473
C	 0.7433927733	-0.577574155	-1.1015358008	-0.077456
C	 0.6673294741	-2.0945717884	-1.0702615382	 0.004163
C	-0.7576275558	-2.6676806335	-1.3736697743	-0.228379
C	-0.3859887389	-3.4698875086	-2.6368430025	 0.082346
C	 0.9009418025	-4.221788358	-2.231115673	-0.233702
C	 1.3914071675	-2.7592697212	-2.2671743368	 0.058179
O	 0.4565999817	-2.518086618	-3.3675229026	-0.299872
H	 0.9051437075	 1.7714111296	 0.1278523189	 0.101026
H	-0.4956507704	 1.75842396	-0.9741510799	 0.103748
H	-0.7468586709	 1.640574615	 0.7891961376	 0.12442
H	 0.395322846	-0.2117153516	-2.0806966205	 0.100691
H	 1.7878620471	-0.2412544642	-0.9734459533	 0.077462
H	 1.0602669934	-2.4529935017	-0.1137794076	 0.076715
H	-1.155253939	-3.2918643282	-0.5696677924	 0.099304
H	-1.4804722573	-1.8783913849	-1.5886031316	 0.114452
H	-1.1781883569	-3.9141421576	-3.2392745405	 0.077767
H	 0.9252958887	-4.7733153003	-1.2873710489	 0.093728
H	 1.3104059035	-4.8085957087	-3.0536970852	 0.110154
H	 2.4207300447	-2.4731060945	-2.4873484513	 0.076178
