13
gdb 24861	2.53071	1.86372	1.1949	3.733	70.12	-0.2737	-0.1058	0.1679	972.5581	0.090251	-452.779848	-452.772721	-452.771777	-452.812103	26.133	
N	-0.1393686029	 1.3077302292	 0.3711983218	-0.487514
C	-0.0264593541	 0.1497093775	-0.1347010244	 0.355872
O	 1.0249455976	-0.1614668949	-0.9679451315	-0.250699
C	 1.4478571174	-1.4859565404	-1.1350271333	 0.416918
O	 2.4982551534	-1.8398520937	-0.7011146815	-0.277172
N	 0.636203547	-2.2509479279	-1.9652170163	-0.234152
C	-0.575583524	-2.5005119052	-1.6503250989	 0.010798
C	-1.3114096412	-2.0047722827	-0.4893553993	-0.124384
C	-1.0592889483	-0.8531033547	 0.156932035	-0.074325
H	 0.6438635397	 1.900038068	 0.0897035347	 0.241231
H	-1.1312183528	-3.149860134	-2.3301757339	 0.141438
H	-2.1845206939	-2.5804681752	-0.1960384277	 0.130024
H	-1.7197739178	-0.5335619061	 0.9552117753	 0.151966
