16
gdb 74062	2.77285	1.286	0.94207	6.2045	80.94	-0.2204	-0.0163	0.2041	1212.2343	0.123841	-400.761291	-400.752629	-400.751684	-400.79488	32.622	
N	 0.0487054509	 1.3613603644	-0.1897276158	-0.575584
C	-0.0496972779	 0.0159886371	-0.0537108966	 0.398636
C	-1.1728683979	-0.7454263696	-0.0438879348	-0.330178
C	-0.8507136593	-2.1555354358	 0.068745959	 0.399711
O	-1.5964215737	-3.1054748018	 0.1252942706	-0.354237
C	 0.718984503	-2.2720142237	 0.0721320254	-0.285643
C	 1.2133095704	-0.8046596478	 0.0736229707	-0.331818
C	 1.2252182308	-3.0758691095	 1.170104354	 0.338422
C	 1.6441433435	-3.7211195459	 2.0936455587	-0.471136
H	 0.9195686332	 1.8182026501	 0.0220623532	 0.26448
H	-0.7779660591	 1.9318386056	-0.1235335077	 0.267563
H	-2.1912814974	-0.3848497951	-0.1058272978	 0.096251
H	 0.9827517396	-2.7559787002	-0.8762179145	 0.12892
H	 1.9038794941	-0.5922698792	-0.7499752704	 0.125322
H	 1.7363491508	-0.560002866	 1.0045265868	 0.134293
H	 2.002547749	-4.3066708225	 2.9033669793	 0.194998
