15
gdb 8378	5.13741	1.32739	1.21755	4.8409	63.15	-0.2399	0.0361	0.276	980.3309	0.117732	-399.792699	-399.78506	-399.784116	-399.824735	28.567	
O	-0.0576028604	 1.3930361396	-0.0943784042	-0.416319
C	-0.0080618117	 0.0009842978	-0.0158940267	 0.029406
C	-0.4327477306	-0.7101280467	 1.2659053722	-0.395722
C	-1.3168857163	-0.7037192877	 0.0521970668	 0.406404
C	-2.7138981693	-0.0947500883	-0.1288262623	-0.465371
C	-3.0074757034	-1.3564177513	-0.9859561511	 0.432515
O	-3.9303014638	-1.7802394292	-1.6250694413	-0.356173
N	-1.7404299202	-1.8441262252	-0.7361210575	-0.391121
H	 0.6699580326	 1.7510174009	 0.4258716278	 0.291392
H	 0.7868250486	-0.4728124901	-0.5949143762	 0.088903
H	 0.0884349066	-1.6234663383	 1.5356636849	 0.117227
H	-0.7385786346	-0.0904439741	 2.1030578522	 0.125681
H	-3.3186038775	-0.0143374826	 0.775903346	 0.133108
H	-2.7386988859	 0.8440494673	-0.6833915528	 0.150073
H	-1.2409987241	-2.6378509222	-1.1090616577	 0.249995
