20
gdb 66838	2.64035	1.9526	1.45246	1.6193	82.43	-0.2178	0.0914	0.3091	988.4495	0.171207	-365.944034	-365.936256	-365.935312	-365.975711	31.372	
C	-0.020327092	 1.4325033999	 0.0422647036	-0.512386
C	 0.1067582275	-0.0536265641	-0.0623023315	 0.301837
C	 0.2970454667	-0.919320649	-1.3278721365	-0.117526
C	-1.0867137376	-1.5530821381	-1.6142106734	-0.248831
C	-0.9290531732	-2.1158604201	-0.1928909993	 0.01557
C	 0.6244652447	-2.0905099402	-0.3152144894	-0.131127
C	 0.6678397904	-1.0766494628	 0.8615740011	 0.305069
C	 1.4215743666	-1.0123920179	 2.1467648091	-0.526834
N	-0.823932538	-0.9258793996	 0.7508085637	-0.236107
H	 0.8874849701	 1.9343023364	-0.3106316302	 0.115326
H	-0.863007384	 1.794763565	-0.5582815266	 0.122844
H	-0.1993137221	 1.7316401633	 1.0789399529	 0.130238
H	 0.9777732652	-0.5769160761	-2.1058100551	 0.068288
H	-1.9370626689	-0.8977717002	-1.8256553581	 0.100104
H	-1.0228703666	-2.3455741004	-2.3665950796	 0.099717
H	-1.531364177	-2.9302746181	 0.2079813885	 0.071349
H	 1.279876748	-2.9303708315	-0.5336146484	 0.067734
H	 2.4968241407	-0.8940757785	 1.970655565	 0.119386
H	 1.0776394735	-0.1644768861	 2.7473287994	 0.130944
H	 1.2744490261	-1.923583862	 2.7379626447	 0.124405
