19
gdb 12740	3.1461	2.08293	1.60765	2.2882	71.57	-0.2065	0.0688	0.2753	882.3717	0.164703	-365.011711	-365.003762	-365.002818	-365.043542	30.213	
C	-0.110310902	 1.559028525	-0.0036685318	-0.329103
N	 0.0340251966	 0.1268408703	 0.1077232799	-0.102316
C	-1.1846181591	-0.6838936674	 0.3172526707	-0.194177
C	-0.431386576	-1.5415670266	 1.3487847313	 0.062518
O	 0.4048517554	-2.5628786312	 0.7784449859	-0.298582
C	 1.57004285	-1.6996755024	 0.7956811388	-0.091393
C	 0.7214009174	-0.5015100629	 1.2761709251	 0.293139
C	 1.2219202953	 0.3759902397	 2.3974891651	-0.507793
H	 0.8727457724	 2.0387429165	-0.0470107713	 0.119635
H	-0.6297240224	 1.7937151374	-0.9394879757	 0.12387
H	-0.6850312596	 2.0266829752	 0.8187657905	 0.0878
H	-2.0073310234	-0.1176641185	 0.7857184095	 0.083038
H	-1.5609166325	-1.1982936303	-0.573513179	 0.107313
H	-0.9562638024	-1.874426877	 2.2473383457	 0.077183
H	 2.3160011543	-2.0610687894	 1.5171826941	 0.088175
H	 2.0228460587	-1.5856702351	-0.1943169459	 0.103386
H	 2.054814188	 1.006032034	 2.0640562168	 0.126564
H	 0.4370205755	 1.0346273975	 2.7812540029	 0.125184
H	 1.5836557837	-0.2383443547	 3.2276882074	 0.125558
