21
gdb 106793	2.48955	1.5732	1.16744	0.928	84.09	-0.2248	0.0204	0.2452	1148.766	0.181527	-387.081071	-387.072019	-387.071075	-387.1144	34.809	
C	 0.0843912903	 1.2736392939	-0.3493119984	-0.253375
O	-0.0158007965	 0.0152006937	 0.2897954173	-0.293935
C	-1.2823533851	-0.5558802337	 0.221914463	 0.39929
C	-1.7803705248	-1.1385803283	-1.088530143	-0.387266
C	-1.440893983	-2.0581296226	 0.0724394075	 0.254619
C	-0.2492421787	-2.9761846923	-0.0488779916	-0.476325
C	-2.6083024369	-2.4663891293	 0.9783890557	-0.335993
C	-3.0929632186	-1.1596231168	 1.5712445393	-0.078208
C	-2.3503680429	-0.124103989	 1.177194945	-0.142455
H	 1.1260908659	 1.5921906493	-0.2647555564	 0.124867
H	-0.1894176959	 1.2110231606	-1.4118391343	 0.109461
H	-0.5548739047	 2.0301081228	 0.1282558932	 0.107859
H	-2.81600553	-0.9784152416	-1.3723114002	 0.105609
H	-1.0734636093	-1.1518101126	-1.913173447	 0.109148
H	 0.5741284964	-2.4773328352	-0.5666641843	 0.125122
H	 0.1158910766	-3.27846473	 0.9390851605	 0.116627
H	-0.5027937828	-3.8863703805	-0.6046955908	 0.112302
H	-3.4002848264	-2.9821435716	 0.4193871118	 0.108744
H	-2.2828132065	-3.1641989844	 1.7627220845	 0.105818
H	-3.9617096205	-1.1004744591	 2.2172163137	 0.09389
H	-2.4939894066	 0.9099827267	 1.4688145842	 0.094199
