13
gdb 24757	3.69157	1.31071	0.96728	2.0055	73.17	-0.2489	-0.0793	0.1696	1113.4042	0.089791	-415.623318	-415.615866	-415.614922	-415.655745	27.169	
O	 0.029711782	-0.0652446838	 0.0030326423	-0.309108
C	 0.0049250142	 1.1419670552	 0.0072101061	 0.317653
C	 1.1992750924	 1.9593755489	 0.001206367	 0.208379
C	 2.2274522317	 2.582179575	-0.0043598222	-0.373814
N	-1.2014757695	 1.8595085096	 0.0181517922	-0.099877
C	-2.4699317381	 1.2878159463	 0.025403537	-0.0868
C	-3.3363473944	 2.3352324719	 0.0348762646	-0.099427
N	-2.6549799847	 3.5472154734	 0.0339339303	-0.270505
C	-1.3932790502	 3.2345949667	 0.0239874945	 0.040699
H	 3.1398938407	 3.1286411862	-0.0103126274	 0.226029
H	-2.5896992194	 0.2191035036	 0.0228459406	 0.164419
H	-4.4149482467	 2.3045384831	 0.042433571	 0.126487
H	-0.559217978	 3.9181854639	 0.0202580341	 0.155865
