15
gdb 5431	3.49872	1.89701	1.23958	2.8531	77.55	-0.1974	0.0193	0.2167	938.861	0.11898	-325.543923	-325.536181	-325.535237	-325.575797	29.03	
C	-0.0020844026	 1.5026126267	 0.0770171711	-0.52134
C	 0.0139027676	 0.0151938735	-0.0202854344	 0.201963
C	-0.0005615071	-0.8118508506	-1.1375746547	 0.1048
C	 0.0281424056	-2.1670215353	-0.6675475714	-0.268089
C	 0.0581405731	-2.1249015594	 0.6997801607	-0.079088
N	 0.0491143837	-0.8006399324	 1.0781828886	-0.285594
C	-0.0367937467	-0.3774738368	-2.4825439209	 0.240132
C	-0.0674370933	-0.0113170746	-3.6309995078	-0.466626
H	 0.895092551	 1.8939516604	 0.5726561308	 0.128635
H	-0.0421866656	 1.9274938256	-0.9279278042	 0.155112
H	-0.8727496699	 1.8706340968	 0.6338634412	 0.128143
H	 0.0257843726	-3.0504268697	-1.2855914269	 0.101545
H	 0.0846881799	-2.9125379264	 1.4349279517	 0.121395
H	 0.0660757497	-0.4730020701	 2.0284991577	 0.26086
H	-0.0938958578	 0.3081967224	-4.6425386814	 0.17815
