17
gdb 54973	2.93094	1.12918	0.95949	3.3125	71.64	-0.2522	-0.0478	0.2043	1242.9687	0.134197	-455.165588	-455.156023	-455.155079	-455.200234	34.185	
C	 0.3829277341	 1.6042100793	-0.6180366552	-0.489181
C	 0.0187434649	 0.2146579927	-0.151092093	 0.216081
N	 1.0941668671	-0.7541620404	 0.0570368365	-0.335483
C	 0.3568138787	-0.3164503301	 1.2341275354	-0.165949
C	 1.0915100485	 0.5325117601	 2.2448870698	 0.437075
N	 0.5831448429	 0.4283416938	 3.5098277147	-0.533673
O	 2.0193218864	 1.2662517515	 1.9702577117	-0.355338
C	-1.2624627266	-0.3578108056	-0.6822649967	 0.107962
O	-1.5189445561	-1.5390970876	-0.6727918464	-0.271911
H	 1.279683782	 1.9488434683	-0.1052454636	 0.183611
H	 0.5699135765	 1.6012006411	-1.6972445029	 0.125575
H	-0.4339872124	 2.3061589826	-0.4169930463	 0.116422
H	 0.7430397624	-1.6740326963	-0.21488638	 0.249373
H	-0.3760232125	-1.0102645429	 1.6421537777	 0.096426
H	-0.0836642817	-0.2794920829	 3.7635723077	 0.262245
H	 1.0676224602	 0.9138916309	 4.2474542104	 0.265781
H	-1.9747169942	 0.3836161555	-1.1020778797	 0.090985
