17
gdb 44466	4.11088	1.40822	1.27863	4.0746	72.23	-0.2721	0.0036	0.2757	997.3177	0.138148	-421.79647	-421.790052	-421.789108	-421.827157	26.899	
O	 0.1108049168	 0.0306629083	 0.0969639615	-0.30781
C	-0.0324442457	 1.2078793065	-0.0071176049	 0.400361
C	-1.3757244471	 2.0048830844	-0.101629963	-0.436161
C	-0.8926137607	 3.3355718104	-0.6685834653	-0.004518
C	-0.684529969	 4.7749343808	-0.0692940194	-0.104928
C	-0.016268325	 4.1376631607	 1.1720711961	-0.282403
C	 0.5118532477	 3.3719387964	-0.07682786	 0.424128
C	 0.7471034016	 4.7341257535	-0.7640362101	-0.293657
O	 1.0563851832	 2.0778209435	-0.0467545735	-0.281059
H	-2.0696164232	 1.4546522968	-0.7380808145	 0.139557
H	-1.8088216743	 2.0407384873	 0.9017315132	 0.146143
H	-0.91727496	 3.3235806189	-1.7621034372	 0.084089
H	-1.3690064024	 5.6201429901	-0.0869720565	 0.09366
H	 0.7091272295	 4.7535919164	 1.7068824262	 0.103117
H	-0.6607610114	 3.595766546	 1.8649016795	 0.102482
H	 0.7592221526	 4.7392982468	-1.8557220756	 0.109786
H	 1.5022048773	 5.3973857932	-0.3367151564	 0.107213
