17
gdb 16541	3.1352	2.1836	1.52467	3.663	69.29	-0.2355	0.0331	0.2686	865.6111	0.143245	-363.871835	-363.864397	-363.863452	-363.903674	27.357	
C	-0.051998422	 1.3917209473	-0.1210897564	-0.349815
N	-0.035321912	-0.0295784321	 0.1169702338	-0.062212
C	-1.0963225149	-1.0348289988	 0.0692576862	 0.004116
C	-1.5464036277	-1.4463674846	-1.3633987002	-0.237344
C	-0.4121665509	-2.5147846235	-1.4110264527	-0.228258
C	 0.0278172349	-2.1215004736	 0.0349710131	-0.187106
C	 1.0074504703	-0.9324907513	 0.0458825804	 0.399805
O	 2.1984390588	-0.7741127546	-0.0357853502	-0.378326
H	 0.9856426433	 1.7313302496	-0.1676495192	 0.16138
H	-0.5456707581	 1.639192582	-1.0701543724	 0.124776
H	-0.5642908961	 1.9277253849	 0.6859361177	 0.128548
H	-1.8494310022	-0.948910655	 0.8549452955	 0.081401
H	-2.5478480699	-1.8827214454	-1.3866905873	 0.108766
H	-1.5004206537	-0.6483821024	-2.1086305503	 0.106159
H	-0.7902161728	-3.5366245561	-1.4766069242	 0.112022
H	 0.3561217987	-2.3833952464	-2.1756778841	 0.120356
H	 0.1556924342	-2.9020186898	 0.7819808005	 0.095732
