16
gdb 2489	4.94846	2.93586	2.5287	1.9165	63.35	-0.2318	0.0822	0.314	613.1706	0.137994	-288.576502	-288.570677	-288.569733	-288.605607	23.462	
C	-0.028467886	 1.5701123511	 0.0443189836	-0.510948
C	 0.0306506344	 0.0667620957	 0.0586616311	 0.300645
C	-1.2561408813	-0.8024407007	 0.1846230036	-0.277116
C	-0.3448102718	-1.8802764145	 0.7632837979	-0.02937
C	 0.692928878	-0.893564054	 1.1381803618	-0.096846
N	 0.9813064553	-1.8638285738	 0.0459748198	-0.146979
C	 0.849296177	-0.756074212	-0.9552979013	-0.177458
H	 0.9751579647	 2.0094324962	 0.0367205527	 0.1195
H	-0.5550447092	 1.9283988896	-0.8484354094	 0.121931
H	-0.5591004662	 1.9597364507	 0.9198160316	 0.119424
H	-1.9314542487	-0.4147418472	 0.9527864719	 0.102167
H	-1.8182957552	-1.0105025698	-0.7331180981	 0.091642
H	-0.6098658948	-2.8125620465	 1.2440592887	 0.096465
H	 1.3127636322	-0.7532308553	 2.014314851	 0.092697
H	 0.3760781754	-1.0316686104	-1.9063416115	 0.091451
H	 1.8450119862	-0.343518759	-1.1428262533	 0.102795
