20
gdb 40495	4.07036	1.22941	1.15961	1.8438	82.08	-0.2191	0.088	0.307	1138.8782	0.172788	-365.917088	-365.909707	-365.908763	-365.949193	29.938	
C	-0.285521885	 1.2463309342	-0.3540571842	-0.27643
C	 1.1041992057	 1.2055849752	 0.2238528642	-0.261054
C	 0.2801898734	-0.0623024866	 0.1469425243	-0.134918
C	-0.2047979563	-0.7357565717	 1.3761166155	 0.357862
C	 0.4497816836	-1.8940162062	 2.1193428876	-0.227773
N	-0.8648036527	-2.1680076433	 2.8219194634	-0.172794
C	-0.9942352607	-0.9259316295	 3.6835381222	-0.179942
C	-1.1560210396	-0.1004010858	 2.4193928498	-0.142561
C	-1.5411651291	-1.356861355	 1.691573578	-0.08471
H	-1.0633814217	 1.7330314647	 0.2227939706	 0.114353
H	-0.3940588988	 1.3661041367	-1.4263727648	 0.112902
H	 1.9490819724	 1.313000386	-0.4471516797	 0.112313
H	 1.2519023826	 1.6420951634	 1.2056472893	 0.114357
H	 0.5786248573	-0.7586478767	-0.6339105395	 0.08426
H	 0.6863984826	-2.7298240581	 1.4541265788	 0.102819
H	 1.2975661365	-1.7073921678	 2.7899069554	 0.09299
H	-1.9175524476	-0.9843129713	 4.2663367726	 0.107832
H	-0.1459018908	-0.7454117077	 4.3540897715	 0.0954
H	-1.5595356453	 0.8962365215	 2.2934019229	 0.088589
H	-2.3956861366	-1.666241152	 1.1066684421	 0.096506
