17
gdb 76995	2.79325	1.32935	0.99976	1.8251	75.8	-0.25	-0.0666	0.1834	1164.4111	0.134984	-421.87025	-421.861686	-421.860742	-421.904287	31.031	
C	-0.3207911623	 1.5379244073	 0.0461558941	-0.414102
C	 0.0773195067	 0.062019189	 0.0082986563	-0.124662
C	 0.8038967801	-0.4921584198	-1.251389313	-0.156976
C	 1.5920754972	 0.5793591476	-2.0051290497	 0.161202
O	 1.5029489652	 0.7832240224	-3.1854764951	-0.238916
C	 1.7859982959	-1.489566691	-0.6712108047	-0.077187
C	 1.9113726911	-1.3912380203	 0.6574076487	-0.173334
C	 0.9784808675	-0.3645643774	 1.1832777164	 0.379915
O	 0.9102774579	 0.0606427198	 2.3121756154	-0.331783
H	 0.5409663363	 2.2020583486	-0.0646878308	 0.126192
H	-1.0399407944	 1.7778988329	-0.7420473234	 0.125248
H	-0.776126179	 1.7576889257	 1.0148647219	 0.145824
H	-0.834106038	-0.5410863617	 0.1218045253	 0.12413
H	 0.1265402832	-0.9492861716	-1.9781281779	 0.105428
H	 2.2944345433	 1.1581996956	-1.3642222322	 0.090125
H	 2.3465959653	-2.1624802844	-1.3110409262	 0.131986
H	 2.580926754	-1.9551686327	 1.294012205	 0.12691
