17
gdb 8694	2.70647	1.63844	1.30781	2.7578	64.17	-0.2478	0.0227	0.2705	992.3687	0.142289	-397.171695	-397.162418	-397.161473	-397.205164	33.559	
N	-0.0705734266	 1.4576422092	-0.1607169191	-0.503014
C	-0.0324553144	 0.0142692281	-0.0078778043	-0.17192
C	 0.7827254699	-0.5239017104	 1.2036965671	 0.039529
N	 0.2158390687	 0.0344085785	 2.4376310984	-0.523056
C	 0.8209893936	-2.0756816131	 1.2034907358	-0.087191
O	 1.495317167	-2.5864139363	 2.3355167322	-0.419496
C	 2.1793110229	-0.0559740338	 1.0913914637	 0.288675
N	 3.2885777574	 0.2503473268	 0.9806924162	-0.344573
H	-0.2874030097	 1.8799199773	 0.7383217424	 0.243157
H	 0.8491399092	 1.8022703652	-0.4212080487	 0.242119
H	-1.0586121067	-0.3577863691	 0.117262647	 0.109057
H	 0.3570997115	-0.4332166156	-0.9278926979	 0.12141
H	-0.7582259527	-0.2558538667	 2.4970075294	 0.233638
H	 0.6852679997	-0.3956608885	 3.2311959553	 0.248314
H	-0.2101502434	-2.4401995121	 1.26707955	 0.114215
H	 1.2558302916	-2.4458867179	 0.2638796721	 0.108384
H	 2.439188242	-2.4278268115	 2.2175046306	 0.300751
