15
gdb 32192	2.70733	1.32909	0.89645	4.3673	69.88	-0.2395	-0.0536	0.1859	1205.9778	0.113085	-453.984853	-453.976521	-453.975577	-454.018544	29.121	
O	-0.0079998695	 1.4087853948	 0.0068841073	-0.405982
C	 0.0163283495	-0.0038068109	 0.0015867671	-0.190826
C	-1.4056762024	-0.4662075028	 0.0124122921	 0.29887
C	-2.5715795195	 0.2330708171	 0.0239998465	-0.148382
N	-3.6701456875	-0.6221606657	 0.0309855236	-0.267466
C	-3.179705264	-1.8233008481	 0.0236795624	 0.030711
N	-1.7882670151	-1.8140394567	 0.0120309215	-0.134891
C	-0.9716988358	-2.9434977162	 0.0020338324	 0.172963
O	-1.3882501895	-4.070691433	 0.0028069386	-0.277839
H	 0.8996552361	 1.7254179878	-0.0001205871	 0.297772
H	 0.5379608396	-0.3939987377	-0.8898936919	 0.10795
H	 0.5535690205	-0.4004085941	 0.8808767954	 0.107918
H	-2.6875075904	 1.3041643919	 0.027860103	 0.138883
H	-3.7220901959	-2.7551858092	 0.0257600662	 0.165261
H	 0.1024580136	-2.6884944872	-0.006076817	 0.105057
