22
gdb 104090	2.32985	1.40886	1.20473	1.8156	81.64	-0.243	0.0281	0.2712	1191.1932	0.193593	-404.381239	-404.371582	-404.370638	-404.41588	36.428	
C	 0.1684053885	 1.6194039127	 0.0961119405	-0.39886
C	 0.0788637882	 0.0924142435	-0.0072133135	-0.20947
C	 0.6461072098	-0.4999338924	-1.3020411659	 0.35386
C	-0.0282867438	 0.0475125938	-2.5600979787	-0.431968
O	 2.0639304441	-0.113367427	-1.3745779403	-0.254242
C	 2.7461452109	-1.2515634408	-1.6150052547	 0.104281
N	 2.1436255448	-2.3649223123	-1.6533495589	-0.27498
C	 0.7255932419	-2.0741073896	-1.3574014694	-0.017762
C	 0.2853870263	-2.8591887612	-0.120049695	-0.395712
H	 1.198383107	 1.9569530102	-0.0469888384	 0.135111
H	-0.4598664231	 2.1211776149	-0.6455391628	 0.117589
H	-0.1635047855	 1.9517445714	 1.0842655791	 0.11309
H	 0.61557206	-0.3511006868	 0.8372085286	 0.10579
H	-0.9661270285	-0.2260677294	 0.0871307299	 0.100514
H	 0.08969366	 1.1302183778	-2.6415657438	 0.127482
H	 0.4093583534	-0.4109559387	-3.4518310066	 0.127995
H	-1.0982073299	-0.1868257756	-2.5472015132	 0.117946
H	 3.8127471157	-1.1127250185	-1.7601222742	 0.133433
H	 0.1226292428	-2.4232709582	-2.204424096	 0.083349
H	 0.8829754516	-2.6004412554	 0.7583670183	 0.121956
H	-0.7701763692	-2.6877672553	 0.1120609079	 0.111149
H	 0.4252936648	-3.9261858934	-0.3115214726	 0.129451
