16
gdb 94345	2.96979	1.30806	1.07253	4.6177	70.27	-0.2741	-0.0098	0.2643	1124.3164	0.123116	-437.857385	-437.849022	-437.848078	-437.890585	30.933	
O	 0.5297280511	 0.7254594878	-0.6626608568	-0.426072
C	 0.2291950832	-0.3252035509	 0.1983577572	 0.089908
C	-0.0067909738	-0.0745739333	 1.7274583577	-0.261888
C	-1.231580165	-1.0412737914	 1.6736270238	-0.317
C	-1.2017260191	-0.8801470303	 0.1566670765	 0.385027
O	-2.1827167088	-0.0871390659	-0.5092538291	-0.270595
C	-1.9992089688	-1.448140068	-0.942208328	-0.223754
C	-1.4300390825	-1.6399380608	-2.2580330505	 0.313841
N	-0.987063809	-1.8290583793	-3.3084851744	-0.323935
H	-0.2990154565	 1.181808071	-0.858312655	 0.294806
H	 0.9731299437	-1.1134223502	 0.042047796	 0.109229
H	 0.8099107055	-0.331822739	 2.4029028571	 0.113885
H	-0.3141394329	 0.958929044	 1.9040366481	 0.119332
H	-0.98892938	-2.0594032717	 1.9883435872	 0.123929
H	-2.1522959245	-0.7202839703	 2.1631810103	 0.129584
H	-2.8302981126	-2.1113331817	-0.7101522001	 0.143703
