21
gdb 40081	3.74236	1.24441	1.05256	0.3908	91.24	-0.2152	0.0213	0.2365	1213.1905	0.184181	-349.926262	-349.918462	-349.917518	-349.958401	31.664	
C	-0.0978715476	 1.4864748702	-0.1174715794	-0.33044
C	 1.2700076269	 0.8550746413	-0.0230025975	-0.315372
C	 0.028086049	-0.0034105478	-0.0023651333	 0.262362
C	-0.3884212318	-0.9604839482	 1.151422091	-0.339686
C	-0.3273901165	-2.1419527738	 0.113063066	-0.026386
C	-1.4729178229	-3.0818942447	-0.3046435629	-0.243145
C	-1.5627798866	-2.856133779	-1.8519911837	-0.233043
C	-1.0686240865	-1.4189486371	-2.0251448884	-0.259729
C	-0.3481953942	-1.0829333019	-0.9594191751	 0.275929
H	-0.470365511	 2.0281056246	 0.746310153	 0.113606
H	-0.4102077208	 1.8982106272	-1.0715768889	 0.115452
H	 1.8890060429	 0.8329026765	-0.9133012112	 0.117824
H	 1.8204902203	 0.9642209414	 0.9060713276	 0.112989
H	 0.2833979158	-1.0189783241	 2.0121603661	 0.096875
H	-1.4086421655	-0.7657837589	 1.496257004	 0.103667
H	 0.6338157236	-2.6645627837	 0.1918075302	 0.073947
H	-1.3145196356	-4.1305240234	-0.0356271341	 0.090137
H	-2.4128335094	-2.7580881155	 0.157470355	 0.098577
H	-0.93769225	-3.5789378145	-2.3966347343	 0.101416
H	-2.5827133163	-2.9874919085	-2.2299620784	 0.098789
H	-1.3605399937	-0.7877879302	-2.8563942557	 0.086231
