17
gdb 41254	2.99632	2.12929	1.71718	2.9957	70.59	-0.245	0.0544	0.2994	833.4011	0.138381	-421.727036	-421.721123	-421.720179	-421.756992	25.35	
C	 0.0870869081	 1.5099332214	-0.1361711046	-0.206893
O	 1.4863303223	 1.389813534	 0.2675698592	-0.304808
C	 1.2353567968	 0.0526814168	 0.7545629783	 0.167294
C	 1.8416334623	-1.2219118946	 0.1550261966	-0.008791
O	 1.8944530252	-0.9339464233	-1.2601737158	-0.268687
C	 0.4718742265	-0.9743155002	-1.193954081	 0.089306
C	 0.4295303081	-1.9954771249	-0.0447366529	-0.086169
C	-0.7817455375	-1.2233656087	 0.5796171543	-0.348368
C	-0.060747511	-0.0125335977	-0.0403381921	 0.193429
H	-0.4910870401	 2.0922532037	 0.5931033722	 0.105069
H	-0.0112683965	 1.9553123229	-1.1314858704	 0.113246
H	 1.1488094191	 0.0265465456	 1.8473917512	 0.075164
H	 2.7437495348	-1.6894112742	 0.5465542668	 0.084772
H	-0.054869328	-1.0311879298	-2.1457865627	 0.089226
H	 0.4532406693	-3.0738004484	-0.1897822354	 0.08897
H	-1.7001995868	-1.5388660247	 0.0749592026	 0.108504
H	-0.9356479225	-1.2154807278	 1.6610074438	 0.108736
