20
gdb 109225	4.55105	0.91097	0.8207	1.1282	81.77	-0.2272	0.0333	0.2604	1426.8129	0.171176	-403.128196	-403.119293	-403.118349	-403.162411	33.402	
O	 0.0012077864	 1.4166701799	 0.1078708385	-0.414555
C	-0.0162588069	 0.0052688	-0.0072718615	-0.176777
C	-1.4257414432	-0.4865480885	-0.0468704815	 0.313218
C	-2.5337313301	 0.2546392247	-0.0030919023	-0.157695
C	-3.7877057666	-0.5810330719	-0.0427257365	-0.348822
C	-3.2545477339	-1.9942880958	-0.3257084217	 0.342464
C	-4.0809794742	-3.2060014193	-0.1268113616	-0.292398
N	-3.7350349425	-2.7572409365	-1.4906797715	-0.345784
C	-1.735160855	-1.9646951318	-0.1187842284	-0.373491
H	 0.9178192387	 1.7054635143	 0.1000836069	 0.289211
H	 0.5077248632	-0.3305988264	-0.9201561801	 0.09673
H	 0.5102097374	-0.4737705558	 0.8383863502	 0.092671
H	-2.5429234789	 1.334128308	 0.0738448941	 0.106403
H	-4.3344040629	-0.5319280321	 0.910091704	 0.109432
H	-4.494264893	-0.2507568034	-0.8169657173	 0.100361
H	-3.6176994295	-4.1418881139	 0.1767533503	 0.11143
H	-5.1028332703	-3.0774872827	 0.2235265588	 0.105269
H	-4.5354224726	-2.2859911064	-1.9071443863	 0.22343
H	-1.2264333583	-2.478229176	-0.943236857	 0.1163
H	-1.4365972979	-2.4771024262	 0.8075196829	 0.102603
