17
gdb 1091	4.45348	1.59897	1.58665	3.4854	60.84	-0.2411	-0.0169	0.2242	867.4989	0.144446	-346.871133	-346.862389	-346.861444	-346.904195	31.146	
C	-0.0300036192	 1.5753614788	 0.1540147248	-0.414188
C	 0.0218529182	 0.0443913137	 0.0448387135	 0.325732
C	 0.7201158279	-0.5648548864	 1.2675602579	-0.409554
O	-1.3035337915	-0.4882459468	-0.0737763689	-0.458937
C	 0.7378823448	-0.397872747	-1.248229242	-0.270244
C	 0.083835373	 0.122759731	-2.5108161637	 0.148539
O	 0.6745616254	 0.6904944239	-3.3955501887	-0.250143
H	 0.9760718821	 2.0051268674	 0.1840470874	 0.125397
H	-0.5633380589	 2.0109760291	-0.6956334823	 0.132489
H	-0.5478956814	 1.8763618757	 1.0721847981	 0.106575
H	 0.1978127063	-0.2774988964	 2.1876748622	 0.105509
H	 0.7190952515	-1.6563635354	 1.2017308584	 0.123948
H	 1.755469225	-0.2194985562	 1.3508728515	 0.119248
H	-1.8139762177	-0.1854481451	 0.6846820248	 0.279139
H	 1.7858916594	-0.0876459166	-1.2422818156	 0.115161
H	 0.6987041994	-1.4949670528	-1.2898735624	 0.124652
H	-1.0077051944	-0.068386717	-2.5747691649	 0.096676
