23
gdb 64359	1.82985	1.80463	1.44491	2.2535	79.92	-0.252	0.0587	0.3106	1100.0354	0.204521	-425.45222	-425.442245	-425.441301	-425.486121	39.225	
C	 0.4717895684	 1.4440539501	-0.3650749388	-0.436441
C	 0.0063332083	 0.0435297469	 0.0439048065	 0.329903
O	-1.3773903203	 0.0952264304	 0.4169806919	-0.499658
C	 0.3023636056	-1.0034391189	-1.049091496	-0.257532
C	 1.773582889	-1.4228271886	-0.8141433347	-0.214449
C	 2.0887676343	-1.0521369635	 0.6641790136	-0.234197
C	 0.7686156477	-0.5468054916	 1.2702801503	 0.407313
C	 0.9314005736	 0.4093652436	 2.4514996	-0.459098
O	 0.0561233615	-1.7101594155	 1.6980877124	-0.492207
H	 1.543765094	 1.4706586137	-0.5841368295	 0.120156
H	-0.0559550471	 1.7613313393	-1.271926807	 0.10417
H	 0.2581983667	 2.1720636111	 0.4206181258	 0.127672
H	-1.906135347	 0.1819406288	-0.3819655786	 0.282202
H	-0.3630889245	-1.8552863358	-0.8895681424	 0.108141
H	 0.1252855452	-0.6153813815	-2.0577135327	 0.080365
H	 1.913524143	-2.4887175118	-1.0068748635	 0.106591
H	 2.4449028816	-0.8914684908	-1.4952724761	 0.096904
H	 2.4442512	-1.905125368	 1.2464104325	 0.112124
H	 2.8577042965	-0.2760934876	 0.7204995516	 0.092466
H	 1.5569223867	 1.2728264297	 2.2068624382	 0.106365
H	-0.0469261812	 0.7751234291	 2.7802351222	 0.119244
H	 1.3920867925	-0.1238170803	 3.2878261448	 0.119331
H	-0.8789311545	-1.4672222588	 1.6628737096	 0.280635
