21
gdb 38714	2.5414	1.99566	1.56892	1.1658	81.13	-0.2377	0.0842	0.3219	950.791	0.186637	-387.071127	-387.064267	-387.063323	-387.101804	29.563	
C	-0.0056721577	 1.5057960323	 0.0527457493	-0.392576
C	 1.342323745	 0.8241419713	-0.0369286039	-0.005105
C	 2.2243856538	 0.2361553067	 1.0726048069	-0.251239
C	 1.5592543914	-1.1488927556	 1.3015493111	-0.012271
C	 0.0779683385	-0.7431643616	 1.3048226623	-0.271481
C	 0.0574391765	 0.0069780048	-0.0329445643	 0.302846
C	 0.0070674143	-0.9726780903	-1.1759685018	-0.166116
O	 1.245046349	-1.7047436476	-1.1558639643	-0.26311
C	 1.7128685503	-2.1463353333	 0.1200338888	-0.063863
H	-0.3616075127	 1.920123407	 0.9924280236	 0.109156
H	-0.2940692725	 2.088726939	-0.8178410113	 0.111555
H	 1.8263287464	 0.9319535001	-1.0015794088	 0.093825
H	 3.2650805923	 0.1651070088	 0.7429208552	 0.098271
H	 2.2176656856	 0.8160939505	 2.0036675528	 0.094403
H	 1.9059305731	-1.6537345505	 2.2117729842	 0.056137
H	-0.6107058393	-1.593702027	 1.3181727332	 0.091923
H	-0.1682503774	-0.0962347526	 2.1529291248	 0.089593
H	-0.8469575577	-1.6639458839	-1.0987809791	 0.086011
H	-0.029239584	-0.4889141538	-2.1570145452	 0.104193
H	 2.7650711615	-2.4035614326	-0.0429182324	 0.103231
H	 1.1865547639	-3.0714481417	 0.4113715489	 0.084619
