25
gdb 76635	2.67945	1.05264	0.88728	0.1521	93.54	-0.2514	0.0795	0.3309	1470.2354	0.228945	-352.338622	-352.328518	-352.327574	-352.3741	37.982	
C	-0.4364691019	 0.919911593	-1.6249791588	-0.406416
C	 0.0058139681	-0.2629736614	-0.7881422382	-0.031756
C	 1.461219515	-0.604210808	-0.5396419691	-0.031742
C	 2.6101389234	 0.205582197	-1.1047713435	-0.406413
C	 0.5899418442	-0.1201658548	 0.6073584107	-0.047236
C	 0.7839081312	 1.2058240663	 1.292612501	 0.059105
C	-0.3648353886	 1.7619799241	 2.1880145385	-0.230603
C	 0.7083769707	 2.260735962	 3.1920491971	-0.210288
C	 1.7152238887	 1.2753314514	 2.5410001785	-0.230557
H	 0.2064682905	 1.7941089828	-1.5000675037	 0.114937
H	-0.4355018982	 0.664705343	-2.6908382797	 0.113486
H	-1.455225177	 1.224873074	-1.3605156184	 0.116218
H	-0.6433069806	-1.1265896664	-0.9155475616	 0.076456
H	 1.6761677582	-1.6704260607	-0.519523136	 0.076452
H	 2.4067941407	 1.2786813098	-1.1222182316	 0.114936
H	 3.5199255226	 0.0565407781	-0.5124246051	 0.116218
H	 2.8332157302	-0.1003313427	-2.1332882416	 0.113488
H	 0.2879763807	-0.8988186857	 1.3068505626	 0.068146
H	 1.0856594003	 1.9799652507	 0.5815075381	 0.060355
H	-1.0451308048	 2.4965045203	 1.7491091324	 0.091702
H	-0.9617412133	 0.9464820681	 2.6101123739	 0.095133
H	 0.9839225305	 3.3029940676	 3.0052293192	 0.098464
H	 0.5004675679	 2.1455870378	 4.2584619652	 0.093084
H	 1.7357206527	 0.3153912301	 3.067870216	 0.095132
H	 2.7453025388	 1.6096928338	 2.3923165142	 0.0917
