22
gdb 101947	2.0075	1.38676	0.89214	1.5383	82.57	-0.2432	0.068	0.3112	1363.7431	0.193394	-404.289823	-404.280028	-404.279084	-404.325114	35.796	
C	-0.8306585828	-0.0631503081	 0.6772830611	-0.235587
O	 0.0926320771	-0.9641304932	 0.1076792828	-0.242662
C	 0.636535707	-0.5607743883	-1.141122805	 0.065713
C	 1.7730855896	-1.5094865764	-1.4461810188	 0.0352
C	 2.9958758294	-1.0288558548	-2.1880444842	-0.270109
C	 3.0835222895	-1.3697758908	-0.7218333283	-0.271705
C	-0.4145648935	-0.5726580418	-2.2402737536	 0.009192
C	-1.1375438322	 0.6639557697	-2.6319894048	-0.250686
N	-0.1378767029	 0.0694774661	-3.533984947	-0.31711
H	-0.4033090701	 0.9479632458	 0.7746133878	 0.097479
H	-1.7613658866	 0.0122157846	 0.0992988998	 0.1138
H	-1.0666638471	-0.4401231103	 1.6756676491	 0.126013
H	 1.0394444373	 0.467333996	-1.0545786501	 0.046719
H	 1.4451700895	-2.5224964394	-1.6620791153	 0.090447
H	 3.4519503327	-1.6975365119	-2.9090962929	 0.116482
H	 3.0531795486	 0.0193014802	-2.4641963055	 0.103508
H	 3.1823332639	-0.5526829126	-0.0149962818	 0.11331
H	 3.6060644193	-2.2734301133	-0.4296264313	 0.114217
H	-0.933936185	-1.5256406465	-2.3290886008	 0.09711
H	-2.1634968091	 0.6089290956	-2.9852312543	 0.119723
H	-0.8875411566	 1.586324278	-2.1124048789	 0.108754
H	 0.733791552	 0.5915229813	-3.476228208	 0.230194
