15
gdb 29432	3.70213	1.06516	0.82717	4.172	73.21	-0.1802	0.0046	0.1849	1290.2907	0.112799	-453.992387	-453.983639	-453.982695	-454.026438	31.56	
O	 0.0987663839	 1.410896696	-0.2414965754	-0.450953
C	 0.0652964721	 0.0544972943	-0.1076423138	 0.355321
C	 0.0089857864	-0.8205750792	-1.1633431082	-0.185683
N	-0.007305594	-2.0998592045	-0.6201402661	-0.344551
C	 0.0355915595	-2.0190261901	 0.7435546423	 0.455373
N	 0.0271544908	-3.1845851205	 1.5150112484	-0.411607
C	 0.0633713646	-3.2406017482	 2.8819889068	 0.14378
O	 0.1061252675	-2.2859270609	 3.6250661513	-0.303695
C	 0.0824162238	-0.6898207169	 1.1077864599	-0.389856
H	 0.1350388576	 1.7994897951	 0.6370868493	 0.29879
H	-0.0185681914	-0.6551090877	-2.2256111631	 0.120534
H	-0.0546868109	-2.9457169409	-1.1589787055	 0.255551
H	-0.0032452783	-4.0671143195	 1.0281372351	 0.248338
H	 0.0481711622	-4.2897325736	 3.2347649385	 0.080796
H	 0.1239903363	-0.3216917333	 2.1180714604	 0.127863
