18
gdb 76374	2.61081	1.20026	1.12197	2.244	69.16	-0.236	0.0318	0.2678	1174.418	0.145296	-476.234089	-476.224009	-476.223065	-476.268833	36.899	
C	 0.0599471324	 1.5481997925	-0.1385661559	-0.494398
C	 0.0363587673	 0.0367013608	-0.0688892647	 0.102919
C	 1.374472837	-0.738412619	-0.2007600491	 0.081016
O	 2.557066683	-0.0279033934	-0.3408448384	-0.433306
C	 0.6738509093	-0.6780813148	 1.1168866156	 0.010573
O	 1.2665229188	 0.1575649987	 2.0813204151	-0.438947
C	-1.1237584727	-0.7247869732	-0.6379310334	 0.37739
N	-2.0739077928	 0.0060076805	-1.2911803672	-0.55086
O	-1.2125273226	-1.939056959	-0.5222466665	-0.388724
H	 0.9450758461	 1.9511169589	 0.3530473675	 0.134644
H	 0.0848835538	 1.8959779522	-1.1778480591	 0.120644
H	-0.8146488492	 1.9833440225	 0.356753316	 0.124303
H	 1.3403789294	-1.6547209508	-0.7793743431	 0.125721
H	 2.7365012767	 0.3676019441	 0.5243024536	 0.286676
H	 0.1480777032	-1.5519659556	 1.4894450142	 0.122869
H	 1.7382822374	-0.4074853816	 2.7024348106	 0.30103
H	-1.9547823019	 0.9805335888	-1.5007152883	 0.258987
H	-2.8012472551	-0.5041834815	-1.7648035668	 0.259463
