15
gdb 124194	4.65861	0.78478	0.70504	4.0767	74.42	-0.2639	-0.0438	0.2201	1558.3276	0.111415	-416.746047	-416.73729	-416.736346	-416.782422	29.539	
C	 0.1101598104	 1.402467974	-0.550851426	-0.496903
C	 0.0156171661	 0.0153231821	-0.1191969702	 0.071003
C	-0.0582909139	-1.1278002387	 0.2493969973	 0.055154
C	-0.157180574	-2.5196109573	 0.6806657831	-0.459974
C	-1.433335694	-3.1805758223	 0.2356826948	 0.344757
N	-2.1104080398	-3.983475623	 1.0113635175	-0.147142
O	-3.1793259509	-4.4087307284	 0.2721456892	-0.148367
N	-3.1690878039	-3.8582052074	-0.9782172846	-0.061223
C	-2.1079393105	-3.1034198617	-1.0169359063	-0.092419
H	 0.7937341595	 1.510696514	-1.3998272588	 0.151397
H	-0.8675776972	 1.7884737804	-0.8586930729	 0.153834
H	 0.4794381764	 2.0426879524	 0.2575133271	 0.154808
H	 0.6938453645	-3.0908623094	 0.2844866712	 0.155778
H	-0.0941317706	-2.5982871089	 1.771296413	 0.164
H	-1.854639452	-2.5328514957	-1.8962765643	 0.155299
