15
gdb 7751	3.42373	1.97776	1.31712	2.0808	63.22	-0.2702	-0.0205	0.2497	903.8771	0.119217	-399.860619	-399.853339	-399.852395	-399.892283	26.633	
C	 0.0557449389	 1.4594127041	-0.0542720407	-0.454675
C	-0.1463881487	-0.0195916783	 0.0239558876	 0.401859
N	-1.2304741547	-0.5977163858	-0.2614824215	-0.275384
C	-1.2794708342	-2.0462141458	-0.1236323798	-0.175538
C	 0.0836402071	-2.6973412638	-0.385742518	-0.352135
C	 1.1606328863	-2.0062350985	 0.4133246637	 0.41888
O	 2.1058749213	-2.5165524405	 0.9349742259	-0.300756
O	 1.0125622269	-0.6364409837	 0.4948203547	-0.24586
H	 0.874963497	 1.6940167816	-0.741473429	 0.146329
H	-0.8626419742	 1.9353800985	-0.3951778895	 0.150814
H	 0.3365828986	 1.8530646538	 0.9277122897	 0.15053
H	-1.6351118019	-2.2910569854	 0.8871525433	 0.127674
H	-2.0267045999	-2.4396294128	-0.8183732571	 0.123996
H	 0.10412765	-3.7621643387	-0.1485610599	 0.140281
H	 0.3408853674	-2.5838392648	-1.4470378796	 0.143985
