14
gdb 7066	6.84158	0.91971	0.857	4.9218	62.83	-0.3101	-0.0045	0.3056	1246.1029	0.105973	-378.744404	-378.735836	-378.734892	-378.778189	29.289	
O	-0.1730787743	 1.3973599943	 0.0112691459	-0.40109
C	-0.0261312693	 0.0003140862	 0.0023316251	 0.135108
C	 0.6918122725	-0.5066690254	-1.2702080556	-0.377141
C	 0.0207994385	-0.0805086456	-2.4950310754	 0.275542
N	-0.5086568904	 0.245175589	-3.4682363803	-0.28948
C	 0.7159370485	-0.5202858014	 1.255386031	-0.377138
C	 0.0684801026	-0.1074319557	 2.4973251952	 0.275542
N	-0.442262748	 0.2076787017	 3.4839202602	-0.28948
H	 0.6970203921	 1.813551599	 0.005160709	 0.291188
H	-1.0474030805	-0.3923773816	 0.0099701028	 0.139464
H	 1.7248437116	-0.1349576658	-1.2854899966	 0.148507
H	 0.7495706066	-1.6011878685	-1.2613842188	 0.160236
H	 0.7734092863	-1.6146395966	 1.2336572007	 0.160235
H	 1.7491072638	-0.1486469596	 1.2549428068	 0.148507
