23
gdb 100464	3.65226	0.59166	0.56652	1.8293	92.73	-0.247	0.0395	0.2865	2127.5489	0.202469	-388.275163	-388.263392	-388.262448	-388.314399	41.477	
C	 0.0133544654	 1.5852967689	 0.0064786429	-0.385759
C	-0.0056240595	 0.0580341296	 0.0824544046	-0.168052
C	-1.4300244269	-0.5209315088	-0.0348595964	-0.047158
O	-2.0695886793	-0.1092746666	-1.2451068388	-0.4177
C	-1.429455389	-1.9799166971	 0.1056686379	-0.023842
C	-1.3999749277	-3.1830204031	 0.1817455657	 0.151379
C	-1.3890039814	-4.644032706	 0.2701546512	-0.127811
C	-2.8189779851	-5.2057025332	 0.3979736313	-0.372686
C	-0.6458256359	-5.2674131127	-0.9283346746	-0.374293
H	 1.0376444008	 1.9678982962	 0.0416541035	 0.108365
H	-0.4542343623	 1.9292905426	-0.9194055001	 0.131283
H	-0.5380230304	 2.0288433013	 0.8432337758	 0.11339
H	 0.6068060926	-0.3742946915	-0.7193818445	 0.093437
H	 0.4305512915	-0.2894374212	 1.0262146823	 0.104497
H	-2.047374125	-0.0816817985	 0.7600158508	 0.110038
H	-1.6960451894	-0.6411500695	-1.9565933148	 0.280555
H	-0.8389157595	-4.9167898687	 1.1819271716	 0.105976
H	-3.3316555306	-4.7820931374	 1.2653501843	 0.12486
H	-3.4075989852	-4.9662260962	-0.4929770368	 0.124705
H	-2.7905415713	-6.2944667281	 0.5088954011	 0.111477
H	 0.3771631649	-4.8884432125	-0.9981328221	 0.122264
H	-0.6057114956	-6.3564279903	-0.824920079	 0.113088
H	-1.160182841	-5.0315143875	-1.8652456259	 0.121989
