17
gdb 87087	3.83136	0.7112	0.66432	4.1278	84.32	-0.2584	-0.0553	0.2031	1678.4276	0.132553	-421.788494	-421.7785	-421.777555	-421.824251	34.8	
C	-0.0661195258	 1.5681238241	-0.0428845895	-0.458923
C	-0.019210393	 0.0478652673	-0.009697503	 0.10049
C	 1.3363687481	-0.6496597127	-0.2129098896	-0.3529
C	 0.7075222798	-0.6437423689	 1.1446468103	 0.089756
O	 1.203143042	 0.1932164162	 2.1409772476	-0.418506
C	-1.1676217023	-0.6323457492	-0.5244051664	 0.044415
C	-2.1372046626	-1.2136048023	-0.9582122782	 0.060508
C	-3.2993930116	-1.8741230825	-1.480337435	 0.010817
O	-3.4452084855	-3.0757103921	-1.5365311555	-0.238904
H	 0.8077119599	 1.9836754412	 0.4605893007	 0.135609
H	-0.0907649177	 1.9293310585	-1.0750173977	 0.127053
H	-0.9592632016	 1.9360857473	 0.4699589382	 0.133911
H	 1.356129207	-1.572265573	-0.7802537803	 0.136229
H	 2.1767472196	 0.0179244999	-0.3718515405	 0.126342
H	 0.2597844987	-1.5705651753	 1.4986826818	 0.113862
H	 2.0657242494	-0.1399057725	 2.4103730314	 0.295882
H	-4.0863407245	-1.181140366	-1.8435324143	 0.09436
