17
gdb 2544	2.7865	2.22668	1.34132	1.9328	61.68	-0.2436	-0.0301	0.2135	919.2043	0.145213	-346.855622	-346.846859	-346.845914	-346.889275	29.611	
C	-0.2505119706	 1.4740386585	-0.1074732491	-0.388922
C	-0.0019017118	-0.0356252565	-0.1372286731	-0.193876
C	 0.9277696376	-0.4593563636	-1.2838827799	 0.048207
O	 2.181877674	 0.1626419977	-1.0931714611	-0.240481
C	 3.0045128163	 0.1453422076	-2.242117431	-0.242675
C	 1.0766574917	-1.9788204705	-1.2705167584	 0.133573
O	 0.2958686703	-2.7450192942	-1.7706650568	-0.245049
H	 0.6914457028	 2.0181953399	-0.0075363092	 0.136224
H	-0.7411771072	 1.810562525	-1.0272670475	 0.115288
H	-0.8953446298	 1.743219289	 0.7342114281	 0.116298
H	 0.4459802353	-0.3614613644	 0.8096827456	 0.109407
H	-0.9431870986	-0.5831952423	-0.2538489553	 0.119787
H	 0.4798258947	-0.1642046904	-2.2465470341	 0.086481
H	 3.2363184977	-0.8778160011	-2.574769103	 0.113108
H	 2.5349417484	 0.6800638223	-3.0813547652	 0.114007
H	 3.93813365	 0.6467682158	-1.9776918278	 0.133829
H	 1.9756307592	-2.3262452628	-0.7083912222	 0.084794
