16
gdb 70225	3.65092	1.33195	1.13475	5.2855	64.94	-0.2568	0.043	0.2998	1055.567	0.125355	-475.044965	-475.037283	-475.036339	-475.076995	29.819	
O	-0.0031973788	 1.390210406	-0.433346988	-0.459977
C	-0.0288970488	 0.0581317944	-0.0192693037	 0.346585
C	-0.4888660741	-1.0194107911	-0.9826019448	-0.384656
C	-1.3711555814	-0.5602891103	 0.1575059758	 0.087577
O	-1.6444354408	-1.3921761351	 1.2609118515	-0.23751
C	-0.6393729353	-1.9833078543	 1.9636465792	 0.454326
O	-0.88898916	-2.8358309821	 2.7759282546	-0.381516
N	 0.6385395118	-1.5750498599	 1.6534986103	-0.374993
C	 0.9797274086	-0.2930953756	 1.0553956022	-0.232975
H	 0.7101448269	 1.4929041004	-1.0737121767	 0.288687
H	-0.7847411753	-0.70435688	-1.9769558274	 0.126651
H	-0.0274201957	-1.9981250948	-0.9149010871	 0.139063
H	-2.2469828159	 0.0307034043	-0.0788367869	 0.130367
H	 1.3205937742	-1.9953976735	 2.2658807378	 0.261463
H	 1.9929927292	-0.3626902404	 0.6403401073	 0.110858
H	 0.9774488955	 0.5260145618	 1.7895720857	 0.12605
