17
gdb 85388	1.93274	1.91646	1.02725	3.8813	72.27	-0.2731	0.003	0.276	1143.4336	0.136468	-455.180326	-455.172159	-455.171215	-455.213243	30.817	
C	-0.1538286608	 1.4242321609	 0.0110179307	-0.405515
C	-0.0723955064	-0.0828874973	 0.0022205804	 0.196717
O	 0.6115992944	-0.486480816	-1.1759543045	-0.244754
C	 0.93400425	-1.8174659183	-1.2626786711	 0.400644
N	 1.4587168343	-2.3261334894	-2.2900442251	-0.507272
C	 0.6319226862	-2.6148084568	-0.0172817695	-0.386744
C	 0.9547485931	-1.8309058316	 1.2314386037	 0.400644
N	 1.4964248522	-2.3505691461	 2.2443959961	-0.507272
O	 0.6310750526	-0.499089834	 1.1644322557	-0.244754
H	 0.854090222	 1.8452865984	 0.004868474	 0.147339
H	-0.6933594263	 1.7705325282	-0.8730238486	 0.139306
H	-0.678488808	 1.7609387272	 0.9076268676	 0.139307
H	-1.0722352782	-0.5409881592	 0.0080720593	 0.096209
H	 1.5686222622	-1.6215314923	-3.0220718724	 0.226143
H	-0.4402854003	-2.8591962939	-0.0096801669	 0.150766
H	 1.1833671036	-3.5515003416	-0.0269159613	 0.173095
H	 1.6185556695	-1.6538859882	 2.9820438717	 0.226143
