13
gdb 5042	3.71909	2.25838	1.53667	2.6138	69.81	-0.2495	-0.0888	0.1607	784.0967	0.098058	-357.652066	-357.645825	-357.644881	-357.682524	23.412	
N	-0.0964922709	 1.1632754463	-0.5810378509	-0.496339
C	-0.0293690711	 0.0216706387	-0.0186120069	 0.296328
C	-1.2844540859	-0.6734464606	 0.3339425103	-0.068631
C	-1.4859331961	-1.9938789391	 0.1651300727	-0.089792
C	-0.5064869943	-2.9168283901	-0.3792405761	 0.023847
N	 0.7803390752	-2.8446799317	-0.3638446652	-0.229619
C	 1.4516871252	-1.807764629	 0.2693299473	 0.072393
N	 1.1690561471	-0.5680181928	 0.4122753456	-0.251469
H	 0.8492997506	 1.5246891875	-0.7310460413	 0.225261
H	-2.0972437562	-0.0368048512	 0.6715968088	 0.140491
H	-2.4747985445	-2.4052726029	 0.3496755694	 0.118342
H	-0.9195847934	-3.8118861088	-0.8517736706	 0.127752
H	 2.4171270442	-2.1310591463	 0.6622053268	 0.131435
