13
gdb 179	5.71908	2.66918	1.86162	1.9975	49.13	-0.2502	0.0066	0.2567	639.6693	0.105605	-323.58568	-323.578268	-323.577324	-323.617025	25.106	
C	 0.0074652669	 1.475034976	 0.0248043158	-0.476834
C	-0.0093367433	-0.0252713037	 0.0180519802	 0.337879
C	-0.1158756045	-0.7722377111	 1.3254243143	-0.105109
O	-0.1215931722	-2.1668657188	 1.1876235882	-0.423104
N	 0.0604624556	-0.7537397741	-1.0258063938	-0.17604
O	 0.1572862465	-0.0033631349	-2.2028993036	-0.403579
H	 0.9272477605	 1.847957932	-0.4367554712	 0.153849
H	-0.8240888524	 1.8681023791	-0.5685958517	 0.153854
H	-0.0645433104	 1.8675182614	 1.041744329	 0.126098
H	 0.7223783799	-0.4530863801	 1.9687900854	 0.106856
H	-1.0330921542	-0.4328936302	 1.8372845724	 0.106855
H	-0.0524983499	-2.3405444255	 0.2383465967	 0.29053
H	 0.2002809876	-0.6848751403	-2.8821158418	 0.308744
