16
gdb 49676	2.26513	1.88075	1.61239	4.519	69.61	-0.2509	-0.0546	0.1963	918.1797	0.124472	-437.900672	-437.893101	-437.892157	-437.932831	28.386	
O	-0.3933748318	 0.4842277046	 0.5571140426	-0.261967
C	 0.1085924734	 1.2161878115	-0.2633173488	 0.14689
C	 1.3357456483	 2.0248906301	-0.0430396154	-0.112909
C	 1.4813967145	 2.823536834	 1.2389725076	-0.042453
C	 0.5767052616	 2.5683110098	 2.4510988654	-0.251765
C	 1.1298945617	 1.2601754265	 3.0494944497	-0.304106
C	 1.9742502416	 0.6350268208	 1.9365021438	 0.402982
O	 2.3715555219	-0.4884055162	 1.851652023	-0.305612
N	 2.3321116978	 1.6764682389	 0.9890899731	-0.133285
H	-0.3494631282	 1.3567956926	-1.2653188986	 0.100229
H	 1.7703372969	 2.4390486551	-0.9501734195	 0.1135
H	 1.9524797992	 3.7979117396	 1.1412340649	 0.113248
H	 0.6492423868	 3.409063353	 3.1436690094	 0.114878
H	-0.4726619826	 2.4622394542	 2.1681231793	 0.134458
H	 1.7834719137	 1.4547429833	 3.9076437337	 0.133638
H	 0.368083265	 0.5480905622	 3.3648570997	 0.152274
