17
gdb 34848	2.64786	1.64799	1.50756	3.1597	76.06	-0.2464	-0.003	0.2434	952.8092	0.139254	-380.860889	-380.853866	-380.852921	-380.892214	28.099	
N	-0.1566173617	-1.2133859137	-0.2392391842	-0.33762
C	-0.0763532803	-0.0645811629	-0.1325257281	 0.281535
C	 0.0073723395	 1.3788674058	 0.0154715917	-0.159062
C	-0.1363638337	 2.0663212544	 1.415748805	-0.031987
C	 0.5916304125	 1.28155092	 2.5146669214	-0.247018
C	 1.9871529509	 0.9294372557	 2.0494051612	-0.047557
C	 2.3836432965	 1.3271136492	 0.8420324031	-0.033769
C	 1.3890723626	 2.1250085706	 0.0284575199	-0.073068
N	 0.7858724289	 3.1613211716	 0.9489654659	-0.311263
H	-0.6744004241	 1.8544609493	-0.6954699225	 0.120163
H	-1.1356433356	 2.3831611304	 1.7205565892	 0.084004
H	 0.6329735604	 1.8966673761	 3.4222181058	 0.123933
H	 0.0307275222	 0.3737887007	 2.7718508142	 0.126922
H	 2.6265698959	 0.3524879239	 2.7098455326	 0.102583
H	 3.3590259856	 1.0966142939	 0.4299321949	 0.100975
H	 1.7814605029	 2.4968160902	-0.9180824324	 0.082338
H	 0.2329944675	 3.7974797347	 0.3737827823	 0.218891
