23
gdb 81348	2.347	1.42155	1.29141	1.5644	84.17	-0.2418	0.0725	0.3143	1158.9756	0.206756	-388.279269	-388.270361	-388.269416	-388.312008	35.841	
C	-0.1500878833	 1.5553719869	-0.0781790685	-0.414259
C	 0.0736502115	 0.042488919	-0.0454789459	 0.018328
C	 0.9589803166	-0.5069636431	-1.1862253749	-0.059152
C	 1.1960458173	-1.9753324835	-0.7225249751	-0.282068
C	 1.9998648083	-1.2765917377	 0.4145641066	-0.059169
C	 2.4000549587	-0.2124948284	-0.6578655507	 0.190491
O	 3.4813687621	-0.5174438322	-1.507575175	-0.460156
C	 0.8779285275	-0.5522085582	 1.1914434694	 0.018329
C	 1.366198276	 0.4341920158	 2.2537760367	-0.414262
H	 0.7849359096	 2.1230122803	-0.0723351922	 0.118599
H	-0.6971697071	 1.8355171155	-0.9849092611	 0.111933
H	-0.7440227014	 1.8900455758	 0.7782984317	 0.113625
H	-0.9110032136	-0.4369141521	-0.0928595232	 0.067572
H	 0.6697515621	-0.2581158248	-2.2090226169	 0.056409
H	 0.3210184099	-2.5677763313	-0.4383832886	 0.091276
H	 1.8104835961	-2.5671333246	-1.4065913902	 0.081861
H	 2.7567831503	-1.8012595365	 1.0006471828	 0.056408
H	 2.6048667142	 0.799746054	-0.3043890421	 0.07357
H	 3.3663816888	-1.4054916327	-1.8594482798	 0.278936
H	 0.2527152248	-1.2973949695	 1.6968342485	 0.067573
H	 2.0334841076	 1.1997984526	 1.8474524168	 0.118598
H	 0.5290338205	 0.9490149825	 2.7358859272	 0.113626
H	 1.9173243034	-0.0979934577	 3.0367042344	 0.111932
