18
gdb 79723	2.70601	1.69992	1.38075	3.7217	75.68	-0.2337	0.0301	0.2638	994.3001	0.148618	-401.926481	-401.918737	-401.917793	-401.958797	29.67	
C	-0.0485570226	 1.4095460748	-0.1359143262	-0.350126
N	-0.0297117111	-0.0182661926	 0.0556178289	-0.055113
C	-1.0782028707	-1.0376172412	 0.0184237313	-0.015937
C	-1.5932736744	-1.5346021362	-1.3645463668	-0.066676
C	-0.5128722815	-1.4997862733	-2.4087465481	-0.30952
C	-0.4882736171	-2.5977307635	-1.3882076575	-0.043573
C	 0.0379402407	-2.1105331885	-0.0088257337	-0.197054
C	 1.025655224	-0.914228175	-0.007180876	 0.378003
O	 2.2147433734	-0.7374764694	-0.0638262359	-0.376362
H	 0.9888033066	 1.7510853173	-0.1830107	 0.1595
H	-0.5548272578	 1.6837507689	-1.0701734832	 0.128715
H	-0.5511727187	 1.9197596376	 0.6938369624	 0.128026
H	-1.8192278009	-0.9846818042	 0.8172245755	 0.085571
H	-2.6405185425	-1.6346890888	-1.62109208	 0.090465
H	-0.8347849995	-1.8074140689	-3.3983453146	 0.117552
H	 0.244057063	-0.721129676	-2.4144270262	 0.132035
H	-0.5554883902	-3.6414256759	-1.6656259282	 0.096747
H	 0.1345325792	-2.8614290453	 0.7718954384	 0.097746
