19
gdb 97896	5.07847	0.57397	0.53269	1.2318	87.71	-0.252	0.0285	0.2806	2025.1799	0.155766	-385.825198	-385.814265	-385.813321	-385.863492	38.06	
C	-0.5048037166	 1.5942725218	-0.1893403925	-0.387392
C	-0.0561624097	 0.1307049793	-0.0233475911	-0.152151
C	-1.2662670979	-0.8247369114	 0.2035331257	-0.354533
C	-2.0124603914	-0.5261949976	 1.4192403267	 0.010688
C	-2.5955799641	-0.266664799	 2.4419433868	 0.100049
C	-3.3595102381	 0.0636655924	 3.6445961955	-0.193765
O	-4.0552187504	 1.3000585798	 3.5530857572	-0.401957
C	 0.721917706	-0.3228005137	-1.1738999071	 0.320312
C	 1.3386548273	-0.7017534773	-2.1338671431	-0.46173
H	 0.3600744937	 2.2520319351	-0.3045423071	 0.127109
H	-1.1351830824	 1.7043980093	-1.0772697713	 0.122883
H	-1.0757210316	 1.9121733925	 0.6868666996	 0.135115
H	 0.5777460983	 0.0652613707	 0.8702835063	 0.117589
H	-1.9271782695	-0.7667944071	-0.6704001805	 0.136309
H	-0.8991983595	-1.8567118463	 0.2406631227	 0.141619
H	-4.0462402573	-0.7659188622	 3.8781297588	 0.117871
H	-2.6873400196	 0.165578958	 4.5038881428	 0.139537
H	-4.571175088	 1.2787917419	 2.7404045072	 0.286763
H	 1.8973031308	-1.0319605462	-2.9743566866	 0.195685
