16
gdb 48202	2.19559	1.42487	1.02612	3.0047	69.3	-0.2706	-0.0542	0.2165	1167.607	0.122704	-437.879973	-437.870977	-437.870032	-437.915541	30.419	
O	-0.1764620233	 0.2336017037	 0.5742671063	-0.238503
C	-0.0462922198	 1.2475117861	-0.0531804582	 0.168924
C	 1.3023519728	 1.9933594957	-0.1013905226	-0.26315
C	 1.3699041905	 2.9144316153	-1.232204561	 0.276344
N	 1.4147687245	 3.6413288223	-2.1292875364	-0.321143
C	 1.5088158823	 2.717281556	 1.252337413	 0.150319
C	 2.6679437557	 3.7263300162	 1.3860640449	-0.316702
C	 1.5471377102	 4.7458345228	 1.6815912146	-0.059166
O	 0.5255662277	 3.7408234943	 1.4601014234	-0.290326
H	-0.8796666086	 1.7213114284	-0.6073850505	 0.12493
H	 2.0864652723	 1.2331780844	-0.1978697071	 0.155074
H	 1.4661953419	 1.9449691323	 2.0302748514	 0.109439
H	 3.3666572014	 3.5267441008	 2.1987437261	 0.123668
H	 3.2217135837	 3.9142617397	 0.4652499537	 0.136335
H	 1.5175329913	 5.1276905627	 2.7078554483	 0.114875
H	 1.4511647974	 5.5777707994	 0.9777121539	 0.129082
