21
gdb 114325	2.24778	1.40419	1.24089	2.5522	79.01	-0.2351	0.0745	0.3095	1173.4599	0.181332	-424.189715	-424.1803	-424.179356	-424.22347	35.636	
C	-0.3287581652	 1.22774475	 0.0611558694	-0.24185
O	 0.2751329723	-0.0355202335	-0.1337231719	-0.258631
C	 0.7411734866	-0.6334682958	 1.0671446724	 0.058419
C	-0.3008240748	-1.2773931604	 2.0424374825	-0.271208
C	 0.4027207899	-2.6214596462	 1.8447793844	-0.151019
C	 0.3767835939	-2.9721261899	 0.3835623803	 0.089065
O	-0.6931236167	-2.666059322	-0.4610559589	-0.443957
C	 1.4106844358	-1.9845576192	 0.8387818646	 0.249537
C	 2.8908342972	-2.166215232	 0.6514617641	-0.506492
H	 0.3772732201	 1.9379949754	 0.5167836373	 0.111185
H	-0.6250059552	 1.6030762943	-0.9209202162	 0.132084
H	-1.219352571	 1.1626186832	 0.7020538621	 0.117133
H	 1.3997959569	 0.0722786465	 1.5933143121	 0.07405
H	-0.235360633	-0.8765979194	 3.0555101103	 0.100155
H	-1.3409764003	-1.2507317017	 1.7046325721	 0.108697
H	 0.59363798	-3.3540337594	 2.6202935689	 0.085054
H	 0.7894610395	-3.954413346	 0.1603779659	 0.092303
H	-0.5870773132	-1.7427433205	-0.7280416465	 0.293141
H	 3.2170210112	-1.7673622553	-0.316541901	 0.128273
H	 3.4616937644	-1.6512225401	 1.4333097727	 0.113294
H	 3.1663416518	-3.2250973479	 0.6815907556	 0.120768
