19
gdb 106085	2.38949	1.61538	1.21907	3.7007	79.45	-0.2319	0.0112	0.2431	1097.7997	0.159505	-385.868882	-385.860799	-385.859854	-385.901772	31.149	
C	 0.0754098137	 1.5205077269	-0.2537431379	-0.378667
C	 0.0063421489	 0.0304350093	 0.1059106632	-0.333139
C	-1.3888925746	-0.5078954025	 0.1429044829	 0.372226
C	-2.0154071659	-1.8594060906	 0.0417387759	-0.140636
C	-2.9303347067	-1.6114831669	 1.2436633249	-0.240722
C	-2.6860091679	-0.0997509229	 0.9791516469	-0.233968
C	-3.3268947352	 0.1370991308	-0.4031115755	 0.44617
O	-4.1117411213	 0.9405792687	-0.8252581893	-0.349763
C	-2.3590980923	-0.8100645312	-1.0331431984	-0.240199
H	 1.1115501448	 1.8710294352	-0.2581274481	 0.116602
H	-0.3520920838	 1.7070215261	-1.2435634134	 0.130125
H	-0.4803154022	 2.126927763	 0.4685763759	 0.12647
H	 0.5865639412	-0.5553646031	-0.6181334491	 0.108551
H	 0.4822666159	-0.1343533338	 1.0816376187	 0.109391
H	-1.5469701012	-2.7864467475	-0.2673598857	 0.097145
H	-3.9668497523	-1.9642550701	 1.2012150483	 0.104769
H	-2.4613592818	-1.9459493298	 2.1728334953	 0.108244
H	-2.7583186121	 0.6509707355	 1.7616153431	 0.090363
H	-2.1126930873	-0.954032297	-2.0765062677	 0.107038
