15
gdb 7886	3.72305	1.73842	1.24625	3.5307	63.84	-0.2243	-0.0124	0.2119	944.7047	0.11861	-399.844132	-399.836391	-399.835446	-399.876056	28.635	
C	 0.0318695323	 1.5116854164	 0.0244318276	-0.497817
C	-0.0680840893	 0.0260359391	-0.0190769196	 0.359996
C	-1.1240954901	-0.7670244056	-0.2384671424	-0.239599
C	-0.703247341	-2.2029519267	-0.0958618345	 0.004613
O	-1.0206247981	-3.0249996927	-1.1996271345	-0.433276
C	 0.8283956397	-2.0881650979	 0.0739485541	 0.378123
O	 1.6197105575	-3.0024622596	 0.0256850865	-0.376278
N	 1.0952218117	-0.7475510839	 0.2307645148	-0.37744
H	 0.7619847577	 1.8804362766	-0.7067611907	 0.137026
H	-0.9351019421	 1.9651866247	-0.2004284434	 0.14592
H	 0.3576188731	 1.8595352247	 1.0119422951	 0.140849
H	-2.1370256319	-0.4355308718	-0.4094512692	 0.109427
H	-1.111307101	-2.6311808685	 0.838490955	 0.097776
H	-0.3792379903	-3.7487320039	-1.1814987896	 0.292697
H	 2.0347543316	-0.3820192609	 0.2054992109	 0.257981
