23
gdb 59953	2.79197	0.95928	0.89215	2.8197	82.63	-0.2492	-0.0234	0.2258	1463.8537	0.199975	-425.44243	-425.430768	-425.429824	-425.480359	41.558	
C	-0.9932774988	 1.0893889415	-0.6296907375	-0.381921
C	-0.2185926085	-0.1016132173	-0.066123377	 0.140473
C	-1.1454510572	-1.1863593426	 0.4828168353	-0.381515
O	 0.5710352615	-0.666183546	-1.1201374195	-0.314999
C	 1.986274578	-0.7149720866	-0.9785337222	 0.263865
C	 2.6324621277	 0.6749421689	-0.8935522043	-0.421656
C	 2.4318118881	-1.6156680228	 0.1904762717	-0.42189
C	 2.4394814066	-1.4023812455	-2.2735278899	 0.145461
O	 3.5808399005	-1.4467429559	-2.6496827172	-0.262225
H	-0.3105503452	 1.8614130892	-0.9945258306	 0.117352
H	-1.6209935772	 0.7668022857	-1.4664268172	 0.1243
H	-1.6389279488	 1.5323878166	 0.1354694504	 0.111376
H	 0.4332227353	 0.251574984	 0.742661604	 0.074653
H	-1.7783278514	-1.5797927414	-0.3189976037	 0.124264
H	-0.571109497	-2.0172842738	 0.9012219389	 0.115811
H	-1.7936878031	-0.7848780954	 1.2684958203	 0.111703
H	 2.4281859185	 1.1532837108	 0.0686386589	 0.113949
H	 3.7144101503	 0.578077572	-1.0108467557	 0.140609
H	 2.2550092118	 1.3191571977	-1.6924570587	 0.125968
H	 1.9781047539	-2.6078219225	 0.108428772	 0.125618
H	 3.519198309	-1.7271078485	 0.1774609365	 0.137547
H	 2.1425764041	-1.1816569299	 1.1521704183	 0.119588
H	 1.6050269717	-1.8794103684	-2.8317011729	 0.091668
