17
gdb 20848	3.12531	1.85899	1.27394	2.5043	70.75	-0.1925	0.0334	0.2259	972.2018	0.14391	-360.064769	-360.056472	-360.055528	-360.097652	30.302	
C	 0.0191668764	 1.5229939521	 0.0978594765	-0.372676
C	-0.0611445337	-0.0036566616	-0.082785458	-0.2947
C	 0.7238154286	-0.5086540215	-1.2552305389	 0.317644
N	 0.1351641142	-0.771059517	-2.4235110082	-0.291274
N	 1.126505324	-1.1817159668	-3.2265375179	-0.190512
C	 2.3442461749	-1.1883603029	-2.6141734725	-0.109955
C	 2.1225740329	-0.7544654936	-1.322498113	 0.116712
N	 3.0365384572	-0.6625038503	-0.2550939899	-0.612848
H	 1.0518820225	 1.8613589309	 0.2414243013	 0.103856
H	-0.3729343468	 2.0358325614	-0.7853269035	 0.128797
H	-0.5599945436	 1.846777424	 0.9686498195	 0.111086
H	 0.2941115673	-0.4990968661	 0.8296550468	 0.105156
H	-1.1062186596	-0.298163183	-0.218314438	 0.118268
H	 0.9116279051	-1.45759599	-4.1682475233	 0.269476
H	 3.2414645171	-1.4996103894	-3.1252256925	 0.117133
H	 3.9986047211	-0.6503066455	-0.5686588084	 0.239194
H	 2.8760594625	 0.1557190491	 0.31906046	 0.244644
