27
gdb 101673	2.68579	0.74213	0.69198	0.9903	93.53	-0.2479	0.0795	0.3275	1872.5165	0.248894	-390.698426	-390.686162	-390.685218	-390.737198	43.732	
C	-0.1564193026	 1.5455730862	 0.125304494	-0.391475
C	-0.0271891131	 0.0271297065	-0.0345187488	-0.169149
C	 0.8345025383	-0.4297402678	-1.227687621	 0.047106
C	 2.291246713	 0.0373259587	-1.0902047334	-0.395622
C	 0.7366817074	-1.958685356	-1.3874515189	-0.194163
C	 1.2859133742	-2.520981631	-2.7012126555	 0.127035
C	 1.2072096876	-4.0507934995	-2.7349747354	-0.401015
O	 0.5211519568	-1.9317162332	-3.7495485386	-0.241237
C	 1.1092696387	-2.0012012195	-5.0255301422	-0.232886
H	 0.8032553983	 2.0198169096	 0.3522755439	 0.115857
H	-0.5458324137	 2.0058629357	-0.7900028176	 0.113098
H	-0.8439067195	 1.7950403298	 0.9398838898	 0.109145
H	 0.3816602082	-0.4050734707	 0.8901772624	 0.086772
H	-1.0312401843	-0.4011299126	-0.1487974624	 0.090909
H	 0.4133243937	 0.0160805315	-2.1377299422	 0.085494
H	 2.747789681	-0.3700698027	-0.1791223519	 0.10601
H	 2.9033553446	-0.2822347389	-1.9388389502	 0.110348
H	 2.3624426053	 1.1273131673	-1.0374745182	 0.113406
H	 1.2561583368	-2.4509187109	-0.5541890268	 0.085828
H	-0.3167458473	-2.2599101021	-1.3205837842	 0.095324
H	 2.3404302684	-2.2214842521	-2.822843222	 0.062083
H	 0.169499501	-4.3800589093	-2.6198725127	 0.121258
H	 1.592395274	-4.4557675278	-3.6752363602	 0.112852
H	 1.7999673119	-4.4825388449	-1.9222293696	 0.113624
H	 0.4713414133	-1.4309598579	-5.7061191539	 0.124467
H	 2.1182240406	-1.5585139022	-5.0343237388	 0.100545
H	 1.1853185673	-3.0306537764	-5.4056512655	 0.104387
