19
gdb 99918	2.33517	1.289	1.14459	3.296	75.19	-0.2473	0.0153	0.2626	1183.5261	0.160127	-415.352723	-415.342966	-415.342022	-415.387118	35.92	
N	-0.2956650776	 1.359143037	-0.0928167432	-0.507801
C	-0.0237125647	-0.0595204053	 0.0179064639	-0.152868
C	 0.9565596558	-0.4918696749	 1.1592998633	 0.03357
N	 2.2326889542	 0.2064137672	 0.9337550666	-0.524582
C	 0.4006221433	-0.0286163425	 2.4433364247	 0.292498
N	-0.0708377242	 0.3025693348	 3.4455922837	-0.352739
C	 1.0940471483	-2.0190577174	 1.1701904566	-0.000299
C	 1.4931106786	-2.7761769702	 2.3811816953	-0.26589
N	 0.1306883034	-2.9055990713	 1.829948717	-0.322863
H	-0.8464326913	 1.6740535462	 0.7005472208	 0.241406
H	 0.581728048	 1.8709361208	-0.0566275923	 0.241572
H	-0.9642346002	-0.6046738976	 0.1398236625	 0.129181
H	 0.4284008115	-0.4136278838	-0.9185234946	 0.108367
H	 2.8915212658	-0.0237142469	 1.6725142153	 0.244141
H	 2.6382370235	-0.1376921093	 0.0664113987	 0.238098
H	 1.4256785853	-2.388726158	 0.1998774622	 0.096246
H	 2.1140436083	-3.6620161578	 2.2853221247	 0.124753
H	 1.6197389917	-2.2257775235	 3.3098552855	 0.131722
H	-0.5147579597	-2.3628895276	 2.4018074993	 0.245488
