22
gdb 97679	2.49599	0.84967	0.71075	1.7567	93.25	-0.2263	0.0432	0.2695	1722.8443	0.192778	-367.173076	-367.16236	-367.161415	-367.210595	38.235	
C	 0.4551859484	 0.9306541732	 0.6564327794	-0.363457
C	-0.2107908194	 0.4557728265	-0.6481439046	-0.319657
C	-1.4976769916	-0.1987518543	-0.4344757406	 0.104561
C	-2.5576642673	-0.7422378906	-0.2426812381	 0.004639
C	-3.8321944792	-1.3725888333	 0.0044080406	 0.161467
C	-4.9547236372	-0.460529974	 0.4804796979	-0.242184
C	-4.6618974693	 0.1845936123	 1.837408919	-0.379445
C	-4.1543213919	-2.6010781437	-0.78505341	-0.278192
N	-3.8285511486	-2.7175618339	 0.6420274033	-0.348613
H	 1.4142857355	 1.411656225	 0.4421769265	 0.114459
H	-0.1822296927	 1.6495693744	 1.1782633188	 0.12895
H	 0.6342697764	 0.0886106819	 1.3304605471	 0.127595
H	-0.3473724824	 1.3114783336	-1.3221120509	 0.130456
H	 0.462815548	-0.2332811489	-1.1739724381	 0.128795
H	-5.1273942058	 0.3114981242	-0.2789668326	 0.099491
H	-5.8674541248	-1.0622663406	 0.5450566924	 0.103532
H	-5.4920190205	 0.8228353781	 2.1545769623	 0.10835
H	-4.51134329	-0.5847600149	 2.60078285	 0.127825
H	-3.758130239	 0.8001324263	 1.7927695101	 0.121607
H	-5.1916867453	-2.8071783826	-1.0363540579	 0.117855
H	-3.4285749736	-2.9357631554	-1.5202313664	 0.116786
H	-2.8679538799	-3.0343854338	 0.747103382	 0.235179
