11
gdb 3872	7.66889	2.23711	1.7362	2.9304	48.65	-0.221	0.0237	0.2447	661.8571	0.08068	-372.766726	-372.760678	-372.759733	-372.796145	22.794	
N	-0.0102267041	 1.3210165797	 0.1344859612	-0.593484
C	-0.0461400384	-0.0342901519	 0.0569790234	 0.514717
N	-1.1023013942	-0.80033037	 0.0920346986	-0.392533
C	-0.5232179195	-2.0473742416	 0.0440302397	 0.423173
N	-1.2892195577	-3.182333282	 0.1239990818	-0.584983
N	 0.7882301996	-2.075880035	-0.0335076706	-0.234165
O	 1.1160351435	-0.6796554575	-0.014381347	-0.214634
H	 0.8226751238	 1.7703995879	-0.2106323777	 0.275283
H	-0.8795924594	 1.7868099248	-0.068763885	 0.278366
H	-2.230257796	-3.0639820617	-0.2185606519	 0.263847
H	-0.8348443376	-4.0223436227	-0.2013089426	 0.264413
