19
gdb 80536	2.53981	1.51361	1.29684	3.6216	74.86	-0.2321	-0.0018	0.2303	1070.207	0.159575	-423.029336	-423.021105	-423.02016	-423.061734	32.213	
C	-0.0895699177	 1.5021229794	 0.0327549018	-0.414436
C	 0.0725323195	-0.0160534969	 0.068633736	 0.014091
C	 1.0112638313	-0.5966936037	-1.0624893943	-0.253302
C	 2.0653499301	-1.3220016616	-0.2001552607	-0.188503
C	 1.1553762402	-2.0088182883	 0.8766734292	 0.124617
O	 1.8444230497	-2.6815783443	 1.9011297267	-0.441768
C	 0.8201216894	-0.5526827454	 1.3142917663	-0.150383
C	 2.2838815032	-0.2672903527	 0.9087333062	 0.442938
O	 3.1884138023	 0.3989642115	 1.3088069067	-0.325777
H	 0.879181838	 2.0075596682	 0.1082985481	 0.134077
H	-0.562241197	 1.8193658062	-0.9028222085	 0.116226
H	-0.7147897603	 1.8541925286	 0.8599334342	 0.118783
H	-0.9160198014	-0.4834235485	 0.0094755634	 0.078923
H	 0.482525041	-1.2847612833	-1.7279873309	 0.105067
H	 1.4527742094	 0.1933493206	-1.6765888561	 0.11458
H	 2.8851025897	-1.8420787761	-0.6943358259	 0.076883
H	 0.3136192671	-2.5926967902	 0.48093793	 0.071538
H	 2.3021548621	-3.436437103	 1.5173113987	 0.288626
H	 0.4221735735	-0.3289660206	 2.3019312691	 0.087818
