12
gdb 131330	2.59444	1.81076	1.06645	4.5395	57.66	-0.2422	-0.0683	0.1739	997.1817	0.078027	-505.97529	-505.967993	-505.967049	-506.007136	26.821	
O	 0.0063569269	 1.2780244446	-0.0512523703	-0.406588
C	 0.0390646564	-0.0455006537	-0.0657055436	 0.496197
N	 0.0468088425	-0.8173101668	-1.097084692	-0.302889
N	 0.0854462621	-2.1544067812	-0.6181859617	-0.320588
C	 0.0984280177	-2.1040837463	 0.6641865211	 0.481164
O	 0.1331944116	-3.1065954256	 1.5471825844	-0.420007
N	 0.0709668559	-0.793963906	 1.1332382498	-0.210464
C	 0.0727861188	-0.3019272097	 2.4225447487	 0.18955
O	 0.0452249319	 0.8860420432	 2.6615192638	-0.31909
H	 0.0094273755	 1.5677870518	 0.8819958969	 0.328139
H	 0.1480906925	-3.9305020945	 1.0405275728	 0.330289
H	 0.1004753282	-1.086551866	 3.1916360999	 0.154288
