17
gdb 71209	2.39906	2.06714	1.6269	1.1814	71.62	-0.2176	-0.0222	0.1954	897.9321	0.137949	-417.961701	-417.954589	-417.953645	-417.993022	28.308	
C	 0.0027375061	 1.5151216121	 0.0389089636	-0.510898
C	 0.0462003205	 0.015662585	 0.0627647473	 0.193084
N	 0.8781415821	-0.7244168886	-0.9517868197	-0.349949
C	 0.8138196224	-1.8611313004	-0.0109575412	 0.003882
C	-0.6861672305	-2.1425804659	 0.4429689694	-0.155749
N	-0.28388837	-1.7688665532	 1.8379337571	-0.318713
C	 0.7187690011	-0.8976606619	 1.1863262217	-0.04638
C	-1.257892505	-0.803061312	-0.0473689333	 0.416768
O	-2.3563176973	-0.4797745573	-0.4081221723	-0.343563
H	 1.0113722222	 1.9341142254	-0.0075426127	 0.129918
H	-0.5645055699	 1.8715698974	-0.8274078492	 0.136153
H	-0.4955836193	 1.8978617413	 0.9357438543	 0.125657
H	 0.4124485767	-0.8688458743	-1.8501006609	 0.219154
H	 1.5066377362	-2.6930004624	-0.1172497911	 0.096824
H	-1.2369805998	-3.0672089842	 0.2869349059	 0.089692
H	-1.0126390663	-1.283954258	 2.3652456468	 0.221273
H	 1.5507494807	-0.5011884429	 1.7660838942	 0.092847
