20
gdb 11456	4.1601	1.28754	1.04066	1.1883	78.9	-0.2335	0.0262	0.2597	1186.9578	0.176581	-349.016076	-349.007335	-349.00639	-349.049567	31.82	
C	-0.1168034778	 1.3895667868	 0.0008479377	-0.235177
O	 0.1366827137	 0.0074842625	 0.0635992675	-0.243553
C	 0.7009037392	-0.5332579693	-1.1266220662	 0.115962
C	 1.2266840224	-1.9527465916	-0.8215031025	-0.246638
C	 0.8534938987	-2.8149039758	-2.0485757584	-0.301112
C	-0.2113127849	-1.9983375097	-2.7528060694	 0.334357
C	-1.0054020511	-2.5673276692	-3.8857577466	-0.488483
C	-0.2852035417	-0.7647000215	-2.249431885	-0.199155
H	 0.7960577045	 1.962226863	-0.2310732343	 0.099808
H	-0.8793801026	 1.6469828273	-0.7500622919	 0.102569
H	-0.4834710483	 1.6974471666	 0.9836822228	 0.123573
H	 1.5123373794	 0.1408766501	-1.4559399633	 0.05953
H	 2.2942453706	-1.9666196642	-0.5909582842	 0.096636
H	 0.6916262842	-2.300927959	 0.0665009726	 0.120699
H	 1.7144512251	-2.9717083635	-2.7137408688	 0.103707
H	 0.4981716361	-3.8161312419	-1.7751485374	 0.10036
H	-1.5643645653	-3.4560729533	-3.5656610404	 0.126122
H	-1.7178835157	-1.8423669596	-4.288339747	 0.122442
H	-0.3505026001	-2.892906298	-4.7042953428	 0.124669
H	-0.9476787464	 0.0125014904	-2.6155831424	 0.083686
