16
gdb 11922	3.38415	1.77935	1.49476	0.9789	72.77	-0.2284	0.032	0.2604	897.5668	0.128458	-346.535479	-346.527669	-346.526725	-346.567229	29.743	
C	 0.0241640377	 1.5053668291	-0.036158745	-0.481388
C	 0.0310401131	 0.0162728825	 0.0482294473	 0.415563
C	-0.8671447666	-0.8507722149	 0.8645472025	-0.369884
C	 0.6464514023	-0.9848448427	 1.043985922	 0.053023
C	 1.2058143988	-1.6565852216	-0.2113284252	-0.130918
O	 0.5213183101	-0.7170613412	-1.0780918083	-0.317195
C	 1.3231327667	-0.8030785514	 2.2765995191	 0.186232
C	 1.9103419544	-0.6538040164	 3.3174379024	-0.416908
H	 1.0090663626	 1.8835819615	-0.3245773817	 0.134849
H	-0.7044605952	 1.8403101232	-0.7831803407	 0.136422
H	-0.2521929416	 1.9398471998	 0.9282793547	 0.133371
H	-1.3639120851	-0.3679230342	 1.6993568121	 0.128387
H	-1.4230745805	-1.6545900531	 0.388687804	 0.116179
H	 2.2912598883	-1.5509501942	-0.3052850183	 0.118419
H	 0.9091463869	-2.6948195142	-0.3999732376	 0.107821
H	 2.4256660181	-0.5219431124	 4.2361030327	 0.186028
