18
gdb 35237	3.27597	1.16713	0.99903	2.9632	76.49	-0.2642	0.0226	0.2868	1199.8935	0.149046	-401.954473	-401.946355	-401.94541	-401.988029	30.281	
N	-0.0522275426	-1.1344134248	-0.0875235931	-0.344226
C	-0.0339146238	 0.0218349027	-0.0362883543	 0.292414
C	 0.0187577009	 1.4542035204	 0.0178820724	-0.224094
C	 0.5338273324	 2.1487884515	 1.2727893769	-0.336898
C	 1.3671942378	 2.1711703658	 0.0335992933	 0.310921
C	 2.692287119	 1.4184310324	-0.0815643319	-0.313734
C	 3.3384344699	 2.1098349527	-1.2901426691	-0.082838
O	 2.9069913321	 3.4631672086	-1.2048681359	-0.243718
C	 1.5442978206	 3.4401824743	-0.819639193	-0.142171
H	-0.7866681356	 1.9473436717	-0.5183747662	 0.131238
H	 0.0122619046	 3.0519472342	 1.5725522327	 0.129425
H	 0.851879041	 1.5140067559	 2.0927263448	 0.140789
H	 3.2987096594	 1.5835715052	 0.8144827545	 0.117564
H	 2.5638594334	 0.3419763833	-0.2169693573	 0.135479
H	 4.4303486967	 2.1045507205	-1.2743785878	 0.117275
H	 2.9983351196	 1.6500394723	-2.2320953586	 0.099155
H	 0.8877082752	 3.406340396	-1.7043835321	 0.097806
H	 1.3332418895	 4.3623286374	-0.2688519354	 0.115614
