17
gdb 76289	2.43322	1.631	1.10018	3.2901	73.05	-0.2382	-0.0049	0.2334	1089.8118	0.138353	-451.3424	-451.333867	-451.332923	-451.375459	32.503	
N	 0.1786636216	 1.3010339923	 0.5016638595	-0.527612
C	-0.0275023239	-0.0432969566	 0.010803728	-0.037149
C	-1.5051263008	-0.4311880544	-0.167260345	 0.058744
O	-2.2112468874	 0.7026014854	-0.6518991766	-0.435476
C	-1.4731912657	-1.4876995273	-1.2699186017	 0.360699
N	-2.4615992744	-2.2419577426	-1.5281086299	-0.54605
N	-0.2514557559	-1.35209592	-1.9174491118	-0.370312
C	 0.590954937	-0.397852093	-1.3477348163	 0.366235
N	 1.6740102726	 0.0966771944	-1.7802674525	-0.542048
H	 1.1432543961	 1.561010168	 0.3115618863	 0.245428
H	-0.4054409433	 1.932719412	-0.0384820786	 0.245248
H	 0.4105172556	-0.7549718051	 0.726074055	 0.11341
H	-1.9625492698	-0.8244261382	 0.7457311229	 0.100177
H	-3.0850785972	 0.3965328091	-0.9202122347	 0.299587
H	-2.2988192744	-2.8323161584	-2.3462044112	 0.21046
H	-0.0393774441	-1.825954881	-2.7836701779	 0.248077
H	 1.9397558739	-0.2697914246	-2.6954499853	 0.210581
