20
gdb 27144	2.83811	1.3028	0.96693	1.6604	88.3	-0.1838	0.0481	0.2318	1267.0573	0.171879	-366.042571	-366.033584	-366.03264	-366.077845	33.536	
C	 0.1359951381	 1.5470703892	 0.0948690986	-0.50976
C	-0.001291337	 0.0544121302	 0.032771675	 0.180274
C	-0.1252477946	-0.7317826187	-1.0995941017	 0.246471
N	-0.2235739207	-2.0423770491	-0.6794349292	-0.321605
C	-0.1650560482	-2.1067602858	 0.69093878	-0.092926
C	-0.0276738805	-0.8251538631	 1.1586562906	-0.219845
C	-0.1585122859	-0.3575679853	-2.5262357452	-0.076814
C	 0.4694600174	-1.2234301116	-3.6016014226	-0.274511
C	-1.0280365297	-1.0885118515	-3.5312872743	-0.274507
H	 0.1312818291	 2.0014670175	-0.8998317216	 0.116741
H	-0.681793124	 2.0052941775	 0.6641724746	 0.121998
H	 1.0706981681	 1.8473811294	 0.5837243818	 0.121996
H	-0.3235443537	-2.8367453869	-1.2859773039	 0.253358
H	-0.2260204161	-3.0520798986	 1.2056526982	 0.11107
H	 0.0472439806	-0.534018744	 2.1959918051	 0.084964
H	-0.069606165	 0.7112084004	-2.6833223546	 0.08791
H	 0.9964453041	-0.7320238626	-4.4121053476	 0.116156
H	 0.9190703326	-2.1615851581	-3.2921324323	 0.106435
H	-1.6070124981	-1.9339936308	-3.1735127999	 0.106437
H	-1.5319488666	-0.5042293078	-4.293387231	 0.116156
