15
gdb 24667	4.5291	1.17547	0.99469	1.6741	74.86	-0.2496	-0.0527	0.1969	1145.5231	0.11486	-416.827652	-416.820678	-416.819734	-416.859671	25.979	
C	 0.909972342	 0.8459981794	-0.2602354327	-0.17447
O	-0.2454894715	 0.2657246319	-0.858381564	-0.224647
C	-0.3522428747	 0.7127576418	 0.4935118123	-0.001455
C	-0.5343218714	-0.3309153758	 1.5390007813	 0.293648
C	-0.3143661932	-1.6887222943	 1.2797266754	-0.054759
N	-0.455990539	-2.6213256434	 2.2204880316	-0.23673
C	-0.8283841514	-2.1898170617	 3.4280835635	-0.009231
C	-1.0672837843	-0.8425037467	 3.6849106288	-0.020987
N	-0.9258524236	 0.0926684945	 2.7449653464	-0.307144
H	 1.7270367595	 0.1569673697	-0.0522582871	 0.123205
H	 1.2000485914	 1.8219098083	-0.6461381826	 0.128703
H	-0.9537258237	 1.6070634855	 0.6482650367	 0.113982
H	-0.0326826631	-2.0160643529	 0.283821962	 0.133052
H	-0.9476295629	-2.9377941262	 4.2073161193	 0.118759
H	-1.386452184	-0.5087111601	 4.6689726491	 0.118073
