15
gdb 15041	3.06929	1.75854	1.18183	2.9994	71.73	-0.2577	-0.0508	0.2069	998.2537	0.118158	-358.821554	-358.813342	-358.812397	-358.854559	28.51	
C	 0.0812601737	 1.241709474	 0.3208259428	-0.343595
N	 0.0022639542	-0.1756693401	 0.038246291	-0.254718
C	-1.1118006359	-0.7396508478	-0.1895918339	 0.240364
C	-2.4043527175	-0.0671901356	-0.1387880029	 0.262375
N	-3.4176578708	 0.485538378	-0.0673426239	-0.33511
N	-1.2160356826	-2.0731024024	-0.5895821073	-0.096842
C	-0.2765477293	-3.0540524035	-0.0819146471	-0.214711
C	-1.7128718645	-3.0975879155	 0.331138425	-0.228738
H	 0.703469639	 1.7194656095	-0.4445228981	 0.142141
H	-0.8866853475	 1.7579713168	 0.3611705403	 0.135609
H	 0.5973988862	 1.3805319457	 1.2771058722	 0.138948
H	 0.095100188	-3.7607139165	-0.8171705359	 0.133896
H	 0.4536728077	-2.702371339	 0.6403933174	 0.144562
H	-1.9518747235	-2.7895619403	 1.3457583379	 0.137949
H	-2.3918759273	-3.8226845433	-0.1057030774	 0.137871
