25
gdb 123257	10.54159	0.3921	0.38439	0.076	88.96	-0.2482	0.0883	0.3365	2935.9559	0.22578	-426.618081	-426.606006	-426.605062	-426.657324	40.748	
C	-0.5489462515	 1.9308908046	-0.6648270066	-0.382328
C	-0.4153190467	 0.4164169705	-0.840906726	-0.182577
C	-1.1510745499	-0.3619100042	 0.2409976895	-0.026388
O	-0.9785802991	-1.7434038152	 0.0072020095	-0.250661
C	-1.6247153278	-2.5565117268	 0.9581794025	-0.070212
C	-1.3565384299	-4.0068637721	 0.5866662333	-0.068585
O	-2.0025888741	-4.8203668496	 1.5373834084	-0.245925
C	-1.8286223464	-6.2022083212	 1.3012141569	-0.024286
C	-2.564510935	-6.9758624984	 2.3818823125	-0.384793
H	-0.0127529874	 2.4669840433	-1.4531087609	 0.116962
H	-1.5973649794	 2.2468690154	-0.7030596598	 0.116232
H	-0.1395550863	 2.2592470217	 0.296976106	 0.116235
H	-0.8080620439	 0.1106051274	-1.8174385684	 0.105987
H	 0.6405707898	 0.1228498134	-0.82346271	 0.105995
H	-0.7633828893	-0.0917153625	 1.2391110934	 0.082587
H	-2.2249483018	-0.1044015549	 0.2360968075	 0.082588
H	-1.2479944016	-2.3590056065	 1.9750342542	 0.093169
H	-2.711337983	-2.3720215394	 0.9696354693	 0.093173
H	-1.7330883002	-4.2041786417	-0.4303287185	 0.093084
H	-0.2698400058	-4.1911500077	 0.5751504455	 0.093082
H	-2.2151978023	-6.4682268776	 0.3025250981	 0.085321
H	-0.7547321542	-6.4558257881	 1.3060202427	 0.085317
H	-2.1708600089	-6.7227844685	 3.3704550023	 0.126029
H	-3.6313941641	-6.7354233868	 2.3668656862	 0.126023
H	-2.4484238913	-8.052632395	 2.2265045324	 0.113972
