16
gdb 43916	4.32493	1.1843	1.07528	3.6208	74.25	-0.2521	-0.0447	0.2073	1117.5846	0.125297	-437.879552	-437.8722	-437.871256	-437.911823	27.883	
N	-0.0456289651	 1.3145044451	 0.0098186948	-0.518832
C	 0.0849906875	 0.0556133238	 0.0006755693	 0.359951
O	-1.0303555405	-0.7442088991	 0.0007703678	-0.24765
C	-0.6551519058	-2.1117752419	-0.0103480109	 0.29953
C	-1.3811606452	-3.0145220278	 1.0219136273	-0.121819
O	-1.8213410441	-3.9091916048	-0.0167339042	-0.267837
C	-1.3914177455	-3.0005141533	-1.0474871159	-0.121819
C	 0.8397903267	-2.0977127497	-0.0176560281	-0.13999
C	 1.2626771979	-0.8342668654	-0.0112119668	-0.200117
H	 0.8701811991	 1.7597821251	 0.008262287	 0.224455
H	-0.7613045087	-3.5175421934	 1.7716071773	 0.111209
H	-2.211398448	-2.4909524415	 1.5110675347	 0.123747
H	-2.226428814	-2.470426254	-1.5212539062	 0.123748
H	-0.7790589035	-3.4932985152	-1.8100300232	 0.111209
H	 1.4326259581	-3.0030330348	-0.0267263486	 0.137166
H	 2.2798754511	-0.4685545731	-0.0137931241	 0.127049
