21
gdb 70607	2.06688	1.87031	1.41499	1.6868	77.23	-0.2508	0.0683	0.3191	1050.6928	0.181023	-424.236621	-424.227403	-424.226459	-424.269665	36.09	
C	-0.0289732664	 1.4790200663	 0.0495631658	-0.49999
C	 0.1239965276	-0.0144913177	-0.0186137375	 0.434087
O	-0.4900477942	-0.7831778788	 1.0298950167	-0.321458
C	 0.9435362371	-0.8249740404	 0.8904077254	-0.014687
C	 1.4391279628	-2.0685124691	 0.184419207	-0.246985
C	 0.4784787541	-2.1941762355	-1.0186475947	-0.256203
C	 0.0436891354	-0.7453160932	-1.36601181	 0.318211
C	-1.332724292	-0.6705913037	-2.0232313947	-0.458422
O	 1.0351104673	-0.0985425751	-2.1747996217	-0.482434
H	 0.6805149931	 1.9611283364	-0.6271872919	 0.141923
H	-1.0399129954	 1.7824024094	-0.2439765763	 0.122382
H	 0.1454345772	 1.833711763	 1.0683540265	 0.122844
H	 1.4996251357	-0.384805737	 1.7148229444	 0.087458
H	 2.4714699196	-1.902359421	-0.1431198355	 0.110936
H	 1.4294503022	-2.9552564115	 0.825546108	 0.104397
H	 0.9432591751	-2.6749872322	-1.8843982164	 0.085495
H	-0.3965668159	-2.7848556007	-0.7387595143	 0.113061
H	-2.1046980919	-1.0381492946	-1.3411360975	 0.135863
H	-1.5713828322	 0.359374454	-2.3037060892	 0.121725
H	-1.3647887653	-1.2861109035	-2.9305295458	 0.104515
H	 0.987686476	-0.4807375352	-3.0572101785	 0.277281
