17
gdb 74969	2.50713	1.66419	1.44393	3.0508	73.97	-0.228	-0.0105	0.2175	989.5073	0.136684	-421.841062	-421.833562	-421.832618	-421.872907	29.1	
C	-0.0689643247	 1.476823054	 0.0459243249	-0.512445
C	-0.0202461855	-0.0131590531	-0.011875403	 0.325032
C	-0.0486699145	-0.8211419249	-1.0939951355	-0.183553
C	 0.0302297924	-2.2391912344	-0.6019627115	-0.043595
O	 1.3355047732	-2.4938047857	-0.0118712717	-0.281676
C	 1.4543296575	-1.6398857367	 1.1396664823	-0.077231
C	 0.0949878655	-0.8961760576	 1.2158162204	-0.258026
C	-0.8036609122	-2.0539166491	 0.6843636456	 0.434073
O	-1.7832993577	-2.5742647872	 1.1202765172	-0.32222
H	 0.8413515939	 1.8884435929	 0.4990681658	 0.135812
H	-0.179998064	 1.9098523535	-0.9518178553	 0.132974
H	-0.9082889364	 1.8174428623	 0.6645860208	 0.139397
H	-0.1074382448	-0.5151345376	-2.1308258602	 0.108844
H	-0.2155834466	-3.0553139054	-1.2751293842	 0.096656
H	 1.6230748844	-2.2536579184	 2.0329963084	 0.112353
H	 2.3016078653	-0.9563187158	 1.0093602848	 0.103492
H	-0.1602338459	-0.462083647	 2.1802496512	 0.090114
