18
gdb 18712	3.18728	2.16947	1.49072	1.0769	72.37	-0.2262	0.0203	0.2465	870.369	0.155805	-347.80252	-347.79544	-347.794496	-347.833427	28.384	
O	-0.144250096	 1.4556885095	 0.195295743	-0.437178
C	-0.0109191377	 0.0442732888	 0.0396546547	 0.112496
C	 0.9043286528	-0.5530230396	 1.126976721	-0.304319
C	 0.7775612219	-2.0496471237	 1.2574022851	-0.085567
C	-0.3485072808	-2.6930761035	 0.9440608744	-0.041682
C	-1.5581509479	-1.9928919328	 0.4465122404	-0.079344
C	-2.1551674197	-0.8692434945	 1.28513382	-0.283365
C	-1.4016418238	-0.5462268686	 0.027454136	-0.013822
H	 0.7322538762	 1.8450034557	 0.1097409079	 0.277817
H	 0.4391065563	-0.1800503279	-0.9415978088	 0.06657
H	 1.9439962851	-0.2747871923	 0.912114064	 0.091444
H	 0.6560105436	-0.061036462	 2.0777544949	 0.12038
H	 1.6307636051	-2.5968963908	 1.647557911	 0.085355
H	-0.4137893751	-3.7707758256	 1.06663872	 0.086214
H	-2.2607320499	-2.5998667326	-0.1150100697	 0.082751
H	-3.2322352909	-0.7425094645	 1.2752070819	 0.111373
H	-1.6899173941	-0.6682930292	 2.243381289	 0.121027
H	-1.9995274552	-0.2172853566	-0.816843335	 0.08985
