15
gdb 18923	3.59131	2.64252	2.06436	2.1479	63.86	-0.2226	-0.0157	0.207	692.2397	0.121524	-362.618679	-362.613141	-362.612197	-362.648111	22.74	
O	 0.0137882541	 0.0948818099	 0.0617005389	-0.336954
C	-0.0117713533	 1.2921747799	 0.0158986657	 0.454225
C	-1.1762987664	 2.2820016444	-0.04332629	-0.181804
C	-0.8461549113	 3.0354820329	 1.2681200712	-0.179177
N	 0.3866315102	 3.5581813975	 0.5666834178	-0.147221
C	-0.3736816132	 3.4494327291	-0.752579293	 0.00217
C	 0.8925572655	 2.9037064219	-1.4251833852	-0.247136
C	 1.1191566811	 2.3279616829	-0.0019910354	-0.121057
H	-2.1602252415	 1.9131210236	-0.3257191668	 0.087516
H	-1.5087794732	 3.8780894632	 1.4817840896	 0.119585
H	-0.6783702032	 2.4534953747	 2.180211375	 0.119004
H	-0.9313631614	 4.3176846657	-1.1054397568	 0.089807
H	 0.8122386559	 2.2027618888	-2.2590347483	 0.118146
H	 1.5901695537	 3.7105663657	-1.6575448588	 0.126126
H	 2.0940830032	 2.0664341999	 0.401999756	 0.09677
