19
gdb 32209	2.69598	1.41575	1.00223	3.3354	86.09	-0.2098	-0.0105	0.1993	1208.9656	0.161766	-382.137666	-382.129184	-382.12824	-382.170591	32.639	
C	-0.0485096004	 1.5512295825	 0.0974146685	-0.373897
C	-0.0378400932	 0.0141513981	-0.0132490904	-0.313611
C	 0.6922920524	-0.4910719407	-1.2347513092	 0.260477
C	 0.0095265113	-0.8330237238	-2.4000488483	-0.18819
C	 0.7012109516	-1.2932837692	-3.5148989211	-0.017829
N	 2.0293391499	-1.4325905373	-3.5333815514	-0.27236
C	 2.690493707	-1.1053614697	-2.4273359601	-0.046737
C	 2.092160632	-0.6324150366	-1.2503901873	 0.193745
N	 2.8709517205	-0.3843974954	-0.115705677	-0.596508
H	 0.9648877366	 1.9663663878	 0.1284463501	 0.11255
H	-0.5524201777	 1.9974310511	-0.7650916064	 0.12878
H	-0.5704465362	 1.8740754243	 1.003439541	 0.119193
H	 0.4140924331	-0.4173408882	 0.8883107783	 0.113379
H	-1.071598163	-0.3457167822	-0.0423504506	 0.109485
H	-1.0727084612	-0.7455907636	-2.4325570974	 0.087221
H	 0.1710396147	-1.5627476736	-4.4243912553	 0.098792
H	 3.7740026451	-1.2244857789	-2.4569607638	 0.087586
H	 3.8592543681	-0.3003513185	-0.3087050901	 0.247659
H	 2.5538071392	 0.3730976042	 0.4705774802	 0.250264
