14
gdb 133790	3.08427	0.97492	0.86127	3.0158	52.4	-0.2984	-0.0229	0.2756	1325.171	0.095178	-605.356383	-605.347152	-605.346208	-605.392521	30.99	
C	 0.0630079314	 1.4993861975	-0.1717226038	-0.393678
C	 0.0248249221	-0.0079344233	-0.0286838019	-0.053569
O	 0.676521744	-0.5744770623	-1.1946144859	-0.231846
C	 0.7360134095	-1.9009068747	-1.2387956755	 0.290992
O	 0.3129685225	-2.6739337714	-0.4264124655	-0.338533
C	 1.4573873093	-2.3372774195	-2.5378950638	 0.233123
F	 1.5258175669	-3.6591375143	-2.6016166458	-0.045142
F	 0.7980659364	-1.8884612625	-3.6107429709	-0.069443
F	 2.6979617506	-1.8402151771	-2.5716635745	-0.069512
H	 1.0933535881	 1.8609450099	-0.2243679256	 0.138688
H	-0.4635045066	 1.8197068626	-1.0746580291	 0.13869
H	-0.4216581836	 1.96120022	 0.6932913925	 0.131011
H	 0.5541648195	-0.35539829	 0.8633138938	 0.134611
H	-0.9967352401	-0.3964915749	 0.016397326	 0.134607
