17
gdb 29754	3.12621	1.48477	1.1021	3.0857	75.19	-0.2251	0.0251	0.2502	1084.5523	0.137718	-418.008498	-418.000599	-417.999655	-418.041093	29.682	
C	-0.3479563683	 1.6390621593	-0.2431289017	-0.393046
C	-0.005431924	 0.179415835	-0.0283747983	 0.000433
C	 0.7629936861	-0.5745055498	-1.2118675512	-0.043566
O	 1.0037383918	 0.1384408855	-2.3942860963	-0.411438
C	 1.8942875899	-0.740598156	-0.206929092	 0.22978
C	 3.0698109662	-1.1801862006	 0.3565193268	-0.226171
N	 3.0893495122	-0.7918322415	 1.6781546728	-0.262225
C	 1.9531476716	-0.1537455566	 1.9217404717	-0.031632
N	 1.214315875	-0.0906670692	 0.785888043	-0.002223
H	 0.5179673559	 2.2031723411	-0.5998454319	 0.118697
H	-1.1419344101	 1.7241012724	-0.9907240472	 0.140409
H	-0.6984096614	 2.1002287569	 0.6850737207	 0.129221
H	-0.8665274319	-0.3809849019	 0.3484144138	 0.105118
H	 0.2621670784	-1.4988956486	-1.5109200831	 0.111918
H	 1.6988019531	 0.7819321476	-2.219024782	 0.288577
H	 3.8916010323	-1.7264691038	-0.0784957266	 0.112732
H	 1.6597175233	 0.2701390603	 2.8691440214	 0.133416
