18
gdb 89139	2.13251	1.70936	1.16838	4.8844	77.21	-0.2528	0.0288	0.2816	1110.4797	0.14633	-401.932877	-401.924073	-401.923129	-401.966029	32.908	
C	-0.1880702292	 1.5097575794	-0.077801009	-0.430623
C	 0.0952163337	 0.0321979695	 0.0766880631	 0.136962
O	 1.1699241652	-0.4795973871	-0.7790253165	-0.327026
C	 1.7316425463	-1.1910262978	 0.3181286698	 0.451966
C	 2.2601091424	-2.5648958186	 0.0669455152	-0.490141
C	 2.2684213298	-0.2227867314	 1.3560286156	-0.252111
C	 2.8526112572	 1.0503720431	 1.0340369577	 0.311905
N	 3.3570674541	 2.0630122669	 0.7914240187	-0.35292
C	 0.776477491	-0.5658526563	 1.3077490109	-0.222516
H	 0.6836021714	 2.1235810461	 0.150301442	 0.162988
H	-0.4999425374	 1.7187083218	-1.1059815119	 0.1332
H	-1.0089679972	 1.7966349224	 0.5882418176	 0.121055
H	-0.8095191021	-0.5508732148	-0.1402922725	 0.094578
H	 3.1003193439	-2.5233258862	-0.6342917433	 0.148146
H	 2.6118393224	-3.0226476677	 0.9953864647	 0.129252
H	 1.4840676653	-3.2012970487	-0.3685883605	 0.137842
H	 2.7639407805	-0.7204844156	 2.1857586451	 0.135669
H	 0.2793729829	-0.974427495	 2.1776028734	 0.111774
