19
gdb 37891	3.0804	2.09781	1.69127	1.4954	77.74	-0.2285	0.0987	0.3272	867.2124	0.163279	-385.843436	-385.837445	-385.836501	-385.873364	26.44	
C	-0.0671167385	 1.5470772905	 0.016593176	-0.345413
C	 1.4785655219	 1.2767999019	 0.0056387074	-0.124518
C	 1.2265239144	 0.0439575694	 0.9115716942	 0.122428
O	 2.1103050983	-1.0236957417	 0.6151467128	-0.290007
C	 1.8643084325	-1.1634074206	-0.8002542048	 0.044372
C	 0.6491094164	-2.1187463037	-0.9760348697	-0.208077
C	-0.5990082628	-1.3176972975	-0.4212043856	-0.357098
C	 0.0653993778	 0.0120574725	-0.1251974595	 0.300044
C	 1.2588631645	 0.2117743934	-1.1105460478	-0.043367
H	-0.4912386948	 1.9357643093	 0.947510658	 0.09398
H	-0.466308511	 2.0838983613	-0.8476094851	 0.098812
H	 2.278228037	 2.0141665882	 0.0818050035	 0.073062
H	 1.0524696592	 0.1374928348	 1.9835755607	 0.078323
H	 2.7771514415	-1.4865592584	-1.3030773488	 0.070968
H	 0.5109392208	-2.3634618161	-2.0349390688	 0.097586
H	 0.8216361731	-3.0530357238	-0.4367226282	 0.110284
H	-1.3891159865	-1.2394096242	-1.1737834588	 0.103223
H	-1.0295029317	-1.7930536653	 0.4647472939	 0.105994
H	 1.0595676479	 0.5018204399	-2.1426203795	 0.069406
