18
gdb 120084	4.40232	1.06863	0.98736	2.7493	71.94	-0.2207	0.0648	0.2856	1217.0409	0.14641	-438.945752	-438.937845	-438.936901	-438.978603	30.318	
O	 0.1039861792	 1.4156048341	 0.1021654331	-0.415067
C	 0.1499366179	 0.0057384381	-0.0863184016	-0.074771
C	-1.2708697947	-0.5300316486	-0.010706935	-0.134717
N	-2.0515940619	-0.1343516269	-1.1826553806	-0.131767
C	-2.6586587487	 1.2330938174	-1.1401237198	-0.055727
C	-3.8522527618	 0.780757419	-2.0273994326	 0.079531
O	-4.87956977	 1.3293145677	-1.1555955081	-0.329636
C	-3.8764824709	 0.832688001	-0.2253108532	 0.07486
C	-3.512367479	-0.4231183802	-1.1024994742	-0.072685
H	 0.9790937979	 1.7728628184	-0.0728574202	 0.289047
H	 0.573623085	-0.2524366575	-1.067473692	 0.098725
H	 0.7618934784	-0.476036263	 0.6924318805	 0.08456
H	-1.2259718271	-1.6258983915	 0.0071933328	 0.100446
H	-1.7185930652	-0.2017712666	 0.9441732631	 0.090913
H	-2.077229228	 2.1512742902	-1.1601613655	 0.10419
H	-3.9848655687	 0.8215929347	-3.1069244727	 0.102917
H	-4.0653189065	 0.9542131638	 0.8407078189	 0.100913
H	-3.9353358257	-1.4289713502	-1.090376953	 0.088267
