20
gdb 58850	2.50299	1.45219	1.08109	3.5628	79.55	-0.2331	-0.0135	0.2196	1185.2759	0.169565	-403.129087	-403.119885	-403.118941	-403.163183	34.604	
C	-0.0889634319	 1.5777257266	 0.2664042313	-0.393609
C	 0.0196515358	 0.0599643978	 0.0342086222	-0.104784
C	 0.895694341	-0.617965474	 1.0962268759	-0.414467
C	-1.3569664257	-0.5430383404	-0.0779611431	 0.237549
N	-2.2473097244	-0.8440744618	 1.1017986311	-0.367914
C	-1.9461163221	-1.9162946992	 0.1420230475	-0.133672
C	-2.9763660669	-1.7525744663	-0.9830010677	-0.342503
C	-2.3230991641	-0.3624213183	-1.2345118319	 0.403118
O	-2.3922764852	 0.4344742027	-2.1257066559	-0.318362
H	 0.9037480108	 2.0387169907	 0.2745152937	 0.110307
H	-0.6816844262	 2.0459653187	-0.5234812949	 0.147121
H	-0.5710305923	 1.7921706205	 1.2264129207	 0.118957
H	 0.4987374984	-0.0921611012	-0.9428181874	 0.093513
H	 0.9610025821	-1.6997792961	 0.940838589	 0.117245
H	 1.9118295403	-0.2142768393	 1.0583483191	 0.124764
H	 0.5193752454	-0.4377025304	 2.1101135623	 0.117402
H	-1.6165555622	-0.9553431957	 1.8966829071	 0.234652
H	-1.4307897205	-2.8207406545	 0.4376194965	 0.109641
H	-2.8256402083	-2.4067109023	-1.8464397164	 0.128238
H	-4.0234790942	-1.7658302274	-0.6739592489	 0.132801
