16
gdb 54714	4.46907	1.1963	1.08943	2.5909	69.5	-0.2378	0.013	0.2508	1105.2228	0.12224	-437.792339	-437.784587	-437.783643	-437.825442	28.7	
C	-0.0489673633	 1.4825687152	-0.1196966286	-0.485129
C	 0.01568569	-0.0324255322	-0.0272519969	 0.365794
O	 0.9795055393	-0.683081704	-0.377798799	-0.349
N	-1.0860728846	-0.6268691225	 0.5670664027	-0.112925
C	-2.5192966024	-0.3957877874	 0.2313348807	-0.097104
C	-2.5539956366	-1.5217021514	-0.8659398816	 0.090594
O	-3.6863615426	-2.2121590356	-0.2753918681	-0.321675
C	-2.9329318725	-1.7534499977	 0.8800786962	 0.088992
C	-1.5349503754	-2.0017786617	 0.230531539	-0.07288
H	 0.9616347594	 1.8714103012	-0.2451667622	 0.150619
H	-0.6428575068	 1.7778316165	-0.9926038198	 0.139558
H	-0.5136036036	 1.9232639982	 0.7660899938	 0.136951
H	-3.0150777171	 0.5727052995	 0.2661905582	 0.109617
H	-2.4672292887	-1.4703199377	-1.9510145261	 0.116348
H	-3.2965456066	-1.9731465231	 1.8821282889	 0.114941
H	-0.8891401785	-2.8748253872	 0.2546767728	 0.125298
