13
gdb 43518	2.67621	1.47738	1.04021	2.4484	66.65	-0.2791	-0.0143	0.2648	1082.1984	0.089242	-452.762918	-452.755157	-452.754213	-452.795788	28.473	
N	-0.0859330449	 1.3085802656	-0.0192572585	-0.518728
C	 0.0271259511	 0.0518402512	 0.0085813353	 0.380058
N	 1.1232428497	-0.7896565143	-0.0041206867	-0.419252
C	 0.7862890916	-2.1404380772	-0.019003554	 0.496005
O	 1.5305143594	-3.0729355025	-0.0472521856	-0.367238
O	-0.5700613392	-2.2307682856	-0.0075629213	-0.232736
C	-1.1672087336	-0.9142110403	 0.048724613	-0.131625
C	-1.9911162489	-0.7681009857	 1.2368859762	 0.365007
C	-2.6774760085	-0.6493751837	 2.2137308791	-0.450965
H	 0.816864026	 1.7828274605	-0.0506521891	 0.224294
H	 2.0872812759	-0.4990364071	-0.022784803	 0.279554
H	-1.7715032252	-0.7831318661	-0.8552098417	 0.159482
H	-3.2846281233	-0.5404459248	 3.0789256962	 0.216144
