25
gdb 58416	1.89927	1.31033	1.21985	1.3817	88.74	-0.2414	0.0704	0.3119	1293.8563	0.226006	-389.486	-389.474628	-389.473684	-389.521611	42.601	
C	 0.6358771413	 0.2812067707	 1.1603761141	-0.405859
C	-0.1843650238	 0.137801392	-0.1316004567	-0.004545
C	-0.9144772255	 1.4474931102	-0.4741295132	-0.402916
C	 0.6673918329	-0.362662742	-1.3030448459	 0.321131
C	 1.849949195	 0.5107027853	-1.6944120788	-0.470523
C	 0.8661018933	-1.864188037	-1.5121626565	-0.103835
C	 0.2891078814	-2.9349226437	-0.6095130419	-0.430758
C	-0.0305657106	-1.0655754362	-2.4409689365	 0.023858
O	-1.4225179922	-1.2040649643	-2.34595495	-0.420233
H	 1.1606448155	-0.6466473887	 1.4098060548	 0.110908
H	 1.3847648744	 1.0764857612	 1.0789934063	 0.112227
H	-0.0168486561	 0.5350546152	 2.0023284822	 0.107323
H	-0.9604436343	-0.6099564189	 0.0498965006	 0.083373
H	-0.2149212733	 2.2730926281	-0.6448744137	 0.1071
H	-1.5286122091	 1.3254965978	-1.3702388303	 0.130361
H	-1.5714754802	 1.7452573841	 0.3502316147	 0.103181
H	 2.5963487823	 0.5597747102	-0.8943799995	 0.117
H	 2.352073989	 0.1114723084	-2.5813515629	 0.10895
H	 1.5404215799	 1.53478135	-1.928429688	 0.117849
H	 1.835235243	-2.1291542127	-1.9302094557	 0.073877
H	-0.7596912593	-2.7469345113	-0.3702603085	 0.128686
H	 0.3426849493	-3.9142619905	-1.0995242657	 0.10903
H	 0.8423883604	-3.0133233341	 0.3323463216	 0.119952
H	 0.3250655168	-0.8621001544	-3.4519909912	 0.075542
H	-1.6673956198	-2.0467444594	-2.7425347694	 0.288321
