19
gdb 106783	2.27625	1.45933	1.1111	2.7616	71.53	-0.2472	0.0578	0.305	1146.5899	0.15795	-460.117118	-460.107921	-460.106977	-460.151	35.036	
O	-0.017772878	 1.5215453418	 0.0018985986	-0.419687
C	 0.0531856418	 0.1042868865	 0.0532532836	-0.18217
C	-1.3212611651	-0.5132612958	 0.0330925916	 0.234736
C	-2.0082484435	-1.137489996	-1.1629405235	-0.395347
C	-1.8268734182	-1.9510431819	 0.0900977588	 0.329621
O	-1.0660549156	-3.1069392497	 0.129606319	-0.464961
C	-2.8860906227	-1.5783780909	 1.1380624309	-0.333637
C	-2.4125837094	-0.0918090295	 1.0344731381	 0.100143
O	-1.9289015888	 0.5044900522	 2.2256135996	-0.444408
H	-0.4853031482	 1.7907578885	 0.8023120323	 0.291467
H	 0.6398211739	-0.2174840956	-0.8123100846	 0.114822
H	 0.6022973121	-0.2252872092	 0.9503085229	 0.081933
H	-2.9923061891	-0.8012979687	-1.4864847384	 0.103905
H	-1.3329694803	-1.4054072132	-1.9706298305	 0.116853
H	-1.4895540575	-3.7718697169	-0.4244366307	 0.287402
H	-3.9338496144	-1.8032339496	 0.9105406549	 0.096045
H	-2.6411747985	-1.9863988543	 2.1236320643	 0.104526
H	-3.1514906766	 0.611892867	 0.6402382737	 0.093491
H	-1.3535686117	-0.1294945046	 2.6688061294	 0.285265
