19
gdb 17170	3.84777	1.88475	1.61306	1.594	75.58	-0.2257	0.094	0.3197	885.1572	0.166054	-327.835656	-327.828458	-327.827514	-327.866988	28.301	
C	-0.0412528034	 1.5135625457	 0.0563890467	-0.378646
C	-0.0739106415	-0.0179937684	-0.0142308404	-0.320618
C	-1.4722420157	-0.5657709106	-0.0894120226	 0.392896
C	-2.5760254	-0.2760988583	-1.1207733052	-0.303619
C	-3.2289931308	-1.1382493831	-0.0422904873	-0.000304
C	-1.9723160982	-2.0269164487	 0.1809278432	-0.114064
C	-2.0465492555	-1.7183304407	 1.6706886876	-0.193302
N	-2.4901140125	-0.3785623984	 1.0912050389	-0.18849
H	 0.9854042891	 1.8796727608	 0.1488645236	 0.110288
H	-0.4764230301	 1.961182056	-0.8429178314	 0.117582
H	-0.6147898253	 1.8693638984	 0.916874281	 0.139128
H	 0.485095967	-0.3700751917	-0.8912685341	 0.102049
H	 0.4318684321	-0.4424419512	 0.8623086824	 0.102434
H	-2.9223019571	 0.7591954914	-1.1849536699	 0.10605
H	-2.4552966779	-0.7259014075	-2.110137262	 0.094478
H	-4.2737985568	-1.4256669571	 0.0883863386	 0.079271
H	-1.6898007809	-2.9427535239	-0.3508589028	 0.059879
H	-2.8270347092	-2.2126689616	 2.2589445653	 0.097086
H	-1.1162370031	-1.6671566311	 2.2454119782	 0.0979
