16
gdb 43333	3.00475	1.53954	1.13495	5.1519	79.5	-0.2423	-0.0645	0.1777	1052.3318	0.126855	-400.743406	-400.736238	-400.735294	-400.775637	27.809	
O	-0.0135939107	 0.0845738021	-0.7235973206	-0.340659
C	-0.0183808896	 1.2020695574	-0.2254509346	 0.331126
C	-1.3234897777	 1.8699643631	-0.0099103671	-0.160613
C	-1.6370113795	 2.9786553649	 0.6706128226	-0.02201
C	-0.7871509195	 3.8261723867	 1.5282149419	-0.090457
N	-0.0377852764	 3.1796071482	 2.6222736597	-0.316292
C	 0.7213622326	 3.828895301	 1.5366029979	-0.090457
C	 1.5837609944	 2.9844690577	 0.688521506	-0.02201
C	 1.2818307852	 1.874667117	 0.0045762188	-0.160613
H	-2.1228544743	 1.3330666595	-0.5135680946	 0.113374
H	-2.6764007064	 3.2996487646	 0.6321561665	 0.106687
H	-1.234707106	 4.790890853	 1.7584111296	 0.095278
H	-0.0434379015	 3.7801583309	 3.4435775892	 0.241309
H	 1.1628450486	 4.7952187203	 1.7717423338	 0.095278
H	 2.6223482787	 3.3092129589	 0.6616193681	 0.106687
H	 2.0886799721	 1.3406683447	-0.4901498372	 0.113374
