22
gdb 18519	5.18968	1.02605	0.97028	0.2756	81.93	-0.2488	0.0891	0.3378	1312.9632	0.20095	-313.047352	-313.038896	-313.037952	-313.080535	32.231	
C	-0.0803331198	 1.5823788618	-0.0302325252	-0.379606
C	 0.0889220756	 0.0607022659	-0.020748371	-0.16011
C	 0.6428468567	-0.477273993	 1.3042913269	-0.186153
C	 0.8125713449	-1.9938978033	 1.3174802392	 0.029967
C	 1.9285835592	-2.6627139872	 0.4342969242	-0.25003
C	 2.4770700982	-3.3604984087	 1.6851186474	-0.036659
C	 2.8855050482	-2.3372030705	 2.7048212961	-0.273335
C	 1.4252163162	-2.6691953908	 2.5559013409	-0.07052
H	 0.8762883864	 2.0878351554	 0.143779772	 0.112531
H	-0.4740024975	 1.9366767909	-0.9882537977	 0.109116
H	-0.771606384	 1.9085616759	 0.7550040705	 0.11246
H	-0.8779173519	-0.4171448295	-0.2285829064	 0.091453
H	 0.755163123	-0.2380323415	-0.8407216904	 0.097535
H	 1.604616279	 0.0081319517	 1.5171826536	 0.089459
H	-0.0300044134	-0.1871583724	 2.1239269429	 0.089108
H	-0.1508767316	-2.4614202309	 1.0847846953	 0.067863
H	 1.5206482618	-3.3471644911	-0.3124922455	 0.099422
H	 2.6259659368	-1.9806194696	-0.0659642015	 0.089505
H	 2.8283722496	-4.3842298669	 1.7291324705	 0.081074
H	 3.352539472	-2.7323789185	 3.6015399577	 0.107044
H	 3.2811458072	-1.3740219708	 2.3910409044	 0.102523
H	 0.8558324634	-3.0735774369	 3.3851008363	 0.077353
