21
gdb 36944	4.41484	0.91208	0.86308	0.7471	79.21	-0.2499	0.0889	0.3388	1435.7441	0.183511	-424.217319	-424.208671	-424.207726	-424.251754	32.372	
C	 0.18562804	 1.5706431419	 0.3499621628	-0.289928
C	 1.0047986327	 0.4057036919	-0.1731170405	-0.286426
C	-0.4713869989	 0.2549122026	 0.0958186588	 0.137862
O	-0.8791379457	-0.4573892794	 1.2296485295	-0.266236
C	-0.9717068889	-1.8520800528	 1.0172253341	 0.229046
C	-1.3484308633	-2.5032831237	 2.3644178716	-0.263187
C	-2.7626099348	-3.0767021548	 2.1231748443	-0.210149
C	-3.203710662	-2.338231745	 0.8542391152	-0.088584
O	-1.9991048762	-2.1769183875	 0.1047343272	-0.250906
H	 0.3284280268	 1.8452830091	 1.3888691881	 0.122556
H	-0.0367671997	 2.3981243922	-0.3141832324	 0.113157
H	 1.3482473413	 0.4245410106	-1.2014812265	 0.113047
H	 1.6838547452	-0.0680034068	 0.5270569274	 0.116081
H	-1.1408155773	 0.155855564	-0.7543155686	 0.101218
H	-0.0382320941	-2.2163567782	 0.5710223967	 0.072988
H	-0.6297072511	-3.2742072283	 2.6489078815	 0.107601
H	-1.3419813406	-1.7313148998	 3.1363816794	 0.122062
H	-2.7170001539	-4.1526122014	 1.9312214961	 0.108319
H	-3.4391785146	-2.9125510316	 2.9651602047	 0.103868
H	-3.909424223	-2.8946797195	 0.233067282	 0.106165
H	-3.641610552	-1.3592385136	 1.0954060886	 0.101446
