17
gdb 95471	2.91003	1.22313	0.88771	5.8904	73.2	-0.2414	-0.0151	0.2263	1264.0323	0.136815	-455.179108	-455.170532	-455.169588	-455.212926	31.121	
O	 0.2372242404	 1.390081497	-0.0463165083	-0.441156
C	 0.047453831	-0.0183854699	-0.0365479149	 0.012103
C	-1.3993804511	-0.5277594449	 0.0000562787	-0.260106
C	-1.3316870164	-1.7628025945	-0.9347686697	-0.161163
N	-0.1998515345	-1.543345821	-1.8482582072	-0.252414
C	 0.5069154091	-0.602052918	-1.3680594837	 0.421347
N	 1.6648304371	-0.0620680332	-1.9051817642	-0.385789
C	 2.3882183548	-0.4744936821	-3.0096738162	 0.155004
O	 2.1784961735	-1.4483779121	-3.681345983	-0.264074
H	 0.1422422024	 1.7196034797	 0.8520760944	 0.295385
H	 0.6510308139	-0.470331983	 0.7679034766	 0.091627
H	-1.7603964003	-0.7580725921	 1.0051027251	 0.099269
H	-2.0413179463	 0.2458960635	-0.433363195	 0.120509
H	-1.1617575756	-2.6885732739	-0.3691868053	 0.112665
H	-2.248231331	-1.9112237627	-1.5131583618	 0.116982
H	 1.9528287643	 0.8001649959	-1.4625331783	 0.262467
H	 3.2262090887	 0.2284032015	-3.1961218773	 0.077342
