19
gdb 118368	3.46657	0.83909	0.71447	4.6669	79.22	-0.2511	-0.0345	0.2166	1596.0008	0.157962	-456.363871	-456.353852	-456.352908	-456.399788	34.918	
C	-0.2653502873	 1.5303490104	-0.1042274457	-0.315716
N	-0.0803631783	 0.1027309756	 0.0453322276	-0.225015
C	 0.4894308815	-0.5192050177	-0.893424804	 0.12185
N	 0.7070813268	-1.9054138651	-0.8857497078	-0.105358
C	 1.4694480576	-2.5253702352	-1.9827127987	-0.208585
C	 2.8103508286	-3.1617278654	-1.5720884186	-0.040802
O	 2.7024304994	-4.4999597398	-1.1654160137	-0.423702
C	 0.1624182242	-2.6878159112	 0.1053261327	 0.172629
O	 0.3575278718	-3.8845688759	 0.2121449096	-0.344181
H	 0.1488481664	 1.9341711664	-1.0418946776	 0.102223
H	-1.334481461	 1.768055918	-0.0673780685	 0.135606
H	 0.2055188708	 2.0501756534	 0.7374466236	 0.135999
H	 0.8699223452	-0.0401282543	-1.8052457853	 0.09852
H	 0.852875746	-3.2983584043	-2.4530646968	 0.140108
H	 1.6457808107	-1.7370685276	-2.71919299	 0.115642
H	 3.4683005755	-3.153794609	-2.4495049556	 0.107295
H	 3.2834020692	-2.5208312626	-0.8075948061	 0.08537
H	 1.9466250516	-4.5495878504	-0.5585267822	 0.304562
H	-0.4743654991	-2.1134143552	 0.789213727	 0.143556
