21
gdb 102326	2.05915	0.99772	0.79583	1.3482	76.79	-0.2421	-0.0286	0.2135	1540.9492	0.178049	-461.360369	-461.349223	-461.348279	-461.397753	38.689	
C	-0.2636747779	 1.3741938942	 0.3691999699	-0.244618
O	-0.0523130985	-0.0225135479	 0.3137920506	-0.246297
C	 0.5250262001	-0.4618055944	-0.8997538781	 0.03211
C	 1.2059069267	-1.8122471262	-0.6488707595	-0.226418
C	 2.4298783193	-1.6821117385	 0.2694309498	 0.132919
C	 3.0670133994	-3.0382087593	 0.5686602548	-0.408376
O	 3.381677875	-0.766501919	-0.2691132218	-0.430668
C	-0.5422128327	-0.6080548956	-1.9801320333	 0.131513
O	-0.3051828072	-0.8142359196	-3.1420673751	-0.251058
H	 0.6826162624	 1.9268043888	 0.2770379272	 0.121701
H	-0.9459635616	 1.7241643944	-0.4203964429	 0.109212
H	-0.7131121921	 1.5937950109	 1.340301528	 0.132044
H	 1.2906615105	 0.2449851135	-1.2528285127	 0.105584
H	 0.479783912	-2.502735459	-0.2035315663	 0.108914
H	 1.5060605872	-2.2302269491	-1.6177870018	 0.109167
H	 2.1044461679	-1.2165532837	 1.205315152	 0.106559
H	 3.9439203418	-2.9105384908	 1.2088948648	 0.126429
H	 2.3612272852	-3.7054252468	 1.0736197832	 0.120245
H	 3.386965017	-3.5320693619	-0.3578481035	 0.107911
H	 3.7617399564	-1.168597719	-1.0588362717	 0.278369
H	-1.5841456209	-0.540474541	-1.5882824236	 0.084757
