17
gdb 14963	4.48649	1.53607	1.20393	2.3796	68.11	-0.2425	0.0188	0.2613	1003.2212	0.142879	-400.997649	-400.989829	-400.988884	-401.030295	28.07	
C	-0.198015823	 1.4524113718	-0.0255326223	-0.327668
N	-0.1078652454	 0.0018069504	-0.0584096765	-0.288668
C	 0.6470475477	-0.5658813208	-0.8940865645	 0.381308
C	 0.6649009289	-2.0797994694	-0.988560694	-0.171424
O	 1.913139014	-2.6124342474	-1.3959674861	-0.240433
C	 2.3436151945	-1.9943312476	-2.5925875631	-0.08967
C	 2.5629578306	-0.5140417007	-2.3423797363	-0.077047
O	 1.3810573704	 0.1164165102	-1.8268999681	-0.260882
H	 0.6515667273	 1.9635546389	-0.4914196906	 0.119248
H	-1.1124657771	 1.7738885589	-0.5397902668	 0.125994
H	-0.2878084259	 1.7752968579	 1.0162498105	 0.122112
H	 0.4254490127	-2.4964268787	-0.010695991	 0.143414
H	-0.1228511081	-2.3860005292	-1.699401672	 0.110667
H	 3.2810133815	-2.4732288104	-2.8900714939	 0.118156
H	 1.6024291133	-2.1420439871	-3.3958724107	 0.098403
H	 3.3800776402	-0.3787310104	-1.6221949088	 0.118296
H	 2.8119315284	 0.0190216936	-3.2642718958	 0.118197
