17
gdb 89814	3.3106	1.36006	1.13571	2.3926	67.23	-0.2617	0.0692	0.3309	1075.4202	0.13601	-458.92449	-458.916921	-458.915977	-458.956587	29.646	
O	 0.0049107431	 1.4263454557	-0.022374814	-0.438986
C	 0.0145697648	 0.015325371	-0.0782161648	 0.134643
C	 0.8210262213	-0.6674413013	 1.0623027873	-0.367061
C	 0.1066056074	-1.9895908625	 1.3200869584	 0.464387
C	 0.743321822	-3.3111612451	 1.2423843218	-0.258214
O	 0.3951369276	-2.7292767549	 2.5021815524	-0.280342
C	-1.3211387505	-1.7840858672	 0.9031984738	-0.048564
O	-1.870565648	-0.5427233617	 1.3780737965	-0.268737
C	-1.3728020866	-0.6047348236	 0.0320709232	-0.009242
H	-0.4661866831	 1.6704619	 0.7836068901	 0.289514
H	 0.4426460486	-0.2363510077	-1.0550840599	 0.096873
H	 1.8767478463	-0.7905712155	 0.8155452553	 0.11389
H	 0.7568083196	-0.0494988506	 1.9627010049	 0.12664
H	 0.16084106	-4.1864140281	 0.955211644	 0.115795
H	 1.8102194873	-3.3750532678	 1.0322778334	 0.118337
H	-2.0166268144	-2.6162870017	 0.8434491431	 0.106222
H	-2.1120334054	-0.4659624189	-0.7520921454	 0.104847
