17
gdb 17755	2.8924	2.73454	1.85256	1.9741	71.3	-0.2055	0.0741	0.2796	789.1869	0.141114	-326.615041	-326.607862	-326.606918	-326.645903	27.973	
C	-0.0148100486	 1.5150993076	 0.0791751886	-0.529665
C	 0.0049952361	 0.0255877631	-0.0043747603	 0.289629
C	 0.8421064412	-0.9791962764	-0.8435286214	-0.117325
C	 0.7689864018	-1.9900557031	 0.2416829511	-0.04814
C	-0.0655982452	-1.0301990129	 1.1194140491	-0.225741
C	-1.0973063055	-1.010516331	 0.0115596351	 0.334903
C	-2.5835175746	-0.9392359908	-0.0049240026	-0.52066
N	-0.2762595501	-1.9889306277	-0.8419005494	-0.210462
H	 0.9531073308	 1.913438514	 0.4057119023	 0.124598
H	-0.2538654543	 1.9702819733	-0.8894403898	 0.124699
H	-0.7688821153	 1.8531113374	 0.7985520287	 0.123221
H	 1.5155125421	-0.867363121	-1.6861449393	 0.09088
H	 1.3755990693	-2.861916602	 0.4572330856	 0.093099
H	-0.1635677532	-0.8804277949	 2.1860403762	 0.088694
H	-2.9388389413	-0.1596319169	 0.6773184053	 0.121975
H	-2.954317736	-0.7085437186	-1.0099966658	 0.129244
H	-3.0253411573	-1.8916330101	 0.3086425465	 0.131052
