18
gdb 65613	3.273	1.26868	1.19092	2.5755	75.46	-0.2613	0.0286	0.2898	1095.9862	0.147881	-401.928258	-401.920092	-401.919148	-401.961177	30.969	
C	-0.3768187724	 1.6217265889	-0.0107613795	-0.457596
C	-0.066676275	 0.1212527087	 0.0265111957	 0.14046
C	 1.1589797033	-0.3499370283	-0.8532218518	-0.285108
C	 1.8935194805	-0.8006257732	 0.4199617872	 0.129253
O	 2.6645839169	 0.2615788681	 1.0258298492	-0.294443
C	 1.6320747538	 0.5092796534	 2.0106672908	-0.098437
C	 0.6686087599	-0.4516803671	 1.3071059011	-0.116105
C	-1.274307482	-0.6469969858	-0.2594510454	 0.246101
N	-2.2273547225	-1.2643224473	-0.47975652	-0.346021
H	 0.5384232004	 2.2017649523	 0.127832325	 0.139862
H	-0.8043321992	 1.8933525258	-0.9801261248	 0.140583
H	-1.0941458692	 1.9003697031	 0.7667671095	 0.136115
H	 0.9082589616	-1.167094525	-1.5323911418	 0.12884
H	 1.6582945656	 0.4477821558	-1.4066363291	 0.123527
H	 2.4234710363	-1.7557889295	 0.4179081957	 0.089152
H	 1.937575065	 0.1558818649	 3.0039370162	 0.110002
H	 1.359045726	 1.567251388	 2.0797347423	 0.110525
H	 0.1034618408	-1.1617654128	 1.9065569298	 0.10329
