17
gdb 32077	3.71226	1.13062	0.87607	2.2897	77.78	-0.2408	-0.03	0.2107	1292.8585	0.136374	-418.066878	-418.058105	-418.057161	-418.101569	31.028	
C	-0.0194694236	 1.4695044502	-0.0347502057	-0.459194
C	 0.0188196314	-0.0338039853	-0.0155475937	 0.342634
N	-0.0196835887	-0.6693047353	-1.1896760144	-0.331649
C	 0.0148178093	-2.0071171439	-1.1626085626	 0.29808
C	-0.0305404679	-2.6834797518	-2.5095297545	-0.156789
O	 0.0117956753	-4.0863562254	-2.3413040147	-0.417784
C	 0.0876373338	-2.7152493296	 0.0302909636	-0.174378
C	 0.1224212483	-1.9529109754	 1.1924728301	 0.004844
N	 0.0891551462	-0.6216889561	 1.189035183	-0.28718
H	 0.8730369235	 1.8764555807	 0.45104433	 0.139545
H	-0.0764140263	 1.8362355001	-1.0597625075	 0.132082
H	-0.8819918941	 1.8327825976	 0.5329302156	 0.139546
H	-0.946763692	-2.3549487625	-3.024580801	 0.117145
H	 0.8172356897	-2.3114663637	-3.1058236364	 0.117145
H	-0.017585264	-4.4954536446	-3.2100982283	 0.295922
H	 0.1150197967	-3.7956720733	 0.0407432564	 0.126389
H	 0.1794921423	-2.4316435118	 2.1683966102	 0.113642
