17
gdb 42470	4.59429	0.68244	0.61846	1.8463	76.53	-0.2665	-0.0582	0.2084	1734.9907	0.132587	-421.780964	-421.771435	-421.770491	-421.81697	33.235	
O	-0.131265384	-0.1050295175	 0.2486156618	-0.289665
C	-0.0187282508	 1.0894125044	 0.0760080726	 0.227016
C	 1.3180450316	 1.8081811585	 0.0640133318	-0.299474
C	 2.5097704052	 0.8691105983	 0.2633849786	-0.225574
C	 3.8172322099	 1.621410342	 0.2522337233	 0.083354
C	 5.0219159831	 1.0949826523	-0.3991596735	-0.178607
O	 4.2477989865	 2.1252981152	-1.0172926019	-0.238265
C	-1.1806435641	 1.9396506883	-0.1343627657	 0.247062
C	-2.1286923171	 2.6600712774	-0.3106777616	-0.387176
H	 1.4086090304	 2.3508154742	-0.8859054543	 0.152189
H	 1.2836354399	 2.5879698327	 0.8379601472	 0.131635
H	 2.4029324878	 0.3301005183	 1.2113684744	 0.119161
H	 2.5139715426	 0.1133252771	-0.5276934886	 0.121092
H	 3.9574742372	 2.3311187852	 1.0709000742	 0.090345
H	 6.007508828	 1.3969294972	-0.0475337395	 0.115483
H	 4.9820782011	 0.1232011626	-0.8897070381	 0.116395
H	-2.9773688272	 3.2812998039	-0.4657450407	 0.215029
