15
gdb 28965	2.99368	1.54052	1.02353	2.8049	83.21	-0.2543	-0.0625	0.1918	1100.6524	0.113116	-379.697288	-379.68933	-379.688386	-379.729976	29.3	
C	-0.0385791269	 1.5198937222	-0.0056558034	-0.510954
C	-0.0112905266	 0.0184049233	-0.0011101204	 0.208411
C	-0.0275765713	-0.7302404957	-1.1759419967	-0.035208
N	-0.0042549468	-2.063385401	-1.2068799079	-0.251083
C	 0.0368611425	-2.6652224989	-0.0166488418	 0.057589
N	 0.0566193156	-2.0810196209	 1.1772447687	-0.304455
C	 0.0325082382	-0.73749776	 1.1853188213	 0.109879
C	 0.0530647725	-0.0857137157	 2.4576813779	 0.240545
C	 0.0693812392	 0.4939103163	 3.5122693883	-0.377381
H	 0.8453579787	 1.9339636847	 0.4906218853	 0.147064
H	-0.0712809469	 1.9055495249	-1.0278885369	 0.128009
H	-0.910855101	 1.9021753304	 0.5347995462	 0.147064
H	-0.0612103941	-0.2230872298	-2.1390726774	 0.11546
H	 0.0564106948	-3.7522912044	-0.0213705644	 0.120807
H	 0.084338782	 0.9883662446	 4.4525219212	 0.204251
