23
gdb 123192	9.66334	0.40855	0.39777	1.2548	90.73	-0.2539	0.035	0.2889	2741.9691	0.202242	-388.251367	-388.239889	-388.238945	-388.289501	39.768	
C	 0.0390295396	 1.5478906602	 0.0096283364	-0.380444
C	 0.0008666573	 0.0175421928	 0.0020608639	-0.163818
C	-1.4227885595	-0.5498010042	 0.0124917803	-0.162996
C	-1.4625038126	-2.0810812599	 0.0049232852	-0.198929
C	-2.8806394076	-2.63234213	 0.0154511347	-0.041694
O	-2.8170313667	-4.0460677215	 0.0074356849	-0.24566
C	-4.0972788988	-4.6424787103	 0.016512399	-0.205469
C	-3.9744779037	-6.0946255791	 0.0075815914	 0.280422
C	-3.903654649	-7.2932679257	 0.0006487906	-0.415065
H	 1.0675668987	 1.9219291226	 0.001929157	 0.112191
H	-0.4718667448	 1.9615616408	-0.8670755436	 0.113229
H	-0.4553104247	 1.9524084174	 0.8999891598	 0.113229
H	 0.5327756566	-0.3588936258	-0.8815804117	 0.09666
H	 0.5492392755	-0.3679766346	 0.871609885	 0.096659
H	-1.9552745266	-0.1723486962	 0.8968876823	 0.092997
H	-1.9717551549	-0.1632497703	-0.8577837417	 0.092998
H	-0.9445941098	-2.4682098718	-0.8808973497	 0.107413
H	-0.9279927944	-2.47732393	 0.8767410907	 0.10741
H	-3.4255078788	-2.280353547	 0.909211136	 0.084737
H	-3.4422786726	-2.2710676866	-0.8641103112	 0.084738
H	-4.6663079184	-4.3252521119	 0.9079718126	 0.116085
H	-4.6832593202	-4.3157413623	-0.8604047349	 0.116079
H	-3.8325585347	-8.3527188166	-0.0059466269	 0.199227
