16
gdb 54007	3.48947	0.99274	0.83692	2.6154	69.97	-0.2364	-0.0444	0.192	1331.404	0.123676	-471.255712	-471.246388	-471.245444	-471.290162	33.529	
N	 0.1753583299	 1.1045296894	-0.1974555699	-0.526291
C	 0.0030743087	-0.1804487249	 0.164145352	 0.394
O	 0.8904150849	-0.9659562347	 0.4545318356	-0.379532
C	-1.4617033432	-0.6177078861	 0.1878857709	 0.291342
N	-1.597530996	-1.9295399062	 0.4874469325	-0.541498
N	-2.36300481	 0.2559183116	-0.1060212316	-0.337496
C	-3.7492057946	-0.208188311	-0.1696702854	-0.242779
C	-4.2555794954	-0.4375589006	 1.2455024324	 0.152441
O	-4.2081476889	-1.5109508581	 1.8018712925	-0.244015
H	 1.1010232756	 1.4945012693	-0.2328947091	 0.26657
H	-0.6448634457	 1.6513896491	-0.4094136247	 0.276882
H	-0.7363102783	-2.3889896689	 0.7505521148	 0.276875
H	-2.4747669851	-2.278104479	 0.8467521814	 0.279904
H	-4.3504210248	 0.5638098413	-0.6600224344	 0.113676
H	-3.8462076115	-1.1507795189	-0.7283217316	 0.119521
H	-4.6175394555	 0.4636051577	 1.7833467344	 0.100399
