15
gdb 28363	3.23363	1.39899	0.98239	2.7146	71.71	-0.2285	-0.0294	0.1991	1132.6715	0.114472	-454.040519	-454.032751	-454.031807	-454.072816	29.189	
C	-0.0257099876	 1.5156600328	 0.0059100992	-0.477066
C	-0.0048819674	 0.0166110814	-0.0263257762	 0.118817
C	-0.0510790753	-0.7244105562	-1.168077808	-0.07272
N	-0.0339857271	-2.0966432396	-1.2365696327	-0.394858
C	 0.0324683225	-2.7078614644	-0.0974893303	 0.51946
O	 0.0557029714	-4.044721958	-0.024167184	-0.401047
N	 0.0832350643	-2.0870559062	 1.101937641	-0.395756
C	 0.0694561068	-0.67896589	 1.248797291	 0.37429
O	 0.1177276703	-0.1829073589	 2.3583614551	-0.377898
H	 0.8698954273	 1.9093367067	 0.4985023167	 0.141499
H	-0.0811273206	 1.9310526785	-1.0036033681	 0.117076
H	-0.880557064	 1.8832995943	 0.5837158627	 0.141453
H	-0.1069222935	-0.2268383903	-2.1330063966	 0.114656
H	 0.0143987291	-4.3625614028	-0.9373322383	 0.317539
H	 0.133957034	-2.6315664772	 1.9530794885	 0.274555
