20
gdb 63882	2.61542	1.61776	1.33681	3.4917	78.03	-0.2408	-0.0088	0.232	1045.0034	0.171327	-403.141147	-403.132889	-403.131945	-403.173346	32.996	
C	-0.0096746924	 1.5241127379	 0.0501473186	-0.446282
C	 0.0182297607	-0.009680457	 0.0211655954	 0.309545
C	-1.4090212366	-0.5520679455	-0.1114938394	-0.449158
C	 0.9879323279	-0.5849859209	-1.0875709308	-0.285386
C	 2.0085491456	-1.3246313103	-0.1865191337	-0.123601
N	 1.1760232899	-1.993556929	 0.8696306868	-0.328173
C	 0.7577337425	-0.6080331457	 1.2658273187	-0.159294
C	 2.2217945465	-0.2620845136	 0.9153833454	 0.484541
O	 3.098928673	 0.428960759	 1.3265041706	-0.323657
H	 0.9958776631	 1.9485911786	 0.1263979645	 0.133863
H	-0.4750138171	 1.9219103261	-0.8579920776	 0.116396
H	-0.5897119567	 1.8884838631	 0.9055492928	 0.117349
H	-1.8479029554	-0.2427369508	-1.0669199122	 0.120333
H	-1.4457524781	-1.6462414629	-0.0799498518	 0.105769
H	-2.0520000489	-0.1730596832	 0.6905542184	 0.118556
H	 0.4789846897	-1.2797671891	-1.763266694	 0.102514
H	 1.4469628852	 0.2008209423	-1.6950840225	 0.112872
H	 2.8167405191	-1.8918185383	-0.6452564417	 0.090296
H	 0.4098573189	-2.5385858015	 0.4749906721	 0.218755
H	 0.317290263	-0.4606180093	 2.2513912504	 0.084763
