13
gdb 23703	5.89515	1.52518	1.22084	1.7943	62.96	-0.2623	-0.0557	0.2066	911.5621	0.096076	-402.80538	-402.798752	-402.797808	-402.836621	24.076	
C	 0.0126957745	 1.5016817895	 0.01878536	-0.470904
C	 0.010143564	-0.0013358247	-0.0097991438	 0.316634
C	-0.1600252287	-0.7246376127	-1.1904663295	-0.064048
N	-0.1634332956	-2.0621287369	-1.2237824354	-0.284215
C	 0.0041249825	-2.6598182621	-0.0708024733	 0.310008
F	 0.0062568082	-3.9874486885	-0.0657816452	-0.064759
C	 0.1775833404	-1.97346144	 1.132318298	-0.138563
N	 0.1796204259	-0.6475847868	 1.1560850031	-0.274671
H	 0.9597734233	 1.8761388924	 0.4197190698	 0.14588
H	-0.1323658451	 1.9209038439	-0.9797593861	 0.126363
H	-0.782486817	 1.8742999031	 0.6720550063	 0.14588
H	-0.2981513189	-0.2159087616	-2.1407989416	 0.120642
H	 0.3133517764	-2.5110777557	 2.0661663478	 0.131755
