19
gdb 13256	5.8478	0.93917	0.87044	3.7049	73.61	-0.249	0.0335	0.2825	1334.1701	0.166339	-365.080096	-365.071625	-365.070681	-365.114713	30.203	
O	 0.0291457809	 0.6819391195	-1.1808692123	-0.322668
C	 0.0490160123	 1.3727823938	-0.1841132498	 0.154821
N	 1.1161805429	 1.5350798678	 0.6429112518	-0.273196
C	 2.4148587725	 0.9223025156	 0.4030095163	-0.192518
C	 3.4989431264	 1.939649369	 0.0728943683	 0.057479
C	 3.9928450905	 2.9143665282	 1.1833768836	-0.232647
C	 5.4385200698	 2.724199238	 0.6497072125	-0.205414
C	 4.9617387037	 1.4341735245	-0.0708890213	-0.232822
H	-0.8293639974	 1.9518395566	 0.1656976304	 0.070773
H	 1.0154452326	 2.1629254251	 1.424663266	 0.247218
H	 2.7113164191	 0.3384432375	 1.2851788541	 0.099771
H	 2.2720333867	 0.225003951	-0.4265092342	 0.148273
H	 3.2013049347	 2.5040083151	-0.8173087485	 0.084241
H	 3.5820209371	 3.9270723179	 1.1993606736	 0.096545
H	 3.8745504983	 2.4742992137	 2.1805643907	 0.093163
H	 5.7119164718	 3.5076953213	-0.0625079386	 0.106168
H	 6.2415704112	 2.628875592	 1.3838348168	 0.098439
H	 5.1358447894	 0.5430504176	 0.5420466097	 0.099536
H	 5.3339788075	 1.2381621857	-1.0788917393	 0.102836
