23
gdb 120035	2.35541	1.13899	0.89782	2.2405	82.81	-0.2419	0.0769	0.3188	1430.1575	0.203217	-425.414772	-425.404187	-425.403242	-425.451074	38.034	
C	 0.1035498071	 1.4983610957	-0.0542215167	-0.386716
C	 0.0732791458	-0.0041961043	 0.1650913339	-0.042324
O	-1.2144198218	-0.4819640896	-0.1910051934	-0.246079
C	-1.3664459319	-1.871555201	-0.0906220084	 0.04585
C	-1.9347116594	-2.4372854595	 1.2466871854	 0.130936
C	-2.1634228379	-1.4866517542	 2.4042291778	-0.404159
O	-3.1716418095	-2.8056562963	 0.590075822	-0.315066
C	-2.6888379953	-2.3842042565	-0.70809903	 0.122485
C	-3.6078374217	-1.3873183829	-1.384340609	-0.392646
H	 1.0896513181	 1.8998515458	 0.1975291564	 0.116261
H	-0.1139676656	 1.7372932688	-1.0990221	 0.128104
H	-0.6430267677	 1.993629582	 0.5729860762	 0.128697
H	 0.8371418088	-0.5037811259	-0.4533747003	 0.090748
H	 0.298864966	-0.2444979125	 1.215328861	 0.093222
H	-0.4624199266	-2.3807331742	-0.4506470158	 0.065701
H	-1.401405035	-3.3368230634	 1.5868700017	 0.064883
H	-2.5626311873	-0.533430335	 2.0503268611	 0.12903
H	-2.8805008113	-1.9303919561	 3.1017932702	 0.125947
H	-1.2319420429	-1.2990375405	 2.9495075233	 0.109891
H	-2.5337334349	-3.2575513127	-1.3575601707	 0.06966
H	-3.7171205441	-0.4834523309	-0.7824768698	 0.130383
H	-3.2120307042	-1.1049734696	-2.3652138409	 0.114588
H	-4.5937484788	-1.8404250872	-1.5273691239	 0.120603
