22
gdb 116233	1.86673	1.587	0.96422	2.5859	84.99	-0.2397	0.031	0.2707	1319.206	0.194399	-404.376616	-404.366736	-404.365792	-404.412126	35.464	
C	-0.2960675559	 1.3539187715	 0.2492862264	-0.381825
C	-0.035872508	-0.125663339	-0.0425112979	-0.183926
C	 0.8168348504	-0.366833008	-1.309390546	-0.089866
C	 1.1747012999	-1.8497049139	-1.5261712699	-0.256342
C	 0.0177126684	-2.3475254416	-2.4016417777	-0.080397
O	-0.4113427931	-1.2045091511	-3.1562342675	-0.251591
C	 0.0496727419	-0.0466925115	-2.5810282569	 0.434949
N	-0.1485821042	 1.105015053	-3.0548666953	-0.322112
C	-0.922775629	 1.2319505392	-4.2820166121	-0.327167
H	 0.6432877179	 1.8826573489	 0.4453218141	 0.112483
H	-0.7749508066	 1.8427748048	-0.6021503303	 0.146904
H	-0.9360935061	 1.470387441	 1.1293958393	 0.105413
H	 0.4872227238	-0.5832965386	 0.8066443035	 0.094433
H	-0.9901525597	-0.6604483911	-0.1376248975	 0.098182
H	 1.7061184447	 0.2660225665	-1.2575588064	 0.097486
H	 2.1202095916	-1.9394446854	-2.0694442878	 0.113067
H	 1.2645583413	-2.4133712261	-0.5944930815	 0.106704
H	 0.3037004727	-3.1304359657	-3.1084922703	 0.117347
H	-0.8259418692	-2.7128886867	-1.8031072787	 0.111805
H	-0.7502930112	 0.41110799	-4.9889409438	 0.118524
H	-1.9977594396	 1.2540114985	-4.0599179548	 0.120316
H	-0.66851647	 2.1786605754	-4.766750139	 0.115614
