19
gdb 115968	3.30616	1.24865	1.04478	1.8909	70.58	-0.2513	0.0744	0.3257	1166.1264	0.160819	-460.1402	-460.132228	-460.131284	-460.172992	30.342	
O	-0.0092340792	 1.4704923569	-0.1529422042	-0.422022
C	 0.0683140101	 0.0749195698	 0.0609266319	-0.081038
C	-1.3063945727	-0.5699463617	-0.0323278373	 0.102068
O	-1.8184063057	-0.2972252219	-1.3415282336	-0.27882
C	-2.9411189602	-1.1526593364	-1.5274199256	-0.108983
C	-2.5600523667	-2.4735268801	-0.861629688	 0.11977
O	-1.6673552211	-3.271529793	-1.6615616395	-0.287731
C	-0.5478778542	-2.9771020556	-0.8010584043	-0.082406
C	-1.4173566277	-2.0904977133	 0.1203645165	-0.129235
H	-0.4992559384	 1.5864593247	-0.975461667	 0.293983
H	 0.7510678498	-0.4024167076	-0.6578274788	 0.093229
H	 0.4789097831	-0.0727738086	 1.0655008359	 0.108041
H	-1.9603980441	-0.0927300728	 0.7181697713	 0.07553
H	-3.8375944538	-0.7304955297	-1.0441174286	 0.090728
H	-3.1231900082	-1.2584751966	-2.5993858	 0.124446
H	-3.4188644274	-3.0496360617	-0.5026761228	 0.081167
H	-0.1526744075	-3.8829200396	-0.3261070784	 0.103329
H	 0.2606708993	-2.475017802	-1.3432073113	 0.110967
H	-1.4978519555	-2.4167571809	 1.1567650238	 0.086978
