19
gdb 12807	3.35313	2.01953	1.54331	1.5798	76.59	-0.2308	0.0202	0.2509	898.0042	0.167489	-327.920547	-327.913197	-327.912253	-327.951724	29.199	
C	-0.1116074756	 1.5328584821	 0.0430195852	-0.474528
C	 0.0299521992	 0.0255308717	 0.0025591621	 0.311567
N	-0.7837225878	-0.783179839	 0.9488339684	-0.369865
C	 0.6861599201	-0.6937088762	 1.124923111	-0.085132
C	 1.4757378695	-1.967199252	 0.8398608468	-0.207861
C	 2.1069122603	-1.9688783031	-0.5669770113	-0.262715
C	 1.1553410438	-1.4551135422	-1.6210241469	-0.055227
C	 0.19961477	-0.5656645212	-1.3560318094	-0.095721
H	 0.7417385136	 2.0239661379	-0.4371298436	 0.126084
H	-1.0172844931	 1.8548614275	-0.4850697257	 0.121265
H	-0.1741558512	 1.8954762951	 1.0747445883	 0.10989
H	-1.2428277066	-0.1564561355	 1.6084308923	 0.218649
H	 1.0418731776	-0.0826476695	 1.9518625322	 0.075935
H	 2.2541810078	-2.1066706448	 1.5974781417	 0.090902
H	 0.7882794927	-2.814655868	 0.9227020732	 0.117988
H	 3.0202047434	-1.355355644	-0.5733857548	 0.108184
H	 2.4345260662	-2.9828774385	-0.8216326255	 0.102557
H	 1.2723951461	-1.8386353408	-2.6315768004	 0.087141
H	-0.4754750359	-0.2224705095	-2.1369580237	 0.080885
