20
gdb 101801	3.56782	0.74534	0.73463	2.363	73.04	-0.255	0.0583	0.3133	1651.48	0.168456	-477.458176	-477.447361	-477.446417	-477.496105	37.482	
C	 0.0265282358	 1.3515385281	-0.1475955565	-0.233448
O	 0.0172143246	-0.0289908793	 0.1278423471	-0.246968
C	-1.2576685927	-0.646738406	 0.0360596437	 0.123076
C	-1.7324632969	-0.8123300629	-1.4107424651	-0.402631
C	-1.1637917251	-1.9719258634	 0.7780008233	-0.070412
O	-0.3009326909	-2.8523501589	 0.0477045798	-0.257254
C	-0.3578951837	-4.156480454	 0.4128513672	 0.50084
N	 0.4990651616	-4.8898191022	-0.3618078354	-0.563366
O	-1.0835459645	-4.604478054	 1.2693623575	-0.398497
H	 1.0323584114	 1.71605102	 0.0760998552	 0.127821
H	-0.1973546906	 1.5786463489	-1.1999045214	 0.107227
H	-0.6944053484	 1.8969411297	 0.4826162077	 0.101764
H	-1.9946065024	-0.0383155221	 0.5902978046	 0.065844
H	-2.7067828561	-1.3107797791	-1.4358952722	 0.118352
H	-1.8434409415	 0.1558901976	-1.9055087373	 0.115834
H	-1.0181868322	-1.416369686	-1.9741109607	 0.136546
H	-0.7503997364	-1.8085049157	 1.7781489311	 0.118506
H	-2.1509426086	-2.4302478387	 0.8810498725	 0.124566
H	 1.2243846131	-4.4041910831	-0.8622741172	 0.264813
H	 0.6990124733	-5.8189744488	-0.0334346539	 0.267388
