16
gdb 116737	5.88736	0.67841	0.62748	2.8013	78.34	-0.2519	-0.0605	0.1913	1723.1339	0.11986	-437.846902	-437.836642	-437.835697	-437.88392	34.074	
C	-0.4304652673	 1.0336809134	 0.0405653159	-0.252377
O	 0.221793068	-0.2185037498	-0.1460474574	-0.188631
C	 0.5925452551	-0.8537606577	 0.9762989877	 0.154483
N	 1.1433103972	-1.9868919906	 0.9076838023	-0.21803
C	 1.47613502	-2.6330493297	 2.150145822	-0.283195
C	 0.2509324567	-3.1145139337	 2.9415979986	 0.224516
O	-0.8576222024	-2.6546507186	 2.7915173181	-0.279835
C	 0.5351566424	-4.1412284127	 3.928146473	 0.254018
C	 0.8042392272	-4.9903593768	 4.7379526981	-0.391247
H	 0.2027968157	 1.7376742674	 0.5938255612	 0.126611
H	-0.6194007274	 1.4316246433	-0.9568524444	 0.147694
H	-1.3839139361	 0.910503674	 0.5668431859	 0.138208
H	 0.3894648842	-0.2971189832	 1.9021697391	 0.084438
H	 2.1237908028	-3.4947513776	 1.9590363274	 0.135895
H	 2.0354400681	-1.9873658883	 2.8513772361	 0.130492
H	 1.0220718558	-5.7411988794	 5.4584289466	 0.216959
