18
gdb 39675	4.49369	1.02082	0.88311	2.0661	71.65	-0.2456	0.015	0.2607	1280.026	0.149476	-439.069415	-439.061402	-439.060457	-439.103774	28.393	
C	-0.0034004559	 1.4108573616	-0.2355635326	-0.090262
O	 1.2633646002	 1.593823002	 0.4227528002	-0.273035
C	 1.4515245482	 0.1664658381	 0.5540611386	-0.083235
C	 0.0377049754	-0.1169899947	 0.004349568	-0.027529
C	-0.9576109146	-0.6579255397	 1.0242966229	-0.005644
C	-2.4167658974	-0.768893771	 0.4968721798	-0.129463
O	-2.7322315041	-2.1780599678	 0.6166422242	-0.218871
C	-1.6210754517	-2.7495979562	 1.136266065	 0.121341
N	-0.6067307983	-2.0421979944	 1.4081662743	-0.272282
H	-0.8116629103	 1.9613839511	 0.2645603471	 0.096697
H	 0.031401969	 1.7169454307	-1.289375837	 0.098873
H	 2.2760072231	-0.1963451203	-0.0718945912	 0.100827
H	 1.6294868107	-0.13672221	 1.5915450686	 0.117834
H	 0.0089940784	-0.7305265934	-0.8998518238	 0.080302
H	-0.9104057062	-0.0271617048	 1.9206972579	 0.096131
H	-3.1425613922	-0.2070889452	 1.089615744	 0.124584
H	-2.5207022313	-0.4862764547	-0.5555566285	 0.119111
H	-1.699924493	-3.8212132014	 1.2836829125	 0.14462
