17
gdb 20111	5.70335	1.19407	1.15232	2.6856	71.25	-0.2542	-0.0257	0.2284	1082.8825	0.143027	-363.844631	-363.836946	-363.836002	-363.877322	28.091	
O	-0.0270287304	 0.1602393796	-0.4776767569	-0.36916
C	 0.0456337432	 1.3461274733	-0.1994562516	 0.395385
C	 1.3337501223	 2.0038884078	 0.1387001181	-0.113114
C	 2.3517842407	 1.1804307167	 0.9222509365	-0.247097
C	 2.5934406986	 1.4565763337	-0.5189767653	-0.248042
C	-1.1863457419	 2.1972109941	-0.1910650271	-0.114354
C	-2.0603866228	 2.1038987241	-1.4073691933	-0.21806
N	-2.4806503105	 1.5033749707	-0.1507866784	-0.303887
H	 1.2938580251	 3.068178153	 0.3400698078	 0.091462
H	 2.9381467649	 1.7061221835	 1.6667921774	 0.121675
H	 2.0308573524	 0.1817718943	 1.1946514792	 0.141248
H	 2.4361643772	 0.6426100117	-1.216899548	 0.14074
H	 3.3535381391	 2.1772677913	-0.7972133873	 0.120613
H	-1.137139326	 3.1360582122	 0.3523502656	 0.097996
H	-2.6168728871	 2.9833075649	-1.7186143328	 0.125306
H	-1.716302237	 1.4537954859	-2.2070181393	 0.131018
H	-2.2683160076	 0.5047837132	-0.1858634946	 0.248272
