19
gdb 111341	2.43244	1.55466	1.13401	2.2456	76.35	-0.2415	0.0747	0.3162	1138.0515	0.157605	-422.950761	-422.942193	-422.941249	-422.984229	32.094	
C	 0.25043997	 1.3353269682	 0.169418907	-0.237443
O	-0.2407233153	 0.0662801269	-0.2024709579	-0.232359
C	 0.5134739863	-0.5513238942	-1.2006954677	 0.023867
C	 1.9046938457	-1.1464521371	-0.8527145838	-0.013822
O	 1.720447642	-2.1833036591	 0.113708818	-0.236307
C	 1.4523975942	-2.4897957726	-1.2612357985	-0.084658
C	 0.0578921838	-1.9822822088	-1.562123702	 0.336088
C	-1.2547143391	-2.6220446186	-1.2453125788	-0.306168
C	-0.8588968637	-2.3706204194	-2.6831244015	-0.346752
H	 1.2596637645	 1.2729755694	 0.6020558115	 0.113112
H	 0.2829130146	 2.0259661133	-0.6884272842	 0.102062
H	-0.4300962998	 1.7383637685	 0.9226736245	 0.130676
H	 0.5921751752	 0.0905457299	-2.0949382896	 0.065961
H	 2.884705937	-0.6876393093	-0.9172837339	 0.102839
H	 2.0055333081	-3.3039657162	-1.7147944931	 0.106618
H	-1.2525565628	-3.6428644462	-0.8784558754	 0.116693
H	-2.0111843133	-1.9828422659	-0.8039330522	 0.130811
H	-1.3619570095	-1.57711117	-3.2266325099	 0.115714
H	-0.582378478	-3.2235052888	-3.2951140426	 0.113068
