19
gdb 13184	3.77923	1.37505	1.07365	2.829	72.96	-0.2265	-0.0227	0.2039	1115.0659	0.164148	-365.04552	-365.036861	-365.035917	-365.079293	30.899	
C	 0.6362235302	-0.3945453505	 1.3178886107	-0.410673
C	-0.0689229216	 0.000149546	 0.010409076	-0.034369
C	-0.0823575539	 1.5218157499	-0.0699812364	 0.162967
O	-1.0236383255	 2.2172199799	 0.2080718326	-0.248887
N	 0.6482083064	-0.5196224624	-1.135684109	-0.076341
C	 0.0165656629	-0.4244586583	-2.4720579669	-0.165843
C	 0.630532399	-1.7995307115	-2.821530929	-0.229044
C	 0.8114398499	-1.9824309007	-1.2953366561	-0.159955
H	 0.6893227347	-1.4832524841	 1.4088507549	 0.128527
H	 1.6574959514	-0.0012564165	 1.3398395247	 0.129134
H	 0.0867584327	-0.0060583729	 2.1791859702	 0.134736
H	-1.1209012783	-0.3397240011	 0.0463110508	 0.069032
H	 0.8944598063	 1.9506959419	-0.3928392988	 0.081079
H	-1.0843398641	-0.4605326763	-2.4286503726	 0.094215
H	 0.3163422032	 0.4458007931	-3.0647637342	 0.106824
H	-0.0093326589	-2.5157536321	-3.3367366888	 0.108082
H	 1.5818727319	-1.7137331116	-3.3491230753	 0.116326
H	 1.7607156714	-2.38652754	-0.9301852121	 0.105249
H	-0.0152777175	-2.5612456328	-0.8517935707	 0.088942
