20
gdb 31242	2.03897	1.48646	0.94397	2.0512	82.92	-0.1903	0.0527	0.2431	1304.3518	0.17072	-403.177155	-403.167468	-403.166524	-403.212403	34.975	
C	 0.21434704	 1.3615293833	 0.3430500502	-0.361514
C	-0.1347922207	 0.0847594694	-0.4401584005	-0.303687
C	-1.5318898306	-0.4051128781	-0.191339692	 0.18651
C	-2.545746002	-0.4750774638	-1.1203325621	 0.260165
N	-3.6807146526	-0.9582707006	-0.5095105785	-0.297303
C	-3.4123655609	-1.1902494451	 0.8191277829	-0.088662
C	-2.097322823	-0.8643155109	 1.0411142013	-0.24208
O	-2.5726956448	-0.1232873087	-2.4326621195	-0.268994
C	-2.2484592709	-1.176841723	-3.3406508213	-0.247147
H	 1.2421756766	 1.6797045981	 0.1390918791	 0.103536
H	-0.4585688376	 2.1805405886	 0.0709808412	 0.118962
H	 0.120037356	 1.2006528548	 1.4217883381	 0.114884
H	-0.0148477699	 0.2771980806	-1.5122676107	 0.099206
H	 0.5911003079	-0.698570571	-0.1835478229	 0.097444
H	-4.5751526594	-1.0367636598	-0.9608892477	 0.259462
H	-4.1749824636	-1.5622796891	 1.4836718667	 0.114685
H	-1.58162337	-0.9452474314	 1.986533827	 0.088549
H	-2.2981079798	-0.7512027244	-4.3452860329	 0.129361
H	-1.2390906183	-1.5617148098	-3.1538192142	 0.124851
H	-2.9633184165	-2.0061508292	-3.2622426642	 0.111771
