19
gdb 41618	3.37722	1.59267	1.33803	1.153	81.52	-0.2277	0.0155	0.2432	1003.6647	0.162051	-385.851806	-385.84496	-385.844016	-385.882913	28.045	
C	 0.066233494	 1.6000572685	 0.0695640666	-0.240993
C	 1.6270540144	 1.3747937196	 0.0413263159	-0.314564
C	 1.2971385072	-0.0294033997	 0.49276244	 0.287308
C	 1.491377206	-0.8966681491	 1.4838051344	-0.242638
C	 0.199528585	-1.6261696881	 1.8028829123	-0.111883
C	-0.5267303654	-1.0394227533	 3.0362497981	-0.070348
O	-1.3046843179	-0.1496453326	 2.2063514011	-0.289211
C	-0.8887862517	-0.8262070235	 0.999787805	 0.086513
C	-0.1247826839	 0.0435599171	-0.0002727438	-0.056828
H	-0.2669406799	 1.9840810308	 1.0347539687	 0.130698
H	-0.3619699559	 2.1914292686	-0.742458687	 0.100048
H	 2.0118264582	 1.4263525616	-0.9828346436	 0.110665
H	 2.2557416986	 1.9882361676	 0.6905048524	 0.110746
H	 2.3696967119	-0.9768061	 2.1154651651	 0.092077
H	 0.2294292978	-2.7168147692	 1.733563683	 0.077685
H	-1.1672703879	-1.7582591844	 3.5662238885	 0.093355
H	 0.0858681719	-0.4938612345	 3.7631241821	 0.101083
H	-1.7148984847	-1.4029575661	 0.5677343891	 0.06479
H	-0.2704979479	-0.2903311431	-1.0343388178	 0.071497
