22
gdb 107823	3.17571	1.40429	1.21727	1.8666	84.05	-0.2199	0.0779	0.2978	1131.7068	0.196395	-367.185079	-367.177088	-367.176143	-367.217291	32.377	
C	-0.1378995746	 1.5356275914	 0.0317803928	-0.387146
C	 0.1143097782	 0.0229263107	 0.0205445869	-0.287167
C	 0.7811265987	-0.4845160186	-1.2473625122	 0.334927
C	-0.0349870226	-0.4597859022	-2.5703254381	-0.19774
N	 0.296150497	-1.8926601781	-2.8759036769	-0.154354
C	 1.7652691786	-2.0719638015	-2.6622580331	-0.013011
C	 2.6889930073	-0.8606600201	-2.7142527434	-0.25358
C	 2.204558533	 0.0277252893	-1.5376305524	-0.251912
C	 0.8733923861	-2.0192043618	-1.4901704298	-0.109339
H	 0.7976274513	 2.1014999707	-0.0175444209	 0.119548
H	-0.755882913	 1.8413572501	-0.8196622915	 0.119746
H	-0.6597469972	 1.8376703963	 0.944728392	 0.114162
H	 0.734580413	-0.2514039583	 0.8850207751	 0.094013
H	-0.8404639691	-0.5026743149	 0.1521872416	 0.097517
H	-1.1143424322	-0.3888936042	-2.4085892006	 0.104218
H	 0.2553736686	 0.2613814381	-3.3438199009	 0.091761
H	 2.1074504207	-3.0247713544	-3.0525198222	 0.092558
H	 3.7314871801	-1.1698669453	-2.5939460476	 0.103286
H	 2.6227859495	-0.3459039423	-3.6791489238	 0.107086
H	 2.2209130238	 1.0940398798	-1.7849368816	 0.096635
H	 2.8403133509	-0.1200183473	-0.655986445	 0.094493
H	 0.6165604619	-2.8266739974	-0.8130586483	 0.084299
