18
gdb 62901	4.01467	1.15752	1.00662	5.323	77.5	-0.2636	0.019	0.2826	1197.9773	0.146049	-401.892726	-401.884185	-401.883241	-401.925517	32.613	
N	 0.7197087507	-1.1313815923	-0.7075341308	-0.321056
C	 0.5634838252	-0.0005862682	-0.5275693845	 0.277719
C	 0.3187119452	 1.4209565528	-0.3583227151	-0.186024
C	 0.2054805694	 1.9499008716	 1.1043927845	 0.013087
O	 1.6353643768	 1.6257117599	 1.2823523919	-0.296766
C	 1.5508390966	 2.3154705948	-0.0208609453	 0.013048
C	 0.612390082	 3.3904217508	 0.6326501566	 0.331683
C	-0.3331839495	 4.2286058127	-0.225442458	-0.482971
C	 1.2684677484	 4.2626898237	 1.7006142007	-0.463358
H	-0.3966529328	 1.7777251074	-1.0976702253	 0.120328
H	-0.4872821897	 1.6282127046	 1.8825741758	 0.112233
H	 2.4719653113	 2.432298779	-0.5925642334	 0.112229
H	-0.8448876809	 3.6789451642	-1.0169717011	 0.122919
H	-1.1014953997	 4.6855450255	 0.4073072276	 0.130916
H	 0.2214247751	 5.046064098	-0.6983354638	 0.130909
H	 1.8281682346	 5.0793127556	 1.2316624254	 0.118735
H	 0.5042412416	 4.7188270076	 2.3393384539	 0.11874
H	 1.9483791358	 3.6848236624	 2.3252646507	 0.147629
