17
gdb 69110	2.41947	1.6631	1.27636	1.5248	75.12	-0.2301	0.0304	0.2606	1033.2394	0.13398	-421.771466	-421.76289	-421.761946	-421.804499	32.768	
O	 0.047897145	 1.3437415611	-0.240813451	-0.458697
C	 0.0403627606	-0.031421021	-0.0600814284	 0.328547
C	-0.3232652984	-0.8597947456	-1.2557536384	-0.35706
C	-1.2533872565	-0.8433967754	-0.0479373948	 0.159433
O	-1.0820746114	-1.9353601405	 0.8247785124	-0.29374
C	-0.0592705636	-1.5872597565	 1.7687494912	-0.08457
C	 0.9247572655	-0.6676352479	 1.0191771514	-0.311697
C	-2.5405470906	-0.2233644753	-0.0757068295	 0.28488
C	-3.6107748309	 0.3267735994	-0.0804269432	-0.450916
H	-0.492358502	 1.7473482912	 0.4489663724	 0.289053
H	-0.648153037	-0.3075537139	-2.1301300745	 0.133596
H	 0.2019951837	-1.7910160765	-1.4378650051	 0.123055
H	-0.5049125734	-1.0602310365	 2.6255298044	 0.100109
H	 0.3831391552	-2.5193568554	 2.1280268498	 0.113896
H	 1.7560600125	-1.2296496515	 0.582164559	 0.115287
H	 1.3444147745	 0.1075053467	 1.6649682082	 0.112929
H	-4.565652673	 0.7908526577	-0.1000580338	 0.195896
