23
gdb 39309	2.73396	1.62576	1.23088	0.2407	87.81	-0.2509	0.0782	0.3291	1108.5995	0.210091	-351.150353	-351.142883	-351.141939	-351.181923	31.663	
C	 0.043367923	 1.5640259493	-0.1226863759	-0.300536
C	 1.3210141745	 0.7709833015	-0.0260963096	-0.005447
C	 2.1598716683	 0.8034410825	 1.2430173108	-0.218368
C	 1.3177780833	 0.7066532403	 2.5252036221	-0.225642
C	 0.4404192259	-0.5471835434	 2.5186711896	 0.013017
C	-0.8486880454	-0.4671083831	 3.3847291989	-0.23944
C	-1.6648334207	-0.1446538414	 2.1019475344	-0.233931
C	-0.4652275698	-0.6541028747	 1.2480722898	 0.020976
C	-0.0167203977	 0.0550842435	-0.0165767566	-0.043677
H	-0.2648696453	 2.1560749378	 0.7321642038	 0.107936
H	-0.2124112679	 2.0132860369	-1.0763472023	 0.103187
H	 1.9038059857	 0.6930666059	-0.9399118959	 0.075943
H	 2.8697391676	-0.0351904351	 1.2188670806	 0.092534
H	 2.7653957689	 1.7183793799	 1.2628048139	 0.092555
H	 1.9743463212	 0.699446993	 3.4028676155	 0.091748
H	 0.6945672272	 1.6044508262	 2.6265858194	 0.09456
H	 1.072904063	-1.4237733711	 2.6953325122	 0.057455
H	-1.1184992987	-1.435278225	 3.8156861507	 0.095146
H	-0.8593470221	 0.2788117635	 4.1848993661	 0.090785
H	-2.6233874905	-0.6535604677	 1.9721275101	 0.091499
H	-1.8308728192	 0.9285478295	 1.9750510081	 0.099073
H	-0.6184377641	-1.7118330975	 1.0110197393	 0.065599
H	-0.2869772171	-0.4524780008	-0.938217615	 0.075027
