16
gdb 17576	3.45512	2.41456	1.9439	2.6502	62.65	-0.2542	0.0689	0.3232	733.3793	0.131751	-383.688152	-383.682095	-383.68115	-383.717815	25.593	
O	-0.1141946012	 1.3843053266	 0.0503067323	-0.48842
C	 0.0435657454	 0.0043165303	 0.060716738	 0.378665
C	 0.9333573009	-0.8012527015	-0.963937294	-0.285031
C	 0.7192055189	-1.9274881134	 0.104725002	-0.085241
C	 0.7759001318	-0.7978745298	 1.1729359471	-0.282858
C	-0.8029031338	-2.150236807	-0.0625623035	 0.045978
O	-1.6272802304	-1.637945327	 0.9967442148	-0.254051
C	-1.2824743615	-0.7716592036	-0.0948571559	 0.011397
H	 0.7544958192	 1.7923609661	 0.123694976	 0.281443
H	 0.5353738554	-0.9645301668	-1.9699080398	 0.096478
H	 1.966190083	-0.442663654	-1.0143491136	 0.090288
H	 1.3679355466	-2.799088985	 0.1590247958	 0.072613
H	 1.7986562602	-0.4414595	 1.318331531	 0.0864
H	 0.2665406912	-0.9512945704	 2.1218718883	 0.123887
H	-1.2121917638	-2.97396204	-0.6372521744	 0.102143
H	-2.0967457017	-0.3793044844	-0.6937740338	 0.106309
