23
gdb 81703	2.51647	1.53445	1.26855	1.3036	84.63	-0.234	0.0816	0.3156	1134.0207	0.208441	-388.287562	-388.279438	-388.278493	-388.319528	33.438	
C	-0.0102206854	 1.5729893092	 0.0465662963	-0.422903
C	 0.0073150931	 0.0474823943	 0.0084597547	 0.014039
C	 0.7159058687	-0.5641808533	-1.2442183763	-0.004118
C	 2.0112376743	-0.6788987035	-0.3889241678	-0.269536
C	 1.129024998	-0.5997795715	 0.8853682405	 0.132862
O	 0.7760602447	-1.8336904047	 1.4843015216	-0.27137
C	 0.6571069123	-2.9777523134	 0.6515741475	-0.065639
C	-0.3142620737	-2.8418436606	-0.5274694304	-0.213822
C	 0.1523828988	-1.9254611089	-1.6776155047	-0.217949
H	 0.9823671064	 1.9973931617	-0.1420412106	 0.113367
H	-0.6884645336	 1.9761897834	-0.713352795	 0.114014
H	-0.3460453199	 1.9386838684	 1.0231163425	 0.116038
H	-0.994488382	-0.3350734756	 0.2226293466	 0.066366
H	 0.787183549	 0.0967375752	-2.1141664794	 0.057506
H	 2.6464468005	-1.5573563617	-0.5237559274	 0.096929
H	 2.6407178926	 0.2097927878	-0.4762425431	 0.099901
H	 1.5034231109	 0.0165781296	 1.7082513934	 0.071575
H	 1.6450735748	-3.2973493652	 0.2843956921	 0.087668
H	 0.3001427269	-3.7636553041	 1.3247996093	 0.104265
H	-0.4874764648	-3.847352474	-0.9305867282	 0.093114
H	-1.2795428269	-2.5000103989	-0.1368637233	 0.108868
H	-0.6954569132	-1.7686866848	-2.355800247	 0.094781
H	 0.9212619586	-2.4450674796	-2.2652962514	 0.094043
