18
gdb 124612	4.06507	1.06827	0.93949	2.4947	75.16	-0.228	-0.0089	0.2191	1289.8577	0.148565	-431.448996	-431.440008	-431.439064	-431.483672	32.84	
C	-0.1271541997	 1.3985223637	-0.2188284062	-0.385764
C	-0.0037749291	-0.1012390845	 0.0737158461	 0.066211
C	 0.7439979893	-0.3949565943	 1.3722501003	-0.391681
N	-1.3383311977	-0.7147245937	 0.0968990487	 0.135237
N	-2.0287208222	-0.9404422556	 1.1939488218	-0.133047
N	-3.1958365488	-1.4152450356	 0.8157747969	-0.280854
C	-3.1565925767	-1.4435752966	-0.5398402231	 0.448986
N	-4.2267304231	-1.8332439383	-1.3112890449	-0.576465
N	-1.9984902458	-1.0082461283	-1.0312531127	-0.330344
H	 0.8681101449	 1.8382784111	-0.330834983	 0.123453
H	-0.6877321027	 1.5655911038	-1.1415660624	 0.142013
H	-0.6414288635	 1.9083841241	 0.6014854565	 0.135608
H	 0.5048323573	-0.5869424383	-0.7643837522	 0.115901
H	 0.2424680577	 0.0631962937	 2.2272267934	 0.149319
H	 0.8152364845	-1.4697299558	 1.555246441	 0.133218
H	 1.7552774754	 0.0143973802	 1.2992248629	 0.120256
H	-4.8673983016	-2.4422406499	-0.8239826705	 0.265291
H	-3.9762498781	-2.1714310757	-2.2282679527	 0.262664
