19
gdb 39747	3.20894	1.65715	1.48236	1.5438	78.18	-0.2219	0.0933	0.3151	961.2679	0.161136	-385.839142	-385.832303	-385.831359	-385.870092	28.649	
C	-0.042999516	 1.5159465308	 0.0221103802	-0.325614
C	 1.2619220656	 0.7394738655	-0.0064848302	-0.353089
C	-0.0497049215	 0.0186751448	 0.0201951246	 0.438806
C	-0.4909253248	-0.9444348628	 1.0976685406	-0.207471
C	-1.8679402223	-1.481679317	 0.7348252113	 0.112918
O	-2.6991903374	-0.7290477238	-0.1205643487	-0.269888
C	-2.0277159678	-0.6458077455	-1.3855908944	-0.075076
C	-0.5650752063	-0.9551791479	-1.0649313899	-0.188465
C	-0.6826944427	-2.0476420957	 0.0414930757	-0.11787
H	-0.3140410936	 2.0298317582	 0.9386022722	 0.113669
H	-0.3418472875	 2.036515279	-0.8827384437	 0.1084
H	 1.8331560173	 0.7371982646	-0.9298697453	 0.108708
H	 1.8719457944	 0.7310530382	 0.8915427629	 0.110751
H	-0.0831927625	-1.0223748027	 2.1000694949	 0.08155
H	-2.4154813322	-2.0440332499	 1.4819311139	 0.101736
H	-2.4522883396	-1.3756070707	-2.0923712414	 0.089136
H	-2.1774656382	 0.3624551887	-1.7848482885	 0.106734
H	 0.0765410943	-1.1356321004	-1.9273492364	 0.075186
H	-0.3602075693	-3.0791190034	 0.0056683321	 0.089879
