15
gdb 48763	2.87422	1.44869	1.11176	5.5878	66.96	-0.2664	-0.0368	0.2296	1065.0914	0.111988	-457.800971	-457.793496	-457.792552	-457.833298	28.027	
O	-0.2223489818	 0.0515886185	 0.1980528288	-0.252186
C	-0.0387441794	 1.2301194149	 0.050088375	 0.09855
C	 1.2839157372	 1.8863949872	-0.041126906	 0.330226
C	 1.4722365996	 3.3362735302	 0.3586992408	-0.34435
C	 1.5817330609	 2.9607576742	-1.0893095234	-0.112888
C	 2.9421295449	 2.5892157687	-1.6308443192	-0.372798
C	 3.405789053	 1.4075711812	-0.7678937934	 0.409805
O	 4.4582658149	 0.850278912	-0.7850891459	-0.310536
O	 2.4042035244	 1.0548326721	 0.1039011741	-0.236313
H	-0.8792389478	 1.9576951596	-0.0384727566	 0.07589
H	 0.5893673567	 3.8859486303	 0.666844336	 0.139201
H	 2.372292441	 3.5569618725	 0.9232474948	 0.145978
H	 0.8021938196	 3.2783947831	-1.7710564365	 0.120392
H	 2.8968099454	 2.2626479087	-2.6739122693	 0.15523
H	 3.6876502113	 3.3865745667	-1.5699108091	 0.153799
