21
gdb 88776	3.65828	1.02643	0.9107	1.7412	83.63	-0.2382	0.0267	0.2649	1354.9539	0.182774	-387.086844	-387.078038	-387.077094	-387.121098	33.131	
C	 0.1218158585	 1.2872147932	-0.5685330049	-0.420581
C	-0.0972782213	-0.0327977838	 0.1257277835	 0.068257
O	 1.0351685087	-0.9015234172	 0.267178583	-0.273854
C	 0.4216449087	-0.3921892394	 1.4569574634	 0.070253
C	 1.2524932952	 0.5039800597	 2.3481469728	-0.0276
C	 0.3586613187	 1.127632732	 3.4621516451	-0.272311
C	 0.6749802121	 0.2935669289	 4.6805745162	-0.055881
C	 1.7303814499	-0.4955523698	 4.4898436281	-0.05483
C	 2.3214881924	-0.3370633102	 3.1106437153	-0.26607
H	 1.0307786298	 1.7847559987	-0.2254469312	 0.129871
H	 0.2111326452	 1.1320955252	-1.6489662109	 0.129327
H	-0.7300813476	 1.9545177336	-0.3970226245	 0.120552
H	-1.0013224141	-0.5558943683	-0.1959882583	 0.084248
H	-0.1392158591	-1.1495431053	 2.0129106395	 0.08781
H	 1.729760011	 1.2728010944	 1.7389247721	 0.071168
H	 0.6034251149	 2.1846448756	 3.6327514986	 0.105135
H	-0.7056617266	 1.1028291523	 3.194751461	 0.10096
H	 0.1078522294	 0.3713096486	 5.6017628477	 0.090012
H	 2.1557473718	-1.1613535944	 5.2329072691	 0.090858
H	 2.5167934685	-1.2916064678	 2.6086999423	 0.118961
H	 3.2868951038	 0.1848991242	 3.1567116022	 0.103714
