13
gdb 24080	7.62437	0.79677	0.73852	2.9105	65.56	-0.2473	-0.0169	0.2304	1409.2618	0.089596	-452.760939	-452.753194	-452.75225	-452.795097	26.487	
N	-0.0918694938	-1.0732554265	 0.3070974251	-0.280359
C	-0.0073903323	 0.0619394532	 0.1171715392	 0.273836
C	 0.0576691678	 1.4980855569	-0.1473489586	-0.215243
O	 1.2611341753	 2.0104017806	 0.4368251435	-0.263949
C	 1.49845167	 3.3053402072	 0.1969324014	 0.399811
C	 2.5941046901	 3.9817103141	-0.2189627496	-0.204197
N	 2.3067919584	 5.344041693	-0.1905391047	-0.246046
C	 1.086208187	 5.4128541782	 0.2169474298	 0.084135
O	 0.5101853678	 4.2073204637	 0.4855639932	-0.187916
H	 0.0553677546	 1.6720972412	-1.2309701028	 0.16445
H	-0.8207097225	 1.9899298555	 0.2848728818	 0.17618
H	 3.5515386115	 3.5938242178	-0.5224924863	 0.140368
H	 0.4676421161	 6.2839365551	 0.362103038	 0.158929
