19
gdb 45878	2.26531	1.89741	1.27893	2.6953	80.	-0.2415	-0.0142	0.2273	1035.4885	0.16097	-385.904056	-385.896337	-385.895393	-385.936184	30.581	
O	-0.2274716779	 0.0406463508	 0.5486087776	-0.30843
C	-0.0542184127	 1.1593035562	 0.1221519161	 0.340757
C	-1.2160474198	 2.0828466497	-0.2245320255	-0.338003
C	-1.4290262785	 3.1804671233	 0.8018957527	-0.037449
C	-0.6754771793	 3.504868395	 1.8545637296	-0.059904
C	 0.6168211175	 2.8410286946	 2.3000492616	-0.28898
C	 1.6441235926	 2.7036616679	 1.1855116286	 0.009136
C	 2.3950193147	 1.4155166355	 0.9511730882	-0.322526
C	 1.2955301212	 1.8091694302	 0.0096057632	-0.095151
H	-1.0395431271	 2.5453210885	-1.206646358	 0.116384
H	-2.1263449036	 1.4789537805	-0.3099085243	 0.126492
H	-2.3409087139	 3.751386619	 0.6379252222	 0.093934
H	-1.0290666046	 4.3204338005	 2.4809897224	 0.089964
H	 1.0507186309	 3.408217277	 3.1294557113	 0.100881
H	 0.3921134724	 1.8462525891	 2.705492683	 0.135081
H	 2.1594154097	 3.6258144274	 0.9325553497	 0.090846
H	 3.4184622462	 1.4721886765	 0.5978403401	 0.113939
H	 2.1871889315	 0.5772486098	 1.6078389402	 0.133861
H	 1.5403560307	 2.1877164387	-0.9787213589	 0.099168
