19
gdb 128217	2.44962	1.34877	0.8832	1.5661	81.95	-0.1734	0.0407	0.2141	1325.4707	0.160657	-415.396206	-415.386567	-415.385623	-415.430931	34.733	
C	-0.0238797057	 1.4315741898	 0.0752742568	-0.321296
N	-0.1040526094	-0.0170843727	 0.0079133809	-0.400944
C	 0.5685562694	-0.6325602258	-1.0564518374	 0.164079
C	 1.1431242616	-0.09742392	-2.1932191576	-0.115558
N	 1.6028632628	-1.1458582656	-2.9358150813	 0.040779
C	 2.4109889791	-1.0915946702	-4.127826473	-0.315471
N	 1.3764740757	-2.3364555977	-2.3318076787	-0.345553
C	 0.7451267649	-2.0323347496	-1.2041423517	 0.293067
N	 0.362561055	-2.9954545029	-0.2592624682	-0.604261
H	 1.0089619305	 1.8199179535	 0.0804562913	 0.104737
H	-0.5388288009	 1.8662958443	-0.7889100206	 0.127691
H	-0.5318411258	 1.7820291676	 0.9771695078	 0.12009
H	 0.1475202807	-0.4540890855	 0.8870625909	 0.235339
H	 1.2540760226	 0.9210442046	-2.5277446288	 0.11733
H	 3.484261525	-1.1049494238	-3.8986235248	 0.131051
H	 2.1773074728	-1.9557956543	-4.7528934155	 0.147584
H	 2.179492918	-0.1772765799	-4.6797401198	 0.130121
H	 0.531291782	-3.9291607857	-0.6153869124	 0.247038
H	-0.6167473983	-2.905787206	-0.0085596178	 0.244178
