23
gdb 122292	4.56536	0.69553	0.67681	1.4407	87.07	-0.2625	0.0804	0.3429	1749.4119	0.206238	-388.240233	-388.230921	-388.229977	-388.275184	35.146	
O	-0.0272589542	 1.4316994903	 0.0087164219	-0.423056
C	 0.0279410772	 0.0123899686	 0.0017752409	-0.074016
C	-1.4002204848	-0.5145895895	 0.0122160731	-0.164734
C	-1.4707182534	-2.0458156341	 0.0059497553	-0.353579
C	-2.881906156	-2.5819945381	 0.0158040193	 0.381947
C	-4.0043144152	-2.345688326	-1.0482151677	-0.246232
C	-4.6389665881	-3.2693197985	 0.0279063735	-0.042771
C	-3.3149368838	-4.0816014331	 0.0134974049	-0.26543
C	-3.9861750775	-2.3542185611	 1.1004608649	-0.24624
H	 0.8736624358	 1.7675545518	 0.0019047507	 0.284133
H	 0.5560070601	-0.3611865323	-0.8914240744	 0.082224
H	 0.5719460607	-0.3692369723	 0.8819132193	 0.082224
H	-1.9102221234	-0.1167096647	 0.8975500031	 0.108441
H	-1.9259850838	-0.1087942006	-0.8602127696	 0.108432
H	-0.9493361132	-2.4371645853	-0.8790624944	 0.094674
H	-0.9339935568	-2.4450922727	 0.8781526202	 0.094677
H	-4.4068087372	-1.3313798479	-1.1233721904	 0.088394
H	-3.838663747	-2.7836718944	-2.0373514236	 0.083596
H	-5.6543840306	-3.6666575343	 0.0349034457	 0.068255
H	-3.0960293469	-4.6518967812	-0.8945708429	 0.083533
H	-3.0807561155	-4.6590728283	 0.9131819373	 0.083532
H	-3.8039063939	-2.8000191772	 2.0831609753	 0.083598
H	-4.3872716424	-1.3405615789	 1.1904238976	 0.088398
