19
gdb 55316	1.87626	1.73521	1.11483	2.4393	81.5	-0.242	-0.0135	0.2284	1162.3869	0.156866	-385.868724	-385.859207	-385.858263	-385.903484	34.834	
C	 0.1886836919	 1.1584506716	 0.6643086396	-0.482444
C	 0.0929923278	-0.0084839705	-0.2975233318	 0.387174
O	 1.0105207044	-0.326740555	-1.0204582261	-0.302809
C	-1.2260039396	-0.7708033395	-0.2958791011	-0.126236
C	-1.3619531193	-1.7963363281	-1.4496136249	-0.235628
C	-0.9041188074	-2.9239705494	-0.4910227634	-0.220122
C	-1.231145076	-1.9937361036	 0.7187577447	-0.162502
C	-0.3583828092	-1.9940552922	 1.8736050687	 0.315607
C	 0.3752430326	-2.0011361545	 2.827463852	-0.452118
H	 1.1893434602	 1.5905532733	 0.6283274108	 0.138878
H	-0.552544506	 1.9224452679	 0.4018968014	 0.133955
H	-0.037205806	 0.822210582	 1.6817471781	 0.151841
H	-2.0531018283	-0.0730439069	-0.1399791337	 0.081661
H	-2.3996316619	-1.9108468074	-1.7718692845	 0.099096
H	-0.7240917894	-1.6067108931	-2.3126348098	 0.125791
H	-1.4330401097	-3.8782808599	-0.5219186264	 0.104809
H	 0.1697666265	-3.1013242797	-0.5663834425	 0.133518
H	-2.2641736682	-2.1563795797	 1.043246721	 0.110319
H	 1.0259512378	-2.0161340354	 3.6665854979	 0.19921
