15
gdb 49542	2.22812	1.89882	1.20624	6.1581	71.51	-0.2505	-0.0023	0.2482	1004.3764	0.112822	-416.761911	-416.754394	-416.753449	-416.794214	27.859	
O	 0.1256978504	 0.0494121086	 0.477225492	-0.305261
C	 0.0925039497	 1.2339188977	 0.240822882	 0.135933
N	 1.1129609687	 1.9251944003	-0.3745796635	-0.064568
C	 2.5836078891	 1.692887181	-0.1961487464	-0.038955
C	 2.791740998	 2.9372688831	-1.1079608657	-0.224953
C	 1.6635943583	 3.2967497247	-0.0994771025	-0.048127
C	 2.577668686	 2.6890820523	 1.0260384681	-0.139998
C	 1.967165478	 2.3042145158	 2.2847577026	 0.279666
N	 1.4911618448	 2.0418809541	 3.3048984752	-0.31588
H	-0.8030926329	 1.8685599898	 0.3907618328	 0.085054
H	 3.0255890108	 0.7015272125	-0.2474352578	 0.13613
H	 3.7348227674	 3.4751020294	-1.0078543719	 0.117246
H	 2.4704086437	 2.814660532	-2.1405681913	 0.131792
H	 1.0356188328	 4.1841936991	-0.0426262021	 0.121721
H	 3.5188264351	 3.2155734396	 1.2040458584	 0.130201
