20
gdb 66383	2.36099	1.44654	1.28887	3.5402	75.18	-0.2224	-0.0247	0.1977	1107.5252	0.170833	-440.288326	-440.279451	-440.278506	-440.321702	33.659	
C	 0.0764207633	 1.5372013697	 0.1636866036	-0.44531
C	-0.005820607	 0.0038781272	 0.0923200277	 0.141799
C	 0.5789946499	-0.5098530863	-1.2352235038	-0.092762
O	 0.6982195543	-1.9210109409	-1.2519266931	-0.250109
C	 1.5059543629	-2.4004299388	-0.1906565632	-0.068033
C	 0.8949913108	-2.0097204181	 1.1535912632	-0.17771
N	 0.6674151339	-0.5634770584	 1.2687153156	-0.32842
C	-1.497290448	-0.3472558553	 0.194309238	 0.166873
O	-2.2512082602	-0.3969346385	-0.7406312898	-0.257186
H	 1.1224537558	 1.861473192	 0.1228283136	 0.119103
H	-0.4590382356	 1.9916459669	-0.6738452604	 0.141587
H	-0.3565963121	 1.9033328658	 1.0993479125	 0.134479
H	-0.0834730925	-0.24681316	-2.0632564802	 0.128833
H	 1.5655394466	-0.0414909681	-1.3983446561	 0.074336
H	 1.5603109601	-3.4874704488	-0.3063309106	 0.109161
H	 2.5293341922	-1.9918011185	-0.2740573256	 0.077109
H	-0.069899086	-2.521953169	 1.2619858419	 0.117729
H	 1.5303887498	-2.3335201285	 1.98449899	 0.104329
H	 1.5565190204	-0.0904793407	 1.402115688	 0.215491
H	-1.8383628385	-0.5034795518	 1.2428444386	 0.088702
