21
gdb 114168	3.72848	0.94096	0.82318	3.2798	85.53	-0.2424	-0.016	0.2264	1452.695	0.181704	-387.084408	-387.075251	-387.074306	-387.118517	34.323	
C	-0.0211026221	 1.5483270963	 0.0566313701	-0.379625
C	-0.1525315391	 0.0265076294	-0.0617304097	-0.193925
C	 0.7074932927	-0.5553171771	-1.1809191533	 0.042739
C	 2.2694358938	-0.5565743311	-1.0286786049	-0.329102
C	 2.2886797569	-2.0632217956	-1.2885599427	 0.284573
C	 1.4355553926	-2.7917812271	-0.2725205176	-0.334803
C	 0.7269775999	-2.0821801939	-1.3697214126	-0.123156
C	 3.1968022759	-2.7648946855	-2.1958772073	 0.051703
O	 4.1413009427	-2.2568410771	-2.7556901877	-0.27407
H	 1.0142303156	 1.8438616239	 0.2578964331	 0.121939
H	-0.3314650555	 2.0452481712	-0.8692629815	 0.116042
H	-0.6419612659	 1.9388815383	 0.8685307668	 0.114359
H	 0.118065201	-0.4405184406	 0.8935939056	 0.094389
H	-1.2017736842	-0.240634641	-0.2443582553	 0.097481
H	 0.4379046161	-0.0760147811	-2.1277077798	 0.081003
H	 2.7877495092	 0.0066093945	-1.8053327497	 0.128501
H	 2.6576210854	-0.2510903547	-0.0515635748	 0.098973
H	 1.4447433683	-3.87509283	-0.351023588	 0.124239
H	 1.4232908784	-2.420515628	 0.7487138794	 0.121132
H	 0.1289359888	-2.6273604317	-2.0910073063	 0.099599
H	 2.9379430095	-3.8383288993	-2.3586996037	 0.058011
