19
gdb 126959	3.2294	1.0346	0.7967	1.5249	79.44	-0.2004	0.0155	0.2159	1448.1445	0.160273	-415.40061	-415.391086	-415.390141	-415.435557	33.898	
C	-0.0266242406	 1.4820472286	 0.0939948511	-0.40258
C	-0.085125467	-0.0322865251	-0.0708139926	-0.102229
N	 0.7824485939	-0.4629506468	-1.162710933	-0.397888
C	 0.888106012	-1.8163166603	-1.4285173778	 0.320963
N	 0.4650229964	-2.7594198532	-0.586186621	-0.300269
N	 0.8224798667	-3.8900809684	-1.2084222269	-0.098148
N	 1.427295526	-3.7550500832	-2.3769618477	-0.257418
C	 1.4897901731	-2.4355036013	-2.5557329367	 0.2418
C	 2.1086267759	-1.8048524648	-3.7577759463	-0.5159
H	 0.9968182193	 1.8142402651	 0.2912939077	 0.128432
H	-0.3821447181	 1.9950302564	-0.8077893483	 0.111813
H	-0.6617351558	 1.8007520806	 0.9251478599	 0.122717
H	 0.2613082639	-0.5295294789	 0.8403665162	 0.130358
H	-1.125236552	-0.3623517418	-0.2235751169	 0.098239
H	 0.6835403498	 0.0966813487	-1.9988125973	 0.231823
H	 0.6462941583	-4.7920071747	-0.801415889	 0.285088
H	 1.3756413347	-1.2380464471	-4.3460801805	 0.123164
H	 2.9069978002	-1.1081022117	-3.4770442112	 0.133271
H	 2.5346136534	-2.5739314019	-4.4051162298	 0.146763
