20
gdb 71027	3.74329	1.65206	1.36881	1.5082	83.29	-0.2234	0.0996	0.323	999.287	0.172616	-365.929189	-365.922049	-365.921105	-365.960163	29.867	
C	-0.1102719373	 1.4425555229	-0.0533202427	-0.512572
C	 0.1108315967	-0.0397557794	-0.0001597899	 0.347794
C	 0.6839528963	-0.9650928467	-1.1131128884	-0.38401
C	 0.219464929	-1.8918696303	 0.0146331841	 0.346404
C	-0.0774783869	-3.2751706345	 0.5449078575	-0.339635
C	-0.7859868971	-2.7982621344	 1.8692188489	-0.22349
C	-0.7062388408	-1.2606331566	 1.7165905729	-0.015734
C	 0.6708498811	-0.9185035523	 1.1503234853	-0.12132
N	-1.0549060673	-1.0365183753	 0.2455110337	-0.209489
H	 0.8400375221	 1.9749987305	-0.1695610646	 0.120031
H	-0.7544269211	 1.7061340356	-0.8986018807	 0.128711
H	-0.589247593	 1.7989894895	 0.8647794765	 0.122963
H	 0.111876294	-1.0062761323	-2.0446815344	 0.105101
H	 1.7598833916	-0.9098785817	-1.2988776856	 0.096071
H	-0.7467889004	-3.8452429817	-0.1038298967	 0.112202
H	 0.8211056342	-3.868731836	 0.7321317491	 0.102121
H	-1.82468875	-3.1361295177	 1.9189725715	 0.110939
H	-0.2712774781	-3.1495886059	 2.7683959114	 0.09997
H	-1.2284232264	-0.6585960412	 2.464019877	 0.06088
H	 1.6543427333	-0.8716287323	 1.6333533552	 0.053066
