20
gdb 103848	4.12859	0.94111	0.87863	1.7108	75.22	-0.2476	0.0711	0.3187	1374.7899	0.169981	-440.234737	-440.22526	-440.224316	-440.269221	34.967	
C	 0.0224153916	 1.5926930022	 0.0667598225	-0.474881
C	-0.1536480622	 0.0991366028	 0.211946398	 0.34577
C	-1.3183156391	-0.4950209974	-0.5614900068	-0.109883
O	-1.1317372982	-0.3497423019	-1.9586457605	-0.415561
O	 1.0421523148	-0.7145581861	 0.0554835526	-0.306526
C	 0.4056961696	-0.6689401184	 1.3393806468	-0.0296
C	 1.2097570937	-0.061595656	 2.4526355347	-0.041591
C	 2.526085689	-0.6555714539	 2.7989967483	-0.238262
N	 2.4479474361	 0.6653902814	 2.1500585878	-0.313915
H	 0.9047258431	 1.9582539637	 0.5917886374	 0.14851
H	 0.0955100124	 1.8504099275	-0.9934919519	 0.138988
H	-0.8551701973	 2.1080958507	 0.4725734815	 0.123969
H	-1.4436149748	-1.5514390015	-0.2816294702	 0.090591
H	-2.2467565872	 0.0327014534	-0.3182419937	 0.112331
H	-0.3043947692	-0.7975806702	-2.1708694763	 0.293256
H	-0.108276054	-1.5938284328	 1.6125610524	 0.092423
H	 0.6114207586	 0.3759755254	 3.2498753902	 0.100728
H	 2.8735801806	-0.6471056238	 3.8278966181	 0.120019
H	 2.8696653523	-1.4979008986	 2.2040620095	 0.120745
H	 2.6374757603	 0.5378165637	 1.1566716398	 0.242887
