12
gdb 194	8.80085	3.53327	2.54719	1.5102	51.62	-0.185	0.0556	0.2406	495.5949	0.099063	-265.441614	-265.436072	-265.435128	-265.470365	20.507	
N	 0.1369871027	 1.4094899029	 0.1334153222	-0.609529
C	-0.021138292	 0.0079430079	 0.0397793482	 0.266485
C	-1.1207967775	-0.8211858867	-0.0128278109	-0.199941
C	-0.6411619631	-2.1634272155	-0.0381640563	-0.133761
C	 0.731277805	-2.1139361333	-0.0102754921	-0.10011
N	 1.0968025565	-0.7889476971	 0.0425749733	-0.242656
H	 0.2775428415	 1.8404775669	-0.7765962167	 0.241677
H	-0.6887908669	 1.8318514135	 0.540514409	 0.244982
H	-2.1504794295	-0.4979575424	-0.0442498676	 0.078221
H	-1.2394004026	-3.0606003292	-0.0850879417	 0.087684
H	 1.4733431851	-2.8954180062	-0.0254361687	 0.109983
H	 2.0300430107	-0.4317906308	 0.1523906813	 0.256965
