18
gdb 111662	2.25727	1.71717	1.31109	3.0585	71.9	-0.24	0.031	0.2709	1039.288	0.148965	-439.103204	-439.094975	-439.094031	-439.136181	30.746	
C	 0.1365196553	 0.9587750967	 0.4850492737	-0.2499
O	-0.1477460524	-0.0372470195	-0.4879374781	-0.236028
C	-1.3636521283	-0.6676743353	-0.2816218661	 0.123234
C	-1.5094379696	-2.0828017442	-0.7278567365	-0.124078
C	-0.214468409	-2.8496570848	-1.0019521313	-0.176065
N	 0.4259765002	-2.9234868438	 0.2997517086	-0.301712
C	-0.2381095868	-2.3115623629	 1.3297357377	 0.425392
O	 0.1440910499	-2.2327807683	 2.4788282369	-0.398711
C	-1.5242480112	-1.7631496529	 0.7613562562	-0.231446
H	 1.1018328138	 1.3945822814	 0.2193741584	 0.12906
H	-0.6270229837	 1.7503339471	 0.4783220469	 0.107662
H	 0.1935054873	 0.5255522142	 1.4910982899	 0.142413
H	-2.2339629726	-0.0201631344	-0.4049112112	 0.092446
H	-2.4008834305	-2.3807427409	-1.2655517698	 0.101445
H	-0.4340582079	-3.849752241	-1.3950865327	 0.109815
H	 0.4156419729	-2.3241471902	-1.7290835975	 0.126019
H	 1.3825142761	-3.2139380429	 0.424003175	 0.250724
H	-2.4046166836	-1.788360948	 1.3901461501	 0.109732
