19
gdb 47412	2.71357	1.53841	1.19566	4.1769	74.57	-0.2602	0.0109	0.271	1085.1489	0.161169	-423.067403	-423.059527	-423.058583	-423.100103	30.081	
O	-0.3862394089	 0.0804323603	 0.509992344	-0.357787
C	-0.1782931992	 1.2501414362	 0.3521925117	 0.407725
O	-1.1841815394	 2.1615909831	 0.2480760885	-0.225451
C	-0.6495288504	 3.477314069	 0.0175790499	-0.086954
C	 0.8150011347	 3.4118794909	 0.4737928646	-0.315658
C	 1.1672011434	 1.9462032662	 0.2131113815	 0.1948
C	 2.3695904263	 1.3211354004	 0.9658447941	-0.279102
C	 3.2249780931	 1.4327833469	-0.3235662421	-0.212235
C	 1.9177500055	 1.6393724822	-1.1322993859	-0.266399
H	-0.739989141	 3.7082561119	-1.0504830822	 0.11726
H	-1.2577230606	 4.1878360656	 0.5808800221	 0.125973
H	 1.4498107496	 4.1245611398	-0.0580586856	 0.112482
H	 0.8842302139	 3.6298380533	 1.5453382542	 0.116649
H	 2.7165222743	 1.8534028876	 1.8552934513	 0.098819
H	 2.1472374268	 0.2843389784	 1.2306009986	 0.131388
H	 3.8582761408	 2.3239919987	-0.3265060405	 0.10382
H	 3.8401059429	 0.571325628	-0.5904317148	 0.107557
H	 1.5590678351	 0.709830083	-1.5804615411	 0.126707
H	 1.9016266932	 2.4289280384	-1.8881555981	 0.100407
