21
gdb 61519	3.27076	0.88156	0.84778	1.3436	84.81	-0.2548	0.0451	0.2999	1471.34	0.179291	-387.042856	-387.03258	-387.031636	-387.078107	38.732	
C	 0.1682564366	 1.6355075638	 0.0546214828	-0.386281
C	 0.0563667564	 0.0970750037	 0.0432971933	-0.17748
C	 0.6168554145	-0.5495687834	-1.249191667	-0.24115
C	-0.1174598631	-0.1513739446	-2.5171673933	 0.419404
O	-1.5018179075	-0.4096860911	-2.4939460204	-0.472324
C	 0.3506739865	 1.0111985196	-3.360941891	-0.314472
C	 0.5255576772	-0.414613923	-3.8450928776	-0.313807
C	 0.7146435664	-0.4734759355	 1.2169454411	 0.31182
C	 1.2808046651	-0.935402411	 2.1718525669	-0.454551
H	 1.2150243485	 1.9463175606	-0.0178848623	 0.125862
H	-0.3745920249	 2.0747292418	-0.7869450946	 0.112563
H	-0.2411469363	 2.0443921543	 0.981894907	 0.126509
H	-1.0080659788	-0.1708842377	 0.0983887509	 0.104483
H	 1.6790464629	-0.2983266497	-1.3465774879	 0.102479
H	 0.5544799478	-1.6377610577	-1.1378670043	 0.116675
H	-1.9330475008	 0.3078687913	-2.0179912265	 0.284309
H	-0.4138463733	 1.6075943224	-3.8470857796	 0.112531
H	 1.229590151	 1.5644715244	-3.0483229649	 0.113343
H	 1.5237628406	-0.8384480565	-3.8610493303	 0.114223
H	-0.1309988485	-0.7550706168	-4.6369411545	 0.123902
H	 1.7677230296	-1.347063755	 3.020780132	 0.191962
