21
gdb 114072	2.79718	1.20637	1.00761	1.1047	79.94	-0.2406	0.0787	0.3193	1277.0295	0.180163	-424.189029	-424.179203	-424.178259	-424.223363	36.606	
C	 0.0375765844	 1.3067112066	-0.2267465228	-0.234453
O	-0.0495823308	 0.0204154358	 0.341950951	-0.244532
C	-1.3010648642	-0.5898442519	 0.148982605	 0.088534
C	-1.6309483692	-1.183084297	-1.2711590002	-0.338722
C	-1.7308597025	-2.5581991022	-0.6063237767	 0.352626
O	-2.7034114947	-3.4995935198	-0.897042794	-0.464453
C	-0.4358417491	-2.9040945414	 0.0725676794	-0.390876
C	-1.4164897127	-1.9791866029	 0.7713203419	 0.272155
C	-1.998075916	-2.2738939607	 2.1232626772	-0.506609
H	 1.034537651	 1.6952498472	-0.0046775316	 0.125646
H	-0.0988325271	 1.2866834896	-1.3186778192	 0.106476
H	-0.71323535	 1.9912552037	 0.1992443225	 0.10296
H	-2.1047384738	 0.0794336765	 0.4929353849	 0.064313
H	-2.5894069327	-0.8303027121	-1.6586469332	 0.104986
H	-0.8578445261	-1.0635349664	-2.0380161362	 0.091086
H	-2.355930906	-4.0987930873	-1.5666361391	 0.285453
H	-0.4081978036	-3.9041031148	 0.4951277135	 0.107547
H	 0.5171783217	-2.5310835962	-0.29239434	 0.113332
H	-1.2978332216	-2.0121936722	 2.9247939849	 0.124792
H	-2.9228949986	-1.7095297635	 2.2891252639	 0.115068
H	-2.2370105386	-3.3375559311	 2.2199570287	 0.124672
