21
gdb 82134	3.02877	1.12039	0.95313	2.8115	82.5	-0.2459	-0.0198	0.226	1294.1852	0.181492	-387.071661	-387.062522	-387.061578	-387.106221	34.101	
C	-0.1572635663	 1.6552849852	 0.1557481172	-0.416121
C	-0.0211548914	 0.1409182685	 0.0338428842	 0.005951
C	 0.4529610563	-0.4493450354	-1.3043617966	-0.050832
C	 1.879615811	-0.0758799203	-1.5917480978	-0.282768
C	 1.6040366282	-1.1805882027	-0.6102617776	-0.070603
C	 1.1647194067	-0.6278207378	 0.7509282519	-0.022056
C	 2.1962556534	 0.1396879011	 1.5929222465	-0.289967
C	 1.6500347192	 0.4943849865	 2.9562050385	 0.161532
O	 1.5187384716	 1.6108505518	 3.3887700562	-0.240992
H	 0.7340833276	 2.1821000972	-0.1976378029	 0.116081
H	-1.0034982879	 2.0073946779	-0.4443618869	 0.113737
H	-0.3291304984	 1.9614118965	 1.1922183142	 0.133373
H	-0.9656042724	-0.323315171	 0.3339134009	 0.075514
H	-0.2027343395	-0.8168381635	-2.0847899745	 0.08435
H	 2.2545992048	-0.4068619971	-2.5550173846	 0.112599
H	 2.2912985683	 0.8764514171	-1.2695739597	 0.10797
H	 1.9658888169	-2.1889194027	-0.7745829705	 0.083922
H	 0.7483717893	-1.4340706131	 1.3649394409	 0.075785
H	 3.0645623938	-0.5174258968	 1.7486626205	 0.115583
H	 2.5427101096	 1.0520151238	 1.1022428279	 0.117947
H	 1.3470162393	-0.3909685652	 3.5661553523	 0.068995
