24
gdb 110834	3.23213	1.10244	0.99244	0.971	90.21	-0.2245	0.081	0.3054	1359.2011	0.216141	-368.373166	-368.363337	-368.362393	-368.407323	38.117	
C	-0.2426238979	 1.7123973692	-0.2685702703	-0.373594
C	 0.0825826912	 0.257551436	 0.0688090985	-0.117834
N	-1.1369450972	-0.5399463192	 0.0210268831	-0.07812
C	-1.5892324299	-1.279364706	-1.1306785511	-0.044312
C	-0.4596124529	-2.0480321589	-1.8469893894	-0.313494
C	-0.1934220107	-2.8544620575	-0.5250422794	 0.31491
C	-0.7445210663	-4.2801984496	-0.6455351946	-0.426319
C	 1.2244541677	-2.8961735182	 0.0459195213	-0.456115
C	-1.2609368567	-1.966721093	 0.1774568656	-0.085334
H	 0.6552972759	 2.3353007193	-0.204639144	 0.107263
H	-0.6391830998	 1.7951419344	-1.2858903277	 0.117216
H	-0.9955545222	 2.1077417607	 0.4187280593	 0.123581
H	 0.8719300574	-0.0987508297	-0.6079881693	 0.09066
H	 0.4803806503	 0.1885872043	 1.0878680718	 0.102157
H	-2.5554958175	-1.0375558612	-1.5613687207	 0.087545
H	-0.8229339023	-2.6834111907	-2.6580595549	 0.100114
H	 0.3653817304	-1.4404622202	-2.2313417566	 0.096413
H	-0.1240492111	-4.8833123576	-1.3176785408	 0.111435
H	-0.7599661434	-4.7774450837	 0.3315885333	 0.110471
H	-1.7677312184	-4.2817630385	-1.035546591	 0.113488
H	 1.6807042157	-1.9082796724	 0.125139229	 0.116057
H	 1.2233049303	-3.3422071879	 1.0474301078	 0.112434
H	 1.8753552491	-3.5131001839	-0.5852987924	 0.11004
H	-1.9304042017	-2.3341556155	 0.9516279725	 0.081339
