17
gdb 42662	2.53056	1.92123	1.73498	3.8133	71.15	-0.2264	-0.0151	0.2113	880.7707	0.139122	-421.845035	-421.838443	-421.837498	-421.875976	26.634	
O	-0.0030483534	 0.0689598748	-0.1513641135	-0.343371
C	-0.0331859016	 1.2677974405	-0.0369337219	 0.441775
C	-1.2261881267	 2.1538646266	 0.0805572562	-0.185496
C	-0.7428325386	 3.4021292781	 0.835950163	-0.071722
C	 0.7390660873	 3.207876474	 1.1607719798	-0.250076
C	 1.1726900333	 2.2322077676	 0.0581762187	-0.019456
O	 1.290274248	 2.8999341814	-1.2019168465	-0.280425
C	 0.130007842	 3.6317099162	-1.598233058	-0.092657
C	-1.0257757322	 3.4963756786	-0.6249736128	-0.058567
H	-2.2155654753	 1.73070732	 0.1927523871	 0.106266
H	-1.3989873448	 3.8891433285	 1.5473588751	 0.098313
H	 1.3163004168	 4.1370193083	 1.1314443772	 0.112634
H	 0.864237643	 2.7509356889	 2.1488131384	 0.114546
H	 2.1182470334	 1.7185956945	 0.2250540614	 0.100754
H	 0.4054901683	 4.691664356	-1.6978578109	 0.108231
H	-0.1740976599	 3.2764516424	-2.5917559525	 0.115189
H	-1.9372864595	 4.0012498534	-0.9300819708	 0.104062
