16
gdb 110822	2.43478	1.39309	1.06175	3.0248	68.77	-0.2638	-0.0061	0.2576	1131.929	0.12366	-437.833038	-437.824664	-437.82372	-437.866544	30.373	
O	-0.2019142422	 1.4460397335	-0.3496173101	-0.424723
C	 0.0157154816	 0.10323292	 0.0634910724	-0.120108
C	-1.3337822648	-0.5709030729	 0.0502815339	-0.01237
C	-1.8957018663	-1.3097121809	-1.1162994711	 0.085842
O	-0.8678478516	-2.0199214769	-1.8321295228	-0.284227
C	-0.6533466317	-2.880282038	-0.6887935961	-0.017745
C	 0.7514669083	-3.0190494215	-0.2905608313	 0.288848
N	 1.8496919102	-3.1544201398	 0.0428147102	-0.324393
C	-1.611691129	-2.0571628934	 0.1750663845	-0.188195
H	 0.6552589655	 1.8759922682	-0.4221795834	 0.290966
H	 0.7058067565	-0.4158138023	-0.612283001	 0.117193
H	 0.4414875017	 0.0593783693	 1.0776869876	 0.098704
H	-2.0957999462	 0.0041235224	 0.573640766	 0.113052
H	-2.80838666	-1.0864633745	-1.6540416984	 0.120822
H	-1.055222832	-3.8791875313	-0.8965728548	 0.137923
H	-2.2719444	-2.4809797418	 0.9183514146	 0.118411
