16
gdb 81636	4.55003	0.89704	0.81963	4.0365	67.75	-0.2675	-0.002	0.2656	1352.9136	0.124188	-474.962525	-474.954709	-474.953765	-474.996056	28.941	
O	 0.0566326198	 1.4526763766	-0.1479789274	-0.44757
C	 0.0896335302	 0.0738689299	-0.0592315426	 0.220523
C	 0.0781866209	-0.5919710976	 1.3593994481	-0.136376
N	-1.3527945151	-0.0831593519	 1.4615241461	-0.358062
C	-1.2625752652	-0.7066885968	 0.0758624859	-0.136385
C	-0.473119431	-1.87785438	 0.7030244372	 0.165246
O	 0.3913231923	-2.6321297996	-0.1324643714	-0.205441
C	 0.3919290602	-3.9765972405	-0.0135020939	 0.168547
O	 1.0873505281	-4.6823142623	-0.6767115624	-0.268469
H	-0.5958305915	 1.7400169941	 0.5078469757	 0.293831
H	 0.8093163367	-0.3143381282	-0.7763122137	 0.120743
H	 0.7882062412	-0.4892541973	 2.1802030567	 0.096702
H	-1.9057780238	-0.6719398	 2.0917819552	 0.217862
H	-2.1167424066	-0.7378323513	-0.6007684153	 0.096697
H	-1.0522036552	-2.530064367	 1.3662468279	 0.090518
H	-0.315960501	-4.3379646281	 0.7576713538	 0.081633
