18
gdb 69582	3.66239	1.31649	1.18457	3.2853	78.22	-0.2308	-0.0019	0.2289	1097.2095	0.147643	-401.906621	-401.898869	-401.897925	-401.93849	30.859	
C	-0.0751395665	 1.5410693278	 0.037557287	-0.493508
C	 0.0916988318	 0.0453572045	 0.0023192006	 0.290174
N	-0.7370840474	-0.8355294255	 0.874695667	-0.361371
C	 0.7350866305	-0.7644049142	 1.0709434083	-0.225884
C	 1.4871459849	-1.8824235069	 0.3932246614	 0.487094
C	 2.7452449245	-2.4492769763	 0.9077915646	-0.255404
O	 1.5279559702	-3.1872569125	 0.9838058906	-0.27608
C	 1.1688026721	-1.7446772735	-1.060939817	-0.173219
C	 0.4203013308	-0.6631875099	-1.2853068751	-0.114875
H	 0.7967555998	 2.045307934	-0.3927296775	 0.12945
H	-0.9558010331	 1.8511593999	-0.5368574843	 0.128562
H	-0.200447113	 1.9000453356	 1.0642051541	 0.116986
H	-1.1688995131	-0.2594080487	 1.5978186749	 0.223757
H	 1.1239322967	-0.3220252598	 1.981718189	 0.088903
H	 3.4902112302	-2.8328905649	 0.2110057972	 0.112123
H	 3.1414278762	-2.0940965825	 1.8597781034	 0.110808
H	 1.4939093014	-2.4746472908	-1.7921119866	 0.109197
H	 0.0472782041	-0.3339452661	-2.2482192275	 0.103286
