18
gdb 39927	3.2703	1.52795	1.22643	1.4054	76.81	-0.2369	0.003	0.2399	1030.4636	0.149808	-401.906241	-401.899086	-401.898142	-401.937911	28.477	
C	-0.1447588969	 1.4862880266	 0.046345722	-0.290042
N	 1.1946001453	 0.8780073079	 0.0554988161	-0.368442
C	-0.0005333688	 0.0049535839	 0.0253893943	 0.315606
C	-0.2384457868	-0.8757458518	 1.2040396171	-0.101759
C	-0.6104248503	-2.1083927327	 0.8525930961	-0.105399
C	-0.6992262021	-2.2554694195	-0.6428083897	 0.07798
O	-2.0559680114	-2.2010266804	-1.1648728123	-0.293872
C	-1.8640893123	-0.8478266985	-1.6256357102	-0.079062
C	-0.3799479855	-0.8378408691	-1.1872698035	-0.191302
H	-0.4227934849	 1.9972554726	 0.9646898237	 0.11947
H	-0.4974132049	 1.9713889277	-0.861228585	 0.111987
H	 1.6041899731	 0.9286035034	-0.8748544566	 0.229503
H	-0.0982422812	-0.514984609	 2.2167806278	 0.107894
H	-0.8422146067	-2.9179266877	 1.5346454944	 0.105188
H	-0.1678952928	-3.1260419256	-1.0427033265	 0.08038
H	-2.0399459449	-0.7623955331	-2.704486177	 0.100856
H	-2.5071512124	-0.1315997684	-1.0986980719	 0.102205
H	 0.3375156434	-0.7667248463	-2.0067296989	 0.078812
