13
gdb 8755	4.30947	1.44251	1.0882	0.6224	63.48	-0.2783	-0.0814	0.1969	993.3765	0.09493	-394.811607	-394.80337	-394.802426	-394.845391	27.674	
C	-0.021986337	 1.4498240098	-0.0407537366	-0.363381
N	-0.0057020434	-0.0141271598	-0.0038281914	-0.145567
C	-0.009633039	-0.6578507451	 1.2376321672	 0.172292
O	-0.0249956271	-0.0641168728	 2.2873477445	-0.308997
C	 0.0133750897	-0.7641263427	-1.1763631152	 0.330816
N	 0.0332794938	-2.0397273549	-1.1880822093	-0.497821
C	 0.0093503531	 0.018971302	-2.4023020239	 0.228512
N	 0.0073968709	 0.5762726013	-3.4154813118	-0.317603
H	 0.8686594375	 1.8378458586	-0.5413765923	 0.155203
H	-0.9126146029	 1.8177534785	-0.5563595278	 0.155297
H	-0.034482955	 1.7862708385	 0.9946993721	 0.18193
H	 0.0027116153	-1.749800931	 1.1373333685	 0.152805
H	 0.0441150743	-2.4014957426	-2.138305084	 0.256514
