20
gdb 92563	2.48974	1.78496	1.7109	2.0964	76.11	-0.2216	0.0613	0.2829	942.8885	0.174787	-403.140176	-403.132936	-403.131992	-403.171877	29.669	
O	 0.0081826793	 1.4342209437	-0.1264772446	-0.427311
C	 0.0346563875	 0.0111883728	-0.0237397376	 0.086716
C	 0.7023917722	-0.5373375695	 1.263261602	-0.243054
C	-0.4552214224	-0.954455447	 2.1941346507	-0.001238
C	-1.0000459794	 0.1871363236	 3.0717235545	-0.20211
C	-1.9477028049	 0.9715344777	 2.1347566941	-0.247181
C	-2.3390876499	-0.0712686937	 1.0906805531	-0.018339
C	-1.3813061851	-0.5398778951	 0.051295185	-0.03352
N	-1.5915101114	-1.3403371846	 1.2853902509	-0.131331
H	 0.9141043323	 1.7364247266	-0.2452010282	 0.282442
H	 0.5337987672	-0.3991783311	-0.9122729099	 0.069548
H	 1.2979773515	-1.4193048484	 1.0065719758	 0.103865
H	 1.3775099331	 0.1959129161	 1.7164351794	 0.092485
H	-0.1824477909	-1.8242431557	 2.7963654361	 0.076079
H	-1.5701253634	-0.2408805492	 3.9026737786	 0.103118
H	-0.2050012468	 0.8029228124	 3.5026012167	 0.093762
H	-2.8319865773	 1.3360996156	 2.6637003681	 0.094573
H	-1.4490032764	 1.8259959608	 1.6774043167	 0.133309
H	-3.3970513243	-0.1951075275	 0.8729800401	 0.084957
H	-1.787945061	-0.9767726876	-0.8569098315	 0.083229
