17
gdb 26717	3.18798	1.20683	0.88436	4.8004	79.29	-0.2145	-0.0262	0.1883	1262.3522	0.136317	-418.061711	-418.052518	-418.051574	-418.09596	32.885	
C	-0.087711887	 1.4985774931	 0.0415824847	-0.514746
C	-0.0177841687	 0.0014573614	 0.0331272	 0.138356
C	 0.0073965263	-0.796978815	-1.0886092974	 0.179625
N	-0.0195219104	-0.5417913991	-2.4785228847	-0.613477
N	 0.0735645215	-2.116291301	-0.6668110174	-0.254075
C	 0.0911319067	-2.1811809843	 0.6836154571	-0.140604
C	 0.0356174646	-0.88099403	 1.1681176445	 0.092258
C	 0.0343289709	-0.5276541202	 2.579150879	 0.069497
O	 0.0813987116	-1.3213066271	 3.4984383371	-0.297519
H	 0.7769652248	 1.9481845018	 0.5426706381	 0.133498
H	-0.1137076948	 1.8868990213	-0.9813095113	 0.106446
H	-0.9828500877	 1.865967322	 0.5560952838	 0.133475
H	 0.7711851548	 0.0162389613	-2.7822905302	 0.247945
H	-0.8639948418	-0.0579260705	-2.7641832941	 0.247955
H	 0.1027722271	-2.8910122082	-1.3090736345	 0.267367
H	 0.1404898464	-3.1130270924	 1.2222426354	 0.152397
H	-0.0144273443	 0.566191947	 2.7835907797	 0.051603
