20
gdb 71626	2.68072	1.70594	1.61106	0.1047	78.86	-0.2096	0.0924	0.302	972.2344	0.172626	-403.086467	-403.079016	-403.078072	-403.11788	30.468	
C	-0.0462968276	 1.4619921725	 0.0078694709	-0.525122
C	 0.0529233076	-0.0343860748	-0.021259479	 0.311554
C	 0.7055876974	-0.9542098286	-1.0788632078	-0.268367
C	 0.0102058112	-1.8857045424	-0.0672983045	-0.084928
C	 0.6108890075	-1.0014693971	 1.0709320693	 0.11187
O	 0.0056100675	-0.9905137973	 2.3344165108	-0.2745
C	-1.3350466302	-1.4639242314	 2.290706723	-0.079681
C	-2.0508211436	-0.9316744397	 1.0487118122	-0.184567
N	-1.187053497	-0.9388396896	-0.1461707145	-0.156674
H	 0.9523032942	 1.909739335	-0.0259038938	 0.124778
H	-0.619362957	 1.8311034157	-0.848511509	 0.130128
H	-0.5335502318	 1.8062398411	 0.9261356279	 0.12679
H	 0.2409893969	-0.9236913052	-2.0645938064	 0.10743
H	 1.7968556055	-0.9783062817	-1.1150016906	 0.092647
H	-0.1043653186	-2.9691559468	-0.1233556244	 0.081102
H	 1.6943902326	-1.0188273212	 1.2281779113	 0.076875
H	-1.3304390552	-2.5646953314	 2.2742320492	 0.094286
H	-1.81896466	-1.1454324824	 3.2183756312	 0.106517
H	-2.9407280503	-1.5383145925	 0.8427604347	 0.10298
H	-2.3930929289	 0.0985981375	 1.2026638094	 0.106881
