22
gdb 78451	2.72898	1.60177	1.27888	1.5184	85.66	-0.2136	0.0883	0.3019	1098.7981	0.196318	-367.146273	-367.138217	-367.137273	-367.178404	32.791	
C	-0.0570143977	 1.610394608	-0.0321857209	-0.433393
C	 0.0248339812	 0.0875401252	-0.1104394167	 0.016968
C	 0.4353963515	-0.8376656806	-1.2104392081	-0.060581
C	 1.5496950638	-0.5536786023	-2.2259611324	-0.064554
C	 2.6516363914	-1.4799860244	-1.5880239298	-0.2149
C	 2.5366142912	-0.4076296377	-0.4582336943	-0.009144
C	 2.3327948977	 0.6379148134	-1.6007149456	 0.04212
C	 3.5797956125	 1.1307783856	-2.3337741966	-0.439537
N	 1.1980467308	-0.8030419969	 0.0857555716	-0.137851
H	-0.1645106069	 2.0885329904	-1.0094345535	 0.133547
H	-0.9353500393	 1.8853572813	 0.5591286737	 0.114153
H	 0.8126673523	 2.0466014503	 0.4670833411	 0.135055
H	-0.7880499421	-0.356677263	 0.4643161178	 0.094784
H	-0.1752991327	-1.7202058823	-1.3971616809	 0.086602
H	 1.2903868901	-0.5911317588	-3.2847311473	 0.05929
H	 2.3533307349	-2.4931495011	-1.3105833384	 0.102529
H	 3.600410954	-1.4961956987	-2.1220441515	 0.096713
H	 3.2854299971	-0.2845587625	 0.3248998972	 0.065266
H	 1.7460542694	 1.5149903985	-1.3549759319	 0.063007
H	 4.259025988	 0.3364390392	-2.6497614808	 0.119024
H	 3.2937192397	 1.6933801592	-3.2296786366	 0.115229
H	 4.149189783	 1.8121909172	-1.6914851862	 0.115672
