23
gdb 68214	3.42618	1.2855	1.21161	0.2535	89.87	-0.2568	0.0908	0.3475	1171.3948	0.207419	-351.142529	-351.134448	-351.133504	-351.174471	33.842	
C	-0.0175375402	 1.5137231907	 0.0193856926	-0.494825
C	 0.0238454432	 0.0030562573	 0.0270258974	 0.347979
C	 0.9038269834	-0.8163576612	-0.9718968017	-0.261466
C	 0.7073932175	-1.9426027643	 0.0831393108	-0.09058
C	 0.7480919748	-0.8099236942	 1.148724633	-0.261468
C	-0.7922192633	-2.2020189001	-0.0261689658	 0.441985
C	-1.3718266608	-3.3320084829	-0.8253380386	-0.343402
C	-1.4828872554	-3.3273529421	 0.6866454151	-0.343397
C	-1.3246953106	-0.7528442813	-0.0697407525	-0.340555
H	 0.9884812813	 1.940732124	 0.0921606497	 0.110257
H	-0.4755462818	 1.8927566276	-0.9018930966	 0.112931
H	-0.6053800754	 1.8981308825	 0.8613268263	 0.11293
H	 0.5193662868	-0.9845174774	-1.9826831706	 0.087004
H	 1.9328968561	-0.4491461023	-1.0133624614	 0.087913
H	 1.3613293371	-2.8144338148	 0.1338128161	 0.051302
H	 1.7602342259	-0.4420314179	 1.3378585044	 0.087911
H	 0.2200207367	-0.9721446838	 2.0935007593	 0.087005
H	-2.2725057089	-3.1470072478	-1.4025979174	 0.105913
H	-0.6914959504	-4.0442807707	-1.2825673563	 0.106197
H	-0.8770313392	-4.0365197194	 1.2427551385	 0.106199
H	-2.4581746158	-3.1391892342	 1.124925672	 0.105914
H	-1.9880307427	-0.5159582395	 0.7697065011	 0.092125
H	-1.8581323485	-0.5213866585	-0.9985441656	 0.092128
