21
gdb 8439	2.70496	2.04756	1.74422	1.668	77.71	-0.2245	0.0782	0.3027	914.7076	0.187739	-329.095419	-329.086863	-329.085919	-329.127436	33.538	
C	 0.0131852733	 1.5403096468	 0.1135797387	-0.496806
C	-0.0261609696	 0.0439456099	-0.017448154	 0.324672
C	-0.8820217638	-0.7953647228	 0.8482890957	-0.293575
N	 0.5811044946	-0.8925764163	 1.0224861733	-0.1672
C	 1.0331656795	-1.7819824545	-0.1039224023	-0.207388
C	 0.5523991135	-0.7774156224	-1.1954527602	 0.268349
C	-0.4365837937	-1.2771189472	-2.2489303525	-0.454002
C	 1.7383878044	-0.0828005124	-1.8697592155	-0.446366
H	 0.9858255626	 1.9520325244	-0.1716038271	 0.121992
H	-0.7495411252	 2.0076966889	-0.5210435777	 0.118904
H	-0.1852529212	 1.8349303613	 1.1482193588	 0.127886
H	-1.3774408465	-0.3016306212	 1.6795547168	 0.113515
H	-1.4216549115	-1.6548516127	 0.4560406904	 0.104732
H	 2.117200162	-1.9152734541	-0.0737625416	 0.103407
H	 0.5542797548	-2.7679124297	-0.0967950152	 0.094728
H	-1.2962680549	-1.7839407329	-1.8022559286	 0.111997
H	-0.8156773755	-0.4458373285	-2.8547584215	 0.113514
H	 0.0485649333	-1.9857821703	-2.9303147616	 0.113122
H	 2.2578485245	-0.7822395317	-2.5342257398	 0.112834
H	 1.4133955755	 0.7704149214	-2.4758180671	 0.112444
H	 2.4635398339	 0.2803646442	-1.1349499988	 0.123239
