19
gdb 114858	4.62769	1.00667	0.89733	2.2927	79.49	-0.2433	0.003	0.2464	1323.1301	0.159267	-422.975778	-422.967532	-422.966588	-423.008899	31.042	
C	 0.0376084582	 1.4137385829	-0.0176691316	-0.239503
O	-0.095538266	 0.0135157244	 0.0679887678	-0.237678
C	 0.6428988592	-0.570498633	 1.1234551842	 0.112264
C	 0.090404424	-2.0049306773	 1.3922442112	-0.288102
C	 1.3381449138	-2.7640947187	 1.864245009	 0.103538
O	 1.824013916	-3.9837592448	 1.1997387886	-0.307451
C	 3.1064586508	-3.3424803974	 0.909657825	-0.153856
C	 2.4617605366	-2.0178410888	 1.2270111248	 0.192583
C	 2.1102364124	-0.8339344891	 0.7452926961	-0.241868
H	 1.0735120543	 1.7248762228	-0.2207151489	 0.105649
H	-0.5944621398	 1.7489004509	-0.8435645357	 0.129384
H	-0.2925614067	 1.9100447003	 0.9084058856	 0.106612
H	 0.5474774396	 0.0667983404	 2.0193460064	 0.069901
H	-0.750080302	-2.017736593	 2.0903999417	 0.098508
H	-0.2396221074	-2.4066335876	 0.4297405306	 0.134114
H	 1.3671054546	-2.9138334733	 2.9513620855	 0.080464
H	 3.8828522835	-3.6857370916	 1.6060063193	 0.108195
H	 3.4390087154	-3.502168195	-0.1212434868	 0.122329
H	 2.6634066634	-0.1872203721	 0.0752684572	 0.104917
