18
gdb 68312	3.19149	1.31831	1.16772	1.4868	72.4	-0.2459	0.0667	0.3126	1100.6854	0.147817	-438.973098	-438.96523	-438.964286	-439.005742	30.399	
O	 0.0358592161	 1.3487545943	 0.2276770253	-0.466341
C	 0.0706411267	-0.0274375105	 0.0964431005	 0.326897
C	 0.5045634304	-0.9193581525	-1.0982446299	-0.228812
N	-0.0291731875	-1.9368570837	-0.0780163074	-0.160451
C	 0.7511795284	-1.1134293225	 0.9696370925	-0.254668
C	-1.1797190681	-0.9292254002	 0.1238282513	-0.008821
C	-2.1252164387	-1.085651056	 1.2848461332	 0.033852
C	-2.5239018828	-2.4089103193	 1.7856198371	-0.178066
O	-1.6837325488	-1.5476712613	 2.5614653899	-0.227928
H	 0.9394607774	 1.6825830866	 0.2529283727	 0.284177
H	-0.0767051882	-0.8737345736	-2.0228863025	 0.103196
H	 1.5737916926	-1.0354864299	-1.2923760664	 0.098579
H	 1.8342170767	-1.2304287387	 0.8704396892	 0.091482
H	 0.4087133459	-1.2647986437	 1.9887700791	 0.148156
H	-1.8047378469	-0.8579599283	-0.7759170326	 0.080652
H	-2.8584062771	-0.2787555698	 1.3426155494	 0.105054
H	-3.5264822926	-2.5597240179	 2.1818350111	 0.115929
H	-2.0305876635	-3.2899441232	 1.3813550475	 0.137113
