16
gdb 30245	4.63128	1.12991	0.9486	3.0197	74.43	-0.1884	0.0184	0.2068	1197.3461	0.126279	-434.05811	-434.050168	-434.049223	-434.090574	30.098	
N	 0.141922607	 1.3414774627	 0.5385094826	-0.592185
C	-0.0225146065	 0.0360480625	 0.0760624217	 0.28686
C	-1.1991196547	-0.7077178351	 0.007234462	-0.250754
N	-0.7856026576	-1.8955243225	-0.5593211559	 0.024275
C	-0.8646651836	-3.3688682716	-0.6676788548	-0.213639
C	 0.7077946705	-3.3385837594	-0.9144794654	 0.025553
O	 1.2063778973	-3.8321159667	-2.1247927802	-0.420098
C	 0.5548265679	-1.8373907848	-0.7013761965	 0.266284
N	 1.0810645083	-0.6859377891	-0.3361034856	-0.401952
H	 1.0257097415	 1.7256033352	 0.2319103047	 0.251967
H	-0.6202632622	 1.96205325	 0.3041456293	 0.243061
H	-2.2241263898	-0.4551908791	 0.2157319536	 0.120046
H	-1.1728458851	-3.8625549745	 0.2584362114	 0.131226
H	-1.4679867138	-3.7235211067	-1.5076219119	 0.122006
H	 1.2579764016	-3.8543525239	-0.1229936776	 0.120746
H	 0.9251320891	-3.2367512871	-2.8285727275	 0.286603
