22
gdb 118009	3.24019	0.85147	0.71097	3.976	83.95	-0.2664	0.0378	0.3042	1632.0243	0.19134	-404.371363	-404.360219	-404.359275	-404.408493	39.172	
C	-0.1408823715	 1.5305027946	-0.0401264498	-0.385266
C	-0.0209966214	 0.0264237264	 0.1385470347	-0.043738
O	-1.3066301156	-0.5447650559	-0.0372040069	-0.261107
C	-1.3529249485	-1.9609142389	-0.0003072082	 0.143211
C	-1.3129062213	-2.4953894436	 1.43224191	-0.421241
C	-2.6603338135	-2.3402697491	-0.7435232221	-0.140621
C	-2.6869752143	-1.8161354941	-2.1917516287	-0.40063
C	-2.8657588368	-3.7907355968	-0.7229032017	 0.267442
N	-3.0184044943	-4.936651525	-0.7239077642	-0.334409
H	 0.8352600012	 2.0067264491	 0.090902809	 0.118942
H	-0.5144117605	 1.7719698841	-1.039280415	 0.126599
H	-0.8328707478	 1.9499836642	 0.6954929245	 0.129584
H	 0.680948621	-0.3980473556	-0.5977803451	 0.091468
H	 0.3772958533	-0.2055115739	 1.1377677747	 0.095472
H	-0.5046713257	-2.3733164982	-0.5716468811	 0.08009
H	-1.3741282517	-3.5866283421	 1.4438969789	 0.14807
H	-0.383081229	-2.2069691654	 1.9292293611	 0.122154
H	-2.1496316345	-2.0902658022	 2.0103979798	 0.125654
H	-3.4864340945	-1.8818422821	-0.1846540574	 0.132231
H	-1.8875560304	-2.2728284615	-2.7828055323	 0.130539
H	-3.6404065674	-2.049864988	-2.6711598423	 0.132929
H	-2.5444286368	-0.7352865862	-2.1818277779	 0.142626
