17
gdb 75931	2.65909	1.62871	1.1687	0.9837	68.55	-0.254	-0.0391	0.2149	1047.6535	0.134731	-458.959887	-458.951779	-458.950835	-458.992489	31.121	
O	 0.3948974495	 1.0061323874	-0.7238550035	-0.435169
C	 0.1018051644	-0.2222774887	-0.126785166	-0.022569
C	 0.4090410647	-0.23481844	 1.3706765013	 0.332587
O	 1.2208666041	 0.4762247543	 1.9040935616	-0.316365
C	-0.5980564571	-1.1833909717	 2.0104501468	-0.189248
O	-1.433877483	-1.6108600513	 0.9420793863	-0.289975
C	-1.3625735534	-0.6276437687	-0.0782009785	 0.398289
C	-2.4761767277	 0.3675359406	-0.2444677754	-0.324911
C	-2.2732439326	-0.7676112387	-1.2398679937	-0.345213
H	 0.9933594762	 1.4656808582	-0.116008872	 0.296913
H	 0.6752034208	-1.0431891054	-0.5951011485	 0.105072
H	-0.1202143395	-2.052924062	 2.472526346	 0.143225
H	-1.1575871716	-0.6407018465	 2.7869940609	 0.133959
H	-3.3189320533	 0.2874948137	 0.4326170443	 0.1206
H	-2.2081063226	 1.3711588775	-0.5531842599	 0.134392
H	-1.8850060604	-0.527533488	-2.2237522599	 0.129919
H	-2.9798559785	-1.5895267909	-1.2102829397	 0.128495
