19
gdb 84748	2.16877	1.85239	1.1348	3.0865	78.08	-0.2103	0.0153	0.2256	1107.1817	0.160511	-419.265744	-419.256735	-419.255791	-419.299772	33.335	
C	 0.1885398539	 1.6295709315	-0.0444231536	-0.381583
C	-0.0131359066	 0.1010745787	 0.0274503862	-0.014628
C	 0.4055065882	-0.5663879325	-1.2538290638	-0.139054
C	 1.5451987242	-1.252319821	-1.3140847732	 0.012849
N	 2.3430397162	-1.4170586758	-0.1898255815	-0.384366
C	 1.8865430352	-1.1654863107	 1.1020804683	 0.479301
O	 2.5245968065	-1.5438746161	 2.070597645	-0.42234
N	 0.6872623719	-0.5000719401	 1.1745816166	-0.137758
C	 0.1386555897	-0.2439737481	 2.4951297969	-0.340485
H	 1.2462260596	 1.8665940387	-0.1918451115	 0.128225
H	-0.3760167165	 2.0404010233	-0.8876137873	 0.116171
H	-0.1597285048	 2.1266261427	 0.8660075482	 0.117057
H	-1.0857156069	-0.0818007448	 0.1942038531	 0.087244
H	-0.2118488396	-0.4325880942	-2.1320262972	 0.097863
H	 1.9148694307	-1.7181560277	-2.2200288308	 0.117101
H	 3.152196042	-2.0145960418	-0.2163051612	 0.258837
H	 0.6596219105	-0.877191864	 3.2111875355	 0.167397
H	 0.2633557174	 0.8021409684	 2.8013954029	 0.122095
H	-0.9324526215	-0.4784573968	 2.5015648275	 0.116074
