20
gdb 9744	3.14207	1.63957	1.48657	1.4729	75.02	-0.2356	0.0295	0.2651	966.8548	0.177192	-349.016731	-349.008427	-349.007482	-349.049049	32.105	
C	-0.3503317829	 1.6440173144	 0.0147939465	-0.466085
C	 0.0685705144	 0.1702113333	-0.0021928494	 0.305678
C	-1.1780179539	-0.7375808206	-0.0902113396	-0.0975
O	-1.9195217362	-0.5958951804	-1.2920073521	-0.424046
C	 1.0276846871	-0.1681300919	-1.1846318826	-0.293389
C	 2.0345871236	-1.1124715808	-0.5781102721	-0.059063
C	 1.9474594343	-1.1544530292	 0.7498717985	-0.061515
C	 0.8636507413	-0.2447259361	 1.2749264373	-0.299886
H	 0.5227371298	 2.2993879071	 0.0953462255	 0.118196
H	-0.8765939183	 1.9225333206	-0.9059185812	 0.105889
H	-1.0109848022	 1.8635912614	 0.8622653732	 0.10916
H	-0.861332911	-1.7855731133	-0.0612298467	 0.112512
H	-1.8171974175	-0.5602085996	 0.789752547	 0.082514
H	-2.341010999	 0.2686292379	-1.2821731823	 0.283609
H	 0.4739741305	-0.5966720951	-2.0268545071	 0.118851
H	 1.5243846036	 0.7333698456	-1.5711708141	 0.09384
H	 2.7533886452	-1.6627409974	-1.1758364265	 0.088728
H	 2.5833421145	-1.741321096	 1.4039243453	 0.088301
H	 1.2944222357	 0.6293478329	 1.7836669758	 0.098856
H	 0.2186892109	-0.7348922228	 2.0170855646	 0.095348
