17
gdb 16453	4.17736	1.93814	1.72195	2.5455	67.11	-0.2103	0.0733	0.2837	808.5168	0.143095	-363.780849	-363.774175	-363.773231	-363.811198	27.099	
O	-0.1741399395	 1.4337828288	 0.058041485	-0.461274
C	-0.0720816331	 0.0560545403	 0.0203373402	 0.369543
C	-0.3481558196	-0.7592211105	-1.2110898642	-0.371556
C	-1.1836283166	-0.9820712566	 0.0394234522	-0.067516
N	-0.5175094626	-1.7566488638	 1.1066639511	-0.116966
C	 0.4175863809	-2.8603214644	 0.6864227982	-0.171166
C	 1.6388596536	-1.8984343792	 0.7536926695	-0.265643
C	 0.6261691776	-0.7768360923	 1.1103244028	-0.033757
H	 0.4627975122	 1.8036497962	-0.5626793654	 0.286786
H	-0.8835936048	-0.2069229081	-1.9778254203	 0.116452
H	 0.3449081267	-1.5003546471	-1.5972831399	 0.109775
H	-2.2628723865	-0.8787630577	 0.0227157649	 0.10059
H	 0.4297178301	-3.6696695112	 1.4211407019	 0.106469
H	 0.1971484567	-3.2892376904	-0.2956980539	 0.104598
H	 2.3464989744	-2.126331077	 1.5531807014	 0.107371
H	 2.1966576876	-1.7587872475	-0.176079129	 0.102483
H	 0.7814017729	-0.2197857796	 2.0388067555	 0.083811
