25
gdb 99967	2.23126	1.1963	1.1437	0.0877	84.19	-0.2432	0.0602	0.3034	1312.8772	0.224655	-426.636858	-426.62511	-426.624166	-426.672488	45.01	
C	 0.074192559	 1.5968968773	-0.011067616	-0.400697
C	-0.0214208793	 0.0670949273	-0.0111426806	-0.212299
C	-1.4578838435	-0.5026471464	 0.0275666888	 0.342393
C	-2.25950717	 0.1085659558	 1.1831787463	-0.434409
O	-2.1731411864	-0.1180303636	-1.1561811918	-0.470929
C	-1.4295606951	-2.0799883087	 0.1341012778	 0.341146
C	-2.8497077409	-2.665782202	 0.1362740043	-0.43931
C	-0.6290772894	-2.7196820718	-1.0082936374	-0.423111
O	-0.7337071253	-2.4666351664	 1.3276373285	-0.46566
H	 1.0982089488	 1.9139104867	-0.2313101608	 0.108265
H	-0.5847875721	 2.0291931543	-0.7704703334	 0.121981
H	-0.1979947917	 2.0291208873	 0.9559654162	 0.117775
H	 0.4666145565	-0.3050957875	-0.9206421347	 0.084009
H	 0.54042261	-0.3560801832	 0.8269383091	 0.115139
H	-2.2899720875	 1.1947596969	 1.085534076	 0.128842
H	-3.2922145816	-0.2445156236	 1.1765339301	 0.122968
H	-1.805696227	-0.1320830015	 2.1488909887	 0.10597
H	-1.6046093107	-0.2879197971	-1.9141134537	 0.277127
H	-3.4197259797	-2.2984716315	-0.7198890104	 0.133612
H	-2.8010068119	-3.7573352623	 0.0930296338	 0.113587
H	-3.398842916	-2.3942005117	 1.043594403	 0.103674
H	 0.4269971114	-2.448908239	-0.9587750109	 0.127146
H	-0.6943573946	-3.8078765088	-0.9305041113	 0.121454
H	-1.0269266636	-2.4303575167	-1.9854973801	 0.103253
H	-1.3297623193	-2.3402532737	 2.0722714886	 0.278073
