16
gdb 133881	3.59483	2.19899	1.90423	1.6637	69.37	-0.2254	0.0588	0.2842	760.7472	0.127406	-400.633868	-400.628599	-400.627654	-400.663098	23.658	
C	 1.2387316143	-0.5095880645	 1.1804370408	-0.370537
C	 1.5631878609	 0.7717117314	 0.3576875877	-0.030264
C	 0.3232770315	 1.5899314666	 0.1031162293	-0.083046
C	-0.8448943322	 0.7641537038	 0.5832909118	-0.07466
C	-1.4700643709	-0.1405654798	-0.5140116681	-0.006483
O	-1.4013627806	-1.3394452636	 0.4066309115	-0.395653
C	-0.1359858891	-0.6158862455	 0.5694010758	 0.409188
C	-0.0000886092	-0.3917672075	-0.9421913342	-0.022019
N	 0.8923932767	 0.7764887508	-0.9997091302	-0.151437
H	 1.260552817	-0.3093649687	 2.2548253079	 0.122699
H	 1.9121032905	-1.336162232	 0.9397839034	 0.124873
H	 2.5523250791	 1.2123052141	 0.3964272765	 0.103488
H	 0.3296999704	 2.668093509	-0.0068521548	 0.098415
H	-1.4354782805	 1.0481387244	 1.4510436825	 0.086989
H	-2.3928316825	-0.0520839786	-1.0873938428	 0.098167
H	 0.2432894946	-1.22096091	-1.6024776172	 0.09028
