16
gdb 131148	3.73512	1.25881	1.03136	2.1091	70.78	-0.2547	-0.0123	0.2425	1130.8274	0.124284	-437.861159	-437.853446	-437.852502	-437.893954	29.475	
O	 0.2569170625	 1.3302857778	 0.3740340719	-0.454053
C	 0.0624502598	-0.029694904	 0.0918508011	 0.288467
C	-0.7103943193	-0.8685697168	 1.0823749949	-0.321983
C	-1.3661013764	-0.4158294866	-0.1982556858	-0.27938
C	 1.1560970426	-0.6416155335	-0.7045553744	 0.326985
N	 1.2978195093	-1.9440975923	-0.8084462997	-0.218047
O	 2.3961193661	-2.141202566	-1.6414790321	-0.167603
C	 2.8849140354	-0.9463981536	-2.0005918667	 0.085207
C	 2.1551385775	 0.0538133591	-1.4488516232	-0.352312
H	 0.9176783158	 1.3954138278	 1.0729817419	 0.286263
H	-0.4288813833	-1.9102252972	 1.180598032	 0.14502
H	-1.0071002211	-0.3682820863	 1.9973472554	 0.116498
H	-2.0904756525	 0.3881320135	-0.1381740387	 0.128048
H	-1.5356029189	-1.1490588515	-0.9776362229	 0.133895
H	 3.7489471268	-0.9682407288	-2.6468176626	 0.152063
H	 2.2786621157	 1.1179547884	-1.548180741	 0.130933
