17
gdb 12139	5.04337	1.52909	1.41168	3.0196	68.87	-0.2382	0.0775	0.3158	931.7148	0.141604	-363.796919	-363.789581	-363.788637	-363.828189	28.459	
C	 0.0827482961	 1.5271916337	-0.0109131726	-0.500584
C	-0.0796055931	 0.049943589	 0.1329029239	 0.425116
C	-1.3806703007	-0.7831925333	 0.04956833	-0.39347
C	-0.7118090462	-1.7792030203	 1.0334078043	 0.369049
C	-1.3653112655	-2.4630338215	 2.1689040019	-0.313936
N	-0.7512344516	-3.232892013	 1.064283823	-0.359718
C	 0.5494317089	-0.9409623096	 1.0309550982	-0.116956
O	 0.9643491331	-0.8101072931	-0.341381946	-0.285193
H	 1.1013566777	 1.8251777705	 0.2509031578	 0.136237
H	-0.1085493651	 1.8402392739	-1.0436804743	 0.131656
H	-0.6193512099	 2.0615420852	 0.6371694947	 0.124282
H	-2.2606369831	-0.2883068074	 0.469678236	 0.108256
H	-1.6053042156	-1.1604431792	-0.9519523507	 0.110195
H	-0.85615589	-2.5586526996	 3.1246968277	 0.120075
H	-2.4493296601	-2.4085093528	 2.2380311707	 0.111442
H	-1.4699607626	-3.5775942216	 0.4324272021	 0.233207
H	 1.3123909979	-0.838878441	 1.7945820134	 0.100341
