18
gdb 20294	5.14928	1.55344	1.49356	2.4543	72.47	-0.2213	0.0711	0.2924	908.8882	0.156698	-343.863324	-343.856709	-343.855765	-343.894386	26.097	
C	 0.2120009401	 1.5608007758	 0.1949828757	-0.233246
N	 1.162396647	 0.6120399493	-0.4115739307	-0.313238
C	-0.1689905346	 0.1371463362	-0.0002489016	-0.05855
C	-0.3706155364	-0.7939724717	 1.1682723734	 0.073627
C	 0.1593954347	-2.2489915597	 1.2847239058	-0.090368
C	 1.5277994553	-1.6021386225	 1.5914271293	-0.176541
N	 0.5564082579	-0.7077726188	 2.4018611379	-0.163416
C	-0.1003066721	-2.047240152	 2.7920261599	-0.161999
H	 0.4908404149	 1.8930006402	 1.1900727599	 0.141877
H	-0.2519355889	 2.3146546571	-0.4350123435	 0.10913
H	 1.1845987221	 0.7342903938	-1.4202311544	 0.231671
H	-0.8852142904	-0.0558524009	-0.7994794632	 0.085245
H	-1.4205251095	-0.678195828	 1.4702002212	 0.070533
H	-0.0729809248	-3.1170178496	 0.6563332722	 0.057553
H	 2.2116386301	-2.1655286943	 2.2332327585	 0.089979
H	 2.0492559044	-1.0679376251	 0.8026507851	 0.14446
H	-1.1337457596	-1.946961109	 3.1375355117	 0.094764
H	 0.5030389298	-2.627593871	 3.494722063	 0.098516
