16
gdb 127727	3.35077	1.2501	0.92097	7.5788	75.69	-0.249	-0.0452	0.2038	1218.8483	0.123437	-434.084542	-434.075664	-434.07472	-434.118601	30.618	
C	 0.0047176673	 1.4191570566	-0.0175567801	-0.338184
N	 0.0058493935	-0.0271523392	 0.0637365435	-0.000101
N	-0.0263200999	-0.7694630719	-1.0831276085	-0.133776
N	-0.0182561807	-2.0130164952	-0.7482375914	-0.231757
C	 0.0194683065	-2.1102883863	 0.6192550629	 0.119963
C	 0.0381048624	-3.3844011115	 1.3394629515	 0.093531
O	 0.0236599608	-4.4791664531	 0.8305967285	-0.261625
C	 0.0348459716	-0.8260815264	 1.1519184072	 0.262025
C	 0.0745180013	-0.3033675316	 2.5479836862	-0.508213
H	 0.9086084083	 1.8348656452	 0.4370160633	 0.150701
H	-0.0230235207	 1.6793530066	-1.0753860593	 0.179021
H	-0.873442491	 1.8361111001	 0.4839524901	 0.150728
H	 0.0671995862	-3.2704834669	 2.4478818511	 0.058853
H	 0.9717470264	 0.3011629208	 2.722532943	 0.150697
H	-0.7948810944	 0.3281096371	 2.762636439	 0.150159
H	 0.0784902839	-1.1242576944	 3.2662245329	 0.157978
