16
gdb 29632	2.41428	1.95159	1.08763	4.0879	75.27	-0.2183	-0.0233	0.195	1049.0147	0.126961	-434.148292	-434.14046	-434.139516	-434.180378	30.111	
C	-0.0572085431	 1.4573366409	 0.0124472611	-0.376013
N	 0.0000202491	-0.0011986307	 0.0198221952	-0.184398
C	 0.0149034984	-0.665628242	-1.2564385395	 0.421059
O	 0.0174270504	-0.0046863259	-2.2808493278	-0.404821
C	 0.0174903303	-2.0972200171	-1.1403133571	-0.246708
C	 0.0152781032	-2.6831985894	 0.0883189312	 0.011623
N	 0.0228292417	-2.0132978495	 1.2703215023	-0.375262
C	 0.010142269	-0.7035958195	 1.1902372521	 0.498402
N	-0.0500587231	 0.0082552342	 2.3612272813	-0.568601
H	 0.8691989489	 1.8926906368	 0.4054517128	 0.131541
H	-0.1721814064	 1.7588934521	-1.0274741167	 0.188487
H	-0.9057165425	 1.8089273923	 0.6058715056	 0.144165
H	 0.0202783771	-2.6693635694	-2.0578986253	 0.111583
H	 0.0156215637	-3.7668594958	 0.1782021672	 0.113256
H	 0.1225040425	-0.5670162331	 3.1718499502	 0.272221
H	 0.3522456809	 0.9303821561	 2.3936820475	 0.263466
