20
gdb 101384	3.38706	1.00769	0.83315	2.2422	75.15	-0.2472	0.0244	0.2715	1385.4509	0.170996	-440.296974	-440.287562	-440.286618	-440.331863	33.935	
C	-0.1007756209	 1.5231937714	-0.0376361043	-0.406469
C	 0.0412205102	-0.0043866537	 0.0168973344	 0.005841
C	 0.7221214111	-0.5378079177	-1.2461802998	-0.08448
O	-0.0803392871	-0.1751557176	-2.361474767	-0.424401
C	 0.8030808301	-0.4293121177	 1.2722080218	 0.094493
C	 0.0784640114	-0.1588477384	 2.6212176039	-0.201934
N	-0.0219773006	-1.4715647871	 3.28292195	-0.26378
C	 0.4838453096	-2.3010933592	 2.4722098449	 0.1169
O	 0.9854906506	-1.8782527633	 1.2881040173	-0.237346
H	 0.8838462861	 2.0066344586	-0.0294351005	 0.110727
H	-0.6101050202	 1.8144564422	-0.9575974405	 0.144706
H	-0.6722202806	 1.9112405805	 0.8106862016	 0.116983
H	-0.9596950516	-0.4549663614	 0.061233704	 0.089926
H	 1.7341965722	-0.1043744347	-1.3265517261	 0.079675
H	 0.8314156812	-1.6271895508	-1.1704523209	 0.106262
H	 0.322118331	-0.5435820123	-3.1527697498	 0.288274
H	 1.8096143311	 0.0067017219	 1.2584586059	 0.088496
H	 0.6250153575	 0.5410741111	 3.2598948013	 0.119134
H	-0.9272728777	 0.251276953	 2.4737882999	 0.117776
H	 0.5616022267	-3.3708970446	 2.633427704	 0.139218
