17
gdb 78142	1.96472	1.86103	1.02448	5.8713	79.	-0.2149	-0.0249	0.1901	1150.1269	0.136425	-418.009797	-418.001622	-418.000677	-418.042139	31.77	
C	-0.1127801148	 1.3721960476	 0.0130639312	-0.315876
N	 0.0584872441	-0.0768432362	-0.0729909668	-0.104535
C	 0.7702444842	-0.5453212458	-1.2833940829	-0.146935
C	 1.4639532849	-0.5279946234	 0.0230564961	-0.161042
C	 1.6020577973	-1.9900143206	 0.4597473633	 0.428332
O	 2.1606721533	-2.3645465016	 1.4693359161	-0.363785
C	 0.9491587143	-2.7873823266	-0.5788369217	-0.342572
C	 0.4911234143	-1.99021697	-1.5807311619	 0.4149
N	-0.1242846737	-2.3406708064	-2.7416441397	-0.593772
H	 0.7108153794	 1.9491896089	-0.4390571731	 0.102137
H	-1.0466912056	 1.6516814714	-0.4850097452	 0.123411
H	-0.1901748041	 1.6532867198	 1.0675040306	 0.137633
H	 0.9873708008	 0.1591621509	-2.0807312759	 0.097237
H	 2.2309889286	 0.1951824105	 0.2784119173	 0.102433
H	 0.8223208141	-3.8591785658	-0.5037500512	 0.094628
H	-0.4704732171	-3.2820105289	-2.8394148766	 0.265239
H	-0.6511262298	-1.638355594	-3.2346197096	 0.262566
