18
gdb 22399	6.88542	0.63657	0.60053	1.9554	77.9	-0.2499	-0.0272	0.2228	1757.2969	0.144887	-439.039449	-439.030021	-439.029077	-439.075263	33.397	
O	-0.0969496064	 1.2465064492	-0.3739635016	-0.393209
N	 0.0259440996	-0.139830587	-0.1662781536	-0.228123
C	-1.0955918532	-0.6553404554	 0.1123374469	 0.424325
C	-2.5039360251	-0.1456284414	 0.3391707444	-0.342974
C	-2.8485892373	-1.5505959448	 0.9355860268	 0.018495
C	-4.1047110617	-2.2415788078	 0.3998958849	-0.297616
C	-4.2619068004	-3.6450371838	 0.943053092	 0.16074
O	-5.2211987472	-4.043707966	 1.5515764489	-0.235635
C	-1.450374762	-2.0850726086	 0.459489537	-0.335771
H	 0.8130173739	 1.5058841207	-0.5541703889	 0.308061
H	-2.6008963568	 0.7183196797	 1.0010629871	 0.13297
H	-3.0343724061	 0.0765614345	-0.5937447128	 0.125629
H	-2.8911267892	-1.5038818471	 2.0273534626	 0.096198
H	-5.0057280051	-1.6724547265	 0.6485084521	 0.125431
H	-4.0344320692	-2.3104235763	-0.6960490291	 0.116147
H	-3.3943109958	-4.3172804573	 0.7449163591	 0.07603
H	-1.5149253631	-2.7336206085	-0.4219881912	 0.120284
H	-0.8228752349	-2.5794705536	 1.2047400754	 0.129018
