17
gdb 130944	6.09112	0.69361	0.65524	4.2291	75.77	-0.2412	-0.0187	0.2225	1641.1172	0.136686	-418.040045	-418.031424	-418.03048	-418.075639	30.15	
O	-0.3047775242	 0.0287392163	-0.3487564948	-0.237161
C	 0.0067691612	 1.1457430593	-0.0247048618	 0.156005
C	 1.3616511397	 1.7728428026	-0.2545535873	-0.262778
C	 1.2521899742	 3.0962391984	-1.0479393524	-0.318013
C	 2.5712162624	 3.7951754678	-1.1859249504	 0.345648
N	 2.9194905791	 4.7509240079	-0.3243263773	-0.288258
N	 4.1519406503	 5.127710356	-0.7155712056	-0.179582
C	 4.5978885174	 4.4476918199	-1.7981190122	-0.015549
C	 3.5956361133	 3.5651382139	-2.1364673524	-0.281013
H	-0.7252842496	 1.8179630703	 0.4839585845	 0.070658
H	 1.8004090083	 1.9958359163	 0.7276448704	 0.130957
H	 2.0058478414	 1.0501904787	-0.7625264113	 0.121808
H	 0.8379603282	 2.8876751605	-2.0405034254	 0.117763
H	 0.5538513992	 3.7682941524	-0.5382099556	 0.123528
H	 4.6192479244	 5.8619054025	-0.2117415159	 0.27599
H	 5.5647399026	 4.6439560052	-2.2339888639	 0.134677
H	 3.597741372	 2.859840262	-2.9518708483	 0.10532
