16
gdb 85122	1.83622	1.66577	1.35534	3.0272	66.65	-0.2556	-0.0445	0.2111	1054.0784	0.121382	-475.048023	-475.038617	-475.037673	-475.082331	33.285	
C	-0.1380366091	 1.3986921038	-0.0302214252	-0.391927
C	 0.0273976287	-0.1063047316	 0.0681167404	 0.013346
N	 1.1218529991	-0.6815039514	-0.7447126818	-0.332611
C	 1.9169620911	-1.0418521337	 0.2950647775	 0.369411
O	 3.0483542082	-1.4312314909	 0.4133960782	-0.361455
C	 0.8057002774	-0.6368943262	 1.3263698686	 0.135033
O	 1.2157428103	 0.2902663083	 2.2935949419	-0.470159
C	 0.1455870297	-1.8331671816	 1.9958097475	 0.126195
O	-0.6395026173	-2.5677182073	 1.4556976658	-0.246691
H	 0.801529133	 1.9149165882	 0.1805462897	 0.124921
H	-0.4798052148	 1.6827372764	-1.0307733143	 0.120012
H	-0.8848058247	 1.7415132217	 0.691790088	 0.138004
H	-0.9160672612	-0.636351133	-0.0840297688	 0.114924
H	 1.301041069	-0.6723834841	-1.738675919	 0.258557
H	 2.1795489165	 0.3268550274	 2.2845425856	 0.306519
H	 0.4677084541	-1.9676613962	 3.050674816	 0.095921
