20
gdb 18991	4.00311	2.11884	1.95504	0.1172	77.17	-0.2735	0.0896	0.3631	798.355	0.181437	-311.846278	-311.840344	-311.8394	-311.875861	25.961	
C	-0.0547500086	 1.533663806	-0.2502850811	-0.244652
C	 1.4583899708	 1.6327597022	 0.1163475173	-0.244652
C	 1.4767088579	 0.1182710619	 0.4754446002	 0.014184
C	 1.4003466361	-0.3148850179	 1.951730987	-0.028504
C	 0.4462573013	-1.5480682574	 1.8341109354	-0.21966
C	-0.6003180825	-0.4459125609	 1.4669649675	-0.028504
C	 0.1553967447	 0.4413603574	 2.4967912135	-0.232787
C	-0.0479888639	 0.0184168904	 0.1060081303	 0.014184
H	-0.7296998278	 2.1516224135	 0.348980918	 0.095794
H	-0.264799267	 1.7340389263	-1.3037746317	 0.094662
H	 2.0991166525	 1.8888503752	-0.7310002513	 0.094663
H	 1.704002778	 2.3110086609	 0.9386628792	 0.095794
H	 2.1817466308	-0.4892109521	-0.0966774865	 0.059718
H	 2.3325157994	-0.3576786687	 2.5172771127	 0.054371
H	 0.6787129819	-2.3069281971	 1.0798593979	 0.085012
H	 0.2438193794	-2.0218217218	 2.7976383554	 0.092007
H	-1.6745454256	-0.6201108208	 1.5463590952	 0.054371
H	-0.0749036963	 0.1533071712	 3.5251104495	 0.092601
H	 0.105873755	 1.5291663802	 2.4071539411	 0.091679
H	-0.3337829662	-0.6539538286	-0.7061960997	 0.059718
