19
gdb 64453	2.19934	1.7717	1.28895	3.2876	71.57	-0.2515	0.009	0.2605	1058.4132	0.158396	-460.202752	-460.193883	-460.192939	-460.236125	33.417	
C	 0.233797071	 1.4531079353	-0.1109088366	-0.404869
C	-0.0404651047	-0.051443927	-0.017975151	 0.196513
C	-1.550761345	-0.3297913926	 0.0823369463	-0.407734
O	 0.484340176	-0.61775565	-1.2252054559	-0.28324
C	 0.8549538591	-1.9724291414	-1.1011195251	-0.112914
C	 1.9746984945	-2.0805076157	-0.0907812505	-0.069376
O	 1.5656822491	-1.5573882509	 1.1836354727	-0.235301
C	 0.6336450067	-0.582463462	 1.2660823082	 0.399909
O	 0.3284558711	-0.1534508588	 2.3464922518	-0.339505
H	 1.3064928089	 1.642762092	-0.2044860738	 0.122872
H	-0.2645901569	 1.8551425581	-0.9971031244	 0.124088
H	-0.1396246823	 1.9587915859	 0.7806219495	 0.144328
H	-2.0537982579	 0.1101833999	-0.782687691	 0.123521
H	-1.7621850441	-1.4033049928	 0.0952398007	 0.118846
H	-1.9525671866	 0.1044292059	 0.9994735478	 0.147192
H	 0.0054054734	-2.6048267405	-0.7994971761	 0.105004
H	 1.1936182699	-2.3056281557	-2.0864790871	 0.121831
H	 2.2696855076	-3.118225864	 0.0898232463	 0.123965
H	 2.8495092403	-1.5171574458	-0.4351692517	 0.124872
