15
gdb 1326	4.95609	1.88237	1.67932	1.8006	64.02	-0.2424	0.0474	0.2898	781.1792	0.122283	-308.472221	-308.464498	-308.463553	-308.503358	29.073	
C	-0.0762431158	 1.5612536863	-0.08035705	-0.449663
C	 0.0027743502	 0.0558333543	-0.0049043398	 0.403692
O	-1.1709618538	-0.6126386046	-0.3887518851	-0.462065
C	 1.3004354409	-0.66208243	-0.2495670998	-0.344222
C	 0.6921946236	-0.6332476499	 1.1570843717	-0.234678
C	 1.3183569724	 0.1071099594	 2.2107293562	 0.33144
C	 1.8450690642	 0.7250072171	 3.0989499155	-0.459258
H	 0.8239181069	 2.0260604192	 0.3277616352	 0.133658
H	-0.1890355882	 1.8885735226	-1.1210736753	 0.10697
H	-0.9393674445	 1.9219464666	 0.4871821111	 0.1321
H	-1.2920952217	-0.4732067934	-1.3350016976	 0.282283
H	 1.2572141003	-1.6113958157	-0.7709316941	 0.118665
H	 2.1979498785	-0.076183092	-0.4121382993	 0.123162
H	 0.204194517	-1.5546333737	 1.4597605752	 0.124196
H	 2.30610817	 1.2681542538	 3.8858796263	 0.19372
