19
gdb 113498	3.49829	0.96649	0.87455	4.479	76.89	-0.268	0.0103	0.2783	1389.4855	0.158779	-423.04495	-423.036066	-423.035121	-423.07903	32.516	
C	-0.0111272079	 1.5383139862	-0.3088134232	-0.373407
C	-0.0451628863	 0.1064759859	 0.2381741534	-0.202931
C	-1.4240911881	-0.515305467	 0.1541165676	-0.049876
C	-1.8810313885	-1.2151502533	-1.0949148805	-0.34268
C	-1.5866055465	-2.0147345396	 0.1473024153	 0.096937
C	-0.6020705714	-3.1433014589	 0.4216065282	-0.151577
O	-1.6406549594	-3.8278612736	 1.1996941775	-0.255898
C	-2.5549145874	-2.8210048001	 0.9587213901	 0.433697
O	-3.6818160753	-2.7498038461	 1.3329659058	-0.344514
H	 0.9937806167	 1.9642028521	-0.2331689119	 0.117192
H	-0.3126812023	 1.5657342842	-1.3608027077	 0.121967
H	-0.6928464895	 2.1887996479	 0.249155831	 0.122212
H	 0.6691285327	-0.5162271474	-0.3158167027	 0.096408
H	 0.2917296451	 0.1041135807	 1.2825778261	 0.108278
H	-2.1994294314	 0.0102669124	 0.7074462368	 0.111125
H	-2.9204649976	-1.1369388061	-1.3945024203	 0.138996
H	-1.1734277932	-1.306950786	-1.9136234953	 0.122459
H	-0.2986713005	-3.7502611733	-0.4346288985	 0.125554
H	 0.2579300407	-2.9053886683	 1.0522125083	 0.126057
