18
gdb 90792	2.37533	1.99786	1.36846	2.8969	74.6	-0.2414	-0.017	0.2244	977.6492	0.14924	-401.942521	-401.935188	-401.934243	-401.974222	29.03	
C	-0.1308913547	 1.5763395924	 0.0065416992	-0.41169
C	 0.0318640845	 0.0565396051	-0.0133239381	 0.030808
C	 0.8804958842	-0.5015926233	-1.1872741379	-0.279923
C	 1.6551184612	-1.6456122057	-0.5441007782	-0.008196
C	 2.6297535007	-1.3745494393	 0.5699869192	-0.196225
N	 1.2157265056	-1.929855239	 0.8223892346	-0.13833
C	 0.7663282607	-0.5156781534	 1.2042677714	-0.147143
C	 2.2517287438	-0.1169752459	 1.2762797778	 0.454721
O	 2.865462322	 0.734714779	 1.8569105082	-0.335486
H	 0.8403910778	 2.0759674365	 0.0785034697	 0.13791
H	-0.627889492	 1.9265025969	-0.9034789547	 0.119499
H	-0.7351149612	 1.8981789065	 0.8606340737	 0.122666
H	-0.9591194922	-0.4127216819	-0.0458378656	 0.09006
H	 0.252959236	-0.8693829741	-2.0034805396	 0.113897
H	 1.5490888745	 0.2579815268	-1.6048794567	 0.118408
H	 1.8839002651	-2.5302251334	-1.1318785485	 0.107075
H	 3.5319072454	-1.9608210157	 0.7077806774	 0.118884
H	 0.2266738288	-0.4719785113	 2.150761548	 0.103065
