21
gdb 85670	2.48835	1.23752	1.07384	0.8403	85.12	-0.242	0.048	0.2899	1248.5748	0.17941	-387.057853	-387.047785	-387.046841	-387.092021	38.698	
C	-1.2434744297	 0.8362079901	-0.0582002293	-0.427096
C	-0.0538897224	-0.1096101932	-0.0853606475	 0.019299
C	 1.2366803703	 0.2905856581	-0.8470486117	-0.264088
C	 2.0705434549	-0.444645798	 0.2468153032	-0.220886
C	 3.3388911471	 0.1028826795	 0.6733661366	 0.305105
C	 4.3802078828	 0.5758627857	 1.0491781519	-0.455244
C	 0.8030936564	-0.3475520786	 1.1914880481	 0.370852
C	 0.8593453458	 0.8153742151	 2.1728455022	-0.451986
O	 0.4332267724	-1.54556616	 1.8396635022	-0.473262
H	-0.9566831445	 1.8421018081	 0.2653700275	 0.113112
H	-1.6882577347	 0.9256444587	-1.0553129106	 0.116317
H	-2.0233858962	 0.4726195106	 0.6195001125	 0.12343
H	-0.3763185272	-1.1001845495	-0.4243189328	 0.087436
H	 1.3540340797	-0.0608349139	-1.8735202005	 0.10625
H	 1.4134693681	 1.3693529882	-0.8207318479	 0.108281
H	 2.1818015464	-1.4996046644	-0.0235100159	 0.106898
H	 5.3049537487	 0.9881898149	 1.3685525433	 0.19097
H	 1.1119680232	 1.7572802039	 1.6787732355	 0.127224
H	-0.1047927812	 0.931294368	 2.6762856813	 0.122231
H	 1.6330473631	 0.6356920763	 2.9281915878	 0.117722
H	 0.925110907	-1.6097044096	 2.6658703839	 0.277437
