18
gdb 86649	3.35962	1.15532	0.88692	6.1882	74.51	-0.2453	-0.0297	0.2156	1289.5816	0.147699	-439.156789	-439.148081	-439.147136	-439.190492	31.637	
C	-0.7897690205	 1.242749886	-0.017311035	-0.40945
C	 0.1738449184	 0.0601140603	-0.0025918704	 0.011202
C	 1.2352718762	 0.1051711416	-1.1198634269	-0.184982
N	 2.3300763234	-0.7194102628	-0.5985773596	-0.125636
C	 3.3081943653	-1.2456198554	-1.4351480506	 0.158011
O	 4.2572875145	-1.9005459496	-1.1004399797	-0.266692
C	 2.2720369702	-0.8501081812	 0.8111381892	 0.417279
O	 3.053361435	-1.4462773012	 1.4983160429	-0.318309
C	 1.0344456123	-0.0764654529	 1.2620766179	-0.344172
H	-0.2537516239	 2.1895737666	 0.1130904451	 0.121918
H	-1.3407615035	 1.2958351491	-0.9623100501	 0.122179
H	-1.5230785656	 1.1598153588	 0.7904138852	 0.128185
H	-0.3960690072	-0.8691251219	-0.1263442903	 0.09625
H	 0.8678714567	-0.2909022725	-2.0705281229	 0.126613
H	 1.5747790504	 1.1362599401	-1.290826454	 0.117192
H	 3.0952628687	-0.9835420085	-2.4926111398	 0.079043
H	 1.3657682721	 0.9066502793	 1.6231870758	 0.132679
H	 0.5503689874	-0.5862935658	 2.0964402832	 0.13869
