18
gdb 33144	3.04433	1.20817	0.90894	2.1188	74.58	-0.1826	0.0334	0.216	1255.4689	0.14833	-439.100731	-439.091747	-439.090802	-439.134919	33.444	
N	 0.4454050605	 1.4227579648	 0.3127312322	-0.623923
C	 0.2140308284	 0.0586215022	 0.1068513171	 0.103241
C	-0.9920522722	-0.5612264064	-0.0491303812	-0.068979
O	-0.8261857028	-1.9148115683	-0.1758891993	-0.14913
C	 0.4997446193	-2.1499544297	-0.083244067	-0.10206
C	 1.2065331685	-0.9971218	 0.0815111777	 0.203966
C	 2.7053829398	-0.9039315748	 0.1438354981	-0.32755
C	 3.2934847467	-0.2600539447	 1.4022675434	-0.071899
O	 3.2040568991	 1.160113202	 1.2719075164	-0.40713
H	 1.4306551631	 1.6522446456	 0.3505460181	 0.252785
H	-0.0643248443	 2.0279805756	-0.3148331075	 0.236983
H	-2.0062365708	-0.202232381	-0.0906441682	 0.117228
H	 0.8063061632	-3.1806637968	-0.169339514	 0.123469
H	 3.1156445745	-1.9163646803	 0.0572100146	 0.10485
H	 3.098052124	-0.3398987425	-0.7136673398	 0.117743
H	 2.753382779	-0.6099052637	 2.2917541472	 0.10389
H	 4.3482947774	-0.5551217516	 1.5050886686	 0.092658
H	 3.2505305666	 1.5536014695	 2.1477910736	 0.293857
