19
gdb 61315	2.68742	0.92857	0.75367	3.2812	76.7	-0.2584	0.0331	0.2915	1505.6204	0.158805	-419.188875	-419.179527	-419.178582	-419.223962	33.854	
O	 0.636434738	 1.8599160108	 0.4551934489	-0.442373
C	 0.1609082655	 0.6009144431	 0.0322657869	 0.135698
C	 0.5919048571	 0.4506344685	-1.4368944779	-0.348117
C	 0.0747926457	-0.7638332515	-2.0595107136	 0.258073
N	-0.341828539	-1.7331303748	-2.5312702626	-0.3156
C	 0.7202279771	-0.5057568084	 0.9324100651	-0.171323
N	 0.4158780566	-0.1561384806	 2.3172846151	-0.088242
C	-0.7724272989	-0.769191751	 2.912236236	-0.22439
C	 0.5925349339	-1.2007051866	 3.3195332864	-0.222376
H	 0.6630200223	 1.8062599601	 1.422283125	 0.29219
H	-0.940666866	 0.5649483377	 0.0763027166	 0.084595
H	 0.2364467469	 1.323279524	-1.9941076635	 0.16461
H	 1.6858591751	 0.4562150401	-1.4968310957	 0.155609
H	 0.3182236706	-1.488108895	 0.6368146433	 0.111766
H	 1.8116079186	-0.5360365359	 0.8246178678	 0.111581
H	-1.3615239631	-0.1267909178	 3.5593895881	 0.126254
H	-1.3511103235	-1.454172657	 2.2957230769	 0.124938
H	 0.9297136601	-2.1764989648	 2.9759633744	 0.121508
H	 1.0127302629	-0.8790906307	 4.267789243	 0.125598
