23
gdb 100644	2.41711	1.07911	0.95025	2.9138	86.15	-0.2641	0.0358	0.3	1398.2907	0.204059	-384.492328	-384.481156	-384.480211	-384.528153	41.244	
C	-0.1972329797	 1.581413409	-0.048385012	-0.395404
C	 0.0722358149	 0.0752504772	 0.0468704988	-0.189228
C	 0.824592755	-0.4923161458	-1.1739809706	 0.048951
C	 2.2968445694	-0.0580241502	-1.1970378664	-0.427589
C	 0.6517781327	-2.0447862864	-1.2880661761	 0.070071
C	 1.1695317427	-2.8078036096	-0.0552537613	-0.404589
N	-0.7808867068	-2.3455130767	-1.442601767	-0.512249
C	 1.3989347373	-2.5192095957	-2.4822450603	 0.257522
N	 1.9299419206	-2.9079188584	-3.4338906585	-0.356263
H	 0.7265461762	 2.1657342759	-0.103027499	 0.11859
H	-0.7946894318	 1.8206510682	-0.9352756941	 0.115054
H	-0.7527202951	 1.929881684	 0.8277561603	 0.115798
H	 0.6502060535	-0.1294881899	 0.9568881047	 0.094264
H	-0.8788314553	-0.4548901667	 0.1490236225	 0.122342
H	 0.3457024024	-0.0856785509	-2.0771335372	 0.077368
H	 2.8248967228	-0.4539246252	-2.0685632659	 0.143367
H	 2.3714766274	 1.0318023462	-1.2338706047	 0.122879
H	 2.8261892586	-0.3905323266	-0.2975341463	 0.118464
H	 0.5893182771	-2.5187260673	 0.8227482729	 0.138846
H	 1.0585586881	-3.8861536418	-0.2027378998	 0.127523
H	 2.2266232508	-2.603315704	 0.1248988845	 0.136956
H	-1.129312606	-1.9388123382	-2.3067802136	 0.238903
H	-0.9163887249	-3.3495373471	-1.5220708909	 0.238423
