15
gdb 77337	3.03486	1.27877	0.94837	1.492	65.63	-0.2643	-0.0154	0.2489	1157.9024	0.114036	-453.990922	-453.98263	-453.981685	-454.02427	29.644	
N	 0.2003710021	 1.1423253923	 0.5973351508	-0.505587
C	 0.0421326152	-0.1052976057	-0.1159365354	-0.130469
C	-1.42093517	-0.5786592603	-0.2565963269	-0.173702
C	-1.3355566285	-1.490477061	-1.5029095733	-0.098481
O	-0.3098990822	-0.9124765421	-2.3223612285	-0.2147
C	 0.5095490885	-0.115914426	-1.5839328402	 0.415578
O	 1.4291483338	 0.4862539174	-2.0515965998	-0.330881
C	-1.9660521463	-1.2500934211	 0.9139666712	 0.282726
N	-2.3960742567	-1.8064745752	 1.8306648794	-0.31032
H	 1.1876973429	 1.315904129	 0.7588006703	 0.253877
H	-0.1264569123	 1.9171646528	 0.0255150322	 0.239791
H	 0.6150904948	-0.8798588026	 0.409201298	 0.139912
H	-2.0461531516	 0.2930797514	-0.4840265576	 0.140324
H	-1.0527322541	-2.5120632418	-1.2284496211	 0.142978
H	-2.2593125059	-1.5171425071	-2.0817310192	 0.148954
