16
gdb 20660	3.26263	2.20023	1.33573	4.8766	72.99	-0.2245	-0.0403	0.1843	901.8213	0.131365	-342.818008	-342.810594	-342.809649	-342.849554	27.331	
C	 0.0171950868	 1.5287335566	-0.0231031794	-0.502534
C	 0.0103587998	 0.0259882051	 0.0172378661	 0.213072
C	-0.0120084423	-0.7310005881	-1.1584587172	-0.029162
N	-0.0195755442	-2.0608293955	-1.2149708058	-0.207899
N	-0.0050530979	-2.7523898215	-0.0786052585	-0.207899
C	 0.0165099607	-2.0910140919	 1.0763029754	-0.029162
C	 0.0255785386	-0.6987768143	 1.2081645048	 0.213072
C	 0.0502725667	-0.04396214	 2.5611336996	-0.502534
H	 0.9067910811	 1.9373442395	 0.4700010375	 0.140222
H	 0.0029668562	 1.8954946871	-1.0522269577	 0.1353
H	-0.8525045237	 1.9460741971	 0.497426941	 0.14023
H	-0.0248558191	-0.2328892084	-2.125383583	 0.110769
H	 0.0274355159	-2.7209747246	 1.9630126214	 0.110769
H	 0.935250251	 0.5916028975	 2.6810125385	 0.140227
H	-0.8240383612	 0.6004466557	 2.7088364732	 0.140225
H	 0.0591559916	-0.7895343844	 3.3597919041	 0.1353
