17
gdb 36416	4.88671	0.99399	0.90382	1.4332	73.73	-0.2502	0.0516	0.3018	1283.778	0.134576	-421.766659	-421.758541	-421.757597	-421.799854	30.832	
C	-0.0414639113	-1.1897106374	-0.0082285824	-0.446875
C	-0.0321055486	 0.0067917234	-0.1129026402	 0.302984
C	-0.0139958186	 1.4583077196	-0.2243645983	-0.372284
C	 1.375022249	 2.0542551844	-0.0146384	 0.22215
O	 2.2327891022	 1.716774255	-1.09344489	-0.264394
C	 3.1316380223	 2.7939143828	-1.224527617	 0.063158
C	 2.6241919775	 3.975372079	-2.0214310957	-0.323482
C	 2.5024338056	 3.9477683343	-0.5143625943	 0.058205
O	 1.2758174964	 3.472565795	-0.0071866637	-0.270591
H	-0.0508759385	-2.248086051	 0.0747691005	 0.197502
H	-0.3676116265	 1.7800369145	-1.2100207884	 0.14175
H	-0.679582684	 1.9060943471	 0.522684717	 0.144739
H	 1.8156415725	 1.7052484661	 0.9344872343	 0.083382
H	 4.1823845541	 2.5308954467	-1.1778469839	 0.108784
H	 3.3616907825	 4.644824804	-2.4531178299	 0.117271
H	 1.7169693524	 3.8333644434	-2.5968637825	 0.129479
H	 3.0273765628	 4.6478986032	 0.1256298846	 0.108223
