10
gdb 23844	5.95655	1.62023	1.27376	2.7194	51.9	-0.2645	-0.1006	0.1639	817.4373	0.061467	-454.764147	-454.758298	-454.757354	-454.794478	21.411	
F	 0.0119808088	 0.0160696924	 0.0031774664	-0.051217
C	-0.0405253326	 1.3377708562	 0.0108207646	 0.306567
N	-1.1957404625	 1.9008096342	 0.029048356	-0.199563
N	-1.1615402993	 3.2377166711	 0.0357632012	-0.271082
C	-0.025073714	 4.0646178935	 0.0252138183	 0.476239
O	-0.1383854117	 5.2653935528	 0.033138569	-0.358288
N	 1.2009139009	 3.3777875839	 0.0054134848	-0.277307
C	 1.1824997133	 2.0862167772	-0.0012596286	-0.071993
H	-2.0635511614	 3.6948775869	 0.050090787	 0.291953
H	 2.1288216586	 1.5454783716	-0.0165458688	 0.154692
