23
gdb 60367	3.89695	0.61745	0.59535	2.2601	84.1	-0.2718	-0.0364	0.2354	1960.5192	0.202438	-425.447371	-425.436298	-425.435354	-425.484617	39.632	
C	-0.0967764167	 1.5614679838	 0.1663899195	-0.381072
C	-0.0415809811	 0.0334513638	 0.022893998	 0.036892
C	-1.4576487658	-0.5585935039	 0.03256887	-0.388575
C	 0.7126912776	-0.4125324075	-1.2428598374	-0.16361
C	 2.2029313017	-0.0555278283	-1.2642609066	-0.218998
C	 2.8958593702	-0.5540065576	-2.5460378527	 0.048245
O	 2.330415443	 0.0173940944	-3.694781124	-0.433281
C	 4.3804950529	-0.2629511067	-2.4925438779	 0.136103
O	 4.9353961595	 0.3878280143	-3.3453926775	-0.261826
H	 0.8992161018	 2.007947172	 0.2404200767	 0.111697
H	-0.6018941099	 2.0144883491	-0.6952403824	 0.115399
H	-0.6522339729	 1.8490036128	 1.0651827645	 0.110453
H	 0.4964255317	-0.3692281918	 0.8942381556	 0.066701
H	-2.0390442162	-0.1943857934	-0.8228734675	 0.114562
H	-1.434304791	-1.6520469832	-0.0232623467	 0.108602
H	-1.9979168559	-0.279684181	 0.9432009413	 0.108918
H	 0.6153583649	-1.5022129997	-1.3457238055	 0.08697
H	 0.2346182608	 0.0229369729	-2.128489922	 0.118898
H	 2.3414430806	 1.0300938399	-1.2066094317	 0.112036
H	 2.7061873266	-0.4952844193	-0.3918944432	 0.091999
H	 2.7979258043	-1.6564528185	-2.5803627969	 0.08978
H	 3.064633321	 0.4487437287	-4.1599429987	 0.293853
H	 4.9323810429	-0.6764504407	-1.6233041851	 0.096254
