20
gdb 113405	4.14614	1.09825	1.00763	1.3561	81.41	-0.2316	0.0759	0.3075	1257.7256	0.170545	-403.028811	-403.020495	-403.019551	-403.061859	31.931	
C	 0.060433843	 1.2489999352	-0.4661909705	-0.229082
O	-0.1153031809	 0.207206479	 0.4740287922	-0.246175
C	-1.3303096582	-0.4554489615	 0.3307899163	-0.016483
C	-1.4639799981	-1.5760294562	-0.711942912	-0.442515
C	-1.3781001792	-1.8684167649	 0.7479959233	 0.433829
C	-0.4953052799	-2.7577794643	 1.6216047973	-0.139668
C	-1.4155435631	-2.2646451675	 2.7620299911	-0.168782
N	-2.4324918565	-2.5250907124	 1.6264515559	-0.195212
C	-1.6061148516	-3.8080788334	 1.381835172	-0.168215
H	 1.035963387	 1.699470941	-0.2689832196	 0.127262
H	 0.0382311304	 0.8717836227	-1.4986068927	 0.109819
H	-0.716848811	 2.0210771675	-0.3631444705	 0.107738
H	-2.215730353	 0.1621365133	 0.4966084162	 0.09548
H	-2.4179168547	-1.6870472057	-1.2179663823	 0.122082
H	-0.5882037831	-1.7894210537	-1.3174537099	 0.120366
H	 0.5920659768	-2.8736033018	 1.6036935315	 0.074758
H	-1.5594534415	-2.9225993732	 3.6234080349	 0.097722
H	-1.3509626444	-1.2153151694	 3.0564362314	 0.113444
H	-1.7231008713	-4.2137552566	 0.374508518	 0.105275
H	-1.7631760008	-4.5717435681	 2.1484457275	 0.098358
