12
gdb 19337	5.26243	1.70676	1.52676	3.2209	59.68	-0.2522	-0.0099	0.2423	789.9375	0.083727	-377.421908	-377.41582	-377.414876	-377.452089	23.357	
N	 0.0825332711	-1.1482399911	-0.1120919556	-0.33949
C	 0.0677859869	 0.0080529131	-0.0414263344	 0.175457
C	 0.0291486601	 1.4212427838	 0.0698880668	 0.205134
N	 0.2108211768	 2.3427215182	-1.0847490435	-0.331457
C	 1.1534855867	 2.4082391107	 0.0362827834	-0.160623
C	 0.4719004216	 3.2044642867	 1.2073535511	 0.031251
O	-0.8453367541	 3.5756125538	 0.8016511936	-0.197224
C	-0.632101394	 2.2496699776	 1.2476267643	-0.033608
H	 0.6541354523	 1.8043547074	-1.8302979582	 0.256098
H	 2.2113579314	 2.2108973518	-0.0712271319	 0.131964
H	 0.9618946562	 3.7821576917	 1.9797341665	 0.129526
H	-1.236613875	 1.8464150763	 2.0496150478	 0.132971
