18
gdb 38208	3.31524	1.73972	1.41372	2.138	76.29	-0.2426	0.0182	0.2608	940.481	0.151499	-401.898813	-401.892416	-401.891471	-401.929401	26.844	
C	-0.049845079	 1.6079189712	 0.1353899103	-0.26757
C	 1.4525910672	 1.2380558393	 0.041302626	-0.084727
C	 1.1274057007	 0.0455577902	 1.0145329993	-0.285795
C	 0.0043417479	 0.0545677869	-0.0593327156	 0.403202
N	-1.0919215482	-0.8040126104	-0.3354456338	-0.380504
C	-1.287728693	-0.939982465	-1.5880573779	 0.110763
O	-0.6382881364	-0.3982969641	-2.6464737372	-0.241052
C	 0.4601530972	 0.5444403422	-2.4541955225	-0.130703
C	 1.1139104612	 0.2515203358	-1.1220707259	-0.028204
H	-0.4036198485	 1.9557596042	 1.1084626989	 0.099031
H	-0.4857034715	 2.2016081383	-0.6696094071	 0.0931
H	 2.30362068	 1.9140697993	 0.1108806201	 0.078376
H	 1.8135594099	-0.8050741863	 0.9943046849	 0.095776
H	 0.847674064	 0.3191959086	 2.034796769	 0.096972
H	-2.0815834051	-1.5868976571	-1.9571955142	 0.124294
H	 1.1178564859	 0.3779133196	-3.3102868272	 0.119627
H	 0.0462445262	 1.5535101692	-2.5343441647	 0.121082
H	 1.7988856013	-0.597895742	-1.2060743125	 0.076333
