14
gdb 21292	3.54167	1.9536	1.27111	1.2464	60.33	-0.1988	0.0143	0.2131	905.1127	0.108552	-412.030258	-412.022272	-412.021328	-412.062763	27.76	
C	-0.047335957	 1.4165978089	 0.022137873	-0.239736
O	 0.0033077128	-0.006764203	-0.0135232022	-0.274269
C	-1.1884950769	-0.6278535522	-0.0215976757	 0.356638
N	-2.3721528799	-0.0341595378	 0.0176582062	-0.302121
N	-3.2189977049	-1.0658780236	 0.0269228935	-0.113774
N	-2.6674901438	-2.2844529915	-0.0285659654	-0.276434
C	-1.3640368283	-2.0335292518	-0.0524343873	 0.250133
N	-0.381753629	-3.01032763	-0.1591718735	-0.598367
H	 0.9891443929	 1.7561179897	 0.0245240473	 0.130279
H	-0.5713413821	 1.8103808283	-0.8553206645	 0.135744
H	-0.5624852553	 1.7673188697	 0.9229404364	 0.134276
H	-4.2119877661	-0.9333344925	-0.0409406173	 0.286339
H	-0.7024900239	-3.9177458961	 0.1512583107	 0.255406
H	 0.4799892015	-2.7494519082	 0.3007743389	 0.255884
