18
gdb 86152	2.33764	1.65375	1.12984	2.6967	68.93	-0.252	0.0182	0.2702	1098.1167	0.148375	-476.265228	-476.256496	-476.255552	-476.298521	32.505	
C	-0.0096164135	 1.4122919103	-0.0460528474	-0.347665
N	 0.0000109968	-0.0319011455	-0.0111246508	-0.077181
C	-1.2148152104	-0.8408383602	-0.0337001931	-0.19028
C	-0.7273917027	-2.229860548	-0.4974661843	 0.09919
O	-0.747580011	-2.2710048017	-1.9060205189	-0.444171
C	 0.7280288736	-2.2472908744	 0.0007376011	-0.009052
O	 1.5678518407	-3.0418221902	-0.8016167678	-0.444728
C	 1.1304401492	-0.7735734903	-0.0928744839	 0.396534
O	 2.2781502167	-0.3917507738	-0.2430293028	-0.420238
H	 1.0262519301	 1.7509883868	-0.1054317827	 0.166468
H	-0.5594535798	 1.7775988609	-0.9217178194	 0.133541
H	-0.4761805227	 1.8281644921	 0.8547604537	 0.128738
H	-1.6913932052	-0.8818952333	 0.9552264444	 0.107555
H	-1.9367040313	-0.4379094062	-0.7511598239	 0.130638
H	-1.3389054338	-3.0334811711	-0.0668785247	 0.076873
H	 0.0427974737	-2.770578333	-2.1596436853	 0.293654
H	 0.7717099125	-2.5644060643	 1.0543064753	 0.098384
H	 2.370374687	-2.5101523981	-0.9284228895	 0.301741
