19
gdb 107103	4.1624	0.9166	0.84921	3.4722	77.54	-0.2439	-0.0219	0.222	1392.3361	0.157271	-422.990998	-422.981963	-422.981018	-423.025427	32.914	
C	 0.0231339559	 1.3686397658	 0.2815994843	-0.25917
O	 0.0038968057	 0.0302787184	-0.1911276857	-0.28019
C	-1.2403715288	-0.5523879305	-0.1414423996	 0.463546
C	-1.8405011515	-1.0697666292	 1.1356809656	-0.346304
C	-1.5562804631	-2.0306015881	-0.0009404201	-0.159264
C	-2.674262715	-1.9180980851	-1.0566768551	-0.070129
C	-2.3131999292	-0.3917710126	-1.2249851174	-0.337778
C	-2.3995905921	-2.7008922978	-2.3119519897	 0.155977
O	-3.1819942934	-3.4408569543	-2.8504478717	-0.256723
H	 1.0568599798	 1.7139029427	 0.2152026818	 0.131622
H	-0.6111459642	 2.0248798198	-0.3304665329	 0.114654
H	-0.3139185916	 1.4287067714	 1.3254334868	 0.114419
H	-1.1333763068	-1.1411265678	 1.9559693185	 0.122071
H	-2.8629146451	-0.8425503238	 1.4294793536	 0.108724
H	-0.8898269783	-2.8752878206	 0.1220966824	 0.10556
H	-3.6856150718	-2.140443088	-0.7069278758	 0.090377
H	-3.1238557578	 0.3190269345	-1.0417752511	 0.107089
H	-1.8710225549	-0.1891928971	-2.2048203805	 0.118728
H	-1.3779805578	-2.5378502778	-2.7314783134	 0.076792
