15
gdb 8629	2.52038	1.74476	1.40694	2.9108	67.11	-0.2799	0.0074	0.2873	946.5517	0.116225	-362.635284	-362.626346	-362.625402	-362.668372	32.14	
C	-0.0228625877	 1.579416421	 0.0000833974	-0.405832
C	-0.0118115725	 0.0304928777	 0.0114340053	-0.125634
C	 0.7335599515	-0.493909323	 1.2906819374	-0.076027
O	 2.0626649326	-0.0460513217	 1.3555525565	-0.412799
C	-1.3704468654	-0.5133170015	-0.0066081912	 0.326677
C	-2.4863711684	-0.9544556598	 0.0346745546	-0.437093
C	 0.7467526051	-0.4633039938	-1.1550345416	 0.275815
N	 1.4038830158	-0.8506585248	-2.0234263232	-0.341983
H	 0.9984672039	 1.9479810363	 0.108610261	 0.151737
H	-0.4534677881	 1.9584446896	-0.9282603389	 0.143416
H	-0.6249645649	 1.9370802532	 0.8388935377	 0.135631
H	 0.2140459557	-0.0877465001	 2.1626997081	 0.131939
H	 0.6550875915	-1.5880415119	 1.318608134	 0.121098
H	 2.5703625394	-0.5016263356	 0.673553503	 0.302845
H	-3.4737411286	-1.3463587756	 0.05398733	 0.210212
