16
gdb 2923	6.08533	1.90748	1.61128	1.2854	61.8	-0.2393	0.0304	0.2697	807.408	0.137971	-325.804686	-325.797492	-325.796548	-325.836614	24.989	
C	 0.3805841028	 1.081306261	 0.5763725157	-0.379366
C	-0.3772659839	 0.2675113363	-0.4847877377	-0.267033
C	 0.5264591726	-0.3005085731	-1.5314796932	 0.410921
N	 0.4913526212	-0.0522347143	-2.7769464273	-0.308576
C	 1.5678912583	-0.8400179681	-3.3948652415	-0.183583
C	 2.2491668214	-1.5738210542	-2.2102983438	-0.10882
O	 1.4747382251	-1.1645459028	-1.0622686142	-0.257613
H	 1.1308201303	 0.4647302304	 1.077539055	 0.135252
H	 0.8905120521	 1.9362741392	 0.1220963927	 0.126408
H	-0.3127217943	 1.4623055414	 1.331262431	 0.117928
H	-0.9040271837	-0.5628613612	 0.001026897	 0.120971
H	-1.1218376913	 0.8824337323	-0.9942058713	 0.13066
H	 1.1473594019	-1.5331367576	-4.1316722905	 0.114875
H	 2.2572260008	-0.1789594774	-3.9306613351	 0.114865
H	 2.2051057416	-2.6640194185	-2.2835788187	 0.116998
H	 3.288675845	-1.2731439232	-2.0491604581	 0.116113
