19
gdb 41974	2.47748	2.08808	1.64505	1.8015	72.22	-0.2301	0.0692	0.2992	903.4207	0.163348	-423.014328	-423.00765	-423.006705	-423.045257	27.639	
C	-0.0836134882	 1.4604705525	-0.2091602338	-0.249623
C	 1.3163144532	 1.9810597875	 0.2126811308	-0.231489
C	 1.9681915174	 0.8761287271	 1.0773604848	 0.082474
O	 1.7987661607	 1.0639085639	 2.4922546605	-0.247696
C	 0.464652901	 1.1449466678	 2.8782164379	 0.018534
O	-0.3224251837	 0.0175040968	 2.5192622676	-0.26945
C	 0.0087468911	-0.6576948089	 1.3401632148	 0.125955
C	-0.0128969189	-0.0590256552	-0.0466215706	-0.087653
C	 1.308281246	-0.4255910612	 0.6285326745	-0.130467
H	-0.8847198178	 1.8908152851	 0.4005028956	 0.114649
H	-0.3062017507	 1.7229405818	-1.2470030081	 0.101509
H	 1.9346321585	 2.1024156955	-0.6827008783	 0.106442
H	 1.3020706505	 2.9469555943	 0.7258161789	 0.108786
H	 3.0511731419	 0.8506034563	 0.9477559599	 0.087624
H	 0.4536540283	 1.1863635143	 3.9706321961	 0.11625
H	-0.0060785042	 2.0567049947	 2.4771175104	 0.083496
H	-0.3379762923	-1.6830994793	 1.4203003102	 0.100254
H	-0.4174223374	-0.6823032459	-0.8368813655	 0.083824
H	 1.9279155846	-1.2607774772	 0.3243039342	 0.086584
