22
gdb 101347	3.46254	0.80514	0.72436	1.3653	79.93	-0.2322	0.0575	0.2898	1639.6268	0.192524	-441.444647	-441.434245	-441.433301	-441.480442	38.067	
C	-0.4585943896	 1.605795895	-0.9228927431	-0.379872
C	-0.537482161	 0.1178808525	-0.5920368694	-0.11055
N	 0.3845090284	-0.6324627644	-1.4452767436	-0.084723
C	 1.7054523425	-0.9431785668	-0.9195878765	-0.261291
C	 0.6987768163	-2.0250929358	-1.1349996712	-0.024329
C	 0.0907348564	-2.7758095364	 0.0260363425	 0.080588
O	-1.2908653789	-3.093597391	-0.2115723772	-0.44638
C	 0.8468218283	-4.0728840035	 0.3360973684	-0.064694
O	 0.189790559	-4.8055144644	 1.3454715041	-0.424313
H	 0.5451989987	 1.9975997601	-0.7278194908	 0.11687
H	-0.6878340466	 1.7780477593	-1.9781055925	 0.12608
H	-1.1678017186	 2.1736639933	-0.3127894954	 0.112136
H	-0.3363140035	-0.0279409697	 0.4820210119	 0.085069
H	-1.546028026	-0.2651158809	-0.7790091664	 0.114525
H	 2.5437816037	-0.8225381822	-1.600586539	 0.117232
H	 1.9183563757	-0.6698448106	 0.114579446	 0.109321
H	 0.804431695	-2.6421488011	-2.030763163	 0.083976
H	 0.0777459512	-2.1622301313	 0.9311486922	 0.097427
H	-1.3612771838	-3.444715817	-1.1075111059	 0.284197
H	 0.9444232887	-4.6629037411	-0.594289914	 0.072196
H	 1.8591364643	-3.8488101426	 0.6889198214	 0.111193
H	-0.7515647002	-4.7302414315	 1.1390161916	 0.285344
