24
gdb 6540	2.57342	1.77311	1.54837	0.1178	84.12	-0.262	0.0775	0.3395	1029.1931	0.221507	-314.268767	-314.259018	-314.258074	-314.302225	38.391	
C	 0.0762007778	 1.5406861232	 0.1760175211	-0.425809
C	 0.0040599797	 0.0101071414	 0.0032041577	 0.20147
C	 0.6407752484	-0.640746236	 1.2497182358	-0.401001
C	-1.4884587022	-0.3768644859	-0.0676705615	-0.412054
C	 0.743491756	-0.4859369452	-1.2670513794	 0.392445
C	 0.5151704328	-1.9468807003	-1.6360657357	-0.470952
C	 0.9608560881	 0.4348870226	-2.4481220055	-0.318569
C	 2.1279472009	 0.0390704789	-1.5745561164	-0.312506
H	 1.1036972698	 1.9161102273	 0.1834631862	 0.11181
H	-0.4748447137	 2.0677552813	-0.6083390458	 0.113429
H	-0.375985294	 1.8210075681	 1.1330209554	 0.108808
H	 0.1181754503	-0.3243230379	 2.1590314451	 0.104343
H	 0.5951814845	-1.7329945427	 1.2109742041	 0.109785
H	 1.6923667114	-0.3529555621	 1.3491492171	 0.110501
H	-1.9510323526	 0.0055015588	-0.9841215512	 0.110907
H	-1.6348276207	-1.4601789856	-0.0418871104	 0.111522
H	-2.0321434037	 0.0470784337	 0.7835477876	 0.104868
H	-0.523355715	-2.1388440122	-1.9232471167	 0.116543
H	 1.1437177716	-2.2259812565	-2.4874155034	 0.108881
H	 0.7654279218	-2.6249413997	-0.8134517012	 0.114284
H	 0.8923760109	 0.0041939003	-3.4419229121	 0.102217
H	 0.6217713425	 1.4621413177	-2.395159701	 0.107854
H	 2.5590974735	 0.8011431624	-0.9350757713	 0.107437
H	 2.8583737018	-0.6589483918	-1.9705263084	 0.103788
