14
gdb 16060	3.74561	1.68876	1.43021	2.2268	59.46	-0.2507	-0.0327	0.218	865.0931	0.105969	-419.630489	-419.623303	-419.622359	-419.662014	26.314	
O	-0.0101108192	 1.3911212723	-0.0248175584	-0.423712
C	-0.0436184545	 0.008404321	-0.0078484219	 0.069409
C	-0.449852206	-0.748295563	 1.1908846971	-0.01242
O	-1.4020173594	 0.0004455143	 1.9384698934	-0.298785
C	-2.3721471894	-0.0713415145	 0.8419247464	-0.155111
C	-1.3722808467	-0.7746285613	-0.0604910158	 0.147016
C	-1.6668699682	-1.8397706933	-1.0180516229	 0.052079
O	-2.785801429	-2.1909783648	-1.3153776138	-0.271169
H	-0.3203155631	 1.6843969679	 0.8431514859	 0.303085
H	 0.7384107819	-0.4401258505	-0.6152784756	 0.125053
H	 0.095342729	-1.5374814019	 1.6975535235	 0.124458
H	-3.217820192	-0.7027279062	 1.1230330201	 0.14315
H	-2.7156755143	 0.9191622288	 0.5298520446	 0.126473
H	-0.769409329	-2.3171173687	-1.4739114226	 0.070474
