21
gdb 89222	3.02883	1.55677	1.25493	1.6943	81.14	-0.2202	0.0841	0.3042	1088.7003	0.183178	-387.068363	-387.060304	-387.05936	-387.100369	32.574	
C	-0.0664381632	 1.5629612662	 0.0591334453	-0.411717
C	 0.0328011153	 0.0393710573	 0.0090466058	 0.044417
C	 0.8237436517	-0.5203149504	-1.2115579677	-0.300731
C	 1.6188352184	-1.710530745	-0.6654619497	 0.303854
C	 2.0208943556	-2.8377005939	-1.5835925195	-0.49402
C	 2.5283528681	-1.3911515663	 0.5099524255	 0.063877
O	 2.1980865615	-0.1312068196	 1.0950874648	-0.313913
C	 0.7975479433	-0.5720169716	 1.1841027705	 0.077477
C	 1.1864679469	-2.0037926633	 0.7654971056	-0.203857
H	 0.9335622769	 2.0011022545	 0.1294682491	 0.135084
H	-0.5528354404	 1.9584110878	-0.8383090715	 0.111125
H	-0.6468175218	 1.8967353564	 0.9263042846	 0.107697
H	-0.9763057262	-0.3958496413	 0.0128984276	 0.067918
H	 0.1525577681	-0.8387014325	-2.015972319	 0.093364
H	 1.4892209186	 0.244211534	-1.6276472899	 0.103662
H	 2.6489736518	-2.4737866625	-2.4047416777	 0.121506
H	 2.5892630474	-3.6066597715	-1.0489546558	 0.115744
H	 1.1429573182	-3.3230235703	-2.0259446286	 0.117683
H	 3.542026944	-1.758967201	 0.6271804453	 0.096335
H	 0.3898056914	-0.3914137336	 2.1811062274	 0.073907
H	 0.8752065442	-2.9518550033	 1.1824698382	 0.090591
