16
gdb 8927	3.9007	1.1882	1.08558	6.9425	61.34	-0.2631	0.0253	0.2884	1100.2059	0.129722	-417.048409	-417.03929	-417.038346	-417.082145	32.334	
N	-0.2085749436	 1.5605270274	 0.0415129879	-0.496267
C	-0.072905481	 0.1076072221	-0.0371314959	-0.161104
C	-1.4037840173	-0.5118268474	 0.1105522719	 0.320812
N	-2.4342778492	-1.0196518629	 0.2277843649	-0.321962
C	 0.5934189521	-0.4296863173	-1.3298250029	 0.142966
O	-0.0858351675	 0.1580274244	-2.4185965445	-0.439846
C	 2.083228702	-0.0957287061	-1.3944049562	-0.116831
O	 2.5151858823	-0.5110543371	-2.6843083079	-0.428563
H	 0.6970407608	 1.9849500004	 0.2095971151	 0.23488
H	-0.5404493728	 1.8977405726	-0.8581756708	 0.25346
H	 0.5250462417	-0.2294953485	 0.8188840939	 0.127896
H	 0.4893991447	-1.5260586016	-1.3496806039	 0.097774
H	 0.4779887779	 0.0170482717	-3.1898910043	 0.29861
H	 2.2265046773	 0.9861164009	-1.261297201	 0.088119
H	 2.6273627447	-0.6238980351	-0.5969895624	 0.100163
H	 3.374603958	-0.1218762534	-2.8679727341	 0.299894
