19
gdb 55198	3.82757	1.05681	0.84407	3.6938	79.19	-0.2248	0.0184	0.2432	1358.9621	0.160034	-419.265965	-419.256855	-419.255911	-419.300047	33.655	
C	-0.0806221198	 1.4464878087	 0.1037802591	-0.490054
C	-0.0269194073	-0.0441606076	 0.0181446662	 0.3161
C	-0.1539363927	-0.8116962738	-1.0639070284	-0.188831
C	-0.0374228061	-2.2746404185	-0.7358660348	-0.216589
N	 0.1900105037	-2.2505461924	 0.7079351785	-0.116107
C	 0.1930971633	-0.8922559589	 1.2460563864	-0.234336
C	 0.1044128828	-3.3208046243	 1.5564309676	 0.440647
N	-0.0254339267	-4.5587413367	 0.9298793531	-0.56989
O	 0.1017124188	-3.1987260636	 2.7705610618	-0.410438
H	 0.8511350148	 1.8522825435	 0.5171007817	 0.132164
H	-0.2441820697	 1.899038984	-0.8774304663	 0.127333
H	-0.8867272993	 1.7751779318	 0.7713647521	 0.133805
H	-0.3206513012	-0.4609951579	-2.075209119	 0.097947
H	-0.9453231512	-2.8416259172	-0.9930258704	 0.12337
H	 0.7978972122	-2.7489848706	-1.2796688546	 0.103599
H	 1.1416841679	-0.6576462679	 1.75097762	 0.117319
H	-0.5952584527	-0.7635277975	 2.0004912286	 0.128385
H	 0.4206623811	-4.6855993559	 0.0338559218	 0.248383
H	 0.1322907722	-5.3187802952	 1.5745267867	 0.257194
