21
gdb 72280	3.085	1.54741	1.30058	1.4614	81.45	-0.237	0.0846	0.3216	1064.3281	0.185266	-387.0707	-387.063121	-387.062177	-387.102232	31.201	
C	-0.1333992638	 1.5904293555	-0.0024082064	-0.495611
C	-0.0231226083	 0.0927863919	-0.0485036123	 0.334174
C	 0.6514535695	-0.6759209405	-1.1882205193	-0.334398
C	-0.3649393887	-1.8510142772	-0.9683228837	 0.111612
O	 0.1344523926	-3.0687716883	-0.4486436757	-0.264774
C	 1.101926749	-2.8915364629	 0.5753182709	-0.0773
C	 0.6593730698	-1.9212897366	 1.6869580721	-0.247364
C	-0.1973547749	-0.7643665533	 1.1909721816	-0.074168
C	-1.1305762642	-0.9722568462	 0.0332754862	-0.133417
H	 0.8348595016	 2.0541907549	 0.223564563	 0.11871
H	-0.4733473893	 1.992195255	-0.9643140832	 0.114667
H	-0.8416671856	 1.9171803293	 0.7662349629	 0.116397
H	 0.4606867526	-0.194323686	-2.15218419	 0.0983
H	 1.7225507941	-0.884391231	-1.120107884	 0.095111
H	-0.9235076079	-2.1205327787	-1.8654954052	 0.08288
H	 1.2777795985	-3.8873201287	 0.9918700999	 0.103875
H	 2.0521572139	-2.5544823596	 0.1377919276	 0.093155
H	 0.0559142611	-2.4708143103	 2.4203189221	 0.105352
H	 1.5487472447	-1.5615869907	 2.2189375339	 0.096399
H	-0.6423667828	-0.1916125464	 2.0023578238	 0.079763
H	-2.2067961917	-0.8624221903	 0.0990567059	 0.076636
