17
gdb 6831	3.38104	1.55369	1.37821	0.9988	67.36	-0.2524	0.023	0.2754	987.0951	0.13995	-400.992923	-400.983894	-400.98295	-401.026697	31.565	
C	 0.0372655182	 1.3808713175	 0.0406906359	-0.340983
N	 0.2908647095	-0.0539270301	 0.0615189623	-0.34435
C	 0.5917715796	-0.6430851324	-0.9985937805	 0.424647
O	 0.7546780182	-0.1866140071	-2.293514964	-0.271691
C	 0.9572757805	-1.5500458378	-2.7877958269	-0.102188
C	 0.8493370733	-2.1038936576	-1.3478343478	 0.235335
C	 2.102479839	-2.7216194923	-0.7435854339	-0.44429
O	-0.2828174899	-2.9367172447	-1.1943504095	-0.467787
H	 0.7894733519	 1.8880441931	 0.6551943905	 0.129531
H	 0.0498118253	 1.8210593082	-0.9629623463	 0.129242
H	-0.9366479231	 1.5773952712	 0.5012780992	 0.127908
H	 0.140486613	-1.8586115498	-3.4425441633	 0.12998
H	 1.9254215811	-1.6460591592	-3.2840314682	 0.117323
H	 2.9834976549	-2.0988248695	-0.9262314357	 0.124024
H	 1.9814582691	-2.8249409829	 0.3391842645	 0.131813
H	 2.272009797	-3.7137720096	-1.1721551388	 0.128466
H	-0.5970796577	-2.8241171972	-0.2895266575	 0.293021
