17
gdb 109099	3.00945	1.25346	0.95073	4.8017	76.86	-0.2312	-0.0917	0.1395	1235.5877	0.135096	-421.877933	-421.869242	-421.868298	-421.911887	31.432	
C	 0.1329198767	 1.5420742786	-0.1315099429	-0.382666
C	-0.0747186614	 0.029441612	 0.0665476647	-0.291259
C	 0.657263196	-0.5021037218	 1.260620605	 0.222873
C	 0.1469198484	-0.992869545	 2.4062635528	-0.181215
C	 1.17047734	-1.442790209	 3.4168476623	-0.384038
C	 2.4938209934	-1.1646563331	 2.7045598179	 0.325793
O	 3.6046325616	-1.3641254806	 3.1103444807	-0.272083
C	 2.1347298443	-0.5585519058	 1.317195465	 0.235598
O	 2.9340218101	-0.2201232074	 0.4768217455	-0.305608
H	 1.1938946113	 1.7699115164	-0.2581957002	 0.150487
H	-0.4005209765	 1.886860339	-1.0218757329	 0.119355
H	-0.2409953703	 2.1062010549	 0.7286909436	 0.11622
H	-1.1424458567	-0.1974799669	 0.1597904798	 0.103928
H	 0.2906189969	-0.4942910036	-0.8253343819	 0.126034
H	-0.9180933737	-1.0710586255	 2.6053088242	 0.118635
H	 1.1137875905	-0.8894569583	 4.3624546387	 0.149068
H	 1.0834097693	-2.5054071139	 3.6748705877	 0.148878
