15
gdb 41458	3.01747	2.18376	1.67033	1.3015	64.08	-0.2361	0.0257	0.2617	808.3651	0.112759	-457.60083	-457.594792	-457.593847	-457.630896	25.194	
C	 0.0783832838	 1.4798279692	-0.2084984486	-0.176729
O	 1.5167663317	 1.4586685245	 0.1157782777	-0.321351
C	 1.3402613384	 0.231622401	 0.8390726061	 0.308688
C	 1.1759457046	 0.2063730509	 2.34580577	-0.150122
O	 0.2086754839	-0.8698094232	 2.4774057139	-0.255195
C	-0.0359790018	-1.2547970094	 1.1642450051	 0.025474
C	 1.3048536319	-1.23760243	 0.2944103835	-0.043984
O	 0.585142995	-0.8349045188	-0.8857142324	-0.316542
C	-0.0173833765	-0.0092753045	 0.1791452318	 0.205888
H	-0.4610581881	 2.1791163406	 0.4378152894	 0.123686
H	-0.0991429786	 1.6948396019	-1.2640282976	 0.143167
H	 2.08019982	-0.0499711693	 2.9066050834	 0.122364
H	 0.7542189125	 1.1346866678	 2.7458104175	 0.121234
H	-0.7586609952	-2.0655094252	 1.093857183	 0.116822
H	 2.0626028686	-2.0203775856	 0.2046550871	 0.0966
