21
gdb 37446	2.37612	1.89795	1.86297	1.7858	78.75	-0.2577	0.0793	0.337	926.145	0.187557	-387.099468	-387.092676	-387.091731	-387.130198	29.02	
C	-0.04421169	 1.5475940758	 0.0119952978	-0.198159
C	 1.3999585122	 2.1278930664	 0.0011693311	-0.198156
C	 2.4277168305	 0.9816116836	-0.0389797753	-0.05265
C	 2.2326170012	 0.0820765875	 1.2089236108	-0.203737
C	 0.7857104057	-0.4994655737	 1.2196130949	-0.203737
C	 0.0064341729	 0.0087092605	-0.0209403963	-0.052642
C	 0.7992334584	-0.4544115879	-1.2420035096	 0.05004
O	 1.1839555036	 0.5372776982	-2.2046141073	-0.258066
C	 2.1601626224	 0.0924010878	-1.2521384087	 0.050034
H	-0.585989789	 1.8605837421	 0.9110196146	 0.086089
H	-0.6057431849	 1.9158349877	-0.8490532256	 0.108871
H	 1.5394771159	 2.7777096176	-0.8651984113	 0.108872
H	 1.5860850478	 2.733442942	 0.8946945151	 0.086088
H	 3.4456330481	 1.3827224523	-0.0591514491	 0.059938
H	 2.9721135477	-0.7256661515	 1.2030432629	 0.09436
H	 2.4244668903	 0.6702174017	 2.1123698425	 0.095993
H	 0.8108597763	-1.5943248968	 1.2186733976	 0.094361
H	 0.2518368564	-0.2033267588	 2.1285693514	 0.095989
H	-1.0061702812	-0.4060936941	-0.025984676	 0.059937
H	 0.579784946	-1.4341423617	-1.662388468	 0.088287
H	 2.9910287998	-0.4653050186	-1.6803575714	 0.088289
