19
gdb 39192	2.52532	2.30122	1.56316	1.3806	78.77	-0.238	0.0201	0.2581	901.1916	0.163263	-385.897226	-385.890824	-385.88988	-385.927777	27.025	
C	-0.0467977236	 1.4280336285	-0.4789623379	-0.251687
C	 1.3301950846	 1.6404191466	 0.2041240867	 0.122871
O	 1.2335076654	 2.2777943184	 1.470915342	-0.266218
C	 1.7744986126	 1.4154667929	 2.4621389522	-0.08456
C	 1.4276101441	-0.0235580958	 2.0113605372	-0.089295
C	-0.0073990129	-0.4046990181	 2.3017772938	-0.06746
C	-0.7784224719	-0.4099071197	 1.2140374953	-0.078083
C	-0.016238165	-0.0777366885	-0.0390927925	-0.064818
C	 1.4496072965	 0.1149882212	 0.4682980631	-0.072866
H	-0.8545788498	 2.0400445278	-0.0733788885	 0.107768
H	-0.0030671377	 1.5556160526	-1.5640477341	 0.095232
H	 2.1050411331	 2.1183691435	-0.407138817	 0.067016
H	 2.8672087283	 1.5369888104	 2.5373520339	 0.085055
H	 1.3309662469	 1.693398047	 3.423150956	 0.105747
H	 2.1487964472	-0.741755967	 2.415704012	 0.072282
H	-0.3545343868	-0.5978080452	 3.3118822245	 0.09099
H	-1.8464619208	-0.6031080111	 1.2103593708	 0.09185
H	-0.1845327109	-0.7910152769	-0.8505512523	 0.070502
H	 2.2453631008	-0.4242151866	-0.0436833453	 0.065673
