15
gdb 130736	3.26434	1.39452	1.05989	0.7706	68.1	-0.2419	-0.0254	0.2165	1093.8569	0.114017	-450.108804	-450.101269	-450.100324	-450.141805	27.685	
O	 0.0115575837	-0.0230525589	-0.364727374	-0.41975
C	-0.0050203693	 1.1597442686	-0.1055712229	 0.522753
N	-1.0620864585	 2.0461209429	 0.014720313	-0.313594
N	-0.6526709131	 3.3039421501	 0.3204010925	-0.06952
N	 0.6170686198	 3.284826334	 0.4060891356	-0.12394
N	 1.0509012063	 2.0236490312	 0.1593062066	-0.079323
C	 2.4345392296	 1.6511166953	 0.175499715	 0.066565
C	 3.4835557905	 2.6076755761	-0.3162259084	-0.280327
C	 3.3791094194	 2.2838159646	 1.1577176058	-0.280347
H	-2.0402944162	 1.8420767851	-0.0997005954	 0.294483
H	 2.5183328985	 0.5953403913	-0.0506021951	 0.141099
H	 4.3082122603	 2.200842321	-0.8900418729	 0.127571
H	 3.1425330046	 3.5874670137	-0.6296720344	 0.143371
H	 2.9704212984	 3.0532074019	 1.8023400657	 0.143389
H	 4.130650486	 1.650337623	 1.6145973689	 0.12757
