21
gdb 121349	2.7044	1.00983	0.81561	1.3032	75.03	-0.2523	0.0819	0.3342	1452.6095	0.181857	-461.359858	-461.350061	-461.349117	-461.395367	35.075	
C	-0.4509878988	 1.4872074069	-0.134079711	-0.418558
C	 0.1646668152	 0.1025502765	-0.0846176209	 0.093755
O	 1.3923459159	 0.093788754	-0.8125995884	-0.246758
C	 2.0233525782	-1.0907726495	-0.4160680879	 0.022517
O	 1.7196547184	-1.2947996001	 0.9532690563	-0.27856
C	 0.6027997392	-0.4578531839	 1.2924739088	 0.098306
C	 1.0306734312	 0.5813079906	 2.3253056984	-0.183256
C	 1.5867137692	-0.0555866532	 3.5927528621	-0.080682
O	 1.9078803339	 0.993919683	 4.495279579	-0.42447
H	 0.229261634	 2.2371870885	 0.2752365261	 0.136365
H	-0.6774054746	 1.7561728277	-1.1691495504	 0.129132
H	-1.3845626558	 1.5108357764	 0.4362150795	 0.122274
H	-0.5269019202	-0.6246115479	-0.5432004698	 0.070728
H	 1.6570057078	-1.9508461177	-1.0060511793	 0.082204
H	 3.1048309977	-0.9806843393	-0.5486964992	 0.114025
H	-0.1868431112	-1.0956967084	 1.7122894033	 0.075968
H	 1.7925051932	 1.2397640793	 1.8943941695	 0.114195
H	 0.1716437327	 1.2050838924	 2.599398435	 0.103231
H	 0.8345811217	-0.7363742212	 4.0266650262	 0.078845
H	 2.4692681839	-0.6588518998	 3.3408766835	 0.105875
H	 2.3343527684	 0.6056080757	 5.2644756491	 0.284863
