18
gdb 104243	2.99984	1.15041	1.00173	4.9213	71.99	-0.2777	0.0009	0.2786	1214.2765	0.145905	-439.069407	-439.059858	-439.058914	-439.104147	34.004	
C	-0.3173046572	 1.6198422289	 0.0996498632	-0.469205
C	-0.1186887654	 0.1124079009	 0.0440853474	 0.260425
C	-1.3946225109	-0.6215121828	-0.3615636428	-0.128424
O	-1.7322811077	-0.1964477579	-1.6704300247	-0.422505
C	 1.1232399627	-0.4086312597	-0.7190146516	-0.10373
O	 1.5649586841	-1.1729731522	 0.4327316464	-0.275671
C	 0.5497537991	-0.597586402	 1.2686831879	-0.079674
C	 1.1016636645	 0.2742679756	 2.3121419202	 0.295633
N	 1.5233958676	 0.9662862444	 3.1361355495	-0.329668
H	 0.6072428419	 2.1363824876	 0.3693968781	 0.136867
H	-0.6515944427	 1.9807432439	-0.8760307229	 0.143801
H	-1.0797151186	 1.8884135113	 0.8388176064	 0.125521
H	-1.2182253103	-1.7084070997	-0.3291439697	 0.099421
H	-2.1954045231	-0.389933701	 0.3598174274	 0.096147
H	-2.5214713866	-0.6676248657	-1.9526808135	 0.295939
H	 0.926073528	-1.0476916807	-1.584222485	 0.121677
H	 1.8517253001	 0.3641352752	-0.9894185308	 0.114144
H	-0.0627483656	-1.3681047961	 1.7547694045	 0.119302
