13
gdb 5407	5.60867	1.72136	1.32814	1.8691	61.3	-0.2707	-0.0478	0.2228	864.117	0.098223	-394.833638	-394.827108	-394.826164	-394.864566	23.094	
C	-0.0187807052	 1.3958531157	 0.0174009442	-0.232778
O	 0.0244701343	-0.0346756026	-0.0404334128	-0.231823
C	 0.6211872117	-0.5912717762	-1.0859349655	 0.48641
N	 1.1534123364	 0.1859227527	-2.0331449147	-0.336743
C	 1.724628342	-0.4884332139	-3.0301558817	 0.084068
N	 1.8007425441	-1.8114685241	-3.1465645195	-0.254781
C	 1.2283802634	-2.4683494573	-2.1293604313	 0.084944
N	 0.6274170195	-1.9300037995	-1.0782837137	-0.294007
H	 0.989743133	 1.8159102539	 0.035529842	 0.143929
H	-0.5559251056	 1.8046386016	-0.8418123596	 0.143944
H	-0.5457488153	 1.6277866212	 0.9428734118	 0.140489
H	 2.1711780501	 0.1061196066	-3.8246563997	 0.132322
H	 1.2590986418	-3.555143148	-2.1690013793	 0.134026
