18
gdb 3097	3.83871	1.99255	1.66276	2.6145	64.56	-0.213	0.0694	0.2823	831.8532	0.158394	-326.934229	-326.925641	-326.924697	-326.967046	30.324	
C	-0.0771304354	 1.5487992304	 0.6545414915	-0.416224
C	 0.0494579369	 0.0895111001	 0.2646444488	-0.008601
C	 0.3869328395	-0.3843227138	-1.1163433762	 0.007625
C	 0.6524208007	 0.5544446371	-2.2661489426	-0.104077
O	 1.5574047903	-0.1033841771	-3.1470652063	-0.42075
N	 1.3227393002	-0.5787418358	-0.008685151	-0.095487
C	 2.5818256173	 0.1499842037	 0.0287966608	-0.310995
H	 0.5681250824	 2.2159013586	 0.0811882541	 0.119745
H	-1.1102855639	 1.8837527575	 0.5121258088	 0.122416
H	 0.1660336622	 1.6818301857	 1.7146601027	 0.124273
H	-0.6324746839	-0.5450950242	 0.8321391023	 0.086512
H	-0.0632137217	-1.3164165933	-1.4589816479	 0.090336
H	-0.3040812639	 0.7712029144	-2.7691644841	 0.089626
H	 1.064284812	 1.5133178076	-1.9259884397	 0.083542
H	 1.686908464	 0.458925514	-3.9167206838	 0.286043
H	 2.5316873441	 1.2142981375	-0.2423450178	 0.093325
H	 2.9935484333	 0.0847742668	 1.041305581	 0.116833
H	 3.2800087158	-0.3348595692	-0.6591986809	 0.13586
