16
gdb 107781	2.90962	1.6642	1.28905	2.4002	67.78	-0.2442	-0.0192	0.225	974.7113	0.124709	-437.823892	-437.816474	-437.81553	-437.855903	28.509	
O	 0.0297149236	 1.3992457694	-0.121988561	-0.420293
C	 0.1043192226	-0.0022711628	 0.0738127032	-0.198277
C	-1.2847988366	-0.587291806	 0.1318713908	 0.150002
C	-2.2957699786	-0.4506470722	 1.2811444902	-0.18981
N	-3.0172528192	-1.6798650729	 0.7657703043	-0.134792
C	-3.0275460993	-1.5470615033	-0.7315398311	-0.170018
C	-1.821500202	-2.0775434797	 0.0204600694	-0.116056
C	-2.198308242	-0.358349747	-1.0897987326	 0.429643
O	-2.0854033301	 0.3564896085	-2.0514106147	-0.36521
H	-0.4345924306	 1.5334070554	-0.9593265366	 0.301189
H	 0.6777075068	-0.4976760865	-0.7264734457	 0.098835
H	 0.6465919593	-0.1635795394	 1.0116861983	 0.113399
H	-1.8865752029	-0.6943131519	 2.2644887959	 0.123389
H	-2.9011630833	 0.4596138934	 1.3355332321	 0.123174
H	-3.7922969038	-2.0802910305	-1.2784092865	 0.127304
H	-1.3726696837	-3.0603808045	-0.0165646961	 0.12752
