21
gdb 85927	2.59214	1.23323	1.0412	2.4383	78.23	-0.2352	-0.016	0.2193	1253.4292	0.180509	-424.271164	-424.261557	-424.260613	-424.305319	36.782	
C	-0.778094323	 1.1768019762	 0.1288843821	-0.405754
C	 0.1816655685	 0.0156303347	-0.1273448513	-0.086894
C	 1.3092233992	 0.2594025809	-1.1415503447	-0.255882
C	 2.4402663854	-0.725368174	-0.7668023383	 0.375996
C	 2.2261921913	-2.1124064196	-1.3829390344	-0.436124
O	 3.6573378327	-0.1609166471	-1.2470584253	-0.474723
C	 2.3695893358	-0.7660740693	 0.776891575	-0.380789
C	 0.9187874697	-0.4467274186	 1.1404746192	 0.409061
O	 0.4292244787	-0.5297006648	 2.2377081826	-0.32516
H	-0.2285220363	 2.0836139679	 0.4031604813	 0.119249
H	-1.3761547552	 1.4007087835	-0.7593283021	 0.114595
H	-1.4529585	 0.9305330508	 0.9526492176	 0.13841
H	-0.4086355326	-0.8576345081	-0.4452518482	 0.104567
H	 0.9939147679	 0.1457468141	-2.1821071397	 0.102326
H	 1.7050052909	 1.2750548095	-1.0265808782	 0.11266
H	 2.2352429039	-2.0458468189	-2.4745554375	 0.127164
H	 3.022148888	-2.7999307822	-1.0716656442	 0.108941
H	 1.2756863791	-2.5570348027	-1.0703170941	 0.121411
H	 4.361351764	-0.8032876883	-1.1073995474	 0.2753
H	 2.7007801711	-1.7016994934	 1.2364671509	 0.117381
H	 2.996710901	 0.0400620093	 1.1778302466	 0.138264
