18
gdb 91081	3.34696	1.49078	1.32458	2.0875	77.48	-0.2346	-0.0038	0.2308	1020.7652	0.148975	-401.881985	-401.874658	-401.873714	-401.913631	29.205	
C	 0.150854136	 1.4913345267	 0.2028263124	-0.404527
C	 0.0079953912	-0.0074525549	 0.0490798068	 0.096788
O	 1.0124884256	-0.5923816158	-0.8523459241	-0.32522
C	 1.2567121025	-1.7075065052	 0.0666128984	 0.138584
C	 2.5999086531	-2.0416254282	 0.6909727651	-0.1055
N	 3.3851312379	-0.9129832671	 1.2213291538	-0.317437
C	 2.4815198326	-1.6550781936	 2.1426812622	-0.073684
C	 1.2122050295	-0.8617606948	 2.2887602691	-0.177356
C	 0.5573509305	-0.9154261635	 1.1292891082	 0.11345
H	 1.1591354013	 1.7374748167	 0.5437319391	 0.142038
H	-0.0327706066	 1.9899721807	-0.7538977544	 0.12685
H	-0.5775247356	 1.8686384311	 0.9287182264	 0.116456
H	-0.9975709685	-0.2773841219	-0.304166752	 0.078518
H	 0.7669207398	-2.6143793276	-0.312702495	 0.074789
H	 3.1244868723	-2.9441191016	 0.3973692225	 0.086632
H	 4.3403876993	-1.2394413649	 1.3590341921	 0.231964
H	 2.9168419723	-2.2489427405	 2.9394226478	 0.093132
H	 1.0453169871	-0.1710613256	 3.1065409818	 0.104523
