16
gdb 29387	5.67748	0.8816	0.77465	1.5973	77.52	-0.1841	0.0419	0.226	1398.2074	0.123537	-400.744446	-400.73559	-400.734645	-400.778744	32.882	
O	-0.5598887202	 1.3051865091	-0.5222532874	-0.449923
C	-0.1559044887	 0.0551649355	-0.1474388645	 0.327133
C	 0.5383271363	-0.8066359916	-0.9651948062	-0.179041
N	 0.7560109552	-1.9576434352	-0.2358554442	-0.294572
C	 0.2300603893	-1.8363337656	 1.0155831523	 0.357201
C	 0.2819341373	-2.9617344765	 2.0160817057	-0.467046
C	 1.3311668897	-3.9377861178	 1.7331691823	 0.285938
C	 2.1848617946	-4.7390973628	 1.4601571571	-0.438099
C	-0.3533523398	-0.5870691051	 1.1068305727	-0.399173
H	-1.0160544514	 1.7103107901	 0.2202708314	 0.294589
H	 0.8919695361	-0.6911064532	-1.9749668816	 0.117029
H	 1.2869670902	-2.7563356141	-0.539550751	 0.262762
H	 0.4316444619	-2.5445970212	 3.0195013985	 0.149182
H	-0.6832425074	-3.4883767422	 2.0548762241	 0.148451
H	 2.9439989031	-5.4515945367	 1.2505559407	 0.201698
H	-0.8662894261	-0.1851776127	 1.9687379	 0.083871
