21
gdb 94219	3.23153	1.0429	0.97007	2.1552	84.29	-0.2411	0.0485	0.2896	1331.743	0.179424	-387.048385	-387.038294	-387.03735	-387.083455	37.499	
C	-0.4499959121	 1.3882213099	-0.0843786615	-0.418025
C	 0.0757835509	-0.0391072029	-0.0617413417	-0.078306
C	 1.4175505367	-0.3417945539	-0.7592408858	-0.08272
O	 1.9425626531	-0.9880782372	 0.4153494959	-0.319669
C	 0.7840619301	-0.6117598684	 1.2085686803	 0.411755
C	 1.1734470982	 0.3793219882	 2.2963507389	-0.43737
C	 0.0884394359	-1.8639396847	 1.7813259034	-0.398883
C	 0.8546231549	-2.5659697563	 2.8031069002	 0.310993
C	 1.4875194301	-3.1414761974	 3.6474444386	-0.442207
H	 0.3164659002	 2.1123272207	 0.2070455079	 0.122054
H	-0.7869333591	 1.652746451	-1.0926659347	 0.119997
H	-1.3048025098	 1.5123894528	 0.589027383	 0.119563
H	-0.712234602	-0.7208677668	-0.397405311	 0.076497
H	 1.3882391555	-1.0153272134	-1.6236522415	 0.10117
H	 1.9984092123	 0.5517391136	-1.0286068812	 0.09459
H	 1.700247157	 1.237422077	 1.8726669562	 0.11739
H	 0.2915979666	 0.7434246382	 2.834802745	 0.111701
H	 1.8363051964	-0.1085696736	 3.0153266083	 0.142188
H	-0.884782213	-1.5600851938	 2.191455745	 0.125611
H	-0.1195231638	-2.5468671957	 0.9493196943	 0.129445
H	 2.0488511319	-3.6555554974	 4.3875555803	 0.194225
