19
gdb 126188	2.88149	1.21703	0.92675	2.2545	78.78	-0.2099	0.0329	0.2427	1294.4776	0.159278	-419.247414	-419.237668	-419.236724	-419.282854	34.924	
C	 0.1732849417	 1.6423344696	-0.0583409739	-0.366065
C	 0.0502028389	 0.1083284762	-0.0042350921	-0.301328
C	 0.6212545979	-0.4928211474	 1.2418911582	 0.307046
C	 0.050379276	-0.7616965409	 2.4769535175	 0.02992
C	-1.3591408331	-0.5583197497	 2.9356720974	-0.51244
C	 1.1271312721	-1.287854575	 3.2303843226	 0.363871
O	 1.0337511603	-1.7007461049	 4.5146907335	-0.43119
N	 2.263124216	-1.3503160425	 2.5559886351	-0.343792
N	 1.928187591	-0.8501188589	 1.3374151194	-0.279177
H	 1.2208931458	 1.9545629585	-0.0066371986	 0.119752
H	-0.2536039012	 2.0342081949	-0.9867999042	 0.115112
H	-0.3521552792	 2.1049688388	 0.7820225622	 0.129259
H	-1.0048991377	-0.1751923492	-0.0809297053	 0.119575
H	 0.5462058061	-0.3299412773	-0.8795458401	 0.104451
H	-1.7263984355	-1.4346128335	 3.4798280528	 0.134945
H	-1.4544862705	 0.298877443	 3.6133530987	 0.128999
H	-2.0327570217	-0.3836770034	 2.0911680147	 0.115793
H	 1.9053363489	-2.0285714313	 4.768874155	 0.300112
H	 2.6271422443	-0.818481157	 0.6163501772	 0.265156
