25
gdb 101838	2.70978	0.81763	0.66563	0.8516	90.49	-0.2454	0.0871	0.3325	1801.8277	0.2269	-389.480531	-389.469508	-389.468563	-389.517964	39.936	
C	 0.0102856919	 1.6479405415	-0.1398821857	-0.386343
C	 0.0106215409	 0.1182667127	-0.1021817896	-0.171055
C	 0.7317059877	-0.5172392774	-1.293208099	 0.162991
C	 0.8021164804	-2.0425153564	-1.1726612173	-0.403031
O	 0.0271239429	-0.1132442863	-2.4628590769	-0.260934
C	 0.7595778374	-0.19008091	-3.6696591878	-0.074132
C	-0.0892957272	 0.3460434286	-4.7905021084	 0.014486
C	-0.1560556097	 1.8294110684	-5.0402496339	-0.248035
C	 0.5768597378	 0.9343061643	-6.0086121494	-0.272923
H	 1.0310778179	 2.0448816665	-0.0937898437	 0.105534
H	-0.4480704381	 2.0047991411	-1.0652017664	 0.13379
H	-0.5462412532	 2.0647402624	 0.7050961337	 0.10678
H	 0.4844770813	-0.2389428018	 0.8200607682	 0.0899
H	-1.0209155089	-0.2558699609	-0.091871238	 0.101636
H	 1.7591454579	-0.1136062448	-1.3404921791	 0.056674
H	-0.206722819	-2.4647615088	-1.1222170217	 0.120865
H	 1.31889017	-2.4939458295	-2.0243026682	 0.114481
H	 1.343892057	-2.3311590946	-0.2660969868	 0.111947
H	 1.6899179533	 0.3997207364	-3.5899448664	 0.076536
H	 1.055596654	-1.2289609415	-3.8871905075	 0.086236
H	-1.0037109799	-0.2154077796	-4.9583874295	 0.0884
H	-1.1032674673	 2.2572707402	-5.3486121943	 0.111498
H	 0.4348142035	 2.4742404599	-4.3981544521	 0.113143
H	 1.6610871338	 0.9815787451	-6.0226272641	 0.109765
H	 0.1315068156	 0.7441190745	-6.9786584359	 0.11179
