16
gdb 113299	2.2521	1.2028	0.87669	1.3077	68.18	-0.2631	-0.0554	0.2077	1289.3439	0.121948	-475.00498	-474.995717	-474.994773	-475.039788	32.26	
O	-0.1419687595	 1.41713937	-0.0686794624	-0.407612
C	-0.0105648539	 0.0519316824	 0.2781438253	-0.075824
C	-1.354599134	-0.6369946962	 0.1884415882	-0.04516
N	-1.7854069933	-1.0696969044	-1.1223025101	-0.365328
C	-1.5148830408	-2.1213604868	-0.1229126341	 0.088068
C	-0.3230660204	-2.9923900081	-0.3559839244	 0.097477
O	-0.0954519844	-3.9836716784	 0.2921717969	-0.253947
C	-2.7053314323	-2.7585108302	 0.5274740812	 0.089993
O	-3.808321939	-2.2685058268	 0.4631708615	-0.270814
H	-0.4228568612	 1.4504843802	-0.9902948224	 0.29568
H	 0.725406451	-0.4599043236	-0.3566659946	 0.09892
H	 0.3556088449	 0.028049896	 1.3091034136	 0.128074
H	-2.1173850413	-0.2412536887	 0.8576814423	 0.128522
H	-2.8012372752	-0.9897282955	-1.1949059364	 0.25966
H	 0.3322885773	-2.6623775777	-1.1882751083	 0.1041
H	-2.5032921279	-3.7073138524	 1.0550772638	 0.128191
