19
gdb 39204	2.78767	1.90904	1.3938	1.7187	79.27	-0.2429	0.0172	0.2601	965.7182	0.162173	-385.893117	-385.886217	-385.885273	-385.924137	28.514	
C	-0.0986029184	 1.4239591927	 0.0848562609	-0.376069
C	 1.2946648866	 0.8372674908	 0.012043985	-0.086761
C	 2.0349005796	 0.5095032676	 1.2938474794	-0.096792
O	 1.1315759769	-0.2444389925	 2.1011386797	-0.278016
C	 0.1443546959	-0.8572110728	 1.2704576127	 0.045221
C	 0.4206807697	-2.253861739	 0.7504541815	-0.11019
C	 0.1901208881	-2.3413226463	-0.5604596569	-0.05936
C	-0.2309220882	-1.0161037596	-1.169553844	-0.372794
C	 0.0805159245	-0.0583351839	-0.031529795	 0.328758
H	-0.4505303975	 1.8195086462	 1.0339004991	 0.117011
H	-0.4436169558	 1.9719813465	-0.7861131983	 0.110889
H	 1.8780233393	 1.008217429	-0.8860536048	 0.087562
H	 2.9375179308	-0.0745398132	 1.0557294689	 0.093467
H	 2.3401823634	 1.3826654489	 1.8822029612	 0.103926
H	-0.780179022	-0.841847147	 1.8649727194	 0.082516
H	 0.7052900047	-3.0702642666	 1.4040615234	 0.098657
H	 0.2586591951	-3.2499642234	-1.1492578672	 0.095394
H	 0.3108616768	-0.7785867645	-2.0927888321	 0.105478
H	-1.2995789696	-1.0255897026	-1.4285990828	 0.111103
