18
gdb 87067	2.4822	1.39388	1.11047	1.6428	79.3	-0.237	0.0369	0.2739	1153.3039	0.144947	-401.856215	-401.847023	-401.846079	-401.890004	34.685	
O	-0.0668712507	 1.4159533061	-0.1671550124	-0.410558
C	 0.0032021457	 0.0314769226	-0.073884033	 0.067997
C	-0.0811010142	-0.5458499832	 1.2991144403	-0.334165
C	-1.2374020927	-0.7709737199	 0.3280760305	 0.12017
C	-2.463899579	-0.0459278464	 0.5288985213	 0.330611
C	-3.5197920369	 0.5221915013	 0.6440885954	-0.524797
N	-1.2853252441	-2.1042405263	-0.2336908069	-0.117103
C	-2.3548155381	-3.0067053548	 0.1864441467	-0.234348
C	-2.3377645861	-2.4366204197	-1.1902865599	-0.240174
H	-0.6598290782	 1.641836836	-0.8923840339	 0.291312
H	 0.6443833302	-0.4706972957	-0.7967579902	 0.103357
H	 0.5160691986	-1.4191072438	 1.531313601	 0.128872
H	-0.2498047517	 0.1550631	 2.1073956356	 0.135641
H	-4.44046123	 1.0352719113	 0.774475284	 0.1985
H	-2.0519483602	-4.0341453031	 0.3660405069	 0.116895
H	-3.1105282857	-2.6178188364	 0.8644511042	 0.126468
H	-3.0846053044	-1.6782680727	-1.4120225236	 0.125019
H	-2.0203266426	-3.0395299451	-2.0360890959	 0.116303
