18
gdb 51182	3.80095	1.13336	1.06199	4.0215	72.59	-0.251	0.0239	0.275	1169.3342	0.148724	-439.096979	-439.088826	-439.087881	-439.130735	30.423	
O	 0.0197399757	 0.245439437	 1.1065595049	-0.31129
C	 0.0385668436	 1.2880892658	 0.4937025706	 0.135027
N	 1.1361414122	 1.8233510036	-0.1201187822	-0.385432
C	 2.4004752618	 1.1624889121	-0.1707420965	 0.374255
C	 3.211856294	 0.9826071504	 1.0823756448	-0.288226
C	 3.7065625565	 1.9076313597	-0.0012151993	-0.143723
C	 4.6473108732	 1.30028754	-1.0255524213	-0.089192
O	 4.0785499229	 0.0362878831	-1.3630608387	-0.25185
C	 2.6641522569	 0.1414606649	-1.2732846118	-0.128121
H	-0.8495529303	 1.9419724388	 0.3744761315	 0.073672
H	 0.9988380721	 2.6505779747	-0.6815116251	 0.246022
H	 2.8168559828	 1.4406135975	 1.980583836	 0.126026
H	 3.7133534242	 0.0317708549	 1.2282985289	 0.131631
H	 3.7235731026	 2.9774389572	 0.1724804187	 0.093482
H	 4.7214801482	 1.9550720544	-1.9095838413	 0.09077
H	 5.6585175206	 1.1093045085	-0.6525793183	 0.115137
H	 2.2679828079	-0.8546382197	-1.0568605786	 0.128985
H	 2.2192956051	 0.5018867472	-2.2164851623	 0.082827
