20
gdb 90887	2.41994	1.93938	1.4142	2.4763	76.97	-0.2217	0.0669	0.2886	988.3856	0.172177	-403.112595	-403.104709	-403.103765	-403.144367	32.	
C	 0.0301959899	 1.5024153607	 0.0794628403	-0.505852
C	 0.0016964428	-0.0098879863	 0.0320015801	 0.311585
C	 0.269722241	-0.719574568	-1.3216195171	-0.196259
N	-0.9276632418	-1.6158134777	-1.1559876516	-0.152549
C	-0.8777202501	-2.1739632875	 0.2274723145	-0.016159
C	 0.4480331818	-2.2110469535	 0.9730613137	-0.295893
C	 0.8208855591	-0.7107563518	 1.1279640923	 0.097141
O	 2.1944903069	-0.413689055	 0.9456383443	-0.442297
C	-1.3426597379	-0.7844119538	 0.028688107	-0.112009
H	 1.0586111264	 1.8648627174	-0.0126720012	 0.136219
H	-0.5625354279	 1.9390502361	-0.7307259518	 0.114868
H	-0.3709081314	 1.8752240591	 1.0295470628	 0.111066
H	 0.0910629016	-0.0711138479	-2.1827895378	 0.105002
H	 1.2293479285	-1.2297153334	-1.4489215433	 0.107379
H	-1.5925846637	-2.9789137066	 0.3604393082	 0.093299
H	 0.3360956818	-2.7136148215	 1.9389887237	 0.098464
H	 1.2275451047	-2.7417733324	 0.415134717	 0.110283
H	 0.4758101896	-0.3458144873	 2.109924055	 0.062178
H	 2.6952800392	-0.8461644277	 1.6435715153	 0.286244
H	-2.3473187307	-0.397486213	 0.1577840285	 0.087289
