20
gdb 75911	2.73659	1.41271	1.14235	3.6381	78.89	-0.2352	0.035	0.2702	1141.1819	0.172184	-403.18776	-403.179149	-403.178205	-403.221057	33.12	
C	 0.5441386358	 1.6687494743	-0.2158372451	-0.393409
C	 0.0795075979	 0.2373831522	 0.0976611128	-0.217502
C	 0.4399773698	-0.6795355166	-1.0837231053	 0.422177
O	-0.0279894656	-0.6399134808	-2.2009352696	-0.391759
N	 1.4235337356	-1.530033262	-0.6542868288	-0.315327
C	 1.9036063604	-1.2840609183	 0.6935960751	-0.23606
C	 0.7767790403	-0.4297792509	 1.2830547226	 0.371912
C	 0.9184062558	 0.205920277	 2.6352463604	-0.321632
C	-0.0210623597	-0.9621266023	 2.4466611671	-0.311562
H	 1.6325827546	 1.7195420763	-0.3273773155	 0.116559
H	 0.0912888087	 2.0082038364	-1.1510669921	 0.140419
H	 0.2561642307	 2.3590460817	 0.5823474887	 0.113606
H	-1.0082932556	 0.2357846788	 0.2145979963	 0.099226
H	 1.9032475174	-2.1191955226	-1.3164437143	 0.249289
H	 2.0454766522	-2.2181648255	 1.2485246154	 0.110442
H	 2.8649792976	-0.7479498652	 0.6901469014	 0.105574
H	 1.8394208599	 0.0375366598	 3.1851167196	 0.111999
H	 0.4885914116	 1.1901257466	 2.7883883348	 0.11688
H	-1.0883038407	-0.7660011462	 2.4630250377	 0.117063
H	 0.2623607032	-1.9205121128	 2.8700182888	 0.112107
