22
gdb 57606	3.29292	0.96866	0.9173	4.0479	85.97	-0.2892	0.0346	0.3238	1381.9239	0.192774	-367.225089	-367.215032	-367.214088	-367.259971	37.833	
C	 0.1793582145	 1.574477739	 0.2829095422	-0.439314
C	 0.1214475257	 0.047510073	 0.1161460891	 0.227889
C	 0.7311978372	-0.6270269006	 1.3589396734	-0.415843
C	-1.3642154937	-0.3990120028	-0.0500049589	-0.348335
C	-2.2206532854	-0.0525688509	 1.0820952419	 0.267237
N	-2.8860402406	 0.2293586009	 1.984527765	-0.324074
C	 0.8590236775	-0.4606757053	-1.1257422812	 0.024933
C	 0.8327258524	 0.2292293136	-2.46766666	-0.288751
C	 2.1151671341	 0.1658565381	-1.6732607871	-0.290273
H	 1.2065485014	 1.9160303401	 0.4361599186	 0.122215
H	-0.2309216614	 2.1014779583	-0.5841486296	 0.117336
H	-0.4019833127	 1.8808046871	 1.1572861483	 0.142668
H	 0.20409715	-0.3328453374	 2.2715868307	 0.135865
H	 0.6848345216	-1.7188030033	 1.2797688555	 0.110984
H	 1.7827814763	-0.3444591581	 1.4647272474	 0.121069
H	-1.7838851768	 0.0547128057	-0.9546085193	 0.148973
H	-1.4088454766	-1.4851577534	-0.1919191992	 0.143111
H	 0.8433186885	-1.5477342406	-1.1835857169	 0.082073
H	 0.7404090724	-0.3850645296	-3.3565387596	 0.114576
H	 0.3453309697	 1.1944146679	-2.5487878494	 0.11586
H	 2.4726100301	 1.0887716074	-1.2313093572	 0.117085
H	 2.9057815657	-0.4931956291	-2.0143163036	 0.114716
