27
gdb 121911	3.35112	0.61959	0.54635	1.3906	93.51	-0.2609	0.0757	0.3366	2144.3373	0.24955	-390.706809	-390.69469	-390.693746	-390.744679	44.036	
C	-0.044298249	 1.5979486993	 0.097938349	-0.380032
C	-0.0673627273	 0.0720053838	-0.0246931592	-0.163276
C	 0.7694780884	-0.4520428725	-1.1975452675	-0.168555
C	 0.7478234614	-1.9818134646	-1.3108404273	-0.194788
C	 1.4649155341	-2.5499295577	-2.5504204236	 0.039438
C	 2.9426301813	-2.1313642168	-2.6073529389	-0.402136
C	 1.3479238296	-4.0845968467	-2.6296056408	 0.138068
C	-0.0881000969	-4.6131584432	-2.6098077245	-0.411611
O	 1.9901100389	-4.4706645484	-3.8467599446	-0.439989
H	 0.9762724722	 1.9678520651	 0.2477853397	 0.11295
H	-0.4364751099	 2.0738573215	-0.807888788	 0.11281
H	-0.6496386485	 1.9415372942	 0.9427447304	 0.10943
H	 0.2988587822	-0.3759245467	 0.9088567498	 0.092782
H	-1.1045766392	-0.2710779298	-0.1368530207	 0.092112
H	 0.39553491	-0.0131106846	-2.1335964105	 0.090496
H	 1.7997339242	-0.0935516362	-1.0848291554	 0.097781
H	 1.1946099957	-2.4164895187	-0.4041902958	 0.087285
H	-0.3001905669	-2.3033406219	-1.316757216	 0.091739
H	 0.9627763868	-2.1585006221	-3.4475646625	 0.073686
H	 3.0496231338	-1.048886183	-2.7145617338	 0.109167
H	 3.4659899247	-2.4282640635	-1.6895012148	 0.101435
H	 3.4415117297	-2.6095547943	-3.4513545082	 0.134965
H	 1.8946101358	-4.5129344393	-1.7703117531	 0.05792
H	-0.6831910541	-4.1439787537	-3.4002219179	 0.121561
H	-0.092151866	-5.6960799389	-2.7825315503	 0.098586
H	-0.5786552334	-4.4391755909	-1.6486464121	 0.120237
H	 1.9352028022	-5.4283146104	-3.9185915534	 0.27794
