14
gdb 33715	4.08355	1.55004	1.31066	4.7007	69.74	-0.2565	-0.0348	0.2216	924.0718	0.103044	-395.681678	-395.675328	-395.674384	-395.712331	25.188	
N	 0.0906703754	-1.0614012176	 0.0041592778	-0.334231
C	 0.0113606851	 0.0920339766	-0.0012554463	 0.221245
C	-0.0550498733	 1.5242743911	-0.0334830597	 0.222013
N	-1.1735347075	 2.1852380559	 0.6178267724	-0.234879
C	-1.187445327	 3.3511475931	 0.1061605916	 0.003765
N	-0.1478075983	 3.6654669154	-0.8501248861	-0.183086
C	 1.1002838015	 3.7597936207	 0.0622212875	-0.189875
C	 1.3228089512	 2.2762400537	-0.1237036583	-0.116234
C	 0.3451412509	 2.2982817916	-1.258885312	-0.063271
H	-1.8688063194	 4.1355691952	 0.4181513999	 0.141318
H	 1.8576169266	 4.3578053967	-0.4466645926	 0.141542
H	 0.9094561949	 4.1599999999	 1.0625503047	 0.131617
H	 2.236417963	 1.7101544733	-0.0001914252	 0.130581
H	 0.3649206869	 1.9605003144	-2.2869550336	 0.129495
