20
gdb 57730	3.46819	0.83009	0.82142	1.346	76.26	-0.2446	-0.034	0.2107	1468.6706	0.166559	-440.289881	-440.279224	-440.27828	-440.326556	37.615	
C	 0.3209888583	 1.6122416892	 0.218095148	-0.413571
C	-0.1607690289	 0.1814237344	-0.0521297756	 0.158696
C	 0.2489452342	-0.7707514161	 1.0872016889	-0.427046
N	-1.6103094789	 0.0802362083	-0.3105403032	-0.326127
C	-2.5204151872	 0.2373463095	 0.8167446426	-0.261938
C	-2.8395569383	-1.0911179106	 1.4920933738	 0.176378
O	-3.120318648	-1.2098546174	 2.6551879745	-0.240008
C	 0.4883955552	-0.3786858539	-1.3249254457	 0.150243
O	 1.354566325	 0.1633583965	-1.9584481703	-0.247546
H	 1.4070986142	 1.6448185934	 0.3349303965	 0.134173
H	 0.0644835104	 2.269988309	-0.6177832188	 0.119168
H	-0.1353252621	 2.0102069924	 1.1293188476	 0.115857
H	-0.1917177883	-0.4617494239	 2.0389782533	 0.143602
H	-0.0689580611	-1.7973415351	 0.8797151385	 0.129909
H	 1.3356322239	-0.7638571721	 1.207678758	 0.1357
H	-1.8553340289	 0.7382826256	-1.0405959768	 0.228818
H	-2.207863062	 0.9571970566	 1.5866859017	 0.121466
H	-3.4802980456	 0.5993213568	 0.4229488712	 0.134484
H	-2.8114155568	-1.9575928448	 0.7926888936	 0.083193
H	 0.0662449348	-1.3637967978	-1.6249452977	 0.084548
