17
gdb 29712	2.48467	1.55021	0.96469	0.5961	72.71	-0.1557	0.061	0.2167	1173.589	0.135037	-455.1587	-455.148806	-455.147861	-455.193365	35.54	
C	-0.0296480553	 1.4363085459	 0.0265027849	-0.343067
N	 0.039410743	-0.0069230666	 0.0000276904	-0.090072
C	 0.110145086	-0.7934866132	-1.1102888305	 0.371496
O	 0.1214082365	-0.16669359	-2.3186656347	-0.445073
C	 0.1570750882	-2.1187714832	-0.7479425053	-0.394587
C	 0.1055684357	-2.1511447945	 0.685836527	 0.189126
N	 0.1898800067	-3.3007140204	 1.5030629007	-0.618658
C	 0.04051848	-0.8542621952	 1.1164372413	 0.199495
O	-0.0905295795	-0.3478402322	 2.3821244226	-0.443236
H	 0.9396511764	 1.897187909	-0.1992963238	 0.128785
H	-0.7582298048	 1.7961473465	-0.70436194	 0.14389
H	-0.3427642284	 1.7412968719	 1.0260345799	 0.145809
H	 0.126811393	-0.8419573027	-3.0033050435	 0.304647
H	 0.2316296347	-2.9659358788	-1.4123971088	 0.080452
H	-0.3884435923	-4.0524844502	 1.1445077349	 0.235876
H	-0.1277117672	-3.0861743574	 2.4422439306	 0.236569
H	 0.7846195376	-0.2025687489	 2.7626683543	 0.298548
