22
gdb 109547	2.1183	1.39654	0.91366	3.7019	84.25	-0.2358	0.0399	0.2757	1349.5743	0.192902	-404.385453	-404.374998	-404.374054	-404.421085	37.271	
C	-0.0064485984	 1.6611519235	-0.0788448263	-0.393732
C	-0.092242295	 0.1313704172	-0.0215877348	-0.183692
C	 0.7084653385	-0.4870083023	 1.121624296	 0.040307
C	 0.7193387172	-2.0514262361	 1.277887078	-0.179302
C	-0.0249070114	-2.9290669553	 0.2796781805	-0.407325
C	 2.2484680171	-1.9339309785	 1.0986391091	 0.411528
O	 3.188988825	-2.688359058	 1.1046155966	-0.38682
N	 2.1689574551	-0.5728690249	 0.9364506428	-0.079434
C	 3.2213880578	 0.4117949885	 0.9098946414	-0.348391
H	 1.0166217415	 2.004681509	-0.259893597	 0.122686
H	-0.6336961776	 2.0582531442	-0.8825854586	 0.118742
H	-0.3458247122	 2.1112954041	 0.8606892984	 0.117346
H	-1.1419092533	-0.1639155872	 0.1039119108	 0.104211
H	 0.2421972423	-0.2976036105	-0.9727188541	 0.103272
H	 0.4483836433	 0.0206296323	 2.0624401	 0.071451
H	 0.4732089836	-2.3525885596	 2.3011634855	 0.098751
H	 0.2148619428	-2.6670508713	-0.7546841815	 0.123994
H	 0.2591171563	-3.9748901406	 0.4289728993	 0.13701
H	-1.1094139889	-2.8527521758	 0.4085518012	 0.117416
H	 4.1703011689	-0.1237967181	 0.998644379	 0.159057
H	 3.2318630412	 0.9854405881	-0.0238096185	 0.129047
H	 3.1312348062	 1.1145351015	 1.747893682	 0.123878
