17
gdb 69899	2.94483	1.50614	1.14888	2.6624	73.75	-0.2392	-0.0288	0.2104	1065.1364	0.133552	-421.767718	-421.759582	-421.758637	-421.800205	31.081	
C	-0.1330508369	 1.542898421	 0.2313942869	-0.514191
C	 0.0821921516	 0.0750928091	 0.0720535183	 0.357549
O	-0.7291059381	-0.8377214706	 0.8283274037	-0.28301
C	 0.7004593436	-0.9447223266	 0.9166584194	-0.060861
C	 1.2315374597	-1.7307619821	-0.3136879215	-0.114095
C	 0.1507160237	-2.1221117138	-1.2462566758	-0.323024
C	 0.5583907729	-0.6560849313	-1.2326857067	 0.145439
C	 1.2160544661	-0.0403083874	-2.3868229947	 0.067466
O	 1.710599039	-0.6544360053	-3.3081533057	-0.287728
H	 0.7427736389	 2.1067500481	-0.1058083664	 0.133753
H	-0.9948941028	 1.8764091348	-0.3574712988	 0.139054
H	-0.3196173764	 1.779965703	 1.2817585372	 0.14113
H	 1.1521350673	-0.8941360759	 1.8999419245	 0.11546
H	 2.259140707	-2.0509447892	-0.4229765424	 0.123127
H	 0.477556226	-2.6295572765	-2.1471686058	 0.149224
H	-0.8271082615	-2.3825454274	-0.8634875815	 0.146394
H	 1.2475477398	 1.0725445299	-2.3678323206	 0.064314
