14
gdb 46435	3.88192	1.25764	1.13431	4.0652	68.57	-0.283	-0.017	0.266	1051.492	0.102308	-432.860325	-432.853056	-432.852112	-432.892317	27.087	
N	-0.0663421628	 1.2382719238	 0.3326224185	-0.524747
C	-0.0167745944	 0.0361367513	-0.0215112737	 0.44412
O	 1.1261220491	-0.6686074507	-0.3217776283	-0.244017
C	 0.8090183634	-1.94109993	-0.8810682612	-0.158481
C	-0.688603955	-2.0972110468	-0.6201924229	 0.145506
C	-1.1453776968	-1.9298471415	 0.7863320091	-0.271314
N	-1.1828180252	-0.7843030689	-0.1462345741	-0.149534
C	-1.472171331	-2.82408033	-1.5857839515	 0.23662
N	-2.0654795387	-3.4461233579	-2.3578851055	-0.318731
H	 0.8681256761	 1.6453543378	 0.3537591562	 0.239107
H	 1.016367458	-1.9407351773	-1.9560063972	 0.146687
H	 1.4196279666	-2.7061537872	-0.3944775687	 0.143219
H	-2.1229343565	-2.2979076605	 1.0757465165	 0.160461
H	-0.3835101126	-1.9336090721	 1.5612942029	 0.151104
