22
gdb 6899	2.76963	1.52062	1.34081	0.9749	79.39	-0.2326	0.0826	0.3152	1098.1422	0.197364	-350.190229	-350.180095	-350.179151	-350.224456	36.737	
C	 0.2839105122	 1.1965158419	 0.2754169048	-0.233511
O	-0.3404289639	 0.0608353423	-0.2891210994	-0.238512
C	 0.4296182879	-0.5439059674	-1.2819709761	 0.079671
C	 1.4076716966	-1.6467701469	-0.9086902348	-0.085304
C	 1.6476610177	-2.0285569781	 0.5367726636	-0.417132
C	 0.1046236038	-1.9685839492	-1.638564178	 0.264494
C	-1.023836176	-2.6686191028	-0.9040697412	-0.448808
C	 0.2162645575	-2.3544556451	-3.1026640633	-0.450194
H	 1.2376596849	 0.9429716372	 0.7588556742	 0.110302
H	 0.4765418078	 1.9684569943	-0.4853220304	 0.105664
H	-0.4008261826	 1.602531036	 1.0240199246	 0.124897
H	 0.7069622227	 0.1365683371	-2.0905262492	 0.072197
H	 2.2973991337	-1.7022674457	-1.532759991	 0.073164
H	 0.8066647599	-1.743705221	 1.1726644136	 0.129882
H	 1.8031615813	-3.107694359	 0.6460738824	 0.114104
H	 2.5412734095	-1.5281217895	 0.9258802304	 0.111308
H	-1.1617836681	-2.2837653711	 0.1064344179	 0.131118
H	-1.9693930274	-2.5253941106	-1.4396107827	 0.113016
H	-0.8394384876	-3.7476501925	-0.8442575431	 0.108085
H	 0.424054467	-3.4259633342	-3.2101118282	 0.112759
H	-0.7155845745	-2.1408866981	-3.6398517755	 0.113757
H	 1.0229281474	-1.8098812876	-3.6039129186	 0.109043
