17
gdb 34255	4.18337	1.33671	1.22081	1.9914	79.48	-0.2225	0.0205	0.243	1046.5461	0.136493	-384.625425	-384.618222	-384.617278	-384.656817	29.185	
C	-0.0206365856	-1.1349815885	-0.0250086151	-0.36774
C	-0.0183066176	 0.0681150389	-0.0180130182	 0.1523
C	-0.0027836719	 1.488138105	-0.0022639156	 0.355738
O	-1.0777095861	 2.2074702138	 0.6182018925	-0.350219
C	-0.8058879511	 3.3487779168	-0.266968788	 0.079796
C	 0.0002909339	 4.3650526429	 0.5333609767	-0.210685
C	 1.2607451908	 3.550347343	 0.9463371828	-0.22891
C	 1.260880459	 2.3540984276	-0.0070843182	-0.127956
C	 0.2109519938	 2.5211370368	-1.0799818259	-0.218822
H	-0.0289234166	-2.1967534276	-0.0313157941	 0.187028
H	-1.7172805713	 3.7013820202	-0.7513679819	 0.085737
H	 0.2641075775	 5.2199786441	-0.1003446534	 0.100347
H	-0.5637798034	 4.7383870718	 1.3921808746	 0.112668
H	 2.1789982638	 4.1336338484	 0.8351003949	 0.102756
H	 1.2006990354	 3.2269850665	 1.988923307	 0.118373
H	 2.1824695507	 1.8389430161	-0.2513580733	 0.101777
H	 0.3251934887	 2.4252480243	-2.1501629649	 0.107811
