18
gdb 74880	2.78853	1.71046	1.21987	3.2297	77.69	-0.2383	0.0007	0.239	1041.2811	0.149114	-401.914354	-401.906918	-401.905974	-401.946028	29.62	
C	-0.0159867283	 1.5067841974	 0.0708777596	-0.487267
C	 0.0025472138	 0.0056571552	-0.0051860583	 0.372168
C	-0.0108130478	-0.6596205925	-1.1698892837	-0.182252
C	-0.00179174	-2.1346465703	-1.2671616127	-0.001149
O	 1.1883418981	-2.8406475002	-0.8473972589	-0.237998
C	 0.0374290517	-2.9383606221	-0.0265257231	 0.043973
C	 0.0455988678	-2.2191895345	 1.2936691855	-0.072796
N	 1.2543038231	-1.4680823051	 1.6493483309	-0.31845
C	 0.0204241109	-0.7235274555	 1.289835671	-0.158593
H	 0.8912809588	 1.8838026977	 0.5594604134	 0.137049
H	-0.0830339991	 1.9601892613	-0.9213435249	 0.123977
H	-0.8650153903	 1.8628130786	 0.6685423413	 0.122846
H	-0.0408312292	-0.1037200253	-2.1035958221	 0.086179
H	-0.4580214746	-2.5630187922	-2.1585355044	 0.088364
H	-0.4435667805	-3.9165846263	-0.02189017	 0.086971
H	-0.5009488439	-2.7216083013	 2.0879058142	 0.082032
H	 1.3600779911	-1.4661032911	 2.6614220423	 0.232901
H	-0.5009145716	-0.2267973338	 2.1062684399	 0.082043
