18
gdb 39695	3.7088	1.72538	1.5935	1.4966	77.95	-0.2245	0.0756	0.3001	900.8403	0.149708	-364.734568	-364.728305	-364.727361	-364.764822	27.171	
C	-0.0865534997	 1.472142261	-0.0075055432	-0.327462
C	 1.2777605826	 0.8048800224	-0.0232173972	-0.327457
C	 0.0296920462	-0.020188612	 0.0529157387	 0.422782
C	-0.3770353547	-0.8792166703	 1.2122325102	-0.175371
C	-1.6085823858	-1.6621774074	 0.8067229867	-0.097775
C	-0.2472737568	-2.3283818734	 0.7911750894	-0.097699
C	-0.2365531538	-2.2391303609	-0.763305815	-0.072759
C	-1.5732767496	-1.5856391797	-0.7480834585	-0.072652
N	-0.3684111035	-0.8069038231	-1.1016282364	-0.168755
H	-0.3904251899	 2.0023178127	 0.8889223202	 0.109945
H	-0.4445711996	 1.9039789713	-0.9350667004	 0.121733
H	 1.8210907643	 0.7958494408	-0.9611608124	 0.121729
H	 1.8993832832	 0.8824411612	 0.8625469036	 0.109947
H	-0.2243249338	-0.591435827	 2.24472699	 0.090358
H	-2.4668983634	-1.8499083466	 1.4347951367	 0.090103
H	 0.1425124321	-3.1269701377	 1.4049719078	 0.09012
H	 0.2349954351	-2.916619788	-1.4628709878	 0.091599
H	-2.4102635528	-1.6234534532	-1.4327432525	 0.091616
