18
gdb 98230	3.24066	1.06571	0.813	3.1389	71.31	-0.2433	0.0053	0.2486	1355.0414	0.147517	-472.44475	-472.435037	-472.434093	-472.47973	35.272	
C	-1.0282286996	 1.2697031137	-0.1957464081	-0.358553
N	-0.2399090387	 0.0489904712	-0.0112300367	-0.183227
C	-0.1006800233	-0.3729214602	 1.3596209334	 0.477433
N	 0.6174793283	-1.4948789949	 1.554117795	-0.555093
O	-0.6204269412	 0.2737761421	 2.251679564	-0.407155
C	 0.302117699	-0.5957738665	-1.1128517663	 0.359458
N	 1.0080135324	-1.661229975	-1.0325112082	-0.542235
C	 0.0098304791	 0.0524210467	-2.475323505	-0.163141
O	 0.4868548305	-0.7328832071	-3.5456358119	-0.403745
H	-1.2475384064	 1.6508654839	 0.7987169919	 0.184849
H	-0.4702532905	 2.0261806203	-0.7546362502	 0.127047
H	-1.9743996022	 1.0704671912	-0.7103033402	 0.125997
H	 1.0362370275	-1.9720835807	 0.7566840708	 0.289741
H	 0.7303051193	-1.7853708282	 2.5092836401	 0.257967
H	 1.3209590868	-1.9182246892	-1.9669931222	 0.226938
H	-1.0621675171	 0.2611946825	-2.5760338675	 0.121219
H	 0.5306689664	 1.0135875096	-2.5419367019	 0.147598
H	-0.1264124702	-1.4633466493	-3.6791106172	 0.294899
