18
gdb 121776	2.75924	0.8249	0.66093	3.2435	79.84	-0.2872	-0.0118	0.2754	1693.6914	0.144138	-401.908957	-401.898575	-401.897631	-401.945423	35.868	
C	 0.0176466322	 1.4873232555	 0.1766699061	-0.386263
C	-0.0548650315	-0.0169230593	-0.0987814353	-0.187296
C	-1.4608962509	-0.5653305116	 0.0875279935	-0.049051
O	-1.4318733242	-1.9636605414	-0.1993400361	-0.242222
C	-2.6873457287	-2.5917600275	-0.101563009	-0.176829
C	-2.6062421577	-3.9370647687	-0.6678442196	 0.299471
C	-2.5660119534	-5.0365929874	-1.1446812895	-0.378808
C	-3.1613644688	-2.6498587364	 1.3089446513	 0.281122
N	-3.5237481322	-2.6540976381	 2.4055586428	-0.323838
H	 1.0367170169	 1.8587662515	 0.0389441711	 0.123235
H	-0.6351822493	 2.0502100779	-0.4994236422	 0.118824
H	-0.2854994349	 1.7208866399	 1.2029357733	 0.123801
H	 0.2728172922	-0.2346962038	-1.1214139053	 0.112483
H	 0.6209891486	-0.5600546603	 0.5708520051	 0.117786
H	-1.8108557925	-0.3976186216	 1.1169072823	 0.117737
H	-2.1702233553	-0.0639218668	-0.591693951	 0.09438
H	-3.4469827063	-2.0167548445	-0.6605064686	 0.142264
H	-2.5220729042	-6.0128542073	-1.561962999	 0.213203
