18
gdb 71365	2.98688	1.96444	1.57086	1.5554	74.37	-0.2197	0.0732	0.2929	891.0778	0.14978	-401.871038	-401.864414	-401.86347	-401.901505	28.239	
O	 0.0237109354	 1.3967158582	 0.1982295544	-0.474999
C	 0.0595594422	 0.013041029	 0.0872633461	 0.368911
C	 0.6974542531	-0.9902655306	 1.0725293463	-0.318004
C	 0.0214019536	-1.8526501979	-0.0111826342	-0.059066
C	-1.2148918416	-0.8687766391	-0.0247950641	-0.071796
C	-1.7056034357	-0.8456389099	-1.4620090533	-0.057108
C	-1.286887261	 0.285157805	-2.3327746275	-0.256885
N	-0.4418602942	-0.9279835844	-2.2342667742	-0.123609
C	 0.5264764761	-0.88644269	-1.1256778307	-0.050921
H	 0.9304649496	 1.7217765327	 0.223896819	 0.284071
H	 1.7908073987	-1.0194342622	 1.1126399107	 0.088318
H	 0.2624574543	-1.0299189444	 2.0742299308	 0.0992
H	-0.0181228401	-2.9369223847	-0.0768458483	 0.087896
H	-1.9298952204	-0.8869394616	 0.7978939727	 0.072644
H	-2.5156105794	-1.5063909472	-1.7585238214	 0.091109
H	-1.7640346216	 0.4011083011	-3.3021413427	 0.109283
H	-0.9457887726	 1.2027504488	-1.8687168644	 0.14085
H	 1.5718009433	-0.8999599929	-1.4381358892	 0.070106
