21
gdb 120230	2.99271	1.01379	0.84724	3.0201	83.35	-0.2346	-0.0092	0.2253	1446.8368	0.181954	-387.089096	-387.079922	-387.078978	-387.12361	34.191	
C	 0.0435182643	 1.5871234791	 0.0013312714	-0.383574
C	-0.0327964189	 0.0615005801	-0.0932140181	-0.163587
C	-1.4472096844	-0.4821942192	 0.1543691012	-0.203288
C	-1.5205226519	-2.0014032502	 0.016219216	-0.115546
C	-2.8643446902	-2.7518154357	 0.1201143748	-0.078437
C	-3.7547506229	-2.4022258194	-1.0182199081	-0.282337
C	-2.6434661086	-3.4200134725	-1.2605196405	-0.168671
C	-1.3376400515	-2.690244037	-1.3694357855	 0.407509
O	-0.4234780187	-2.7287650402	-2.1457591102	-0.32526
H	 1.063121017	 1.94585981	-0.1699655736	 0.113805
H	-0.6050840644	 2.0633135404	-0.7425807182	 0.113567
H	-0.2729010386	 1.9410025068	 0.9892064802	 0.110554
H	 0.3118958735	-0.2735640453	-1.0778669794	 0.126913
H	 0.6556168539	-0.3867950264	 0.6355770523	 0.093272
H	-1.7830077879	-0.1964058763	 1.1607972998	 0.095485
H	-2.1459389149	-0.0061199477	-0.5450973493	 0.09451
H	-0.7806090658	-2.4660651833	 0.6824997827	 0.101008
H	-3.2286377675	-3.2412643271	 1.0138782832	 0.101757
H	-4.7476406929	-2.8401853814	-1.0042791124	 0.126464
H	-3.7134048436	-1.4244955569	-1.4879516919	 0.125986
H	-2.863561016	-4.4218837077	-1.6068057945	 0.109872
