16
gdb 113601	3.48441	0.71894	0.62945	4.6895	85.5	-0.2817	-0.0575	0.2242	1723.0139	0.122656	-400.717165	-400.707934	-400.70699	-400.752335	32.213	
C	 0.2853186632	 1.5366517347	 0.0966421951	-0.380178
C	-0.3155070552	 0.1729495852	-0.2663875342	-0.227068
C	 0.4697170337	-0.509616301	-1.3564967866	 0.096377
O	 1.720560853	-1.0948013377	-0.9993234901	-0.230587
C	 0.6759000675	-1.9783053281	-1.432128378	-0.205571
C	 0.1300500472	-2.8779380781	-0.4560780667	 0.127134
C	-0.3353650898	-3.664463162	 0.3352789636	 0.086434
C	-0.862694964	-4.5455713266	 1.2340318057	 0.206822
N	-1.3146501816	-5.2945071585	 1.9986908576	-0.330785
H	 1.3144526455	 1.4230351132	 0.4494881688	 0.13888
H	 0.2970291215	 2.2099830346	-0.7671619326	 0.119874
H	-0.2954467955	 2.0178807183	 0.8880666056	 0.124469
H	-0.3448746676	-0.4752627002	 0.6147466196	 0.122565
H	-1.3500337903	 0.2941752688	-0.6114123534	 0.11301
H	 0.4938387368	 0.0124378914	-2.3160393864	 0.105725
H	 0.8396405657	-2.4239701141	-2.4131183879	 0.132899
