20
gdb 40209	3.00698	1.42589	1.08474	0.9415	91.	-0.2089	-0.0265	0.1824	1152.9987	0.174075	-366.004471	-365.996698	-365.995754	-366.03677	31.212	
C	-0.1738695787	 1.5258794223	-0.0222528876	-0.286901
N	 1.1740395403	 0.9598586629	 0.0834581053	-0.347245
C	 0.0004623652	 0.0408201023	 0.0158573149	 0.31429
C	-0.2828301551	-0.6755601599	 1.319763087	-0.272137
C	 0.5552016467	-1.9498250164	 1.5301144006	-0.26003
C	 0.1005783502	-3.1304408174	 0.720414537	-0.082681
C	-0.2960837539	-3.1138236549	-0.5617109544	-0.069363
C	-0.3411314756	-1.9894273171	-1.48753304	-0.094228
C	-0.1953688613	-0.6705554289	-1.2653385428	-0.125673
H	-0.5262906199	 2.0408510991	 0.8674095235	 0.117544
H	-0.4833590149	 1.9824889482	-0.959158699	 0.111956
H	 1.6362759514	 0.9898481944	-0.8229681039	 0.229828
H	-0.0680663467	 0.0246668314	 2.1327154613	 0.10204
H	-1.3490298009	-0.9253087178	 1.3732052898	 0.103376
H	 1.6056487737	-1.7133083698	 1.304972513	 0.124758
H	 0.5317706676	-2.2191213517	 2.5914805093	 0.098449
H	 0.0954963416	-4.0902164048	 1.2317761836	 0.087579
H	-0.5870527782	-4.0650958027	-1.0018851923	 0.08238
H	-0.5042731488	-2.2770318769	-2.5242643941	 0.085779
H	-0.2235092527	-0.0180784423	-2.1372106614	 0.080279
