21
gdb 111580	3.3588	1.39138	1.27038	1.2044	81.88	-0.192	0.0739	0.266	1097.609	0.184396	-383.191455	-383.183731	-383.182787	-383.223707	30.848	
C	 0.5470715159	 0.0576678009	 1.5570393935	-0.379298
C	 0.0911651509	 0.0779005806	 0.0982681897	-0.133142
N	-1.1921542997	-0.5793160569	-0.0631185263	-0.062142
C	-1.8976343188	-0.5729060339	-1.3564232762	-0.024465
C	-1.1273265007	-1.2275238895	-2.5331364149	-0.188988
N	-1.4086170659	-2.6127358299	-2.0168842275	-0.152425
C	-0.5014022257	-2.9079621169	-0.8532652846	-0.189532
C	-1.3559141714	-2.0382057247	 0.1049449617	-0.0247
C	-2.4097857916	-2.004554541	-1.0359539738	-0.011975
H	 1.4939856883	 0.5932576726	 1.6733192483	 0.11349
H	-0.2030545743	 0.5260124846	 2.2005604752	 0.125055
H	 0.7012141556	-0.9677253743	 1.9097264098	 0.118444
H	-0.0344902724	 1.1153536327	-0.2375586862	 0.101992
H	 0.8828664266	-0.3587888081	-0.5376452717	 0.078451
H	-2.4986350211	 0.3209450433	-1.5487910712	 0.069056
H	-1.6411323983	-1.0851847156	-3.4903736332	 0.105183
H	-0.0671926191	-0.9869749798	-2.6660693712	 0.099794
H	-0.5601314971	-3.9736675707	-0.6059871122	 0.105455
H	 0.550229815	-2.6419717755	-1.0050588742	 0.100074
H	-1.5095083715	-2.3751454401	 1.1334665697	 0.071724
H	-3.4383575347	-2.3564521476	-1.0062717248	 0.07795
