15
gdb 65875	2.89346	1.28111	1.19875	4.2386	61.53	-0.2789	-0.0573	0.2216	1073.7314	0.110947	-494.961127	-494.95282	-494.951876	-494.994749	29.431	
C	 0.0049654	 1.6600606473	 0.1528963282	-0.450444
C	 0.0715532302	 0.1387888576	 0.0738762427	 0.250233
C	 0.7496118273	-0.4150233413	-1.1889948142	-0.144316
O	 1.5857242539	-1.4619128884	-0.6902871281	-0.242543
C	 1.7170238272	-1.3558266154	 0.6540097214	 0.498008
O	 2.4342296695	-2.0197193783	 1.3275637595	-0.362196
O	 0.9012423553	-0.3696565013	 1.1317926173	-0.278943
C	-1.3355380489	-0.440011369	 0.2797052922	 0.123139
O	-2.0753151354	-0.7271815313	-0.6218853623	-0.235145
H	 1.015042073	 2.0767693799	 0.1173218491	 0.145913
H	-0.575214327	 2.0518166183	-0.6877804163	 0.148999
H	-0.4700824316	 1.9828377421	 1.0835651994	 0.146339
H	 0.0236293215	-0.8282375876	-1.8906308108	 0.15966
H	 1.3710881371	 0.3345778299	-1.6888732797	 0.125649
H	-1.6174451921	-0.5509125524	 1.3483643815	 0.115648
