15
gdb 25936	2.79912	1.64747	1.05447	2.4237	69.42	-0.1933	-0.0156	0.1778	1060.7085	0.115166	-450.195052	-450.187131	-450.186187	-450.227448	30.366	
N	-0.04778927	 1.3399625136	-0.0984849356	-0.555134
C	 0.0693048046	-0.0069810044	 0.1048700635	 0.494732
O	 1.1219242957	-0.5606426039	 0.352459128	-0.382969
N	-1.1533147874	-0.7028880962	 0.0442317469	-0.155878
C	-2.4499633528	-0.186540159	 0.1607034756	-0.006947
N	-3.3433469086	-1.1245589181	 0.1295771735	-0.259642
C	-2.6502277713	-2.3159800568	-0.0136802313	-0.174817
C	-1.2992563046	-2.0898790635	-0.0578988677	 0.331384
N	-0.2167674051	-2.9192004041	-0.2767389562	-0.603728
H	 0.8297250339	 1.8310734441	-0.16060601	 0.275993
H	-0.8091744794	 1.7006180583	-0.6492568119	 0.272224
H	-2.6269072852	 0.8628692772	 0.3348288799	 0.131181
H	-3.1609709772	-3.263775061	-0.0788753387	 0.103261
H	-0.4104196022	-3.8881195566	-0.0714508955	 0.253551
H	 0.6386152497	-2.5782607397	 0.1439610396	 0.276789
