17
gdb 94028	4.53673	1.0089	0.87933	1.9002	76.75	-0.2534	0.0045	0.2579	1289.22	0.134665	-421.778961	-421.770322	-421.769378	-421.812331	32.565	
O	-0.0706727492	 1.4239289859	 0.0392375858	-0.429736
C	 0.0335986916	 0.0044565289	-0.0150014673	 0.058224
C	-1.3986769021	-0.5321173904	-0.008635987	-0.08012
O	-1.4167888647	-1.9201717511	-0.2881693918	-0.267143
C	-0.994859528	-2.2233868594	-1.6117402177	-0.070048
C	 0.2534566696	-1.4599093624	-2.0114057392	-0.076588
C	 0.727282013	-0.4644845505	-1.2703306791	-0.10374
C	-0.7839648071	-3.6683376813	-1.708419691	 0.303882
C	-0.5998695107	-4.8486811664	-1.8291537186	-0.438015
H	 0.8126433616	 1.7878046436	 0.1537240461	 0.286681
H	 0.5653496171	-0.3743611765	 0.8725329154	 0.08456
H	-1.8632951113	-0.4066209137	 0.9716662482	 0.11577
H	-1.9839296878	 0.0379701683	-0.7468939445	 0.104085
H	-1.8026990777	-1.9500005724	-2.3179940931	 0.109546
H	 0.7289950966	-1.7716432803	-2.9359562934	 0.112062
H	 1.6288783604	 0.0671581396	-1.5679853647	 0.090765
H	-0.4410323814	-5.894550612	-1.9234947981	 0.199815
