20
gdb 19752	3.49436	2.14951	2.07532	0.0458	76.52	-0.2583	0.0925	0.3508	802.0954	0.181064	-311.888467	-311.882127	-311.881183	-311.918405	27.068	
C	-0.1355911192	 1.5635284051	-0.0171831595	-0.420018
C	 0.030095727	 0.0443568882	 0.0007185189	 0.04707
C	 0.91670412	-0.5287312456	-1.1057863439	-0.053708
C	 2.327929773	-0.6281948586	-0.5527078171	-0.051057
C	 2.2852673646	-0.125072616	 0.8866660148	-0.223187
C	 0.8311944404	-0.5600443581	 1.1898602139	-0.052641
C	 0.8736398369	-2.0570477901	 0.7963170297	-0.223994
C	 1.4422327393	-1.8607592412	-0.6074866145	-0.063734
H	 0.8269737848	 2.0827401045	-0.0338302914	 0.11774
H	-0.6902552045	 1.880036801	-0.9073623164	 0.110811
H	-0.6932900714	 1.9111997162	 0.8594944158	 0.108403
H	-0.9670138981	-0.4147719608	-0.0318495914	 0.062246
H	 0.72697445	-0.3440903273	-2.1557073428	 0.072985
H	 3.1984834757	-0.524193245	-1.1868799907	 0.075452
H	 3.0091055422	-0.6318450947	 1.5343822233	 0.090516
H	 2.4462907062	 0.9528939657	 0.9777128724	 0.09276
H	 0.4532836308	-0.3316491974	 2.1866796699	 0.055277
H	 1.5291400935	-2.6472672701	 1.4459164698	 0.088813
H	-0.1195477457	-2.5191233558	 0.7950082403	 0.089964
H	 1.6488393445	-2.6841763001	-1.278584431	 0.076302
