17
gdb 62376	2.63438	1.84565	1.37857	2.9901	76.56	-0.2421	-0.0059	0.2362	957.4676	0.13776	-380.840606	-380.833079	-380.832135	-380.872154	30.223	
N	 0.0041138589	 1.4505621811	-0.046069251	-0.559832
C	 0.003095485	-0.0052417115	-0.0181390805	 0.18396
C	 0.9587788221	-0.5643913104	-0.992444054	 0.211185
N	 1.7355446053	-0.888857764	-1.7864484247	-0.345818
C	 0.0205051512	-0.6176530985	 1.4433566654	-0.092925
C	-1.4870132697	-0.1967056241	 1.5205654532	-0.22331
C	-1.4467360371	-0.6439745101	 0.0192251226	-0.092936
C	-1.0818520225	-2.1239130581	 0.1790423548	-0.08639
C	-0.1224948807	-2.106677565	 1.1098098788	-0.086396
H	 0.9383143826	 1.7988443281	 0.1526103649	 0.24309
H	-0.2287157928	 1.7779165803	-0.9799503612	 0.243083
H	 0.7669740091	-0.2990299574	 2.1699066913	 0.075305
H	-2.1178330323	-0.7917445071	 2.1814547943	 0.101755
H	-1.6387553396	 0.8726728063	 1.6571037437	 0.126064
H	-2.2008381393	-0.3522735993	-0.7107420894	 0.075302
H	-1.5081978382	-2.9507239818	-0.369461322	 0.11393
H	 0.453751578	-2.9154831386	 1.5340948136	 0.113932
