17
gdb 49294	3.33398	1.25987	0.949	2.2305	79.76	-0.2147	-0.0646	0.1501	1201.9702	0.138091	-418.037047	-418.029135	-418.028191	-418.06974	29.749	
O	-0.895835694	 1.193138843	-0.1093178095	-0.28242
C	 0.2594055669	 0.8895291492	-0.2936844292	 0.15038
C	 1.4130862767	 1.7854135487	 0.0506249815	 0.262059
N	 2.5690792508	 1.3306855288	-0.2563843412	-0.283065
C	 3.7816029948	 2.1050709883	-0.1013129559	-0.167729
C	 3.9940432477	 2.7987376658	 1.268232916	-0.280421
C	 3.0417200244	 3.9205719751	 1.5584450269	-0.093784
C	 1.7384741076	 3.9480896126	 1.2628306703	 0.010445
N	 0.9969684945	 2.9645425912	 0.6173232271	-0.352781
H	 0.577052317	-0.0678659307	-0.7449756581	 0.114029
H	 4.6229111342	 1.4280342294	-0.2846022133	 0.106318
H	 3.8200597348	 2.8721812605	-0.8865981405	 0.120392
H	 3.9348405074	 2.026795558	 2.0465455329	 0.124918
H	 5.0220643954	 3.1777539621	 1.3011823932	 0.105494
H	 3.4427525037	 4.8054570934	 2.0411679559	 0.092907
H	 1.1338889347	 4.8068099842	 1.5353709329	 0.109983
H	-0.0127481267	 3.0290114306	 0.6640673309	 0.263276
