16
gdb 5564	3.29393	1.87291	1.2614	3.8114	67.31	-0.2127	0.0278	0.2404	942.502	0.131989	-379.961766	-379.95389	-379.952946	-379.994178	28.633	
C	 0.2245887503	 1.4909682519	 0.0067847455	-0.518509
C	 0.1051000228	 0.0054895392	-0.0703868087	 0.238351
C	-0.0209121823	-0.8614360608	-1.1339041257	 0.153776
C	-0.0657199093	-0.5385152031	-2.59865366	-0.171646
O	 0.9166486766	 0.4165774002	-3.000807586	-0.412278
N	-0.1087780441	-2.166547595	-0.6896882816	-0.304548
C	-0.0453675568	-2.0982645346	 0.6176285432	-0.005313
N	 0.086185706	-0.8090488725	 1.0444791806	-0.288727
H	 1.0567158474	 1.8013254761	 0.650591361	 0.121238
H	 0.4094910987	 1.8838410836	-0.9942146638	 0.166021
H	-0.6857702027	 1.9604766282	 0.4004080389	 0.12877
H	 0.0266917051	-1.4806569793	-3.1560211668	 0.110939
H	-1.0240160503	-0.0871195244	-2.8807696993	 0.114244
H	 1.7719573292	 0.071423512	-2.723155344	 0.279464
H	-0.0797828577	-2.932764947	 1.3021951464	 0.126933
H	 0.1728936871	-0.5014474545	 1.9991886405	 0.261285
