18
gdb 59622	3.09121	1.15928	1.03312	3.8539	67.98	-0.263	0.0503	0.3134	1210.021	0.148409	-476.278951	-476.270211	-476.269267	-476.31275	32.34	
C	-0.0051259331	 1.567511887	-0.1018733503	-0.412319
C	 0.0212040305	 0.0480358078	 0.0651447241	 0.112375
O	 0.7868922715	-0.3507328128	 1.1908338186	-0.435183
C	-1.3876077717	-0.5490972239	 0.15505952	 0.121605
C	-1.4184159213	-2.0904309565	 0.2454015635	-0.214193
N	-2.4394316	-2.2764251463	 1.2593366963	-0.364218
C	-2.6122499466	-1.1472387967	 2.0235553036	 0.468169
O	-3.2018647814	-1.0275445204	 3.0599241625	-0.386578
O	-1.9882943846	-0.1017159513	 1.3861739144	-0.268721
H	 1.0159501021	 1.9555718872	-0.1219734441	 0.129006
H	-0.5056272698	 1.8534732451	-1.0329258896	 0.116522
H	-0.5424744129	 2.0358227238	 0.7287803463	 0.137436
H	 0.5183297641	-0.4070412498	-0.801170721	 0.09401
H	 0.3303442098	-0.0069278564	 1.9690858954	 0.29228
H	-2.0093198608	-0.1903744202	-0.673908086	 0.094802
H	-1.6980252486	-2.5466413666	-0.7082525923	 0.119176
H	-0.4409265167	-2.4762143065	 0.5595529014	 0.131331
H	-2.5957180206	-3.1634313136	 1.7093541772	 0.264499
