19
gdb 94402	2.62839	1.43334	1.20046	1.5313	76.42	-0.234	0.0169	0.2509	1115.9354	0.160256	-419.184558	-419.176077	-419.175133	-419.217804	31.945	
C	-0.2106451592	 1.4826053949	-0.0585475845	-0.407616
C	 0.0286539586	-0.0212124655	-0.0739842898	-0.057893
C	 1.2821501884	-0.4825349812	-0.8659760965	-0.173773
N	 2.0091328133	-0.6379887694	 0.4200076775	-0.356541
C	 0.7576227926	-0.6020930086	 1.1762134197	 0.20753
C	 0.6746604552	-0.0234511833	 2.6042053665	-0.142161
O	 0.0636626456	-1.2705951352	 3.0755653515	-0.262957
C	 0.1985063634	-1.8548894545	 1.8348014362	 0.368713
N	-0.0347848416	-3.0228105162	 1.4401511854	-0.551816
H	 0.7016138802	 2.0253650595	 0.2104303773	 0.128933
H	-0.5266264587	 1.8276041216	-1.0487686282	 0.121751
H	-0.9960920951	 1.7602487821	 0.6523886425	 0.118913
H	-0.886877881	-0.5592074698	-0.3263058938	 0.095568
H	 1.11830621	-1.420293542	-1.4082403095	 0.113953
H	 1.7339437291	 0.2514189137	-1.5425260768	 0.098251
H	 2.5423773592	-1.495601583	 0.5210996765	 0.22831
H	 1.6424528797	 0.1464832212	 3.0825154898	 0.123749
H	 0.0066248888	 0.8256399191	 2.7653603667	 0.118726
H	-0.3891607285	-3.6144989634	 2.1936744096	 0.228361
