20
gdb 65991	2.60979	1.28563	1.17143	2.5168	79.58	-0.2344	-0.0206	0.2138	1175.2385	0.169961	-403.1288	-403.119678	-403.118734	-403.162947	34.268	
C	-0.0575729794	 1.7088457119	 0.0969882011	-0.451083
C	 0.0400739685	 0.1883462271	 0.0200627728	 0.185422
N	 1.0448626622	-0.290188347	-0.9962353159	-0.353891
C	 1.8096310038	-1.0845285448	 0.0015268926	-0.291598
C	 0.9545422235	-0.4412512991	 1.102241635	 0.362206
O	 0.9859285172	-0.4067590772	 2.2953285403	-0.296091
C	-1.2848146114	-0.5518666208	-0.0727573783	-0.01474
C	-2.5902171781	-0.006041351	 0.4449220813	-0.267506
C	-2.3722622842	-0.1357203246	-1.0406981923	-0.287196
H	 0.9450903359	 2.141075644	 0.0631039278	 0.127696
H	-0.6221434676	 2.120180155	-0.7456858669	 0.121061
H	-0.5369775666	 2.0199876004	 1.0293574859	 0.133801
H	 0.620230602	-0.8553365074	-1.7234884544	 0.218936
H	 1.6835028475	-2.1750463807	-0.0472285308	 0.122521
H	 2.8820096573	-0.8629632386	 0.0380309397	 0.132531
H	-1.1676763606	-1.6282957956	 0.0356288782	 0.082425
H	-3.2677249143	-0.6967041318	 0.9339823559	 0.117453
H	-2.6002696345	 0.993118617	 0.8636627916	 0.121611
H	-2.2355700937	 0.7759810847	-1.611313469	 0.120969
H	-2.8971691474	-0.9179790214	-1.5776951046	 0.115476
