19
gdb 120101	4.07683	0.97994	0.89808	1.3999	75.37	-0.2351	0.0539	0.289	1348.6517	0.157792	-422.920747	-422.912359	-422.911415	-422.954337	31.585	
C	 0.1346211026	 1.3990859955	 0.1926684227	-0.225142
O	 0.201620838	 0.0015434399	 0.0686947124	-0.245889
C	 0.3749659536	-0.4167159637	-1.2774067757	-0.091903
C	 0.4288300176	-1.9387474239	-1.2492526859	-0.010461
C	-0.1962680919	-2.9255673337	-2.2008597131	-0.132985
C	 0.0049036229	-2.5455452465	-3.6992293312	 0.0199
O	 0.7013193982	-1.2916761425	-3.7820208415	-0.239708
C	 1.4507068604	-2.491192221	-3.5297792191	 0.019893
C	 1.3280293905	-2.8683029664	-2.022215305	-0.132981
H	 1.0555060751	 1.8885594487	-0.1644347404	 0.100683
H	-0.7126748542	 1.8221563462	-0.3714569856	 0.100682
H	 0.0018068052	 1.6305524908	 1.2527993092	 0.121375
H	-0.4569243585	-0.0536973839	-1.8970261364	 0.098238
H	 1.2981572904	 0.0122250191	-1.6914995078	 0.098242
H	 0.321393588	-2.2830173652	-0.2222405726	 0.112009
H	-0.8770722897	-3.7036508341	-1.880284617	 0.093788
H	-0.6176490351	-2.8307612783	-4.538217989	 0.110234
H	 2.2695281995	-2.7222208055	-4.1998386363	 0.110234
H	 1.9720922229	-3.5966213955	-1.5463877571	 0.09379
