21
gdb 72501	2.49824	1.7376	1.43846	1.6782	76.42	-0.2422	0.0683	0.3105	1009.191	0.185412	-424.249857	-424.242184	-424.24124	-424.28133	31.899	
O	-0.0511467009	 1.3913716019	-0.037080254	-0.491354
C	 0.0253593961	-0.0206001221	 0.0173813471	 0.372737
C	 0.5669633159	-0.5580906921	 1.3632377668	-0.120896
O	-0.0487872466	-1.8334310249	 1.5591007268	-0.278411
C	-1.0148323067	-2.0443582969	 0.5095373276	 0.103838
C	-1.3795389559	-0.631982769	 0.0478638065	-0.247885
C	-0.370535041	-2.8284135225	-0.6447873043	-0.202899
C	 0.933747326	-2.1396809731	-1.0905628743	-0.204741
C	 0.7986030028	-0.6046663795	-1.1804480141	-0.259939
H	 0.8378482994	 1.7350503643	-0.1757486731	 0.275147
H	 1.6587088054	-0.6753991007	 1.3731648248	 0.087758
H	 0.2829323081	 0.131714144	 2.1692195023	 0.098915
H	-1.8537517591	-2.5956266852	 0.9434962242	 0.074156
H	-1.9985090478	-0.1123151149	 0.7849283961	 0.107515
H	-1.8812572366	-0.6030854667	-0.9221724371	 0.098933
H	-0.1558307698	-3.8544152792	-0.3287528777	 0.100609
H	-1.0895661877	-2.8907096891	-1.4717671662	 0.092549
H	 1.7123860145	-2.3844176483	-0.3606796414	 0.115359
H	 1.2734014682	-2.5425799673	-2.0500612108	 0.094117
H	 0.2715695117	-0.3089268841	-2.095417917	 0.102884
H	 1.7989702739	-0.1524192547	-1.2304337923	 0.081608
