13
gdb 133285	3.10623	1.35455	0.94875	1.7559	66.84	-0.2516	-0.0977	0.1539	1132.1022	0.089267	-490.185821	-490.178195	-490.177251	-490.218685	26.896	
C	 0.1140343046	 1.4444058988	 0.0756493088	-0.33657
N	 0.0013493817	-0.0004376833	 0.1551827844	-0.337356
C	-1.1343966618	-0.5432943235	 0.0585510183	 0.489265
N	-1.1874117714	-1.9588245409	 0.1430933898	-0.234116
N	-2.2622008689	-2.7072267201	 0.0667887913	-0.003688
N	-3.4028586065	-2.1463941572	-0.1010840908	-0.269226
C	-3.3736529511	-0.7622935073	-0.1864576398	 0.387461
F	-4.5742424081	-0.2670690746	-0.3571009193	-0.033392
N	-2.3857549708	 0.042533529	-0.1237801661	-0.358368
H	 0.7849820362	 1.7045448049	-0.7508707315	 0.130309
H	-0.8423249866	 1.9581254839	-0.0674707593	 0.139169
H	 0.5839824436	 1.8162059586	 0.9931912977	 0.130305
H	-0.317779931	-2.4592198384	 0.2757928964	 0.296208
