21
gdb 93778	2.88472	1.26661	0.99404	2.0973	81.64	-0.239	0.0135	0.2525	1270.275	0.181867	-424.242096	-424.232699	-424.231755	-424.275831	35.738	
C	-0.0364749377	 1.530936501	-0.0550482936	-0.399826
C	 0.05118608	 0.0161021748	 0.0179338935	 0.091072
O	 0.8187256092	-0.4301611622	-1.1018992034	-0.268766
C	 0.7438769065	-1.8297150916	-1.2734932705	-0.160014
C	 0.9915389344	-2.6125366397	-0.0055468204	 0.290826
C	 1.2343700834	-4.0856093637	-0.1720305079	-0.47806
C	 0.9750133615	-1.9887280535	 1.1744559001	-0.199686
C	 0.7198995079	-0.5071129137	 1.3000663825	 0.094268
O	 1.9275415099	 0.1949003519	 1.6002274499	-0.433574
H	 0.9568767962	 1.9732491613	 0.0418390487	 0.130281
H	-0.4744696457	 1.8370196849	-1.0084497176	 0.117094
H	-0.6606058988	 1.9145027107	 0.7578101547	 0.114239
H	-0.9613678127	-0.4196987957	-0.0418357279	 0.062372
H	-0.2397060632	-2.1151822694	-1.6942735847	 0.09646
H	 1.4944177585	-2.0886909477	-2.030605889	 0.112917
H	 2.1247329502	-4.2760150462	-0.7848279942	 0.127194
H	 1.3711025859	-4.5793686412	 0.7932359583	 0.128342
H	 0.3938342027	-4.5705603667	-0.6852762296	 0.12757
H	 1.18904627	-2.5341576181	 2.090360031	 0.08606
H	 0.060131207	-0.3076165585	 2.1529037072	 0.083161
H	 2.5261248951	 0.0133685135	 0.8655027328	 0.278071
