19
gdb 80145	2.30474	1.73045	1.5016	1.8773	76.8	-0.2141	0.0066	0.2207	1004.7185	0.158883	-423.007714	-422.999285	-422.998341	-423.040084	32.971	
C	-0.0959717173	 1.4801534193	-0.0175568712	-0.445665
C	 0.0332255837	-0.0210586316	 0.0004689001	 0.399784
O	-1.1525698256	-0.5876207633	-0.4843621133	-0.308445
C	-1.3530292005	-1.9944004026	-0.3857511761	-0.110474
C	-0.8055399149	-2.6012480832	 0.8744409006	-0.124212
C	 0.1367494168	-1.9900671616	 1.5994204379	-0.066515
C	 0.7308379221	-0.7103733751	 1.166052124	-0.223288
C	 1.3752904379	-0.659513451	-0.2378922266	 0.031117
O	 1.5126899529	-1.8170220108	-0.9994557691	-0.424969
H	 0.8266854226	 1.9539351642	 0.3284131536	 0.114667
H	-0.3051858257	 1.8296860895	-1.0335707625	 0.129776
H	-0.9160037467	 1.8021235363	 0.6319085975	 0.125684
H	-2.4404959625	-2.1330624163	-0.4222367244	 0.113356
H	-0.9337405378	-2.4950909201	-1.2712027219	 0.118053
H	-1.2272362363	-3.5521354566	 1.1864311178	 0.099534
H	 0.498087756	-2.4334894713	 2.5228816997	 0.097127
H	 1.1894868224	-0.099398811	 1.9367424435	 0.088679
H	 2.2262395613	 0.0106929798	-0.3481041673	 0.09751
H	 1.3723215515	-2.5766531946	-0.4191246023	 0.288281
