18
gdb 100595	3.02885	0.89752	0.72838	1.3438	72.44	-0.276	-0.0348	0.2412	1548.2501	0.144985	-476.256828	-476.246682	-476.245738	-476.292971	35.059	
C	-0.0633574655	 1.5041910295	-0.0892714654	-0.387381
C	-0.0023102285	-0.0226470701	-0.0255601421	-0.187139
C	 0.7328654774	-0.5100993908	 1.2409154027	 0.024586
O	 0.1158712379	-0.042609536	 2.4148466885	-0.434706
C	 0.7911528319	-2.026578027	 1.2754341096	 0.441837
O	 0.2160801885	-2.6971063251	 2.095080058	-0.361643
O	 1.5540151495	-2.5235120803	 0.2645650918	-0.199672
C	 1.6864479488	-3.8918654064	 0.1557909313	 0.117773
N	 2.3823927885	-4.3342607359	-0.7908011973	-0.413313
H	 0.9413492581	 1.9365226925	-0.1524563842	 0.116982
H	-0.6256582998	 1.8333016732	-0.9678238198	 0.11527
H	-0.5492066296	 1.9056294801	 0.8032539873	 0.14115
H	-1.0171987029	-0.4392334044	-0.0126380423	 0.104359
H	 0.5070367014	-0.4275901421	-0.9061861125	 0.119882
H	 1.7687772282	-0.1405371958	 1.2062103263	 0.11057
H	-0.2780643439	-0.8154710044	 2.8437813727	 0.296298
H	 1.1506639522	-4.4321180684	 0.9358475751	 0.149891
H	 2.4039889879	-5.3526798484	-0.7595134897	 0.245256
