18
gdb 79501	2.38932	1.7693	1.22905	1.5609	76.82	-0.227	-0.0399	0.1871	1049.3665	0.146528	-401.857955	-401.849912	-401.848968	-401.890767	30.37	
C	-0.1852130117	 1.5702809676	-0.1695433549	-0.423467
C	-0.0387614044	 0.0777289879	 0.04731495	-0.002205
N	 1.1423454304	-0.59449781	-0.6589846576	-0.173503
C	 2.089212879	-0.2149325634	 0.5240464148	-0.045241
C	 2.5812297908	-1.6589776459	 0.6477458297	-0.264395
C	 1.081315895	-1.7459628687	 0.3721602414	-0.034805
C	 0.7343770299	-0.4791555679	 1.249957011	 0.222418
C	 0.4512832015	-0.4672838107	 2.713954385	 0.023835
O	 1.3072550636	-0.4517121477	 3.5662408936	-0.253223
H	 0.7289809821	 2.1142508377	 0.0859338747	 0.122655
H	-0.4195758637	 1.7758666708	-1.2189256361	 0.133925
H	-0.9993999848	 1.9726382817	 0.4425540199	 0.121527
H	-0.9751363994	-0.4445033835	-0.1880183457	 0.075118
H	 2.6629735958	 0.7110145259	 0.5138722535	 0.094448
H	 3.2298937156	-2.013570856	-0.157100425	 0.112637
H	 2.9265941158	-1.974745421	 1.6328154989	 0.125214
H	 0.4321263952	-2.6067879209	 0.2006220543	 0.091789
H	-0.6298100307	-0.4992891657	 2.9867663323	 0.073273
