17
gdb 3020	4.99069	1.70418	1.38476	1.5588	60.83	-0.2546	0.0868	0.3415	898.1034	0.146169	-346.819476	-346.811271	-346.810327	-346.852361	28.463	
C	 0.1684487408	 1.427653604	 0.2320357668	-0.232794
O	-0.0457282001	 0.0414323293	 0.1020640106	-0.250768
C	 0.5139590072	-0.5412632626	-1.065404324	 0.117596
C	 2.0383733044	-0.6660931278	-1.0011062562	-0.41194
C	-0.135986992	-1.9030364666	-1.1902636413	 0.087837
C	-1.2922545802	-2.136222956	-2.0581603366	-0.180099
O	 0.0211379076	-2.5493627926	-2.4526221778	-0.240429
H	 1.2263734208	 1.6816043707	 0.3899780767	 0.109225
H	-0.1895561194	 1.9782205125	-0.6523770379	 0.103279
H	-0.3997449404	 1.7587558954	 1.1049341462	 0.128198
H	 0.2363952371	 0.0541123807	-1.9515460111	 0.06634
H	 2.3986964735	-1.1985754499	-1.8858677345	 0.137957
H	 2.5248778344	 0.3126187921	-0.9731882885	 0.115929
H	 2.3359209722	-1.2257304152	-0.1084017545	 0.122083
H	 0.0036684057	-2.5506543999	-0.323094609	 0.097
H	-1.9864853526	-2.9437803282	-1.8318398411	 0.116814
H	-1.7107721189	-1.307176916	-2.6271258977	 0.113773
