17
gdb 132510	3.09719	1.29221	0.91778	1.6615	80.77	-0.2011	0.0051	0.2062	1225.2745	0.13624	-426.049194	-426.04077	-426.039826	-426.082652	32.083	
C	-0.014605537	 1.5241533106	 0.0045506246	-0.492874
C	 0.0001580902	 0.014159926	-0.0087364479	 0.333945
C	-0.0497736795	-0.694731429	-1.2090124742	-0.223697
C	-0.024685789	-2.0902392533	-1.2056513441	-0.224569
C	 0.0527894425	-2.7612853605	-0.0039769716	 0.225948
F	 0.0633472021	-4.1103791252	 0.0234619668	-0.09917
C	 0.1080334702	-2.0920177976	 1.2249568665	 0.203772
N	 0.2432648117	-2.8217956515	 2.4042842548	-0.597394
C	 0.0765956321	-0.6960026068	 1.1932980276	-0.281326
H	 0.9508745102	 1.931183603	 0.3278643758	 0.130946
H	-0.226711419	 1.9275561945	-0.9890248429	 0.121898
H	-0.7725115487	 1.9126528875	 0.6935125683	 0.125467
H	-0.1112367398	-0.1621620011	-2.151797359	 0.0901
H	-0.070268602	-2.6632727171	-2.124721187	 0.104965
H	-0.0573303131	-3.7823420762	 2.3250282455	 0.254029
H	-0.1333522657	-2.3712743512	 3.225172624	 0.247988
H	 0.1174891149	-0.1543629721	 2.1350064128	 0.079971
