20
gdb 97815	4.8722	0.69365	0.65969	1.5006	89.8	-0.2247	0.0554	0.2801	1785.5196	0.170909	-365.940945	-365.931699	-365.930755	-365.976803	33.739	
C	 0.0346761467	 1.5874181795	-0.1286367448	-0.362761
C	-0.033120748	 0.0531779828	-0.0185902585	-0.313141
C	 0.6346815919	-0.4677933263	 1.1696279198	 0.068816
C	 1.1872716015	-0.8829078389	 2.1569872723	 0.090068
C	 1.8539062645	-1.3846111013	 3.3428850365	-0.176344
C	 1.0593114497	-1.468984002	 4.7127350049	-0.234232
C	 1.4097896372	-2.957750961	 4.7746398035	-0.044069
N	 0.7978637814	-3.5658539469	 3.5679364725	-0.320337
C	 2.1149306503	-2.9018294288	 3.4672569395	-0.052774
H	 1.0728019247	 1.9286122625	-0.1693209922	 0.124814
H	-0.4767939494	 1.9296515363	-1.0335145129	 0.110883
H	-0.4406252186	 2.0599531012	 0.7353808097	 0.126138
H	-1.0831232664	-0.2671283502	-0.0167007829	 0.127866
H	 0.4146126789	-0.3965098065	-0.9146194481	 0.124904
H	 2.7895133174	-0.8407855159	 3.5101228017	 0.097996
H	 1.5261385791	-0.8649424905	 5.4928439765	 0.10337
H	-0.0079024598	-1.2495308514	 4.6531195211	 0.115584
H	 1.619672737	-3.555022797	 5.6530249168	 0.093158
H	 0.977989753	-4.5688147998	 3.6107784685	 0.22753
H	 2.9838377289	-3.437711196	 3.105120086	 0.09253
