21
gdb 115608	3.16197	0.99394	0.90503	1.6606	74.58	-0.2465	0.0599	0.3064	1362.1892	0.180822	-461.339086	-461.328974	-461.328029	-461.373987	37.562	
O	-0.0089995706	 1.3496005734	-0.4812921598	-0.428582
C	 0.0879137115	-0.0598484613	-0.3084834794	-0.088366
C	-1.2639198949	-0.5436834065	 0.190936713	-0.047804
C	-2.3867406326	-0.5027089725	-0.8859322481	-0.222239
C	-2.2188877778	-2.0331429466	-1.0956169915	-0.285422
C	-1.4042674235	-2.091205509	 0.233213171	 0.427714
O	-0.1772192768	-2.7877560742	 0.2093903682	-0.492029
C	-2.2267680666	-2.5697246356	 1.4234068754	-0.140024
O	-2.3698616176	-3.9811537756	 1.2743461661	-0.437938
H	 0.8311986687	 1.6638930944	-0.8271926121	 0.284435
H	 0.3444184973	-0.5606327379	-1.2539296778	 0.091342
H	 0.8675610118	-0.3253574083	 0.4194381087	 0.096476
H	-1.4873392868	-0.0284312181	 1.1318430846	 0.065308
H	-3.3610104144	-0.2321195304	-0.4716341202	 0.096648
H	-2.1876539935	 0.1424035549	-1.7433410737	 0.109453
H	-3.1192982322	-2.6490739378	-1.1526968302	 0.099547
H	-1.5733632311	-2.2706854703	-1.9440334326	 0.105454
H	-0.3933488176	-3.7064994465	 0.4161936214	 0.283413
H	-1.6872033229	-2.323627803	 2.3499267985	 0.094755
H	-3.2053480671	-2.0685073181	 1.4474689433	 0.093215
H	-2.6954952832	-4.3480611113	 2.1006210251	 0.294642
