20
gdb 66484	2.85313	1.83071	1.42073	1.5753	82.3	-0.219	0.0884	0.3075	999.5032	0.17114	-365.944341	-365.936648	-365.935704	-365.975858	31.425	
C	-0.1536809855	 1.4839112175	-0.0265398328	-0.527135
C	 0.0917618109	 0.0144679139	 0.0308655498	 0.358756
C	 0.3898704484	-1.0134471162	-0.9970902507	-0.106926
C	 1.2532916347	-1.8852093407	-0.0661530848	-0.07047
C	 0.3210323575	-3.0201592458	 0.4159851626	-0.28299
C	-0.5520746354	-1.8616470339	 0.9401716651	 0.374537
C	-1.6695039604	-2.0205020254	 1.9306950816	-0.497387
C	 0.7101510144	-0.9459899925	 1.0851305114	-0.185575
N	-0.9384193566	-1.0276137475	-0.285080062	-0.219915
H	 0.7887411073	 2.0425981698	-0.0518935431	 0.120271
H	-0.7250713714	 1.7336148576	-0.9261420796	 0.13281
H	-0.7261771197	 1.8266279533	 0.8429285891	 0.12246
H	 0.3780651276	-0.9575889108	-2.0792079303	 0.089293
H	 2.3090364762	-2.0237326669	-0.2904226392	 0.070502
H	-0.1080808025	-3.7033025404	-0.3232621808	 0.098845
H	 0.7623510999	-3.5853627108	 1.2435733522	 0.097106
H	-1.3267728913	-2.5373905474	 2.8328679011	 0.112273
H	-2.072275314	-1.045709748	 2.2248158766	 0.120819
H	-2.4891748181	-2.599649845	 1.4908462002	 0.126424
H	 1.247081358	-0.719787531	 2.0036759537	 0.0663
