16
gdb 47382	2.9601	1.25484	0.93041	3.3539	71.96	-0.2428	0.0162	0.259	1204.7421	0.124678	-437.878152	-437.869928	-437.868984	-437.911318	30.712	
O	-0.0485397261	-0.0740363381	 0.0227104882	-0.368051
C	-0.0304310179	 1.1407720179	 0.0360776211	 0.382064
C	-1.3231477122	 1.951911971	 0.1122552525	-0.193284
O	-1.1539979978	 3.3250155165	 0.4166395516	-0.24108
C	-0.1533555702	 3.9144328668	-0.3792222014	-0.08846
C	 1.2182558678	 3.3266171195	-0.0006193352	-0.153837
N	 1.1215535367	 1.8676864644	-0.058535699	-0.319625
C	 2.2727475187	 3.8181824343	-0.8827393252	 0.313825
C	 3.1345915908	 4.2320726547	-1.6099452383	-0.437596
H	-1.846816552	 1.8216683944	-0.8487358458	 0.126498
H	-1.9477292033	 1.5174850548	 0.8950151361	 0.148032
H	-0.3393929804	 3.7491383282	-1.4516060286	 0.110443
H	-0.1632763612	 4.9877781003	-0.1798932964	 0.130588
H	 1.4405831683	 3.6467145588	 1.0285579227	 0.124596
H	 1.9753513495	 1.3287329287	-0.091197569	 0.256412
H	 3.8997774793	 4.5971577377	-2.2502444931	 0.209476
