17
gdb 44753	2.98578	1.62026	1.25296	3.2597	74.15	-0.245	-0.0641	0.1809	1003.0821	0.137859	-421.833233	-421.826123	-421.825179	-421.865177	27.95	
O	 0.040863152	 0.658565441	 1.3540685244	-0.31999
C	-0.0092462595	 1.4048043608	 0.3948338873	 0.356144
C	-1.3955132746	 1.7538535403	-0.1735421243	-0.319622
C	-1.4909135867	 2.6162677549	-1.42256814	 0.091273
C	-0.6232164431	 2.202601204	-2.6301540353	-0.283097
C	 0.3461224455	 3.2793863808	-2.0777488351	 0.050335
O	-0.7189213533	 3.8356586045	-1.2655415384	-0.288101
C	 1.4529444449	 2.7090939569	-1.233305477	-0.046061
C	 1.2683537969	 1.9208543727	-0.1669670687	-0.139978
H	-1.9198608354	 0.8030045704	-0.327375189	 0.130307
H	-1.9259684829	 2.2589719865	 0.6427957369	 0.143849
H	-2.5408226903	 2.8385414827	-1.6408412673	 0.085744
H	-0.2580086566	 1.1761449537	-2.6776808965	 0.114576
H	-1.0704691029	 2.488779963	-3.5831642237	 0.117711
H	 0.7288669172	 4.0164736001	-2.7887426664	 0.08467
H	 2.4708190324	 2.9503342901	-1.5308580219	 0.109521
H	 2.1260546564	 1.5535123976	 0.3893802351	 0.11272
