15
gdb 125053	2.29739	1.8978	1.04671	4.6204	72.8	-0.2294	-0.0515	0.1779	1069.5879	0.112145	-453.953386	-453.945083	-453.944139	-453.986165	30.819	
C	 0.0067499468	 1.5319776414	 0.031286767	-0.528768
C	 0.0029434971	 0.029276949	 0.0134239333	 0.023778
C	-1.1537695266	-0.6986233495	 0.0550361256	 0.40347
N	-2.4103296193	-0.1722185383	 0.1524891564	-0.558752
O	-1.2130514751	-2.0476188584	 0.0463139074	-0.273004
N	-0.0491643419	-2.8202531372	 0.0139218771	-0.063684
C	 1.055190968	-2.1709642161	-0.0242645306	-0.044873
C	 1.242229042	-0.6997443393	-0.0355640909	 0.308493
O	 2.3675689654	-0.2137045655	-0.0798432142	-0.387544
H	 1.0447578764	 1.8699417101	 0.0213473403	 0.167699
H	-0.4955592857	 1.9624950019	-0.8453623913	 0.12042
H	-0.4810867077	 1.9362626404	 0.9263547684	 0.130608
H	-2.5260200689	 0.7831216196	-0.1437143487	 0.274746
H	-3.1710315039	-0.7943243355	-0.0741582019	 0.273881
H	 1.9438851033	-2.7962131226	-0.050242308	 0.153529
