14
gdb 128338	2.34376	1.55816	0.94297	4.3665	72.31	-0.2291	-0.0405	0.1886	1162.613	0.103269	-429.061303	-429.053105	-429.052161	-429.094548	28.878	
C	 0.0535620548	 1.4532190473	-0.0061726413	-0.325381
N	-0.1066169146	 0.0127212805	-0.112568479	-0.3986
C	 0.5528805864	-0.6857052132	-1.076669811	 0.335141
N	 1.1567736121	-0.1139288493	-2.1217767628	-0.289189
N	 1.6125027502	-1.1677683272	-2.8162337376	-0.08097
N	 1.3792857833	-2.3592864287	-2.3291686356	-0.259151
C	 0.6962013169	-2.0985845773	-1.2025289551	 0.163634
C	 0.2240744103	-3.091470212	-0.3151768535	 0.224883
N	-0.1902366037	-3.8404824536	 0.4658192275	-0.352936
H	 1.0845676764	 1.7512771935	 0.2283433145	 0.129029
H	-0.2268537656	 1.9241594414	-0.9515662208	 0.15488
H	-0.6113443391	 1.8218230163	 0.7769485706	 0.132953
H	-0.2774400851	-0.4921675995	 0.7424750839	 0.262643
H	 2.1206283277	-1.0424347083	-3.6769283396	 0.303064
