17
gdb 133536	2.35049	1.495	1.32891	0.9147	60.48	-0.254	0.0832	0.3373	1023.8191	0.132713	-549.508537	-549.499895	-549.49895	-549.54192	32.519	
N	 0.0566131097	 1.5949276595	-0.2253192193	-0.566413
C	-0.046508043	 0.1654059523	 0.0181572065	 0.169559
C	 0.1742257812	-0.2744894688	 1.4953122624	-0.259743
C	-1.136797822	-1.105143392	 1.4300562602	-0.209403
C	-1.4981715351	-0.3918127827	 0.0982954265	-0.259742
C	 0.819314602	-0.6345571514	-0.9511053283	 0.237325
F	 2.1159827159	-0.2896605169	-0.8406325559	-0.087864
F	 0.7428884086	-1.960752167	-0.7476108612	-0.083365
F	 0.4556348297	-0.4067274745	-2.2271704641	-0.087869
H	 1.0278710765	 1.8865165799	-0.1413075834	 0.234128
H	-0.2193031186	 1.7990052243	-1.183256103	 0.234125
H	 1.099576496	-0.8088139854	 1.7190220283	 0.112599
H	 0.0938885683	 0.5961143418	 2.1486654832	 0.11664
H	-0.9472559034	-2.1708780179	 1.2926503487	 0.116721
H	-1.8367255015	-0.9766175516	 2.2571591624	 0.104058
H	-2.1969492281	 0.4354014454	 0.235051707	 0.116645
H	-1.8352110463	-1.0147011452	-0.7325087801	 0.112599
