17
gdb 127851	2.64113	1.62149	1.01743	0.4642	83.	-0.2122	-0.0714	0.1408	1144.0801	0.136767	-414.184653	-414.176134	-414.17519	-414.218041	30.639	
C	 0.0622128423	 1.3877176879	 0.2492803075	-0.326758
N	-0.028013299	-0.0619338983	 0.2728089072	-0.334018
C	-1.1474156291	-0.6146771542	-0.0144171846	 0.366504
C	-2.4240398319	-0.0021931781	-0.3827834222	-0.047596
N	-3.4997611949	-0.6677588792	-0.6545185136	-0.244445
C	-3.4010979607	-2.0355741688	-0.5828536639	 0.060541
N	-2.3330556991	-2.7091093363	-0.2691881616	-0.192256
N	-1.2277576806	-2.0155510229	 0.0097926973	-0.038427
C	-0.0410823377	-2.7800216756	 0.35889933	-0.310684
H	 1.0817042537	 1.6800768675	 0.5137886235	 0.123935
H	-0.1531370982	 1.8160733441	-0.7415287084	 0.112572
H	-0.613374216	 1.8719186349	 0.9708766142	 0.112682
H	-2.4711289298	 1.0823653878	-0.4308364449	 0.133354
H	-4.2886205346	-2.6136298508	-0.8061839978	 0.134509
H	-0.3097014703	-3.8339753661	 0.3201016666	 0.146101
H	 0.7668227153	-2.5516305433	-0.341882783	 0.151999
H	 0.3028331305	-2.4959476084	 1.3573926039	 0.151989
