20
gdb 89953	2.74458	1.40078	1.09545	2.9377	79.28	-0.2193	-0.0306	0.1887	1165.4117	0.17021	-403.115112	-403.106362	-403.105418	-403.148995	32.873	
C	 0.2126509921	 1.7252980759	-0.0151720372	-0.415447
C	 0.026605787	 0.219961598	-0.0401861801	 0.082414
C	 0.8211018533	-0.636445863	-1.066657081	-0.349714
C	 1.1889679226	-1.5544312889	 0.1158115896	 0.298123
C	 2.5729912073	-1.3639928403	 0.7815122304	-0.312948
C	 1.9232910702	-0.2290266415	 1.6130522498	-0.166812
N	 0.5514973883	-0.5971229681	 1.1220324818	-0.195845
C	 0.6200514696	-2.9479085329	 0.1162715365	 0.097902
O	 0.1559424022	-3.5066492929	-0.8449747223	-0.250024
H	 1.2642534849	 2.0232651031	-0.0663933246	 0.117874
H	-0.2935411004	 2.1704064821	-0.8781830968	 0.125586
H	-0.2242626701	 2.1583459727	 0.8910671992	 0.128085
H	-1.045356586	 0.0027550034	-0.105432357	 0.091734
H	 0.2427565355	-1.1187234211	-1.8561680654	 0.128362
H	 1.6794258083	-0.1244524069	-1.5112323181	 0.099121
H	 2.8835022838	-2.2224445243	 1.3836869306	 0.113
H	 3.388293778	-1.0957648831	 0.1064674185	 0.113885
H	 2.0068850324	-0.3339124137	 2.6982892127	 0.112077
H	 2.2505230478	 0.7794201982	 1.3460158023	 0.105073
H	 0.6492241531	-3.4375077767	 1.1170162209	 0.077556
