20
gdb 114355	2.75119	1.24841	1.16462	3.1276	74.62	-0.2355	0.0614	0.2969	1170.9273	0.171531	-440.233761	-440.225158	-440.224214	-440.267245	32.93	
C	 0.6851294877	 1.5530235416	-0.1029556916	-0.405883
C	 0.2379623504	 0.1256727884	 0.1072259051	 0.168088
O	 0.8813006744	-0.8292261551	-0.7947149902	-0.315796
C	 1.2005560598	-1.7211897555	 0.2894232401	 0.081382
C	 2.6304446261	-1.5468876989	 0.8604293998	 0.001319
C	 3.7726550796	-1.1500597644	-0.0663885644	-0.070745
O	 4.8012427797	-0.5134472776	 0.674489585	-0.42746
N	 2.1451127678	-0.3943982666	 1.6939342371	-0.346127
C	 0.7320262786	-0.6803033488	 1.3300010931	-0.082508
H	 1.7452879031	 1.6613637792	 0.1339868936	 0.132195
H	 0.5159801296	 1.8495516172	-1.1426253836	 0.127044
H	 0.1103227369	 2.2280150028	 0.5407798545	 0.113301
H	-0.8527976476	 0.0386053445	-0.0037884164	 0.07498
H	 0.8077334127	-2.729066196	 0.1403089547	 0.081139
H	 2.917081048	-2.4094826742	 1.475588475	 0.072884
H	 4.2164807414	-2.0349346322	-0.5345896248	 0.103697
H	 3.3820137797	-0.501992057	-0.8616417904	 0.10473
H	 4.3674358217	 0.2264342053	 1.1185940018	 0.282177
H	 2.3285355501	-0.5126657827	 2.6827042797	 0.22785
H	 0.0414019503	-0.8576693	 2.1549730418	 0.077733
