18
gdb 48246	2.39536	1.21227	0.92356	3.4533	74.65	-0.2632	-0.0386	0.2247	1290.407	0.147879	-439.120516	-439.111882	-439.110938	-439.154487	31.224	
O	 1.8967943734	-0.3723586885	-0.0798689393	-0.305281
C	 2.0863874775	 0.8192866529	-0.0997164985	 0.172225
N	 1.0918765351	 1.7900606059	-0.0457388537	-0.126974
C	-0.2458663079	 1.3875538003	 0.0388165202	 0.163047
O	-1.1733868005	 2.1570577345	 0.090149978	-0.305609
C	 1.4100195229	 3.2155070038	-0.075019476	 0.05637
C	 2.3984693257	 3.8292503351	 0.9515670138	-0.247417
C	 2.8624918199	 4.7961720944	-0.1743712843	-0.208021
C	 2.2662129255	 3.814141065	-1.2222603473	-0.247437
H	 3.0953513371	 1.2614789142	-0.1642519781	 0.096751
H	-0.339311629	 0.2936156734	 0.0521347541	 0.140713
H	 0.4453485541	 3.7195242671	-0.0198283611	 0.135381
H	 1.9706906247	 4.2534045825	 1.8622307899	 0.115263
H	 3.1932201896	 3.1312498869	 1.2302125909	 0.109508
H	 2.3170903476	 5.742620767	-0.1477692507	 0.116856
H	 3.9301691741	 5.0096134375	-0.24081858	 0.109851
H	 3.0219227341	 3.1117071018	-1.5855240839	 0.109513
H	 1.7308248359	 4.2260095363	-2.080126624	 0.115261
