25
gdb 122192	3.59584	0.76063	0.73171	0.8962	89.96	-0.2403	0.0849	0.3252	1745.7062	0.227125	-389.486908	-389.476243	-389.475298	-389.523151	39.468	
C	 0.0426612493	 1.5961588244	-0.0049370171	-0.38276
C	-0.0238872885	 0.0728570172	 0.1252224609	-0.177135
C	-1.452064252	-0.4570025219	 0.0801903179	-0.058558
O	-1.407787765	-1.8626084359	 0.2374766184	-0.298827
C	-2.6095329147	-2.5616275896	-0.0257893075	 0.444077
C	-3.7196876999	-2.2031091176	 0.9616022451	-0.447257
C	-3.0867005118	-2.589722119	-1.5159057789	-0.265338
C	-3.2239898042	-4.1325664935	-1.4021337278	-0.219976
C	-2.3484951844	-4.0863137056	-0.1211863925	-0.263933
H	 1.0771735891	 1.949589261	 0.0327727884	 0.115926
H	-0.389172251	 1.9363920418	-0.9529107572	 0.114554
H	-0.5061612882	 2.0909696346	 0.804126463	 0.115218
H	 0.5500573648	-0.404662493	-0.6772102765	 0.102272
H	 0.4339850334	-0.2486392627	 1.0679135761	 0.105662
H	-2.0497373891	 0.0136021845	 0.877172205	 0.085294
H	-1.9252348482	-0.1894012841	-0.8791090724	 0.084357
H	-4.0471414575	-1.1649344618	 0.8476368357	 0.114912
H	-4.594561922	-2.841728267	 0.8047247649	 0.115663
H	-3.3703455096	-2.34634197	 1.9893289608	 0.119577
H	-3.9796698976	-2.0158924353	-1.777678441	 0.090274
H	-2.2686743831	-2.3040178143	-2.182606284	 0.103335
H	-4.2514056303	-4.4444246274	-1.1967278953	 0.10214
H	-2.8481501057	-4.7258235255	-2.2378565942	 0.099718
H	-1.2928108228	-4.2647434205	-0.3376243733	 0.108907
H	-2.649036201	-4.6991242788	 0.7325377214	 0.091898
