14
gdb 24706	3.95027	1.62304	1.15904	2.6564	70.7	-0.2239	-0.0111	0.2128	971.041	0.104298	-436.739271	-436.732818	-436.731874	-436.771213	24.229	
C	 0.0275123791	 1.3991883917	-0.1363531181	 0.007144
O	 1.350151075	 1.8520018134	 0.1855965852	-0.275347
C	 2.0139699499	 0.7690223783	 0.6731502048	 0.343374
C	 3.3093917312	 0.6662421275	 1.1244136916	-0.288027
C	 3.6870270221	-0.6140918751	 1.5670128087	 0.02039
N	 2.8975068998	-1.6834349633	 1.5735822368	-0.277593
C	 1.6321201274	-1.5567366582	 1.1262386623	-0.101638
C	 1.175861613	-0.3401156108	 0.673652038	 0.23779
O	-0.0539242752	 0.0088092142	 0.1827188458	-0.275529
H	-0.702478104	 1.9590886678	 0.4602458429	 0.131235
H	-0.1543790072	 1.5441704085	-1.2078929119	 0.131238
H	 3.9925666738	 1.5055583891	 1.1401222115	 0.115645
H	 4.6982410496	-0.764616148	 1.9367580789	 0.111005
H	 1.0000625555	-2.438856815	 1.1379744033	 0.120313
