21
gdb 60613	2.57401	1.10951	0.92652	3.0411	79.59	-0.2401	-0.0109	0.2292	1364.611	0.178718	-424.236819	-424.226168	-424.225224	-424.273278	37.655	
C	 2.2937516539	 0.1279267162	 0.53123615	-0.399327
C	 1.9992522708	-1.3740873098	 0.46086584	-0.126374
C	 1.7362303923	-1.796499391	-0.9789647763	 0.065306
O	 1.1715500274	-3.0920051702	-1.213583609	-0.266183
C	 0.4011146891	-1.9406646656	-1.5874196342	 0.071872
C	-0.9089819867	-1.7180159969	-0.8777448127	-0.422009
C	 3.1852594592	-2.2074715503	 0.979605185	 0.388768
C	 2.8486277295	-3.5858110687	 1.5074955736	-0.488123
O	 4.3163921784	-1.7815433997	 0.9363021625	-0.306857
H	 3.2081841513	 0.3629666834	-0.0183680189	 0.141977
H	 1.4673189038	 0.7075966808	 0.1097845073	 0.111263
H	 2.4446843027	 0.4450805486	 1.5665963536	 0.123366
H	 1.1187568618	-1.6238686241	 1.0609768578	 0.080895
H	 2.5638993593	-1.5542709398	-1.6498154338	 0.102651
H	 0.3512853839	-1.7956360973	-2.6688522297	 0.093651
H	-0.8220328311	-1.8563986701	 0.2016592964	 0.129519
H	-1.2798376676	-0.7060545772	-1.0731023158	 0.126798
H	-1.6587715842	-2.4249505762	-1.2478500632	 0.134037
H	 2.2811302531	-3.4897376125	 2.4415272612	 0.135838
H	 2.203451332	-4.1110467312	 0.7961608931	 0.166046
H	 3.7618230312	-4.1512538083	 1.6971454031	 0.136885
