22
gdb 120202	3.54803	0.90421	0.80533	1.2399	84.62	-0.225	0.0812	0.3062	1530.4157	0.19387	-404.250505	-404.241125	-404.24018	-404.285394	34.607	
C	 0.239933321	 1.4302032037	-0.6382149655	-0.22448
O	 0.0541402767	 0.0756392652	-0.3079751564	-0.237397
C	-0.8442955447	-0.5843579163	-1.1784467292	-0.116872
C	-0.9232665819	-2.0287586825	-0.7126331793	 0.071528
C	-2.0632374035	-2.5985099954	 0.1674554767	-0.096102
C	-2.9176938295	-2.5095301384	-1.1140877005	-0.178588
N	-1.5831155951	-3.0559096462	-1.6609992877	-0.184922
C	-1.6427717415	-3.9784942341	-0.4095472561	 0.102335
C	-0.4007892661	-4.7444907788	 0.0049454048	-0.446685
H	 0.9489945339	 1.848337224	 0.080572699	 0.126714
H	 0.6495030266	 1.5512660664	-1.6538613774	 0.104593
H	-0.7015536863	 1.9998619934	-0.5804977332	 0.102632
H	-1.8151531082	-0.0670631942	-1.1746982852	 0.086114
H	-0.46781379	-0.5658131851	-2.2162156717	 0.100573
H	 0.0929510479	-2.3145194888	-0.4384063516	 0.079821
H	-2.3326464152	-2.3376269051	 1.1974196851	 0.06347
H	-3.7488623659	-3.212251872	-1.2217286741	 0.097069
H	-3.1915657936	-1.5304203381	-1.5071668283	 0.100622
H	-2.4730753361	-4.685505359	-0.5183865401	 0.069607
H	 0.4626396463	-4.1170214853	 0.2335232784	 0.127441
H	-0.6241267367	-5.338201478	 0.8979169424	 0.120648
H	-0.1131661282	-5.4389749154	-0.7914109503	 0.131879
