16
gdb 123808	5.50657	0.97812	0.8823	2.8162	71.48	-0.2233	-0.0009	0.2224	1289.4661	0.12545	-434.035232	-434.027586	-434.026641	-434.068544	28.36	
C	-0.3556553847	 1.1254039273	-0.1252070839	-0.275961
C	 1.126120877	 1.0450471786	 0.1943243611	-0.299896
C	 0.3340517016	-0.200670929	-0.0194510972	 0.152916
O	 0.1234129532	-0.9790135534	 1.1403235574	-0.282378
C	-0.900398837	-1.8492299951	 1.0874577408	 0.406805
C	-1.3247744814	-2.668282449	 2.1120667839	-0.20213
N	-2.3533005232	-3.3478110457	 1.5430269064	-0.14197
N	-2.5573520792	-2.9864064133	 0.2725153021	-0.127973
N	-1.6666977461	-2.0671078541	-0.0101465763	-0.26925
H	-1.0207440876	 1.3984294026	 0.685809482	 0.12327
H	-0.6697505299	 1.4618353001	-1.1065719582	 0.122337
H	 1.8475030086	 1.330881839	-0.5625452501	 0.118588
H	 1.4241735651	 1.2628211884	 1.2135606635	 0.125346
H	 0.4789657244	-0.7927513413	-0.9166711316	 0.11705
H	-0.9981582305	-2.8121093098	 3.1261301046	 0.14848
H	-2.9450772801	-4.0517411354	 1.9542831654	 0.284766
