13
gdb 18841	4.26966	2.53007	2.09123	1.9897	62.15	-0.2486	-0.0335	0.2152	658.2855	0.097919	-357.591031	-357.585643	-357.584699	-357.620301	21.776	
N	-0.0401610596	 1.2160550682	-0.1917699823	-0.543661
C	-0.0420076368	-0.029883547	-0.0556658623	 0.415363
C	-1.0758326969	-1.0638306444	 0.115784958	-0.155724
C	-0.5885699653	-2.3948512142	-0.5512578667	-0.014546
N	 0.392219116	-2.3145635229	-1.6229299815	-0.182773
C	 1.2980132491	-1.5457106446	-1.1712031501	 0.005366
N	 1.0813733513	-1.011402371	 0.1674249761	-0.223129
C	 0.0227081639	-1.9436788518	 0.7142346921	-0.039841
H	 0.9123317334	 1.5850188913	-0.1912599993	 0.233134
H	-2.1111049494	-0.9326400438	 0.3970265788	 0.12263
H	-1.3227846181	-3.1884236882	-0.597510668	 0.120857
H	 2.162484561	-1.2149116099	-1.7349374293	 0.138409
H	 0.1181543414	-2.4083860317	 1.6862231047	 0.123917
