15
gdb 111943	3.24275	1.20082	0.91855	4.6866	68.91	-0.2338	-0.0941	0.1397	1200.152	0.11184	-457.791536	-457.783173	-457.782229	-457.825225	29.88	
O	-0.075391904	 1.472760475	 0.0043223929	-0.422574
C	 0.0437554159	 0.0630379941	 0.0938738239	-0.081141
C	-1.3710097189	-0.5140588329	-0.0025142069	-0.175814
C	-2.0681939906	-0.2502457892	-1.3154284811	-0.054314
C	-2.5065993324	-1.3565628686	-1.9385555241	-0.187685
C	-2.170910489	-2.5634976987	-1.1631443279	 0.290813
O	-2.4100428085	-3.7224058944	-1.3958181909	-0.298777
C	-1.392143551	-2.0420241291	 0.0833079564	 0.295354
O	-0.8815680468	-2.7275288725	 0.9259698926	-0.284996
H	 0.8061107092	 1.8558084949	 0.0421393472	 0.295003
H	 0.665833419	-0.3424157571	-0.719139566	 0.098963
H	 0.4856389828	-0.2572263698	 1.0474686791	 0.11986
H	-1.9479440486	-0.0915953807	 0.8317642751	 0.133051
H	-2.1793482657	 0.7620757635	-1.6868371679	 0.141621
H	-3.0346055516	-1.3949625445	-2.8827209623	 0.130634
