25
gdb 100674	2.75794	0.93707	0.85628	2.4308	84.48	-0.2531	0.0606	0.3138	1516.4595	0.226363	-426.628056	-426.616629	-426.615685	-426.663918	43.14	
C	 0.2311978161	 1.4670993223	 0.0821549843	-0.408583
C	-0.0552603687	-0.0304045289	-0.0746819896	-0.182845
C	-1.541053513	-0.4752392047	 0.0201202678	 0.251031
C	-2.1905629203	 0.0770641597	 1.3053265519	-0.447107
C	-2.3251307708	 0.0302653721	-1.2061067948	-0.426275
C	-1.5413918233	-2.0305494381	 0.0196364097	 0.088253
O	-0.8730996974	-2.5806721474	 1.166264359	-0.45164
C	-2.9036057943	-2.7267841181	-0.1093877306	-0.087449
O	-2.7393030966	-4.1297353245	-0.0731196538	-0.425327
H	 1.2994480339	 1.6597570081	-0.0585307607	 0.11598
H	-0.3059801636	 2.0752315773	-0.6528906338	 0.115493
H	-0.034888447	 1.835039849	 1.0776763757	 0.116383
H	 0.3329423241	-0.3658293816	-1.0456083762	 0.090707
H	 0.508341585	-0.5845627468	 0.6832431062	 0.109718
H	-2.2714946275	 1.1662986142	 1.2599524403	 0.124957
H	-3.2024501561	-0.3133762992	 1.451707477	 0.116756
H	-1.5985620094	-0.1583885833	 2.1975045103	 0.107951
H	-1.9638138801	-0.436760332	-2.129263863	 0.115498
H	-3.3959133751	-0.1773391257	-1.1200787901	 0.117824
H	-2.2160208768	 1.1127897629	-1.3178553226	 0.116169
H	-0.9281078118	-2.3683106303	-0.824875029	 0.092604
H	-1.3360107256	-2.2681520815	 1.9523924939	 0.283272
H	-3.5810085736	-2.3871470267	 0.694335706	 0.074587
H	-3.3792410797	-2.4816023849	-1.0631276628	 0.108691
H	-2.0492697984	-4.2856653517	 0.5853174047	 0.283351
