19
gdb 83825	2.97052	1.47242	1.17981	1.8426	75.61	-0.2263	0.0187	0.245	1082.9664	0.161364	-419.167408	-419.159426	-419.158481	-419.199741	30.743	
C	-0.0126727073	 1.5404642842	 0.1958743552	-0.319891
N	 0.0168125521	 0.0930051698	 0.0791784933	-0.102084
C	 1.106761774	-0.6212361447	-0.5794116884	-0.03824
C	 2.3959553951	 0.0381134479	-1.015323537	-0.104636
O	 3.5349959131	-0.7881334377	-0.7180655897	-0.227141
C	 3.8457846138	-1.0694690925	 0.5764395864	 0.141664
N	 3.2726049791	-0.8551087741	 1.6800924287	-0.263937
C	 1.9682228181	-0.2133876637	 1.8323874085	-0.200041
C	 0.8884050742	-0.7492879163	 0.8954767063	-0.029696
H	 0.9447676571	 2.0317177584	 0.4244779599	 0.105556
H	-0.3874810291	 1.9585919135	-0.7438263425	 0.127732
H	-0.7184279638	 1.809016055	 0.9883221672	 0.130751
H	 0.7774540656	-1.4267841329	-1.2334289627	 0.098754
H	 2.429942612	 0.1660234443	-2.0998882748	 0.121596
H	 2.5362883948	 1.0218068453	-0.5603855502	 0.113173
H	 4.8028845239	-1.5922896113	 0.574495443	 0.12208
H	 1.6490649108	-0.3864723032	 2.8652506057	 0.113592
H	 2.0768357599	 0.8731884666	 1.7407725351	 0.109752
H	 0.3969093267	-1.6498298485	 1.258950366	 0.101015
