18
gdb 34036	3.01678	1.36064	1.16913	5.2445	76.19	-0.2496	0.0222	0.2718	1101.8796	0.14926	-401.949924	-401.942108	-401.941164	-401.982254	30.336	
N	 0.0263428404	-1.1031666453	 0.0396291996	-0.343191
C	 0.0006016569	 0.0523539774	 0.0124774676	 0.262882
C	 0.0064253263	 1.4965068055	-0.0461666854	 0.27774
C	 0.5118235234	 2.1435603202	-1.3197275884	-0.341201
C	 1.3617054697	 2.195300459	-0.0696641536	-0.087708
C	 1.5118814665	 3.4928021743	 0.7226225826	-0.236691
C	 0.3705881137	 3.672787624	 1.7359995013	-0.211296
C	-0.975248968	 3.3726008646	 1.0882230875	-0.082302
O	-1.0782130307	 2.0131514592	 0.6663119113	-0.296912
H	 0.8122593213	 1.4964609892	-2.135141013	 0.138898
H	 0.0095532584	 3.0560321039	-1.6247204195	 0.129102
H	 2.2186553736	 1.531091484	-0.0560625432	 0.119045
H	 2.4740108055	 3.4906970781	 1.2420116773	 0.115354
H	 1.5326972553	 4.346619627	 0.0349958272	 0.110914
H	 0.5072209733	 2.9926291581	 2.5845045987	 0.1191
H	 0.3664009493	 4.6939627171	 2.1305353241	 0.10635
H	-1.7991918756	 3.5045618655	 1.7934372154	 0.122752
H	-1.1541466193	 4.0506006982	 0.2382961606	 0.097164
