14
gdb 131103	3.41445	1.22168	0.93697	1.3341	67.92	-0.2705	-0.0102	0.2602	1169.2196	0.101489	-432.820936	-432.812809	-432.811864	-432.85468	29.335	
O	 0.1373157737	 1.4912455716	-0.0294150605	-0.405708
C	 0.108751184	 0.0665773342	-0.0102821675	-0.167611
C	 0.6546199776	-0.5133798372	-1.240104593	 0.323125
C	 1.118647111	-0.9430978763	-2.2611492782	-0.450335
C	 0.7932774448	-0.4563992642	 1.2330528936	 0.292962
N	 1.2388153123	-1.706401442	 1.3639198286	-0.273114
N	 1.7179087214	-1.7252388652	 2.6000461114	-0.06667
N	 1.6327378009	-0.5980726102	 3.2919079603	-0.197062
C	 1.0375388455	 0.2327022706	 2.4352483957	-0.125226
H	 1.036124048	 1.7570311907	-0.2565963742	 0.289431
H	-0.9593475049	-0.1806945654	 0.0485418807	 0.143179
H	 1.5222144397	-1.3367090447	-3.1613289164	 0.204273
H	 2.1403227403	-2.5535036858	 2.9879682984	 0.295663
H	 0.8159081957	 1.2530068339	 2.698785361	 0.137094
