17
gdb 128267	4.57395	0.9321	0.79927	5.5901	71.79	-0.2193	0.0307	0.25	1414.1359	0.137529	-451.344113	-451.334982	-451.334038	-451.378648	32.3	
C	 0.2548935048	 1.2985696101	-0.1407289441	-0.344457
N	 0.1379339445	-0.1410645784	-0.0045274149	-0.384916
C	 0.7116394088	-0.7958660476	 1.0491707451	 0.475739
N	 0.9622444064	-2.094454942	 1.1067373943	-0.418441
C	 1.4839706682	-2.2502610025	 2.3629812759	 0.332475
C	 1.8912136755	-3.6114856113	 2.8423326261	-0.148509
O	 2.4967833909	-4.3614990811	 1.8071586453	-0.421322
N	 1.57923114	-1.1504464264	 3.0787188421	-0.284715
N	 1.0671301818	-0.2097309883	 2.2150627597	-0.27134
H	 1.2962302232	 1.6525049199	-0.1687803805	 0.129237
H	-0.2406538254	 1.6065246393	-1.0628425245	 0.145502
H	-0.2603687715	 1.8018601299	 0.6856773506	 0.135484
H	 0.1667452748	-0.6816398535	-0.8549451822	 0.262192
H	 2.6085052677	-3.5139811577	 3.6618918757	 0.125028
H	 1.0038953239	-4.1326383831	 3.2405150752	 0.099826
H	 2.0143101741	-4.1372934143	 1.0015147056	 0.293572
H	 1.0204408322	 0.7538713569	 2.4956089205	 0.274644
