16
gdb 81313	2.39238	1.74979	1.63374	5.1292	64.28	-0.2407	0.008	0.2487	913.9844	0.126252	-475.0225	-475.015175	-475.014231	-475.054206	28.248	
O	-0.0585667923	 1.4760568528	 0.0892170749	-0.420722
C	-0.0006501078	 0.0827731231	-0.0240971249	 0.132897
C	-1.3570815015	-0.6429385105	-0.1089966259	-0.074009
C	-2.3195309374	 0.1318284016	-0.9949110298	-0.04293
O	-1.720797733	 0.507870767	-2.2512798941	-0.235239
C	-0.4253820008	 0.2025091748	-2.4891060631	 0.492646
O	 0.1234760215	 0.5798227274	-3.4861116776	-0.344015
C	 0.24075557	-0.6171238536	-1.3960155982	-0.235863
N	-0.7320599868	-1.6933131827	-0.9868835034	-0.322192
H	 0.8327635164	 1.8380980293	 0.0509392795	 0.297187
H	 0.6378660002	-0.375951442	 0.7441370497	 0.081605
H	-1.8518744911	-0.9867796882	 0.8020087847	 0.086872
H	-3.1913997385	-0.4857712187	-1.2290949725	 0.126348
H	-2.6433529515	 1.053945421	-0.5036986871	 0.132125
H	 1.2356917504	-0.9297596366	-1.7099645269	 0.096196
H	-0.2300217978	-2.3516598546	-0.3924547753	 0.229093
