20
gdb 73428	2.92157	1.94095	1.42782	1.5917	81.	-0.2116	0.069	0.2806	968.8309	0.173273	-365.953209	-365.946016	-365.945072	-365.984342	30.001	
C	 0.1645219531	 1.4855229159	 0.0013165625	-0.454822
C	 0.1543490826	-0.0288981978	-0.0330603611	 0.319557
C	-0.1267445266	-0.6093814737	-1.4065012729	-0.273894
C	 0.0907528999	-2.1277839085	-1.4856683949	-0.249894
C	 0.033333562	-2.7433985839	-0.1062441974	-0.038635
C	 0.8909677311	-2.2411134062	 1.0256879868	-0.11268
C	-0.6102527364	-2.0908444224	 1.0908084837	-0.03573
N	-0.5359760831	-0.576860239	 1.1675236443	-0.190784
C	 0.9615571897	-0.7045640403	 1.0179953475	-0.089096
H	 0.9958449145	 1.8810689113	-0.5926862891	 0.112026
H	-0.7693436679	 1.8828662302	-0.411191422	 0.119412
H	 0.2604713375	 1.8505796195	 1.0269819888	 0.126984
H	-1.168047337	-0.3598279512	-1.6485316369	 0.107024
H	 0.4905577406	-0.0905382703	-2.1476882814	 0.101611
H	-0.66257812	-2.5833269134	-2.1367374517	 0.100571
H	 1.0663142657	-2.3551165296	-1.9319941608	 0.101368
H	-0.0793456121	-3.8250128845	-0.0843584834	 0.087434
H	 1.5531318923	-2.8688934148	 1.6068099642	 0.089366
H	-1.3486790244	-2.577195902	 1.7159007988	 0.094967
H	 1.6249287484	-0.1513240494	 1.6772924551	 0.085217
