25
gdb 104340	2.89225	1.1685	1.04392	0.1858	93.31	-0.235	0.0335	0.2685	1321.8039	0.229846	-352.385097	-352.375517	-352.374573	-352.41876	38.	
C	 0.1737976611	 1.5469552941	 0.0915425378	-0.402129
C	-0.0275491434	 0.0295459125	-0.0031455361	-0.197828
C	-1.4890410579	-0.4773834726	-0.0521006208	 0.281905
C	-2.1885020892	 0.0272676971	-1.3289819376	-0.42198
C	-1.4550390881	-2.0240567329	-0.0441527429	-0.213562
C	-2.8492038996	-2.6678007677	-0.0480174344	-0.276864
C	-3.7818384679	-1.9900146284	 0.9184649125	-0.03708
C	-3.5170446472	-0.8089402647	 1.4748178359	-0.060782
C	-2.2702870109	-0.0065504415	 1.199019912	-0.26592
H	 1.2411787051	 1.785319639	 0.1380715836	 0.111075
H	-0.2382622174	 2.0727939767	-0.7751297508	 0.117044
H	-0.2930185239	 1.9657148393	 0.9885914518	 0.117008
H	 0.4950642983	-0.3431464368	-0.8945218714	 0.086942
H	 0.4679859847	-0.4434855777	 0.8554763574	 0.087748
H	-1.686785455	-0.3530461312	-2.2262911048	 0.104209
H	-3.2338261779	-0.2907823907	-1.3647873237	 0.121366
H	-2.1828122692	 1.1201038542	-1.3821137689	 0.110008
H	-0.8715660982	-2.3858699762	-0.8995519414	 0.085361
H	-0.9205495519	-2.3507403152	 0.8574803165	 0.091591
H	-3.283938675	-2.6456093937	-1.0582014865	 0.106639
H	-2.76402892	-3.7332737021	 0.2018477616	 0.099124
H	-4.7107273151	-2.5035399026	 1.1562500096	 0.07922
H	-4.2253426627	-0.3751749764	 2.1776326362	 0.079299
H	-1.6141903304	-0.0496832031	 2.0822829548	 0.098704
H	-2.5410049581	 1.0518814205	 1.0946488695	 0.098901
