19
gdb 97711	4.9785	0.70723	0.68893	2.0011	88.21	-0.2324	0.0247	0.2571	1726.359	0.158168	-385.798659	-385.789776	-385.788831	-385.833614	32.834	
C	 0.1533885219	 1.5065291315	 0.1086274434	-0.366315
C	-0.1615215392	 0.032551104	-0.2057851089	-0.339872
C	 0.5874852796	-0.4873532155	-1.3429499259	 0.433515
C	 1.2088876808	-0.9022478147	-2.2889145096	-0.432277
C	 1.9616001104	-1.4018047563	-3.39651423	 0.355153
C	 3.3233769895	-0.9085347564	-3.9733384802	-0.248868
C	 2.7201921817	-1.9566392872	-4.9336325553	 0.019594
C	 2.3792599722	-2.8656995727	-3.7327425344	-0.249158
O	 1.4011741048	-1.3020199864	-4.7840907779	-0.340159
H	 1.2129962213	 1.6361494263	 0.3446516602	 0.129171
H	-0.0825772835	 2.1447086613	-0.746942233	 0.133313
H	-0.4353551329	 1.8456624583	 0.9659530855	 0.116796
H	 0.0480903117	-0.5869191459	 0.675828607	 0.133493
H	-1.2349394684	-0.0817725462	-0.4043212423	 0.137537
H	 3.3155427753	 0.1183876191	-4.3390142649	 0.112689
H	 4.230201748	-1.1656488834	-3.4203739113	 0.096886
H	 3.0294421954	-2.229609695	-5.9410837615	 0.09853
H	 3.199170285	-3.3029200973	-3.1575042122	 0.096947
H	 1.5454371365	-3.5505299338	-3.8879201184	 0.113025
