15
gdb 129363	6.41716	0.77087	0.69929	3.2318	69.6	-0.2645	-0.0118	0.2526	1514.7553	0.11432	-450.11815	-450.109842	-450.108898	-450.154207	27.906	
N	-0.0180254803	 1.2382828484	 0.4066960156	-0.435087
C	-0.0547515352	 0.0293775716	 0.0511152084	 0.138946
O	-1.1227911024	-0.7314980231	 0.3674442796	-0.185055
C	-1.0441448717	-2.1139183659	 0.0238378834	-0.187698
C	-2.4311733089	-2.6677022558	 0.0307616822	 0.296485
N	-2.667403384	-3.9591762479	 0.2675783696	-0.276444
N	-3.9857881471	-4.0478531239	 0.152655116	-0.07062
N	-4.6363959471	-2.92819016	-0.1260508072	-0.189722
C	-3.6586278858	-2.0257828552	-0.2124550184	-0.11201
H	 0.8401517806	 1.6733843284	 0.0749262025	 0.232094
H	 0.7126778864	-0.5083608026	-0.523464901	 0.08775
H	-0.5862722141	-2.2261005173	-0.9695356902	 0.125739
H	-0.4208051426	-2.6585254036	 0.7432134423	 0.136017
H	-4.4691156225	-4.9207842796	 0.2902899441	 0.2959
H	-3.8640305252	-0.9893211435	-0.4210030868	 0.143706
