18
gdb 30132	3.65608	1.18662	1.01983	1.7485	78.51	-0.1952	0.0232	0.2184	1193.7981	0.148118	-401.941148	-401.933073	-401.932129	-401.974342	30.704	
C	-0.6162699779	 1.4078012826	 0.0160146016	-0.40808
C	-0.2073064589	-0.0440269723	 0.0797633244	 0.01454
C	 1.1184439129	-0.4839964333	-0.443978157	-0.256594
N	 0.845548395	-0.5165396841	 0.988315024	-0.169617
C	 1.522352831	 0.3511223401	 1.8567994196	 0.250004
C	 1.0083751057	 1.0198534077	 2.9312961065	-0.093229
O	 2.001130974	 1.6850341304	 3.593449142	-0.143475
C	 3.156358863	 1.4302341404	 2.9355687305	 0.010408
C	 2.9352741248	 0.622977161	 1.8660724829	-0.276921
H	 0.2493364276	 2.0741102769	 0.0371320156	 0.131199
H	-1.1736725875	 1.5951924734	-0.9076889216	 0.122292
H	-1.2640244256	 1.6762544217	 0.8577255962	 0.123767
H	-1.0341445622	-0.7487506562	 0.0049840017	 0.093942
H	 1.2408736919	-1.452041341	-0.9225953262	 0.116301
H	 1.7796464221	 0.2971444307	-0.8162254502	 0.115366
H	 0.0186352426	 1.108741269	 3.3440257842	 0.128295
H	 4.0413594202	 1.8888908955	 3.3449796758	 0.13311
H	 3.6703770413	 0.2507904073	 1.17014474	 0.108692
