17
gdb 69862	2.73602	1.64672	1.19224	2.0037	79.48	-0.2254	0.0127	0.2381	1050.5023	0.133293	-384.581444	-384.573247	-384.572302	-384.613742	32.308	
C	-0.031814864	 1.554090264	 0.1382337808	-0.504105
C	 0.0175123691	 0.0582585814	 0.0534224162	 0.270734
C	-0.9002594445	-0.8930462216	 0.7682894299	-0.33585
C	 0.5863795652	-0.9676686468	 1.0270033195	-0.146978
C	 1.3224942465	-1.6565812497	-0.1556387205	-0.071885
O	 0.379437747	-2.0759720704	-1.1421788242	-0.285525
C	 0.7760531382	-0.6866397063	-1.1174448835	 0.241178
C	 1.3061093598	-0.08324214	-2.2873721656	 0.177475
C	 1.7400866796	 0.4746788042	-3.2610564247	-0.377196
H	 0.9509257958	 1.9989143117	-0.0525754178	 0.126236
H	-0.7309404188	 1.9705834606	-0.5963408271	 0.129045
H	-0.3601971266	 1.8739668933	 1.1320282714	 0.120376
H	-1.4714812795	-0.4393717691	 1.5727706083	 0.112033
H	-1.4031790927	-1.6928547134	 0.2397772063	 0.137691
H	 1.0363255146	-0.7990540385	 1.9962564958	 0.095629
H	 2.2836869222	-2.1559574613	-0.1337993936	 0.120299
H	 2.1281684283	 0.9543151719	-4.1254165614	 0.190843
