18
gdb 110917	2.57827	1.38333	1.13077	4.682	73.74	-0.2342	0.0264	0.2606	1139.3767	0.147012	-439.050918	-439.042333	-439.041389	-439.084736	31.065	
C	-0.2823062465	 0.796443384	-0.2425332913	-0.238719
O	 0.7446327797	-0.1800347197	-0.2397546615	-0.234765
C	 1.0246135611	-0.6781132933	 1.0208623632	 0.129157
C	 0.1959290492	-1.7593634573	 1.6774337027	-0.160689
C	-0.327301838	-2.7513528755	 0.6253529493	-0.183001
N	 1.0588545372	-2.9547172552	 0.1663952074	-0.040809
C	 1.4547905584	-3.1313484054	-1.1271583325	 0.147156
O	 0.7370689762	-3.5440261738	-2.0107064765	-0.322529
C	 1.6195615451	-2.0412648163	 1.151676583	-0.103839
H	 0.0079509788	 1.6854411139	 0.3365830534	 0.110234
H	-0.4436727527	 1.0856667115	-1.2826733798	 0.138972
H	-1.218351223	 0.3990645989	 0.1732149064	 0.115265
H	 1.4244059594	 0.0532845854	 1.7277160137	 0.095886
H	-0.1466360855	-1.7021296019	 2.7015016974	 0.104397
H	-0.7577172169	-3.6595286318	 1.055409009	 0.124787
H	-0.9909276968	-2.3572029747	-0.1486377607	 0.134535
H	 2.5308622004	-2.8993451227	-1.2636083836	 0.070692
H	 2.543195914	-2.2666363062	 1.6717336604	 0.11327
