16
gdb 124007	3.68001	1.61083	1.14578	1.8494	78.55	-0.1959	-0.0075	0.1885	1012.3994	0.1291	-396.95105	-396.944276	-396.943332	-396.982087	27.153	
C	-0.0222112323	 1.5066300981	 0.0035533339	-0.232963
N	 1.2882933232	 2.1844212568	-0.0543250962	-0.422186
C	 2.2323517565	 1.4757685619	-0.8285333504	 0.166123
C	 3.3959736996	 1.8715526047	-1.4483485815	-0.13636
N	 3.9030443262	 0.7444779598	-2.0279510229	-0.191378
N	 3.1446869442	-0.3526570391	-1.8421478484	-0.323241
C	 2.1270138483	 0.0863244013	-1.1003699563	 0.318982
C	 1.0354059774	-0.6843596723	-0.5417198926	-0.139531
C	 0.0284702466	-0.0111459137	 0.0320496394	-0.099702
H	-0.5574537951	 1.890422333	 0.8770494455	 0.108172
H	-0.6098921507	 1.8224747211	-0.8736412411	 0.120989
H	 1.6401885866	 2.3641200774	 0.8796223359	 0.231141
H	 3.8966655759	 2.8238728191	-1.5144349113	 0.131323
H	 4.7353041607	 0.6684442193	-2.586293846	 0.27342
H	 1.0729729144	-1.7679224368	-0.5710065121	 0.101103
H	-0.8076794815	-0.5328301305	 0.4881790043	 0.094109
