25
gdb 58581	2.31542	1.37995	1.19233	1.3026	87.77	-0.241	0.0752	0.3162	1241.6183	0.228662	-389.513571	-389.503532	-389.502588	-389.547974	38.932	
C	 0.0269841046	 1.548890001	 0.0371619924	-0.401911
C	-0.0117606889	 0.0116315519	 0.0540491274	 0.009895
C	 0.7298108289	-0.5024715341	 1.2973802866	-0.40293
C	-1.4582533381	-0.5465400694	-0.0403239948	 0.421434
C	-2.2032077533	-0.0086506566	-1.2706697096	-0.441064
C	-1.5136431219	-2.1073674947	-0.0168197029	-0.289113
C	-2.1486146284	-2.4524653684	 1.3423517709	-0.211354
C	-2.9569752436	-1.1870430368	 1.636980058	-0.077104
O	-2.1628310273	-0.1200745044	 1.1459508789	-0.29452
H	 1.0519035717	 1.9041088681	 0.1847238901	 0.103702
H	-0.329511142	 1.9660195118	-0.908029262	 0.109336
H	-0.5911681166	 1.9546514982	 0.8438180494	 0.132566
H	 0.5153531304	-0.3551914974	-0.8381867208	 0.065647
H	 0.2229632451	-0.1684722308	 2.2070882359	 0.126583
H	 0.796282827	-1.5939039481	 1.3277938959	 0.106461
H	 1.752802714	-0.1136180474	 1.3162431595	 0.10599
H	-1.6772167677	-0.273899818	-2.1948086707	 0.108903
H	-3.2074469013	-0.4410191279	-1.3226815787	 0.109271
H	-2.3098503236	 1.0767872138	-1.2297694546	 0.124175
H	-2.1443771629	-2.4682823477	-0.8347110215	 0.097013
H	-0.5287482599	-2.5599101663	-0.1500167743	 0.104339
H	-2.7630999886	-3.3561044599	 1.3122636574	 0.096911
H	-1.3803077228	-2.589925278	 2.1090075892	 0.107912
H	-3.9340470053	-1.220233831	 1.1263759423	 0.084473
H	-3.1384150997	-1.0102161078	 2.7012886261	 0.103388
