15
gdb 17750	3.944	2.60392	2.16091	1.1458	62.68	-0.2268	0.0629	0.2896	671.9665	0.119946	-362.565354	-362.559561	-362.558617	-362.594793	24.044	
O	-0.0996454163	 1.3668472641	 0.0533167829	-0.47675
C	-0.0031524013	-0.0143617749	 0.0624825115	 0.386565
C	 0.5112929818	-0.8578006257	 1.2616408694	-0.305678
C	-0.331047913	-1.9605164154	 0.6033519786	 0.007318
C	-1.2967213641	-0.9131905044	-0.0299200438	-0.123961
C	-0.8630520112	-1.4130998095	-1.4305916829	-0.048485
C	 0.4553035738	-0.7767345318	-1.2087023041	-0.129905
N	 0.2412980358	-2.2009927824	-0.7962846446	-0.150881
H	 0.779667706	 1.7365861547	-0.086476221	 0.283549
H	 1.5858918103	-1.020939263	 1.385329879	 0.099157
H	 0.0588873069	-0.5178375213	 2.1982810806	 0.109207
H	-0.6253458433	-2.8784274255	 1.1071415188	 0.08124
H	-2.2704161751	-0.6070162581	 0.3413545897	 0.081352
H	-1.3822659862	-1.7319697018	-2.3258259456	 0.097124
H	 1.2676151658	-0.5552583549	-1.8916430484	 0.090149
