15
gdb 23091	2.37929	1.4671	0.99822	1.9976	79.03	-0.1965	-0.0202	0.1763	1152.3317	0.112056	-416.73353	-416.72519	-416.724246	-416.766578	31.382	
O	-0.1123931333	 1.37259749	 0.0815596202	-0.396461
N	 0.0261362968	-0.0295989105	 0.0756109925	-0.253048
C	-1.1178122828	-0.5956367332	 0.0008873401	 0.392864
C	-2.4700039595	-0.0766840221	-0.0575364986	-0.237781
C	-3.3162912673	-1.1266145869	 0.0023085142	-0.001264
N	-2.6835368335	-2.3479720165	 0.1809904054	-0.308377
C	-1.2236786738	-2.1318996635	 0.0105589387	-0.227774
C	-0.7226635851	-2.759352341	-1.2087954266	 0.358356
C	-0.3329973834	-3.3023508948	-2.2071923182	-0.478698
H	 0.8035142076	 1.6627757575	 0.1398301744	 0.304582
H	-2.7287020257	 0.9677146637	-0.094084786	 0.124373
H	-4.3987178693	-1.1060325219	-0.0267964399	 0.130642
H	-3.062594074	-3.145667331	-0.3104732134	 0.25029
H	-0.6869951737	-2.5384594355	 0.8745731451	 0.137225
H	 0.0261329871	-3.7660396145	-3.092694458	 0.20507
