21
gdb 101472	3.73148	0.93958	0.86758	2.1628	74.95	-0.2523	0.0797	0.3319	1407.598	0.181943	-461.359879	-461.35006	-461.349116	-461.395353	34.974	
C	 0.042657197	 1.5849153217	 0.1300126002	-0.399751
C	-0.0235762629	 0.0627311278	-0.0250513728	-0.004086
C	-1.4626794378	-0.4558437358	-0.0234702778	-0.083358
O	-2.018068889	-0.1955091654	 1.2585381947	-0.423583
C	 0.7014499943	-0.42816016	-1.2742535904	 0.222606
O	 0.1247508523	 0.1178830938	-2.4402184778	-0.25545
C	 1.1529108091	 0.0789728693	-3.415519993	-0.107674
C	 2.4192568511	 0.3687619832	-2.5914318386	-0.089767
O	 2.0640157373	-0.0235115004	-1.2688506744	-0.277177
H	 1.0794397538	 1.9189070609	 0.212449053	 0.120384
H	-0.4089005033	 2.0793902977	-0.7353054194	 0.117188
H	-0.5007945221	 1.8889730504	 1.0267494357	 0.126716
H	 0.486979576	-0.4078239135	 0.8250179079	 0.094678
H	-2.0339560138	 0.0455376805	-0.8186577947	 0.101437
H	-1.4708904223	-1.5366175245	-0.2422499842	 0.080215
H	-2.9540165513	-0.4124653317	 1.2288378361	 0.286192
H	 0.6650010586	-1.533509384	-1.331421417	 0.058286
H	 1.2048348926	-0.9131906345	-3.8892314328	 0.099416
H	 0.9390009097	 0.8282332448	-4.180502657	 0.118956
H	 3.2860976709	-0.205515823	-2.9373059635	 0.105906
H	 2.6769849797	 1.4348390927	-2.5968982041	 0.108865
