16
gdb 7210	4.08744	1.07177	0.89544	4.3638	72.43	-0.264	-0.0605	0.2034	1286.6438	0.12693	-383.737045	-383.727437	-383.726493	-383.773716	32.387	
C	 0.0077904097	 1.3542674638	 0.1110783893	-0.505945
C	 0.0333392073	-0.0934939461	 0.0040464921	 0.14383
C	 0.0364787897	-1.2974821778	-0.0854488887	 0.01858
C	 0.0634586292	-2.7310732872	-0.2042200137	 0.188796
O	-0.9252048481	-3.3899079144	-0.473862029	-0.3253
C	 1.4081752851	-3.4342138509	 0.0040826938	 0.050556
C	 1.9770378832	-3.167148314	 1.4044364442	-0.399171
O	 1.2511500517	-4.8087114189	-0.2160194043	-0.438429
H	 1.0092018995	 1.7814822537	-0.0032751444	 0.16232
H	-0.6428128119	 1.7918559351	-0.6532755752	 0.167607
H	-0.3785112896	 1.6580797226	 1.0902698416	 0.168247
H	 2.1007305959	-3.0055070856	-0.7414052119	 0.093474
H	 2.1558256712	-2.1003559403	 1.5635192064	 0.120749
H	 1.2867402981	-3.5328585758	 2.170354752	 0.127452
H	 2.9229822087	-3.7034229532	 1.5113562477	 0.134656
H	 0.3125671402	-4.9273996508	-0.4368726798	 0.292577
