19
gdb 109852	2.02901	1.60817	1.34222	3.4968	71.65	-0.245	-0.0273	0.2178	1067.5572	0.158756	-460.143272	-460.134385	-460.133441	-460.17678	33.419	
O	 0.5261455795	-0.4325423125	-1.244030476	-0.434086
C	-0.0563887349	 0.1207484465	-0.0675314094	-0.105255
C	-1.4492974839	-0.3930355541	 0.2914280619	-0.100779
C	-2.2835362303	-1.2529951674	-0.6255294256	 0.087173
O	-1.7708788165	-1.7216442733	-1.8341122911	-0.424432
C	-1.7660898181	-1.8350315321	 0.6759071298	-0.087465
C	-0.678761446	-2.9114438875	 0.7186167629	-0.301901
C	-0.1964987747	-3.4563014141	-0.6136625464	 0.163018
O	 0.8892509249	-3.195694866	-1.0866378291	-0.278142
H	 0.9479109166	-1.283869291	-1.0368409254	 0.309713
H	 0.6218966017	 0.0011772649	 0.7901697471	 0.106201
H	-0.1357510544	 1.1964631009	-0.2576401974	 0.120516
H	-2.0040938963	 0.3495969045	 0.8603768561	 0.094383
H	-3.3499786111	-1.047493898	-0.6861207291	 0.100274
H	-0.9614586287	-1.2126063812	-2.0168432656	 0.307315
H	-2.4980834625	-1.9382765039	 1.4711681008	 0.091999
H	 0.205001027	-2.5556767996	 1.2616451531	 0.118704
H	-1.0796137452	-3.7690890186	 1.273020027	 0.12222
H	-0.8665658669	-4.1837397974	-1.1088092338	 0.110545
