17
gdb 59629	2.86688	1.29943	1.17185	2.5155	64.24	-0.2654	0.0027	0.2682	1112.8984	0.135025	-496.139197	-496.13057	-496.129626	-496.172829	31.542	
C	 0.1344478216	 1.4238065166	 0.0681560897	-0.427617
C	-0.1251404488	-0.0799774451	 0.0838027574	 0.100882
O	 0.3000113197	-0.6929510878	 1.2927309024	-0.437086
C	-1.6034959962	-0.4159091331	-0.1721442196	 0.215953
O	-1.8106515771	-1.802733531	-0.3387838814	-0.262915
C	-2.2779569803	-2.3278396426	 0.887622739	-0.217788
C	-2.731778918	-1.1131547386	 1.6818546661	 0.390561
O	-3.2899382144	-1.0571640764	 2.7346568424	-0.322046
O	-2.381067044	-0.0114536781	 0.9557622022	-0.235398
H	 1.1895716814	 1.6224067486	 0.271522358	 0.134831
H	-0.1174763607	 1.8596236353	-0.9038793958	 0.126019
H	-0.4718512292	 1.9275612529	 0.829228829	 0.134079
H	 0.4446396704	-0.5720658239	-0.7124361847	 0.106851
H	 0.001804304	-0.1376919111	 2.0222385925	 0.294792
H	-1.984739517	 0.1023222668	-1.0593278165	 0.105481
H	-3.1161357226	-3.0084297206	 0.7103001602	 0.143263
H	-1.4914746987	-2.8543699719	 1.440540859	 0.150138
