21
gdb 39080	3.35424	1.65525	1.42347	0.1199	86.36	-0.2294	0.0199	0.2493	995.5701	0.186938	-349.94696	-349.940345	-349.939401	-349.977377	29.16	
C	-0.0888926357	 1.5986322255	 0.2523547151	-0.264322
C	 1.4332796776	 1.4430960695	 0.0206155487	-0.056939
C	 1.8251700574	 0.6124240915	 1.2734601224	-0.206756
C	 0.6532246903	-0.4464379809	 1.2873606948	-0.311936
C	-0.0696583294	 0.0354722812	 0.0272318403	 0.38792
C	-1.1459273531	-0.599097862	-0.7930891872	-0.238326
C	-0.9028040932	-0.3826227601	-2.0917136572	-0.053153
C	 0.3791385429	 0.4143660217	-2.3305115148	-0.34526
C	 1.1019842194	 0.2895518751	-0.9700561388	 0.026922
H	-0.4231436677	 1.9703398549	 1.2258171662	 0.083184
H	-0.6104284977	 2.1283790561	-0.5451194351	 0.09888
H	 2.0792648474	 2.2863362434	-0.2294329184	 0.052755
H	 2.8058136939	 0.1387605319	 1.1689745375	 0.09462
H	 1.843989767	 1.2266572129	 2.1783266596	 0.093745
H	 1.0186006862	-1.4734731543	 1.1949164463	 0.096281
H	 0.0441315607	-0.382787229	 2.1940779465	 0.092148
H	-2.0221543599	-1.0995308284	-0.3960812256	 0.090211
H	-1.555527137	-0.6844066398	-2.9047924337	 0.089833
H	 0.9763826773	 0.0133139587	-3.1561512319	 0.100752
H	 0.1392762001	 1.4505800301	-2.6046567513	 0.109772
H	 1.8521720033	-0.5079857379	-1.0203665634	 0.059668
