18
gdb 121069	2.71244	1.21391	1.08284	3.2061	69.88	-0.2642	0.0284	0.2926	1208.8573	0.147188	-476.220893	-476.212015	-476.211071	-476.255431	31.407	
C	-0.1989390768	 0.9924998388	-0.2934147165	-0.226876
O	-0.0504067162	-0.3885805427	-0.0528025727	-0.235784
C	 0.7145998526	-0.6757318679	 1.0883038471	-0.087154
C	 0.8330783946	-2.1893381809	 1.2286740997	 0.194097
O	-0.4153966585	-2.8269483315	 1.341814681	-0.263411
C	-0.766773455	-3.3160757607	 0.0531726894	-0.163253
C	 0.5483981066	-3.3760405458	-0.6906684617	 0.395873
N	 0.7508401026	-3.9181747163	-1.8081819725	-0.539812
O	 1.4803297071	-2.7455087598	 0.0839830615	-0.238143
H	 0.7741327615	 1.4833595679	-0.4475741678	 0.110977
H	-0.7985252132	 1.1014045075	-1.1996174217	 0.135663
H	-0.7132445745	 1.4964476495	 0.5392018829	 0.110281
H	 1.7268616928	-0.2439365554	 1.014957826	 0.098523
H	 0.2418675924	-0.2789795517	 2.0021061762	 0.100772
H	 1.4328698157	-2.4299345426	 2.1144727056	 0.101989
H	-1.2207860745	-4.3045179126	 0.1536012852	 0.139136
H	-1.4628339541	-2.6415470593	-0.4574129826	 0.140811
H	 1.722794967	-3.8066042665	-2.098918349	 0.226309
