17
gdb 51833	2.80891	1.24697	1.00393	2.9493	72.12	-0.2615	0.	0.2615	1200.7777	0.137104	-455.157436	-455.149077	-455.148133	-455.191273	30.093	
N	-0.6327163222	 1.2569905562	-0.269010722	-0.439605
C	-0.3285592376	 0.033427137	-0.2465833178	 0.117648
O	-1.2547081724	-0.8659520172	 0.1717289278	-0.211688
C	-0.8585181653	-2.2429023978	 0.1620049919	 0.018195
C	-2.0072565639	-3.0518677287	 0.7545654135	-0.260072
C	-2.8954702075	-3.2832302564	-0.4750236394	-0.084332
O	-1.9798498613	-3.3558608904	-1.5881342122	-0.239266
C	-0.7974338091	-2.7671268653	-1.2691113413	 0.420757
N	 0.201554835	-2.6471802528	-2.0319163349	-0.54031
H	 0.1643774804	 1.8028943033	-0.5903951844	 0.231471
H	 0.6245866531	-0.4195609432	-0.5376129949	 0.123321
H	 0.0989582322	-2.3688871517	 0.6730601334	 0.111381
H	-1.6280653492	-4.0040686126	 1.1363630856	 0.124236
H	-2.5118741869	-2.5181802429	 1.5605756135	 0.135789
H	-3.4582281349	-4.2179911096	-0.4476403341	 0.126035
H	-3.5857582896	-2.4501423718	-0.6414171058	 0.137527
H	 0.0048394492	-3.0334401661	-2.9573356889	 0.228915
