11
gdb 3752	4.22483	3.47878	1.93127	5.2127	47.81	-0.2562	-0.0109	0.2452	608.0715	0.079273	-376.591176	-376.585148	-376.584204	-376.621335	20.711	
C	-0.0064764843	 1.4524495481	-0.0020962486	-0.350858
N	 0.0136690961	 0.0034151249	-0.0366298939	-0.136528
C	 0.063204569	-0.8398356786	-1.1084264781	 0.072463
N	 0.0682509444	-2.0866799528	-0.7791749536	-0.12605
O	 0.0180083621	-2.080154873	 0.6378897461	-0.234206
C	-0.0159018827	-0.7943636699	 1.1035858233	 0.5194
O	-0.0611857536	-0.4602657189	 2.2544789067	-0.397263
H	 0.8992591012	 1.8685491001	-0.4520546756	 0.15014
H	-0.8848400976	 1.8451472673	-0.5218662603	 0.150095
H	-0.0513096423	 1.7407300192	 1.049444376	 0.184194
H	 0.0950839077	-0.5055411664	-2.1350956921	 0.168613
