18
gdb 96062	3.16031	1.14009	0.9419	2.7819	68.89	-0.2485	0.0274	0.2759	1238.7181	0.14889	-476.244337	-476.235797	-476.234853	-476.278752	31.249	
O	-0.0147301972	 1.4939267796	 0.3862606995	-0.441743
C	-0.0148427039	 0.1211091177	 0.0116026847	 0.096472
C	 0.7082498474	-0.7243073841	 1.0570376025	-0.123834
O	-0.2300025509	-0.7704565995	 2.1252743091	-0.261408
C	-1.4897859103	-1.0845438492	 1.5189416232	-0.099964
C	-1.4451588761	-0.4857298142	 0.0794986394	-0.001758
N	-2.4410431352	 0.5227353544	-0.2039076787	-0.280305
C	-3.7222456366	 0.2038139528	-0.5078049295	 0.148648
O	-4.1612867909	-0.928835467	-0.5326499099	-0.333584
H	-0.1331197916	 1.5138390452	 1.3455016157	 0.293186
H	 0.4182147478	 0.0708507563	-0.9892086313	 0.099197
H	 0.9330828928	-1.7320680349	 0.6713274826	 0.100933
H	 1.6290435547	-0.2611578164	 1.4182707634	 0.122659
H	-1.6277899587	-2.1729596446	 1.4791943893	 0.112348
H	-2.2827329412	-0.6498392237	 2.1300375567	 0.122439
H	-1.5555553637	-1.2913686012	-0.6511755127	 0.112674
H	-2.1260479169	 1.4820980859	-0.1947655671	 0.256689
H	-4.3342918395	 1.0990145428	-0.7341761869	 0.077352
