23
gdb 77898	1.97609	1.52229	1.3331	1.4258	86.13	-0.2403	0.068	0.3084	1172.9731	0.20438	-388.267848	-388.25779	-388.256845	-388.301795	38.516	
C	 0.0927820938	 1.6727215718	-0.3131850746	-0.428165
C	 0.2525593487	 0.169997069	-0.1598882097	-0.041687
C	 1.5004361879	-0.6378635749	-0.4141032826	-0.142887
C	 2.7562502978	-0.0091430624	 0.1725911067	 0.089455
O	 3.1412811937	 1.2184716981	-0.4220918735	-0.421641
C	 2.0926084777	-0.0043221401	 1.6015708436	-0.073321
C	 2.0308633642	 1.2732012856	 2.4326521908	-0.421409
C	 0.8265516934	-0.626873995	 0.9834224739	 0.317651
C	 0.0479287806	-1.71738379	 1.66795928	-0.493468
H	 1.0249311901	 2.2068375904	-0.1412293575	 0.148047
H	-0.2266149042	 1.9035686683	-1.3358827646	 0.108519
H	-0.6765709553	 2.0584617909	 0.3658919105	 0.103025
H	-0.6114100833	-0.3626598988	-0.5599372826	 0.078443
H	 1.5172624218	-1.4323800889	-1.1523185013	 0.07619
H	 3.5965257781	-0.7155468659	 0.1451219433	 0.067827
H	 3.9550586661	 1.5112655502	 0.0006424116	 0.281201
H	 2.5916642243	-0.7759065815	 2.2011064848	 0.064361
H	 1.5782136738	 2.1067785265	 1.8950023833	 0.12798
H	 1.4479799981	 1.1081623085	 3.345640053	 0.113889
H	 3.0363583203	 1.5822149535	 2.7434144991	 0.10077
H	-0.5496012524	-1.320195174	 2.4981726064	 0.118209
H	-0.643246147	-2.2096470799	 0.9757923338	 0.115898
H	 0.7132053918	-2.4850881516	 2.0813475657	 0.111113
