19
gdb 119756	4.61457	0.80717	0.69723	6.3001	82.39	-0.2108	0.0049	0.2157	1605.9645	0.160149	-419.262274	-419.25301	-419.252066	-419.296775	33.855	
C	-0.0180918063	 1.571892599	-0.085307194	-0.408413
C	 0.0800656179	 0.0543100065	 0.0225836478	-0.108612
N	 0.6253160424	-0.5197073217	-1.1974695726	-0.380985
C	 0.7659498735	-1.8636700219	-1.3511737517	 0.406466
C	 0.3026940787	-2.8827788447	-0.5934086793	-0.373812
C	 0.6825684731	-4.1633040325	-1.2144814438	 0.426107
O	 0.3845273576	-5.2953160775	-0.8943344189	-0.398394
N	 1.5065158163	-3.8351826432	-2.2988306144	-0.345924
C	 1.5086916806	-2.4130281543	-2.5548342234	-0.257918
H	 0.9699265565	 2.023441636	-0.2314149175	 0.120913
H	-0.6566871517	 1.8652679272	-0.9239498566	 0.131975
H	-0.440286372	 1.9914402549	 0.8312687589	 0.132492
H	 0.6908218211	-0.2290641312	 0.8939762896	 0.110458
H	-0.9158268036	-0.3752460072	 0.1844776914	 0.125482
H	 1.2588993049	 0.06711107	-1.7183901903	 0.238606
H	-0.2634743404	-2.8307836591	 0.3228757902	 0.100964
H	 1.606354041	-4.5047247682	-3.0442884694	 0.243757
H	 0.9860815683	-2.1423735739	-3.4843037759	 0.123216
H	 2.5265280523	-2.0000608082	-2.6182413898	 0.113623
