12
gdb 132313	2.08753	1.85392	0.9819	4.098	61.76	-0.2387	-0.0391	0.1996	1061.678	0.077165	-513.991383	-513.983782	-513.982838	-514.023888	27.553	
N	 0.0213415356	 1.3081113239	 0.0074966934	-0.552319
C	-0.050270553	-0.0320596922	 0.0010686057	 0.533484
N	-1.2115078068	-0.6357855351	 0.0039604017	-0.409575
C	-1.1389671316	-1.9752915785	-0.003394675	 0.353251
F	-2.3153535786	-2.5752639762	-0.0002504259	-0.050632
C	-0.0064661057	-2.7339387921	-0.0131759371	-0.438796
C	 1.2590847626	-2.0786680756	-0.0163785744	 0.436706
O	 2.3749424164	-2.5025242901	-0.0243454794	-0.328309
O	 1.1389718409	-0.6220486211	-0.0082206813	-0.254072
H	 0.914670085	 1.7668917497	 0.005252582	 0.286743
H	-0.831650443	 1.8386777324	 0.014706904	 0.288726
H	-0.0336273917	-3.8128556951	-0.0185764837	 0.134794
