21
gdb 62865	2.79058	1.80393	1.4274	1.49	81.7	-0.2401	0.0752	0.3153	998.2125	0.183996	-387.042711	-387.034957	-387.034013	-387.074164	32.741	
C	-0.0644635195	 1.5401263452	-0.0260561813	-0.465491
C	-0.0308837226	 0.0061618088	-0.0174465512	 0.428539
O	-1.3806612084	-0.4160493974	-0.1309969657	-0.479674
C	 1.0932058239	-0.6401770876	-0.9045598982	-0.109796
C	 2.0576110688	-0.2570760553	 0.2808282503	-0.227849
C	 0.7899870639	-0.6442330925	 1.1333366479	-0.079834
C	 0.7984835351	-2.1637605172	 0.8580229725	-0.038374
C	-0.1842164219	-2.8504845442	-0.0614769125	-0.308987
C	 1.024071823	-2.1594813393	-0.6508778674	-0.03779
H	 0.9008442284	 2.0287766044	 0.0981719114	 0.124297
H	-0.479521117	 1.8892449199	-0.9812183443	 0.104875
H	-0.7302306938	 1.8851146444	 0.771067005	 0.126548
H	-1.7966298617	 0.1102207517	-0.8213978683	 0.273567
H	 1.2688474515	-0.3013542933	-1.9274179819	 0.051073
H	 2.9232690415	-0.9089208759	 0.4090289796	 0.094746
H	 2.3703438439	 0.7849568114	 0.3308399209	 0.090529
H	 0.6587732333	-0.3166090803	 2.1657842365	 0.058014
H	 1.4075573692	-2.7680134042	 1.52191845	 0.081181
H	-0.0994728082	-3.934669387	-0.0523124731	 0.093403
H	-1.183089729	-2.4765812442	-0.2051737807	 0.140802
H	 1.8011751696	-2.7616271574	-1.1098193895	 0.080221
