17
gdb 124321	4.21394	1.09159	0.87636	1.9355	78.8	-0.2498	-0.0387	0.2111	1307.6949	0.135783	-418.069975	-418.061172	-418.060227	-418.104064	31.281	
C	-0.0929037468	 1.5089355535	 0.0224874208	-0.484574
C	 0.055453457	 0.0098807658	-0.0184755366	 0.429055
O	 1.1048984333	-0.583560595	-0.070376161	-0.315802
N	-1.1559633267	-0.7185610997	 0.0078200379	-0.033841
C	-1.2752899813	-2.0864204133	-0.0202946758	-0.093295
C	-2.6125835189	-2.3780357212	 0.0209802241	 0.163715
C	-3.271437911	-3.7221125321	 0.0126670457	-0.503877
C	-3.2387852142	-1.0951745752	 0.073950014	-0.052461
N	-2.3700878203	-0.1034028953	 0.066239439	-0.259783
H	 0.9031963918	 1.9493230015	-0.0035803533	 0.143202
H	-0.6888381368	 1.8583378448	-0.8241894666	 0.161322
H	-0.6245262022	 1.8167606168	 0.9262202356	 0.16131
H	-0.3960072014	-2.7067808992	-0.0666379083	 0.161042
H	-3.8788210981	-3.8776042484	 0.9111976477	 0.135478
H	-3.9373080925	-3.8381116856	-0.8496852644	 0.135522
H	-2.5298912821	-4.5238476094	-0.0299777385	 0.132077
H	-4.2975735097	-0.877471738	 0.1173000295	 0.12091
