21
gdb 110369	4.36414	1.02287	0.99379	1.2959	82.59	-0.248	0.0765	0.3245	1281.6008	0.184978	-387.042212	-387.034474	-387.03353	-387.074532	31.362	
O	 0.0014427987	 1.2642624099	-0.5477097457	-0.421062
C	-0.0201615329	-0.0153663422	 0.0725530897	-0.121231
C	-1.4459899019	-0.5031066196	 0.1007487808	-0.028412
C	-1.9671903977	-1.1961163385	-1.1351529201	-0.019394
C	-1.6650648394	-1.9982494865	 0.121153536	-0.053394
C	-3.0635080676	-2.5820434621	 0.4083125338	-0.05006
C	-3.4640385422	-3.0520590439	-1.0362088633	-0.205897
C	-3.4706095869	-1.5019606167	-1.290757104	-0.048357
C	-4.0385932642	-1.4010383167	 0.151214889	-0.231933
H	 0.8964280666	 1.6107072738	-0.4836016028	 0.284232
H	 0.6087059202	-0.734710226	-0.4780095094	 0.078462
H	 0.3708670718	 0.0381054435	 1.1014911159	 0.085437
H	-2.0968807346	 0.1514137111	 0.6696618347	 0.087623
H	-1.3349939002	-1.238693591	-2.0152452179	 0.084193
H	-0.8074878986	-2.6593247468	 0.1914382961	 0.07886
H	-3.1681356156	-3.2303855103	 1.2788824079	 0.057408
H	-2.7375900394	-3.652274334	-1.591658223	 0.085528
H	-4.457652445	-3.5068333064	-1.086555816	 0.088655
H	-3.9876824802	-1.0562753344	-2.1407794662	 0.060029
H	-5.0787083288	-1.7310984159	 0.1914989336	 0.093145
H	-3.9365335222	-0.4739330474	 0.715939591	 0.096166
