14
gdb 11209	3.63005	1.62956	1.33752	2.3105	57.45	-0.2549	-0.0478	0.2071	901.0728	0.105583	-419.700088	-419.692741	-419.691796	-419.732697	25.858	
O	-0.2364506288	 0.4414233189	 1.0380701909	-0.225416
C	 0.4726093156	 0.7613267139	 0.1210385184	 0.132448
C	 1.1598171106	 2.1229594136	-0.0097997198	 0.007078
C	 1.4136281013	 2.8059267103	 1.3322588859	-0.365236
C	 2.8904184257	 2.5060188465	 1.6017020206	 0.37914
O	 3.5127889059	 2.7487776435	 2.5984044916	-0.288506
C	 3.4340319014	 1.8231938234	 0.3425947666	-0.189616
O	 2.4314127891	 1.950177786	-0.6514547629	-0.262701
H	 0.6910207068	 0.0791084989	-0.729808869	 0.10027
H	 0.5449943651	 2.7234891917	-0.6919905587	 0.121361
H	 1.2717321351	 3.889413172	 1.2866546099	 0.145651
H	 0.7806047651	 2.4074100307	 2.1285105188	 0.167414
H	 4.3541074072	 2.3003059852	-0.006392169	 0.146858
H	 3.6590517799	 0.7698438455	 0.5749585867	 0.131256
