15
gdb 90060	4.1708	1.3415	1.23901	1.3785	67.16	-0.2598	-0.0206	0.2392	990.1047	0.111392	-457.645345	-457.638212	-457.637267	-457.676877	28.114	
O	 0.3050648	 1.3219189019	-0.3606896531	-0.418119
C	 0.0779806349	-0.0099278322	-0.0362753152	 0.118807
C	 0.1812593055	-0.4200448217	 1.4964434892	-0.368696
C	-1.3428513303	-0.4814089829	 1.4725709742	 0.19707
O	-1.8684145413	 0.9216034268	 1.3301824533	-0.336337
C	-2.6637013611	 0.1911511946	 0.3451400683	-0.093043
C	-1.418335277	-0.5829762834	-0.0884815758	-0.082342
C	-2.8442601416	-0.9257765245	 1.4982032144	 0.387488
O	-3.6138199053	-1.6724574897	 1.9863927772	-0.279489
H	-0.3240291084	 1.8318685348	 0.1655905329	 0.291842
H	 0.7270495181	-0.6112720462	-0.6758128857	 0.106651
H	 0.6438194991	-1.4005507344	 1.628515178	 0.127556
H	 0.6268559268	 0.3068446087	 2.1777386923	 0.13143
H	-3.4278123392	 0.7363005885	-0.2083904928	 0.11573
H	-1.5376289603	-1.5457382903	-0.5882685273	 0.10145
