19
gdb 89118	4.1394	0.61837	0.58638	4.0594	74.19	-0.2745	0.0081	0.2826	1881.449	0.156639	-460.166342	-460.156368	-460.155424	-460.203459	34.061	
C	 0.579504675	 1.6169579445	-0.0680945531	-0.420402
C	 0.2127745747	 0.1668688526	 0.1128580574	 0.078645
O	 1.2766635177	-0.7669913595	 0.3360947574	-0.264981
C	 0.3049292128	-0.5850252602	 1.3764929544	 0.055248
C	 0.8057427949	-0.026170349	 2.6865794612	-0.236311
C	 1.6866726489	-1.0449727769	 3.4082131924	-0.079634
O	 2.0827430746	-0.5402555807	 4.6888317013	-0.176821
C	 3.3755418937	-0.2115754656	 4.870482068	 0.167943
O	 3.7892146647	 0.2447251663	 5.8930022173	-0.27352
H	 1.3257125785	 1.9469640814	 0.6569064382	 0.130081
H	 0.9919715653	 1.7747133781	-1.0699394057	 0.135177
H	-0.3095259688	 2.249122918	 0.0302355948	 0.127328
H	-0.5304689713	-0.1950619962	-0.6012138269	 0.092596
H	-0.3712144109	-1.437040913	 1.4867549337	 0.092037
H	 1.3805556142	 0.8899739742	 2.5276149657	 0.113284
H	-0.0473031099	 0.2273710832	 3.3267617801	 0.122685
H	 1.1421677088	-1.9764258168	 3.5924934104	 0.125202
H	 2.5683615057	-1.2805712133	 2.8001678711	 0.13145
H	 3.9987323414	-0.4165728171	 3.9773015823	 0.079991
