25
gdb 119081	2.06272	1.17805	0.89858	0.96	88.96	-0.2413	0.0791	0.3204	1472.8555	0.227545	-389.481116	-389.470543	-389.469599	-389.516802	39.309	
C	 1.0287455233	 1.3643181927	-0.1447355462	-0.382175
C	 0.727447748	-0.1342791253	-0.0573847818	-0.167029
C	 0.9579493299	-0.7070259464	 1.3455458826	-0.237236
C	 0.666149763	-2.2087203106	 1.4672686445	 0.435051
C	 1.7356052005	-3.1133410171	 0.7995545738	-0.270014
C	 2.3885288909	-3.3285319323	 2.1907306801	-0.218184
C	 1.085875655	-2.8023728246	 2.8514904141	-0.27731
O	-0.633170881	-2.5481145881	 1.0101780156	-0.288549
C	-1.7009063901	-2.0285409152	 1.7716614181	-0.253791
H	 2.0725642837	 1.5769767223	 0.1129887493	 0.111096
H	 0.8513689561	 1.7483237781	-1.1543114095	 0.110781
H	 0.3979214867	 1.937996604	 0.5439291394	 0.110745
H	-0.3083972784	-0.3257162917	-0.3576905137	 0.108756
H	 1.3517041086	-0.6746192041	-0.7798278553	 0.097973
H	 1.9985080455	-0.5345376677	 1.6504134454	 0.094
H	 0.3446014328	-0.1578479812	 2.0728314064	 0.090233
H	 1.2627301257	-4.0219170309	 0.4201626909	 0.110051
H	 2.3474367838	-2.6730835141	 0.0087579809	 0.094182
H	 2.6943764163	-4.3458220513	 2.4423505438	 0.099579
H	 3.2394046807	-2.6638100799	 2.3609257504	 0.10271
H	 1.1834089206	-2.1110217624	 3.6929241487	 0.089993
H	 0.4177473677	-3.6201989456	 3.1343917823	 0.103941
H	-2.6157639322	-2.4892868928	 1.3900603495	 0.124083
H	-1.6046318775	-2.2752735864	 2.8394218311	 0.10567
H	-1.7984361696	-0.9374425794	 1.6780835994	 0.105443
