16
gdb 1527	8.11134	1.31108	1.1531	2.3745	58.97	-0.2478	0.068	0.3158	1038.2987	0.135545	-362.962787	-362.954042	-362.953098	-362.996943	28.771	
C	 0.0088511353	 1.5046167329	-0.132422914	-0.391234
C	 0.0773219518	-0.002748148	 0.0249589524	-0.031405
O	 0.6089458704	-0.5405819906	-1.1965527503	-0.278482
C	 0.7342272568	-1.8931374859	-1.2233212456	 0.520403
O	 0.4334034031	-2.6283889586	-0.3079175235	-0.415168
N	 1.243224402	-2.2806351504	-2.4237015141	-0.356534
C	 1.4907978441	-3.6677236242	-2.7485946437	-0.328258
H	 1.0022650997	 1.9239708404	-0.316091325	 0.126341
H	-0.6405084172	 1.781274432	-0.9680388467	 0.126334
H	-0.3924126724	 1.9556646324	 0.7799917913	 0.121362
H	 0.7235920845	-0.2956196455	 0.8586412893	 0.119006
H	-0.910089187	-0.4376465959	 0.2101780432	 0.119098
H	 1.4470882953	-1.5575450333	-3.0923944139	 0.251125
H	 1.1976164148	-4.262988571	-1.883030877	 0.169779
H	 0.9022262845	-3.9900022276	-3.6154646585	 0.12382
H	 2.5509883542	-3.8493033568	-2.960258774	 0.123812
