17
gdb 72632	2.59237	1.5202	1.21203	1.4899	76.32	-0.216	0.026	0.2421	1065.2826	0.133111	-421.756186	-421.74729	-421.746346	-421.789149	34.29	
O	 0.0695404533	 1.4278148464	 0.0409331335	-0.460156
C	-0.0508557743	 0.0605868369	 0.0809294821	 0.351908
C	 0.7067744967	-0.7740878628	 1.1015774354	-0.289532
C	-0.4750718536	-1.806341746	 1.1082684449	-0.289526
C	-1.2067966186	-0.949105346	 0.0874086423	 0.351903
O	-2.5780228086	-0.8847834416	 0.0557482558	-0.460155
C	-0.3241999367	-0.8010288569	-1.16632943	-0.373528
C	-0.9568431674	-0.0836360794	-2.230106525	 0.239504
C	-1.5330388081	 0.5707444548	-3.064421445	-0.405066
H	-0.2912525893	 1.7430530804	-0.7983874503	 0.289922
H	 1.6879129277	-1.1473263686	 0.7918087788	 0.101902
H	 0.8056018884	-0.2522228871	 2.0555300901	 0.121248
H	-0.2391513714	-2.8304941183	 0.8027459171	 0.101897
H	-0.9993739521	-1.8287061254	 2.0657364709	 0.12125
H	-2.8472133942	-0.4896948728	-0.784161451	 0.289923
H	 0.3641366358	-1.591025489	-1.4704521905	 0.103166
H	-2.0168824378	 1.1198054254	-3.8345008392	 0.20534
