21
gdb 64423	2.41461	1.6235	1.28489	1.9671	77.7	-0.2374	0.0671	0.3045	1081.7108	0.182821	-424.217724	-424.209223	-424.208279	-424.2501	34.414	
C	-0.0196296034	 1.5586256701	-0.0235001719	-0.428664
C	 0.0260750953	 0.0280682664	-0.0217524348	 0.328678
O	-1.3069524316	-0.4951159577	 0.1119159572	-0.47291
C	 0.6561764724	-0.5311315401	-1.3140227314	-0.242586
C	 0.9311283816	-2.0242194587	-1.1595996682	-0.070264
O	 1.9383352059	-2.2499064189	-0.1807987423	-0.265553
C	 1.647803222	-1.7184390603	 1.0809850455	 0.090524
C	 2.2382669837	-0.3731942639	 1.419295488	-0.33084
C	 0.7474736711	-0.5157624781	 1.2035075345	-0.027388
H	 0.9865454076	 1.986219333	-0.0550981019	 0.119226
H	-0.5689232128	 1.9283599836	-0.8985947077	 0.09963
H	-0.5243119348	 1.9218836466	 0.8764731556	 0.12191
H	-1.8354722487	-0.1288551581	-0.6055442474	 0.273778
H	-0.0294651939	-0.3485639052	-2.15136066	 0.082723
H	 1.5945612873	-0.0146759459	-1.5467457643	 0.102353
H	-0.0001583449	-2.5423383661	-0.8906752431	 0.103786
H	 1.3186702726	-2.4582697964	-2.0853083705	 0.101311
H	 1.6021356714	-2.4805708291	 1.8556186011	 0.091598
H	 2.5919781107	-0.1834734929	 2.4268435381	 0.110037
H	 2.8319949213	 0.087689235	 0.6369796744	 0.115805
H	 0.126625557	-0.4691931331	 2.092640789	 0.096846
