13
gdb 21449	6.0486	1.48008	1.18911	2.4804	63.02	-0.2154	0.0023	0.2177	928.1903	0.098744	-390.963176	-390.956532	-390.955588	-390.994266	24.402	
N	 0.2367613393	 1.2682865474	 0.0041055742	-0.464478
C	 0.0552299904	 0.0040144701	 0.0014257303	 0.078868
N	-1.1884486382	-0.5650097319	 0.0112106931	-0.372666
C	-2.3953773421	 0.1149385566	 0.0251413454	 0.406758
C	-2.6817090187	 1.4623097408	 0.0325074055	-0.153351
N	-4.0406662451	 1.4746365026	 0.0456948809	-0.153217
N	-4.5614222023	 0.2417647038	 0.0462932517	-0.115237
N	-3.5584167276	-0.5936515176	 0.0338497371	-0.276123
H	 1.2316129597	 1.4778355421	-0.0045953653	 0.224392
H	 0.84630346	-0.7536237479	-0.0087068194	 0.097523
H	-1.2679446596	-1.5688162998	 0.0086279184	 0.266545
H	-2.0549964902	 2.3328907883	 0.0295004687	 0.177627
H	-4.6598082855	 2.2691051155	 0.0544470793	 0.283359
