15
gdb 74806	2.76526	1.70728	1.19053	1.1641	68.31	-0.2318	-0.0649	0.1669	1000.5644	0.112543	-453.957364	-453.949246	-453.948302	-453.989689	30.992	
N	 0.0237470419	 1.3131283728	-0.1891722274	-0.569488
C	-0.0980219916	-0.0298650639	-0.0471437002	 0.291608
N	-1.1757473791	-0.7278859272	-0.1249094605	-0.29293
C	-0.8148715422	-2.1351722118	 0.0091399725	-0.074179
C	-0.035308172	-2.6889422216	-1.1520014587	-0.33593
C	 0.6736338375	-2.2664357726	 0.151979857	 0.303674
O	 1.3172631847	-3.2076980165	 0.9353046214	-0.462447
C	 1.1510649606	-0.8562052811	 0.1889195158	 0.271004
O	 2.2646553402	-0.449238476	 0.4258918951	-0.347291
H	 0.8891754856	 1.7185755366	 0.1311673355	 0.272786
H	-0.8064757674	 1.8802133287	-0.1301061927	 0.267639
H	-1.5043328605	-2.7633101194	 0.559870413	 0.11667
H	-0.031257085	-3.7645056212	-1.2999460666	 0.133333
H	 0.0488990407	-2.0835206846	-2.0489114677	 0.127868
H	 2.2630321666	-3.0186055121	 0.8769070237	 0.297681
