21
gdb 109665	2.83347	0.9753	0.88755	2.9514	75.46	-0.2405	0.0572	0.2977	1404.6406	0.179896	-461.335058	-461.324261	-461.323317	-461.370897	39.098	
C	-0.1911905135	 1.001265174	-1.9363438354	-0.423286
C	-0.007896482	-0.1854898213	-1.0154200115	-0.087144
C	 1.3432199628	-0.5559167553	-0.400350048	-0.134321
C	 2.6097356004	 0.2163711289	-0.6977816508	-0.081373
O	 3.2412790556	-0.2337163171	-1.8914001114	-0.423747
C	 0.2605654234	 0.0207167662	 0.4639136888	 0.404753
O	 0.4697758611	 1.3289528707	 0.9235798059	-0.47406
C	-0.4370147111	-0.8340862743	 1.4899541098	-0.149037
O	-1.6618105702	-0.1693318485	 1.8048553591	-0.433392
H	 0.3249843579	 1.8853338183	-1.5571053865	 0.137694
H	 0.1731071978	 0.7924216814	-2.9492972485	 0.105039
H	-1.2532671639	 1.2553925454	-2.021407544	 0.12119
H	-0.6390589795	-1.0374601863	-1.2570870736	 0.082139
H	 1.5209931985	-1.6233349523	-0.2870086809	 0.084903
H	 2.4119365777	 1.2943747833	-0.7253347845	 0.10713
H	 3.3414610031	 0.0474073902	 0.0993302854	 0.110846
H	 2.6154229516	-0.1041844588	-2.6110366079	 0.281313
H	-0.3803445018	 1.6054712768	 1.2904778613	 0.289268
H	-0.6190400861	-1.8424058776	 1.0908481133	 0.090838
H	 0.1964926172	-0.9246321665	 2.3844825566	 0.097526
H	-1.977216309	-0.4936220372	 2.6527805528	 0.293719
