20
gdb 123217	11.86505	0.40424	0.39575	4.2476	78.11	-0.2702	0.033	0.3032	2607.9139	0.168751	-440.285106	-440.274182	-440.273238	-440.323029	36.419	
O	-0.1936661564	 1.4540833824	 0.0124335701	-0.418272
C	-0.019565475	 0.0467249115	 0.0024138034	-0.072149
C	-1.404981603	-0.5868013717	 0.0124035625	-0.184566
C	-1.3521405892	-2.1071643967	 0.0030245473	-0.061303
O	-2.6796610379	-2.5999294041	 0.0131098008	-0.24645
C	-2.7526961683	-4.0022690026	 0.0058088508	-0.051398
C	-4.242408129	-4.3677128654	 0.018293909	-0.339662
C	-4.4540553007	-5.8115327204	 0.0120543209	 0.247081
N	-4.6018107013	-6.9573886938	 0.0070134648	-0.301937
H	 0.6754339627	 1.8654426964	 0.006181306	 0.28754
H	 0.5361186393	-0.2807068452	-0.8919578194	 0.087117
H	 0.5536862566	-0.2911595157	 0.8816844425	 0.087114
H	-1.9482714405	-0.2476124372	 0.9005557304	 0.118893
H	-1.9656741204	-0.2373680333	-0.8608356432	 0.118894
H	-0.8202232936	-2.4743230611	-0.8912047399	 0.091693
H	-0.8029190578	-2.4846633138	 0.8823620886	 0.091695
H	-2.2680025005	-4.4242420905	-0.8890478954	 0.10955
H	-2.2506195981	-4.4344039056	 0.8861154594	 0.109552
H	-4.7140021519	-3.934428372	 0.9063848344	 0.163304
H	-4.7312636251	-3.9242800812	-0.8553410031	 0.163301
