15
gdb 50981	2.38786	0.99835	0.7335	3.3174	65.22	-0.2689	-0.0603	0.2086	1440.3651	0.107823	-494.926204	-494.916562	-494.915618	-494.962774	31.503	
O	 0.0881891773	-0.1500923865	-0.0084376305	-0.224897
C	 0.0048879829	 1.0490043806	-0.0479720474	 0.151678
C	 1.2079969975	 1.9756427157	 0.0276997135	-0.306388
C	 1.2510374339	 2.9724531512	-1.1390081776	-0.015336
O	 0.1291325428	 3.8322903028	-1.0120681702	-0.188029
C	-0.1582023939	 4.6575127918	-2.0540153985	 0.187979
O	-1.0435342572	 5.4509318707	-2.0000319619	-0.261488
C	 2.5626302744	 3.7584845591	-1.1399194051	 0.154637
O	 2.6189097181	 4.9541274731	-1.2228972878	-0.219452
H	-0.9733001293	 1.5642555632	-0.1427163368	 0.112122
H	 1.1474827434	 2.550138698	 0.9611465612	 0.153595
H	 2.1136431399	 1.363724127	 0.0464293028	 0.135413
H	 1.2130313294	 2.4188653334	-2.0927615151	 0.12545
H	 0.4856872067	 4.4846147635	-2.9342847429	 0.091138
H	 3.4727113939	 3.1231768863	-1.0732246136	 0.103577
