21
gdb 53532	3.72211	0.76375	0.71914	1.5059	88.27	-0.2409	0.0523	0.2932	1694.7436	0.179354	-387.057951	-387.047168	-387.046224	-387.094651	38.71	
C	-0.0678451683	 1.481644575	-0.2852020981	-0.498107
C	-0.0286451737	 0.0408678363	-0.0739421571	 0.098498
C	 0.0365417583	-1.1503838865	 0.0959897614	 0.019387
C	 0.0481768907	-2.5971625145	 0.3112375341	-0.415916
C	-1.3412340797	-3.1954753604	 0.1073173322	 0.422581
O	-2.3103985093	-2.6226950947	 0.9421549401	-0.472494
C	-1.7825171689	-3.6488162505	-1.2649441149	-0.345116
C	-1.5510097706	-4.657115265	-0.1484115104	-0.045602
C	-0.4303003692	-5.6708026314	-0.2138317307	-0.412363
H	 0.8657166459	 1.8403985784	-0.7325766585	 0.150212
H	-0.88520395	 1.7652852424	-0.9573501985	 0.147664
H	-0.2112495636	 2.0210995918	 0.6575209743	 0.148356
H	 0.7700681624	-3.0688794366	-0.3638165562	 0.123766
H	 0.3814217378	-2.8132427283	 1.3348765499	 0.131526
H	-2.3021612586	-1.6728304293	 0.7655068962	 0.281144
H	-2.805451695	-3.4346729099	-1.5527848642	 0.111355
H	-1.0610285462	-3.6165968892	-2.0760358734	 0.104744
H	-2.4630853407	-5.0265941556	 0.3128698037	 0.098372
H	 0.4549353297	-5.273062157	-0.7196184193	 0.113229
H	-0.1244257933	-5.9977599794	 0.7863078022	 0.120175
H	-0.7479472177	-6.5591106358	-0.7705771226	 0.118587
