18
gdb 110090	2.14099	1.37546	1.12014	4.6045	75.31	-0.253	-0.0483	0.2047	1187.8225	0.145114	-439.086808	-439.077277	-439.076333	-439.1215	33.303	
C	-0.0751445536	 1.385019536	 0.5349153374	-0.386859
C	-0.0283203063	-0.091131958	 0.1165854775	-0.216838
C	-1.4093499122	-0.6515047538	-0.1486989274	-0.012326
C	-1.7525359022	-2.1494346328	-0.0654805108	-0.143056
C	-0.6939685478	-3.1309504817	 0.3362096209	 0.16464
O	 0.104044289	-2.9674398075	 1.2245021844	-0.252894
N	-2.2543261432	-1.1848049181	 0.8790702003	-0.066357
C	-2.1551445653	-1.2092610382	 2.259663311	 0.166345
O	-2.339349117	-2.1852844306	 2.9400850203	-0.29576
H	 0.9369906977	 1.7792069028	 0.6617868518	 0.126604
H	-0.5818468121	 1.9994739626	-0.21706076	 0.119927
H	-0.6045448372	 1.517192334	 1.4838888027	 0.12714
H	 0.5547776953	-0.1873614491	-0.807878357	 0.111082
H	 0.4744052743	-0.6926622904	 0.8764453046	 0.148051
H	-1.9639166087	-0.1174175114	-0.9224069592	 0.110823
H	-2.4810121626	-2.5413203402	-0.7731599077	 0.111757
H	-0.6885625218	-4.0546667889	-0.2815819127	 0.096797
H	-1.9847848261	-0.1963769246	 2.6706118938	 0.090923
