23
gdb 120930	3.17935	0.89528	0.80903	1.7964	86.15	-0.2423	0.088	0.3302	1563.7973	0.204162	-388.269999	-388.260139	-388.259195	-388.304948	36.887	
C	-0.0133113709	 1.590137459	 0.008840509	-0.378824
C	-0.1119555477	 0.064696603	-0.0790786339	-0.165158
C	 0.8324042288	-0.5370667093	-1.126695871	-0.185638
C	 0.7379399871	-2.0546088055	-1.2354245636	-0.053331
C	-0.5679302237	-2.6965351276	-1.8419674193	-0.265009
C	 0.3080517856	-3.3331668885	-2.9253296197	-0.040814
O	 0.9757898027	-2.2593306622	-3.6068660696	-0.290747
C	 1.537189789	-2.7373989158	-2.372127918	 0.405489
C	 2.9668829871	-3.1714344124	-2.3708657774	-0.50594
H	 1.0007404687	 1.9065384062	 0.2779065723	 0.112209
H	-0.259426446	 2.0574286029	-0.9511150997	 0.115664
H	-0.6983383579	 1.9935494198	 0.7612805066	 0.109243
H	 0.1073140597	-0.3744165531	 0.9035988605	 0.089965
H	-1.1454137447	-0.2216181234	-0.3136900478	 0.097985
H	 0.6206761489	-0.1041323796	-2.1117256047	 0.10923
H	 1.8666086603	-0.2566567714	-0.8804037585	 0.08711
H	 0.9721479285	-2.5245275925	-0.2728853505	 0.067785
H	-1.0392611764	-3.4199871846	-1.1725585346	 0.101711
H	-1.3237606223	-2.0018501862	-2.2184126516	 0.106255
H	 0.1543770618	-4.2490393431	-3.4858910318	 0.097192
H	 3.6387409706	-2.305385441	-2.3664799176	 0.130331
H	 3.1900602475	-3.7729276391	-1.4834738789	 0.122055
H	 3.1866636234	-3.7649855458	-3.26237599	 0.133241
