15
gdb 34362	3.09807	1.62089	1.33023	3.6014	68.96	-0.2584	-0.0202	0.2382	952.3758	0.113487	-416.728213	-416.721319	-416.720375	-416.759459	26.987	
N	-0.0851475647	-1.0881164407	-0.1016394276	-0.328708
C	-0.0436231302	 0.065844665	-0.0526867566	 0.235346
C	 0.0251692205	 1.5105784362	 0.0323640528	 0.300313
O	-0.4546830731	 2.1954518066	-1.1456862854	-0.327901
C	 0.8006906496	 2.929008388	-1.2799489223	-0.114714
C	 1.3213706218	 2.3434449919	 0.038982579	-0.070556
N	 0.9648617645	 2.995251134	 1.3598250421	-0.148873
C	-0.3677253709	 3.6288471415	 1.2618978829	-0.254061
C	-0.3173790051	 2.1667364335	 1.3895527486	-0.072248
H	 1.3568149505	 2.5916063099	-2.161419932	 0.129397
H	 0.6490079805	 4.0113183603	-1.3318014263	 0.124643
H	 2.3188645725	 1.9131032146	 0.0775317503	 0.123969
H	-0.6072918382	 4.1917122599	 2.1582073488	 0.138372
H	-0.7143210002	 4.0750631505	 0.3368935873	 0.145228
H	-0.6233940772	 1.6114895889	 2.2694059985	 0.119792
