20
gdb 126634	3.02871	1.07517	0.85305	4.9378	81.63	-0.2431	0.0072	0.2503	1406.2848	0.171359	-399.345993	-399.336568	-399.335624	-399.381148	33.498	
C	 0.0118355075	 1.5572658686	 0.0844297181	-0.381658
C	-0.0386792824	 0.0295949188	 0.0115677929	-0.177968
C	 0.6724234422	-0.5075615522	-1.2364047062	-0.148113
N	 0.6670700495	-1.9595140526	-1.3104714263	 0.002583
N	 1.6687807838	-2.6565742292	-0.7260869368	-0.158903
N	 1.4125309909	-3.9223816391	-0.8856414799	-0.194804
C	 0.24457914	-4.049581057	-1.5695677501	-0.150072
C	-0.2561243875	-2.7980486496	-1.8534796554	 0.309553
C	-1.480069935	-2.3513996058	-2.5790869742	-0.508767
H	 1.0452150387	 1.9190755741	 0.1148006981	 0.125023
H	-0.4753394016	 2.0160567858	-0.783283192	 0.11685
H	-0.4948818108	 1.9233394639	 0.9816029655	 0.124066
H	 0.4375744253	-0.4122318799	 0.8932073558	 0.130677
H	-1.0803277025	-0.3130869952	 0.0120274852	 0.105621
H	 0.2084136233	-0.1145222816	-2.1467690274	 0.118025
H	 1.7216417949	-0.2014609461	-1.2362527722	 0.142613
H	-0.1645597946	-5.0145966458	-1.8239374164	 0.117478
H	-2.1544022224	-1.7737320028	-1.937056303	 0.140789
H	-1.2369250006	-1.7274218023	-3.4468443529	 0.140655
H	-2.0312036486	-3.221804112	-2.9413047928	 0.146351
