16
gdb 67914	2.45767	1.88185	1.34261	2.8552	68.14	-0.2393	-0.0414	0.198	952.7929	0.123064	-437.817366	-437.809932	-437.808988	-437.848984	29.596	
O	-0.0894114673	 1.3692301629	-0.1113747127	-0.480028
C	 0.0011024042	-0.0139171671	-0.0091308108	 0.429477
C	-1.3692402874	-0.7291660669	-0.0363219687	-0.409631
C	-0.907070374	-1.5719833276	 1.174311557	 0.401719
O	-1.4017700397	-2.4665891012	 1.7947141755	-0.290815
C	 0.4304702266	-0.7987473972	 1.2738571347	-0.187434
N	 1.6515395347	-1.3845506378	 0.5656209475	-0.138549
C	 1.2053743553	-2.1667552765	-0.608137764	-0.252983
C	 1.1959584638	-0.6954813718	-0.7141233236	-0.117354
H	 0.782721511	 1.7491840146	 0.0449318726	 0.288898
H	-2.163381107	-0.0330269314	 0.2550554441	 0.150991
H	-1.6764444172	-1.2687384393	-0.935682805	 0.131612
H	 0.7030945592	-0.3458901544	 2.2276697974	 0.105118
H	 2.0328919609	-2.6887922548	-1.0805098628	 0.132268
H	 0.2867061725	-2.7442608762	-0.5731215549	 0.13723
H	 1.8980922546	-0.1514152153	-1.3413769464	 0.099481
