13
gdb 132429	3.22483	1.41993	0.99192	4.3732	65.93	-0.2503	-0.0777	0.1725	1091.4203	0.088061	-497.902522	-497.895017	-497.894073	-497.934786	27.425	
C	 0.0696197349	 1.4797782583	 0.0375498543	-0.471796
C	-0.067936193	-0.0029373096	-0.0077228192	 0.38016
C	-1.1976660626	-0.7103330583	-0.214064656	-0.156066
N	-1.2044588976	-2.0909072445	-0.2355401896	-0.274315
C	-0.095392233	-2.6844132216	-0.0519898032	 0.205388
F	-0.0440747139	-4.0019398053	-0.0626012036	-0.036165
C	 1.208497516	-2.0323283217	 0.1836788009	 0.316298
O	 2.263728085	-2.5671864745	 0.3586939819	-0.313848
O	 1.1131575825	-0.653008627	 0.1876391282	-0.238678
H	 0.7682204043	 1.8257602556	-0.7316931338	 0.156032
H	-0.8983340264	 1.9572615816	-0.123583631	 0.145492
H	 0.4666037839	 1.8008572889	 1.0064656013	 0.156023
H	-2.1464265902	-0.2151893016	-0.3713434302	 0.131476
