24
gdb 103994	2.49608	1.30175	1.17233	1.7147	88.32	-0.2236	0.0776	0.3012	1246.3442	0.216323	-368.381683	-368.371809	-368.370865	-368.415695	38.393	
C	 0.0996003889	 1.5703946837	 0.1960171735	-0.390574
C	-0.1066956587	 0.0699448347	-0.0491872262	-0.241043
C	 0.6534851537	-0.4968411093	-1.2582367328	 0.279655
C	 0.1659467608	 0.1256939118	-2.5698915255	-0.458689
C	 2.2129235509	-0.5319832177	-1.2033587439	-0.212811
N	 2.2633174352	-2.0173877387	-1.4418068434	-0.167903
C	 1.5817173229	-2.5979424186	-0.268298306	-0.29359
C	 0.7408040752	-2.0412037628	-1.3500510598	 0.309463
C	-0.1123688702	-2.9204600817	-2.2205674134	-0.497566
H	 1.162711122	 1.8131047602	 0.3037879106	 0.117341
H	-0.2986020087	 2.180743144	-0.6197742876	 0.119094
H	-0.404503008	 1.8842576351	 1.1152078314	 0.11369
H	 0.1934358048	-0.475079373	 0.8523174173	 0.092793
H	-1.1782143896	-0.1337761321	-0.1816906726	 0.092518
H	 0.3556306601	 1.2032694077	-2.584790784	 0.117037
H	 0.6833342764	-0.3091532833	-3.4304820467	 0.124181
H	-0.9104672715	-0.0263758711	-2.7097719602	 0.111296
H	 2.6972986871	 0.003657933	-2.0230650293	 0.103662
H	 2.6812603243	-0.2315112958	-0.258890936	 0.09475
H	 1.6663703354	-3.6799127634	-0.2184138658	 0.113362
H	 1.6808215463	-2.1000514028	 0.6938379214	 0.10479
H	-1.1069508651	-3.0586332065	-1.779491569	 0.119096
H	-0.2446968098	-2.5033033251	-3.2231313469	 0.121711
H	 0.3472166675	-3.907491048	-2.3267386748	 0.127739
