23
gdb 86110	2.35898	1.48969	1.02332	0.2569	92.05	-0.2127	0.0294	0.2421	1266.8962	0.206915	-351.173867	-351.164971	-351.164027	-351.206886	35.428	
C	 0.14854226	 1.5943999283	 0.0028773576	-0.390654
C	 0.0366288133	 0.0647687442	 0.0302361538	 0.010801
C	 0.507194299	-0.5510640259	-1.304796493	-0.316463
C	 0.6776775087	-2.0547454951	-1.2716979521	 0.293855
C	 0.5193293343	-2.7814910741	-2.5781276866	-0.478486
C	 0.990583316	-2.6791889538	-0.1312631165	-0.13605
C	 1.1930312553	-1.9744511533	 1.1573579467	-0.08181
C	 2.2184191317	-0.8482471388	 1.239834322	-0.294543
C	 0.7478258467	-0.5317155562	 1.234172819	-0.011898
H	 1.1957501086	 1.9060110206	-0.0809994979	 0.114097
H	-0.3980444971	 2.0179232585	-0.8468126385	 0.107272
H	-0.2580550126	 2.0389451776	 0.9175013065	 0.107944
H	-1.0259392362	-0.1953324353	 0.1426613173	 0.073515
H	-0.2076927885	-0.2760600235	-2.090955098	 0.09492
H	 1.4560428645	-0.0827910527	-1.6089077043	 0.104444
H	 1.2227554345	-2.4045080585	-3.3330109896	 0.118628
H	 0.6893281876	-3.8561681916	-2.4673334157	 0.117046
H	-0.4860534903	-2.6352768343	-2.9952456887	 0.11802
H	 1.1251860727	-3.7585344784	-0.1302327486	 0.073515
H	 1.0798041279	-2.582444095	 2.0493309462	 0.077965
H	 2.7640119004	-0.7218914174	 2.1689834881	 0.106228
H	 2.8047725353	-0.6540883205	 0.3483574678	 0.113477
H	 0.3347859683	-0.2121480349	 2.1877898047	 0.078177
