18
gdb 46723	3.11438	1.69937	1.27164	3.9648	76.29	-0.234	0.0289	0.2629	994.2888	0.151746	-401.948752	-401.942043	-401.941098	-401.97985	27.358	
O	-0.0334488993	-0.0739621674	 0.0272442704	-0.381206
C	-0.0322102142	 1.1438209737	 0.0192610559	 0.370708
N	-1.1738127806	 1.8902300627	 0.0620634957	-0.321868
C	-1.1803278398	 3.3411505025	 0.0532998086	-0.202608
C	 0.2389394198	 3.8794734294	-0.0096758871	 0.013648
C	 1.2546392494	 3.2125588646	-0.9894490556	-0.062926
C	 2.3890117277	 3.7861195841	-0.0992946892	-0.238919
C	 1.3335029962	 3.2245803045	 0.8900063496	-0.062924
C	 1.2322911046	 1.9684161616	-0.0391366792	-0.088829
H	-2.0413475754	 1.3770038603	 0.1020025915	 0.24531
H	-1.751336053	 3.7168899588	-0.8083625955	 0.110848
H	-1.677265456	 3.727900652	 0.9550631652	 0.110843
H	 0.2329960343	 4.9736663029	-0.0164220843	 0.071184
H	 1.2040899588	 3.1936482799	-2.0791065685	 0.079533
H	 3.3473645281	 3.2624779056	-0.136158225	 0.099471
H	 2.5215960368	 4.8717435633	-0.1117995019	 0.092728
H	 1.3744254693	 3.2196091527	 1.9802209863	 0.079532
H	 2.1014250733	 1.3102406287	-0.0713928268	 0.085474
