14
gdb 42149	3.57089	0.74319	0.64626	6.0576	84.61	-0.2837	-0.1004	0.1833	1659.7168	0.099692	-399.523571	-399.514784	-399.513839	-399.5588	30.122	
O	 0.0831983445	-0.0187618587	-0.457075818	-0.258726
C	-0.0476705064	 1.1407634706	-0.1309543628	 0.188814
C	 1.1352695427	 1.9704504673	 0.1821862543	 0.219112
N	 2.0645766115	 2.614006532	 0.425808924	-0.322474
C	-1.2856445238	 1.8381611524	-0.0073258109	 0.071738
C	-2.3325470321	 2.4377637549	 0.1000233213	 0.070532
C	-3.562677366	 3.1382975618	 0.2244147745	-0.174652
C	-3.7095288398	 4.2143000802	 1.3021740889	-0.247794
C	-3.6194338603	 4.6263549422	-0.1268137291	-0.247781
H	-4.4511291787	 2.5568686157	 0.0007536601	 0.134293
H	-4.6704507135	 4.2576650906	 1.8011590461	 0.137729
H	-2.8524797079	 4.3848220666	 1.941854466	 0.145736
H	-2.7001519196	 5.0814652054	-0.4740861635	 0.145737
H	-4.5168948205	 4.9599603891	-0.634266831	 0.137735
