19
gdb 120428	5.0599	0.7908	0.72352	3.9827	80.21	-0.2392	-0.0491	0.1901	1577.4215	0.158271	-423.055248	-423.046174	-423.04523	-423.090222	32.725	
C	-0.071549206	 1.5131889934	-0.0199364044	-0.384282
C	 0.1033468277	 0.0054456005	 0.0443016648	-0.042634
O	 0.5967397373	-0.4375112748	-1.2081780813	-0.254104
C	 0.7431938116	-1.8422344118	-1.3241056905	 0.088741
C	 0.8874086655	-2.2366021858	-2.8014578062	-0.364028
C	 2.1145353763	-3.156264444	-2.8640404586	 0.376099
O	 2.4788725105	-3.7982055527	-3.8200651987	-0.324809
C	 2.7574732632	-3.0989833529	-1.5262444743	-0.176905
C	 2.0185339667	-2.3691286932	-0.6856479288	-0.071545
H	 0.885306366	 2.001883813	-0.2235462325	 0.129947
H	-0.7706749322	 1.783670229	-0.8160502976	 0.129681
H	-0.4602498644	 1.8919590615	 0.9299436641	 0.11715
H	 0.7960943586	-0.2620759996	 0.8581537336	 0.088445
H	-0.8577220429	-0.4892714763	 0.2635601694	 0.090421
H	-0.1296804535	-2.3353788048	-0.8641085287	 0.080975
H	 0.0091271394	-2.7268808639	-3.2261735347	 0.128757
H	 1.0849235414	-1.336030304	-3.3910236151	 0.150601
H	 3.6940247898	-3.5991168392	-1.3128983504	 0.11937
H	 2.263715095	-2.1616837043	 0.3502460999	 0.118121
