21
gdb 82374	2.23419	1.95563	1.29374	1.354	80.65	-0.2177	0.0732	0.2909	1053.6016	0.18411	-387.058219	-387.050238	-387.049293	-387.090466	32.325	
C	-0.8588178539	 1.2783104397	 0.004333726	-0.378234
C	-0.0004579387	 0.0060232124	 0.0027853267	-0.030978
C	 0.8325519752	-0.1401772017	-1.2672359876	-0.063584
C	 1.9172480283	 0.8424834473	-1.6804756317	-0.330392
C	 2.2784755528	-0.5399537347	-1.1962381026	 0.111999
O	 2.9463776577	-0.7294538243	 0.0182899612	-0.264129
C	 2.2622672095	-0.5538300685	 1.2258607754	 0.112
C	 1.8944773792	 0.8229916746	 1.7210349026	-0.330392
C	 0.8154893704	-0.1547920112	 1.2820836359	-0.063586
H	-0.2317798669	 2.1748978096	 0.0136698784	 0.115614
H	-1.4945614932	 1.3220309522	-0.8863412595	 0.109238
H	-1.5064291178	 1.3118659887	 0.8868624914	 0.109238
H	-0.6882559212	-0.8500820947	-0.0067264984	 0.078534
H	 0.2729764663	-0.5701958314	-2.0932405975	 0.088075
H	 2.0284577101	 1.0666529706	-2.7361632933	 0.10905
H	 2.1413258452	 1.6766789417	-1.0266524629	 0.118102
H	 2.6551782594	-1.250032993	-1.9260198276	 0.09711
H	 2.6292270374	-1.2722489116	 1.9524376497	 0.09711
H	 1.991537613	 1.0350380408	 2.7806158304	 0.10905
H	 2.1272062945	 1.6646130444	 1.0798730402	 0.118101
H	 0.2449429826	-0.5942133609	 2.095539113	 0.088075
