18
gdb 14862	3.06817	1.47388	1.08588	1.3059	68.81	-0.249	-0.0334	0.2155	1105.3954	0.15221	-384.931165	-384.92251	-384.921565	-384.965517	30.123	
C	-0.0255169113	 1.4753047694	-0.1149969254	-0.387202
C	 0.0258257795	-0.0499521019	 0.0204714619	-0.197842
C	-1.3660285316	-0.6502538701	 0.1192336914	 0.151679
O	-2.145199115	-0.4776762891	-1.0880190143	-0.285616
C	-2.5317086911	-1.862093306	-1.0897167096	-0.089474
C	-1.5786794473	-2.2009210409	 0.0806352076	-0.173173
C	-0.3796351503	-3.0273516429	-0.3025990562	 0.161635
O	 0.1196978736	-3.8687068785	 0.3996871396	-0.253194
H	 0.9796594889	 1.8956887805	-0.2090578867	 0.117023
H	-0.6003043283	 1.7618716108	-1.0002193218	 0.140246
H	-0.5012925939	 1.9339464905	 0.7587675136	 0.116874
H	 0.550115446	-0.4789396215	-0.8403575772	 0.103227
H	 0.5899350388	-0.3369787107	 0.9174446205	 0.109825
H	-1.8951043557	-0.2096942042	 0.9777108257	 0.081958
H	-3.5941039002	-2.0000306883	-0.8543482871	 0.111334
H	-2.3127048072	-2.3481396571	-2.0489368162	 0.10969
H	-2.0300943127	-2.6263523055	 0.977122708	 0.100557
H	 0.0279702578	-2.8142237344	-1.3179251436	 0.082453
