17
gdb 24427	3.4332	1.598	1.13569	2.6063	73.93	-0.1976	0.0183	0.2159	1038.888	0.140443	-418.049173	-418.042351	-418.041406	-418.080346	27.248	
C	 0.0071433561	 1.5292032946	-0.0007912867	-0.210905
C	 1.4583561842	 2.0541139415	 0.0417400421	-0.166053
N	 2.2181589356	 1.6244053916	 1.2321794922	-0.398249
C	 1.8809318157	 0.3298451281	 1.5824983105	 0.330331
C	 0.9376101368	-0.4853610082	 1.0496670423	 0.2011
C	-0.045667767	-0.015675537	 0.0278443024	-0.326669
N	 1.0552744744	-1.7429086614	 1.6392237456	-0.321825
C	 2.0259434425	-1.610669251	 2.4793534349	 0.035827
O	 2.6007703833	-0.3698109045	 2.5051826583	-0.191396
H	-0.5394894824	 1.9276397014	 0.862663595	 0.103336
H	-0.4868139108	 1.9133107343	-0.8989721008	 0.10219
H	 1.9984305923	 1.6949395479	-0.8432789491	 0.120669
H	 1.4762440651	 3.1463678191	 0.0097327115	 0.10906
H	 2.1628281583	 2.2825851846	 2.0015530343	 0.23995
H	-1.0577384998	-0.3574905161	 0.2703218703	 0.117478
H	 0.187705245	-0.4255915533	-0.9641527979	 0.112407
H	 2.429075541	-2.3363125115	 3.167142335	 0.14275
