21
gdb 108938	3.19825	1.04472	0.85603	1.5587	87.44	-0.209	0.0349	0.2439	1404.5685	0.182534	-387.087514	-387.07839	-387.077446	-387.121745	34.437	
O	 0.0150803168	 1.4026641141	 0.2296236954	-0.413813
C	-0.0088638895	 0.0125224126	-0.0428655454	-0.175328
C	-1.4139986219	-0.4903714071	-0.0111132451	 0.290746
C	-2.5173876445	 0.2153273359	 0.2432262135	-0.228853
C	-3.7455298995	-0.6161489634	 0.1542407177	 0.364183
C	-5.0111770923	-0.27344905	 0.9026057411	-0.315588
C	-4.9674005138	-0.1176409148	-0.5956375306	-0.309794
C	-3.2417527307	-2.0627698013	 0.0302348092	-0.305488
C	-1.7383924614	-1.9349219016	-0.335670535	-0.315905
H	 0.931782434	 1.6912945788	 0.2272217855	 0.288178
H	 0.4336911574	-0.2105424841	-1.0313316903	 0.091016
H	 0.5953597027	-0.5500982717	 0.6922433999	 0.091615
H	-2.5344923216	 1.2755832779	 0.4637051273	 0.103935
H	-5.5900097626	-1.0950515215	 1.3136744927	 0.106381
H	-5.0188192011	 0.6236582299	 1.5134304233	 0.109862
H	-4.9404324306	 0.8856259616	-1.0082275065	 0.110325
H	-5.5137059747	-0.8343766374	-1.2008206227	 0.107622
H	-3.3448190719	-2.5729494836	 0.9941460403	 0.103833
H	-3.8043696568	-2.6450360098	-0.7048162633	 0.096994
H	-1.5553841067	-2.1407433742	-1.4002119008	 0.102705
H	-1.1147814113	-2.6453838004	 0.2211685239	 0.097374
