20
gdb 33086	6.30404	0.74688	0.6773	1.4644	84.68	-0.1828	0.0352	0.218	1703.2068	0.170521	-403.179683	-403.170094	-403.16915	-403.214548	34.928	
C	-0.0866455477	 1.5202480711	 0.0277510792	-0.400734
C	-0.0058486161	-0.0004739837	-0.046107752	-0.108601
N	 0.7627016862	-0.4255572888	-1.2062643031	-0.397882
C	 0.8836304075	-1.7954261701	-1.43205176	 0.300958
C	 0.6041760789	-2.8278981871	-0.583600384	-0.11976
O	 0.9318726931	-4.0248149641	-1.1756094453	-0.194155
C	 1.408499836	-3.7474272905	-2.4147255505	 0.39688
C	 1.8220639414	-4.9052507741	-3.2511625967	-0.488257
C	 1.4054080053	-2.4038972293	-2.6278637412	-0.400014
H	 0.9137548207	 1.9608591821	 0.0677838771	 0.129615
H	-0.604161717	 1.9310115977	-0.8473056815	 0.114059
H	-0.6412527159	 1.834457385	 0.9162565559	 0.120888
H	 0.4995587474	-0.3880486334	 0.8478493033	 0.112075
H	-1.0207318434	-0.4363838378	-0.0433367232	 0.089786
H	 0.5128535205	 0.0839455176	-2.0438321713	 0.226149
H	 0.2096294504	-2.8901746323	 0.4147217323	 0.118131
H	 0.9857625858	-5.5908264018	-3.4302333382	 0.13584
H	 2.1900148902	-4.5546880433	-4.2179376114	 0.131714
H	 2.6192226832	-5.4831301904	-2.7696905636	 0.136959
H	 1.7394985835	-1.8949410869	-3.5193478756	 0.096348
