18
gdb 93462	2.84239	1.35938	0.98148	4.3805	73.6	-0.2437	-0.0248	0.2189	1188.2833	0.14779	-439.149931	-439.141217	-439.140272	-439.183951	31.731	
C	-0.0563756727	 1.4824185288	-0.3016281606	-0.348921
N	 0.0292565242	 0.0524262903	-0.0565175868	-0.084104
C	-1.1893373711	-0.6760060618	 0.2802213746	-0.189558
C	-1.2102443291	-2.0537676311	-0.3852907173	-0.30918
C	 0.0820426135	-2.8307785864	-0.1592848516	 0.393256
O	 0.1979758931	-3.9955506491	-0.4483925534	-0.300757
C	 1.2173010153	-2.0194159259	 0.4490319965	-0.424904
C	 1.2584024323	-0.5483391258	 0.0352623197	 0.389553
O	 2.3096423309	 0.0270785391	-0.174953077	-0.3752
H	 0.9413117822	 1.8385421081	-0.5554587727	 0.173238
H	-0.7427108252	 1.6901046732	-1.1301700991	 0.124322
H	-0.4133392207	 2.0187771641	 0.5870350639	 0.124704
H	-1.3023925068	-0.7735297147	 1.3712615115	 0.11541
H	-2.0392562474	-0.0836462986	-0.0680180001	 0.123926
H	-2.0542278451	-2.6573102165	-0.0388450489	 0.136858
H	-1.3244172934	-1.9385090028	-1.4704328859	 0.145854
H	 1.0746307799	-2.0478947948	 1.5405954811	 0.150261
H	 2.1796080003	-2.4820974562	 0.2327824759	 0.155242
