16
gdb 80730	3.31016	1.10157	1.025	3.7917	68.1	-0.2568	0.0248	0.2817	1179.5026	0.123911	-437.844704	-437.8366	-437.835656	-437.877925	30.114	
O	-0.0501928725	 1.2600834214	-0.3822252824	-0.429058
C	-0.3593157862	-0.0990217315	-0.3234689007	 0.123851
C	-0.3828168804	-0.8392219381	 0.9626226537	 0.013285
O	-0.8219810969	 0.058617098	 1.9983191564	-0.319456
C	-2.1528854414	 0.1057428649	 1.4040718152	 0.126325
C	-2.6974744987	 1.53432227	 1.2688962031	-0.373941
C	-4.0695436151	 1.523421094	 0.7711955831	 0.25697
N	-5.1544435039	 1.4842142682	 0.3754317666	-0.303396
C	-1.682348883	-0.6627057616	 0.1762914772	-0.193764
H	 0.2021216813	 1.5208226981	 0.5132271285	 0.297575
H	 0.0367220611	-0.6514027275	-1.171812071	 0.119344
H	 0.2064794138	-1.6981626161	 1.2615010039	 0.116136
H	-2.8323772972	-0.494188642	 2.0197671127	 0.114429
H	-2.6766327891	 2.019990584	 2.2515293191	 0.159295
H	-2.0675271047	 2.1086716242	 0.5855403976	 0.174088
H	-2.2741631769	-1.3715648959	-0.3859436032	 0.118316
