20
gdb 83046	2.16299	1.84059	1.38628	1.9536	78.72	-0.2427	0.0278	0.2704	1040.6847	0.172251	-403.14987	-403.141514	-403.140569	-403.182468	32.386	
C	-0.4797825115	 1.3945102928	-0.0728742457	-0.41903
C	-0.0555816852	-0.0582478529	-0.0168023934	-0.049935
C	 1.339069097	-0.5007930117	-0.3813155481	 0.073354
O	 2.3116108193	 0.4839573056	-0.6587206344	-0.218929
C	 2.8054442562	 1.1987330134	 0.3844200444	 0.113831
N	 2.5373350138	 1.133736733	 1.61577724	-0.2744
C	 1.5960105608	 0.1305683774	 2.113879341	 0.025768
C	 0.6621706621	 0.7713706118	 3.1474558622	-0.382369
C	 0.8671365829	-0.6632992935	 1.0346049386	-0.107787
H	-0.7360849098	 1.6760481011	-1.0999481925	 0.120361
H	-1.365984773	 1.5616643134	 0.5477367195	 0.122157
H	 0.299717012	 2.0746493659	 0.2737188561	 0.141684
H	-0.8284436821	-0.7445688043	-0.3560393684	 0.090118
H	 1.4938217308	-1.3551427119	-1.0302072058	 0.105133
H	 3.5271855044	 1.921999718	 0.0092087258	 0.123203
H	 2.2156597819	-0.5995111635	 2.6546143337	 0.095012
H	 0.0233470613	 1.5300379005	 2.6887654595	 0.121016
H	 0.0190305631	 0.0131770346	 3.606162693	 0.106476
H	 1.2526740975	 1.2531821507	 3.9312865788	 0.124474
H	 0.6143712387	-1.6751656402	 1.3392592158	 0.089864
