20
gdb 112584	3.29049	0.96211	0.90203	4.3392	80.17	-0.273	0.0136	0.2866	1402.7295	0.169087	-403.159663	-403.149905	-403.148961	-403.194693	35.514	
C	 0.15514118	 1.4191106426	 0.3883001137	-0.383139
C	 0.0754830664	-0.0746306533	 0.0590136077	-0.194028
C	-1.3411504083	-0.5298413272	-0.2311714874	 0.166893
C	-1.6391141542	-2.0413656456	-0.308214394	-0.358661
C	-2.6792102037	-1.7545388926	 0.8112869524	 0.274077
C	-2.5528149721	-2.5186544221	 2.1222028439	-0.43752
O	-2.2187559719	-0.390501558	 0.9263951458	-0.318915
C	-4.0721623525	-1.7908597026	 0.3226286822	 0.258276
N	-5.159544009	-1.8288664875	-0.0672444608	-0.337826
H	 1.1817005582	 1.7169439165	 0.6196345698	 0.11631
H	-0.1896243613	 2.0289032097	-0.4537536132	 0.118898
H	-0.4721556298	 1.6550151862	 1.2524788051	 0.139987
H	 0.6936078389	-0.3067651298	-0.8186419735	 0.102791
H	 0.4717874968	-0.6667649902	 0.8931743754	 0.098156
H	-1.7566615698	 0.0323136954	-1.0786053576	 0.089187
H	-2.0317104248	-2.4231608256	-1.2497667865	 0.132437
H	-0.8187273688	-2.6745516923	 0.03621108	 0.117753
H	-1.5142931763	-2.4879777343	 2.4605584419	 0.12841
H	-3.186158049	-2.0632135469	 2.8881827672	 0.148477
H	-2.8587614688	-3.5610160824	 1.991692578	 0.138436
