13
gdb 24842	2.72029	1.66143	1.03146	5.6914	70.5	-0.2461	-0.0834	0.1626	1045.9679	0.090137	-456.591501	-456.584306	-456.583361	-456.624111	26.29	
O	-0.0176788976	 0.3790482621	 1.1878166565	-0.295004
C	-0.0150178067	 1.2476758408	 0.3430965151	 0.250264
C	-1.2837856161	 1.8005283072	-0.1463356265	-0.209308
C	-1.5915453332	 2.7419037586	-1.0502398365	 0.061937
O	-0.8192840049	 3.5202896515	-1.8366113495	-0.185719
C	 0.5292890268	 3.5130330706	-1.8807740462	 0.061937
C	 1.4414499021	 2.7914022917	-1.2135724464	-0.209308
C	 1.347255442	 1.7430913592	-0.1902771169	 0.250264
O	 2.3547308828	 1.2419478617	 0.2590794869	-0.295004
H	-2.1423801968	 1.3408720832	 0.3333241441	 0.135027
H	-2.6295122237	 2.9854902831	-1.2477319855	 0.149945
H	 0.8480236293	 4.2499009746	-2.6095722037	 0.149945
H	 2.4708468361	 3.0182076258	-1.4732711014	 0.135027
