19
gdb 97952	4.71844	0.50083	0.45786	2.2192	82.54	-0.2437	-0.013	0.2307	2321.0727	0.154966	-423.013481	-423.002164	-423.001219	-423.05442	37.291	
C	-0.1517881145	 1.4141649065	-0.511906689	-0.474438
C	-0.0248326339	 0.0490005136	 0.1402232817	 0.376619
O	 0.9572205954	-0.272541628	 0.7698763637	-0.288357
C	-1.2054575804	-0.8955460455	-0.0427740709	-0.28727
C	-0.9965653186	-2.2534668597	 0.6467429711	-0.361551
C	-2.1368542475	-3.1422393126	 0.4600713916	-0.00087
C	-3.0958772266	-3.8485334875	 0.2853224406	 0.168835
C	-4.2398454247	-4.7304555228	 0.0939639839	-0.216716
O	-5.2276140859	-4.07030132	-0.6915022318	-0.411481
H	 0.7452839388	 2.0027564805	-0.3168506265	 0.143957
H	-0.2965316043	 1.3087422839	-1.5929385158	 0.140427
H	-1.0309568514	 1.9416252023	-0.1252066373	 0.140407
H	-2.1109898639	-0.4054508706	 0.3370772104	 0.134622
H	-1.3844388864	-1.0319713066	-1.1169326378	 0.134639
H	-0.0821704154	-2.7154346836	 0.2578896017	 0.141878
H	-0.8095616511	-2.0880810105	 1.7137091326	 0.141896
H	-3.9024654456	-5.6600150603	-0.3933828884	 0.114482
H	-4.6438319926	-5.0178114171	 1.0786651651	 0.114463
H	-5.9640103515	-4.6815409922	-0.7957842149	 0.288459
