19
gdb 58994	3.47895	1.17019	1.03885	0.5018	76.25	-0.2304	0.0027	0.2331	1207.8409	0.15896	-422.974565	-422.966271	-422.965327	-423.007708	32.139	
C	 0.2041142604	 1.1123974645	 1.1965986452	-0.400541
C	-0.2055612685	 0.3494378861	-0.0723898752	-0.028597
O	 0.8226316661	-0.5363795496	-0.4963462162	-0.417181
C	-1.5115875355	-0.362418881	 0.0910048439	 0.377371
C	-1.8474467316	-1.6429835545	-0.0939632957	-0.232368
C	-3.338463137	-1.6307120921	 0.2853808398	 0.024837
C	-3.849063717	-0.3809690371	-0.493379355	-0.216207
C	-2.8683732982	 0.2282885922	 0.5519910037	-0.049168
O	-3.3326809211	-0.7931937076	 1.4940437286	-0.284839
H	 1.1675190322	 1.6026220752	 1.0346755292	 0.125826
H	-0.534829274	 1.8738784325	 1.4641649702	 0.119857
H	 0.2960930882	 0.4241194179	 2.0442151641	 0.119428
H	-0.2951831702	 1.0757818795	-0.8930503191	 0.102014
H	 0.9361311769	-1.1927368221	 0.2009310288	 0.279359
H	-1.2600147962	-2.4787582627	-0.4422909024	 0.111836
H	-3.8924573157	-2.5633305316	 0.3804265809	 0.081716
H	-3.6134451301	-0.2906840269	-1.5557143049	 0.09975
H	-4.8930641105	-0.1426573002	-0.2765673022	 0.107745
H	-2.9285732382	 1.2511173975	 0.9224318463	 0.079162
