20
gdb 108171	2.64771	1.41687	1.22927	1.7475	79.49	-0.2258	0.0054	0.2313	1114.2269	0.171064	-403.121482	-403.11276	-403.111816	-403.154885	33.485	
C	-0.2538138318	 1.4376029572	 0.166817372	-0.31996
N	 0.0384083797	 0.0133062553	 0.2117066616	-0.1422
C	 1.3590731562	-0.5295822236	-0.1694648165	-0.130185
C	 2.5352578072	 0.3889183982	-0.1789543756	-0.079396
C	 2.7636545146	 0.8997928568	 1.0345266563	-0.081204
C	 1.8004377114	 0.3553446552	 2.065753479	-0.332251
C	 0.8782549397	-0.5684004749	 1.2585064512	 0.297354
C	 0.2817645183	-1.7881028527	 1.916187524	-0.14062
O	-0.7480736307	-1.4369374599	 2.8310003173	-0.422152
H	 0.6012479037	 2.0988284078	 0.3625297891	 0.112041
H	-0.6524704604	 1.6806484034	-0.8234005733	 0.121773
H	-1.0322889786	 1.6561224255	 0.9053068824	 0.116617
H	 1.3215793702	-1.38253569	-0.8420727363	 0.087579
H	 3.0930462611	 0.6207680336	-1.078729505	 0.099124
H	 3.5214246173	 1.6376012579	 1.2753913668	 0.099073
H	 2.3199002346	-0.2103182503	 2.849767751	 0.115247
H	 1.2499999322	 1.1513554262	 2.5829309122	 0.119059
H	-0.0910243936	-2.4707469184	 1.139155849	 0.090528
H	 1.038967313	-2.320080346	 2.5025633887	 0.102749
H	-1.429463544	-0.9976239112	 2.309620226	 0.286822
