18
gdb 67763	2.59162	2.13271	1.72185	1.541	80.51	-0.2083	0.0022	0.2105	884.7642	0.14932	-364.800654	-364.793823	-364.792879	-364.831226	28.893	
C	-0.0934142118	 1.5794021862	 0.0162504302	-0.457153
C	-0.0037312018	 0.0629247219	 0.001633766	 0.197095
C	 0.7060989333	-0.5792951181	-1.1885537546	-0.116378
C	 0.0531199073	-1.6853650873	-1.5659688994	-0.067149
C	-1.1880060229	-1.8178775679	-0.7909384488	-0.0898
C	-1.1858628091	-1.8327420038	 0.7613162893	-0.089807
C	 0.0574015126	-1.7150528013	 1.5353106586	-0.06714
C	 0.7093575463	-0.6019334431	 1.1773517492	-0.11638
N	-1.3741344726	-0.5892415933	-0.0027160606	-0.135332
H	 0.9051667454	 2.0298533678	 0.0182126591	 0.106997
H	-0.631762874	 1.9374621344	-0.8659823258	 0.123529
H	-0.6276923779	 1.920715459	 0.9075522182	 0.123498
H	 1.6794699959	-0.2532975428	-1.5364711254	 0.098953
H	 0.3728627968	-2.4000736266	-2.3135165111	 0.101476
H	-2.0758959045	-2.2348643367	-1.2607922128	 0.09358
H	-2.0724570728	-2.2586806227	 1.2255532363	 0.09358
H	 0.3791738742	-2.4439124477	 2.2681805563	 0.101475
H	 1.6836855957	-0.282630828	 1.5287813654	 0.098955
