18
gdb 78402	3.12598	1.42205	1.22404	3.6872	75.68	-0.2369	-0.0047	0.2322	1075.2164	0.148085	-401.912552	-401.90497	-401.904025	-401.944465	29.831	
C	-0.0426164473	 1.4316259851	 0.0785870714	-0.429567
C	 0.0697524672	-0.0775234539	 0.0190745837	-0.027631
C	 0.7047246722	-0.6563100356	-1.2254765617	-0.089014
C	 1.4508295101	-0.6604036582	 0.1151197441	-0.036884
N	 1.4414854853	-2.1500838254	 0.1304405718	-0.146698
C	 0.7748611623	-2.1954202122	-1.2112139353	 0.009108
C	-0.3449002277	-3.0976505265	-0.6342702824	-0.398259
C	 0.3408771781	-2.841075704	 0.7333645607	 0.379471
O	 0.070634152	-3.0414671384	 1.8792451026	-0.309977
H	 0.824761956	 1.9130727175	-0.3856014348	 0.120279
H	-0.9366621892	 1.7805779236	-0.4484573334	 0.125303
H	-0.1031959758	 1.7780024754	 1.1150434761	 0.130398
H	-0.7513387216	-0.6022629017	 0.5019705658	 0.1032
H	 0.8897374299	-0.044267608	-2.0995456776	 0.095723
H	 2.3188390418	-0.1073644981	 0.4526330618	 0.107336
H	 1.3803853773	-2.6173591608	-2.015986445	 0.09141
H	-1.3681575058	-2.7188260106	-0.6787019981	 0.13934
H	-0.3306417948	-4.1342302183	-0.9793691796	 0.136461
