15
gdb 127516	2.68984	1.33948	0.89929	3.632	73.36	-0.2322	-0.0635	0.1687	1210.5987	0.112632	-453.977319	-453.968858	-453.967914	-454.011299	29.942	
C	-0.0128234509	 1.3600493642	-0.0445994084	-0.334216
N	 0.0219314616	-0.0880258468	 0.0414308341	-0.039598
N	 0.0460083196	-0.8102092985	-1.0950205919	-0.35326
C	 0.0761409107	-2.0842571121	-0.6956790884	 0.457609
O	 0.1061208328	-3.0950430349	-1.5842652564	-0.42689
C	 0.0720904826	-2.2041774448	 0.6981785224	-0.398935
C	 0.036500404	-0.8882352571	 1.148416991	 0.299834
C	 0.0161298435	-0.3791506911	 2.5162455294	 0.079472
O	 0.0299298413	-1.0869886762	 3.4986541116	-0.266798
H	 0.8657619188	 1.8057405863	 0.4308859251	 0.149319
H	-0.0138423687	 1.6133774537	-1.1039067593	 0.167102
H	-0.9166215949	 1.7624050066	 0.4221989311	 0.149304
H	 0.1007798673	-2.7038714569	-2.4669978806	 0.306271
H	 0.0913700678	-3.0938869243	 1.3032694154	 0.141127
H	-0.0131318755	 0.7283819318	 2.610070585	 0.069658
