14
gdb 45976	3.0221	1.53174	1.18752	3.3629	62.52	-0.2656	-0.0504	0.2152	993.8683	0.10196	-473.841047	-473.833865	-473.832921	-473.873056	26.776	
O	-0.0694662623	 0.2974139008	-0.8892062729	-0.303359
C	 0.0202086989	 1.2426187986	-0.1445534128	 0.412227
C	-1.180168889	 1.790909726	 0.6256245607	-0.169435
O	-1.2828175356	 3.2248115521	 0.6463060922	-0.243141
C	-0.2089684487	 4.0424293069	 0.570730406	 0.479349
O	-0.3604092789	 5.2317609487	 0.5242563933	-0.326381
C	 1.1514617526	 3.4072135828	 0.5244913291	-0.186398
N	 1.4246952252	 2.386228542	 1.5379071536	-0.328248
C	 1.2930066702	 1.9661158456	 0.1277468163	-0.159974
H	-2.094489679	 1.4258570695	 0.1567065926	 0.152059
H	-1.1286738498	 1.4219352703	 1.6565801199	 0.156745
H	 1.9355620637	 4.1026667824	 0.2458615625	 0.134137
H	 2.4069717221	 2.4139849787	 1.7986887863	 0.260369
H	 2.1664318409	 1.6531246256	-0.4345240468	 0.122049
