19
gdb 125894	4.50098	1.17664	0.96659	2.7016	81.42	-0.2196	0.0284	0.248	1222.4252	0.163321	-382.105244	-382.097663	-382.096719	-382.137254	29.857	
C	-0.7536080419	 1.2643170502	-0.0474504878	-0.403968
C	 0.1813415033	 0.0585358505	 0.0114476271	 0.057213
C	 1.1979134587	-0.0140938938	-1.1821438626	-0.372593
C	 2.3636792784	-0.6717962411	-0.5168644489	 0.36499
C	 2.2925240419	-0.6907542992	 0.8549195538	 0.21931
C	 1.0285977935	-0.0319303435	 1.3293009961	-0.375023
C	 3.4946510628	-1.2990628743	 1.269282835	-0.164838
N	 4.2514804812	-1.6363318836	 0.2219646943	-0.229389
N	 3.5419508929	-1.2338015294	-0.8628672514	-0.3307
H	-0.1878685976	 2.2021943019	-0.0034424968	 0.115842
H	-1.34103313	 1.2715715458	-0.971970326	 0.113113
H	-1.4564772785	 1.2604658481	 0.7923502879	 0.116655
H	-0.4227437896	-0.8551883596	-0.0388122342	 0.084857
H	 0.7859532581	-0.5646207306	-2.0348017436	 0.109777
H	 1.4542640753	 0.9913114644	-1.5451662226	 0.11189
H	 1.2209883914	 0.9711240488	 1.7354926499	 0.103942
H	 0.4919838181	-0.5858321959	 2.1067786033	 0.106606
H	 3.8524283079	-1.5180999666	 2.2649506013	 0.104936
H	 3.923393454	-1.4053317822	-1.7771927252	 0.267379
