17
gdb 7602	3.34129	1.62073	1.32258	14.7207	67.26	-0.1671	-0.0318	0.1353	960.794	0.141353	-400.944569	-400.935845	-400.934901	-400.977944	31.314	
C	 0.0181220534	 1.5435641647	-0.0769002595	-0.490082
C	 0.0264257419	 0.0342605612	-0.0289428425	 0.184703
C	 1.3272276359	-0.7274517428	-0.2017544088	-0.319631
C	 0.6267784592	-0.7179215777	 1.1187043858	-0.091729
N	 1.2708855665	 0.0810084245	 2.2208423945	-0.421561
H	 1.5589274464	 0.9924065911	 1.8495042884	 0.319422
H	 0.6008064125	 0.2568622816	 2.9735063122	 0.332772
H	 2.0903663658	-0.384012968	 2.620803098	 0.323903
C	-1.2627008996	-0.7035704968	-0.589227368	 0.341153
O	-2.0336264468	 0.033605664	-1.2122359672	-0.463463
O	-1.2832348767	-1.9184658841	-0.3063732851	-0.488851
H	 0.9871019367	 2.017575984	 0.1625112913	 0.057728
H	-0.2542511411	 1.8438063721	-1.09065102	 0.176731
H	-0.7527302849	 1.9595254507	 0.5808021026	 0.123705
H	 1.2883904048	-1.6653147737	-0.7433163067	 0.161968
H	 2.2541717144	-0.1630002513	-0.2956485513	 0.090567
H	 0.1038500715	-1.5956270895	 1.4808685263	 0.162667
