14
gdb 131467	3.36766	1.57663	1.12169	2.6676	69.53	-0.2311	-0.0533	0.1778	1002.6589	0.102765	-436.666444	-436.659724	-436.65878	-436.697607	26.102	
O	 0.2211826587	 1.4274319883	-0.197300549	-0.411305
C	 0.0425911619	 0.032156345	-0.0434218922	-0.072018
C	 0.6164229361	-0.5432752407	 1.2648720687	-0.108315
C	-0.2797439935	-1.3061029808	 1.9189151684	-0.219604
C	-1.5028046555	-1.265714844	 1.1230279082	 0.402913
C	-1.3751123709	-0.4879700966	 0.011690164	 0.110157
C	-2.6434794581	-0.5963689157	-0.5964312509	-0.135569
N	-3.4591424607	-1.3640275125	 0.1026599032	-0.146866
O	-2.7098046319	-1.8069912563	 1.222019087	-0.230223
H	-0.2813324579	 1.8619866421	 0.501190585	 0.289626
H	 0.5857280797	-0.418048846	-0.885350542	 0.126594
H	 1.6311073515	-0.3298444104	 1.5758180997	 0.123409
H	-0.1411115879	-1.841597298	 2.8475272442	 0.131973
H	-3.0243258214	-0.1513597344	-1.5051582345	 0.13923
