17
gdb 75252	4.05996	1.15623	1.044	1.9627	69.01	-0.229	0.0519	0.2809	1156.2198	0.137302	-455.144387	-455.136417	-455.135473	-455.177641	29.79	
N	 0.1270309106	 1.3411630222	 0.0803612888	-0.578176
C	-0.0540606245	-0.0113524196	-0.0062518278	 0.454026
N	-1.1256946467	-0.6610298307	 0.2192927325	-0.34058
C	-0.8224311824	-2.0515480494	-0.1118437178	-0.253736
C	 0.674846863	-2.066782255	-0.5145891164	 0.319615
C	 1.6637753144	-3.0280434108	 0.1762800298	-0.120475
O	 1.9611546751	-3.6853134415	-1.0713111449	-0.270493
C	 1.1309437423	-2.7667133426	-1.809823497	-0.123066
O	 1.0548778134	-0.6843143035	-0.4354071509	-0.276174
H	 1.0720382091	 1.6409562087	 0.2632867886	 0.263918
H	-0.5818986022	 1.8159895331	 0.6170152072	 0.269846
H	-1.015023999	-2.7079744078	 0.7457162808	 0.111794
H	-1.4593199746	-2.4052640309	-0.9331665803	 0.111939
H	 2.5386901771	-2.52593768	 0.6071558679	 0.108641
H	 1.2304326209	-3.7149723617	 0.9139048479	 0.104802
H	 0.3461974663	-3.2818486147	-2.3776974857	 0.105427
H	 1.7097121072	-2.120244586	-2.4803987526	 0.11269
