18
gdb 83172	2.94142	1.40153	1.2288	3.5502	72.41	-0.2309	0.0234	0.2543	1075.1296	0.148957	-439.102501	-439.094398	-439.093454	-439.135291	30.811	
C	-0.1296151588	 1.5563825475	 0.12094994	-0.406151
C	 0.0027410631	 0.0572359004	-0.0036035199	-0.064344
C	 0.6716939662	-0.5976189031	-1.2089502806	-0.05953
N	 1.3493289003	 0.1910105431	-2.190575145	-0.300703
C	 2.6871867822	 0.4706746106	-2.1481609891	 0.380718
O	 3.292550057	 0.9959537118	-3.0603824922	-0.367001
C	 3.3544259333	 0.0830097301	-0.8267875719	-0.197314
O	 2.4709501659	 0.1812015439	 0.2836798507	-0.246979
C	 1.3416320184	-0.6264514311	 0.1394423043	 0.076096
H	 0.7402552648	 2.0678572021	-0.2928653459	 0.136436
H	-1.0216989951	 1.913427513	-0.403993558	 0.116161
H	-0.218418264	 1.8478091114	 1.1721830592	 0.126452
H	-0.8328307488	-0.5129206507	 0.3944121795	 0.09189
H	 0.2434994356	-1.5233113733	-1.5855613167	 0.104444
H	 0.8616670709	 0.4925983355	-3.022119279	 0.251234
H	 3.7731119361	-0.9314733103	-0.9160476763	 0.118043
H	 4.1756284088	 0.7790271626	-0.6514973017	 0.144905
H	 1.4018451538	-1.5744487833	 0.6723809826	 0.095639
