20
gdb 51640	3.52311	1.0373	1.01526	3.401	80.98	-0.256	0.0238	0.2798	1277.9053	0.17252	-403.148627	-403.140352	-403.139408	-403.182405	31.494	
N	-0.9752240881	 1.0989209215	 0.6990052761	-0.445568
C	-0.5325179973	-0.0101792949	 0.2881809079	 0.126687
O	-1.3699149438	-1.0436674768	 0.0925692438	-0.18527
C	-0.7856003088	-2.3260586656	-0.1992457938	 0.074958
C	-0.5340340988	-3.138743299	 1.0931528238	-0.230008
C	-1.7893478857	-3.9725558634	 1.3048597323	-0.026907
C	-3.1226903084	-3.2690307027	 1.2266919628	-0.28916
C	-2.5755763638	-3.9760029277	 0.0101350828	-0.028802
C	-1.8111219575	-3.143851945	-1.0100091549	-0.232356
H	-0.2155499328	 1.7740830981	 0.7550191608	 0.227211
H	 0.5132221441	-0.2415857301	 0.0384151912	 0.081613
H	 0.1397809171	-2.1578949528	-0.7621452585	 0.081804
H	 0.3272830377	-3.8003653587	 0.9400689085	 0.101151
H	-0.2924965651	-2.475522779	 1.930209278	 0.111635
H	-1.710114058	-4.8652195527	 1.9151496608	 0.08069
H	-3.9550910636	-3.7444562256	 1.7343662853	 0.106605
H	-3.1470506243	-2.1857004864	 1.2376936121	 0.144421
H	-3.0777853422	-4.8717579815	-0.337457446	 0.080527
H	-2.4395197437	-2.4763351109	-1.6066445121	 0.119122
H	-1.278807677	-3.8066768069	-1.7018775107	 0.101649
