18
gdb 78486	3.26475	1.44313	1.4246	2.4689	71.32	-0.217	0.0753	0.2923	1006.4997	0.148793	-439.021802	-439.014514	-439.01357	-439.053391	28.67	
C	-0.2870785634	 1.1348569823	-0.1145205222	-0.322459
N	 0.0836900288	-0.2690172122	 0.0445276892	-0.098569
C	 1.5207359696	-0.5174398749	-0.1318950528	-0.072719
C	 0.8976003574	-0.5265923231	 1.2399971577	-0.07272
C	 1.0950928938	-2.054871894	 1.3455931349	 0.058996
O	-0.0122719629	-2.9145776613	 1.2491109155	-0.266732
C	-0.2604651028	-3.1513948056	-0.1310032464	 0.042318
O	 0.9409039563	-2.9005723455	-0.8494712015	-0.266732
C	 1.7378610372	-2.0454318263	-0.0695624978	 0.058997
H	 0.481784532	 1.8422081174	 0.2394248214	 0.098921
H	-0.4760667165	 1.3346809754	-1.1734578165	 0.12996
H	-1.209845989	 1.3239079019	 0.4420350051	 0.129959
H	 2.1548054466	 0.2281420876	-0.5966141129	 0.091883
H	 0.9610938672	 0.2106083759	 2.031454111	 0.091882
H	 1.7291675106	-2.361901998	 2.1799532551	 0.091123
H	-0.5283966982	-4.2069136506	-0.2597424409	 0.102506
H	-1.0578739704	-2.492208621	-0.4887873579	 0.112264
H	 2.7848991437	-2.3464021879	-0.144411991	 0.091122
