16
gdb 69754	3.17487	1.53053	1.30957	5.781	68.09	-0.2411	0.0123	0.2535	992.8884	0.124498	-437.850978	-437.843717	-437.842773	-437.882554	28.385	
C	-0.0109697687	 1.5681478896	 0.0837658853	-0.514476
C	 0.1107660798	 0.0796588888	 0.0078509698	 0.353058
N	-0.8344969153	-0.8430146057	 0.6608882863	-0.357963
C	 0.611795379	-0.9484646643	 0.9740490988	-0.141008
C	 1.2608614227	-1.7521910494	-0.1783218265	 0.126975
O	 0.4432762536	-2.8010393608	-0.774002698	-0.252304
C	-0.0979726855	-1.921200036	-1.6961311501	 0.47181
O	-0.8737864074	-2.1656155987	-2.5589142617	-0.326077
C	 0.7237677221	-0.7225681932	-1.1839434585	-0.311261
H	 0.919814308	 2.0577635832	-0.2207028062	 0.131796
H	-0.8108964542	 1.9296588781	-0.5723060374	 0.144162
H	-0.2420856096	 1.8878286448	 1.1056290162	 0.124608
H	-1.2720644906	-0.3455779657	 1.4358377246	 0.234948
H	 0.9706730002	-0.8526578525	 1.9912425875	 0.101858
H	 2.3056588977	-2.039487496	-0.0837826362	 0.103455
H	 1.3502244481	-0.1835173822	-1.890916544	 0.110419
