20
gdb 73614	2.30561	1.62188	1.26886	3.7884	79.77	-0.2446	0.0109	0.2554	1092.1641	0.171569	-403.171585	-403.163032	-403.162088	-403.2045	32.544	
C	-0.1619291499	 1.624561909	 0.0772431138	-0.472797
C	 0.0221371601	 0.1272917651	 0.07608818	 0.292865
C	-1.0957017494	-0.7614122913	-0.4664444876	-0.261499
C	-0.7839662921	-2.1882669609	 0.04459711	-0.239389
C	 0.0403267778	-2.0002899414	 1.3412592144	-0.222992
C	 0.7115411062	-0.6465173228	 1.1831278322	-0.070455
N	 1.377850872	-0.3797975677	-0.0705536558	-0.088449
C	 1.9394481083	-1.2583865936	-0.9639791308	 0.139831
O	 2.608269194	-2.2220118361	-0.6668482715	-0.310695
H	 0.6923706453	 2.1212165191	 0.5435825527	 0.131623
H	-0.258665258	 2.0078825618	-0.9447296818	 0.125266
H	-1.0703504343	 1.9005702546	 0.6230285373	 0.122284
H	-2.0435440585	-0.3949992499	-0.0534033096	 0.106681
H	-1.1874899339	-0.7124852723	-1.5566750609	 0.106407
H	-1.6941481578	-2.7675801091	 0.2163494544	 0.102687
H	-0.1960429981	-2.7405074055	-0.6924272778	 0.12997
H	-0.6088935121	-1.9605857806	 2.2237591558	 0.103153
H	 0.7606415432	-2.8082171565	 1.4920736352	 0.133173
H	 1.124325372	-0.1449885086	 2.0547117595	 0.096489
H	 1.7740125851	-0.9393210435	-2.0126950596	 0.075846
