20
gdb 114995	3.5779	1.07839	0.87148	1.9601	77.48	-0.2511	0.024	0.2751	1363.5037	0.170989	-440.301384	-440.292282	-440.291337	-440.335479	33.426	
C	 0.0292336023	 1.3819620848	 0.0715188827	-0.246068
O	 0.0002954084	-0.0363040349	 0.1311523347	-0.230212
C	-1.259289357	-0.5892471346	 0.019890052	 0.228022
C	-1.1480408048	-2.0983264319	-0.0837057304	-0.259053
C	-2.543977834	-2.7323115934	-0.0100516168	 0.045786
C	-2.4770422883	-4.2549859999	 0.1147322481	-0.384795
N	-3.3302929461	-2.1945999773	 1.1043468733	-0.273578
C	-3.0035574887	-1.0719798327	 1.5816751984	 0.127531
O	-2.0240355815	-0.218842917	 1.189665932	-0.248553
H	 1.0806022242	 1.6751751448	 0.0814219177	 0.132856
H	-0.4376530103	 1.7490375604	-0.8542466632	 0.109803
H	-0.4825031121	 1.8303936334	 0.9297227204	 0.133611
H	-1.7971779657	-0.1622133037	-0.844220062	 0.072511
H	-0.6338791041	-2.3584121567	-1.0133154657	 0.111181
H	-0.5297408329	-2.448900545	 0.7503992837	 0.120116
H	-3.0917651743	-2.4946048831	-0.9344727795	 0.085782
H	-1.9499852025	-4.5410881642	 1.0307158174	 0.119101
H	-3.4857901848	-4.6726281027	 0.1620466768	 0.125665
H	-1.9516262976	-4.6956281323	-0.7388230908	 0.106679
H	-3.5370892	-0.650053064	 2.4318776413	 0.123615
