17
gdb 30140	3.77326	1.05775	1.03345	1.9611	74.48	-0.2248	0.0129	0.2377	1216.099	0.136148	-421.834532	-421.826593	-421.825649	-421.867618	29.687	
C	-0.0984750023	 1.5058733571	-0.2325145355	-0.425681
C	-0.0331558395	 0.0247000611	 0.0208095861	 0.091225
O	 1.2476050668	-0.6082720513	-0.0706508981	-0.256374
C	 0.607529693	-0.5884213534	 1.208739658	-0.092117
C	 1.2790306099	 0.1768893071	 2.2787485455	 0.244317
C	 2.4454484395	 0.8734478858	 2.1829148581	-0.091154
O	 2.7725711785	 1.430050436	 3.379033963	-0.143421
C	 1.7970805091	 1.0807078671	 4.2574122083	 0.011259
C	 0.8588552305	 0.3125330162	 3.6482993915	-0.305067
H	 0.6574366521	 2.0405877971	 0.3462850781	 0.132615
H	 0.0615738967	 1.7164269096	-1.2950524323	 0.128985
H	-1.0866833621	 1.8914424527	 0.0406744208	 0.121396
H	-0.832346235	-0.557657681	-0.4433372161	 0.089338
H	 0.2153293064	-1.5577844421	 1.5239512511	 0.093617
H	 3.1349650795	 1.0342819621	 1.3724043769	 0.150951
H	 1.9151075196	 1.4527766946	 5.2616491738	 0.138476
H	-0.0247270329	-0.1068964289	 4.1040310208	 0.111635
