20
gdb 15091	2.37494	1.56857	1.02736	2.0249	71.01	-0.2483	0.0715	0.3198	1168.4014	0.175779	-386.112427	-386.102915	-386.101971	-386.147032	34.172	
O	-0.1763847273	 1.4007431609	 0.1133142589	-0.425393
C	-0.1098736362	-0.0200611144	 0.1147619516	-0.092344
C	-1.5163629373	-0.5725886688	-0.1294454823	-0.017546
C	-2.0279272706	-0.1518086044	-1.5181420104	-0.068522
O	-3.399882683	-0.45140165	-1.7324687067	-0.420815
C	-1.5401003276	-2.0769196636	 0.0586538828	 0.040405
C	-1.6672240179	-2.6843024267	 1.4364641764	-0.284699
C	-2.8055719808	-2.7883544969	 0.4527540366	-0.255352
H	 0.7158714203	 1.7450006119	 0.2106507141	 0.287377
H	 0.5722823905	-0.3861030698	-0.6711958426	 0.083699
H	 0.2652984025	-0.4000436611	 1.0766262955	 0.092413
H	-2.1724514633	-0.1116529181	 0.6245183384	 0.066638
H	-1.821499146	 0.9152707217	-1.6693755374	 0.104763
H	-1.4810065153	-0.7065803269	-2.2905972141	 0.099877
H	-3.9157651495	 0.1389844563	-1.1746708624	 0.279556
H	-0.8956138104	-2.6145416314	-0.6347368784	 0.076865
H	-1.0949827906	-3.5770144317	 1.6637606987	 0.107984
H	-1.7839957152	-2.0086585005	 2.278260821	 0.107862
H	-3.6868791599	-2.1818475424	 0.6251756412	 0.107041
H	-3.0154726625	-3.7521313239	 0.0027900793	 0.110192
