22
gdb 10520	3.63072	1.13392	0.97619	1.6443	78.3	-0.258	0.0905	0.3485	1313.9497	0.198583	-350.198407	-350.188704	-350.18776	-350.233224	35.221	
C	-0.1117156207	 1.6032986067	-0.1186803719	-0.382099
C	-0.0683009113	 0.0753627917	-0.2060375883	-0.164481
C	-1.3574012991	-0.5796949389	 0.3120462968	-0.245826
C	-1.4040887426	-2.0900364852	 0.1340857156	 0.416218
C	-0.3879887878	-2.8888164421	 0.9401972983	-0.246773
C	-0.4478113981	-4.4076167894	 0.759908523	-0.398219
C	-2.662399194	-2.6983592532	-0.3281353831	-0.233567
O	-1.5709832291	-2.5067396302	-1.2338365834	-0.276597
H	 0.8138756895	 2.0499234742	-0.4948809938	 0.112105
H	-0.9412399147	 2.0102949982	-0.7075769493	 0.115342
H	-0.2463932262	 1.9386994898	 0.9160116358	 0.11173
H	 0.0857404189	-0.2344388084	-1.2463377355	 0.114525
H	 0.7955933706	-0.292758846	 0.3597783103	 0.097026
H	-1.4951624306	-0.3398252166	 1.3754203327	 0.093036
H	-2.2110087465	-0.1437312916	-0.2201646184	 0.097023
H	 0.6120252565	-2.5374178162	 0.6585494082	 0.110756
H	-0.511628934	-2.6268502724	 1.9991490134	 0.0998
H	-1.3468562693	-4.8381739456	 1.2115764878	 0.114442
H	-0.4402439932	-4.6663925185	-0.3024077674	 0.138677
H	 0.4155920578	-4.8827612737	 1.2341949051	 0.111508
H	-2.897071092	-3.7353258161	-0.0981876351	 0.110059
H	-3.529514824	-2.0614184365	-0.5014307707	 0.105315
