18
gdb 16897	3.99333	1.88075	1.43965	1.1	73.69	-0.2322	0.0141	0.2464	905.8063	0.154655	-347.795117	-347.787952	-347.787008	-347.826261	28.314	
C	 0.1524156268	 1.5234775823	-0.0705767312	-0.395031
C	-0.0265950509	 0.012868847	 0.0328088652	 0.095916
O	 0.5356386977	-0.5359043123	-1.1628896449	-0.273728
C	 0.651719972	-1.928604221	-1.2015031949	 0.102403
C	 2.0441396802	-2.490069666	-1.0943303505	-0.303235
C	 1.05981679	-2.6334173919	 0.0604760735	-0.096703
C	 1.1546432526	-1.7818558514	 1.2709878675	-0.097905
C	 0.6216738107	-0.5616218368	 1.2730925889	-0.066778
H	 1.2160582825	 1.7788082453	-0.0833555126	 0.125593
H	-0.3040362705	 1.8948688956	-0.991574632	 0.124014
H	-0.318669371	 2.0238093517	 0.7809219119	 0.112414
H	-1.1076767554	-0.213330233	 0.0588330876	 0.077674
H	-0.057956167	-2.4098151696	-1.8724384853	 0.085676
H	 2.2971139895	-3.3778180774	-1.6640938596	 0.109293
H	 2.8400261328	-1.76313568	-0.9811126288	 0.122721
H	 0.663567546	-3.6325604442	 0.2213054082	 0.095092
H	 1.6428599315	-2.1864543339	 2.1536209766	 0.092126
H	 0.6415731725	 0.0668253256	 2.1590585505	 0.090458
