16
gdb 18328	3.51812	2.15041	1.57781	2.9666	63.63	-0.2079	-0.0202	0.1878	814.9239	0.133123	-379.902468	-379.895702	-379.894758	-379.933675	25.778	
O	-0.0422530704	 0.1025080481	-0.4135920189	-0.31542
C	 0.0012453182	 1.2590069756	-0.0856928782	 0.432066
C	-1.1675429284	 2.1150328516	 0.4322519696	-0.288408
N	-0.8240460813	 3.5199328568	 0.1536326054	-0.303586
C	 0.6360063969	 3.6206569872	 0.0007107698	-0.012041
C	 1.4419354591	 3.7727818961	 1.318712864	-0.156975
N	 1.7237714831	 2.3160467163	 1.3043316506	-0.321568
C	 1.2216145523	 2.182242821	-0.0901473954	-0.127288
H	-2.1099835994	 1.8218075321	-0.0346105396	 0.128532
H	-1.2660318202	 1.9432378009	 1.5121776894	 0.143763
H	-1.2644094835	 3.801543644	-0.7136039777	 0.225742
H	 0.8857220841	 4.3343176717	-0.7839466892	 0.081806
H	 2.3282249247	 4.4102343472	 1.2018330507	 0.094866
H	 0.8699022283	 4.1118876383	 2.1885410084	 0.11109
H	 2.687136358	 2.0394331279	 1.4438270842	 0.227736
H	 1.9518943985	 1.9403949051	-0.8663764632	 0.079685
