16
gdb 53852	3.70034	0.82876	0.72417	0.8743	73.55	-0.245	-0.0656	0.1794	1538.3629	0.120914	-437.899113	-437.889095	-437.888151	-437.935727	34.369	
C	 0.0255298581	 1.3729590293	-0.3025198845	-0.471358
C	-0.0285523936	-0.0430771156	 0.1996410372	 0.31341
O	 0.9043548313	-0.6323897439	 0.6965142242	-0.300477
C	-1.3969048955	-0.7494992966	 0.0443382705	 0.310721
O	-2.3577496409	-0.1866379439	-0.4519923173	-0.369277
N	-1.3751065413	-2.0152367534	 0.5162501554	-0.306074
C	-2.5240321299	-2.9015630887	 0.4279561847	-0.294049
C	-2.1875451898	-4.1912504114	-0.1671746354	 0.287319
C	-1.8980696198	-5.2587982655	-0.6351455397	-0.436189
H	 1.0236840823	 1.7842180229	-0.1526606878	 0.140447
H	-0.2494758387	 1.3995650729	-1.3617082704	 0.162688
H	-0.7247427041	 1.9778374857	 0.2165547084	 0.161791
H	-0.4909173482	-2.3512160015	 0.8715329011	 0.272524
H	-2.9632296925	-3.0584478435	 1.4226730939	 0.145714
H	-3.2731246828	-2.373574997	-0.1720386245	 0.175613
H	-1.6514173747	-6.2003116298	-1.0601149558	 0.207197
