19
gdb 49064	2.6641	1.53143	1.27766	3.1516	75.	-0.2465	-0.0276	0.2189	1057.4765	0.159741	-423.035204	-423.027189	-423.026245	-423.068076	30.547	
O	-0.9771808965	 1.5272462274	 0.5237434162	-0.262001
C	 0.043681478	 1.0243488019	 0.1273152197	 0.101546
C	 1.3476119648	 1.7634509941	-0.0315802959	 0.325301
C	 1.5327557868	 3.0556262417	 0.8115661391	-0.278488
C	 1.7669253021	 3.8857016079	-0.4802796287	-0.230559
C	 1.5152064134	 2.6230911077	-1.3528015612	-0.074163
C	 2.7297154116	 1.9835171233	-2.0318263737	-0.235849
C	 3.4425020354	 1.2784145227	-0.8676640474	-0.095871
O	 2.400005245	 0.8214315878	-0.0077995674	-0.30564
H	 0.0977859222	-0.0414110189	-0.1869382736	 0.085258
H	 0.6201541108	 3.3153574148	 1.3509237064	 0.129833
H	 2.3682897087	 3.0010223898	 1.5123998368	 0.10926
H	 1.0498841487	 4.6928623973	-0.6408536342	 0.111468
H	 2.7744191515	 4.2987484339	-0.5835628878	 0.099476
H	 0.6402852816	 2.6812329215	-2.0012126221	 0.086683
H	 2.4048532152	 1.2472001607	-2.7734922951	 0.111455
H	 3.3697171667	 2.715016919	-2.5336492148	 0.10827
H	 4.031987807	 0.4085237847	-1.167497368	 0.115277
H	 4.1062817472	 1.9737326829	-0.3318678983	 0.098742
