18
gdb 85323	2.36175	1.8319	1.23307	4.9456	70.98	-0.2357	0.0079	0.2436	1035.3459	0.149805	-439.103699	-439.096006	-439.095062	-439.136283	29.52	
C	 0.3526148563	 1.4662904243	-0.2647592414	-0.403807
C	-0.0388207359	 0.0315167207	 0.0546761107	 0.122379
O	 0.301113333	-0.7996689162	-1.0829130046	-0.233415
C	 1.1546910631	-1.8103583059	-0.7800143532	 0.457561
O	 1.5219419984	-2.6126586515	-1.5890993513	-0.347574
C	 1.5318688603	-1.7088781289	 0.6911232595	-0.136924
N	 2.706525062	-0.8255003422	 0.9090582428	-0.312016
C	 1.9321211563	 0.0070637571	 1.8587545061	-0.176563
C	 0.6289773273	-0.6173050925	 1.3000188284	-0.085871
H	 1.4303991205	 1.545266304	-0.4293050935	 0.146628
H	-0.1587167047	 1.7967907608	-1.1723232693	 0.133593
H	 0.0668121068	 2.1342542405	 0.554014305	 0.118547
H	-1.1275932855	-0.0342775497	 0.1518024475	 0.09585
H	 1.5646778223	-2.6906835263	 1.171597764	 0.094143
H	 3.53528979	-1.2794926494	 1.2735354684	 0.230149
H	 2.0727300689	-0.2611428236	 2.9144439801	 0.098783
H	 2.0839778882	 1.0849535147	 1.7495949688	 0.109172
H	-0.1133891472	-0.9141014859	 2.039114942	 0.089365
