25
gdb 118779	2.71041	1.04825	0.88263	0.9265	90.62	-0.2407	0.0831	0.3238	1491.835	0.225261	-389.486104	-389.474743	-389.473799	-389.522202	42.111	
C	 0.2230568449	 1.5117748031	 0.151241186	-0.384197
C	 0.2960415544	 0.0060040854	-0.0435310168	-0.046326
O	 0.3153920352	-0.6020889313	 1.2388094882	-0.290792
C	 0.5630186905	-1.9860727919	 1.2539852702	 0.407305
C	-0.6063474609	-2.8085461141	 0.7520413338	-0.45651
C	 1.9907253923	-2.4244079206	 0.9934557197	-0.39221
C	 1.4315923806	-2.444494302	 2.4089975827	 0.272168
C	 1.9413749112	-1.3959196533	 3.3821169113	-0.439699
C	 1.1786618063	-3.7896688945	 3.0675218086	-0.4569
H	 1.0978372275	 1.8733971636	 0.6995279973	 0.12296
H	 0.18453317	 2.0201389323	-0.8170435444	 0.112375
H	-0.6711770604	 1.7815440377	 0.720361386	 0.12636
H	-0.5701621119	-0.3409356734	-0.6270189	 0.089066
H	 1.1996434331	-0.2705293007	-0.6079428104	 0.088193
H	-0.8315621612	-2.5721182202	-0.2932457323	 0.11689
H	-0.4033132152	-3.879517981	 0.8017506526	 0.117135
H	-1.5026273336	-2.5988473823	 1.3454959334	 0.12186
H	 2.1592191038	-3.3702347135	 0.4870378644	 0.101648
H	 2.713190049	-1.651475666	 0.7519095003	 0.107942
H	 2.0704517469	-0.4276449355	 2.8985705995	 0.124538
H	 1.2385098216	-1.2611935225	 4.2127184415	 0.110955
H	 2.902043983	-1.7079597771	 3.808249228	 0.105345
H	 2.0843140237	-4.1285062931	 3.5842140128	 0.114874
H	 0.3799246478	-3.7230620562	 3.8158020903	 0.115421
H	 0.9046595817	-4.5688887529	 2.3526013574	 0.111598
