19
gdb 54779	3.57311	1.26416	1.13706	2.4524	79.77	-0.2251	-0.0197	0.2054	1136.3265	0.159289	-385.873094	-385.865036	-385.864092	-385.906258	31.113	
C	 0.3939510365	 0.7322123272	 1.3200737379	-0.478627
C	 0.1082919691	-0.006318455	 0.0220258079	 0.34899
O	 0.846853896	 0.0824937979	-0.9348258514	-0.301113
C	-1.1664530093	-0.8285587995	 0.0095586468	-0.064327
C	-1.5239310861	-1.6227028604	-1.2963749575	-0.074251
C	-0.4789021244	-2.6921259683	-0.8207341101	-0.213851
C	-1.0730353499	-2.3125111322	 0.5763028795	-0.089049
C	-2.5342572593	-2.7447683979	 0.3820212586	-0.091401
C	-2.8265720308	-2.2973270938	-0.8429807284	-0.092847
H	 1.3910676912	 1.1727148485	 1.2849262118	 0.141163
H	-0.3468479643	 1.5280250132	 1.462434556	 0.14226
H	 0.3071170847	 0.0620806272	 2.1820074465	 0.13601
H	-1.9784631351	-0.2437770299	 0.4540888092	 0.07858
H	-1.470431686	-1.1552657893	-2.2774582969	 0.074176
H	-0.635003656	-3.7194692038	-1.1556514416	 0.093344
H	 0.55457467	-2.3760483876	-0.9692781115	 0.122618
H	-0.5736432562	-2.5447172112	 1.5171454869	 0.064199
H	-3.1408234869	-3.2839539765	 1.0956328818	 0.101899
H	-3.7433157032	-2.3677861684	-1.4107181558	 0.102227
