16
gdb 53627	4.94948	0.58796	0.53054	4.4759	78.04	-0.2627	-0.0261	0.2367	1985.8412	0.120795	-437.878744	-437.868457	-437.867513	-437.916765	33.344	
C	-0.2271739998	 1.2074728121	 0.0716468049	-0.49803
C	-0.0981078334	-0.2365078035	-0.0641792639	 0.043831
C	 0.0297806196	-1.4298040421	-0.1696075652	 0.059449
C	 0.1687709317	-2.8807432242	-0.3046568663	-0.268004
N	-0.9814660826	-3.6301084189	-0.809699516	-0.248786
C	-2.0396859868	-3.019056375	-1.0987871789	 0.158086
O	-3.1600428473	-3.646181121	-1.5765858978	-0.199145
C	-3.2969649267	-5.0038559294	-1.40644043	 0.180534
O	-4.1940439868	-5.5930125123	-1.9207971914	-0.251582
H	 0.7014112586	 1.6487618011	 0.44955186	 0.156105
H	-0.4513566713	 1.6801939546	-0.8905716538	 0.15373
H	-1.0284283239	 1.4727378848	 0.7696690361	 0.15316
H	 1.0130149609	-3.1124989146	-0.9667611396	 0.149346
H	 0.4342172995	-3.3191187752	 0.6661430485	 0.147701
H	-2.2118767509	-1.9438378658	-1.0369751582	 0.13332
H	-2.520846951	-5.4260405606	-0.7557266185	 0.130284
