23
gdb 63649	3.80864	0.766	0.72707	1.7083	87.35	-0.2551	0.0864	0.3415	1679.0265	0.20394	-388.263206	-388.253153	-388.252209	-388.298638	37.49	
C	 0.0636943804	 1.5116823739	-0.3076617319	-0.452692
C	-0.012406461	 0.0321939321	 0.0223276174	 0.328686
C	-1.2994910487	-0.6253199331	-0.443049033	-0.447397
C	 1.2547901684	-0.7921919946	-0.0418851457	-0.330706
C	 0.6059752188	-0.5044285974	 1.2965914125	-0.010777
C	 1.2930013103	 0.3561549216	 2.3399751761	-0.267226
C	 2.2148941293	-0.463963222	 3.2133203894	 0.111947
C	 2.3928143126	-0.1947773275	 4.6446180598	-0.182714
O	 1.5863279792	-1.2879666344	 4.201825477	-0.238575
H	 1.0129694042	 1.961051863	-0.0052699162	 0.111847
H	-0.0412670519	 1.6681776133	-1.3878035144	 0.113554
H	-0.7424087738	 2.0700281044	 0.1836578838	 0.113308
H	-1.4176064825	-0.5350482406	-1.5297037729	 0.111492
H	-1.3180385803	-1.6906531274	-0.1932580721	 0.11307
H	-2.1743238534	-0.1576216382	 0.0245204011	 0.112927
H	 1.2035251938	-1.7996591559	-0.4419213829	 0.106439
H	 2.1811317796	-0.2733546124	-0.2722463572	 0.100735
H	 0.0715800629	-1.3406798373	 1.7415466769	 0.093862
H	 1.8798453928	 1.1515393476	 1.865827261	 0.097179
H	 0.5483668856	 0.8437395001	 2.981400182	 0.10185
H	 3.0305288968	-0.9628321748	 2.6862962908	 0.091461
H	 3.3233198392	-0.4688947085	 5.1403474031	 0.111572
H	 1.8494731277	 0.629421738	 5.1061404556	 0.110158
