21
gdb 112047	2.28983	1.56785	1.06951	0.9279	84.83	-0.2437	0.0172	0.2608	1203.1247	0.182447	-387.075301	-387.066456	-387.065512	-387.109408	33.599	
C	 0.0841633812	 1.4410563198	-0.0073703273	-0.232672
O	-0.2055644994	 0.0760300926	-0.1893613778	-0.242118
C	 0.6051316957	-0.5616461135	-1.178554036	 0.00153
C	 2.0134970473	-0.8432146694	-0.7017471547	-0.087957
C	 2.2478196075	-2.1467542924	-0.565759517	-0.063293
C	 1.0618751234	-2.994569941	-0.9445420574	-0.345746
C	 0.0568162307	-1.965246431	-1.4765107957	 0.343049
C	-1.4257247636	-2.213545887	-1.4552696556	-0.294479
C	-0.6877628583	-2.2120874026	-2.767915538	-0.315059
H	 1.0849436156	 1.6085737771	 0.4183071549	 0.103526
H	 0.0175733526	 2.0027392549	-0.9536933296	 0.098628
H	-0.6578029156	 1.8393144643	 0.6897342624	 0.12461
H	 0.5981346138	 0.0757937641	-2.0793243922	 0.060955
H	 2.7229665564	-0.0537208181	-0.4821202272	 0.093614
H	 3.1791877572	-2.5793734535	-0.2151078126	 0.095384
H	 1.3209906511	-3.7483908978	-1.6991136301	 0.105382
H	 0.6799215536	-3.5476685641	-0.0749433603	 0.111581
H	-1.7701561346	-3.1647052408	-1.0620656405	 0.105926
H	-2.0619412869	-1.3697980024	-1.2167346225	 0.123553
H	-0.8369783881	-1.3716934724	-3.4389365578	 0.108312
H	-0.5278764496	-3.1604085567	-3.271624065	 0.105274
