19
gdb 115470	3.7082	0.87649	0.73645	4.1673	81.66	-0.2453	-0.0517	0.1936	1506.153	0.158936	-423.050991	-423.04188	-423.040936	-423.085463	32.924	
O	-0.0519677655	 1.4494163535	 0.026406088	-0.422133
C	 0.0282206159	 0.0335110686	-0.0253864105	-0.090328
C	-1.3955022537	-0.5161885397	 0.0331325534	-0.013604
C	-1.4738458325	-2.0652978278	-0.0478042854	-0.25189
C	-2.6314000763	-2.4785624335	 0.8973466752	-0.314873
C	-2.7829011225	-1.2709950445	 1.795809616	 0.23169
C	-3.5915543998	-1.2615252807	 3.015707266	 0.069919
O	-4.2142704356	-2.2159511121	 3.4291215276	-0.273004
C	-2.1157162834	-0.2090439916	 1.3209492185	-0.146383
H	 0.8410750388	 1.805618264	 0.0392448235	 0.290594
H	 0.5132786561	-0.3085898736	-0.9535746164	 0.092411
H	 0.6098055063	-0.3679532003	 0.8201255546	 0.088914
H	-1.9458903864	-0.0487633921	-0.7973812542	 0.100306
H	-1.609585224	-2.4250017141	-1.0703150008	 0.105858
H	-0.5326526346	-2.4905411125	 0.3205092261	 0.105037
H	-3.564495854	-2.6620200066	 0.3498095956	 0.118677
H	-2.4243107534	-3.3927726424	 1.4604799336	 0.12302
H	-3.5968567226	-0.290915858	 3.5610542603	 0.065696
H	-2.0965020627	 0.7757981335	 1.7748785086	 0.120093
