20
gdb 116725	3.50175	0.87161	0.82014	2.8354	84.69	-0.2405	0.0184	0.2589	1505.126	0.170784	-403.149313	-403.139946	-403.139002	-403.184901	33.211	
C	 0.2806506353	 0.4260332841	-0.6760506631	-0.249246
O	-0.1570947702	 0.0159337371	 0.6120191746	-0.194296
C	 0.6260183529	-0.8978754897	 1.2268769044	 0.129392
N	 0.3193479076	-1.3167012462	 2.3723164538	-0.243782
C	 1.1536534436	-2.3224416713	 3.0372610739	 0.020513
C	 0.4141659682	-3.6909550808	 3.1182258092	-0.211416
C	 1.0914397844	-4.603684116	 2.0653071957	-0.249185
C	 2.4145582632	-3.9173704891	 1.8210806697	-0.05532
C	 2.4583537406	-2.6984595926	 2.3570404886	-0.105917
H	 0.3174052348	-0.41622344	-1.3783057703	 0.124396
H	-0.4496353	 1.1537899527	-1.0322980986	 0.143905
H	 1.2683359989	 0.9022104795	-0.6348472359	 0.124013
H	 1.5003135377	-1.2113001576	 0.6410957469	 0.075118
H	 1.328771915	-1.930386663	 4.0462862471	 0.083177
H	 0.5578315929	-4.119015642	 4.1146087143	 0.10169
H	-0.6582147169	-3.5631724604	 2.9614293094	 0.112507
H	 1.2127343411	-5.6312636201	 2.4260536651	 0.104248
H	 0.5122870726	-4.6752993328	 1.1342594919	 0.108058
H	 3.2188076731	-4.3829786674	 1.2601037102	 0.092023
H	 3.3008490651	-2.0172404944	 2.2961389932	 0.090124
