17
gdb 72318	2.33702	1.96882	1.55963	2.8965	75.04	-0.2158	-0.0338	0.182	924.8737	0.134684	-421.710422	-421.702657	-421.701713	-421.741922	31.289	
O	-0.0755419014	 1.3017554942	-0.078984996	-0.484265
C	-0.0599638359	-0.0877328257	-0.1476173206	 0.296615
C	 0.857400623	-0.8105767816	-1.1574012709	-0.332596
C	 0.3278384679	-2.2240134788	-0.9625750137	-0.098333
C	-0.8422854712	-2.188089084	-0.2895783988	 0.009813
C	-0.7860245706	-2.3703293699	 1.2374580201	-0.273926
C	-0.6942522529	-0.8060432474	 1.1878075894	-0.210408
C	-1.3676019993	-0.7503937898	-0.1592818228	 0.356761
O	-2.5903925215	-0.2983162449	-0.601688854	-0.474016
H	 0.7117160168	 1.6039150079	 0.3863706782	 0.290798
H	 0.7600905078	-0.3411377015	-2.1460527064	 0.119006
H	 1.9246906953	-0.8006542798	-0.9002295302	 0.104218
H	 1.0251233019	-3.0504737144	-0.8536464829	 0.097535
H	-1.7156446158	-2.6670255002	 1.7360223212	 0.11369
H	 0.0555027578	-2.9506108432	 1.6264352558	 0.098892
H	-0.8516404709	-0.1406106797	 2.0334002311	 0.09127
H	-2.5511600312	 0.6659765587	-0.6009154395	 0.294947
