18
gdb 70764	4.01518	1.3382	1.15375	1.7735	84.67	-0.2315	0.0245	0.256	1094.3851	0.146254	-364.689102	-364.681069	-364.680125	-364.721143	31.958	
C	-0.0551463085	 1.4286382837	-0.0107915245	-0.519294
C	 0.0802137185	-0.0629301488	-0.0308382128	 0.343092
C	 0.5810246768	-0.967063934	-1.1631130567	-0.346768
C	 0.0782958152	-1.9250784642	-0.0748314748	 0.269193
C	-0.0323549038	-3.3510692631	-0.0975099339	 0.102345
C	-0.1057301197	-4.5517368311	-0.119946823	-0.364811
C	 0.5896903323	-1.0193934624	 1.0992582753	-0.140113
C	-0.8068441309	-1.0412656013	 1.7028607733	-0.201103
N	-1.1542615487	-0.9971332415	 0.216943881	-0.208589
H	 0.9241785317	 1.9047196506	-0.1285424086	 0.125781
H	-0.6985733497	 1.7637105395	-0.8305900134	 0.135134
H	-0.4915293897	 1.7807280128	 0.9293948901	 0.126996
H	-0.0026848127	-0.9535755649	-2.0877033387	 0.112577
H	 1.6565571636	-0.9728605998	-1.3575360716	 0.101834
H	-0.1765664975	-5.6111355992	-0.142184966	 0.181971
H	 1.5798818558	-1.0494447808	 1.5668847481	 0.069101
H	-1.1387201634	-1.9594072817	 2.1957278757	 0.1121
H	-1.148802229	-0.1620125238	 2.2567882705	 0.100554
