21
gdb 59571	2.91245	1.24842	1.08833	1.1388	77.44	-0.2511	0.0777	0.3288	1203.6593	0.182632	-424.223112	-424.214267	-424.213323	-424.256696	34.155	
C	 0.1883999063	 1.3491984001	 0.3302288604	-0.406773
C	 0.2330864577	-0.1346199875	-0.0400099085	 0.118726
O	-1.060321442	-0.7175033346	 0.1501082828	-0.439495
C	 0.5928184836	-0.3846049273	-1.515290888	 0.015842
C	 2.0388569348	 0.0635297287	-1.8854107528	-0.274035
C	 2.8638598274	-1.2065034441	-1.8718618723	 0.056668
O	 2.6897028968	-1.9892659905	-0.6806032147	-0.257838
C	 1.9695930452	-2.367880935	-1.8670073902	 0.05167
C	 0.5318936949	-1.8981567077	-1.8819387766	-0.262849
H	 1.161728333	 1.8354191889	 0.2187639224	 0.116759
H	-0.5402630043	 1.87554655	-0.2951507976	 0.119743
H	-0.1147881674	 1.4699017992	 1.3768064368	 0.102665
H	 0.9741763277	-0.6509501421	 0.5859243962	 0.088683
H	-1.2843444812	-0.6368052248	 1.0821245535	 0.279835
H	-0.1401966142	 0.1697879985	-2.1104540954	 0.076054
H	 2.0683732875	 0.4944463361	-2.8932790021	 0.102024
H	 2.4404934683	 0.819708171	-1.2046987848	 0.107551
H	 3.8642374356	-1.2255577384	-2.2979130731	 0.089555
H	 2.249726536	-3.3305039987	-2.2881934732	 0.089494
H	-0.110024525	-2.4481575461	-1.1909427825	 0.130042
H	 0.1258694395	-2.0405198859	-2.8906672603	 0.095679
