21
gdb 91020	2.58401	1.65559	1.19537	1.9654	81.53	-0.2425	0.0814	0.3239	1105.2923	0.182223	-387.049708	-387.041281	-387.040337	-387.082403	33.312	
C	-0.9695900631	 1.1746175361	 0.5283692677	-0.41506
C	-0.4304367648	-0.2471102434	 0.6239384631	 0.045783
C	 0.3837180001	-0.8212604219	-0.5736004153	-0.26869
C	 1.4764472834	-1.3344657149	 0.4016703725	-0.044777
C	 2.6240423824	-0.3529885446	 0.5956092654	-0.052196
O	 3.0713322286	-0.497195781	 1.9457986908	-0.292204
C	 1.9258151242	 0.3441355056	 1.6999344455	 0.422068
C	 2.0128909499	 1.7375298455	 2.2383859651	-0.506536
C	 0.7276711198	-0.615606082	 1.6048564511	-0.134249
H	-0.2001043012	 1.8811975393	 0.2018753196	 0.117855
H	-1.7859311113	 1.2259368435	-0.2009591825	 0.113841
H	-1.36367302	 1.5232348708	 1.4896813198	 0.114795
H	-1.2659280185	-0.9209960442	 0.8422672906	 0.077238
H	-0.1291321579	-1.6014434164	-1.1399895661	 0.102201
H	 0.7416117052	-0.0689995028	-1.2843922018	 0.093696
H	 1.7176252263	-2.3977016598	 0.3944115121	 0.075705
H	 3.3408694028	 0.0157726821	-0.1318118727	 0.094665
H	 1.2532385887	 2.3914043021	 1.8037971441	 0.126087
H	 1.867989689	 1.7337382114	 3.325078678	 0.12899
H	 3.0010416993	 2.1579410602	 2.0330048657	 0.131753
H	 0.4486577069	-1.1153644354	 2.5348363774	 0.069035
