19
gdb 51867	4.41722	0.87028	0.76427	4.5099	79.91	-0.2567	0.0027	0.2595	1473.7479	0.159982	-423.069208	-423.060712	-423.059767	-423.103551	31.296	
O	 0.0685654441	-0.0244601231	 0.2830369231	-0.279018
C	 0.0787135687	 1.1700303907	 0.2940756899	 0.165584
O	 1.0043559833	 1.8998774501	-0.3505737406	-0.191322
C	 0.9458142414	 3.340573527	-0.2357358125	 0.078688
C	 2.0954142792	 3.8248385651	 0.6483953788	-0.217782
C	 2.2692154765	 5.3426281618	 0.5150152677	-0.21704
C	 2.5948955161	 5.7369861373	-0.9337451489	-0.241724
C	 1.7522767411	 4.9851601946	-1.9302396487	-0.057276
C	 1.0137644266	 3.9205711231	-1.6220365728	-0.057926
H	-0.6676069935	 1.7948578425	 0.8253751894	 0.073222
H	-0.0192489092	 3.5991670885	 0.228119765	 0.092085
H	 1.9124839006	 3.5365849831	 1.6888876162	 0.100322
H	 3.0072858141	 3.3094289556	 0.3254302061	 0.121314
H	 1.3427669209	 5.8426121674	 0.825944502	 0.104206
H	 3.0549146823	 5.6928017309	 1.1915603441	 0.103234
H	 2.4603291933	 6.8165664648	-1.0739319299	 0.108953
H	 3.6566592824	 5.545950005	-1.1496142948	 0.117454
H	 1.7639148099	 5.3449632963	-2.9563890396	 0.096566
H	 0.4195926621	 3.4125334894	-2.3762776644	 0.10046
