19
gdb 90744	2.93106	1.43091	1.21521	3.9081	74.54	-0.2313	-0.0293	0.2021	1086.5574	0.159939	-423.0412	-423.033169	-423.032225	-423.073918	30.881	
C	 0.4073155141	 1.5221923719	-0.2547315997	-0.412963
C	 0.1468469005	 0.0603311514	 0.0377381838	 0.166531
O	 0.8562504298	-0.8382413799	-0.8603954443	-0.319974
C	 1.2682345215	-1.6822528971	 0.244337611	 0.026587
C	 0.7560478097	-0.6492611941	 1.2743420795	-0.111913
C	 2.012368495	-0.0215487082	 1.9268247062	-0.238545
C	 3.2078001616	-0.3767992056	 1.0184240158	-0.32809
C	 2.7985233247	-1.6868415429	 0.3426472883	 0.407835
O	 3.525649992	-2.5731043456	-0.0207202056	-0.307303
H	 1.4676882213	 1.7769829239	-0.1801407408	 0.122984
H	 0.0750884955	 1.7581469531	-1.2706788511	 0.134766
H	-0.154736513	 2.1563578967	 0.4394589891	 0.121156
H	-0.932831266	-0.1365655116	-0.0337730231	 0.07868
H	 0.834561182	-2.685011533	 0.197188742	 0.088163
H	 0.0283549879	-0.9818632721	 2.0147842966	 0.081777
H	 1.9036688327	 1.0543387682	 2.0879701723	 0.110202
H	 2.1581091696	-0.4751073261	 2.912761389	 0.112544
H	 3.3508509097	 0.3716472648	 0.2298260666	 0.140539
H	 4.1584844515	-0.4879992538	 1.5425579543	 0.127024
