21
gdb 120321	3.25154	0.99122	0.94496	1.0881	78.25	-0.2455	0.0866	0.3322	1380.8977	0.182667	-424.204495	-424.195575	-424.194631	-424.239118	32.954	
C	 0.071677125	 1.532024503	-0.0207825137	-0.379547
C	 0.2682962043	 0.0152777482	 0.0420311839	-0.158801
C	 0.4678483327	-0.4997512333	 1.4736678654	-0.194705
C	 0.6123948337	-2.0035987399	 1.5444669189	-0.0835
C	 1.8877422783	-2.7195868342	 1.1375367996	 0.035973
O	 3.0498892348	-1.9201196007	 1.0524696074	-0.252868
C	 3.5502593129	-1.8514418894	 2.3758530786	 0.022964
O	 2.4310944834	-1.8971039569	 3.2432277527	-0.252312
C	 1.4789230058	-2.7010603778	 2.5783848508	 0.01986
H	 0.9365704167	 2.0597898721	 0.3964344309	 0.114738
H	-0.061965966	 1.8755400377	-1.0513690748	 0.109807
H	-0.8103891862	 1.8426363576	 0.5506876583	 0.11131
H	-0.5973789804	-0.4862973304	-0.4108621743	 0.088115
H	 1.1395909783	-0.2723847559	-0.5581381398	 0.11041
H	 1.3502453017	-0.0276898167	 1.9147415745	 0.111806
H	-0.3837869424	-0.1986280319	 2.0979994995	 0.093581
H	-0.2873618095	-2.5631667384	 1.2914702352	 0.087127
H	 1.8884044502	-3.5985304136	 0.5016673282	 0.100833
H	 4.2252602189	-2.7016438748	 2.5756646427	 0.091599
H	 4.0741557404	-0.9016414406	 2.5139799053	 0.120972
H	 1.1352875473	-3.5628606143	 3.1405369706	 0.102636
