19
gdb 116395	2.46349	1.42175	0.96221	3.4747	72.42	-0.2518	0.0066	0.2584	1238.8226	0.15934	-460.199599	-460.190807	-460.189863	-460.233654	32.19	
C	 0.0425818648	 1.5257816254	 0.1070360328	-0.392866
C	 0.1282131173	-0.0011465037	 0.0713409152	-0.183764
C	 0.7296430213	-0.5252511244	-1.233010038	-0.028644
O	 2.058853247	-0.0386123786	-1.3409990763	-0.254224
C	 2.7661994757	-0.6831324903	-2.3784086173	-0.104603
C	 2.9295328404	-2.1444367645	-2.0185032343	-0.066604
O	 1.6602031804	-2.7719387463	-1.768905888	-0.231246
C	 0.6041492515	-2.0540173295	-1.3235361274	 0.40413
O	-0.4247849457	-2.6167986675	-1.0647633983	-0.327062
H	 1.0300984495	 1.9776028705	-0.0165333204	 0.133278
H	-0.6037046205	 1.9034828017	-0.6932727742	 0.11429
H	-0.372844705	 1.8666599481	 1.0597148784	 0.116208
H	 0.7443858317	-0.3654255126	 0.9017832329	 0.107058
H	-0.8597485197	-0.4547965099	 0.1806235056	 0.132317
H	 0.133463339	-0.1441191532	-2.0829895623	 0.103531
H	 2.2415285463	-0.5752768324	-3.3419678151	 0.104347
H	 3.7436504097	-0.1993085066	-2.4611117261	 0.12302
H	 3.3963024743	-2.7158348922	-2.826114364	 0.124595
H	 3.5438448619	-2.240789844	-1.1159986835	 0.126239
