15
gdb 51996	5.2249	0.74301	0.6643	6.0986	67.32	-0.2582	-0.0469	0.2113	1586.3864	0.110635	-491.112639	-491.103266	-491.102322	-491.14861	31.305	
N	-0.0202353315	 1.0853927414	-0.2215458662	-0.439432
C	-0.2840967426	-0.1016694228	 0.100544891	 0.149624
O	-0.3494759945	-1.0498367451	-0.8714566612	-0.163461
C	-0.6724357614	-2.3530830307	-0.4684592977	-0.221069
C	-2.1554873352	-2.4945972095	-0.0812809845	 0.417388
O	-2.8307847882	-1.5596981406	 0.2526047711	-0.283006
N	-2.594529826	-3.822851842	-0.1191854398	-0.352856
C	-3.8328405253	-4.3248828533	 0.2925478929	 0.169811
O	-4.7302817911	-3.6934733635	 0.7706091416	-0.239842
H	 0.0093226466	 1.6738834329	 0.6081674047	 0.234462
H	-0.4602097365	-0.4932786713	 1.1086636771	 0.097423
H	-0.426138367	-3.0048226954	-1.3124042232	 0.139309
H	-0.0665688569	-2.6814174145	 0.3910549887	 0.137104
H	-1.9492162395	-4.5103420124	-0.4824419191	 0.260652
H	-3.874805641	-5.4189283632	 0.1169002448	 0.093894
