27
gdb 118488	2.06243	0.94053	0.71606	0.057	96.4	-0.269	0.0821	0.3511	1750.5759	0.251146	-353.55616	-353.544932	-353.543988	-353.593075	41.472	
C	-0.1387874118	 0.9846861795	-1.4727834349	-0.379337
C	-0.1012307562	-0.3376192932	-0.7005744811	-0.176643
C	-1.5005353407	-0.8765552282	-0.3803414176	-0.164049
C	-1.5336038265	-2.2687065324	 0.2821436096	-0.000961
C	-0.7780291435	-2.3442988812	 1.6292586051	-0.184233
C	-1.2902699334	-1.4121858679	 2.7339716964	-0.379431
C	-2.9676271394	-2.7585033392	 0.4107315129	 0.04068
C	-3.6565108069	-3.42340009	-0.754181539	-0.275485
C	-3.2760181908	-4.2332207151	 0.462375943	-0.279382
H	 0.8694562497	 1.3527495811	-1.6877912506	 0.108828
H	-0.662950922	 0.8703141048	-2.428259034	 0.112503
H	-0.6615729417	 1.7609169524	-0.902600755	 0.112358
H	 0.4506080391	-1.0866516936	-1.284816878	 0.091405
H	 0.468754076	-0.1967408251	 0.2258083551	 0.098349
H	-2.031283454	-0.1528836672	 0.2535463638	 0.090177
H	-2.0798946644	-0.9327396225	-1.3113079033	 0.091895
H	-1.0197806843	-2.9636167932	-0.3998449037	 0.05822
H	-0.8310871342	-3.3803228541	 1.9856148583	 0.093261
H	 0.2851950749	-2.1409808984	 1.4553081877	 0.09197
H	-1.2027532004	-0.3571891595	 2.454584628	 0.115741
H	-2.3405158717	-1.6056783382	 2.9743459935	 0.116542
H	-0.7137753186	-1.5541277042	 3.6535786199	 0.110416
H	-3.6058226918	-2.1251840669	 1.0223454852	 0.078329
H	-4.7063944382	-3.2147089772	-0.9285094985	 0.107217
H	-3.0799804758	-3.5777168744	-1.6610716999	 0.107127
H	-2.4464728688	-4.9266770199	 0.3644723285	 0.107494
H	-4.0650503149	-4.5798382559	 1.1208504286	 0.10701
