21
gdb 94449	2.78955	1.36631	1.18734	1.8087	84.11	-0.2343	0.0154	0.2497	1159.5781	0.183298	-387.091699	-387.08318	-387.082236	-387.125326	32.729	
C	-0.3749938709	 1.425750342	-0.1148988282	-0.416892
C	 0.0881763623	-0.0220125718	-0.147747725	-0.091124
C	 1.4639735459	-0.3325755454	-0.7654863508	-0.086888
O	 1.9020117911	-1.011649402	 0.4248384863	-0.328519
C	 0.6758246478	-0.6893593143	 1.1456055866	 0.431525
C	 0.9392696662	 0.1431076654	 2.4224831544	-0.294058
C	 0.0114170734	-0.432554469	 3.5207847876	-0.263505
C	-0.4253022751	-1.7547508963	 2.9398155818	-0.071493
C	-0.0569614951	-1.8931422784	 1.6678883886	-0.12395
H	 0.4129458899	 2.0960099864	 0.2432048917	 0.12193
H	-0.6602825758	 1.7599816285	-1.1185463418	 0.117364
H	-1.248165548	 1.5522826358	 0.5344915156	 0.119674
H	-0.7017381215	-0.6493195724	-0.5716164349	 0.076628
H	 1.4710727981	-0.9895457977	-1.6437647385	 0.096532
H	 2.0803661974	 0.5514048761	-0.9829474249	 0.090975
H	 1.9884537848	-0.0220812546	 2.6843598865	 0.122314
H	 0.8069054239	 1.2167968335	 2.2757334834	 0.096524
H	 0.5168702806	-0.5448630979	 4.4870760284	 0.106816
H	-0.8549198126	 0.216739384	 3.7055138245	 0.107618
H	-0.9939220003	-2.4822073611	 3.5096651148	 0.095662
H	-0.2660916321	-2.7439107308	 1.0286216639	 0.092866
