18
gdb 18987	3.70169	2.15758	2.03982	1.6764	69.55	-0.2399	0.0665	0.3064	767.5698	0.156185	-347.74423	-347.737987	-347.737043	-347.774709	25.304	
C	-0.0868119053	 1.3613359052	 0.5015827289	-0.237846
C	 1.2233508947	 1.6837647986	-0.2859662908	-0.230142
C	 1.3798819116	 0.1800624182	-0.6417994276	-0.040387
C	 0.0206237824	-0.1293740311	 0.0795859746	-0.025837
C	-0.5949228725	-0.5903438581	-1.2837502598	-0.089049
C	-1.1701388255	 0.4681234592	-2.2414304821	-0.090599
O	 0.1420039399	 0.7599528685	-2.7880322107	-0.289658
C	 0.7491063647	-0.2806465584	-1.9921346894	 0.113019
H	 0.0245260377	 1.4893302534	 1.5814113108	 0.099172
H	-0.9885170573	 1.8988137682	 0.1973413268	 0.098151
H	 1.0965439021	 2.328824078	-1.1566229529	 0.120654
H	 2.0295943125	 2.0795032181	 0.3351246579	 0.095827
H	 2.31700627	-0.3083305628	-0.3695868593	 0.060065
H	-0.0629133374	-0.8709107612	 0.8754962242	 0.064973
H	-1.0698776033	-1.5709795687	-1.2880157376	 0.074291
H	-1.8320028706	 0.0540826389	-3.012806377	 0.101118
H	-1.6466713657	 1.3538265958	-1.8069406988	 0.105025
H	 1.3190388018	-0.9871660918	-2.6028915571	 0.071222
