19
gdb 7273	3.99428	1.1285	0.93342	5.0529	72.31	-0.2844	0.0314	0.3157	1248.1858	0.163406	-365.084509	-365.074859	-365.073915	-365.118955	34.542	
C	-0.0098266456	 1.543741757	-0.0383113602	-0.391463
C	 0.0125015274	 0.0097653384	 0.0245516058	 0.009843
C	 0.8363926621	-0.4681984459	 1.2297558726	-0.402912
C	-1.4285546539	-0.5421296369	 0.0292091155	 0.144165
O	-2.1855420648	-0.0602011949	-1.0679721799	-0.417757
C	-1.4714929564	-2.0890908273	 0.0737359666	-0.387822
C	-2.8343030064	-2.6130035045	 0.0266368895	 0.277188
N	-3.9071645569	-3.0406005677	 0.002797363	-0.304772
H	 1.0037162797	 1.9403590596	-0.1511571481	 0.112392
H	-0.6198108701	 1.8971316075	-0.8716289339	 0.129507
H	-0.4304256	 1.9615273054	 0.8840256078	 0.117521
H	 0.4956155791	-0.3660363298	-0.8921490402	 0.064922
H	 1.8155926397	 0.0198298687	 1.236075063	 0.122354
H	 0.3368576271	-0.2120434251	 2.1716516145	 0.122643
H	 1.0129034942	-1.5475793882	 1.2232044126	 0.11684
H	-1.9515448628	-0.1601740585	 0.9145115084	 0.108859
H	-1.7555912242	-0.3440572978	-1.8832201306	 0.28202
H	-0.9071119017	-2.4983962526	-0.7747605047	 0.139799
H	-0.9905850367	-2.4632168673	 0.9823873782	 0.156673
