16
gdb 51897	6.87468	0.71179	0.6502	3.0528	74.44	-0.2398	-0.0286	0.2112	1611.6426	0.123316	-434.089551	-434.080733	-434.079789	-434.125675	30.237	
O	 0.3764725559	-0.2579272936	 0.2656953271	-0.245381
C	 0.405290041	 0.7076476998	-0.4500897082	 0.149852
C	 0.8416524223	 2.0927483481	 0.0130915461	-0.253767
N	 0.7668670037	 3.0394926186	-1.0788075942	-0.352676
C	 1.0973376077	 4.2436428419	-0.8599236454	 0.42607
C	 1.0930858958	 5.3945842159	-1.8600745289	-0.26121
N	 1.5556490469	 6.5850360919	-1.1308972992	-0.238536
C	 1.7827109747	 6.1943111516	 0.0605580977	 0.072209
N	 1.545206957	 4.8466737937	 0.3163603385	-0.355052
H	 0.1127118284	 0.670876889	-1.522256536	 0.097016
H	 0.1958055134	 2.3688621004	 0.8641249367	 0.125393
H	 1.861114418	 1.9916975092	 0.4230891431	 0.125385
H	 1.7529655543	 5.1852433284	-2.7086650932	 0.150657
H	 0.0908345462	 5.5615053498	-2.2686929821	 0.150655
H	 2.1396046336	 6.8346027057	 0.8607873557	 0.140512
H	 1.6754976012	 4.3855628297	 1.2000472722	 0.268876
