16
gdb 26492	3.75221	1.28807	1.0432	2.148	71.64	-0.2285	0.0014	0.2298	1117.2036	0.124853	-437.896775	-437.889099	-437.888155	-437.929283	29.259	
O	-0.007984303	 1.3711225752	 0.0559223175	-0.449855
C	-0.0011829581	-0.026623442	-0.0137682202	 0.279801
C	-0.5447228987	-0.8105985237	 1.1644572419	-0.324523
C	-1.3633090558	-0.6641166365	-0.0951043159	-0.289668
C	 1.1227592583	-0.5566551491	-0.8032446239	 0.307449
C	 2.0941209301	 0.0220631456	-1.5535450574	-0.225674
N	 2.921504852	-0.9672599754	-2.0796036189	-0.252981
C	 2.4192322996	-2.0677689161	-1.6343226255	 0.063483
O	 1.3233911007	-1.9116594065	-0.8460179986	-0.189989
H	 0.7328892069	 1.6409940316	 0.6114125135	 0.28787
H	-0.1005321641	-1.7745001216	 1.3835144299	 0.129834
H	-0.8415351474	-0.2230596783	 2.0258425159	 0.122386
H	-2.2027298012	 0.0209490513	-0.0770576388	 0.133351
H	-1.4774636981	-1.5277146834	-0.7395916022	 0.129836
H	 2.2489133279	 1.0674303905	-1.7616419256	 0.129122
H	 2.7500003707	-3.0801784215	-1.8037798617	 0.149559
