17
gdb 40538	4.98907	1.09694	1.01459	1.9788	73.75	-0.2365	0.009	0.2455	1192.6057	0.137771	-417.970464	-417.963089	-417.962145	-418.003501	28.145	
C	-0.3916214682	 0.976072241	-0.508361358	-0.22386
N	 0.6473470844	 1.4874865655	 0.3905716795	-0.299356
C	 0.4393498362	 0.0229482995	 0.2690238396	-0.148989
C	-0.1040056993	-0.6610622903	 1.4623946699	 0.454167
N	-1.1981055565	-0.4115578968	 2.0673893721	-0.315251
C	-1.2905772157	-1.3601938494	 3.1504876278	-0.018699
C	-1.3662631104	-2.8200120056	 2.7433099295	-0.318597
C	-0.032729693	-2.2053717147	 3.0534277547	 0.05623
O	 0.6848352885	-1.6665808234	 1.9538959046	-0.254138
H	-1.4060632242	 1.1577879565	-0.1689510332	 0.148424
H	-0.2371435066	 1.0220445718	-1.5831598681	 0.11455
H	 1.4749110261	 1.7432301123	-0.1432631387	 0.237002
H	 1.1951389266	-0.5528510313	-0.2557539568	 0.10537
H	-1.7522911174	-1.0181889165	 4.0685307993	 0.104009
H	-1.7501291926	-3.5148710037	 3.4822993237	 0.121195
H	-1.6131165722	-3.0524486842	 1.7126866263	 0.124967
H	 0.6102903442	-2.5439386007	 3.8550515278	 0.112977
