15
gdb 1732	5.87259	1.4271	1.27718	1.6153	66.92	-0.2283	0.0429	0.2712	969.1506	0.12287	-308.476587	-308.468509	-308.467565	-308.509777	28.414	
C	 0.0049258068	 1.4745741619	-0.0029170104	-0.499124
C	 0.0035081981	 0.0191453161	 0.0084529848	 0.004164
C	-0.0084455315	-1.1861001057	 0.0079345685	 0.082014
C	 0.0346110991	-2.6262381986	 0.0144687811	 0.238091
O	 1.1275588041	-3.2021776564	-0.6573275107	-0.445289
C	-0.5132892524	-3.379522366	 1.2170040134	-0.313547
C	-1.2355560492	-3.4257954182	-0.1071120758	-0.290403
H	 0.7514957424	 1.8605068022	-0.7059266069	 0.150891
H	-0.9697172818	 1.870629926	-0.3093967125	 0.149769
H	 0.2359514337	 1.8870824411	 0.9856391191	 0.146298
H	 1.9295107994	-2.8716409596	-0.236942132	 0.282773
H	 0.0445186587	-4.2609266953	 1.5124610074	 0.119463
H	-0.9463249175	-2.804730088	 2.0271910388	 0.120817
H	-2.1674049875	-2.8841612806	-0.2130917348	 0.124952
H	-1.1556881225	-4.3353751991	-0.6911420999	 0.129131
