18
gdb 105857	2.08571	1.62782	1.26215	1.7824	74.29	-0.2164	0.0135	0.2299	1090.5848	0.147361	-435.20219	-435.193038	-435.192093	-435.236206	33.573	
C	 0.0928493482	 1.3433863294	 0.2221234835	-0.263833
O	 0.042110497	-0.0288973559	-0.1609344741	-0.274117
C	-1.2218489644	-0.5485234457	-0.1233198445	 0.324428
C	-1.8530341009	-1.1456430581	 1.1619394198	-0.059137
N	-3.1444739291	-0.9000294665	 1.7406037405	-0.524157
C	-1.6344033534	-2.0181069152	-0.0366387854	-0.125411
N	-2.6285044109	-1.7758494703	-1.0943455379	-0.347339
C	-2.2974541389	-0.393274037	-1.1670230653	 0.294273
N	-2.7066817883	 0.5928628416	-1.8413163003	-0.554175
H	 1.136117717	 1.6532300653	 0.1359231204	 0.129099
H	-0.5303587006	 1.9586674475	-0.4361331787	 0.149661
H	-0.2385008983	 1.4764429351	 1.2616438318	 0.104617
H	-1.0749824541	-1.2767740207	 1.9130216903	 0.114006
H	-3.1652948566	 0.0162775788	 2.1788080382	 0.238368
H	-3.8622685308	-0.8852875169	 1.0226128918	 0.226016
H	-1.0171527828	-2.9072453414	-0.0657569414	 0.12015
H	-3.5922343132	-2.0733638954	-0.9772587272	 0.232302
H	-3.4753696397	 0.3314971453	-2.4624527614	 0.215247
