14
gdb 2787	4.38748	2.39241	1.65451	1.6477	55.21	-0.2561	0.0144	0.2705	738.5719	0.113208	-361.692023	-361.685066	-361.684122	-361.723232	24.279	
C	-0.18449886	 1.3769202544	-0.1803548344	-0.250432
O	 0.2501185726	 0.0499893281	 0.0806858388	-0.240823
C	 0.7655121353	-0.5887071747	-1.0462753179	 0.005233
C	 1.1081746852	-2.0705436337	-0.8117542799	-0.113191
O	 0.1682063236	-2.4622419022	-1.8635564899	-0.251288
C	-0.2317923737	-1.1570544262	-2.0579810626	 0.420813
N	-1.1201720682	-0.6688753727	-2.7953196582	-0.544586
H	 0.6487047146	 2.0038214884	-0.5327497689	 0.107754
H	-0.9836678988	 1.3962720361	-0.930062748	 0.150124
H	-0.5565308016	 1.7765935258	 0.765145775	 0.13037
H	 1.5666422261	-0.0005912175	-1.5182449202	 0.095984
H	 2.1230032979	-2.3949165807	-1.0488335416	 0.124009
H	 0.7884591924	-2.4425683858	 0.1635686672	 0.135295
H	-1.6197778754	-1.3938273893	-3.3143213195	 0.230738
