17
gdb 41175	3.19229	1.93977	1.62446	0.8123	71.1	-0.2409	-0.0047	0.2362	859.4377	0.138478	-421.773308	-421.767214	-421.76627	-421.803311	26.43	
C	 0.0179380767	 1.5062162687	-0.1551488544	-0.168368
O	 1.4644463396	 1.4819276795	 0.1034451882	-0.366327
C	 1.3090547638	 0.2263501216	 0.7658612333	 0.409997
C	 0.8599627329	 0.2434798565	 2.2612243591	-0.277842
C	 0.2036694283	-1.1215967067	 2.0695892338	 0.042964
O	-0.7949532581	-0.7795822333	 1.0097232526	-0.296898
C	-0.0402329799	-0.034832308	 0.0859577978	 0.081493
C	 1.3751815627	-1.9042306006	 1.4711723889	-0.087746
C	 2.0966408403	-1.0535094355	 0.7158541149	-0.180964
H	-0.5138146114	 2.1237185659	 0.5759307073	 0.115489
H	-0.1926887707	 1.8491080338	-1.1707750368	 0.116113
H	 1.7085239395	 0.2478742269	 2.9451715865	 0.109394
H	 0.1476618672	 1.030424828	 2.5137901001	 0.106893
H	-0.3495413201	-1.5858047409	 2.8819409043	 0.08408
H	 0.0362783103	-0.5629624422	-0.8691216623	 0.086877
H	 1.5189225565	-2.9721544527	 1.5681207825	 0.107296
H	 2.9356023426	-1.2731961211	 0.0692678743	 0.117551
