21
gdb 113902	3.68923	0.77766	0.69393	2.2586	80.3	-0.238	-0.0048	0.2333	1683.5025	0.178923	-424.222234	-424.211653	-424.210709	-424.259624	36.913	
C	-0.6067293272	 1.0557186455	 0.1322229387	-0.230301
O	 0.468992987	 0.1715064271	-0.1089812158	-0.238419
C	 0.9421978398	-0.4380610782	 1.0519304897	 0.094227
C	 0.2359086007	-1.6645781539	 1.5801190797	-0.31622
C	 1.5857107636	-1.7816880766	 0.8981934231	-0.02148
C	 1.6950132135	-2.421348712	-0.4643641374	-0.323318
C	 1.9115375305	-3.9302497381	-0.4114451857	 0.381021
C	 1.8528010615	-4.6563852968	-1.7451838931	-0.473205
O	 2.1276593624	-4.5152745752	 0.6248230266	-0.291831
H	-0.3120242715	 1.8769840394	 0.8030265168	 0.106855
H	-0.9017164405	 1.4762497394	-0.8321244968	 0.12541
H	-1.4663963468	 0.5367593792	 0.5798227422	 0.109575
H	 1.3688100417	 0.2589665605	 1.7755640543	 0.084142
H	 0.171430888	-1.8241610541	 2.650488298	 0.114677
H	-0.6281679024	-2.0041576971	 1.0175507821	 0.112414
H	 2.4278144708	-1.9856163111	 1.5509087447	 0.101499
H	 0.8137642438	-2.1975511619	-1.0753639208	 0.125565
H	 2.5389804357	-1.9951062734	-1.0279642269	 0.124723
H	 2.5003427878	-4.1720493112	-2.4840795062	 0.134307
H	 2.148472466	-5.6980900055	-1.6150759717	 0.140718
H	 0.8323978155	-4.6163946461	-2.1443531116	 0.13964
