20
gdb 92890	2.21089	1.74836	1.05115	3.2947	82.33	-0.2359	0.0152	0.2511	1176.5541	0.171685	-403.19934	-403.190236	-403.189291	-403.233507	33.534	
C	-0.3642857218	 1.4735411612	 0.0557551358	-0.38464
C	 0.0677995582	-0.0049091071	-0.0433167726	-0.16196
C	 0.8447785164	-0.2782127493	-1.2956341725	-0.047167
C	 2.0625910588	-0.8039419858	-1.2949225911	-0.091383
C	 2.7768170745	-1.1988618986	-0.0445415238	-0.190445
N	 2.0242488411	-0.960995752	 1.1754760029	-0.11726
C	 2.6998552638	-1.3527415323	 2.4014162907	-0.34316
C	 0.7694713396	-0.4162368171	 1.2546710275	 0.415071
O	 0.1999859594	-0.2500240155	 2.3227419866	-0.39825
H	 0.5082558232	 2.1347287633	 0.059620277	 0.117443
H	-0.9915629846	 1.7460469123	-0.7985777	 0.10961
H	-0.9268238414	 1.6312481047	 0.9772129374	 0.14627
H	-0.8556201411	-0.6023526261	-0.0586224689	 0.113467
H	 0.3648330264	-0.0098108199	-2.2342127388	 0.093588
H	 2.6026246326	-0.9800124129	-2.2204974091	 0.097956
H	 3.0448286267	-2.2679943309	-0.094685505	 0.115812
H	 3.7405708179	-0.6653490909	 0.0179462827	 0.115293
H	 3.6405607593	-0.7994226592	 2.5171379112	 0.119297
H	 2.0413392204	-1.1337367965	 3.2395583603	 0.171177
H	 2.9342721706	-2.4247935774	 2.3868621497	 0.119283
