19
gdb 58924	2.88112	1.59492	1.22437	2.8774	74.53	-0.2442	0.0618	0.306	1054.8577	0.158325	-422.931476	-422.9234	-422.922456	-422.964238	31.692	
C	-0.0096772897	 1.6124891592	 0.0821295851	-0.391072
C	-0.0584366231	 0.0855151257	 0.0826659798	 0.019007
O	 0.5531307671	-0.3891176695	 1.2789199534	-0.457456
C	-1.4616969436	-0.4515769108	-0.0304897078	 0.305409
C	-2.6027736162	-0.1987844269	-1.0435423721	-0.342085
C	-3.2328719092	-1.2134297125	-0.0610107279	-0.099818
C	-1.8804360777	-1.9521643702	 0.1418695571	 0.030233
O	-1.9148413309	-1.889241908	 1.6074438408	-0.335789
C	-2.4744064594	-0.6083140453	 1.1559141804	 0.047598
H	 1.0203193375	 1.9446625639	 0.2366329258	 0.12759
H	-0.3674675033	 2.0195463178	-0.8691656022	 0.109817
H	-0.622762733	 2.0171491532	 0.8937287275	 0.114344
H	 0.5173539773	-0.2798593033	-0.7856844739	 0.067794
H	-0.0098602696	-1.0812582816	 1.6533437256	 0.294909
H	-3.0352276628	 0.8052141358	-1.0526641098	 0.107929
H	-2.4349795339	-0.5506725492	-2.0652309558	 0.105727
H	-4.2268244232	-1.6587435469	-0.0534985224	 0.09063
H	-1.4883827672	-2.8516014815	-0.3324253074	 0.101384
H	-2.8021515391	 0.1091796601	 1.9069869439	 0.103847
