15
gdb 79385	3.43079	1.37484	1.11776	2.6345	72.23	-0.2356	0.0104	0.246	1058.5649	0.110568	-420.486103	-420.478565	-420.477621	-420.517956	29.62	
O	-0.0355574653	 1.510467501	-0.0419860229	-0.438164
C	 0.0683345344	 0.1067655371	-0.0281109467	 0.097383
C	 0.0707163932	-0.5989455319	 1.3457036929	-0.19828
C	-1.4677415079	-0.3906014955	 1.5149438531	 0.048301
O	-1.7523842001	-1.7920423775	 1.7955317992	-0.36111
C	-0.7138406904	-1.8302324348	 0.7616171878	 0.450575
C	-0.2202982574	-3.0738077588	 0.2655093783	 0.088189
C	 0.2078756549	-4.1125239627	-0.162881601	-0.377534
C	-1.2928394252	-0.5960380639	-0.0228326689	-0.167149
H	 0.8456702963	 1.8822909167	 0.0631676026	 0.287679
H	 0.7981413389	-0.2626120183	-0.7597193792	 0.082773
H	 0.8245432735	-0.6359215339	 2.1317437609	 0.091889
H	-2.0158306506	 0.3723628413	 2.0599235129	 0.109023
H	 0.580285159	-5.0341142319	-0.5375420614	 0.189177
H	-2.0731664932	-0.6235584669	-0.7816187275	 0.097248
