20
gdb 115161	2.42566	1.32029	1.04677	2.1939	74.58	-0.2324	-0.0323	0.2001	1225.2063	0.1709	-440.303254	-440.294086	-440.293142	-440.337253	34.45	
C	 0.2943204376	 1.3801665292	 0.3163763559	-0.387912
C	 0.3936729709	-0.1286084085	 0.0873823715	-0.154122
C	 0.4852759606	-0.4958994796	-1.3971651984	-0.05303
N	 1.7473325947	-0.0046026011	-2.0130664602	-0.296804
C	 2.7798285268	-1.032711984	-1.8100041992	-0.283706
C	 2.0249643622	-2.3077756514	-1.4454822468	 0.35858
O	 2.4555719062	-3.3384957519	-0.9909744875	-0.32828
C	 0.5382516815	-2.0239964541	-1.6352669331	 0.04967
O	-0.2597160622	-2.8336307714	-0.8220743712	-0.435739
H	 1.1438648635	 1.8955092492	-0.1400402486	 0.130523
H	-0.6217221359	 1.7861987639	-0.1281899108	 0.109667
H	 0.2775239944	 1.617746617	 1.3841431015	 0.110629
H	 1.2703677576	-0.5279067076	 0.6157043999	 0.09346
H	-0.4720664439	-0.6474777699	 0.5104305648	 0.119504
H	-0.3547983097	-0.0395018124	-1.9289100934	 0.081288
H	 1.6030660065	 0.1475538835	-3.0035807202	 0.22699
H	 3.4027138886	-1.1797654845	-2.6980066974	 0.135637
H	 3.4587336188	-0.7775309082	-0.9862624639	 0.143557
H	 0.3176782577	-2.1990775081	-2.7059949316	 0.08766
H	 0.3157550043	-3.5539890202	-0.5206116614	 0.292428
