19
gdb 85658	1.98916	1.58089	1.13103	1.8828	83.02	-0.2472	0.0084	0.2556	1168.5061	0.158004	-385.872731	-385.863464	-385.86252	-385.906797	35.032	
C	-0.3482909162	 1.495175877	 0.0317114198	-0.49522
C	-0.1702570964	 0.0125307278	-0.0171694725	 0.330738
C	-0.0916205007	-0.778055732	-1.089367717	-0.212108
C	 0.1967237398	-2.2182206266	-0.7358137355	 0.103772
O	 1.5429518394	-2.5820753464	-1.038877358	-0.434017
C	-0.1416384891	-2.2679484355	 0.7730631616	-0.258528
C	 0.0014443281	-0.8001282794	 1.2724132754	-0.261089
C	 1.293763616	-0.5161834777	 1.8965129401	 0.340377
C	 2.3716592287	-0.282002714	 2.3774735467	-0.494149
H	 0.4846619802	 1.9662823633	 0.5670986389	 0.141897
H	-0.4056847622	 1.9276533416	-0.9702518467	 0.127344
H	-1.2630327745	 1.7654350663	 0.5747003253	 0.127284
H	-0.1394146493	-0.4345819087	-2.1172673566	 0.09471
H	-0.4086652631	-2.9311713771	-1.3040431148	 0.084604
H	 2.1143655226	-1.9240474368	-0.625517822	 0.279138
H	-1.1811005012	-2.5823923241	 0.9059524059	 0.105022
H	 0.5009050987	-2.9703457849	 1.3062013249	 0.117718
H	-0.7894067482	-0.5574084257	 1.9938880717	 0.103284
H	 3.3166756374	-0.0786881471	 2.817173423	 0.199223
