14
gdb 5681	5.19586	2.24204	1.58148	3.3086	68.91	-0.2137	-0.0133	0.2004	757.0818	0.11085	-341.628479	-341.622858	-341.621914	-341.657986	22.494	
C	-0.051407756	 1.4963688348	 0.010555947	-0.40921
C	 1.4230124607	 1.8677373925	-0.001497864	-0.128606
C	 2.1759856186	 0.7597889859	-0.0146877993	-0.02752
N	 1.3433292659	-0.3739351798	-0.0128587432	 0.008978
C	 1.3847041209	-1.7492313157	-0.0206122417	-0.161171
C	 0.0628556037	-2.130131879	-0.0098972287	-0.092948
N	-0.7849125171	-1.0356861309	 0.0039700297	-0.361776
C	 0.0213540746	-0.0043836447	 0.0017835299	 0.386671
H	-0.5684777114	 1.8840898813	 0.8966713014	 0.147555
H	-0.5852251818	 1.8935617341	-0.8613203806	 0.147555
H	 1.7961251679	 2.8806293982	 0.0003948285	 0.116271
H	 3.2500798847	 0.6497363656	-0.0255574188	 0.137574
H	 2.3047800485	-2.3082430786	-0.0324441902	 0.129137
H	-0.3277575993	-3.1365263637	-0.01148924	 0.107492
