19
gdb 86156	2.78085	1.29849	0.93038	3.4566	78.62	-0.2401	-0.052	0.188	1247.4026	0.159061	-423.063926	-423.055081	-423.054137	-423.097396	33.444	
C	 0.031093999	 1.5675599727	-0.0179158146	-0.39889
C	 0.0986189796	 0.0402532424	-0.0053676006	-0.118785
C	 0.7705461111	-0.5433531977	-1.2595764458	-0.212845
C	 0.7734292412	-2.0695998003	-1.2424978312	 0.064735
O	 1.5815196294	-2.5055782929	-2.3297077601	-0.432002
C	 1.287845377	-2.5927752614	 0.0765568304	-0.077308
C	 1.2944739667	-1.8736167306	 1.2037277107	-0.146743
C	 0.7748133196	-0.4875868102	 1.2646555444	 0.388158
O	 0.8613253596	 0.1731793566	 2.280605953	-0.337545
H	 1.0332102874	 2.0006173181	-0.1029853077	 0.121634
H	-0.5655578617	 1.9209940732	-0.8641392393	 0.107932
H	-0.4102665847	 1.9396412915	 0.9083493095	 0.137241
H	-0.9301773152	-0.3553808776	 0.0360817837	 0.099362
H	 0.2686908888	-0.1878163223	-2.1646706174	 0.10863
H	 1.8133268167	-0.2077893198	-1.3160216815	 0.117303
H	-0.2632955756	-2.429900735	-1.3758159173	 0.083201
H	 1.4876651199	-3.4595302407	-2.4183553172	 0.28455
H	 1.6670905962	-3.6138833111	 0.0752741466	 0.100991
H	 1.685038505	-2.2673353248	 2.1371647544	 0.110381
