23
gdb 109810	3.28126	0.85013	0.77666	0.7897	91.96	-0.2535	0.0588	0.3123	1590.1532	0.203386	-351.115201	-351.104404	-351.10346	-351.151567	39.554	
C	 2.6334534559	 1.7914734032	-0.0820508486	-0.380846
C	 2.1057280133	 0.3808539549	 0.2096071571	-0.188358
C	 1.8808412764	-0.4258734635	-1.0556978467	-0.03707
C	 2.963330584	-1.2557795903	-1.7246597418	-0.008319
C	 4.3733844304	-1.378370928	-1.1842402647	-0.411866
C	 1.7740824414	-1.9369954418	-1.0813890264	-0.040582
C	 1.8954619896	-2.7883367766	 0.1781266374	-0.379624
C	 2.2587360054	-4.1724191532	-0.116136065	 0.307865
C	 2.5511511228	-5.3084939154	-0.3787969538	-0.449033
H	 3.6030864539	 1.7534489509	-0.5888324911	 0.120161
H	 1.9440572009	 2.3431303955	-0.7307745042	 0.114237
H	 2.7566183867	 2.36803447	 0.8401564272	 0.109689
H	 2.8010721196	-0.1293129433	 0.8838830668	 0.093414
H	 1.1576405231	 0.455699805	 0.7589251667	 0.096315
H	 1.2071448984	 0.0787102724	-1.7463993164	 0.07801
H	 2.9352536486	-1.2448399183	-2.8116337328	 0.080802
H	 4.420052305	-1.3315854036	-0.0934450034	 0.114313
H	 4.8220164557	-2.330406347	-1.4873006926	 0.127648
H	 5.0075929297	-0.5727415153	-1.5701270274	 0.115931
H	 1.0410862467	-2.3426600836	-1.7734819116	 0.08965
H	 2.6311635097	-2.3661171969	 0.8698817596	 0.126404
H	 0.9389884438	-2.7753136235	 0.7179737522	 0.129359
H	 2.8128712689	-6.3128567916	-0.6016271905	 0.191901
