17
gdb 125988	4.42791	1.14523	0.97303	2.75	76.17	-0.2098	0.0295	0.2393	1206.8969	0.1376	-417.998406	-417.990493	-417.989549	-418.031252	29.865	
C	-0.3126159316	 1.4919877347	 0.0790293486	-0.397862
C	-0.0148281213	-0.0002786001	-0.0016679039	-0.140934
C	 0.8292379246	-0.4858491323	-1.2583210227	-0.183305
N	 1.7754609684	-1.0212771867	-0.2727800516	 0.065101
N	 3.0626080627	-1.3972391701	-0.0822398207	-0.405414
C	 3.2004308933	-1.1794215516	 1.2307652842	 0.446462
O	 4.3433470644	-1.5016389839	 1.8717194593	-0.42446
C	 2.0568526821	-0.6103424084	 1.8659624844	-0.49822
C	 1.1655273707	-0.5269614481	 0.814222127	 0.389578
H	 0.596701257	 2.0846664585	-0.0606105562	 0.129502
H	-1.0382251161	 1.786490542	-0.6860651387	 0.122535
H	-0.7332302052	 1.7478891076	 1.0563574706	 0.130334
H	-0.9330842524	-0.5813056568	 0.1284143594	 0.100104
H	 0.3790618612	-1.2380851161	-1.9121113518	 0.124245
H	 1.2328517849	 0.3385508005	-1.8542992478	 0.129553
H	 4.9421519448	-1.8669524318	 1.2082558967	 0.303373
H	 1.9538230826	-0.3455805775	 2.9036534731	 0.109408
