14
gdb 12047	4.00495	1.74507	1.55368	2.8701	63.06	-0.2514	0.0212	0.2726	833.7265	0.104564	-382.451861	-382.444417	-382.443472	-382.483251	28.25	
O	-0.0939920188	 1.4266906156	-0.0492723379	-0.458227
C	-0.0091676461	 0.0238017798	 0.0178224441	 0.236092
C	 0.261516296	-0.6406337371	 1.4419675861	-0.329126
C	-1.1074309823	-1.3146763735	 1.3183661911	 0.055064
O	-2.0708952993	-0.2617436439	 1.2160948445	-0.239071
C	-1.3943530507	-0.6629565802	 0.0306848026	-0.009897
C	 0.8630251232	-0.5251088803	-1.0149560398	 0.275061
C	 1.5942912041	-0.9472371607	-1.8713664059	-0.482687
H	 0.7879977945	 1.7712019852	-0.2259889545	 0.287217
H	 1.1150643829	-1.3197449487	 1.4356184591	 0.119513
H	 0.3376079746	 0.0783314528	 2.259790335	 0.120559
H	-1.4424303349	-2.2697263395	 1.7029419917	 0.109135
H	-1.9881827087	-0.9615316408	-0.8249276178	 0.112128
H	 2.2354194254	-1.3241487789	-2.6299290383	 0.204238
