16
gdb 126644	5.95117	0.73789	0.68518	1.7063	70.26	-0.2723	-0.0679	0.2044	1616.7384	0.12205	-471.132045	-471.12329	-471.122346	-471.167372	30.227	
C	-0.1691039048	 1.4745193375	-0.0516908706	-0.382739
C	 1.0776417131	 0.681183519	 0.3455151542	-0.154503
C	 0.7312468702	-0.605150784	 1.1016049606	-0.158495
N	 1.9476054751	-1.2852756903	 1.535562854	-0.344711
C	 2.1479381688	-2.4754086988	 1.2489814021	 0.572264
O	 1.3662564153	-3.3736134582	 0.5435472664	-0.234848
N	 2.0660577929	-4.5785663074	 0.5061090527	 0.060284
N	 3.1371030652	-4.4620455007	 1.1076114419	 0.070259
O	 3.2762009815	-3.1795627281	 1.6104304376	-0.227722
H	-0.751435866	 1.7675834941	 0.8289388506	 0.117797
H	 0.1011860972	 2.3876330715	-0.5897112998	 0.119305
H	-0.8265126907	 0.8878049741	-0.7029186208	 0.117309
H	 1.6599355752	 0.4220742004	-0.5468619329	 0.101824
H	 1.7338249464	 1.2895352095	 0.9775572329	 0.114482
H	 0.1596250811	-0.3491947667	 2.0027822285	 0.118327
H	 0.0881605994	-1.2446713819	 0.4812139627	 0.111167
