21
gdb 33780	3.32403	1.33595	1.14638	0.8545	88.23	-0.2519	0.0509	0.3028	1143.7687	0.184689	-349.927689	-349.919728	-349.918784	-349.959651	32.82	
C	 0.0058230377	-1.216660236	-0.0560721159	-0.374769
C	-0.008400213	-0.0142743245	-0.0084210912	 0.137605
C	-0.0255189119	 1.4327600604	 0.0482504989	 0.189652
C	-0.1977820163	 2.1307616996	 1.4436095212	-0.263481
C	 0.70292901	 3.2674430334	 0.8778990632	-0.021803
C	 1.3364410658	 2.1955987651	-0.0468064144	-0.243933
C	-0.1172639287	 4.2546585947	 0.0318224267	-0.200891
C	-1.3039037142	 3.5337241272	-0.6499421886	-0.215269
C	-1.0035483716	 2.0541829588	-0.9823223304	-0.245872
H	 0.020616264	-2.2774644808	-0.0954949491	 0.179813
H	-1.2110291134	 2.3672870758	 1.7779200732	 0.096562
H	 0.3133803386	 1.5604190378	 2.2219222314	 0.106359
H	 1.3660469668	 3.7831005233	 1.5756916076	 0.061586
H	 2.1353258383	 1.6392616216	 0.4486635984	 0.10317
H	 1.6661738644	 2.5017087657	-1.0446162366	 0.090954
H	-0.4986322787	 5.0724300514	 0.6537790647	 0.093016
H	 0.5443781526	 4.7137718268	-0.7132581147	 0.09657
H	-2.1614702906	 3.5646002113	 0.0299449202	 0.106416
H	-1.6195808149	 4.0690793658	-1.5506233722	 0.095354
H	-0.5575011367	 1.9513133958	-1.9783209395	 0.104338
H	-1.9373043882	 1.4832837467	-0.9983625627	 0.104624
