19
gdb 111847	2.54886	1.50308	1.20386	2.6215	70.66	-0.2438	0.0786	0.3225	1099.0722	0.159057	-460.134826	-460.126216	-460.125272	-460.168051	32.496	
C	-0.1810506517	 1.542098954	-0.06709394	-0.469119
C	 0.0061999956	 0.0554492698	 0.0319124133	 0.369735
O	-0.539770865	-0.6854758831	-1.0520676282	-0.284045
C	-1.4039442092	-1.6394296555	-0.4688654495	 0.008351
O	-0.848132227	-1.985468733	 0.7914479484	-0.264979
C	-0.2050071328	-0.8031583041	 1.2381109012	-0.013299
C	 1.2032500623	-0.6063974121	 0.7094801321	-0.132984
C	 1.9389444154	-1.7830385099	 0.0908472296	-0.095218
O	 2.0131315305	-2.899343352	 0.9631231441	-0.427173
H	 0.339196801	 1.9371803523	-0.9456506811	 0.135453
H	-1.2417677659	 1.7986956888	-0.1544735718	 0.125813
H	 0.224680393	 2.0396843506	 0.8183279605	 0.123565
H	-2.4125234014	-1.2141763805	-0.3307717207	 0.096513
H	-1.443309115	-2.5297376953	-1.1019018294	 0.12537
H	-0.5246769831	-0.4473250107	 2.211787672	 0.106898
H	 1.8081813809	 0.0655452215	 1.3137273438	 0.092706
H	 1.4680520889	-2.0476625665	-0.8641029436	 0.104407
H	 2.9720679185	-1.4943523358	-0.1245145127	 0.107801
H	 1.100521185	-3.1719966884	 1.1158967521	 0.290205
