15
gdb 30964	2.36195	1.48368	0.93876	5.2516	65.8	-0.2046	0.0364	0.241	1194.7207	0.112973	-491.119334	-491.110808	-491.109864	-491.152778	30.824	
C	-0.1252463182	 1.4600067589	 0.1596881955	-0.338716
N	-0.141860033	 0.1477361165	-0.4919308406	-0.391762
C	-1.1800804253	-0.7042680497	-0.2088538778	 0.385884
C	-1.2434309112	-2.0155544682	 0.048180535	 0.133433
N	-0.2509227322	-2.9671343334	 0.1887057824	-0.603278
O	-2.6243776364	-2.3616737546	 0.1124668822	-0.239687
C	-3.3370634232	-1.2294902043	-0.0615412782	 0.494805
O	-4.5213443018	-1.1156502996	-0.0391940125	-0.378358
O	-2.4566438041	-0.187836226	-0.2739230356	-0.239625
H	 0.695638904	 2.0451715822	-0.2596989619	 0.133718
H	-1.0609870613	 1.9779519502	-0.0568899629	 0.162254
H	-0.0020741995	 1.4033168685	 1.2509536191	 0.119806
H	 0.7389681815	-0.3466866991	-0.4302386271	 0.254229
H	-0.2693558106	-3.4391943289	 1.087369221	 0.253535
H	-0.2542446287	-3.6695386123	-0.5450046685	 0.253763
