21
gdb 119176	2.2866	1.10281	0.84801	2.1933	78.76	-0.2615	0.0769	0.3384	1417.0969	0.181482	-424.177494	-424.167944	-424.166999	-424.212222	35.473	
O	-0.1894399422	 1.4842477006	-0.1298731531	-0.419484
C	-0.0139063168	 0.1060146523	 0.1651258052	-0.103711
C	-1.327295455	-0.5888779038	-0.1770918692	-0.271235
C	-1.3363783288	-2.1093657848	-0.0835704367	 0.341045
C	-0.3257927871	-2.9368910399	-0.8487391764	-0.306884
C	-0.247766476	-2.8674891462	 0.6534662227	-0.306787
C	-2.7030461472	-2.7270567001	 0.0103731232	 0.035234
O	-3.649567377	-2.1370696697	 0.9061105524	-0.240555
C	-3.9342243946	-2.1068225382	-0.4965755105	-0.200537
H	 0.6088508991	 1.9511106676	 0.1332163052	 0.28551
H	 0.8177993021	-0.3166535326	-0.4221257153	 0.084758
H	 0.2254335219	-0.0426608481	 1.2287668969	 0.093681
H	-2.0985936567	-0.1963244671	 0.4941214304	 0.129624
H	-1.6022506257	-0.2806856011	-1.1934762828	 0.108631
H	-0.662929387	-3.8613562299	-1.3068445113	 0.1117
H	 0.4266417065	-2.4105834722	-1.4258719325	 0.115388
H	 0.5680119866	-2.3095488708	 1.0971606929	 0.11581
H	-0.5402339625	-3.7422025709	 1.2249187543	 0.114192
H	-2.685673788	-3.8186112652	 0.0575404538	 0.083153
H	-3.8999150926	-1.1212502855	-0.9558263751	 0.117943
H	-4.7611997189	-2.7383750443	-0.8190385139	 0.112524
