20
gdb 116689	4.65567	0.79762	0.73299	2.7169	87.63	-0.2162	0.0201	0.2363	1603.4253	0.169982	-403.112568	-403.103384	-403.10244	-403.147372	33.51	
C	 0.0286860414	 1.2943308837	-0.2434463996	-0.24763
O	-0.0551707097	-0.0136847693	 0.3044843197	-0.195075
C	-1.1923784085	-0.6869994922	 0.0260439965	 0.089953
N	-1.3515011064	-1.8612374118	 0.4550677806	-0.302234
C	-2.5361851836	-2.5563049229	 0.1609747015	 0.419278
C	-3.094252802	-3.5134359001	 1.1876983222	-0.322557
C	-2.6749974557	-4.0615595302	-0.1430110703	-0.103492
C	-3.7538738141	-3.7590296091	-1.1876319669	-0.221827
C	-3.6141431685	-2.2291754373	-0.8902705025	-0.293333
H	 0.9875184968	 1.7024567456	 0.0785196571	 0.14512
H	-0.0016844082	 1.2753760861	-1.3401801921	 0.124521
H	-0.7773434119	 1.9400652849	 0.1272653632	 0.125111
H	-1.918249646	-0.1247313078	-0.5767032328	 0.08024
H	-2.4130371641	-3.7089744661	 2.0081234464	 0.122047
H	-4.1465914008	-3.4737125009	 1.464616759	 0.099151
H	-1.8902962436	-4.8019915794	-0.2359642105	 0.091307
H	-3.4533895644	-4.0102162948	-2.2070292721	 0.102672
H	-4.7369749444	-4.2018618069	-0.9948289877	 0.095784
H	-4.5041562149	-1.7028009296	-0.5292125357	 0.092309
H	-3.2170826114	-1.689385822	-1.7542407959	 0.098655
