14
gdb 11870	5.06941	1.69062	1.41017	4.8637	66.48	-0.2569	-0.0439	0.213	859.2913	0.107823	-382.57572	-382.569348	-382.568404	-382.606171	24.747	
O	-0.0946895863	 0.0166002978	 0.0041134811	-0.345311
C	 0.0074909402	 1.2101378279	 0.0096402129	 0.400462
O	-1.0970811092	 2.0442111098	 0.0295138734	-0.260516
C	-0.6641270212	 3.3845180442	 0.0312161214	 0.417625
C	-1.5164205523	 4.39124174	-0.7049277311	-0.319467
C	-1.4957382393	 4.3826492926	 0.8018984494	-0.319468
C	 0.805237038	 3.3537336203	 0.0108604951	-0.146789
C	 1.205661571	 2.0785333757	-0.0019442459	-0.245219
H	-1.013308669	 5.1924126336	-1.2345182027	 0.128729
H	-2.3925550229	 3.9888173048	-1.1995141158	 0.146712
H	-2.3580300217	 3.9744776698	 1.3157285232	 0.14671
H	-0.9781516123	 5.1778087574	 1.3265773118	 0.128728
H	 1.4152676255	 4.2474125138	 0.0075632114	 0.13323
H	 2.2080435195	 1.6788580724	-0.0180416341	 0.134574
