15
gdb 43809	2.10508	1.76029	1.07592	4.4	71.77	-0.2749	-0.0037	0.2712	1092.5019	0.11223	-416.796545	-416.788662	-416.787718	-416.829299	29.358	
N	 0.1112928342	 1.1410490448	 0.4731448661	-0.528916
C	 0.0572133348	-0.0232551991	 0.0281081243	 0.446783
O	 0.9873152404	-0.8146721758	-0.6096810863	-0.263185
C	 0.0619835595	-1.9255997933	-0.681857713	 0.456966
C	 0.0420166601	-2.8690705393	-1.8268517359	-0.337968
C	 0.4895154336	-3.3242030298	-0.4388494637	-0.331456
C	-1.0485662999	-1.0827736858	-0.0367041849	-0.4038
C	-1.6033662545	-1.5580072915	 1.2178374426	 0.309507
N	-2.0406943254	-1.9737722955	 2.2029602704	-0.321851
H	 1.0294155775	 1.5645083047	 0.3332285548	 0.24236
H	-0.9184237249	-3.2066137712	-2.2015993583	 0.135128
H	 0.8095995243	-2.7423219245	-2.5822796513	 0.142744
H	 1.5493356479	-3.4952251729	-0.2871289548	 0.144026
H	-0.1672430377	-3.9648321003	 0.1399795889	 0.14824
H	-1.8509770098	-0.8019422403	-0.7245480888	 0.161422
