16
gdb 48087	3.23097	1.28506	1.04673	1.9572	70.69	-0.2466	-0.1028	0.1438	1131.9833	0.123777	-437.806299	-437.798507	-437.797563	-437.839689	28.37	
O	 1.5509600224	 1.4167367955	-2.1382833915	-0.215396
C	 1.7342217196	 0.9470194127	-1.0471823303	 0.100328
C	 1.5673902118	 1.7342192139	 0.2623819906	 0.259847
O	 1.5721328324	 1.1071414913	 1.2981723954	-0.279066
C	 1.3697588792	 3.2223504284	 0.1311721968	-0.040837
C	 1.1352944783	 4.1416069788	 1.348322255	-0.077062
C	 2.6250875892	 3.9065841221	 1.6817846358	-0.178781
N	 2.6687847893	 4.0974154819	 0.1480247428	-0.157898
C	 1.6782146232	 5.2490987335	 0.418415759	-0.166541
H	 2.007348053	-0.1151004088	-0.8718766326	 0.110418
H	 0.789104185	 3.4202284762	-0.7739424444	 0.108369
H	 0.270468875	 4.1609610339	 2.0178051926	 0.079805
H	 3.1540720422	 4.7005192712	 2.2146487019	 0.106233
H	 2.9361029375	 2.9222546811	 2.0258348865	 0.131189
H	 1.0896522044	 5.5329909757	-0.4578300992	 0.110098
H	 2.1539612776	 6.1161179127	 0.8829433516	 0.109293
