20
gdb 69511	2.43711	1.62292	1.35746	1.897	78.86	-0.2213	0.0778	0.2991	1061.7534	0.169881	-403.094614	-403.085703	-403.084759	-403.127398	34.914	
C	 0.0141823133	 1.5259221943	 0.1318191062	-0.504661
C	-0.0040934904	 0.0299344977	 0.0119443364	 0.206894
C	 1.2098166813	-0.806547884	-0.3634727625	-0.387308
C	 0.5946254508	-1.0150808706	 0.9853467557	 0.415726
O	 1.3356954516	-0.8013180846	 2.1300700018	-0.465117
C	-0.6712136383	-1.8222767357	 0.888530654	-0.226383
N	-1.787348059	-0.9195396098	 1.3134484761	-0.394082
C	-1.2491387251	-0.8372957094	-0.0738281158	 0.301712
C	-2.1106836061	-1.0691314229	-1.2792292143	-0.50907
H	 0.9539863112	 1.8663905357	 0.5796612542	 0.123211
H	-0.0853009766	 2.0200842729	-0.8420056282	 0.115353
H	-0.8061932518	 1.8673006501	 0.771798176	 0.128739
H	 1.1582565822	-1.5732971887	-1.1331046868	 0.101694
H	 2.150758394	-0.2649805589	-0.3377096904	 0.120502
H	 0.7176098895	-0.5151390294	 2.8139330652	 0.292534
H	-0.7929122183	-2.9001365438	 0.912116976	 0.088992
H	-2.6464601011	-1.4718243412	 1.2702242619	 0.218003
H	-2.7441894204	-0.1988257212	-1.486413412	 0.128679
H	-1.4950753505	-1.2497826738	-2.1668910388	 0.128194
H	-2.7674301163	-1.9350139766	-1.1424915246	 0.116386
