19
gdb 112482	2.58694	1.09159	0.84588	2.0735	75.52	-0.2326	0.0148	0.2474	1390.2713	0.157566	-456.317704	-456.307435	-456.30649	-456.353539	36.036	
C	 0.0674206811	 1.4094651188	 0.2262300472	-0.339715
N	 0.0112624965	-0.043592484	 0.2782395783	-0.326412
C	-1.0635643891	-0.6071978556	-0.0630635935	 0.379156
N	-2.3088089847	-0.1964418219	-0.5606077475	-0.376657
C	-2.8262407985	-1.5853414744	-0.6743296433	-0.006131
C	-3.2176629846	-1.9460091278	-2.1005220297	-0.061211
O	-4.2600844598	-1.1034844237	-2.5685492455	-0.425785
C	-1.4344209302	-2.0823056343	-0.1568461481	 0.000262
O	-0.6861056633	-2.8736190716	-1.0466830963	-0.428865
H	 1.0889405867	 1.7242804611	-0.0066573593	 0.12797
H	-0.6080520673	 1.8480667857	-0.5239422558	 0.103526
H	-0.1859107216	 1.8407382303	 1.2038786103	 0.123556
H	-2.84092335	 0.5870147097	-0.2096518193	 0.247574
H	-3.6516002947	-1.7946223033	 0.0140751854	 0.084494
H	-2.3322926111	-1.8978081796	-2.7461041969	 0.102391
H	-3.6012510713	-2.970436693	-2.1340437515	 0.117008
H	-3.8828438167	-0.2200082728	-2.6432584229	 0.281886
H	-1.5038090385	-2.5572352334	 0.8310353219	 0.096278
H	 0.2183553872	-2.5409180902	-1.0206232534	 0.300675
