18
gdb 38230	3.11396	2.09845	1.72573	0.5285	76.45	-0.2229	-0.009	0.2139	841.3126	0.149044	-401.780911	-401.774634	-401.773689	-401.811005	27.443	
C	 0.0424481403	 1.7880857388	-0.0255168814	-0.246196
C	 1.5031630721	 1.4606072203	 0.1335881194	 0.012483
C	 1.0074627696	 0.2406550327	 1.07198528	-0.329253
C	-0.0407376323	 0.2194917055	-0.1025836466	 0.396609
O	-1.276456257	-0.2319663604	-0.6342619014	-0.355048
C	-1.1255730264	 0.3628145641	-1.9707911625	-0.129298
C	 0.4087346586	 0.4404766094	-2.2666422048	-0.091688
C	 0.9804312343	-0.2725856269	-1.1681614914	-0.009282
N	 1.8131581924	 0.8915284008	-1.2570386002	-0.20429
H	-0.4542572503	 2.1212570363	 0.8889405859	 0.097355
H	-0.2265409163	 2.4207673236	-0.8678316487	 0.106845
H	 2.2570310522	 2.1687201139	 0.4731878354	 0.085334
H	 1.6460654063	-0.6367310559	 1.1901358382	 0.112157
H	 0.6691495283	 0.612323979	 2.0401574692	 0.113718
H	-1.5448689425	-0.3466743566	-2.6946738511	 0.127925
H	-1.6871102781	 1.2993788623	-2.0272006053	 0.122342
H	 0.7828323171	 0.4109377046	-3.2817979713	 0.115962
H	 1.3588377017	-1.2947166115	-1.1051808832	 0.074327
