24
gdb 117336	3.92277	0.62754	0.61823	3.2414	88.52	-0.2387	0.0387	0.2774	2011.2692	0.215055	-405.603828	-405.592149	-405.591205	-405.643482	41.	
C	-0.1253603514	 1.5974517755	 0.1701380408	-0.385244
C	-0.1805347193	 0.0902065631	 0.4257189719	-0.148687
C	-1.2467012271	-0.6187247115	-0.4165763625	-0.304276
C	-1.1756018621	-2.1383752615	-0.2749078565	 0.417876
O	-0.11325945	-2.7312849817	-0.1822482681	-0.38307
N	-2.3833037869	-2.7754836373	-0.2759463051	-0.324083
C	-2.5288508486	-4.2270545826	-0.2183503426	 0.053376
C	-3.429657002	-4.6291515952	 0.9542868633	-0.38518
C	-3.0399084697	-4.781876932	-1.5539184545	-0.380894
H	 0.6445837454	 2.073851772	 0.7848577826	 0.114524
H	 0.1060644915	 1.8137759267	-0.8790599745	 0.113606
H	-1.0811358159	 2.081102436	 0.402768921	 0.10914
H	 0.7850668629	-0.3748104635	 0.2073720827	 0.128592
H	-0.3763644244	-0.09981244	 1.4882725301	 0.098493
H	-2.249109439	-0.2479132088	-0.1684684492	 0.088048
H	-1.0844191873	-0.3877482808	-1.4785855008	 0.124089
H	-3.2192785153	-2.2208494279	-0.3727743625	 0.235471
H	-1.5158296395	-4.5978685509	-0.0421203011	 0.126638
H	-4.4445406149	-4.2320976104	 0.8273449933	 0.105947
H	-3.5086414985	-5.7183796626	 1.0246407173	 0.119849
H	-3.0316035788	-4.2502818335	 1.8995525922	 0.125131
H	-2.3679159209	-4.5051258836	-2.3707829856	 0.12731
H	-3.1076446668	-5.873867926	-1.5189377578	 0.118185
H	-4.0391897214	-4.3937548032	-1.7860842743	 0.10516
