16
gdb 11921	3.24446	1.84022	1.50625	4.4309	70.88	-0.245	0.0154	0.2604	885.3962	0.131184	-342.764254	-342.756748	-342.755804	-342.795844	28.239	
C	 0.005561277	 1.5225465701	 0.0125749084	-0.46768
C	 0.0370476038	 0.0254567063	 0.0214378896	 0.305013
C	-0.8535504873	-0.8393433905	 0.8612226301	-0.36319
C	 0.6522559228	-0.9714505015	 1.0327096267	 0.133706
C	 1.2268304881	-1.7270948133	-0.171061601	-0.223681
N	 0.6422668099	-0.7126979194	-1.0948387418	-0.348952
C	 1.3177233414	-0.7232537404	 2.2649129143	 0.196989
N	 1.8665327144	-0.5223549063	 3.2649006401	-0.352576
H	 0.9764626796	 1.925813447	-0.2867353383	 0.140754
H	-0.7465846818	 1.8842148732	-0.6986090442	 0.128877
H	-0.2520701324	 1.9143257921	 1.0006125717	 0.13435
H	-1.358046109	-0.3424685232	 1.6834830284	 0.138037
H	-1.4017978827	-1.6712289687	 0.4238861659	 0.114477
H	 2.319177808	-1.7198302479	-0.210253738	 0.133112
H	 0.8665879035	-2.7552412821	-0.2920068307	 0.110442
H	-0.0389780854	-1.0876789853	-1.7506016311	 0.220321
