14
gdb 66550	3.19984	1.82194	1.50205	2.7367	63.47	-0.2341	-0.0162	0.218	858.3481	0.101242	-436.595391	-436.589007	-436.588063	-436.626022	25.847	
O	 0.0554311129	 1.3002514259	 0.0613987245	-0.453494
C	 0.1088401503	-0.0649259152	 0.0604672212	 0.397292
C	-1.0512463018	-1.0234274624	 0.1381091727	-0.167918
C	-0.2537861035	-0.9785046172	-1.140234328	-0.131873
N	 0.5340869103	-2.2266484974	-0.8836195433	-0.211205
C	-0.006372758	-2.0848061308	 0.559279048	 0.003114
C	 1.1205094572	-1.0127435508	 0.7828883992	-0.295128
C	 1.8335561497	-1.6850303378	-0.3897111136	 0.430876
O	 2.9385661634	-1.8412026982	-0.7937723236	-0.301819
H	 0.7000641951	 1.6443630136	-0.5687044618	 0.297571
H	-2.1041666207	-0.8881353195	 0.3362824951	 0.116008
H	-0.507406318	-0.6195110458	-2.1287635336	 0.11117
H	-0.1411188192	-2.9848636107	 1.1518498649	 0.104106
H	 1.5720930124	-0.7177442237	 1.7263211084	 0.101301
