16
gdb 78785	2.14409	1.84811	1.67194	4.0035	68.8	-0.2443	-0.0103	0.234	928.5849	0.12316	-437.845944	-437.837884	-437.83694	-437.878353	30.201	
C	-0.0237097824	 1.5682229449	 0.0620007694	-0.510503
C	-0.0062694587	 0.0717099465	 0.067505944	 0.157255
C	-1.2542147808	-0.8019318243	 0.272040434	 0.075517
O	-1.9755958773	-1.0698306337	-0.899599083	-0.424225
C	-0.2886530334	-1.8186389173	 0.8782999631	-0.079246
C	 0.9973117591	-1.8022006749	 0.115570496	-0.191192
N	 0.7129306089	-0.7681417054	 1.2074645443	-0.182166
C	 0.8611445282	-0.730286366	-0.9156191145	 0.45993
O	 1.4202022202	-0.4573254019	-1.937322754	-0.334509
H	 0.9889051562	 1.9711328719	-0.0263947388	 0.142882
H	-0.6037045493	 1.91980082	-0.797504133	 0.148688
H	-0.4813750338	 1.9628692291	 0.9738805343	 0.127853
H	-1.8887227943	-0.3863468212	 1.0664240973	 0.087573
H	-2.8200520567	-1.4688305345	-0.6689444856	 0.292153
H	-0.5016037457	-2.6230823675	 1.5744173963	 0.105634
H	 1.7579947796	-2.5635849656	 0.2298622901	 0.124357
