16
gdb 126997	3.37306	1.0801	0.82658	3.1565	68.42	-0.2056	0.0107	0.2162	1346.4192	0.124014	-471.189321	-471.180451	-471.179507	-471.223852	31.383	
C	-0.0252429605	 1.5000235814	 0.0632432387	-0.392665
C	 0.0024511414	-0.015198054	 0.011938416	-0.043353
O	 0.6627239925	-0.4768916696	 1.1998177794	-0.304432
C	 0.7770305711	-1.8160827691	 1.3213707582	 0.29363
C	 1.3775377169	-2.4572529183	 2.385212238	 0.294247
O	 1.9756436967	-2.0320882837	 3.515719645	-0.4296
N	 1.2584302469	-3.7654679465	 2.078510781	-0.216818
N	 0.6228035574	-3.9416616426	 0.8958471405	-0.15335
N	 0.3348952346	-2.7440682876	 0.4452091886	-0.275006
H	 0.9892926641	 1.90720137	 0.1003781897	 0.126517
H	-0.5222564821	 1.8927324489	-0.8285179253	 0.124262
H	-0.5703756987	 1.8501543477	 0.9445419124	 0.126537
H	-1.0079821945	-0.4386341919	-0.0274300432	 0.121146
H	 0.5439705668	-0.381768948	-0.8679728074	 0.121057
H	 1.9423815247	-1.0680657532	 3.5170810067	 0.320602
H	 1.5749900527	-4.5613117735	 2.6085810918	 0.287225
