18
gdb 53250	3.91767	0.77902	0.75636	4.6084	88.7	-0.2484	0.0136	0.2619	1576.1855	0.145392	-364.80103	-364.790848	-364.789904	-364.838889	35.361	
C	 0.0612456868	 1.4845867079	-0.0115108101	-0.500341
C	 0.0257095647	 0.029716249	 0.0107279446	 0.123022
C	 0.0017933491	-1.1750754186	 0.0292014231	 0.048724
C	-0.0049346648	-2.6078570118	 0.0374593344	-0.240325
C	-0.4603714639	-3.3873205852	 1.2508102684	-0.30737
C	-1.3445920325	-3.3800466166	 0.0199756699	 0.151353
C	-2.6605435577	-2.6223797431	 0.0383142029	-0.456045
C	-1.3468976126	-4.5796534318	-0.7800242193	 0.244921
N	-1.3538052852	-5.5389751669	-1.4272068838	-0.347303
H	 1.0929160036	 1.8523191413	-0.0374217129	 0.154515
H	-0.4556906339	 1.8837277108	-0.8911386453	 0.152641
H	-0.418529738	 1.9077391581	 0.8778189425	 0.150846
H	 0.784602239	-3.0756081958	-0.5431394665	 0.134922
H	 0.0740046535	-4.2976788153	 1.49411816	 0.141129
H	-0.820800095	-2.8199418412	 2.100879457	 0.134534
H	-2.5545443186	-1.7031686983	 0.617714834	 0.136686
H	-2.9683238098	-2.3521360464	-0.975653239	 0.141737
H	-3.4493392546	-3.2336686762	 0.48603897	 0.136353
