22
gdb 122545	4.45934	0.54428	0.52641	1.8669	79.77	-0.2473	0.0709	0.3182	2115.8488	0.193443	-441.446227	-441.435572	-441.434628	-441.483482	37.648	
O	-0.2208896974	 1.3913452421	-0.688112414	-0.421554
C	-0.0428342308	 0.0976210693	-0.1316383746	-0.076934
C	-1.3926262206	-0.606342138	-0.1372282365	-0.16137
C	-1.331617311	-2.0174484513	 0.4600723809	-0.204977
C	-2.6839848351	-2.6952026134	 0.4324630784	-0.012822
N	-3.0854714124	-3.3561961421	-0.8232349008	-0.350309
C	-2.9193408491	-4.1645122502	 0.4043128945	-0.047582
C	-1.842062974	-5.2213673161	 0.3168824765	-0.064427
O	-2.2063901697	-6.2334357359	-0.6072540931	-0.422733
H	 0.6325646952	 1.8339932669	-0.6994543989	 0.28511
H	 0.6849818633	-0.491120635	-0.7142712912	 0.085567
H	 0.3419294351	 0.1574122267	 0.9004246603	 0.081612
H	-2.1076627964	 0.0109367931	 0.4211100141	 0.100906
H	-1.7590848695	-0.6607297819	-1.1685202078	 0.118186
H	-0.6079305072	-2.6185084898	-0.0990703016	 0.106423
H	-0.9757100419	-1.9697057126	 1.4983727187	 0.09628
H	-3.4610480944	-2.122683261	 0.9407901858	 0.08339
H	-4.0697929705	-3.1963979702	-1.0163902476	 0.233713
H	-3.8334785202	-4.5125906682	 0.8834757387	 0.087939
H	-0.878442316	-4.7680503607	 0.0467359585	 0.088822
H	-1.7164402881	-5.7162134229	 1.2859030732	 0.106469
H	-2.4024250593	-5.771682499	-1.4315586736	 0.288293
