21
gdb 95280	2.02581	1.82684	1.40515	1.1434	77.02	-0.2406	0.0619	0.3025	1055.1164	0.182858	-424.221133	-424.212427	-424.211483	-424.254233	33.927	
C	-0.07709624	 1.5448944501	-0.1724615656	-0.494511
C	-0.0070244589	 0.0355738343	-0.0067614144	 0.329368
C	-1.3187504402	-0.6569487905	 0.4891516207	-0.279859
C	-0.5708329498	-1.1935840076	 1.7418002078	-0.244573
C	 0.749107216	-0.5488676289	 1.2327732164	 0.07445
O	 1.7391277022	-1.4559239637	 0.7632731342	-0.258759
C	 1.3322924436	-1.9034884966	-0.5191810809	-0.135497
C	 0.6700941109	-0.6819303437	-1.1873471869	 0.046594
O	-0.2771244772	-1.0034194089	-2.1907150513	-0.431362
H	 0.9210012673	 1.9769114567	-0.3099224741	 0.113109
H	-0.6824294373	 1.8069780296	-1.0475697599	 0.12744
H	-0.5323942985	 2.0221132199	 0.7020105054	 0.111043
H	-2.1234891225	 0.0487494769	 0.7077498847	 0.096785
H	-1.7068889085	-1.4161242017	-0.1915591479	 0.116411
H	-0.9238266845	-0.7866980666	 2.6924883751	 0.099162
H	-0.5133038833	-2.2809370127	 1.8345821374	 0.1061
H	 1.242144344	 0.147281797	 1.9156712283	 0.07293
H	 2.2194036815	-2.2718422328	-1.0434120717	 0.10011
H	 0.5977148154	-2.7229137349	-0.4611340456	 0.095042
H	 1.45360278	-0.0246005658	-1.5941700509	 0.068468
H	 0.1952966901	-1.35291073	-2.9522788206	 0.287549
