14
gdb 129995	5.17607	1.28741	1.03782	6.9833	71.72	-0.2052	-0.0196	0.1856	1063.2728	0.1035	-432.871752	-432.864808	-432.863864	-432.902925	26.805	
N	-0.0202233958	 1.2804657502	-0.0662297135	-0.5588
C	-0.0170617384	-0.0677715319	-0.0246722126	 0.40734
N	-1.114215714	-0.7794096979	-0.01396076	-0.388982
C	-0.6364095141	-2.0778034402	-0.0158460573	 0.461477
C	 0.7178889953	-2.2547971862	-0.0235850745	 0.146207
C	 1.3019606099	-0.874563079	-0.0313883864	-0.492933
C	 0.8507689144	-3.6541267013	-0.0127643466	-0.140624
N	-0.3241219203	-4.2623324646	-0.001964804	-0.163825
O	-1.299439279	-3.2211970605	-0.003548753	-0.233302
H	 0.8214961819	 1.7987707344	 0.110299705	 0.27049
H	-0.900114283	 1.7572745807	 0.0471793494	 0.277433
H	 1.8952980534	-0.6288641531	-0.9196139454	 0.148169
H	 1.9109393343	-0.6276026024	 0.8465248881	 0.14233
H	 1.7342026054	-4.2780711982	-0.0131738294	 0.125018
