23
gdb 60102	3.43178	0.96524	0.89924	1.4285	86.28	-0.2288	0.0765	0.3053	1443.418	0.204495	-388.2582	-388.248546	-388.247602	-388.293131	36.577	
C	 0.0946120456	 1.5972663428	-0.0400292346	-0.385772
C	 0.0177420834	 0.0656966025	 0.0063181471	 0.052924
C	 0.6303948997	-0.5521402559	-1.2568725582	-0.39593
C	 0.6918112035	-0.5179698979	 1.2672169585	-0.306881
C	 0.0069234393	-0.1477461738	 2.5462010931	 0.491705
C	 0.270854445	 1.0290030785	 3.4379679626	-0.322431
C	 0.3089172838	-0.3735317021	 4.0153402619	-0.206626
C	-1.1139313936	-0.9071505586	 4.0938740707	-0.084327
O	-1.361725455	-0.5697263709	 2.7026450757	-0.326183
H	 1.1376035697	 1.9364786888	-0.0744515319	 0.104159
H	-0.4073710309	 1.9849832772	-0.9327036155	 0.108841
H	-0.3772977517	 2.0531255621	 0.8341853404	 0.125313
H	-1.0407791641	-0.2215830742	 0.0485549847	 0.096096
H	 1.6963661852	-0.3056102675	-1.3373449987	 0.10834
H	 0.5405655212	-1.6436379341	-1.2538176468	 0.109788
H	 0.1357030497	-0.1771737232	-2.1588965227	 0.109485
H	 0.7063083041	-1.6122332931	 1.1839646255	 0.0986
H	 1.7377390916	-0.187296778	 1.3166594763	 0.094187
H	 1.2444321243	 1.4956010534	 3.3234227144	 0.112894
H	-0.5388646264	 1.70822295	 3.6933242411	 0.11028
H	 1.1795863629	-0.7931981777	 4.5012744386	 0.098065
H	-1.1725833128	-1.9916398427	 4.2422243265	 0.106214
H	-1.8116233145	-0.4038974957	 4.7747069314	 0.10126
