17
gdb 34806	4.19239	1.31072	1.24218	3.5484	76.54	-0.2497	0.027	0.2767	1024.1765	0.139069	-380.823319	-380.816673	-380.815729	-380.854206	27.268	
N	 0.0363116286	-1.2259837283	 0.002500128	-0.335141
C	 0.0036889508	-0.0695533922	 0.0069062141	 0.255552
C	-0.0530280072	 1.3791967813	-0.0210698311	-0.163848
C	-0.1244189661	 2.0681212541	 1.3820033171	-0.055507
C	 1.4085523645	 1.7425302477	 1.4994870614	-0.231285
C	 1.3563140139	 2.0870428651	-0.0187877606	 0.003713
N	 1.1186592226	 3.5563679061	 0.0592960498	-0.104711
C	-0.2066810921	 4.0444453851	-0.3593574655	-0.252762
C	-0.0154107795	 3.5579793687	 1.0318511572	-0.034507
H	-0.7835753205	 1.6695516463	-0.7757472939	 0.114632
H	-0.8562662684	 1.7608550472	 2.1265258042	 0.091733
H	 2.0152052477	 2.4058245434	 2.1179153734	 0.115322
H	 1.6201002254	 0.6944974405	 1.7127388331	 0.137327
H	 2.1313504257	 1.8096700053	-0.7301490191	 0.098555
H	-0.2222358387	 5.1198775655	-0.5132693783	 0.126479
H	-0.8033969662	 3.5007178588	-1.0824445583	 0.12549
H	 0.0347286393	 4.2649429154	 1.8555502884	 0.108958
