18
gdb 89602	4.28382	0.93588	0.90454	2.5708	77.35	-0.2389	0.0412	0.2801	1323.7226	0.146703	-401.866174	-401.857537	-401.856593	-401.899788	33.145	
O	-0.0880859768	 1.4475783738	-0.1263594273	-0.43642
C	-0.0188211777	 0.0520000652	-0.1031558139	 0.163204
C	 0.4686551496	-0.6546655076	 1.2248139203	-0.312262
C	-0.9058722339	-1.3236220487	 1.3186810332	 0.370705
C	-1.226178309	-2.6763584965	 1.9014931763	-0.49091
C	-1.1475216252	-2.705248492	 3.3607949361	 0.314502
C	-1.0736301922	-2.7123109456	 4.5598205469	-0.44582
N	-1.8799503728	-0.2042287928	 1.3535030287	-0.384215
C	-1.3557925937	-0.6932725339	 0.0470615543	-0.162464
H	-0.7265272696	 1.6815477613	 0.5619508906	 0.290096
H	 0.5594601661	-0.2615579241	-0.9747725756	 0.089809
H	 1.2823480102	-1.3618511621	 1.0448766592	 0.103061
H	 0.7300309343	 0.0122866788	 2.0491549055	 0.10997
H	-2.2303829446	-2.984017892	 1.578879712	 0.127926
H	-0.532429955	-3.4190131307	 1.4854017771	 0.139246
H	-1.0111705595	-2.7208756094	 5.6197945498	 0.200363
H	-2.8113204065	-0.5990695723	 1.4786599119	 0.231011
H	-2.0340056638	-1.0460785613	-0.7214450551	 0.092201
