19
gdb 58014	2.54807	1.02065	0.90626	1.6995	75.76	-0.2452	0.0053	0.2505	1386.7305	0.157502	-456.359486	-456.348916	-456.347972	-456.396736	35.504	
C	-0.3609647207	 1.1163684737	-0.5428117074	-0.343688
N	-0.1447284709	-0.3180940274	-0.4325162424	-0.075491
C	-1.002200333	-1.0111870121	 0.514882298	-0.350394
C	 0.8812537367	-0.8832518322	-1.1315000495	 0.384255
O	 1.6292861577	-0.2469436247	-1.8594859781	-0.377726
C	 1.1076223557	-2.3992848292	-0.9886879924	-0.216132
O	-0.0222210571	-3.2012235278	-1.3334013891	-0.182505
C	-0.3187247544	-3.2700155672	-2.6532018983	 0.125561
N	-1.3557075043	-3.8822165098	-3.0247809136	-0.441461
H	-0.1870138938	 1.6089308201	 0.4223693973	 0.124214
H	 0.3323361383	 1.5143411228	-1.2814107928	 0.170131
H	-1.3929335587	 1.321339876	-0.8507465488	 0.126082
H	-2.0496798408	-0.7582605474	 0.3137850957	 0.135036
H	-0.9040905466	-2.0897092154	 0.4233926363	 0.17417
H	-0.7751018209	-0.7063573939	 1.5455879574	 0.122491
H	 1.9645244262	-2.6320783971	-1.6265820745	 0.143301
H	 1.3544206908	-2.6673090211	 0.0419072665	 0.135529
H	 0.4168353196	-2.7647687235	-3.2921872281	 0.112925
H	-1.4253636137	-3.8622226836	-4.0401283062	 0.233702
