19
gdb 41980	2.49665	2.07906	1.64013	2.2343	72.82	-0.2132	0.0753	0.2885	904.3236	0.163144	-423.00731	-423.000675	-422.999731	-423.038083	27.605	
C	 0.026723814	 1.571592431	 0.0195106578	-0.088553
O	 1.3907758539	 1.9642771385	-0.1682381066	-0.258557
C	 2.0147520935	 0.9858485775	-0.9645467661	 0.038805
C	 2.553101144	-0.2565870047	-0.2908171772	 0.10015
O	 2.7570808853	-0.4279185322	 1.0747068699	-0.262768
C	 1.6814522613	-0.1016748285	 1.952642326	-0.06403
C	 0.32110256	-0.5580646114	 1.4243043313	-0.228847
C	 0.0322736702	 0.0299555738	 0.0314258504	-0.049183
C	 1.1849964532	-0.2834066459	-0.9368732961	-0.16647
H	-0.3248560686	 2.0203347557	 0.9542094148	 0.106117
H	-0.5931387997	 1.953210339	-0.8055880135	 0.095536
H	 2.4863478164	 1.3715252103	-1.864463692	 0.091808
H	 3.3518263709	-0.7612178444	-0.8274435682	 0.101657
H	 1.916477572	-0.6111899839	 2.892107495	 0.102696
H	 1.6748759055	 0.9778207415	 2.1471522397	 0.115024
H	 0.3039086801	-1.652599539	 1.3643259113	 0.10436
H	-0.4544492388	-0.2572117554	 2.1383204273	 0.097042
H	-0.9129202367	-0.3658521828	-0.3498449287	 0.076367
H	 0.9956506234	-0.8911637488	-1.8138193651	 0.088848
