20
gdb 101911	2.0845	1.33346	0.8724	3.2312	75.21	-0.2467	-0.0318	0.2148	1334.5294	0.169365	-440.270189	-440.260275	-440.25933	-440.30589	35.62	
C	-0.4630932186	 1.3246285776	 0.3900570213	-0.470822
C	 0.1367387393	-0.0487975899	 0.1706932057	 0.386947
O	 0.7562275587	-0.606897499	 1.0537096206	-0.317029
C	-0.0481390415	-0.7043089809	-1.2069328839	-0.15606
C	 0.4733487957	-2.1549806675	-1.2018008184	-0.066603
O	 1.852415322	-2.2396715615	-0.9242131459	-0.428819
C	-1.4879546249	-0.632342595	-1.6876857111	 0.009848
C	-1.9754415511	 0.4855833077	-2.5357774074	-0.248802
N	-1.8055468631	-0.8601135309	-3.1065707617	-0.31725
H	-0.1791554374	 2.00720635	-0.4175285538	 0.139364
H	-1.5565703332	 1.2644259045	 0.3807723839	 0.152922
H	-0.128578067	 1.7188472751	 1.3501894507	 0.144743
H	 0.5777532161	-0.1212343992	-1.9012529719	 0.098724
H	-0.1248695295	-2.7452735827	-0.4899258221	 0.095076
H	 0.3200095504	-2.5929975416	-2.1932855104	 0.109246
H	 1.9457282412	-1.9277418349	-0.0146868197	 0.29446
H	-2.2052600928	-1.1092671487	-1.0204381084	 0.101813
H	-3.0046251779	 0.8243970875	-2.4574674413	 0.124743
H	-1.2655048747	 1.2616614618	-2.8114062753	 0.112411
H	-0.9467884018	-0.8967458424	-3.652066601	 0.23509
