25
gdb 85855	2.05167	1.39476	1.2802	1.2966	88.39	-0.2491	0.0703	0.3193	1232.4844	0.2258	-389.497921	-389.487095	-389.486151	-389.532263	42.374	
C	-0.877683482	 0.9818586534	-0.1455978058	-0.417877
C	 0.1876724835	-0.1044637967	-0.0988162036	 0.020974
C	 1.585279342	 0.184262217	-0.7065165891	-0.311265
C	 2.2245717176	-0.6489872271	 0.4420075289	 0.388493
C	 2.5669028781	-2.0762047692	 0.0207139652	-0.451602
O	 3.3283388697	-0.0669638347	 1.1169947881	-0.47884
C	 0.885296102	-0.4849121337	 1.2573856304	 0.267884
C	 0.9721639505	 0.6889503888	 2.2403593533	-0.425197
C	 0.3303020519	-1.7127983682	 1.9772797149	-0.459209
H	-0.5139425318	 1.9247642837	 0.2737724147	 0.115437
H	-1.1846337513	 1.1766001209	-1.1794203761	 0.111069
H	-1.7745052165	 0.6912850023	 0.4134820662	 0.111889
H	-0.2215735963	-1.0182703626	-0.5463029974	 0.062226
H	 1.7731638294	-0.1417472236	-1.7340553254	 0.083257
H	 1.8599430225	 1.2386084466	-0.6122346889	 0.099808
H	 3.4232618976	-2.0646393502	-0.6663901849	 0.100307
H	 2.8343046796	-2.6870269156	 0.8878466353	 0.122801
H	 1.7408027086	-2.5625370678	-0.5060250684	 0.119131
H	 4.114817164	-0.2059861717	 0.5788541177	 0.271794
H	 1.3655907601	 1.5970393767	 1.7782662273	 0.116544
H	-0.0175745914	 0.9140554706	 2.6521189069	 0.10132
H	 1.6379021513	 0.4384466663	 3.070733299	 0.120417
H	 0.9698213785	-2.0057409656	 2.8179665111	 0.115195
H	-0.6645075356	-1.4978195535	 2.3849802241	 0.109844
H	 0.2325943381	-2.5753684662	 1.3118574763	 0.105601
