12
gdb 2735	4.54498	2.26204	1.62776	5.1134	55.77	-0.2701	-0.0478	0.2223	721.2381	0.089818	-323.396217	-323.389779	-323.388835	-323.427013	22.635	
O	-0.0065409695	-0.0123848793	-0.0202385315	-0.256898
C	-0.0354298518	 1.1742330794	 0.0438623679	 0.401753
C	-1.1260285051	 2.2296457777	 0.2594428151	-0.338252
C	-0.0093006745	 3.2731509111	 0.5561849994	-0.240398
C	 1.0825655525	 2.2765905937	 0.0343960272	-0.259777
C	 2.2754264305	 2.0563145041	 0.8242574624	 0.282236
N	 3.2096324908	 1.8756767557	 1.4811875078	-0.314333
H	-1.6829740248	 2.4253626504	-0.6626640814	 0.1471
H	-1.8408721625	 2.006604902	 1.0543946901	 0.149969
H	-0.0670344167	 4.216134824	 0.0141559679	 0.130197
H	 0.1051351068	 3.4752284249	 1.6213678839	 0.14402
H	 1.3583277344	 2.4883114765	-1.0049586989	 0.154382
