21
gdb 85049	2.44175	1.41363	1.07068	2.7451	77.76	-0.2506	-0.026	0.2246	1200.5684	0.181633	-424.266868	-424.257518	-424.256574	-424.300537	35.836	
C	-0.1563101004	 1.5427577128	-0.029751931	-0.413817
C	 0.0229753213	 0.0279815445	 0.0435412744	 0.024797
C	 0.7220557365	-0.5912483311	-1.1931366036	-0.342688
C	 1.4670725411	-1.799781986	-0.6444155391	 0.370775
O	 2.2811381323	-2.4960450962	-1.201908226	-0.335651
C	 1.1191502208	-1.9516986972	 0.8339994565	 0.059533
O	 2.1061281414	-2.6449428259	 1.5414762357	-0.445268
C	 0.8449592164	-0.4945018987	 1.2644526711	-0.052063
C	 2.1469867892	 0.2653979784	 1.5383600551	-0.401596
H	 0.8038226604	 2.0558074193	-0.1439553913	 0.12212
H	-0.7839978972	 1.8200426816	-0.8830550146	 0.116621
H	-0.6370234086	 1.9283605368	 0.8756943129	 0.117565
H	-0.9741386459	-0.4246708411	 0.1220001654	 0.080216
H	 0.0346241108	-0.8771157023	-1.9950713212	 0.13293
H	 1.4567644886	 0.0881100761	-1.6414111743	 0.136786
H	 0.1569018399	-2.4983049914	 0.8720161153	 0.090123
H	 2.6621250966	-3.0645915724	 0.8666386934	 0.291535
H	 0.2265830485	-0.4700914765	 2.1674062159	 0.078199
H	 2.7749622124	 0.3476534161	 0.6432574575	 0.114678
H	 1.9473294793	 1.2778613657	 1.8989462296	 0.115212
H	 2.7301299365	-0.2641045922	 2.2948349783	 0.139996
