18
gdb 37684	3.22182	2.43688	2.00422	1.4899	77.97	-0.2183	0.0785	0.2968	774.1439	0.151502	-364.692141	-364.686801	-364.685857	-364.721335	24.62	
C	-0.0250182872	 1.5293727827	-0.1869617486	-0.338988
C	 1.5271508827	 1.386437528	 0.0779494703	-0.080533
C	 2.0871546799	 0.1971610132	-0.8057537641	-0.024683
C	 2.1294322341	-0.8295161252	 0.3953879897	-0.095312
C	 1.0282110553	-1.6987256437	-0.3392586492	-0.02406
C	-0.408646636	-1.4644096973	 0.2524108746	-0.351758
C	 0.0288083714	 0.0009858513	 0.0322006106	 0.290196
C	 1.2178410747	 0.2146095112	 1.0411581604	-0.029431
N	 0.805867382	-0.4685774678	-1.190609597	-0.124632
H	-0.48045931	 2.0937977503	 0.631059535	 0.105217
H	-0.3934649205	 1.8762418042	-1.1547494913	 0.110448
H	 2.1614629924	 2.24117643	 0.3093881892	 0.0687
H	 2.8409261723	 0.3189726049	-1.5830432599	 0.06977
H	 3.0189426481	-1.224945787	 0.8827315084	 0.062963
H	 1.2989731636	-2.6348460898	-0.8299935037	 0.075028
H	-1.1531386997	-1.835080883	-0.4556421696	 0.118653
H	-0.64668608	-1.7701183642	 1.2730316361	 0.100611
H	 0.9727502669	 0.3121005321	 2.0970649691	 0.067811
