21
gdb 122493	2.5403	0.84455	0.68145	2.9844	81.76	-0.2408	-0.0165	0.2243	1704.496	0.179791	-424.219033	-424.208796	-424.207852	-424.255672	36.084	
C	-0.5268347332	 1.1396932804	-0.1183713096	-0.384135
C	 0.3442654596	-0.110865725	 0.0253252245	-0.18493
C	 0.6245944537	-0.7743969451	-1.3145156508	-0.050726
O	 1.4421713503	-1.9189145091	-1.0916082792	-0.244982
C	 1.8063861957	-2.576711776	-2.2531166271	 0.124392
C	 2.1706903026	-4.0022370135	-2.1317397314	-0.335069
C	 0.8748259521	-3.6354689961	-2.8665041779	-0.140327
C	-0.4076251936	-3.9527404739	-2.204160778	 0.163989
O	-1.4169080524	-4.2691320192	-2.788433937	-0.278192
H	-0.0437387005	 1.8928161164	-0.7505137487	 0.117618
H	-1.4968000037	 0.9015171953	-0.5681673326	 0.122055
H	-0.7169129738	 1.5975888068	 0.8562922666	 0.120592
H	 1.3008681626	 0.1420996546	 0.4964129032	 0.109273
H	-0.1442939196	-0.8408017761	 0.6808238874	 0.110289
H	-0.3146171122	-1.0733350876	-1.8059743463	 0.102975
H	 1.1398490521	-0.0753495073	-1.9933170059	 0.092255
H	 2.3411095238	-1.9615268831	-2.9785293734	 0.099645
H	 2.9872264421	-4.3991634383	-2.7227886551	 0.131548
H	 2.0541956942	-4.446997055	-1.1488142443	 0.138412
H	 0.8579192765	-3.7206731211	-3.947416214	 0.106787
H	-0.3813469362	-3.8818802172	-1.0942638605	 0.078531
