17
gdb 11003	4.06388	1.74521	1.48119	3.976	68.45	-0.2351	0.0316	0.2666	889.3561	0.143822	-363.903928	-363.896645	-363.895701	-363.935152	28.119	
C	-0.0421228311	 1.5177917725	 0.007954937	-0.486119
C	 0.0505621856	 0.0123894839	 0.00754682	 0.341704
C	-0.8088889605	-0.8126250988	 0.9208980088	-0.324224
C	 0.6968488952	-0.7886373079	 1.1220323228	-0.197768
C	 1.4353127778	-1.9313965038	 0.4785143592	 0.423218
O	 2.1684923322	-2.7373084549	 1.0078702153	-0.386763
N	 1.11131044	-1.8949986008	-0.8601842158	-0.324613
C	 0.4507226541	-0.6791401921	-1.3008648197	-0.227185
H	 0.9004990742	 1.9759167372	-0.3119190284	 0.122756
H	-0.8301014847	 1.8660030607	-0.6704402874	 0.122867
H	-0.2772695775	 1.896359653	 1.0070947758	 0.123361
H	-1.4008247701	-0.2771886629	 1.6558532521	 0.117642
H	-1.2630155932	-1.7275847775	 0.5532499522	 0.1232
H	 1.1192303126	-0.3509586794	 2.0169497837	 0.105802
H	 1.5396548492	-2.5486666148	-1.495487817	 0.249788
H	-0.4190792403	-0.8963425274	-1.9341330064	 0.110942
H	 1.1308104266	-0.035256487	-1.8777713721	 0.105391
