25
gdb 60449	3.89103	0.61544	0.55304	1.6089	86.91	-0.2548	0.0754	0.3302	2085.8907	0.225299	-426.628942	-426.617022	-426.616078	-426.667066	42.431	
C	 0.1862717242	 1.3813630419	 0.2234331556	-0.392477
C	-0.0150933202	-0.1323029705	 0.3650256008	 0.01923
C	-0.0088447682	-0.5678165323	 1.8352888644	-0.382141
C	-1.3032675821	-0.5592006709	-0.3375522717	-0.032665
O	-1.4059361599	-1.9686468532	-0.3189641901	-0.253323
C	-2.5716801526	-2.4562596224	-0.9419352201	-0.062252
C	-2.5585374359	-3.9869614311	-0.9136000158	 0.107267
C	-2.5305977315	-4.549125315	 0.5042408436	-0.399597
O	-3.6595483228	-4.4828290792	-1.6678052557	-0.429764
H	 1.1222724335	 1.695276149	 0.6955348611	 0.114861
H	 0.2217149273	 1.6880092158	-0.8274078834	 0.111843
H	-0.6278907803	 1.9349642137	 0.7065403528	 0.113006
H	 0.8093037681	-0.6435570981	-0.1499147509	 0.082854
H	-0.8058336142	-0.0619884847	 2.3944560539	 0.10615
H	-0.1665908738	-1.6450761726	 1.9241212764	 0.129331
H	 0.9429359384	-0.3175577051	 2.3149692438	 0.107775
H	-2.1768082442	-0.1069905467	 0.1662093214	 0.079321
H	-1.3074525704	-0.1955537292	-1.3792230647	 0.082413
H	-3.4757930266	-2.0838397628	-0.4237770928	 0.068636
H	-2.6328115962	-2.1193633676	-1.9888387508	 0.094238
H	-1.6675250924	-4.324728277	-1.4551083698	 0.098601
H	-3.4236727485	-4.2353267652	 1.0610819884	 0.100078
H	-2.5071038937	-5.6419902412	 0.4811261153	 0.121103
H	-1.6548116921	-4.1832777266	 1.0455487298	 0.138162
H	-4.4596254459	-4.3245100188	-1.1545617316	 0.277352
