19
gdb 47761	1.95909	1.64703	1.22265	2.8336	80.83	-0.2365	-0.0198	0.2166	1119.6786	0.159692	-385.896943	-385.888404	-385.887459	-385.930129	32.815	
O	 0.0345638699	-0.0353934974	-0.0684572946	-0.30842
C	-0.0133148419	 1.1668274128	 0.0053921342	 0.398761
C	-1.3057639575	 1.9621780395	 0.0378374551	-0.295352
C	-1.3323493737	 3.0157605413	-1.0918808094	-0.203257
C	-0.0824201605	 3.9053438981	-1.0655107764	-0.192853
C	 1.1989968197	 3.0668017826	-1.1374133941	-0.221182
C	 1.2751384318	 2.0259919041	 0.0157791293	-0.237062
C	 1.4460236364	 2.6610536559	 1.3184340966	 0.328529
C	 1.5720030441	 3.1826843073	 2.3949804841	-0.489445
H	-2.144562198	 1.2660752422	-0.0314935647	 0.118268
H	-1.3601017659	 2.4746812658	 1.0066316274	 0.132257
H	-1.394399654	 2.5007975641	-2.0593662923	 0.107905
H	-2.2392380737	 3.6225443692	-1.0020315086	 0.104412
H	-0.1072590282	 4.6124858813	-1.9014184147	 0.100004
H	-0.0716874358	 4.5018685107	-0.1452230466	 0.114088
H	 1.2296165514	 2.517367317	-2.0866950371	 0.108017
H	 2.088251041	 3.7033520875	-1.1034833818	 0.113167
H	 2.1054885802	 1.334512306	-0.1599805596	 0.120175
H	 1.6964058048	 3.6346070421	 3.3479343431	 0.201988
