18
gdb 8717	2.36927	1.74431	1.45048	2.3405	59.31	-0.2451	0.0494	0.2944	961.1545	0.152152	-459.195626	-459.186219	-459.185274	-459.229854	34.404	
O	 0.4296748309	 0.9048388954	-0.0697513213	-0.431634
C	 0.057404969	-0.4602682087	-0.0062573544	-0.108189
C	-1.4722835301	-0.6864906657	 0.0354629486	 0.303296
O	-1.734938877	-2.060718102	-0.2197624213	-0.479442
C	-2.0325786283	-0.4182973276	 1.4331914554	-0.119533
O	-1.6402530314	 0.8985908823	 1.8265968449	-0.42936
C	-2.1826139197	 0.1762215994	-1.0178884309	-0.097708
O	-1.7246371944	-0.1590769901	-2.324223774	-0.441449
H	 0.0161322118	 1.3234333548	 0.6969275942	 0.293397
H	 0.4485880906	-0.9360593039	-0.9115317056	 0.099114
H	 0.515595675	-0.9772652839	 0.8508055757	 0.091656
H	-1.6860399104	-2.156785721	-1.1803915938	 0.289399
H	-3.1271551795	-0.5177194965	 1.4211475476	 0.101274
H	-1.6283886296	-1.1771907878	 2.1167866926	 0.108513
H	-1.8816653679	 1.0318943801	 2.7470750227	 0.299601
H	-3.2524552352	-0.0573546128	-0.997823244	 0.10824
H	-2.0503055233	 1.2405399717	-0.8025737288	 0.112639
H	-0.8830271805	 0.2928446664	-2.4506278675	 0.300187
