20
gdb 38453	3.52975	1.30105	1.21912	1.4737	78.09	-0.2308	0.0816	0.3124	1099.2869	0.173193	-403.102718	-403.095012	-403.094068	-403.135314	30.138	
C	 0.2331298346	 1.7167168983	-0.0731743584	-0.32067
C	 1.7123861341	 1.3236526651	-0.1379539345	-0.034976
N	 1.998720652	 0.5779082688	 1.1141885294	-0.339976
C	 1.3789314506	-0.1207798963	-0.0365740255	-0.107238
C	-0.1290778933	 0.1936309724	 0.0232672307	 0.370177
C	-0.9205367031	-0.3608445773	 1.2151956318	-0.315972
C	-1.5336777424	-1.6695294742	 0.6607640086	-0.071843
O	-1.2516698347	-1.7017719056	-0.7435662496	-0.260167
C	-0.9133310328	-0.3876819839	-1.1505600611	-0.147065
H	-0.0476982906	 2.341792317	 0.778210716	 0.106135
H	-0.1364238735	 2.1686840932	-0.9983166687	 0.102486
H	 2.5084377848	 1.8215206249	-0.6773665043	 0.092499
H	 2.9920768907	 0.3465029328	 1.1037561485	 0.227202
H	 1.8469631725	-0.9897963316	-0.484175207	 0.092612
H	-0.2787271848	-0.5143140708	 2.0844814673	 0.124968
H	-1.7070985981	 0.343961087	 1.5039176678	 0.101048
H	-1.0938270264	-2.5687620432	 1.1042316919	 0.105463
H	-2.6192064658	-1.708423093	 0.8281106973	 0.092131
H	-1.8134491557	 0.2215201845	-1.3478362233	 0.080039
H	-0.3375832481	-0.4576651182	-2.0792492169	 0.103146
