19
gdb 16187	4.05057	1.57526	1.35808	1.8489	70.42	-0.2324	0.0728	0.3052	965.5393	0.167283	-365.043923	-365.036323	-365.035379	-365.07573	29.458	
O	 0.1673390601	 1.3592571345	 0.2366400657	-0.415477
C	 0.0503648633	-0.0379910442	 0.000973357	-0.151606
C	-1.3906434876	-0.4809297928	-0.0859610514	 0.31494
C	-2.1065243415	-0.9756637488	 1.1259309168	-0.302631
N	-1.6693658325	-1.9209683781	 0.0864877311	-0.132273
C	-2.7325926346	-2.272948418	-0.8764011842	-0.149176
C	-3.3807735463	-0.9611741192	-1.3780716055	-0.243565
C	-2.2570920748	 0.0824777012	-1.2078646006	-0.261978
H	-0.2750172135	 1.5476654596	 1.0710960042	 0.281552
H	 0.5558839068	-0.2178612143	-0.954678158	 0.108435
H	 0.5710333867	-0.630861049	 0.7670420923	 0.09517
H	-1.5735183564	-1.0723606149	 2.0688960486	 0.109304
H	-3.1673355865	-0.7621484822	 1.2327787889	 0.108939
H	-2.2512574166	-2.8080898006	-1.7023265265	 0.108418
H	-3.4488723621	-2.9585928807	-0.4130320838	 0.105547
H	-3.7288102021	-1.0408595816	-2.4107875665	 0.103671
H	-4.2522157651	-0.6961353521	-0.772235329	 0.106546
H	-2.633267257	 1.0861055478	-0.9938722825	 0.108512
H	-1.6483439603	 0.1560980235	-2.1168923765	 0.105675
