23
gdb 104698	2.35787	1.14254	0.92168	3.0419	85.79	-0.2377	-0.0163	0.2215	1389.7331	0.203297	-388.312085	-388.30192	-388.300976	-388.347646	38.234	
C	-0.4061232836	 1.6014200994	 0.3829734678	-0.392491
C	-0.0673267403	 0.1491285025	 0.0306621887	-0.246935
C	 0.7627451612	-0.5950187744	 1.0853593474	 0.359835
C	 2.1229143692	 0.0568356213	 1.3876643538	-0.235361
C	 3.0516321884	 0.2148762268	 0.1795329371	-0.394837
C	-0.0198109169	-0.9149148731	 2.4104747837	-0.404062
C	 0.297988855	-2.3997882701	 2.194337398	 0.415236
O	 0.1715171483	-3.3804708176	 2.8689733333	-0.293356
C	 0.8953942634	-2.1363115589	 0.8064702504	-0.407561
H	 0.4890920136	 2.2283596841	 0.4382588513	 0.121259
H	-1.0666719465	 2.0388849095	-0.3717854715	 0.116345
H	-0.9178178859	 1.6688532367	 1.3494305102	 0.118812
H	-1.0010950771	-0.4079936176	-0.1222907869	 0.091354
H	 0.4568303901	 0.1178102625	-0.9325968708	 0.101301
H	 1.9561032064	 1.0365099215	 1.8520865257	 0.100959
H	 2.6295147362	-0.5484703787	 2.1513160948	 0.095944
H	 4.0256526655	 0.6049691721	 0.4899820495	 0.117103
H	 3.225034272	-0.7431319712	-0.3227577609	 0.118444
H	 2.6422805805	 0.9073333274	-0.5624496696	 0.121178
H	 0.3626606766	-0.480594462	 3.3389852734	 0.123634
H	-1.0957754809	-0.7149369391	 2.3546572983	 0.124206
H	 0.2495668436	-2.5039159458	 0.0013099474	 0.124071
H	 1.9013581509	-2.5353775654	 0.646805229	 0.124921
