21
gdb 33229	5.289	0.66334	0.63134	3.3169	85.73	-0.2156	0.0367	0.2523	1836.0169	0.184097	-383.322857	-383.313527	-383.312583	-383.358166	34.028	
C	 0.0290988832	 1.5797420321	 0.126844559	-0.380566
C	-0.0513560306	 0.0576584106	-0.0189716951	-0.162228
C	 0.7812801544	-0.4784667765	-1.1871545762	-0.146474
C	 0.7017833219	-2.0076709152	-1.3378782105	-0.317585
C	 1.4657650284	-2.5207267452	-2.518516859	 0.295617
C	 2.5745252124	-3.3280903931	-2.5417243973	-0.196343
N	 2.8916013818	-3.488648037	-3.8747962927	-0.229729
C	 1.9741215302	-2.7816976492	-4.5909211392	 0.009891
N	 1.1032648152	-2.1877062668	-3.8101943871	-0.3031
H	 1.0609702813	 1.907202473	 0.2968101454	 0.110989
H	-0.3301363345	 2.082442884	-0.7779695187	 0.114914
H	-0.5752701219	 1.9350723875	 0.967646986	 0.107505
H	 0.2804787838	-0.4176562378	 0.9143070531	 0.088362
H	-1.099072033	-0.2426422596	-0.154265474	 0.093826
H	 0.4482708411	-0.0189389003	-2.1253047793	 0.115701
H	 1.8315223132	-0.1843083582	-1.0577022401	 0.086743
H	 1.0747708748	-2.4910548025	-0.4266673758	 0.090683
H	-0.3522018487	-2.2983742062	-1.4380896549	 0.107823
H	 3.1510949645	-3.7928575733	-1.7591643004	 0.123267
H	 3.6523845434	-4.032346788	-4.2451447038	 0.264614
H	 1.9923214192	-2.7413285982	-5.6700895593	 0.126092
