18
gdb 46793	2.86347	1.65234	1.26669	4.159	71.72	-0.2232	0.0118	0.235	1008.6695	0.149602	-439.079731	-439.072193	-439.071249	-439.112397	28.801	
O	-0.0802089368	 0.0652531471	-0.7028401696	-0.304822
C	-0.0239714171	 1.1042790303	-0.1037449068	 0.37049
C	-1.3065700635	 1.9636588983	 0.0276549098	-0.315854
N	-1.3333781082	 3.1890510854	 0.7943434935	-0.090467
C	-0.1890649402	 4.1030212021	 0.4815442485	-0.189463
C	 0.5766237532	 3.5545241367	 1.707288742	-0.034446
C	-0.7892853226	 3.0067508743	 2.175059773	-0.188268
C	 1.5695064434	 2.4634358571	 1.3506109536	-0.075782
O	 1.1961919332	 1.5200358377	 0.3329701366	-0.240272
H	-1.5912281861	 2.1829458699	-1.0079725159	 0.146465
H	-2.0724293653	 1.2818891589	 0.4110958225	 0.144739
H	 0.2660265017	 3.9574128549	-0.5027287692	 0.115584
H	-0.4919103867	 5.1492822187	 0.5842923155	 0.112693
H	 1.0790155784	 4.2750304588	 2.3610870865	 0.082106
H	-1.3060077096	 3.6577716842	 2.886961468	 0.112376
H	-0.8186563687	 1.9784676006	 2.552778693	 0.109048
H	 2.494777209	 2.9104484389	 0.9726176074	 0.125662
H	 1.8227688558	 1.8837067261	 2.2478450517	 0.120213
