18
gdb 1175	3.79027	1.82065	1.7122	4.0456	67.68	-0.3113	0.0438	0.3551	852.1125	0.158537	-289.87152	-289.862881	-289.861937	-289.903922	31.282	
C	 0.1263284403	 1.5587016025	 0.0092206903	-0.409657
C	-0.0127364907	 0.0335824317	 0.0022746435	-0.177634
C	-1.4738570343	-0.5073187151	 0.0133830924	 0.090467
C	-2.2321647032	-0.0806996893	 1.2905463853	-0.405393
C	-2.256488474	-0.0671120409	-1.2443394527	-0.405398
C	-1.3859531643	-1.9787151796	 0.0045923206	 0.268068
N	-1.3121460077	-3.1324882889	-0.0018910445	-0.344988
H	 1.1859642461	 1.8309336973	 0.0008852466	 0.125351
H	-0.3345042576	 2.0196570211	-0.8691644046	 0.124033
H	-0.318121219	 2.0101250144	 0.9009031538	 0.124031
H	 0.4912872011	-0.373823189	-0.8813402753	 0.115245
H	 0.5081028573	-0.3833251472	 0.8715914017	 0.115252
H	-2.3642381236	 1.0042147193	 1.3064905565	 0.124617
H	-3.2222697914	-0.5428589426	 1.3244806494	 0.133914
H	-1.686742958	-0.3777670227	 2.1906144143	 0.131788
H	-1.7283787688	-0.3542844198	-2.1578446276	 0.131778
H	-3.247045007	-0.529115763	-1.2643259568	 0.133915
H	-2.3888630852	 1.0178788718	-1.2459749928	 0.12461
