21
gdb 119065	2.16241	1.21192	0.96632	2.6594	75.94	-0.2203	0.0669	0.2872	1344.0744	0.179412	-461.313675	-461.303182	-461.302238	-461.34934	37.624	
C	-0.6758041358	 1.2406037118	 1.1208674454	-0.232672
O	-1.0222366774	-0.1200100449	 0.9677534108	-0.245665
C	-0.4660165431	-0.7087896636	-0.1980892903	-0.135591
C	-0.8672426893	-2.1729693131	-0.2867518939	 0.312121
C	-0.9986193558	-2.9830238027	 0.9804944552	-0.377358
C	-2.2301726203	-2.6409019731	 0.1646663427	 0.078541
O	-3.2262207734	-1.7778501331	 0.614036236	-0.433271
O	-0.2484787341	-2.8347629106	-1.3559963943	-0.277175
C	-0.8274832278	-2.5931011272	-2.6273144743	-0.25207
H	-1.1411098359	 1.5936503842	 2.0436172251	 0.135778
H	 0.4139780967	 1.3658534794	 1.1965255142	 0.117733
H	-1.0391302223	 1.8477741148	 0.278641662	 0.115362
H	-0.8098507523	-0.1595819625	-1.0897134984	 0.095819
H	 0.6332626427	-0.6413323564	-0.1710071827	 0.108105
H	-0.632913796	-4.003418657	 0.9516500476	 0.118721
H	-0.8515311964	-2.4534732811	 1.9152920381	 0.121956
H	-2.6630758185	-3.4574218825	-0.4053741172	 0.107377
H	-2.779063262	-0.999692126	 0.9753157618	 0.290617
H	-0.6790399683	-1.5587755242	-2.9674272565	 0.107574
H	-0.3281026624	-3.2630993707	-3.3312461894	 0.1279
H	-1.9044557184	-2.8073656615	-2.6296214817	 0.116198
