17
gdb 79303	4.00428	1.22188	1.12931	1.3442	80.86	-0.2297	0.0265	0.2562	1123.1674	0.13474	-384.592827	-384.584976	-384.584032	-384.624951	30.874	
C	 0.0577616525	 1.6075523908	-0.000820288	-0.424658
C	 0.0764052801	 0.0873332579	-0.0006974141	 0.019968
C	 0.7699574139	-0.6812747417	-1.1327062417	-0.187635
C	 2.226280766	-0.8085528687	-0.6823159808	 0.024656
O	 2.3788479902	-0.1092027298	 0.5470966057	-0.283396
C	 1.0832978869	-0.6493693271	 0.9290972271	-0.017057
C	 1.2143795811	-1.7939381554	-0.1619874141	 0.298772
C	 1.0825928084	-3.1960999594	-0.1689126845	-0.023592
C	 0.962246416	-4.3945973801	-0.1615542629	-0.35933
H	 1.0737149234	 2.0020452135	-0.0762671442	 0.135528
H	-0.5271936315	 1.9909814954	-0.8435023142	 0.115166
H	-0.3938148482	 1.9939039107	 0.9196900642	 0.114858
H	-0.9219881726	-0.3334750044	 0.1567603907	 0.085118
H	 0.4620256043	-0.8069492822	-2.1628419299	 0.103887
H	 3.0822690866	-0.9391034678	-1.3302944007	 0.122921
H	 0.9547216932	-0.7544925079	 2.0038111736	 0.096132
H	 0.8614426297	-5.4512584538	-0.1556953861	 0.178662
