16
gdb 115029	2.1918	1.703	1.04554	2.547	71.36	-0.2584	0.0119	0.2703	1126.0739	0.123058	-437.849397	-437.840773	-437.839829	-437.88318	30.956	
C	-0.0807361203	 1.4609124138	-0.0618796777	-0.247387
O	-0.0250272099	 0.0480449234	 0.0705330416	-0.217557
C	-1.2479097558	-0.5760789633	-0.0003001313	 0.214619
O	-1.7865144418	-0.5030358314	-1.3475800221	-0.232124
C	-1.6207301804	-1.7437134359	-1.8731845557	 0.10969
N	-1.2467339407	-2.7007572129	-1.1344910544	-0.25092
C	-1.1103132603	-2.1152039589	 0.2227581242	-0.257647
C	 0.1078844001	-2.5267724619	 0.9051441976	 0.384952
C	 1.0838271964	-2.899001984	 1.4963096994	-0.446776
H	 0.934696462	 1.8300665989	 0.090461301	 0.139028
H	-0.4318993097	 1.7551309981	-1.0571954686	 0.1324
H	-0.7436032626	 1.9023210164	 0.6963804089	 0.113751
H	-1.9873561216	-0.0936132994	 0.6509922915	 0.088437
H	-1.8466797513	-1.8203463615	-2.9309621671	 0.146353
H	-1.9717454936	-2.4586553015	 0.8108996584	 0.125464
H	 1.9589300396	-3.2182477399	 2.0060900243	 0.197717
