20
gdb 113761	3.81226	0.79919	0.73107	2.3982	77.37	-0.2531	-0.0354	0.2176	1595.511	0.169041	-440.268079	-440.258155	-440.25721	-440.303941	35.579	
C	 0.7222603131	 1.5082265503	 0.3473286058	-0.38129
C	-0.0880979372	 0.2460810081	 0.0297783051	-0.182812
C	 0.3578863639	-0.3991636015	-1.2620009381	 0.008013
N	 1.552787384	-1.2619093021	-1.2159858488	-0.348554
C	 0.2523957617	-1.8478868044	-1.5826071489	-0.068472
C	-0.312786572	-2.8894718114	-0.6277482641	 0.053351
O	-1.6829119991	-3.0805195383	-0.8485964606	-0.43663
C	 0.4391967953	-4.1950741837	-0.8024449819	 0.130098
O	-0.1333680204	-5.2224574177	-1.0798450893	-0.265414
H	 1.786111555	 1.2690509102	 0.4415359535	 0.128063
H	 0.6153084603	 2.2592726626	-0.4434621116	 0.112012
H	 0.3918824634	 1.9641104218	 1.2852625922	 0.114854
H	 0.014896639	-0.4664941717	 0.853728028	 0.105514
H	-1.1548253393	 0.4900283029	-0.0479335037	 0.109052
H	 0.2732424157	 0.2567194358	-2.1293038545	 0.086254
H	 2.1343121088	-1.1330817163	-2.0386091391	 0.235837
H	 0.0754079157	-2.0985330197	-2.6277363327	 0.093462
H	-0.1145269702	-2.5587277344	 0.4053263678	 0.098031
H	-1.7862669035	-4.0302850685	-1.0220024511	 0.294173
H	 1.5363679158	-4.1471028122	-0.666029588	 0.114456
