24
gdb 87996	2.45403	1.30396	1.23788	1.0411	89.75	-0.2216	0.0845	0.3061	1228.67	0.215662	-368.382945	-368.372933	-368.371989	-368.417144	38.653	
C	-0.0956990778	 1.1882529378	-0.3696178893	-0.31682
N	 0.3597996924	-0.163826473	-0.0802151704	-0.129145
C	 1.7893449647	-0.340176209	 0.1825408719	-0.324813
C	 0.7863572384	-0.4632887983	 1.2723845507	 0.359163
C	 0.7081455666	 0.4123725136	 2.532262628	-0.317662
C	 0.6427645914	-0.8975936506	 3.3693654417	-0.263967
C	 0.3705665665	-1.7243218865	 2.0670383251	 0.257812
C	-1.1148021661	-2.0407363521	 1.8727211188	-0.428694
C	 1.2299018601	-2.9688372087	 1.871876406	-0.455642
H	 0.4465223538	 1.9700057121	 0.1869099993	 0.100398
H	 0.0253812913	 1.3863519421	-1.4394202276	 0.121606
H	-1.1605235448	 1.2737783743	-0.1289612167	 0.12038
H	 2.2485252363	-1.2180390056	-0.2656917698	 0.110204
H	 2.42095015	 0.5489411375	 0.190225745	 0.098845
H	 1.546569474	 1.0838470041	 2.7312602474	 0.100562
H	-0.2173720927	 0.9943042002	 2.586488897	 0.10507
H	 1.6050902006	-1.1469671971	 3.8242114919	 0.097345
H	-0.1302377528	-0.94597082	 4.1402902268	 0.094672
H	-1.740500133	-1.1612632592	 2.0588579821	 0.105308
H	-1.3072283988	-2.3695854824	 0.8470458238	 0.125248
H	-1.4368815839	-2.83244769	 2.5586693747	 0.10486
H	 0.9661531452	-3.7432322115	 2.6015003068	 0.109806
H	 1.0874168224	-3.3952755408	 0.8721458146	 0.117412
H	 2.2942774261	-2.7423223269	 1.9930935322	 0.108053
