16
gdb 69933	3.51446	1.5923	1.39285	1.0857	66.93	-0.244	0.0174	0.2614	928.753	0.125848	-437.857866	-437.850996	-437.850052	-437.888883	27.574	
O	-0.0599193607	 1.4201075133	 0.0646941515	-0.460247
C	 0.0087196745	 0.0434890419	 0.0415628269	 0.401775
C	-0.2787675332	-0.7734180276	-1.1776062318	-0.36111
C	-1.1719231522	-0.9449015707	 0.0323158502	-0.129172
C	-0.485878429	-1.7805630742	 1.1106881756	 0.077365
O	 0.1112723353	-3.0394254474	 0.7114659067	-0.230695
C	 1.4333498248	-2.7594576205	 0.5425230207	 0.104457
N	 1.8851333245	-1.5904240722	 0.7566819623	-0.264837
C	 0.7158727584	-0.7961499937	 1.136584848	-0.107811
H	 0.639562416	 1.770055436	-0.4982400381	 0.293575
H	-0.7492107645	-0.2051545421	-1.9738376829	 0.120419
H	 0.37940794	-1.5665246995	-1.5179379389	 0.1294
H	-2.2352996967	-0.7475016775	-0.018327254	 0.099423
H	-1.0622217012	-1.9444840234	 2.020994697	 0.097186
H	 2.0247876712	-3.6108175585	 0.221348486	 0.137836
H	 0.8798226627	-0.2252384539	 2.0521341508	 0.092434
