18
gdb 28213	4.67261	1.22139	0.99122	3.2925	80.91	-0.1688	0.0353	0.2041	1197.4212	0.151136	-398.166122	-398.158169	-398.157225	-398.198795	30.001	
C	 0.029915607	 1.4506243411	 0.0114271995	-0.499531
C	-0.0169593859	-0.0400606683	-0.0255115457	 0.31652
N	-0.1103486829	-0.7781378601	-1.1259642431	-0.390751
C	-0.0372979568	-2.0597707675	-0.6662960806	 0.316965
C	 0.114738993	-2.1305584254	 0.6832947089	 0.237242
C	-0.0274681818	-3.5340888024	 1.1734918602	-0.341695
C	 0.1623930419	-4.277999544	-0.1967746832	-0.157025
N	-0.2474203873	-3.3174636513	-1.2617454367	-0.397601
N	 0.0814235371	-0.8142981117	 1.1062128137	-0.404496
H	 1.0474197719	 1.8294073809	 0.172041638	 0.131566
H	-0.3235423848	 1.8361207829	-0.9460567315	 0.156238
H	-0.6039158592	 1.8586512774	 0.8065859571	 0.12271
H	 0.7111425038	-3.8722553172	 1.9081690028	 0.103924
H	-1.0231777932	-3.7340192412	 1.5966311584	 0.110302
H	 1.2228876428	-4.5476369889	-0.3013981688	 0.099821
H	-0.4310628888	-5.1937589289	-0.2558321434	 0.107527
H	 0.2520039076	-3.4608682737	-2.1317110509	 0.231071
H	 0.2079162657	-0.4662944217	 2.0412431752	 0.257213
