17
gdb 31927	4.65742	0.88714	0.78352	6.5087	82.94	-0.2358	-0.0546	0.1812	1446.4214	0.136588	-418.064741	-418.056141	-418.055197	-418.098874	30.752	
C	 0.2581899051	 1.5343681565	 0.1605849508	-0.371568
C	-0.0727880232	 0.0498820174	-0.07914416	-0.311176
C	 0.560660681	-0.5183811619	-1.3074602559	 0.307674
C	 0.0261354796	-0.9527012805	-2.5102525814	-0.157459
N	 0.9957119049	-1.3811682324	-3.3602605075	-0.270837
C	 2.1362091137	-1.2220747418	-2.7074559019	 0.24612
N	 1.9080139893	-0.6973764758	-1.4542136367	-0.331818
C	 3.4931850377	-1.5267266276	-3.1558570973	 0.087844
O	 3.7968725698	-1.9869881793	-4.2295311258	-0.254617
H	 1.3340553863	 1.6901113106	 0.2921480393	 0.113165
H	-0.0650462247	 2.1470506438	-0.68565002	 0.134838
H	-0.2430951851	 1.8993160735	 1.0616097267	 0.125082
H	 0.2234016765	-0.5369186095	 0.8004946871	 0.116588
H	-1.1558201188	-0.0732203075	-0.1761365059	 0.128604
H	-1.0185874251	-0.9713897375	-2.7859905127	 0.115996
H	 2.6117419954	-0.4918014455	-0.7626245951	 0.269869
H	 4.2685355376	-1.2877751725	-2.3872215436	 0.051695
