19
gdb 34754	4.79202	1.18614	1.08389	0.8776	85.88	-0.2509	0.0498	0.3006	1149.6567	0.160972	-348.688461	-348.681218	-348.680274	-348.719905	29.799	
C	-0.0877615429	-1.2570475297	-0.1455122201	-0.442196
C	-0.0403362507	-0.0576714948	-0.0618194171	 0.303023
C	-0.0021382446	 1.3890083309	 0.0200688009	-0.191859
C	 0.0459182734	 2.0808623467	 1.4157933761	-0.058002
C	 1.5454203895	 1.6635510544	 1.5712553342	-0.005004
C	 2.2861282246	 2.7551328013	 2.3427756896	-0.242216
C	 1.6230147616	 4.017820385	 1.7199087066	-0.248855
C	 0.6604200541	 3.3485745446	 0.7399613861	-0.01204
C	 1.3721648127	 2.1211463347	 0.0855188883	-0.058002
H	-0.1276906455	-2.3155462535	-0.2174984733	 0.188635
H	-0.7177725436	 1.8340787007	-0.6799214264	 0.089221
H	-0.729671739	 2.0515639919	 2.1836484552	 0.071422
H	 1.7811041123	 0.6193260046	 1.7746039449	 0.078325
H	 2.1215120424	 2.6800562892	 3.4223373919	 0.098718
H	 3.3668862191	 2.7178842496	 2.1731785838	 0.098718
H	 1.0972038949	 4.6291391143	 2.4602350295	 0.098824
H	 2.3426573773	 4.6669709253	 1.2109993614	 0.098824
H	 0.019006314	 3.9782362494	 0.1195574465	 0.061044
H	 2.1378430608	 2.1386630657	-0.6925747086	 0.071422
