16
gdb 20242	3.25519	3.18318	2.56378	1.3563	64.93	-0.2186	0.0858	0.3044	643.7572	0.134523	-346.590211	-346.585158	-346.584214	-346.618983	22.155	
C	-0.0322524039	 1.5512417344	-0.0547147268	-0.228635
C	 1.4281396088	 1.967055297	 0.0657000363	-0.113397
C	 2.1840515099	 1.3277611991	 1.2010185684	 0.089705
O	 1.4751944419	 0.447902006	 2.0383109038	-0.249125
C	 0.8432089452	-0.4936369555	 1.2065726875	 0.089704
C	 0.0049119021	 0.0337401207	 0.0715929481	-0.113397
C	 1.4286355997	-0.4627205808	-0.1887279691	-0.112219
C	 2.3243841386	 0.7540674107	-0.1924397484	-0.112219
H	-0.6509354003	 2.0090716208	 0.7263495083	 0.109815
H	-0.4433466257	 1.8509131083	-1.0255440369	 0.100921
H	 1.7314810447	 2.9572198532	-0.2569620815	 0.083417
H	 2.9701739305	 1.8572024206	 1.7258020928	 0.09848
H	 0.572739089	-1.399467449	 1.7357336761	 0.098481
H	-0.851367595	-0.5513258776	-0.2462684469	 0.083417
H	 1.667865949	-1.3484406761	-0.7608010289	 0.087525
H	 3.2395161656	 0.7864957383	-0.767314213	 0.087525
