19
gdb 71090	2.54388	1.57765	1.31556	0.7801	88.28	-0.2215	0.0375	0.259	1065.0153	0.158665	-348.684551	-348.676391	-348.675447	-348.716779	32.735	
C	 0.0397190745	 1.5781348191	 0.0174008549	-0.5012
C	-0.0304823206	 0.0766722622	 0.0079048759	 0.258216
C	 0.3844468945	-0.7544852751	-1.2411418165	-0.272998
C	-0.5821815064	-1.8239608604	-0.7449280839	-0.123913
C	-0.5044192743	-1.8373304312	 0.7796545102	-0.123931
C	 0.508401106	-0.7756611889	 1.1937500558	-0.272991
C	-1.3717808571	-0.8053070361	 0.0686136766	 0.29524
C	-2.7398403974	-0.4823483586	 0.141211627	 0.008466
C	-3.9037110957	-0.1742452718	 0.2033557002	-0.386738
H	 1.081899675	 1.9161820711	-0.0326170876	 0.11933
H	-0.4932146202	 2.0065504553	-0.8379294328	 0.12367
H	-0.4033870805	 1.9911626369	 0.9296583861	 0.123674
H	 0.0266787311	-0.2940627096	-2.1664695937	 0.102968
H	 1.446291448	-1.0096402531	-1.3408434041	 0.088821
H	-0.9985231114	-2.6598158505	-1.2918500757	 0.098339
H	-0.8636825123	-2.6830300899	 1.3513534444	 0.098338
H	 1.5746742617	-1.0314705328	 1.1806968047	 0.088805
H	 0.2467776431	-0.3317285477	 2.1584787044	 0.10298
H	-4.9296839578	 0.0915330909	 0.2584236341	 0.172923
