16
gdb 124210	4.72497	1.02924	0.8497	1.0153	75.72	-0.2296	-0.0062	0.2234	1289.2904	0.127114	-430.279202	-430.271098	-430.270154	-430.31296	29.706	
C	 0.4318339806	-0.5345392249	 1.3333538553	-0.476339
C	 0.0793905886	 0.0751304087	 0.0011164979	 0.408389
N	 0.0077243931	 1.3451749907	-0.0932679622	-0.510947
N	-0.1518254241	-0.7899127992	-1.0681184709	-0.452907
C	-0.1294264475	-2.1622060652	-1.1885481803	 0.506925
N	-0.3905128112	-2.7630057614	-2.3386743503	-0.353334
C	-0.2621840894	-4.0820717731	-2.0221862829	 0.041237
N	 0.0564683427	-4.3431313353	-0.7717742848	-0.22142
N	 0.140460994	-3.084531479	-0.2378680794	-0.273131
H	-0.3717056444	-1.1820229529	 1.7017679066	 0.14166
H	 1.3582752754	-1.1166260807	 1.2739873752	 0.141683
H	 0.5765900783	 0.277888445	 2.0431503581	 0.165729
H	-0.2373887783	 1.6482710716	-1.0384767022	 0.207125
H	-0.3860475701	-0.3538312353	-1.9491669509	 0.265726
H	-0.4103333005	-4.871080757	-2.7442358735	 0.13021
H	 0.3748080129	-2.971376592	 0.7311838343	 0.279393
