23
gdb 60094	3.51664	0.99756	0.92007	1.7845	86.51	-0.2324	0.0844	0.3169	1407.5668	0.204562	-388.236058	-388.22672	-388.225776	-388.270447	36.112	
C	 1.1171127481	-0.3411477007	-0.8182494748	-0.387105
C	 0.0421122227	-0.0012914238	 0.2242226588	 0.040797
C	-0.085193066	 1.5173495667	 0.4048822788	-0.391301
C	-1.3271740231	-0.6140206687	-0.1312808393	-0.346784
C	-1.4104818288	-2.1119007557	-0.0564607769	 0.443436
C	-0.9351584591	-3.0936548552	 1.0558721778	-0.25631
C	-1.3768248616	-3.9063455887	-0.1797941939	 0.049873
C	-2.6407549281	-3.0292976894	-0.3064398255	-0.262124
O	-0.6556298792	-2.9481061111	-1.0449198679	-0.337808
H	 2.0886881924	 0.0674992747	-0.5204279733	 0.101763
H	 1.2156832434	-1.4200251515	-0.9534928251	 0.14296
H	 0.8595771842	 0.0930765333	-1.792076127	 0.107498
H	 0.3527495058	-0.4288582517	 1.1881598101	 0.073084
H	-0.4170402457	 1.9951445388	-0.524857492	 0.112321
H	-0.8084658256	 1.7726998512	 1.1870131407	 0.105924
H	 0.8770246211	 1.9622431789	 0.6788397835	 0.109933
H	-2.0904032581	-0.2205310105	 0.5537193865	 0.099551
H	-1.6263843876	-0.301332376	-1.1409550133	 0.107221
H	 0.1374753131	-3.0956589993	 1.253345479	 0.106637
H	-1.537155961	-3.1663332196	 1.9657997894	 0.091912
H	-1.2447588377	-4.9667126185	-0.3927996033	 0.093273
H	-3.3994408673	-3.09536624	 0.4781278282	 0.09108
H	-3.0648327718	-2.9690071533	-1.3097835105	 0.104169
