19
gdb 109858	2.59124	1.41721	1.08389	2.6845	71.19	-0.245	0.0578	0.3028	1156.7745	0.157736	-460.118947	-460.109919	-460.108975	-460.152288	34.311	
C	-0.0721445551	 1.5360153458	 0.1596509029	-0.504999
C	 0.123993251	 0.0625030538	 0.0053121604	 0.40084
O	-0.7997209555	-0.8261006772	 0.647627419	-0.281533
C	 0.5954612284	-0.9784753824	 0.9430619181	-0.070435
C	 1.2435102023	-1.779124994	-0.1892593041	 0.125455
O	 0.8261677734	-3.1083210317	-0.3175054226	-0.440259
C	 0.6819173092	-0.7111306938	-1.2106856759	-0.121832
C	-0.324493011	-1.2334795861	-2.2185565165	-0.11701
O	 0.3447056389	-2.2495820176	-2.9814962084	-0.429602
H	 0.8368881113	 2.0794142498	-0.1178071217	 0.125695
H	-0.885494411	 1.89337682	-0.482293473	 0.129576
H	-0.3259864983	 1.7793402177	 1.1947221516	 0.137032
H	 0.8853371774	-0.9134290569	 1.9859698294	 0.100521
H	 2.3395558055	-1.695068521	-0.1275927972	 0.067044
H	 0.8231472829	-3.2954404892	-1.2669508244	 0.289103
H	 1.494884494	-0.1817062577	-1.7153587891	 0.078316
H	-1.1862913279	-1.649788886	-1.6856549865	 0.124372
H	-0.6742344234	-0.4262791607	-2.8788698241	 0.093594
H	-0.3023454222	-2.6654944729	-3.559546478	 0.294122
