18
gdb 18498	5.11819	1.17155	1.11663	2.9214	72.12	-0.2458	-0.0193	0.2265	1099.8082	0.153467	-347.782003	-347.774291	-347.773346	-347.815023	28.456	
O	-0.5851221829	 0.9514980127	 0.8055897201	-0.240092
C	 0.0486677456	 1.0834209714	-0.2099153065	 0.16315
C	 1.4005519648	 1.7495100291	-0.3122466858	-0.291543
C	 1.3431454611	 2.9919807796	-1.212616456	 0.00951
C	 0.6004291072	 4.2769705875	-0.6994743343	-0.252702
C	 1.8782456009	 5.0887172966	-0.9470978341	-0.033505
C	 3.0035032899	 4.5356678864	-0.1233630455	-0.274579
C	 2.6204048956	 3.8251208047	-1.3936230249	-0.067591
H	-0.3554424761	 0.7188757092	-1.1850708095	 0.067543
H	 1.7456540652	 1.9949460224	 0.6955949173	 0.118273
H	 2.1014576557	 1.0266614851	-0.7544140259	 0.113965
H	 0.9427539445	 2.7060802048	-2.1911222314	 0.079217
H	-0.2365151789	 4.5586351443	-1.3416015585	 0.106253
H	 0.2493582494	 4.2509400382	 0.3375879211	 0.107972
H	 1.915684239	 6.0815699049	-1.3776521555	 0.087993
H	 3.9369181867	 5.0868647571	-0.1771533923	 0.113007
H	 2.8085516886	 4.0960171272	 0.8520497922	 0.108925
H	 3.3291113637	 3.6976043888	-2.2036693707	 0.084203
