15
gdb 68005	3.06053	1.69891	1.30317	3.0647	63.82	-0.2408	-0.0289	0.2119	938.7525	0.112378	-457.728484	-457.721533	-457.720589	-457.759695	27.793	
O	-0.051711428	 1.3395546111	 0.0281721713	-0.465203
C	 0.0455523561	-0.045855939	-0.0319061531	 0.346343
C	 1.0466011806	-0.7087590016	-0.9647461908	-0.416947
C	 0.4099477847	-2.0779539195	-1.2754321293	 0.447649
O	 0.7631486319	-2.8741705784	-2.1004090818	-0.313365
C	-0.7616815904	-2.2128469118	-0.2926710135	-0.040294
O	-0.1055464285	-2.2216159623	 1.023472997	-0.303159
C	-0.4235499555	-0.8366054576	 1.1773477705	 0.031632
C	-1.2833265092	-0.7862534661	-0.0575511823	-0.194239
H	 0.6895382997	 1.6735716783	 0.5457067601	 0.291884
H	 1.1387878787	-0.1279358491	-1.8881145657	 0.141514
H	 2.0494246634	-0.8455822058	-0.5476227736	 0.134613
H	-1.4294761556	-3.060197181	-0.436982479	 0.104182
H	-0.5372099293	-0.4335168051	 2.1771592068	 0.115756
H	-2.2482088285	-0.350679882	-0.2719728867	 0.119634
