16
gdb 35408	3.15813	1.58132	1.32058	4.9688	71.69	-0.2442	0.0062	0.2504	965.5539	0.126172	-396.844572	-396.837582	-396.836638	-396.87598	27.66	
N	-0.4430001246	-1.1278773095	-0.5039063376	-0.328943
C	-0.2494785917	-0.014587301	-0.2606564131	 0.319348
C	-0.0157677393	 1.4018684152	 0.0213995729	-0.169012
N	-0.1582930132	 1.8163431318	 1.4447615514	-0.315778
C	 1.1160891842	 2.583933584	 1.385573104	-0.031705
C	 2.3547350876	 1.8359151302	 1.9217790889	-0.015261
C	 2.2500212006	 0.3893337157	 1.6944981592	-0.248464
N	 2.6332630488	 1.22710515	 0.5355328045	-0.154629
C	 1.4383826649	 1.9848968786	 0.0122349314	 0.008001
H	-0.6363533825	 1.9842661252	-0.6726149829	 0.123151
H	-0.9904746614	 2.3587937742	 1.6401847691	 0.234527
H	 1.0600574248	 3.6553029372	 1.5785316124	 0.085422
H	 3.1515511938	 2.2957912366	 2.4972250394	 0.102265
H	 3.0828564335	-0.2251195081	 2.0214874597	 0.130035
H	 1.2823786947	-0.096605543	 1.7389100089	 0.155803
H	 1.7156713397	 2.562563993	-0.8670452482	 0.10524
