17
gdb 12477	3.52453	1.87917	1.33967	2.1303	65.83	-0.2585	0.0183	0.2768	909.9134	0.143981	-400.996726	-400.989394	-400.988449	-401.028564	27.387	
N	-0.0769155552	 1.3340212736	 0.2962898089	-0.488742
C	-0.0170213218	 0.1088822753	-0.0236416227	 0.368781
C	-1.2866768695	-0.7104160366	-0.1078585491	-0.289682
C	-1.4608829355	-1.5601314634	-1.372294162	-0.082227
O	-0.7985674988	-2.813238589	-1.3469411067	-0.252881
C	 0.4857973237	-2.834877483	-0.7564317587	-0.07839
C	 1.3675467115	-1.6298269596	-1.0632759892	-0.09776
O	 1.1946961429	-0.5010118377	-0.2002194441	-0.253065
H	 0.8665559304	 1.7277973891	 0.3269038974	 0.217907
H	-1.3595222816	-1.3637250541	 0.7706278091	 0.131697
H	-2.1052145482	 0.0082315717	-0.0413346812	 0.14017
H	-2.5208469734	-1.7989182175	-1.4993221484	 0.118662
H	-1.155176741	-0.9775590679	-2.2556015084	 0.099403
H	 0.4244327821	-2.9511169331	 0.3371761704	 0.103644
H	 0.9745858317	-3.7317832788	-1.1523501148	 0.11706
H	 2.4129328041	-1.9134335471	-0.9153290777	 0.124724
H	 1.2473434986	-1.3266571417	-2.1116062128	 0.120699
