21
gdb 123005	2.85432	1.12078	0.98056	1.5503	75.73	-0.2445	0.0719	0.3163	1301.1391	0.181878	-461.331208	-461.321749	-461.320805	-461.365594	35.956	
O	-0.5666965996	 0.7158081392	-1.789051206	-0.41361
C	-0.3281018143	 0.2320080168	-0.4688928698	-0.075191
C	-1.613502489	-0.308700023	 0.1516054214	-0.091827
O	-2.1639783119	-1.2633273785	-0.7495206104	-0.27289
C	-3.5312163718	-1.0688290059	-1.1025177601	-0.142924
C	-3.7278975263	-0.053840236	-2.2100975127	 0.401216
O	-3.4008212295	 1.2644545657	-1.8713123098	-0.481045
C	-3.5238685842	-0.4837764927	-3.6468054172	-0.327167
C	-4.9150576957	-0.2038895607	-3.1128958233	-0.303938
H	-0.8637949323	-0.0563682653	-2.2886944966	 0.299444
H	 0.440805302	-0.5526386515	-0.4884774872	 0.107427
H	 0.0577159807	 1.0715624117	 0.1168896293	 0.117573
H	-1.3941759237	-0.7890668652	 1.1165940106	 0.095645
H	-2.3178665873	 0.5116592201	 0.3228355039	 0.120973
H	-3.8986992888	-2.0475461972	-1.4284580866	 0.101864
H	-4.1107983822	-0.7637029496	-0.2198793413	 0.102593
H	-2.4316485025	 1.3392043459	-1.8901976265	 0.291875
H	-3.0977431725	 0.2505070996	-4.3211024419	 0.119305
H	-3.2460258269	-1.5123123109	-3.8525020452	 0.112879
H	-5.5892179542	-1.0399311761	-2.9603008601	 0.111219
H	-5.3907612299	 0.7185558336	-3.4236975206	 0.126578
