16
gdb 79111	2.504	1.96884	1.52709	2.1498	67.16	-0.2435	-0.0243	0.2192	897.4021	0.125561	-437.86377	-437.856738	-437.855793	-437.895153	27.806	
O	 0.0715369606	 1.4541041371	 0.0844447251	-0.426178
C	 0.0045560401	 0.0554721559	-0.0356350074	 0.113255
C	-1.3877572134	-0.5325683102	-0.0501326441	-0.060941
C	-2.0594359112	-0.4190128069	-1.3711568311	-0.027328
C	-1.6394126398	 0.6108931049	-2.3962359541	-0.364703
C	-0.1285585207	 0.3774247763	-2.510679352	 0.4486
O	 0.6363809506	 0.9048547376	-3.2727121417	-0.319476
C	 0.2126991067	-0.6354913441	-1.4314546773	-0.193187
N	-1.0263103796	-1.4794943483	-1.1880486114	-0.150466
H	 0.996335411	 1.7205457898	 0.1251838963	 0.294069
H	 0.6236567688	-0.4495370878	 0.7152088702	 0.097662
H	-1.9247987565	-0.8775090872	 0.827545519	 0.099384
H	-3.0689231553	-0.8147609607	-1.4113129055	 0.105976
H	-2.1202445945	 0.4354701323	-3.364130035	 0.136337
H	-1.8289711289	 1.6471964146	-2.104234157	 0.15102
H	 1.1291525321	-1.1965833334	-1.5985064638	 0.095973
