20
gdb 57682	2.98616	0.81855	0.75349	3.7331	85.56	-0.271	0.0329	0.3039	1573.1766	0.167907	-366.003409	-365.992806	-365.991861	-366.039201	38.499	
C	 0.0894791922	 1.5747116928	-0.0157745661	-0.409411
C	 0.0309524498	 0.0311294827	 0.0413938621	 0.075019
C	 0.8630387092	-0.4943739548	 1.2333667792	-0.409416
C	-1.4337954761	-0.4931387322	 0.079988649	-0.187714
C	-2.2526815351	-0.0554962182	 1.313248121	-0.387749
C	-3.609474025	-0.5872842054	 1.2710719991	 0.287581
C	-4.7216424797	-1.038331203	 1.2114673741	-0.420355
C	 0.6321021554	-0.4926671071	-1.1986275654	 0.264981
N	 1.1022267302	-0.9042550466	-2.1711840787	-0.34052
H	 1.1194813059	 1.9154142219	-0.1494347296	 0.136956
H	-0.5073664787	 1.961150053	-0.8464327696	 0.135807
H	-0.2884536273	 2.0063814593	 0.914915384	 0.125863
H	 0.4909644491	-0.0769801294	 2.1728854781	 0.125874
H	 0.8180389722	-1.5851318534	 1.2948975749	 0.135797
H	 1.9111968023	-0.2024444357	 1.1285568456	 0.136961
H	-1.9513947666	-0.1562649692	-0.8235445978	 0.128868
H	-1.4167410392	-1.58666893	 0.0391337342	 0.128873
H	-1.7636716958	-0.3933649956	 2.2345903655	 0.13691
H	-2.2980612247	 1.0384297986	 1.371745193	 0.136893
H	-5.707005838	-1.4316431375	 1.1697884274	 0.198781
