17
gdb 17389	5.01792	1.59415	1.50468	1.0148	67.07	-0.2387	0.061	0.2997	877.7874	0.143254	-363.783849	-363.777058	-363.776114	-363.81516	25.862	
C	 0.0046044971	 1.4213720667	-0.076393186	-0.242971
C	 1.2593076095	 0.6520666324	 0.0491754128	-0.102749
N	-0.0956591163	-0.0403080817	 0.0668461221	-0.122917
C	 0.235599916	-0.591644213	-1.2965499025	-0.246022
C	 1.6557379811	 0.0198132398	-1.2759639387	 0.295022
C	 2.322074111	 0.7986630129	-2.4265093935	-0.137153
O	 3.4655792219	-0.0792971699	-2.4236460888	-0.273646
C	 2.9010347322	-0.8837460489	-1.3699000993	-0.134612
H	-0.3429691257	 1.9588537763	 0.8005201295	 0.125571
H	-0.2635623878	 1.8815976696	-1.0262438597	 0.11133
H	 1.8896298472	 0.7001441086	 0.9326545866	 0.098819
H	 0.2349939853	-1.6842834817	-1.2717653209	 0.116238
H	-0.4437778129	-0.249695736	-2.0859059279	 0.105008
H	 1.7856583208	 0.7715976659	-3.3846157126	 0.099813
H	 2.5940160185	 1.8374105195	-2.1979585163	 0.10257
H	 3.5415673443	-0.9059452418	-0.4782796233	 0.104559
H	 2.7074634779	-1.9149439485	-1.6951421315	 0.101142
