21
gdb 99640	2.26778	1.10212	0.86091	3.5083	83.36	-0.2625	0.0372	0.2997	1443.0785	0.181797	-383.27139	-383.261156	-383.260212	-383.30728	36.645	
C	 0.0368102905	 1.5346649419	 0.1962397114	-0.400942
C	-0.0851057451	 0.0108636129	 0.1543462447	-0.181413
C	-1.4932189958	-0.490391701	-0.2435581026	-0.133303
C	-1.8583826071	-0.0426743003	-1.5930674431	 0.27686
N	-2.1323968708	 0.3006478755	-2.6624329696	-0.333725
C	-1.5835328651	-2.0096752977	-0.1554394934	-0.029967
N	-1.7505293986	-2.5569537742	 1.1965805415	-0.345736
C	-2.8185207728	-2.7596791661	 0.1992171256	 0.003965
C	-4.1629301456	-2.1301943669	 0.4743768849	-0.403159
H	 1.0471556466	 1.8334990958	 0.4899158109	 0.120344
H	-0.1745308138	 1.9781061168	-0.7816748341	 0.142034
H	-0.6625465775	 1.9676683828	 0.9197218845	 0.120047
H	 0.6492277327	-0.4070203949	-0.5444372987	 0.109589
H	 0.1283462319	-0.4171563717	 1.1393244759	 0.12173
H	-2.2177895772	-0.0584916562	 0.4551677917	 0.126599
H	-0.8904932939	-2.5163253321	-0.8260855426	 0.096242
H	-1.1941239592	-3.3979456834	 1.3189155548	 0.23538
H	-2.8812466252	-3.7520650596	-0.246241761	 0.090119
H	-4.0615830898	-1.1691020216	 0.983041805	 0.127497
H	-4.7174430511	-1.97603682	-0.4570239897	 0.13268
H	-4.7603460033	-2.7816910399	 1.1205618638	 0.125159
