16
gdb 26537	2.37392	1.87708	1.05617	4.6689	76.95	-0.2062	-0.0202	0.186	1079.9184	0.125617	-434.10689	-434.098493	-434.097548	-434.140404	31.071	
C	 0.0008627134	 1.550014386	 0.0163893814	-0.516312
C	 0.0073680119	 0.0451839485	 0.0146858739	 0.144286
C	-1.136697775	-0.6738802312	 0.0273713008	 0.328937
N	-2.4241924239	-0.1965744738	 0.112284421	-0.575464
O	-1.1428169391	-2.0452750738	 0.0137918874	-0.216308
C	 0.0739273725	-2.6538644763	-0.0017910158	 0.114193
N	 1.208058378	-2.0974289112	 0.0027049946	-0.310861
C	 1.2764571111	-0.6755389115	 0.0206559358	 0.275206
N	 2.4018636266	-0.0648289228	 0.0350167823	-0.53564
H	 0.9883208589	 1.9054322773	-0.2810113402	 0.171125
H	-0.7400125243	 1.9621639326	-0.6809704055	 0.103247
H	-0.2142452613	 1.9616569667	 1.0102580652	 0.13136
H	-2.5357989177	 0.7749790316	-0.13364608	 0.266297
H	-3.1240110184	-0.8010358737	-0.2938945903	 0.262438
H	-0.0501502138	-3.7327410078	-0.0176539755	 0.14251
H	 3.1514427212	-0.7577303407	 0.0259404649	 0.214986
