12
gdb 20687	4.04474	2.00639	1.35729	2.43	61.66	-0.271	-0.1127	0.1582	840.6383	0.082142	-410.794838	-410.787728	-410.786784	-410.826934	25.081	
C	 0.0082280922	 1.4910360117	-0.0316658845	-0.459057
C	-0.1012101997	 0.0067432716	 0.0370955188	 0.371058
N	-1.1784597373	-0.6200723012	-0.2268552795	-0.253238
C	-1.1671948152	-2.0109929559	-0.1426871806	 0.444471
N	-2.2300690617	-2.6831392453	-0.2395186446	-0.498024
O	 0.06567677	-2.6285976262	 0.0185879848	-0.265407
N	 1.217241701	-1.857496099	 0.4129571157	 0.071776
N	 1.1209927981	-0.636011783	 0.4361462863	-0.136831
H	 0.8054406824	 1.7745366604	-0.7273862687	 0.160941
H	-0.9394691513	 1.9227316734	-0.3504453689	 0.162334
H	 0.2922519061	 1.8878583691	 0.9491071786	 0.162425
H	-2.0353313444	-3.6798318855	-0.1392635675	 0.239552
