19
gdb 52699	3.1867	0.75635	0.66854	2.2255	82.54	-0.2511	0.0162	0.2673	1749.804	0.154881	-423.04771	-423.036459	-423.035515	-423.087118	37.337	
C	 0.072477088	 1.4517109007	-0.0367475178	-0.49917
C	 0.0616863517	-0.0035583139	-0.0331100981	 0.087843
C	 0.0619507242	-1.2069718484	-0.03470835	 0.074481
C	 0.0276802163	-2.6631275067	 0.0007531846	-0.059892
C	-1.3947268542	-3.2259538646	 0.0579344971	-0.398506
O	 0.6904077562	-3.1465798797	-1.2032742154	-0.248685
C	 1.3425378795	-4.324316356	-1.0959603014	 0.439934
C	 1.9932188724	-4.6860971014	-2.4097455431	-0.477476
O	 1.3923950756	-4.9826749012	-0.0867320741	-0.356173
H	 0.6579780226	 1.8488194956	 0.7995698585	 0.151035
H	 0.5125422863	 1.8374232875	-0.9628379839	 0.153597
H	-0.9417613739	 1.8579515586	 0.0422425841	 0.150492
H	 0.5981060377	-3.0392351497	 0.8554399989	 0.135336
H	-1.3570560563	-4.3162268721	 0.1156724824	 0.138219
H	-1.9088951169	-2.8442043615	 0.9439388902	 0.129843
H	-1.9577199505	-2.9251224636	-0.8290667392	 0.130092
H	 2.710577479	-3.911740169	-2.695773928	 0.152136
H	 2.4990673964	-5.6457911394	-2.3119116851	 0.147141
H	 1.2392762662	-4.7376220152	-3.2000939798	 0.149753
