18
gdb 44932	2.64977	1.81937	1.5639	2.9733	76.37	-0.2483	-0.002	0.2463	934.4074	0.151687	-401.98398	-401.977258	-401.976314	-402.014892	27.816	
N	-0.0680156603	 1.2783300293	-0.1391855546	-0.555375
C	-0.0287138763	 0.0206972147	-0.0410397194	 0.425579
O	 1.117226117	-0.7307274063	 0.0138951113	-0.250673
C	 0.726948457	-2.1159870261	 0.2532319747	 0.045102
C	-0.6084407992	-2.2126905629	-0.4959546721	-0.241076
C	-1.2307708165	-0.9094981521	 0.0346302352	-0.113444
C	-1.6591726406	-1.1059027046	 1.5090771453	-0.261465
C	-0.6105140936	-1.8503531035	 2.3015263432	-0.04998
C	 0.4983694606	-2.3288942007	 1.7365167094	-0.062693
H	 0.8778879009	 1.6653697409	-0.1483554029	 0.219896
H	 1.5283269622	-2.7389317584	-0.1439934245	 0.085555
H	-0.4516500881	-2.1709863102	-1.5775799652	 0.111458
H	-1.1747559729	-3.1118726858	-0.245861727	 0.109254
H	-2.0560684801	-0.5152272341	-0.5576832028	 0.098044
H	-1.8582852537	-0.1311660952	 1.9696707188	 0.134866
H	-2.6092805929	-1.6581175013	 1.5438933944	 0.111546
H	-0.7922107997	-1.9809973757	 3.365322972	 0.097743
H	 1.2572741663	-2.8439024483	 2.3160565942	 0.095663
