17
gdb 103053	2.64676	1.54024	1.16849	1.0516	75.42	-0.2284	0.0247	0.2531	1078.7843	0.133345	-421.724257	-421.715569	-421.714625	-421.757498	32.372	
C	 0.1629055711	 1.0947577174	 0.4111173521	-0.257502
O	-0.0603243251	-0.1126005269	-0.3061555285	-0.279581
C	-1.3350541241	-0.6369791519	-0.12636165	 0.223228
C	-2.4068476141	 0.0299487065	-0.8236280616	 0.286464
C	-3.2968782611	 0.6057023837	-1.3928093876	-0.428308
C	-1.4641886192	-2.1448382589	-0.0119817576	-0.212874
C	-0.2849352299	-2.6613439192	 0.807458066	-0.108409
O	-0.5862986902	-1.7403654681	 1.8955093953	-0.289061
C	-1.7313689466	-1.2763740047	 1.200444566	 0.018778
H	 1.182800371	 1.4090078298	 0.1803938563	 0.127863
H	-0.5354739071	 1.8808775308	 0.0960508172	 0.118817
H	 0.0677112075	 0.9315693943	 1.4913510005	 0.128168
H	-4.0786043902	 1.110064099	-1.9051736709	 0.195928
H	-2.1186952418	-2.7233288465	-0.6485830085	 0.116638
H	-0.4149435127	-3.6951854137	 1.142595489	 0.114662
H	 0.7161039139	-2.505983779	 0.3981949314	 0.127509
H	-2.6218171214	-1.0224047524	 1.7638432409	 0.11768
