22
gdb 110863	2.22655	1.34184	1.14598	1.7499	82.6	-0.2246	0.0614	0.286	1242.5699	0.192993	-404.308035	-404.298213	-404.297269	-404.342291	37.028	
C	-0.0305088298	 1.4709131187	-0.2482986633	-0.372983
C	 0.0416960741	 0.0507548549	 0.3273282792	-0.226039
C	-1.2945805529	-0.661152026	 0.2515974771	-0.016822
N	-1.9485109924	-1.1294651171	-0.9953843471	-0.193616
C	-0.8646675358	-1.727611154	-1.851384295	-0.208504
C	-0.5541861226	-2.812039459	-0.785229394	 0.040778
O	 0.746116051	-2.9524664864	-0.2474971251	-0.429244
C	-1.5570696243	-2.1137085595	 0.1248016557	 0.309636
C	-2.5620860652	-2.8479495413	 0.9646970673	-0.499314
H	 0.9294549638	 1.9862981634	-0.1464976772	 0.109639
H	-0.2956712951	 1.4557000553	-1.3105341758	 0.123587
H	-0.7887847167	 2.0700820565	 0.2677423672	 0.114603
H	 0.8273283047	-0.5282315155	-0.1599557795	 0.119395
H	 0.325714332	 0.0971916187	 1.3863683064	 0.099245
H	-2.0506753182	-0.1671095679	 0.8635980412	 0.086348
H	-1.297197876	-2.1209645464	-2.7740098997	 0.102979
H	-0.0472020748	-1.0457274927	-2.1013436155	 0.10516
H	-0.9455085565	-3.7883667648	-1.1006706454	 0.077635
H	 1.2660969927	-3.4934153538	-0.8504105464	 0.284639
H	-2.0789648018	-3.2833411187	 1.8474625681	 0.127526
H	-3.3511649406	-2.1736063779	 1.3090568968	 0.127687
H	-3.0334895255	-3.6620100765	 0.402980575	 0.117667
