14
gdb 130707	5.15021	1.10203	0.94822	3.9825	65.23	-0.2291	0.0137	0.2429	1171.4835	0.102159	-470.010863	-470.003365	-470.002421	-470.043525	27.092	
O	 0.0383235023	 0.0733761158	-0.1831752044	-0.386357
C	 0.0240331945	 1.2676438961	-0.1222836771	 0.47976
N	-0.9221022175	 2.1546737563	 0.2926999265	-0.313658
N	-0.5168362651	 3.4803614168	 0.2002927134	-0.299133
C	 0.6760691277	 3.3738080814	-0.2788523571	 0.491425
O	 1.0944662955	 2.1012063417	-0.4989683429	-0.2362
N	 1.5208972217	 4.3861983156	-0.6607300793	-0.154788
C	 1.49535896	 5.6343771819	 0.0940560803	-0.216798
C	 2.6735597993	 4.7266530357	 0.1867330575	-0.227599
H	-1.8476713432	 1.9241624932	 0.6065166882	 0.289688
H	 1.546780746	 6.5310494547	-0.5142132739	 0.13831
H	 0.8232971499	 5.6815066639	 0.9452460224	 0.15188
H	 2.803789967	 4.16109263	 1.1048971662	 0.142132
H	 3.5841286817	 4.9477588269	-0.35921258	 0.141338
