21
gdb 106583	2.59678	1.50001	1.29772	0.9258	82.99	-0.2266	0.0116	0.2382	1110.4926	0.182279	-387.050108	-387.041541	-387.040596	-387.082867	33.839	
C	-0.1330021846	 1.3591561317	 0.0096176825	-0.262542
O	 0.1747762975	-0.0188401104	 0.0625321114	-0.304929
C	 0.7263694766	-0.5260636773	-1.1047507081	 0.402664
C	 0.0009894721	-0.5171412194	-2.5034893833	-0.280922
C	 1.0605977062	-1.6411604645	-2.7693102466	-0.103518
C	 2.3574909176	-0.8308464514	-2.6317634429	-0.081562
C	 2.144826602	-0.0926266637	-1.5407892813	-0.160773
C	 0.8049325642	-2.0806852982	-1.2749265248	 0.007421
C	 1.7924895923	-2.9253901999	-0.4916477311	-0.436105
H	 0.756127527	 1.9733862964	-0.1935759131	 0.108352
H	-0.8853804237	 1.5771238537	-0.7621345315	 0.112334
H	-0.5369474389	 1.635689302	 0.9861634748	 0.126735
H	-1.0288262965	-0.8844345433	-2.4573030267	 0.09495
H	 0.07858944	 0.3858786049	-3.1119748294	 0.090468
H	 0.9604512641	-2.3393871098	-3.5980857811	 0.063295
H	 3.2238061062	-0.8874261398	-3.2758939203	 0.100081
H	 2.7826404318	 0.6154305532	-1.0313040829	 0.100907
H	-0.2028728713	-2.5013918995	-1.1803156627	 0.073315
H	 2.8113777338	-2.5386849855	-0.5730526372	 0.11715
H	 1.5185740905	-2.9461001854	 0.568499063	 0.122812
H	 1.7887927933	-3.9594357838	-0.8536769586	 0.109866
