25
gdb 40819	3.44245	0.98564	0.82652	0.0941	92.71	-0.2655	0.0905	0.3559	1495.6722	0.231813	-352.373304	-352.364482	-352.363538	-352.406811	35.339	
C	-0.2061595153	 1.4084186847	-0.1991222963	-0.278151
C	 1.2351633013	 1.0568666609	 0.0838654041	-0.278151
C	 0.1893984295	-0.0281238771	 0.0319641795	 0.030674
C	-0.2358610012	-0.7582356795	 1.2908966602	 0.031445
C	-1.6703689665	-1.3054995161	 1.1736380414	-0.185989
C	-2.1061104885	-2.0628171873	 2.4365874248	-0.199485
C	-1.1218518907	-3.1881256691	 2.7847070386	-0.175527
C	 0.3110874151	-2.6524331501	 2.9111567903	-0.199485
C	 0.7412588265	-1.8937568961	 1.6471132955	-0.18599
H	-0.7653656343	 1.9107769062	 0.5840115901	 0.107021
H	-0.4734047957	 1.7205608274	-1.202749898	 0.107444
H	 1.9522734758	 1.1289126635	-0.7264945386	 0.107444
H	 1.6376261682	 1.3246658226	 1.0558127417	 0.107021
H	 0.2098831803	-0.6584341393	-0.8553986925	 0.074562
H	-0.2211526853	-0.0314929031	 2.118908722	 0.057411
H	-2.3639237492	-0.4839674685	 0.9603818403	 0.089388
H	-1.719884814	-1.9843583542	 0.3095493294	 0.086326
H	-2.1609682567	-1.3585689023	 3.2787704065	 0.089257
H	-3.1165828473	-2.4667364538	 2.3049813797	 0.086946
H	-1.4255794156	-3.6866249515	 3.7123805028	 0.08633
H	-1.1534079746	-3.9526471455	 1.9955798755	 0.08959
H	 0.3678748322	-1.9754172819	 3.7752585822	 0.089257
H	 1.0087135496	-3.4730004853	 3.114902424	 0.086946
H	 0.7893182925	-2.5964182788	 0.8021826787	 0.086326
H	 1.752216814	-1.487998406	 1.7685025381	 0.089389
