17
gdb 132528	3.06978	1.32005	0.93376	1.7595	80.	-0.241	-0.0235	0.2175	1226.6336	0.135226	-426.04926	-426.040676	-426.039732	-426.083023	31.198	
C	-0.020183887	 1.5295286516	 0.0117881381	-0.496009
C	-0.0030566022	 0.0232864497	 0.0114274831	 0.272547
C	-0.1062152861	-0.7122250174	-1.1688787953	-0.078035
N	-0.0970066744	-2.0466366222	-1.2355849272	-0.312902
C	 0.0177744221	-2.7506735403	-0.1077781816	 0.197889
C	 0.028092126	-4.2523196313	-0.1811889435	-0.485255
C	 0.1259085589	-2.0872899302	 1.1174826468	 0.235556
F	 0.2402395687	-2.8151914142	 2.2367919021	-0.077362
C	 0.1173738897	-0.7098602681	 1.1956351458	-0.285311
H	 0.9004689719	 1.9399799698	 0.4412093204	 0.136049
H	-0.1194731376	 1.9210885613	-1.0038223325	 0.131155
H	-0.8544915333	 1.9199134481	 0.6050583248	 0.136072
H	-0.2021168234	-0.1913869049	-2.1193903998	 0.101502
H	 0.9534715742	-4.6646139194	 0.2355920148	 0.135611
H	-0.7976995053	-4.6843748136	 0.3945765454	 0.135664
H	-0.0632542174	-4.5605191737	-1.2232351492	 0.140846
H	 0.2034315051	-0.2273444852	 2.1637861578	 0.111981
