17
gdb 53407	2.18209	1.12643	0.80076	1.2819	78.26	-0.2462	-0.0306	0.2156	1433.3842	0.133101	-421.783481	-421.773713	-421.772768	-421.821065	32.552	
C	 0.1310148802	 1.5655712563	-0.2642196848	-0.50041
C	 0.074440033	 0.1268056994	-0.0579095239	 0.091974
C	 0.0263086082	-1.0638830957	 0.1181206803	 0.078447
C	-0.0179539258	-2.5010584856	 0.3115954433	-0.067564
O	-0.1689904624	-2.9114927535	 1.6956587009	-0.271478
C	-1.263756674	-3.785246733	 1.3674282315	-0.089729
C	-1.3128683598	-3.284430164	-0.0967025596	-0.165908
C	-2.512867893	-2.4282906829	-0.4106580045	 0.173168
O	-3.2098420384	-2.5679701085	-1.3819509509	-0.255321
H	 1.0602889403	 1.8603620007	-0.7631835464	 0.154726
H	-0.7059017235	 1.909863119	-0.8811942011	 0.157185
H	 0.0812075573	 2.0981797695	 0.6916114891	 0.158236
H	 0.8769922401	-2.9634886675	-0.1264524144	 0.110612
H	-0.9990601541	-4.8445193169	 1.4684675282	 0.114151
H	-2.1503717251	-3.5771574486	 1.978628433	 0.115215
H	-1.1792507073	-4.0312213804	-0.8785999319	 0.104202
H	-2.7277865356	-1.6453771481	 0.349958081	 0.092494
