14
gdb 127969	2.86813	1.38931	0.94139	4.1964	69.59	-0.241	-0.0388	0.2022	1168.3036	0.100501	-470.020632	-470.0124	-470.011456	-470.054389	28.186	
C	 0.0078191808	 1.4454342641	 0.0785083831	-0.337524
N	-0.0233465326	-0.0056812689	 0.1022528259	-0.363183
C	-1.1035911801	-0.6268481775	 0.0034723942	 0.54464
O	-2.393724516	-0.1097668234	-0.1377101229	-0.213571
C	-3.2134722788	-1.1942947729	-0.2012775753	 0.102318
N	-2.6439695502	-2.333124788	-0.1221385825	-0.189693
N	-1.29754097	-2.0164057353	 0.0093455902	-0.159385
C	-0.2978060232	-2.9826014671	 0.129158762	 0.172826
O	-0.4985321929	-4.165298432	 0.1305296355	-0.272903
H	 0.6453947466	 1.7774983874	-0.747937449	 0.137442
H	-0.9776499534	 1.9124094153	-0.0304472991	 0.127399
H	 0.4672184909	 1.8100046106	 1.0036001219	 0.137442
H	-4.2712168435	-1.0164733582	-0.3124597674	 0.180156
H	 0.6840474323	-2.4922309342	 0.2202452835	 0.134034
