25
gdb 89050	4.39256	0.62044	0.58412	0.1185	94.09	-0.2565	0.0938	0.3503	2021.0619	0.228589	-352.336251	-352.326005	-352.325061	-352.372424	38.285	
C	-0.0282886642	 1.5392716315	-0.1992864202	-0.40298
C	 0.0133235336	 0.0394083263	 0.0019202651	-0.00581
C	 1.3173626496	-0.721644555	-0.0529194028	-0.291008
C	 0.5614627803	-0.6121772118	 1.2526973329	 0.012584
C	 1.1254777563	 0.1676104788	 2.4231248479	-0.202502
C	 2.0854494244	-0.6683299727	 3.2845333516	-0.195665
C	 2.6481885583	 0.0968649233	 4.4635420906	 0.035529
C	 1.876259722	 0.1856082002	 5.757045318	-0.254106
C	 3.1466428422	-0.6275859533	 5.6871498387	-0.277963
H	 0.8644515747	 2.0309508268	 0.1971295606	 0.115199
H	-0.0880515046	 1.7846796891	-1.2655762885	 0.114252
H	-0.8994802458	 1.9868280291	 0.292781596	 0.114221
H	-0.8388147357	-0.4761447394	-0.4350150359	 0.078449
H	 1.3540870929	-1.6756100092	-0.5679750113	 0.104514
H	 2.2269889181	-0.1346695974	-0.147248129	 0.103381
H	 0.0364860147	-1.5159453136	 1.5570821218	 0.074821
H	 1.6560627574	 1.0577971071	 2.0643590153	 0.089759
H	 0.3068190127	 0.5362896935	 3.0558385146	 0.096088
H	 1.5603325913	-1.5607350676	 3.6523633034	 0.086589
H	 2.9054522853	-1.0374280506	 2.654095702	 0.097498
H	 3.2043808118	 0.9908685822	 4.1891275954	 0.076833
H	 1.889553765	 1.1175786799	 6.311470583	 0.107697
H	 0.9357794866	-0.3529274419	 5.8206524706	 0.107028
H	 3.0566225773	-1.7090914296	 5.7060463291	 0.107754
H	 4.0293447456	-0.2492716459	 6.1911426811	 0.107838
