18
gdb 18014	4.2239	1.55758	1.41699	1.0645	67.47	-0.2457	0.0623	0.308	954.1996	0.153884	-384.899179	-384.891683	-384.890739	-384.931193	28.002	
C	 0.2795218829	 1.3623566899	 0.1974887788	-0.382327
C	-0.0146620434	-0.1230910592	-0.0343099584	-0.194122
C	 0.5531885662	-0.6262587634	-1.3454427735	 0.1325
O	 2.0051739042	-0.4692451574	-1.4593914465	-0.318936
C	 2.1810543224	-1.8525496838	-1.803842751	 0.072812
C	 2.4048780882	-2.7550259761	-0.5825705955	-0.093258
O	 0.9713567388	-2.9039056894	-0.3927763304	-0.289882
C	 0.6857442432	-2.1454133104	-1.5824430416	 0.035032
H	 1.3577687402	 1.5444823752	 0.1895286019	 0.135887
H	-0.1712871447	 1.9860039965	-0.5825761675	 0.111457
H	-0.1165657348	 1.6943839943	 1.161612163	 0.112416
H	 0.3954395876	-0.7301154966	 0.7785791028	 0.114796
H	-1.0984658181	-0.2999515191	-0.0450442693	 0.097572
H	 0.07194772	-0.1251991388	-2.1991463245	 0.073179
H	 2.7677891901	-2.0034535267	-2.7114297927	 0.088641
H	 2.8744755798	-3.7233269551	-0.7977993458	 0.10424
H	 2.8995102121	-2.2740917179	 0.2675030759	 0.114948
H	-0.0120307946	-2.650226032	-2.2527281855	 0.085045
