20
gdb 80984	2.45763	1.83559	1.34796	1.8595	79.32	-0.2095	0.0119	0.2214	1022.8854	0.17151	-403.120287	-403.112164	-403.11122	-403.152122	33.068	
C	-0.0669922168	 1.5215670977	-0.0132210659	-0.414168
C	 0.024103212	 0.0071059892	 0.0639486817	 0.035742
N	 1.1141289107	-0.5631051853	-0.8261955718	-0.127612
C	 2.0431568892	-0.4841983255	 0.3608823389	-0.246971
C	 0.7876971925	-0.6082773193	 1.2671651175	 0.376972
O	 0.6821365636	 0.0553859996	 2.49692163	-0.501174
C	 0.4276964249	-2.0857096761	 1.3050845981	-0.138554
C	 0.4453452375	-2.7553671708	 0.1534388202	-0.077215
C	 0.8148220527	-1.9839722227	-1.1020152963	-0.224082
H	 0.8954909106	 2.0085954731	 0.1612639543	 0.121121
H	-0.4221885179	 1.8201836754	-1.0043656643	 0.117344
H	-0.7708350126	 1.8933626511	 0.7375741362	 0.123518
H	-0.9590613151	-0.4358852108	-0.1250151042	 0.071144
H	 2.7967068424	-1.2739316892	 0.4185271788	 0.096091
H	 2.5241457603	 0.4957358462	 0.4011143398	 0.107716
H	 1.1671749483	-0.4461166608	 3.1613714956	 0.275522
H	 0.1559629942	-2.5325065741	 2.2575828514	 0.086643
H	 0.2023292746	-3.812011757	 0.0809218859	 0.092171
H	-0.0021069321	-2.0282071246	-1.834678171	 0.11386
H	 1.6873655609	-2.4354588263	-1.5929761649	 0.111931
