12
gdb 42154	3.21032	0.74646	0.60788	4.8662	77.41	-0.2911	-0.111	0.1801	1675.1269	0.074254	-398.291935	-398.282704	-398.28176	-398.328309	30.794	
O	 0.0426032422	-0.1107807577	 0.0017563863	-0.247462
C	-0.0244529595	 1.0970272297	 0.0056414394	 0.19629
C	 1.1996601512	 1.9201753822	 0.0009475931	 0.229838
N	 2.1655817976	 2.5555886421	-0.0028444834	-0.314664
C	-1.2409651271	 1.8550467689	 0.0166509915	 0.082974
C	-2.265789926	 2.4912666594	 0.0258698408	 0.078214
C	-3.5156028097	 3.24541766	 0.0370339992	-0.501742
C	-3.3290137618	 4.695179012	 0.0433617425	 0.307016
C	-3.1839378128	 5.8858923552	 0.0486184672	-0.415924
H	-4.1132294013	 2.9445547521	-0.8354027542	 0.185127
H	-4.1031378161	 2.9355968536	 0.9131747642	 0.185118
H	-3.0525841267	 6.9400885224	 0.0532773134	 0.215215
