17
gdb 80729	3.29797	1.09454	1.02311	1.5183	73.01	-0.2405	0.0452	0.2857	1209.6125	0.134306	-421.736932	-421.728521	-421.727577	-421.770241	32.09	
O	-0.1229952795	 1.2164341913	-0.5125082315	-0.430897
C	-0.4868643081	-0.1245432596	-0.3987520793	 0.126121
C	-0.3923712487	-0.849120742	 0.8930744669	 0.013301
O	-0.6737858082	 0.0795906389	 1.9545958092	-0.322946
C	-2.0686620165	 0.167580004	 1.5191985284	 0.12825
C	-2.6006226977	 1.6016353871	 1.4351815582	-0.385345
C	-4.017729484	 1.6130056107	 1.0968507222	 0.296297
C	-5.1854967881	 1.5817768621	 0.8144695394	-0.447969
C	-1.7654640902	-0.6299459089	 0.2569947625	-0.19145
H	 0.1516372208	 1.4927274404	 0.3722934024	 0.295908
H	-0.2107948377	-0.6990945986	-1.2790822243	 0.112979
H	 0.1945941051	-1.7270779858	 1.1380550793	 0.108329
H	-2.6833989675	-0.4121600942	 2.2172628233	 0.103353
H	-2.4412893213	 2.0863561511	 2.4073236677	 0.137346
H	-2.0298327179	 2.1597110856	 0.6876765204	 0.151458
H	-6.2174097572	 1.5749619853	 0.5643612279	 0.198054
H	-2.4411985633	-1.3225080076	-0.2257331328	 0.107212
