22
gdb 8711	2.41644	1.60188	1.25665	2.5405	73.95	-0.2605	0.0644	0.3249	1096.2561	0.197568	-387.334468	-387.323856	-387.322912	-387.369675	38.315	
C	 0.0014469229	 1.5528420042	 0.2029800876	-0.404976
C	-0.0318872654	 0.0361389701	-0.0143899747	-0.174227
C	 0.7000624722	-0.4989253899	-1.2724790039	 0.251501
C	 0.7162108953	-2.0380706667	-1.2186265953	-0.414018
C	-0.0096722484	-0.0405864127	-2.5574570405	-0.099288
O	-1.3406163429	-0.537495767	-2.5513472152	-0.424397
C	 2.1445964398	 0.0221232637	-1.3420014383	-0.102424
O	 2.8032321869	-0.2889429641	-0.1215764579	-0.425318
H	 1.0208284727	 1.9116722771	 0.3743455769	 0.118818
H	-0.4182245789	 2.1065430921	-0.6436807478	 0.108905
H	-0.5896057512	 1.8194154735	 1.0850794366	 0.10953
H	 0.409007228	-0.4504917053	 0.8608531549	 0.104826
H	-1.0718058178	-0.29926996	-0.0758068379	 0.10866
H	-0.2998588926	-2.4323916011	-1.1477023015	 0.1254
H	 1.1760684162	-2.4573072963	-2.1214837812	 0.094963
H	 1.2924481319	-2.3803616613	-0.3557917511	 0.124259
H	-0.0037566369	 1.0586702575	-2.6216906469	 0.082749
H	 0.5453490206	-0.4211993222	-3.4311030066	 0.078559
H	-1.7743050928	-0.2438051308	-3.3570445912	 0.287139
H	 2.6583154649	-0.4492063215	-2.1955681655	 0.080437
H	 2.1462063428	 1.1091108347	-1.5191289967	 0.08167
H	 3.7155413826	 0.0056194661	-0.1893886741	 0.287233
