17
gdb 43277	3.22314	1.68825	1.35271	3.3634	78.9	-0.2342	-0.0544	0.1797	957.6749	0.138011	-384.636502	-384.630016	-384.629072	-384.667171	26.993	
O	-0.1499745604	-0.0554796653	-0.3430729061	-0.321188
C	-0.0556598828	 1.1193727888	-0.0874850751	 0.311202
C	-1.2106712305	 2.0836606505	 0.1011449622	-0.165547
C	-0.8213259363	 3.2462508081	 0.6613884973	-0.233927
C	 0.6393940007	 3.1417587858	 0.9584137191	 0.31123
C	 2.0537669965	 3.7973959816	 0.8925010386	-0.30677
C	 2.2924085255	 2.2505954407	 1.1287572845	-0.086712
C	 1.1771182422	 2.3228360491	 2.1935485037	-0.243847
C	 1.178173756	 2.0228816786	 0.0516611596	-0.091536
H	-2.2277793826	 1.7906485253	-0.1312812193	 0.118632
H	-1.4802755404	 4.0588456969	 0.9490263073	 0.119783
H	 2.3624445915	 4.202032046	-0.0743897986	 0.103019
H	 2.3410676034	 4.4550275002	 1.7170711747	 0.099041
H	 3.2565392172	 1.7497093052	 1.210118285	 0.085069
H	 1.3919528484	 2.8967760807	 3.0980355689	 0.095343
H	 0.6447490764	 1.3956609939	 2.4191330159	 0.111325
H	 1.4447006953	 2.366230394	-0.9562271477	 0.094884
