18
gdb 99394	7.9803	0.51387	0.48715	2.1632	72.32	-0.257	-0.0215	0.2356	2141.7445	0.14386	-476.21972	-476.20887	-476.207926	-476.259025	35.189	
O	 0.0804570044	 1.3552933247	 0.0082738761	-0.393371
C	-0.0280353597	-0.0419783266	 0.0022202268	-0.166939
C	-1.4999270446	-0.4431061143	 0.0142709283	 0.368846
O	-2.3924357763	 0.3684173712	 0.0272463333	-0.278232
C	-1.7639239588	-1.9419922286	 0.0088365567	-0.325435
C	-3.2501954788	-2.2594174565	 0.0220144369	-0.072833
O	-3.3746835677	-3.6831443139	 0.0153125006	-0.188296
C	-4.6313956438	-4.1669592894	 0.0242028275	 0.127767
N	-4.8274993308	-5.4137696861	 0.019327702	-0.439198
H	 1.0147223833	 1.5826186827	 0.0004330041	 0.295385
H	 0.434445456	-0.504486827	-0.8876334131	 0.111098
H	 0.4512780212	-0.5134356641	 0.8783719141	 0.111107
H	-1.2917945993	-2.3944498416	-0.8723440962	 0.139814
H	-1.2742041487	-2.4039155627	 0.8753813503	 0.139795
H	-3.7246957417	-1.8351285314	 0.9143179779	 0.126184
H	-3.742473	-1.8251838578	-0.8557522963	 0.126194
H	-5.4036541503	-3.3849637442	 0.0351332574	 0.088625
H	-5.8268563144	-5.6068455243	 0.0271468934	 0.229489
