17
gdb 44877	2.96099	1.55172	1.38253	4.0314	72.27	-0.2367	-0.0099	0.2268	982.632	0.136857	-421.808334	-421.80132	-421.800376	-421.839689	28.182	
O	 0.0361164435	 0.0794644208	 0.0385726793	-0.330774
C	 0.0366630618	 1.2788217813	 0.0418554415	 0.445397
C	-1.172949111	 2.2445306557	 0.0848230285	-0.334449
C	-0.3926375802	 3.5751200765	 0.017964282	-0.141589
C	 0.6779598531	 3.2666616693	-1.0737279722	-0.244188
C	 1.222343608	 2.2422497359	-0.0115674745	-0.242672
C	 0.7442195734	 3.2963620753	 1.010085241	 0.526422
C	 1.5062323572	 4.1798210863	 1.8808118057	-0.304353
O	 0.6432517728	 3.1434125838	 2.4024721726	-0.292251
H	-1.8443144671	 2.0824042004	-0.7635185013	 0.125252
H	-1.7400111362	 2.113266659	 1.0106411113	 0.140904
H	-0.9588676326	 4.5048934681	 0.0287971102	 0.081476
H	 0.3249834055	 2.8576727885	-2.0229671623	 0.11389
H	 1.3732580051	 4.0902790729	-1.2427738691	 0.116241
H	 2.2222673448	 1.8169080841	-0.0315491571	 0.090983
H	 2.5710394883	 4.0125384071	 2.034217909	 0.125983
H	 1.1634096735	 5.1979218951	 2.0595674055	 0.123729
