20
gdb 126605	5.09962	0.78547	0.72749	4.3507	82.99	-0.2411	0.008	0.2491	1638.7972	0.170975	-399.346816	-399.337159	-399.336215	-399.383204	33.674	
C	-0.1611359094	 1.4975140829	 0.0390358216	-0.381741
C	-0.2116079567	-0.0168054022	-0.1756635337	-0.174533
C	 0.882605035	-0.4945218721	-1.1371135984	-0.145863
N	 0.872230258	-1.9346702878	-1.3376919576	 0.080291
C	 0.0840597852	-2.6869153042	-2.145087951	-0.193083
C	 0.4565116923	-3.9871260426	-1.8890328834	 0.303578
C	-0.0452367813	-5.2645919056	-2.478507936	-0.482514
N	 1.4415777273	-3.9584798976	-0.9443596943	-0.251912
N	 1.6881325863	-2.7225644232	-0.6126501024	-0.154255
H	 0.8009990898	 1.8069000784	 0.4612584035	 0.124844
H	-0.3006856213	 2.0402094927	-0.9025641412	 0.117812
H	-0.9460367291	 1.8210286959	 0.7281673201	 0.123979
H	-0.0875189558	-0.5421986961	 0.7774597662	 0.127115
H	-1.1916166449	-0.3091453873	-0.5712186563	 0.105546
H	 0.7789858643	-0.0104818118	-2.1141241199	 0.120125
H	 1.8723870817	-0.2502699305	-0.7435806672	 0.143085
H	-0.6416489029	-2.252763229	-2.8125872935	 0.135817
H	 0.7605788791	-5.8097231171	-2.9803702189	 0.141055
H	-0.4475816877	-5.9235920746	-1.7025318499	 0.140906
H	-0.83579157	-5.0760390482	-3.2093372678	 0.119748
