19
gdb 93641	2.226	1.51916	1.25728	1.4943	75.83	-0.2495	0.0308	0.2803	1095.9884	0.158179	-422.994667	-422.985454	-422.98451	-423.028613	34.722	
C	 0.7632251096	 1.3119872038	-0.2509076256	-0.419313
C	-0.0415879459	 0.0781366388	 0.1549729458	 0.086805
O	-0.1268346768	-0.902142903	-0.8759411144	-0.257438
C	 1.0554061783	-1.6897444278	-0.8477770799	-0.092803
C	 1.554405764	-1.7067829721	 0.6298540446	-0.248354
C	 2.9427536649	-1.2981384748	 0.7747027321	 0.315324
C	 4.0762049886	-0.917610826	 0.9171246261	-0.462682
C	 0.5647868413	-0.7078453382	 1.3434657653	 0.115794
O	 1.1170787761	 0.0673360969	 2.3729960528	-0.429778
H	 1.8049762938	 1.0658919271	-0.4805494207	 0.121723
H	 0.3169909253	 1.7723266634	-1.1363797194	 0.124047
H	 0.7606236315	 2.0415537014	 0.5636593483	 0.128386
H	-1.0720586851	 0.373963448	 0.3754846233	 0.086605
H	 0.7967761677	-2.6881656564	-1.2094958209	 0.114859
H	 1.8289279753	-1.273609454	-1.5059645771	 0.108029
H	 1.4370536155	-2.7036864785	 1.0635731619	 0.117592
H	 5.0882302968	-0.6137542384	 1.0270366039	 0.2064
H	-0.2329355937	-1.3001839771	 1.8006380913	 0.098377
H	 2.0296352727	 0.277689727	 2.1341543026	 0.286426
