19
gdb 87852	3.47601	1.3231	1.23578	2.4939	75.01	-0.2402	0.0765	0.3167	1075.8125	0.160206	-422.979279	-422.971722	-422.970778	-423.011099	30.606	
O	-0.078907495	 1.3671954087	-0.1126369475	-0.41826
C	-0.0213161688	-0.0262250831	-0.022548762	 0.020295
C	-0.4597870391	-0.7122110117	 1.2561979085	-0.408814
C	-1.3299886134	-0.7368613201	 0.0238673275	 0.401494
C	-2.6874385514	-0.0201343982	-0.1210263983	-0.306788
C	-3.3619825157	-1.1107119246	-0.9854100446	 0.07628
C	-3.0160043791	-2.4327615775	-0.2622396895	-0.231184
C	-1.6340407047	-1.9901930185	-0.7943214748	-0.013218
O	-2.3132154991	-1.4233339069	-1.9602388955	-0.296134
H	 0.6530776584	 1.7305842943	 0.3962928852	 0.288461
H	 0.7867824627	-0.4895089525	-0.5908820912	 0.084181
H	 0.0534852	-1.6198133047	 1.5611613633	 0.107305
H	-0.7737224832	-0.0704658833	 2.0737546567	 0.112644
H	-3.2006933391	 0.1519043312	 0.8294859081	 0.097059
H	-2.5977091985	 0.927584689	-0.6546103191	 0.129172
H	-4.3356976624	-0.9040967229	-1.4290456835	 0.079535
H	-3.1720968391	-2.512423175	 0.8168884485	 0.095522
H	-3.3996352018	-3.3032998828	-0.7948763591	 0.10849
H	-0.8217610905	-2.6780399717	-1.0322459625	 0.073959
