14
gdb 3204	3.51731	3.32655	2.06949	3.8424	56.94	-0.2452	-0.0115	0.2338	650.9124	0.113558	-324.558175	-324.551796	-324.550852	-324.588291	23.539	
C	-0.0574026357	 1.629820685	-0.0296810816	-0.412953
C	 0.0618288154	 0.1111288597	-0.0479982014	-0.122591
C	 0.7596283559	-0.6311172998	-1.1932035104	-0.038169
C	 2.2113693019	-0.4099795793	-1.1946281667	-0.244758
N	 1.6606837386	-1.4099983271	-0.2257420241	-0.173954
C	 1.0971160861	-0.6012289713	 0.8483905628	 0.386185
O	 1.3538524624	-0.6117949579	 2.0104638822	-0.294399
H	 0.8926928138	 2.116108829	-0.2683992738	 0.123792
H	-0.8041121299	 1.9728796107	-0.75242162	 0.125995
H	-0.3655325084	 1.9684791598	 0.9638573839	 0.142087
H	-0.9138008532	-0.3467545282	 0.1551252206	 0.11932
H	 0.2523711974	-1.1638973898	-1.9884252015	 0.11302
H	 2.8046297144	-0.8791612602	-1.9723922335	 0.141464
H	 2.6325795814	 0.5124273795	-0.8030159164	 0.134962
