20
gdb 122861	3.98296	0.66561	0.60142	2.4091	74.75	-0.2472	0.0646	0.3118	1889.4268	0.169009	-477.452335	-477.441411	-477.440467	-477.490625	36.39	
C	-0.3349129354	 1.3176111927	-0.5448331898	-0.227583
O	-0.1191325732	-0.0105324383	-0.1289249331	-0.2391
C	 0.6586665829	-0.7607245615	-1.0405068344	-0.058289
C	 0.7457970333	-2.1832353332	-0.5071672065	-0.170188
N	-0.5663568964	-2.7767262677	-0.3702386286	-0.362098
C	-0.9184811635	-3.9293227624	-0.9964957391	 0.525296
O	-0.1899527589	-4.6253723852	-1.670935871	-0.421585
O	-2.2270033143	-4.2043209954	-0.7507910703	-0.26658
C	-2.7025624376	-5.4094077439	-1.3513464208	-0.229917
H	 0.6121528373	 1.86897584	-0.651852989	 0.107728
H	-0.8684259581	 1.3619814045	-1.5070975025	 0.10832
H	-0.9428951787	 1.8061612977	 0.2203726246	 0.129393
H	 0.1918382128	-0.7562315109	-2.0391826044	 0.096183
H	 1.6695634644	-0.330962562	-1.1375006037	 0.090618
H	 1.3190738511	-2.813527413	-1.1900626551	 0.14598
H	 1.2622415141	-2.1678039048	 0.4614652731	 0.113859
H	-1.2783988686	-2.2517104211	 0.1101669555	 0.258923
H	-2.6113063092	-5.3675139106	-2.4400750618	 0.135576
H	-2.1430260963	-6.2754619195	-0.9878575831	 0.136879
H	-3.7514274156	-5.4889703151	-1.0628393597	 0.126586
