16
gdb 49681	2.39063	1.59568	1.524	2.2025	69.99	-0.2484	-0.0564	0.192	963.2757	0.124117	-437.886522	-437.878759	-437.877814	-437.919561	28.631	
O	-0.5236477629	 0.4602374053	 0.2771911752	-0.270602
C	 0.0492576054	 1.3150106203	-0.3552741953	 0.150204
C	 1.3393261058	 1.9820840629	-0.0104455018	-0.089643
C	 1.54737746	 2.802922317	 1.2477792328	-0.173996
N	 2.3029068116	 1.5793562756	 1.0164693838	-0.117859
C	 1.8519084711	 0.558863849	 2.015805716	-0.164775
C	 0.7020257805	 1.1500347492	 2.8500631236	-0.340081
C	 0.5928671055	 2.6099830543	 2.4039841404	 0.415947
O	-0.0631306121	 3.4805737656	 2.9122079193	-0.307815
H	-0.3601729803	 1.6732210799	-1.3255712719	 0.094813
H	 1.8217115343	 2.3962170471	-0.8950098091	 0.118528
H	 2.0400895005	 3.7659649923	 1.153689798	 0.125307
H	 1.5736692346	-0.3601702532	 1.5011368168	 0.138297
H	 2.7282716356	 0.3530524485	 2.6356346686	 0.121688
H	-0.2534525232	 0.6545170911	 2.6672646841	 0.165623
H	 0.8968880937	 1.1248180052	 3.9256497495	 0.134364
