18
gdb 62265	6.02148	0.54826	0.52633	1.9757	73.27	-0.2638	-0.0471	0.2167	2008.1606	0.144722	-476.221412	-476.211248	-476.210304	-476.259072	34.279	
O	-0.0379391208	 1.4451877767	-0.1275094177	-0.43486
C	 0.0161965549	 0.047761903	-0.0280451952	 0.042033
C	 0.5853804301	-0.5839531525	-1.3089431897	-0.217296
C	-0.2510272192	-0.2047203128	-2.5240548778	-0.078599
O	 0.3065440865	-0.8497513409	-3.6665120106	-0.182662
C	 0.1878721545	-0.221396872	-4.8521389918	 0.124838
N	 0.5500023883	-0.8009580983	-5.9126531042	-0.438332
C	 0.8412797419	-0.3628871373	 1.1753641639	 0.137649
O	 1.3461674771	 0.4562659686	 1.9036907113	-0.256066
H	 0.4663669457	 1.7815510793	 0.6308150917	 0.297511
H	-0.9984774606	-0.3630741032	 0.1380182032	 0.097312
H	 1.6149164129	-0.2416244241	-1.4595582755	 0.125112
H	 0.6063251259	-1.6754304179	-1.2100489315	 0.117932
H	-1.2909179566	-0.5352107974	-2.3932912802	 0.110997
H	-0.2523045405	 0.8835414469	-2.6515955611	 0.132422
H	-0.2247581801	 0.7940910148	-4.7687878809	 0.087184
H	 0.4174169083	-0.1805096356	-6.7085008304	 0.229731
H	 0.9557991015	-1.4520114673	 1.3484262266	 0.105093
