16
gdb 51754	2.79487	1.01435	0.80492	2.9665	69.63	-0.2678	-0.0428	0.225	1358.3062	0.122749	-437.875428	-437.866494	-437.86555	-437.910943	30.335	
O	-0.2008832596	-0.0141733869	-0.2280992885	-0.227101
C	-0.0237600765	 1.1653608497	-0.0752028296	 0.158416
C	 1.32946038	 1.8464052993	-0.1218530455	-0.312957
C	 1.3841636847	 2.8966554399	-1.2301821713	-0.063519
C	 0.5575344047	 4.1975184422	-1.0938452431	-0.088553
O	 1.7255137328	 5.0138951044	-1.3464546028	-0.265245
C	 2.5997447499	 3.8746548602	-1.2988419779	-0.032242
C	 3.47981185	 3.8914148225	-0.1238297272	 0.291755
N	 4.1649613185	 3.8883440311	 0.8069236723	-0.320766
H	-0.882112585	 1.8520128695	 0.1130218817	 0.080321
H	 1.504726463	 2.3287408631	 0.8493423881	 0.143453
H	 2.0970853086	 1.0811333727	-0.2669409894	 0.138854
H	 1.2374592047	 2.4236999316	-2.2037587323	 0.116982
H	-0.2246423903	 4.3684860283	-1.8390575999	 0.126258
H	 0.1515015313	 4.3795843186	-0.0907207853	 0.118647
H	 3.2182592232	 3.7960215938	-2.1996283794	 0.135696
