20
gdb 85058	2.25117	1.57989	1.15983	3.6797	75.93	-0.2533	0.0295	0.2828	1133.8729	0.170674	-440.310505	-440.301093	-440.300149	-440.344586	35.164	
C	 0.8338266085	 1.3646179322	-0.2005809344	-0.384934
C	 0.0382291382	 0.0896724215	 0.0468165214	 0.062983
O	 0.1848852595	-0.8194444982	-1.0622026492	-0.245533
C	 0.9802290589	-1.8850498845	-0.7433544473	 0.40594
N	 1.3076134717	-2.7953587653	-1.5545309373	-0.544009
C	 1.4128725899	-1.8145340378	 0.7076175642	-0.110839
C	 2.9156969278	-1.5217671477	 0.8417014964	-0.392869
C	 0.4745628226	-0.7383255082	 1.2906402781	 0.077391
O	 1.1187720195	 0.0093487992	 2.3024654205	-0.418515
H	 1.9060746379	 1.1659731182	-0.263209015	 0.135753
H	 0.5086467993	 1.8236197685	-1.1380682627	 0.126813
H	 0.6721469839	 2.0800874527	 0.610231187	 0.113583
H	-1.0290098703	 0.3340007999	 0.0963927709	 0.084019
H	 0.912097535	-2.6116575564	-2.4784614518	 0.21835
H	 1.2168063573	-2.7840238573	 1.1718760505	 0.107938
H	 3.2012643825	-0.5910411083	 0.344844077	 0.123131
H	 3.1932792188	-1.4400439953	 1.8943343168	 0.130461
H	 3.4771261994	-2.3372355838	 0.3801058419	 0.137955
H	-0.4166638206	-1.2357973825	 1.6974034873	 0.082377
H	 0.4538225603	 0.512792123	 2.7814854556	 0.290005
