19
gdb 12026	3.9671	1.32474	1.2559	0.5363	73.35	-0.2311	0.0813	0.3123	1063.388	0.163736	-365.012404	-365.003867	-365.002922	-365.045191	32.377	
C	-0.0669038517	 1.5624433772	-0.0127194127	-0.448174
C	-0.007406234	 0.0541727082	 0.0157095585	 0.375591
O	-1.1708190589	-0.5899351584	-0.4447023349	-0.466967
C	 1.30542629	-0.6664381783	-0.2138268609	-0.373203
C	 0.6477516155	-0.6761327663	 1.1519529114	 0.020485
N	 1.2714034541	 0.0781107389	 2.2017265848	-0.067261
C	 0.6466058718	 0.0001081945	 3.5197106096	-0.223074
C	 1.936590827	-0.6929650405	 3.2484503606	-0.219995
H	 0.8058684289	 1.9929231721	 0.4816696171	 0.136887
H	-0.1009425329	 1.9313814893	-1.0453862488	 0.101211
H	-0.9671163637	 1.9137465287	 0.5019718573	 0.120852
H	-1.2377771424	-0.4282082982	-1.392556329	 0.278596
H	 1.2814682077	-1.5865010171	-0.7869086864	 0.109169
H	 2.2032360259	-0.0674388961	-0.3208059319	 0.115664
H	 0.1521800091	-1.6077644552	 1.4375399292	 0.080758
H	 0.6252538066	 0.9255234745	 4.0881075293	 0.116176
H	-0.2414556779	-0.6204687957	 3.6244645831	 0.115775
H	 1.9133564079	-1.7785404491	 3.1721056857	 0.112064
H	 2.872779087	-0.2817567485	 3.615276678	 0.115446
