17
gdb 65541	2.88595	1.56594	1.33036	1.6956	71.75	-0.2624	0.0261	0.2884	990.4071	0.137832	-417.988223	-417.980624	-417.979679	-418.020024	29.939	
N	-0.062060117	 1.4518320806	 0.0273157518	-0.542947
C	-0.024747848	-0.006857957	 0.0074226158	 0.159729
C	 0.443308919	-0.5974088183	 1.386222804	-0.266162
C	-0.8610935302	-1.3423016605	 1.7395154563	 0.081597
C	-1.2359298466	-2.0861401824	 0.437531464	-0.247922
C	-1.4720083359	-0.613677089	 0.0438719087	 0.05905
O	-1.8729840979	-0.3415755162	 1.4066973336	-0.282839
C	 0.7517155029	-0.5305658703	-1.130464114	 0.226639
N	 1.3532512089	-0.8983012795	-2.0482384656	-0.352576
H	 0.8750882484	 1.820658092	 0.1632121311	 0.241381
H	-0.3832741604	 1.807351523	-0.8694878179	 0.239379
H	 1.3157627536	-1.2487015613	 1.3074372687	 0.123021
H	 0.6454245338	 0.2129774373	 2.0884641709	 0.128881
H	-0.9635674222	-1.7717473244	 2.73511003	 0.091459
H	-0.4817368616	-2.6747890668	-0.0889493872	 0.122683
H	-2.1769802694	-2.626763699	 0.5337341526	 0.123345
H	-2.1728128174	-0.2781911283	-0.7201296328	 0.095281
