15
gdb 34474	1.88757	1.77214	0.92462	1.23	88.24	-0.2262	-0.0533	0.1729	1197.0133	0.110429	-383.432506	-383.423772	-383.422828	-383.46663	31.54	
C	 0.1643813146	-1.1969323759	-0.0341318193	-0.361129
C	 0.0423630419	 0.0016767483	 0.0005719109	 0.128804
C	-0.0341041249	 1.406218925	 0.0414737501	 0.090903
C	-1.1349604839	 2.1874084216	 0.0611616067	 0.090901
C	-0.7089204731	 3.6384985699	 0.1048684032	-0.160636
O	 0.7105811782	 3.6204555675	 0.1084711581	-0.264399
C	 1.1958085948	 2.2868652099	 0.0708106861	-0.160634
C	-2.4866501552	 1.796308657	 0.0457970849	 0.128821
C	-3.6588637107	 1.5160561306	 0.034228075	-0.361137
H	 0.2522898052	-2.2547688843	-0.0648041636	 0.194128
H	-1.0821613483	 4.1962867145	-0.7671202764	 0.120062
H	-1.0873146579	 4.1444009923	 1.0058011824	 0.120063
H	 1.8194916798	 2.0816755654	 0.9538254768	 0.120064
H	 1.8245974966	 2.1335953527	-0.8190957379	 0.120062
H	-4.6868911871	 1.2500966355	 0.023612683	 0.194127
