21
gdb 112767	2.38457	1.19901	0.9128	1.5336	84.44	-0.2522	0.0397	0.2919	1356.1513	0.180766	-387.05225	-387.042424	-387.041479	-387.086894	37.098	
C	 0.1387906496	 1.6161904505	 0.0399532316	-0.381673
C	-0.0624692268	 0.0986563225	-0.0268171032	-0.19974
C	 0.6455460327	-0.5349498007	-1.2157666492	 0.042098
C	 2.198422499	-0.5505894332	-1.2670453289	-0.276864
C	 2.1254147868	-1.9455006104	-1.9381345887	 0.161035
O	 3.0746380112	-2.9245453825	-1.6503279598	-0.42976
C	 0.6553646539	-2.1004344166	-1.3813718302	-0.273966
C	 0.6384731626	-2.8508570422	-0.1415035033	 0.323611
C	 0.7040365834	-3.4903947037	 0.8774548832	-0.46898
H	 1.1998524128	 1.8724346058	 0.130306941	 0.120033
H	-0.2448045632	 2.1093994685	-0.86036107	 0.112896
H	-0.3812779722	 2.045841171	 0.9015335072	 0.113607
H	 0.2993178455	-0.3662987736	 0.8975549056	 0.105912
H	-1.1351744809	-0.1286264739	-0.0828042123	 0.096442
H	 0.2519200845	-0.109664988	-2.1462814958	 0.07668
H	 2.7143139089	 0.2479250861	-1.8041938616	 0.100766
H	 2.6218274961	-0.6344107862	-0.2600070827	 0.102621
H	 2.0911245049	-1.8548102154	-3.0275263099	 0.094157
H	 2.9441221264	-3.1939729846	-0.7314654419	 0.281679
H	-0.0784877222	-2.5129934795	-2.0796762681	 0.098571
H	 0.7145084569	-4.0536121738	 1.7779481269	 0.200875
