17
gdb 23315	3.53503	1.25134	1.05206	2.2245	80.23	-0.219	-0.0323	0.1867	1140.7289	0.137943	-417.956631	-417.949097	-417.948152	-417.98859	29.833	
O	-0.0614114224	 1.4076495076	-0.2987594359	-0.395165
N	 0.0756624838	 0.0184354651	-0.1653972472	-0.210431
C	-1.0388943785	-0.5581516968	 0.109229251	 0.353774
C	-0.9903817887	-2.0689389017	 0.2234333636	-0.296094
C	-1.9999598036	-2.6189341812	 1.208746463	-0.035901
N	-2.1083109259	-1.9418219139	 2.5018662648	-0.322405
C	-3.2182141742	-1.8122977773	 1.5089108402	-0.093277
C	-3.3602044044	-0.4884211817	 0.8627316923	-0.035775
C	-2.3321367776	 0.1073790607	 0.241979052	-0.139944
H	 0.8371177507	 1.6764469882	-0.5151346995	 0.306263
H	-1.2171733785	-2.5005178562	-0.7616246784	 0.117717
H	 0.0256635316	-2.3797089512	 0.4812617926	 0.127792
H	-2.1147608632	-3.7009120583	 1.1882851045	 0.087101
H	-2.3777411282	-2.6095757307	 3.2209756419	 0.232462
H	-4.1391842557	-2.342815701	 1.7323542325	 0.086563
H	-4.3234714966	 0.0088096893	 0.9306634693	 0.099462
H	-2.4238950586	 1.103750349	-0.1714933668	 0.117859
