19
gdb 109009	3.62471	1.23981	1.19623	1.8484	79.3	-0.212	-0.0117	0.2004	1138.5618	0.160123	-385.866908	-385.8592	-385.858256	-385.899252	30.654	
C	 0.1673703891	 1.5147562699	-0.1758603849	-0.372256
C	-0.0905361675	 0.0258108002	 0.1180869744	-0.308774
C	 0.60843543	-0.4701731067	 1.3397133962	 0.385542
C	 0.1425587195	-0.9714327006	 2.4817330609	-0.230742
C	 1.3966613957	-1.3843378777	 3.2899596344	-0.035397
O	 2.3064794246	-0.3454330903	 2.8908203947	-0.230703
C	 2.1580033894	-0.5877715769	 1.4849790029	-0.100379
C	 2.5087274321	-2.0970678315	 1.4251600903	-0.081859
C	 2.0338612193	-2.5975165817	 2.5609877397	-0.072662
H	 1.2336103123	 1.7172669875	-0.3180129788	 0.12001
H	-0.3556622901	 1.8261954242	-1.085157334	 0.113425
H	-0.1814698255	 2.1393419234	 0.6517432704	 0.126834
H	-1.1678952491	-0.1462424776	 0.2205996822	 0.106198
H	 0.2357495017	-0.5681656109	-0.7488896204	 0.103882
H	-0.8809998354	-1.1450921838	 2.7828660521	 0.10307
H	 1.3040233214	-1.4403285534	 4.3733770538	 0.079196
H	 2.7708103178	 0.092117388	 0.894689397	 0.077971
H	 2.9842636197	-2.5968352852	 0.5937660407	 0.10813
H	 2.011874795	-3.6193206368	 2.9112321985	 0.108515
