14
gdb 30090	2.54671	1.84241	1.07632	6.2412	67.53	-0.2322	-0.0558	0.1765	1035.782	0.101002	-473.882315	-473.874398	-473.873454	-473.915427	28.351	
C	 0.0048687149	 1.4681083558	-0.0023374213	-0.362428
N	-0.0276640884	 0.007810965	-0.0126526118	-0.13136
C	-0.1241125973	-0.6683434059	-1.2262855175	-0.066485
C	-0.155968929	-1.9983015344	-1.2797772829	-0.009828
O	-0.0966085719	-2.7783552309	-0.1581533623	-0.208506
C	-0.0004912823	-2.2112285698	 1.0874376191	 0.347927
O	 0.0506688009	-2.9079409119	 2.0531121568	-0.280956
C	 0.0389527872	-0.6753738139	 1.1838438675	 0.284936
O	 0.1247900878	-0.1402299254	 2.2657204298	-0.341296
H	 0.871535253	 1.8328233155	-0.5623325893	 0.14411
H	-0.9080304575	 1.8712065765	-0.4514861089	 0.143986
H	 0.0766492847	 1.7892954536	 1.0350021606	 0.185197
H	-0.1715016954	-0.0608759318	-2.118420594	 0.142133
H	-0.2296502668	-2.5763039225	-2.1878978958	 0.152569
