14
gdb 130640	3.15388	1.79346	1.15962	6.0592	68.73	-0.2708	-0.0591	0.2116	970.8076	0.103761	-432.899567	-432.89295	-432.892006	-432.931143	24.681	
O	 0.0459971722	-0.0327405355	 0.0022211754	-0.293165
C	-0.0170598219	 1.1587506688	 0.0093995089	 0.429804
C	-1.2524967541	 2.0684303448	 0.0320163045	-0.341008
C	-0.742709393	 3.5381405522	 0.0321655983	-0.367216
C	 0.7474485086	 3.3769775901	 0.0090487641	 0.357628
C	 1.9525308008	 4.01983134	-0.0057715689	-0.211635
N	 2.9468949331	 3.065394539	-0.0251852876	-0.16448
N	 2.4315630781	 1.8758396338	-0.0239846417	-0.135637
N	 1.0855169048	 2.056599154	-0.0026464079	-0.023642
H	-1.8707698164	 1.8325397112	-0.8378605181	 0.159806
H	-1.8453814043	 1.8234626319	 0.9169175985	 0.159771
H	-1.1013680127	 4.0946809736	-0.8382407927	 0.146698
H	-1.0750793943	 4.0853506756	 0.9187784098	 0.1467
H	 2.1888162391	 5.0707896306	-0.0040157327	 0.136375
