13
gdb 24752	3.58132	1.23145	0.91636	6.6911	73.42	-0.2495	-0.0762	0.1733	1158.7854	0.091089	-415.671437	-415.663977	-415.663033	-415.703954	27.06	
O	 0.0501003644	-0.0631408947	 0.0028783732	-0.310001
C	-0.0574959146	 1.1452966819	 0.0066321824	 0.221396
C	 1.1667601106	 1.9895003923	 0.0003527371	 0.220332
N	 2.1178405671	 2.6472597505	-0.004529291	-0.337731
C	-1.3033253198	 1.8855306768	 0.0170534593	 0.18472
C	-1.4434378343	 3.2684071512	 0.0215736815	-0.152607
N	-2.7699225268	 3.5413196515	 0.0311478217	-0.247639
C	-3.501182959	 2.3667635493	 0.0332154446	-0.052293
C	-2.6201171288	 1.3230528814	 0.0247842708	-0.248513
H	-0.6975959392	 4.0469666808	 0.0184645761	 0.167445
H	-3.1653104231	 4.4665973056	 0.0360611491	 0.278363
H	-4.57868192	 2.3895742339	 0.0405537977	 0.141928
H	-2.8532178364	 0.2710191094	 0.0238275375	 0.1346
