21
gdb 102316	2.57535	0.99124	0.77543	3.306	80.8	-0.2203	0.019	0.2392	1539.2426	0.179815	-420.387536	-420.37645	-420.375505	-420.425167	38.018	
C	-1.665803557	 0.4559472545	 0.2070225472	-0.248511
O	-0.8640969689	-0.7064466377	 0.0851541607	-0.232229
C	 0.4882411194	-0.4528018573	-0.2073950918	 0.008308
C	 1.2501156774	-1.7871268019	-0.0742475344	-0.193952
N	 2.6825424087	-1.6102798358	-0.2641215892	-0.056486
C	 3.4860897555	-2.1108143096	 0.8399505495	-0.319308
C	 3.1659843854	-2.0824366372	-1.5548095734	-0.333389
C	 0.6427672517	 0.1346716226	-1.5590331689	 0.286145
N	 0.7234898234	 0.593059895	-2.6171303123	-0.342393
H	-1.2883769201	 1.1200351138	 0.9986022251	 0.112644
H	-1.7109290674	 1.0181356108	-0.7350261078	 0.13624
H	-2.6695226109	 0.1182255021	 0.471443864	 0.137996
H	 0.9230818793	 0.2639426151	 0.5071231825	 0.113497
H	 1.0321976838	-2.1552685465	 0.9327589673	 0.115682
H	 0.816776464	-2.5113393694	-0.7773358754	 0.117153
H	 3.4501017086	-3.2112944578	 0.9483505501	 0.096439
H	 4.5318702344	-1.8251423056	 0.6887237141	 0.12322
H	 3.1516772244	-1.6657490177	 1.7819845212	 0.117757
H	 2.5888212074	-1.6277233197	-2.3628297666	 0.146782
H	 4.2113484571	-1.7853979477	-1.6837982225	 0.121266
H	 3.1084102639	-3.1822464802	-1.6606534094	 0.093139
