18
gdb 71650	3.13616	1.89654	1.64963	1.5597	73.26	-0.224	0.0701	0.2941	872.6963	0.149772	-401.890339	-401.883774	-401.88283	-401.920734	28.078	
O	-0.0263585452	 1.4129356005	 0.0681473165	-0.494097
C	 0.0334955279	 0.0140130501	-0.0001601863	 0.394412
C	 0.3553468257	-0.6718700701	-1.3615215848	-0.301692
C	-0.7465586468	-1.6834759696	-1.0151061121	 0.032918
C	-1.3703300038	-0.7229809778	 0.0187475503	-0.103711
C	-1.2907316032	-1.8705420177	 1.0379139675	-0.0508
C	 0.1576526496	-2.0091364637	 1.2622372183	-0.024132
C	 0.8601917674	-0.6775530082	 1.0952567885	-0.303284
N	-0.4512634042	-2.7010540868	 0.0827815162	-0.179836
H	 0.8685099903	 1.7600113812	-0.0184484784	 0.276667
H	 0.0313058776	-0.0466362401	-2.1996875303	 0.105965
H	 1.3763105617	-1.0273893444	-1.531376942	 0.09373
H	-1.3144772829	-2.1698611307	-1.8079030068	 0.081359
H	-2.260575979	-0.1227590962	-0.147988939	 0.079162
H	-2.0863445006	-2.2998868236	 1.636080615	 0.093036
H	 0.5334926474	-2.7231271589	 1.9880504639	 0.096408
H	 1.9159739559	-0.76939004	 0.8163161236	 0.09704
H	 0.7982340721	-0.1152068539	 2.03509696	 0.106855
