15
gdb 130742	3.33344	1.37952	1.05838	2.8128	67.52	-0.2346	-0.0065	0.228	1095.9421	0.113736	-453.962881	-453.955481	-453.954537	-453.995708	27.273	
O	-0.0021951759	 0.0191536596	-0.4844189892	-0.400193
C	 0.0166800146	 1.1856218454	-0.2104850293	 0.494601
O	-1.1134015307	 2.0157705694	-0.1432230467	-0.202402
C	-0.6496541944	 3.2390533228	 0.1937139445	 0.100502
N	 0.621855461	 3.3114928838	 0.352575423	-0.234452
N	 1.0509334441	 2.0259327626	 0.1008935576	-0.105943
C	 2.4318859765	 1.6459253443	 0.1661451226	 0.066117
C	 3.5017433172	 2.6031224591	-0.2741834295	-0.281266
C	 3.3384696508	 2.2623493915	 1.1921356002	-0.281301
H	-1.3553553978	 4.0461712666	 0.3029575097	 0.173371
H	 2.524494385	 0.5930400389	-0.068403277	 0.140595
H	 4.3477522074	 2.20096968	-0.8196339682	 0.125659
H	 3.1781214466	 3.5888261368	-0.5870982598	 0.139508
H	 2.9088120285	 3.0276724944	 1.8277087361	 0.139545
H	 4.0704390172	 1.6225746147	 1.6715874662	 0.125661
