16
gdb 11247	5.7122	1.30523	1.13904	3.6389	69.12	-0.2444	-0.0226	0.2218	1036.6768	0.131605	-379.964518	-379.956862	-379.955917	-379.997335	27.168	
C	-0.0733792799	 1.5473945349	 0.0309132142	-0.387161
C	 0.0491090964	 0.0251569881	-0.0008881832	 0.047596
C	 0.8451048882	-0.5143089911	-1.2349913851	-0.220363
N	 1.9046934314	-1.2963213228	-0.5856128538	-0.077947
C	 2.9001066682	-2.0099220263	-1.2030986414	 0.150388
O	 3.7613337983	-2.6309132516	-0.6226286153	-0.311866
C	 1.7484343942	-1.1662205282	 0.7979956699	 0.082887
N	 0.7648191097	-0.4675929184	 1.1952226055	-0.261221
H	 0.9170904157	 2.0142169829	 0.022564102	 0.12329
H	-0.6344830699	 1.9111219541	-0.8361590616	 0.115619
H	-0.5909790001	 1.8652963397	 0.9392249059	 0.136999
H	-0.9575731819	-0.4085872707	 0.0168061548	 0.098662
H	 0.2365690138	-1.144273069	-1.8894155248	 0.127912
H	 1.2715025314	 0.2980699342	-1.8333136483	 0.123773
H	 2.8249211116	-1.9553913637	-2.3059078539	 0.084816
H	 2.4661671429	-1.6645509221	 1.4376136951	 0.166614
