15
gdb 96803	2.43086	1.53208	0.94526	4.9736	76.15	-0.2396	-0.0578	0.1817	1176.6446	0.11229	-454.014711	-454.005832	-454.004888	-454.049449	31.112	
C	 0.014987587	 1.3568110856	 0.0634331384	-0.342632
N	-0.0406377551	-0.0950143963	 0.090284491	-0.339039
C	-1.151832338	-0.6847793291	 0.0073164553	 0.426599
O	-2.3889982339	-0.1294262214	-0.1114233892	-0.25378
C	-3.3477031417	-1.192754223	-0.1706747306	 0.431303
O	-4.5088996637	-0.9362258985	-0.2762606959	-0.330167
C	-2.6205334699	-2.4459975959	-0.0806220441	-0.417136
C	-1.2974322896	-2.1634866462	 0.0270677889	 0.333202
N	-0.1922140428	-2.9138255092	 0.1383553916	-0.598899
H	 0.6515196402	 1.669825352	-0.7715246667	 0.135955
H	-0.9638844772	 1.8370979406	-0.0313937003	 0.142957
H	 0.5005301765	 1.70802265	 0.9806045547	 0.135944
H	-3.1156628592	-3.403457961	-0.1022969032	 0.122517
H	-0.2207225722	-3.9166252142	 0.1593404589	 0.272842
H	 0.6906492596	-2.4324186533	 0.2049506713	 0.280335
