15
gdb 37307	2.96897	2.36899	1.96225	3.1408	65.77	-0.2445	-0.0056	0.2389	753.7154	0.115653	-416.748196	-416.742622	-416.741678	-416.777846	23.648	
O	 0.0177309046	 1.4696656298	-0.1394715802	-0.220558
C	 1.2663061802	 0.8085763152	 0.0053523237	 0.039909
C	 0.0083936236	 0.0414297869	-0.0263838947	 0.030476
C	-0.0550842189	-0.7145640318	-1.392622856	-0.085016
N	-0.8198905447	 0.1608265312	-2.3079279121	-0.181223
C	 0.0485372619	 0.9596218829	-2.7810950679	 0.057416
N	 1.4425760898	 0.6274524226	-2.6373306696	-0.150187
C	 2.0427027543	 0.4954448661	-1.2611834745	-0.064958
C	 1.3978407186	-0.662008296	-1.9294276422	-0.065186
H	 1.8290826206	 1.0472459792	 0.9052749224	 0.104842
H	-0.5051720385	-0.3478362294	 0.8478606039	 0.110707
H	-0.4955887743	-1.7062609059	-1.2971512846	 0.08349
H	-0.1959000937	 1.8282649164	-3.3830022065	 0.130164
H	 3.1162228095	 0.6519774418	-1.2507863272	 0.107201
H	 1.913654147	-1.511157919	-2.3671662443	 0.102922
