22
gdb 6701	5.76135	0.71392	0.66254	0.8291	85.01	-0.2576	0.0585	0.3161	1731.9186	0.197546	-313.051443	-313.041133	-313.040189	-313.087072	37.213	
C	-0.0508118959	 1.566364064	-0.1477161629	-0.381522
C	 0.0276987931	 0.0365029194	-0.0447695094	 0.035866
C	 0.7435536607	-0.5485910603	-1.2700493696	-0.388072
C	 0.7116834477	-0.4340945389	 1.2522899207	-0.163534
C	-0.0303707062	-0.0726132538	 2.543146485	-0.184552
C	 0.6587798631	-0.6556867461	 3.794320899	-0.355078
C	-0.0305068718	-0.3230648075	 5.0352628559	 0.292732
C	-0.6186383471	-0.0349595912	 6.0433974144	-0.438339
H	 0.9523228735	 2.0100295259	-0.1298173921	 0.110115
H	-0.5286885773	 1.8690489413	-1.0852930182	 0.110436
H	-0.6257729765	 2.0079700498	 0.6712959938	 0.115745
H	-1.0002781007	-0.3549647458	-0.037779133	 0.071522
H	 1.7806044811	-0.195509602	-1.323161625	 0.111052
H	 0.7670553792	-1.6429491022	-1.2358672443	 0.108694
H	 0.2458984404	-0.251986021	-2.1992415523	 0.109195
H	 0.8296436821	-1.5256912022	 1.208377871	 0.088865
H	 1.7310016135	-0.0218718158	 1.2884238576	 0.089965
H	-0.1003647921	 1.0136818786	 2.6594399546	 0.112537
H	-1.0603481951	-0.4469071009	 2.4996628445	 0.107036
H	 0.7287455046	-1.7473275259	 3.6972890354	 0.127661
H	 1.6935845938	-0.2912079432	 3.8432157445	 0.128073
H	-1.12953285	 0.213219338	 6.9401606903	 0.191603
