18
gdb 50509	3.44643	0.96392	0.90163	2.7765	74.14	-0.2482	-0.0358	0.2124	1318.7794	0.147819	-439.128054	-439.119192	-439.118248	-439.163271	30.876	
O	-0.8069984393	 0.8932056879	-0.2455712759	-0.247261
C	-0.1131465458	 1.8432906061	 0.0081446119	 0.164055
C	 1.4018726219	 1.8255471256	-0.0270634335	-0.095911
C	 1.9449626761	 2.6506397833	-1.2270201417	-0.257674
C	 2.0042072219	 4.102771898	-0.719253533	-0.156528
N	 2.040325466	 3.9633349083	 0.7388652276	-0.036671
C	 1.9985457587	 2.5740807974	 1.181557703	-0.204309
C	 2.0324789571	 5.0460634505	 1.5566500205	 0.136929
O	 2.0443003297	 6.196310702	 1.1684967172	-0.334435
H	-0.5633269645	 2.8248557368	 0.2862239125	 0.086753
H	 1.7186804866	 0.7819404182	-0.0738314175	 0.104905
H	 2.947497899	 2.2892020845	-1.4731936534	 0.124677
H	 1.3308537823	 2.5455113213	-2.1242159266	 0.129415
H	 2.8851897789	 4.6397178526	-1.0832670549	 0.132046
H	 1.1279686722	 4.6918131245	-1.0109514112	 0.131891
H	 1.3965767182	 2.4731311304	 2.0910672424	 0.128305
H	 3.0013557244	 2.1826526565	 1.401146173	 0.121066
H	 2.0098111964	 4.7650704361	 2.6287778695	 0.072749
