16
gdb 27792	2.04287	1.80753	0.96506	6.4926	76.88	-0.2216	-0.0247	0.197	1169.9256	0.126043	-434.161377	-434.153066	-434.152121	-434.194164	31.388	
C	 0.0165279743	 1.5256798977	-0.014554205	-0.494727
C	-0.0620177468	 0.0286998217	 0.0140325878	 0.416072
C	-1.219999404	-0.6826925884	-0.0464396995	-0.302709
C	-1.1093647721	-2.1134123082	-0.0058543457	 0.415463
N	-2.2496795328	-2.8600471825	-0.0256599123	-0.552553
N	 0.0284475543	-2.7684694423	 0.0797016562	-0.412284
C	 1.2092364126	-2.0780505776	 0.1487256053	 0.422162
O	 2.3156143188	-2.5697110099	 0.2336903397	-0.400629
N	 1.1051758219	-0.6561215529	 0.1090686553	-0.405534
H	 0.6161081609	 1.8667607449	-0.8659162174	 0.148715
H	-0.9786305398	 1.965435181	-0.0941404858	 0.143793
H	 0.4924086733	 1.9064419087	 0.8960114354	 0.149652
H	-2.1785544112	-0.1862555844	-0.1119934296	 0.091041
H	-3.1116164058	-2.4520099168	-0.3429286416	 0.257952
H	-2.1276058559	-3.8520928581	-0.1534290012	 0.266963
H	 1.9898897023	-0.1718376427	 0.1554571583	 0.256623
