18
gdb 50915	2.24742	1.06296	0.76791	3.7477	77.22	-0.2617	-0.0367	0.2249	1456.8437	0.145911	-401.956464	-401.946984	-401.94604	-401.992197	33.147	
O	-0.0234428942	-0.0918180332	-0.2508949756	-0.233529
C	 0.0098034952	 1.1040132273	-0.1188262339	 0.144919
C	 1.2836539508	 1.9244848938	-0.1831838981	-0.284527
C	 1.2240983511	 3.0761401678	-1.2206930905	-0.187555
C	 0.1474235768	 4.0224684948	-0.8944221105	 0.284261
N	-0.6912316982	 4.7691643987	-0.6204069411	-0.32358
C	 2.5578984277	 3.8049012045	-1.3250398381	 0.034441
C	 3.6388239424	 3.251214769	-2.2175411075	-0.280369
C	 2.9303973389	 4.5299154827	-2.5900803407	-0.271098
H	-0.917019577	 1.6906361094	 0.0649809265	 0.106034
H	 1.4617643128	 2.3570782179	 0.8103603517	 0.137594
H	 2.1161864975	 1.2607580328	-0.4267678262	 0.136196
H	 0.9891484701	 2.6459352521	-2.2032498991	 0.132897
H	 2.8777014045	 4.258663943	-0.3914585078	 0.104874
H	 4.6643043017	 3.3058813513	-1.8709306814	 0.125463
H	 3.4144954237	 2.361423888	-2.7973781951	 0.121624
H	 2.2303029397	 4.4982246993	-3.4182796207	 0.124755
H	 3.4666347065	 5.4672531905	-2.4998964619	 0.127602
