19
gdb 37678	2.96139	2.34705	1.99711	0.1068	79.23	-0.2341	0.0861	0.3202	804.2069	0.164562	-348.734361	-348.728958	-348.728013	-348.763634	25.201	
C	-0.0088577614	 1.5768773842	-0.0659486122	-0.23535
C	 1.4552401284	 1.9608669425	 0.0623787535	-0.059261
C	 2.4791917664	 1.1202300259	-0.6808140044	-0.061659
C	 2.0449558402	-0.1239295684	-1.437673335	-0.056903
C	 0.6158293842	-0.6164273293	-1.2686009306	-0.078872
C	 1.7426347278	-1.2476180624	-0.4756256311	-0.083841
C	 1.3362668548	-0.3991103921	 0.7697909702	-0.079858
C	 2.2112807851	 0.8623628317	 0.787552155	-0.071182
C	 0.0356753119	 0.0489255425	-0.0188258014	-0.041732
H	-0.5758803612	 1.9923921509	 0.776045842	 0.091155
H	-0.4721753365	 1.9415492061	-0.9910404381	 0.09388
H	 1.7092094232	 3.0014378265	 0.240838936	 0.073293
H	 3.3933941342	 1.6100353953	-0.9971372823	 0.076404
H	 2.5216586159	-0.3552580344	-2.3829294384	 0.07815
H	 0.0468861394	-1.0156786414	-2.1010455349	 0.074199
H	 2.1576637252	-2.2466724915	-0.511965382	 0.079457
H	 1.1941814898	-0.8996772791	 1.7257642167	 0.061578
H	 2.9360478829	 1.0560196826	 1.5694108226	 0.075462
H	-0.8804695503	-0.4297340494	 0.3308881444	 0.065082
