21
gdb 104860	2.20909	1.29557	1.19549	2.3095	74.77	-0.2417	0.0619	0.3036	1197.7568	0.180451	-461.331285	-461.321115	-461.320171	-461.366395	37.312	
C	-0.0326606706	 1.113063366	 0.393914105	-0.243142
O	-0.1428689868	-0.2069591889	-0.112835126	-0.322163
C	 0.5679228185	-0.5337739701	-1.3014317932	 0.376208
C	 0.0349117551	 0.1821865452	-2.5303248046	-0.157958
O	 0.4918419972	 1.5310671061	-2.5266347425	-0.422987
C	 2.1084386247	-0.5937691397	-1.087534927	-0.273526
C	 1.9667094739	-2.0754706644	-0.6453720747	-0.264822
C	 0.5696006962	-2.1014773386	-1.3269836249	 0.125096
O	-0.5028447802	-2.7513178803	-0.7149024213	-0.438729
H	 1.0109313006	 1.3926104633	 0.5874424284	 0.111904
H	-0.4623846941	 1.8501335916	-0.290447323	 0.12787
H	-0.5799477571	 1.1232660241	 1.3401160732	 0.118846
H	 0.395898083	-0.347949074	-3.4252021439	 0.087685
H	-1.064253232	 0.1255570933	-2.5241304195	 0.100747
H	 0.1405833447	 1.9696712655	-3.3072978377	 0.28992
H	 2.6423160157	-0.4794738963	-2.0341225038	 0.106805
H	 2.5333437952	 0.1081426111	-0.3690726139	 0.107411
H	 2.7128983442	-2.7912621012	-0.9964554281	 0.096065
H	 1.8654412436	-2.1684759142	 0.4386585601	 0.106024
H	 0.6398913696	-2.4754114378	-2.3536382333	 0.07948
H	-0.7605838515	-2.1789819007	 0.0208392307	 0.289267
