13
gdb 130191	3.51296	1.66754	1.13246	2.6715	66.55	-0.2138	-0.0303	0.1836	971.2575	0.092379	-448.89842	-448.891427	-448.890483	-448.92977	26.331	
N	-0.013918134	 1.3852181001	 0.1570325712	-0.595306
C	 0.0421540644	 0.0018044309	 0.043085179	 0.229332
N	-1.0561380946	-0.7518219305	 0.0153753925	-0.281517
N	-0.6501558508	-2.0591846058	-0.0115103668	-0.379793
C	 0.7033260333	-2.1414485655	-0.0151217839	 0.269325
C	 1.1742960717	-0.8489834292	 0.0219292741	 0.30475
O	 2.5228298409	-0.8293041088	 0.0180879606	-0.24862
N	 2.950348333	-2.1657495361	-0.0220646333	-0.127842
C	 1.8808233971	-2.9327035307	-0.0394224101	-0.102694
H	 0.6890442795	 1.8650942848	-0.3886953442	 0.257335
H	-0.9386840816	 1.7413336047	-0.0475261668	 0.257437
H	-1.3470854445	-2.7803078516	-0.0137122019	 0.277234
H	 2.0161060457	-4.0036848324	-0.0699570103	 0.140359
