18
gdb 96396	2.0994	1.70852	1.21178	2.8115	70.9	-0.2771	0.0111	0.2882	1077.7334	0.148743	-439.09925	-439.090912	-439.089967	-439.132094	31.219	
C	-0.0433035454	 1.5465115613	-0.0318867209	-0.426634
C	 0.0402940667	 0.0208899905	-0.0117873654	-0.007316
C	 0.6983006777	-0.5559803752	-1.271061389	-0.102521
O	 0.7719579294	-1.9744697178	-1.1903015838	-0.231063
C	 1.4974774183	-2.3773884473	-0.0677184598	-0.000054
O	 0.9038698272	-1.9493433933	 1.1462279095	-0.239364
C	 0.7880091648	-0.5386423896	 1.2236415577	-0.043531
C	 2.1187652977	 0.0919725478	 1.4017555632	 0.275219
N	 3.1554866682	 0.5842891984	 1.5382346654	-0.332986
H	 0.9484071244	 2.0036870493	-0.1041523439	 0.146696
H	-0.6347841351	 1.8840221483	-0.8884974458	 0.12698
H	-0.5233240018	 1.9294837461	 0.8744379378	 0.126441
H	-0.9671233505	-0.4056889368	 0.0526841632	 0.10408
H	 0.1093454513	-0.3221658464	-2.1614784648	 0.120503
H	 1.7066483246	-0.129463688	-1.4034962173	 0.111925
H	 1.4864005253	-3.4675641584	-0.0405316895	 0.129588
H	 2.5342389697	-2.0015826261	-0.122309059	 0.105101
H	 0.2102203073	-0.3342648327	 2.1308313527	 0.136935
