18
gdb 78705	5.44654	1.12734	1.11031	1.3859	77.23	-0.2362	0.0624	0.2986	1135.6926	0.147405	-401.820651	-401.813248	-401.812304	-401.852175	29.906	
O	 0.023508642	 1.4590895133	-0.1697801453	-0.439533
C	 0.0436591091	 0.0615247882	-0.0395623618	 0.104303
C	 0.0064095426	-0.5531212465	 1.3683586118	-0.049316
C	-1.4981779192	-0.1930252544	 1.5943300898	-0.177446
C	-1.3340587832	-0.5770902987	 0.0876053142	-0.019561
N	-0.7196931699	-1.8141696903	 0.810610185	-0.224062
C	-1.7572713317	-1.6498746479	 1.893601853	 0.44358
C	-1.8613872462	-2.4759577051	 3.1246602013	-0.362723
C	-2.9669582546	-2.4954688421	 2.0680870881	-0.361656
H	 0.9284294543	 1.7821589401	-0.1204772542	 0.288109
H	 0.7260784428	-0.4274036296	-0.7473663785	 0.082657
H	 0.7871865159	-0.65842995	 2.1234922403	 0.08055
H	-1.9269456201	 0.7151656742	 2.0233690814	 0.076925
H	-2.1196700148	-0.7053929124	-0.6574479265	 0.08635
H	-1.2293806147	-3.3550865904	 3.1984455848	 0.121892
H	-2.064948627	-1.9843665566	 4.070732749	 0.113483
H	-3.9115895914	-2.0165469303	 2.3056313558	 0.11413
H	-3.0531410938	-3.3871503815	 1.4555932218	 0.122317
