20
gdb 99595	2.21467	1.21788	0.99655	3.2886	78.85	-0.2745	0.028	0.3025	1291.4049	0.169738	-403.149999	-403.14011	-403.139166	-403.184878	36.311	
C	-0.0107420665	 1.6108594275	-0.2862556742	-0.480998
C	 0.0017115235	 0.106715803	-0.0819375856	 0.373243
C	 1.2940336819	-0.6308960098	-0.3384572625	-0.304004
C	 0.7938537593	-0.4565444633	 1.0753007063	-0.317794
C	-1.291918554	-0.6341687409	-0.4328335618	-0.233118
C	-2.5065390586	-0.2281645323	 0.4411252751	-0.07605
O	-3.6389150108	-1.0277021864	 0.185469223	-0.41629
C	-1.6488523851	-0.4629421866	-1.8475295344	 0.267889
N	-1.9756851418	-0.307283097	-2.9459309029	-0.334886
H	 0.9733060836	 2.0336145096	-0.0648029418	 0.121069
H	-0.2580499183	 1.8671245229	-1.3221554506	 0.14198
H	-0.7351422787	 2.1088699379	 0.367004182	 0.123166
H	 1.2454059248	-1.6209787781	-0.7790622983	 0.120193
H	 2.150740519	-0.0469605022	-0.6561027944	 0.120102
H	 1.3104326614	 0.2445854547	 1.7216542062	 0.119011
H	 0.4097645045	-1.3307891164	 1.590768997	 0.117411
H	-1.1394081263	-1.7079876971	-0.2712328054	 0.128199
H	-2.2384381375	-0.389956212	 1.4889781921	 0.123926
H	-2.7222537436	 0.8405107365	 0.3075373675	 0.108552
H	-3.9505372168	-0.83124011	-0.7054969471	 0.298396
