19
gdb 93887	1.89084	1.82323	1.0466	3.6966	71.78	-0.2387	-0.0163	0.2224	1158.7589	0.157829	-460.169258	-460.159962	-460.159017	-460.204098	33.712	
C	-0.2056870783	 1.5127108987	 0.0079256822	-0.418708
C	 0.0755303005	 0.0202564586	 0.040543089	 0.116202
O	 0.896705258	-0.3370094416	-1.065818089	-0.249464
C	 1.2923591521	-1.6768074266	-0.8346718965	-0.109514
C	 1.5044445894	-1.8199968509	 0.6965619133	 0.088464
O	 2.8703411704	-1.8439871984	 1.0872689187	-0.426805
C	 0.8479987005	-0.5348352405	 1.2708605083	-0.142038
C	 1.8957809457	 0.4567222506	 1.7526457918	 0.183667
O	 1.8946897406	 0.9384629441	 2.8561397024	-0.266783
H	 0.7194939398	 2.0943200074	 0.02849818	 0.134831
H	-0.7485520153	 1.7688993158	-0.9055515771	 0.129546
H	-0.8161405666	 1.8031791912	 0.8677365973	 0.13107
H	-0.8817285682	-0.527301344	-0.0246591783	 0.071992
H	 0.5101200302	-2.373498666	-1.1778010937	 0.088372
H	 2.2116407877	-1.8705885262	-1.3942097397	 0.109021
H	 0.9892857778	-2.7134755085	 1.0727469782	 0.080414
H	 3.253433661	-2.6844872691	 0.8196036915	 0.290535
H	 0.1840946671	-0.7439848627	 2.111645978	 0.092345
H	 2.6556608777	 0.7405585381	 0.9975440435	 0.096853
