14
gdb 128992	4.03751	1.69638	1.1945	3.4051	76.86	-0.2402	-0.0462	0.194	944.6438	0.106401	-395.797045	-395.791112	-395.790168	-395.827169	24.012	
N	 0.0235481026	 1.3414446767	 0.0094542863	-0.346232
N	 1.2901574481	 1.8336136556	 0.0001456299	-0.192571
C	 2.0937347592	 0.7885381119	-0.0135874444	-0.097782
C	 1.3517398484	-0.4312631451	-0.0135228115	 0.236794
C	-0.005635969	-0.0188105959	 0.0018698241	 0.381896
C	-1.0266388173	-0.971981493	 0.0061527225	-0.226498
C	-0.6091719771	-2.2904640612	-0.0054644854	-0.096776
C	 0.7678444789	-2.6083915003	-0.0204994576	-0.041036
N	 1.746764713	-1.715091332	-0.0247232318	-0.342644
H	-0.7451382101	 1.989008611	 0.0205304758	 0.274153
H	 3.1647876257	 0.9220879505	-0.0230811109	 0.12921
H	-2.0772598794	-0.7027518506	 0.0177791014	 0.108926
H	-1.3356931453	-3.0952688116	-0.0031485586	 0.105722
H	 1.0689975222	-3.653193376	-0.0294202297	 0.106838
