21
gdb 72247	2.34448	1.72109	1.46017	1.7046	82.11	-0.2183	0.089	0.3073	1047.5744	0.183003	-387.074089	-387.065731	-387.064787	-387.106412	32.959	
C	-0.0664791797	 1.5224893034	 0.0386193028	-0.506753
C	 0.0133453629	 0.0237600065	-0.0149651898	 0.254394
C	 0.8492774066	-0.789329887	-1.0051720994	-0.28088
C	-0.1135890724	-1.9982743827	-0.7829825865	-0.121986
C	 0.4091371761	-2.8772168747	 0.350887211	-0.081264
O	 0.5466498858	-1.975742432	 1.4581271125	-0.272575
C	-0.2904070257	-0.8704120798	 1.1789445882	 0.019929
C	-1.1074092223	-1.0403349568	-0.0555596635	 0.255006
C	-2.5965028459	-0.9608397535	-0.2110390864	-0.521211
H	 0.8869577598	 1.9561127461	 0.3641375491	 0.123669
H	-0.3050954948	 1.9473368371	-0.9437840486	 0.114818
H	-0.8367728001	 1.8595305893	 0.7408023415	 0.115282
H	 0.7667944556	-0.386378113	-2.018851242	 0.095051
H	 1.907403637	-0.9492313617	-0.766353566	 0.093542
H	-0.4562137907	-2.5367765089	-1.6666836983	 0.069953
H	-0.2971137906	-3.6853388049	 0.5995252924	 0.086995
H	 1.3899021359	-3.3190128659	 0.1444487605	 0.104034
H	-0.7034925916	-0.4101060122	 2.0702023764	 0.09188
H	-3.0144184891	-0.1515568799	 0.3970097519	 0.120701
H	-2.8865743879	-0.7746961666	-1.2518639268	 0.117277
H	-3.0814410988	-1.8921701328	 0.1061189711	 0.122135
