21
gdb 74581	3.89517	1.30118	1.17405	0.3603	88.39	-0.2056	0.0265	0.2321	1153.8847	0.183237	-349.942225	-349.934108	-349.933164	-349.974258	32.822	
C	 0.019214526	 1.5168449525	 0.0939174057	-0.499133
C	 0.0723999514	 0.0275054452	-0.0126680246	 0.320586
C	-0.08092459	-0.7424090119	-1.0980558939	-0.190537
C	-0.0374159799	-2.1815355304	-0.7122132781	-0.118397
C	 0.5656264842	-2.2808768461	 0.665197096	-0.123169
C	 0.1146136515	-0.884015787	 1.2027789366	-0.146483
C	-1.3296005113	-1.5050630942	 1.3629890167	-0.28198
C	-0.8854128048	-2.6797093339	 0.4942503163	 0.346623
C	-1.526277534	-4.0372762444	 0.4819873248	-0.501409
H	 0.9185279444	 1.914045618	 0.5825742112	 0.121009
H	-0.0684376854	 1.98751612	-0.8894075928	 0.121484
H	-0.8335526704	 1.8477378865	 0.7018770197	 0.123738
H	-0.2599089446	-0.3936293374	-2.1084036086	 0.084781
H	 0.185388481	-2.9501800567	-1.4443998158	 0.074564
H	 1.4402688081	-2.859921081	 0.9398668492	 0.078339
H	 0.5704473737	-0.4758729662	 2.1049029786	 0.060197
H	-1.4940186079	-1.8446286309	 2.3898649335	 0.096239
H	-2.1783483181	-0.8910265153	 1.0396666315	 0.084543
H	-2.5199461646	-4.0035019276	 0.0188492118	 0.119438
H	-0.9238411203	-4.7565562472	-0.0833979195	 0.115346
H	-1.6484450291	-4.4320549719	 1.4977422418	 0.114221
