22
gdb 60233	2.94233	0.9697	0.81734	3.4941	84.64	-0.2386	0.0367	0.2752	1502.0553	0.19339	-404.382728	-404.372668	-404.371724	-404.418759	36.355	
C	-0.1466049935	 1.5301147248	-0.1622995149	-0.386353
C	-0.0208568456	 0.0054052097	-0.0642511836	 0.03461
C	 0.7866124532	-0.5640483327	-1.2374151311	-0.387601
C	 0.6142377975	-0.4422389589	 1.2665863367	-0.172657
N	-0.1124389908	-0.0516205612	 2.4555780722	-0.070839
C	 0.0301457664	 1.0704457016	 3.3933120799	-0.171926
C	-0.9962511213	 0.3498298387	 4.3118658103	-0.372583
C	-0.9784043858	-0.7711365672	 3.2464616241	 0.40445
O	-1.4722341738	-1.860340394	 3.1088236487	-0.373232
H	 0.8367829112	 2.0122367411	-0.0956874238	 0.108258
H	-0.5947050701	 1.8247788796	-1.1166828422	 0.115669
H	-0.775687378	 1.9333136741	 0.6364679625	 0.117576
H	-1.029685235	-0.4264110066	-0.0958044096	 0.09364
H	 1.808770264	-0.1660592777	-1.2414268525	 0.111593
H	 0.8535856382	-1.6558596063	-1.186669746	 0.117714
H	 0.3263310235	-0.3006403061	-2.1946717468	 0.115377
H	 0.6804793893	-1.5361545326	 1.2825778423	 0.128787
H	 1.6377449334	-0.0492420891	 1.3400469949	 0.101903
H	 1.0382326855	 1.1651124188	 3.8134316134	 0.109624
H	-0.2860756942	 2.0387933439	 2.9936492953	 0.112087
H	-0.6216697558	 0.0439189612	 5.2900988358	 0.13225
H	-1.9593911281	 0.8497447787	 4.4281405945	 0.131652
