17
gdb 30492	3.72853	1.2061	0.92172	4.336	83.48	-0.222	-0.0543	0.1676	1263.8064	0.135022	-418.039218	-418.030435	-418.02949	-418.073222	31.505	
C	-0.0532253153	 1.4341170597	 0.0296422579	-0.314165
N	 0.0184862178	-0.0141250528	 0.0397960626	-0.301268
C	-1.049901735	-0.6838939992	 0.0239435151	 0.440735
O	-2.2976862001	 0.0153741573	-0.0035280675	-0.232916
C	-3.4403854362	-0.6779811299	-0.021211554	 0.095211
C	-3.4735052551	-2.0201646796	-0.0140169245	-0.232782
C	-2.1963606128	-2.7012200012	 0.0144257334	 0.318077
C	-2.166667037	-4.2026702983	 0.02411933	-0.478898
N	-1.0694602702	-2.0623405382	 0.0319843656	-0.332914
H	 0.961095767	 1.8395509611	 0.0463391518	 0.120404
H	-0.5633045314	 1.8178427673	-0.8647911268	 0.116765
H	-0.5966688041	 1.8286120758	 0.8993996779	 0.116768
H	-4.3112011935	-0.0305327002	-0.0415366188	 0.141229
H	-4.4113523645	-2.5576250173	-0.0287403281	 0.112954
H	-2.672420704	-4.6013208428	-0.8632043976	 0.138711
H	-1.1362042837	-4.556939241	 0.0453271685	 0.153352
H	-2.7048712519	-4.5905344108	 0.8970240142	 0.138739
