13
gdb 129212	2.50035	1.89054	1.25619	4.9239	71.46	-0.2536	-0.0928	0.1608	950.8375	0.090672	-448.912743	-448.905485	-448.904541	-448.944878	26.655	
N	-0.0929572894	 1.2516337612	-0.6349197217	-0.490356
C	-0.030011172	 0.0725355018	-0.1762220263	 0.313493
N	 1.1633004632	-0.5975388388	 0.167762447	-0.273079
N	 1.439712435	-1.8734137129	 0.4537512565	-0.154227
C	 0.6447529305	-2.8593205791	 0.1882001523	-0.012485
C	-0.6470523522	-2.8347097179	-0.4860076804	-0.004193
N	-1.4965057626	-1.8795250504	-0.5382917793	-0.214577
C	-1.3030988204	-0.6933676545	 0.1693223937	 0.346573
O	-2.0977861873	-0.2614071898	 0.9606097175	-0.277764
H	 0.8307334005	 1.6461817584	-0.8279833493	 0.220996
H	 1.9584107794	 0.0029602456	 0.340809792	 0.275247
H	 1.0630647223	-3.835842031	 0.4159800429	 0.133134
H	-0.9033148569	-3.7525745726	-1.0211450048	 0.137238
