13
gdb 14570	20.13846	0.61083	0.59721	4.6917	79.41	-0.2806	-0.0446	0.236	1704.0783	0.093899	-324.283198	-324.274784	-324.27384	-324.316745	28.872	
C	 0.0216617519	-1.2208946933	-0.004897509	-0.42425
C	-0.0222187983	-0.0202857208	 0.0020858516	 0.289564
C	-0.0336909431	 1.4355018084	 0.0099961006	-0.345103
C	 1.4066266916	 2.0196918086	-0.0004959032	-0.368721
C	 1.4160113882	 3.4716658302	 0.0071969631	 0.062518
C	 1.3969134682	 4.6797723151	 0.0139367532	 0.07467
C	 1.3838943183	 6.0448655718	 0.0216045051	 0.208405
N	 1.3717455363	 7.2065188963	 0.0281788013	-0.335039
H	 0.04071599	-2.2828121983	-0.0107369758	 0.205483
H	-0.580051116	 1.8148022394	-0.8607099014	 0.152933
H	-0.5634487063	 1.8053878108	 0.8948963865	 0.152931
H	 1.9558728999	 1.6441171748	 0.8704843025	 0.163307
H	 1.9392626194	 1.6535346371	-0.8856867745	 0.163304
