20
gdb 22250	2.81026	1.0514	0.8777	2.5111	78.84	-0.2383	-0.0163	0.2219	1389.8398	0.166235	-440.272807	-440.261721	-440.260777	-440.309866	38.751	
C	-0.1078537085	 1.4951576508	 0.0711639711	-0.401549
C	-0.002767768	-0.0347691926	-0.0734077687	-0.18708
C	-1.3956129238	-0.6847340232	 0.037879061	 0.390275
C	-2.1401624967	-0.4913033045	 1.3496638792	-0.478918
O	-1.8840370784	-1.310467995	-0.8740307201	-0.297707
C	 0.6996969156	-0.4923035266	-1.3338196439	 0.383066
C	 1.0109962218	-1.9528551493	-1.5135115413	-0.465647
N	 1.0056831433	 0.4118178902	-2.1821152768	-0.172065
O	 1.6490515627	-0.1238794686	-3.3077779169	-0.400766
H	 0.8808967085	 1.9485071945	-0.0174768316	 0.136693
H	-0.7349330572	 1.9193088569	-0.7165679271	 0.140087
H	-0.5284442758	 1.7656346166	 1.0429911725	 0.109516
H	 0.5750426862	-0.4155673399	 0.7839359528	 0.098555
H	-1.475947612	-0.5883429972	 2.2138815902	 0.131019
H	-2.5716752408	 0.515238742	 1.3844530325	 0.152138
H	-2.9518938181	-1.217270233	 1.4123617273	 0.145091
H	 0.3439333385	-2.3879864447	-2.2632822342	 0.16171
H	 2.0366003845	-2.0800724454	-1.869860436	 0.140411
H	 0.8772971615	-2.5061922556	-0.5815427829	 0.110707
H	 1.8276862368	 0.6640924049	-3.8314669772	 0.304464
