21
gdb 99795	1.91763	1.04939	0.96114	0.7422	93.5	-0.2467	0.0391	0.2858	1469.2801	0.177944	-349.90497	-349.893435	-349.892491	-349.942747	40.834	
C	 0.1501491127	 1.531874357	 0.0019564807	-0.394667
C	 0.0012226221	 0.0116694813	 0.0032164179	-0.178101
C	-1.473968163	-0.5013460213	 0.0201163189	-0.134146
C	-1.4686127904	-2.0543425508	 0.0245555482	-0.404619
C	-2.152619508	-0.0253847261	 1.2366782414	 0.375068
C	-2.6852976477	 0.3366607659	 2.2514095238	-0.502799
C	-2.1922431916	-0.0224601365	-1.1720580638	 0.146227
C	-2.7640210059	 0.3440829578	-2.1661313775	 0.0085
C	-3.4682803767	 0.7941813039	-3.3586830923	-0.499052
H	 1.2076472966	 1.8124180625	-0.0140881003	 0.1093
H	-0.3323743578	 1.9717964433	-0.8755547016	 0.126756
H	-0.3046154085	 1.9712961471	 0.8944612326	 0.129258
H	 0.479378128	-0.4148504538	-0.8858377074	 0.101219
H	 0.5041640455	-0.4155548287	 0.8782384346	 0.101984
H	-0.9404244784	-2.4240206218	 0.9078789214	 0.1216
H	-2.4893954494	-2.4415705362	 0.0395816952	 0.131201
H	-0.9667056213	-2.4247369868	-0.8735060205	 0.120919
H	-3.1683615122	 0.6654437143	 3.1380572282	 0.194932
H	-4.1089269134	 0.003691732	-3.7648783307	 0.148229
H	-4.1058461719	 1.6577194447	-3.1394466486	 0.150738
H	-2.768045769	 1.0909489223	-4.14727247	 0.147454
