22
gdb 104508	2.44858	1.13509	0.903	4.0925	86.37	-0.2807	0.0339	0.3146	1382.2127	0.192858	-367.228192	-367.217899	-367.216954	-367.26365	37.789	
C	 0.1226237137	-0.2324302691	 1.1604609638	-0.390247
C	 1.5113413321	-0.7725730262	 0.793277716	-0.265633
C	 1.7396604453	-0.9724754805	-0.6991600164	 0.364498
C	 1.6966582482	 0.3101144866	-1.5343887981	-0.41958
C	 2.7201565754	 1.2810968864	-1.138563353	 0.272797
N	 3.5302464103	 2.0377195398	-0.8113886137	-0.317143
C	 2.7264466991	-2.0254660369	-1.1495849121	-0.337028
C	 1.2501349846	-2.2220794317	-1.4090284039	-0.044259
C	 0.4683111135	-3.3251151242	-0.7279374296	-0.417836
H	-0.0504946486	 0.7664636751	 0.7471411713	 0.120748
H	-0.6720168624	-0.8894068744	 0.7925656779	 0.119465
H	 0.016311059	-0.1527356958	 2.2464294156	 0.120183
H	 2.281067835	-0.0897514095	 1.174630224	 0.123592
H	 1.6765543191	-1.7231498968	 1.309510652	 0.100007
H	 1.8438977209	 0.0739564571	-2.5937131667	 0.145504
H	 0.71663817	 0.7953020186	-1.4572530351	 0.149566
H	 3.3837020697	-1.8052752212	-1.9845361938	 0.114889
H	 3.1859405769	-2.6349501835	-0.3776702939	 0.114262
H	 0.9430677859	-2.0592264347	-2.4403576348	 0.081364
H	 0.7983925339	-3.4907486235	 0.3009957352	 0.121428
H	-0.6042321908	-3.1035206192	-0.7039695241	 0.120437
H	 0.5980634193	-4.2700071865	-1.2669123103	 0.122987
