20
gdb 95629	2.27166	1.6099	1.06011	3.3233	75.54	-0.2399	0.023	0.2629	1166.5866	0.17276	-440.335701	-440.326828	-440.325884	-440.369355	33.788	
C	 0.0209540503	 1.5914623541	-0.0123924813	-0.407366
C	 0.0454326691	 0.0604084861	-0.0349094484	 0.010109
C	 0.7447178983	-0.5135776405	-1.272092259	-0.203959
C	 0.5474242117	-2.027305367	-1.3266766023	-0.169124
N	 0.9092714188	-2.6418342315	-0.05354161	-0.31056
C	 1.0525657133	-2.0146640796	 1.1415260065	 0.373214
O	 1.5028338593	-2.5756617107	 2.1304142007	-0.401358
C	 0.6955105346	-0.5220624861	 1.2264302765	 0.043849
O	 1.9080982562	 0.1704070214	 1.4994579763	-0.441852
H	 1.035518001	 1.9962934495	-0.0088871408	 0.139813
H	-0.5077153641	 1.9803538098	-0.8886293351	 0.105855
H	-0.4882763207	 1.964017375	 0.8823541137	 0.115208
H	-0.9935778052	-0.3007637474	-0.041304289	 0.074439
H	 0.3452316896	-0.0680293101	-2.1886781843	 0.099171
H	 1.8136690768	-0.2763117841	-1.2249843728	 0.122325
H	-0.4992017407	-2.2568382966	-1.576375228	 0.109491
H	 1.1682373616	-2.4705496069	-2.112778587	 0.113607
H	 1.1810514266	-3.6148134718	-0.0448367785	 0.247874
H	 0.0033946239	-0.4210807895	 2.0771370406	 0.084819
H	 2.3568315295	-0.3519256643	 2.1770860021	 0.294443
