16
gdb 24018	4.13509	1.21581	1.02663	1.7411	82.97	-0.204	0.0351	0.2391	1146.3668	0.125337	-363.575026	-363.567409	-363.566465	-363.607687	29.045	
C	-0.2349025371	-1.2599342547	-0.2570397458	-0.462901
C	-0.1112436573	-0.0702131122	-0.1395667455	 0.349902
C	 0.0297452609	 1.3672410348	 0.0047338071	-0.36957
C	-0.2668282517	 1.9677125709	 1.4507199593	-0.183509
N	 1.1181599178	 2.4506806063	 1.4386604842	 0.025709
C	 2.1674678315	 3.1441634981	 1.9710968063	-0.159317
C	 3.1804759973	 3.0504996835	 1.0266884225	-0.124963
C	 2.7235470428	 2.2933041074	-0.1002273543	-0.340772
C	 1.4304545111	 1.9480776539	 0.2156604023	 0.360725
H	-0.3344547694	-2.3117049941	-0.363973235	 0.201273
H	-0.5479734162	 1.8805518598	-0.7720364977	 0.122048
H	-1.0213771138	 2.7589772812	 1.4741736138	 0.128674
H	-0.4756406937	 1.2193743433	 2.218529275	 0.137392
H	 2.1339829	 3.6249850465	 2.9346117619	 0.120017
H	 4.1649921522	 3.4814430668	 1.1351412289	 0.094687
H	 3.2860688457	 2.0535111783	-0.9879067731	 0.100607
