16
gdb 34899	1.94601	1.91427	1.18854	2.3469	80.24	-0.2354	0.0331	0.2685	1062.4017	0.122562	-363.487165	-363.478834	-363.47789	-363.520053	31.986	
C	-0.3044208315	-1.2596942778	 0.0138683616	-0.451673
C	-0.1680412759	-0.066012108	 0.0435343181	 0.373243
C	-0.0185173907	 1.3719752272	 0.0558658111	-0.230865
C	-0.2762191274	 2.1287883028	 1.3726394224	-0.058124
N	 0.7452004105	 1.6711239299	 2.3351908742	-0.312928
C	 1.0809964561	 2.7301902962	 1.3631187138	-0.058139
C	 1.4529252447	 2.0241993145	 0.045404404	-0.230801
C	 2.6185730192	 1.1691694377	 0.0235459561	 0.373159
C	 3.5941644481	 0.4683211432	-0.0137470415	-0.451651
H	-0.4153938329	-2.315456863	 0.0028562433	 0.193478
H	-0.5926802752	 1.818651502	-0.7611052669	 0.108554
H	-1.2240660447	 2.5341282435	 1.7026667131	 0.104787
H	 0.549410267	 2.1269252557	 3.2255918755	 0.234127
H	 1.4212546433	 3.7063132831	 1.6841208146	 0.104787
H	 1.4977916084	 2.7453635359	-0.7759022494	 0.108564
H	 4.4505214512	-0.1588900328	-0.0318894198	 0.19348
