23
gdb 121946	3.9869	0.62634	0.56794	1.5601	83.42	-0.2545	0.0851	0.3396	1990.4476	0.203184	-425.394779	-425.383914	-425.382969	-425.431932	38.02	
C	-0.0077086528	 1.2660386704	 0.4618745563	-0.227896
O	-0.0832348369	-0.1352822299	 0.3713044926	-0.230217
C	-1.3373614937	-0.5899599626	-0.0902480578	-0.060043
C	-1.291295809	-2.1115114401	-0.1642197086	-0.202626
C	-2.6325164333	-2.7682112966	-0.5363288059	-0.013287
C	-3.1207242702	-2.4043187173	-1.9473620524	-0.401025
C	-2.512516469	-4.2731517432	-0.408476755	 0.101639
C	-2.8922200349	-4.9967625711	 0.8100443401	-0.185348
O	-3.7336399817	-5.0130139698	-0.3464369935	-0.246289
H	 0.9922512683	 1.5184049519	 0.8234041556	 0.126309
H	-0.1640706692	 1.7498250259	-0.5158499729	 0.10221
H	-0.7522126995	 1.6726683841	 1.1653448053	 0.101971
H	-2.1400028908	-0.2640039577	 0.5956863989	 0.082484
H	-1.5598732145	-0.1489004437	-1.0758785851	 0.087805
H	-0.5181763929	-2.4041988427	-0.8861888891	 0.103959
H	-0.9609732433	-2.4817917082	 0.8134921808	 0.107051
H	-3.3953091449	-2.4465948955	 0.1859974785	 0.076363
H	-4.0396976333	-2.9495672777	-2.1803321591	 0.134404
H	-3.3300628244	-1.3353670076	-2.0434805734	 0.115866
H	-2.3697236964	-2.6673429285	-2.7019141372	 0.113383
H	-1.7559391697	-4.7302318981	-1.0517188788	 0.087926
H	-2.4150621073	-5.9445748094	 1.055495055	 0.114077
H	-3.2828515706	-4.4412861127	 1.6622253759	 0.111285
