21
gdb 90227	2.52275	1.70016	1.52425	1.596	81.02	-0.226	0.0636	0.2896	1020.0028	0.182531	-387.023616	-387.01555	-387.014606	-387.055783	32.622	
C	-0.560589433	 1.3278069103	-0.0678039923	-0.403728
C	 0.1015799576	-0.033397395	-0.0450506014	 0.079752
O	 1.3012729362	-0.0823913814	-0.9028590985	-0.357194
C	 2.0823837457	-0.550422782	 0.2124059978	 0.411853
C	 2.8891398563	 0.5026965374	 1.014021551	-0.295603
C	 1.7027583376	 0.5372880227	 2.0565683989	-0.30464
C	 0.9264847254	-0.4942079694	 1.1861778818	 0.190778
C	 1.0592120346	-2.0236944051	 1.4455696666	-0.30218
C	 2.240361643	-2.082418006	 0.3987707377	-0.298675
H	 0.1245551468	 2.1155642032	 0.2573822447	 0.120984
H	-0.8883337617	 1.5657857792	-1.0846834343	 0.127508
H	-1.4391958617	 1.334829656	 0.5868037244	 0.116435
H	-0.6171263346	-0.7988045098	-0.3712756006	 0.073628
H	 3.8518511171	 0.1683043261	 1.4101037911	 0.099532
H	 3.0386600963	 1.4321592294	 0.4607541275	 0.11319
H	 1.9680615576	 0.1548291198	 3.0455109795	 0.103665
H	 1.2242648473	 1.5102915212	 2.1919103627	 0.105101
H	 1.3539231763	-2.2774182957	 2.4671285838	 0.102382
H	 0.1780253043	-2.6184116214	 1.1887869184	 0.102624
H	 2.0219129424	-2.6477187465	-0.5094944294	 0.114374
H	 3.2023457065	-2.4154807532	 0.7975138506	 0.100212
