20
gdb 101299	2.46343	1.06808	0.88737	3.0872	77.96	-0.2494	-0.0378	0.2116	1373.3336	0.168443	-440.256971	-440.247068	-440.246124	-440.292344	35.798	
C	-1.1766081682	 1.3740788586	-2.3826131179	-0.382797
C	-0.5055436112	 0.1594149195	-1.739129068	 0.017009
C	 0.7237927486	 0.5527022272	-0.9086601341	-0.057007
O	 0.3910462922	 1.4365827467	 0.1418921881	-0.419062
N	-1.4692541172	-0.460581497	-0.8108524866	-0.090076
C	-2.4815375714	-1.3439159776	-1.3210647479	-0.253248
C	-1.3886467627	-1.885313246	-0.4359676804	-0.096387
C	-0.4113875305	-2.8343820985	-1.0330634002	 0.155619
O	 0.0505459489	-3.7701459385	-0.4279119222	-0.260735
H	-0.4995978861	 1.8379745171	-3.1060680922	 0.119471
H	-2.0914305743	 1.0861743297	-2.9090228137	 0.113253
H	-1.4271073904	 2.1142068276	-1.6197186837	 0.138653
H	-0.1855203135	-0.529537794	-2.5354740117	 0.068232
H	 1.2108946231	-0.3596671938	-0.5252627481	 0.09146
H	 1.4498155007	 1.0684707959	-1.5457771514	 0.10948
H	-0.3878386618	 1.0577878539	 0.5689486668	 0.289938
H	-3.4837463224	-1.240502444	-0.9140500477	 0.135235
H	-2.4395888431	-1.617907057	-2.3759344777	 0.122808
H	-1.604034886	-2.0919872361	 0.6089633778	 0.117341
H	-0.1408263446	-2.6472164537	-2.0948137091	 0.080815
