15
gdb 19649	4.92813	1.80456	1.69221	2.138	63.1	-0.2205	0.0565	0.2771	792.2545	0.118835	-362.527552	-362.521014	-362.52007	-362.558417	25.2	
O	 0.0479177221	 1.3333659108	-0.2606986291	-0.413513
C	-0.0002523685	-0.0347373314	 0.1104067239	-0.208424
C	-1.3800335059	-0.5835269054	 0.0128694695	 0.387793
C	-2.2887943527	-0.9794427243	-1.1240674405	-0.161914
C	-3.4667710755	-0.4105807124	-0.2967100695	-0.045019
C	-3.1800649724	-1.356387437	 0.8124467595	-0.050403
C	-1.9914271164	-1.9613889717	 0.0239574617	-0.186388
N	-2.545078034	 0.0112392002	 0.8179682527	-0.229011
H	-0.6163182954	 1.785900493	 0.2723979095	 0.295
H	 0.6669294095	-0.5755543175	-0.5701827941	 0.11453
H	 0.3795591183	-0.1827067344	 1.1346226322	 0.097969
H	-2.0942139455	-1.0838749679	-2.1816813875	 0.101082
H	-4.3560141434	 0.1525907934	-0.5527134553	 0.099408
H	-3.7898796695	-1.7145828454	 1.6332021481	 0.099493
H	-1.5369081207	-2.9411061297	-0.0129774311	 0.099398
