19
gdb 89692	3.65366	1.22847	1.12374	1.7573	82.03	-0.248	0.0215	0.2694	1155.4324	0.158976	-385.841629	-385.833495	-385.832551	-385.873896	32.54	
C	-0.0422774682	 1.5215997912	 0.0349653345	-0.412625
C	 0.0303459052	-0.0029153453	 0.041441028	 0.032628
C	 0.9549863918	-0.6077190214	-1.0671872778	-0.289638
C	 1.9684388136	-1.3225492911	-0.1344512418	 0.337231
C	 1.0510198639	-2.0495014388	 0.8879178043	-0.27923
C	 0.8056137342	-0.5744615579	 1.2532631288	 0.053586
O	 2.1959684155	-0.290405577	 0.893426232	-0.327775
C	 3.1473841077	-1.9157282702	-0.7077314152	 0.086257
C	 4.11303999	-2.4280451253	-1.2074025172	-0.33515
H	 0.9599159776	 1.9452717076	 0.1488071298	 0.134272
H	-0.4660720241	 1.8940946458	-0.903261024	 0.113763
H	-0.6677122013	 1.8934654145	 0.8541817962	 0.109412
H	-0.9779729955	-0.4282142917	-0.0053098441	 0.069788
H	 0.4475239444	-1.3022135541	-1.7407793878	 0.105482
H	 1.4548003625	 0.1590773185	-1.6626238501	 0.115767
H	 0.2254630115	-2.6576652686	 0.5099791273	 0.097781
H	 1.6339682192	-2.5757995729	 1.6430177445	 0.120193
H	 0.5344836146	-0.2420566667	 2.2551644067	 0.08024
H	 4.9710435174	-2.8772250165	-1.643328254	 0.188017
