15
gdb 48695	2.73881	1.33418	1.04344	4.1976	73.73	-0.2525	-0.032	0.2204	1137.0432	0.109817	-420.548366	-420.54023	-420.539286	-420.5814	30.244	
O	-0.0660653497	-0.0110163013	 0.0288038033	-0.257837
C	 0.0216400659	 1.1838620931	-0.092444943	 0.06821
C	 1.2784105408	 1.9459115167	-0.0820818048	 0.384229
C	 1.3906509016	 3.385746173	 0.3729941046	-0.350542
C	 1.7792754902	 3.0385239035	-1.0292513031	-0.165812
C	 3.0895904024	 2.233871015	-1.0146595333	-0.109811
O	 2.5429393948	 1.3006631143	-0.0264149121	-0.299992
C	 3.4275375727	 1.5816372144	-2.265588306	 0.346225
C	 3.712281438	 1.0635224499	-3.3111695001	-0.416494
H	-0.8731102622	 1.8369178889	-0.220714147	 0.072165
H	 0.4549225011	 3.9276414416	 0.4690227368	 0.135074
H	 2.1428153504	 3.613497424	 1.1222887639	 0.136311
H	 1.3093654198	 3.4460105359	-1.9131842088	 0.130715
H	 3.9587481644	 2.7629772912	-0.606036028	 0.118642
H	 3.9658972597	 0.5933299097	-4.2295255324	 0.208916
