13
gdb 83070	2.95824	1.52978	1.2952	3.4162	63.	-0.2696	-0.0144	0.2552	955.4334	0.089689	-452.734919	-452.727646	-452.726702	-452.766651	27.086	
O	-0.0182697829	 1.398398107	 0.2628077244	-0.402129
C	-0.0413861233	 0.0259483778	 0.1418055405	 0.030359
C	-0.4404080199	-0.7756626719	 1.3348411816	-0.007258
O	-1.1589298477	-0.0892564167	 2.3324895649	-0.196861
C	-2.2951690519	 0.3544144402	 1.7370545333	 0.118772
N	-2.5363358524	 0.0147977689	 0.5345663053	-0.302122
C	-1.3846017915	-0.7360018565	 0.1011153558	 0.119758
C	-1.5660322468	-1.8055568952	-0.8357009108	 0.231059
N	-1.660402887	-2.672643625	-1.5952397162	-0.338526
H	-0.3521958423	 1.7894820326	-0.5530668308	 0.307673
H	 0.7332426202	-0.4309950902	-0.4728614723	 0.128624
H	 0.1194248974	-1.6248089293	 1.7031654937	 0.146896
H	-2.9300549619	 0.9659829482	 2.3643676405	 0.163755
