19
gdb 73199	2.38139	1.46208	1.32306	1.6338	75.06	-0.2433	-0.0256	0.2177	1076.0867	0.157916	-423.0072	-422.998538	-422.997594	-423.04083	32.617	
O	 0.0414241065	 1.0707914065	-0.348860592	-0.486511
C	-0.1747521611	-0.2735820418	-0.0386936459	 0.411586
C	-0.1551932686	-1.2847297144	-1.2289367655	-0.295454
C	-1.6508043694	-1.6355109523	-0.9523109715	-0.223837
C	-1.6085321804	-0.7817537934	 0.3342854487	-0.054255
C	-1.004069284	-1.5121020912	 1.5738236753	-0.275418
C	 0.3639590097	-0.7961101225	 1.3160810897	-0.142076
C	 1.6447494386	-1.5749667078	 1.376098824	 0.13381
O	 2.5019880264	-1.537238688	 0.5260043193	-0.256276
H	 0.9394643594	 1.1510811509	-0.6915623659	 0.284113
H	 0.0156053832	-0.7850057233	-2.1848329367	 0.106195
H	 0.5581406983	-2.1044387296	-1.1350537107	 0.112867
H	-2.3229710353	-1.2258212314	-1.710108322	 0.107087
H	-1.8902497086	-2.6939186399	-0.8171708697	 0.096838
H	-2.4290459324	-0.0951641592	 0.5418621486	 0.076235
H	-1.4705052564	-1.2799671432	 2.5322568576	 0.112303
H	-0.9676919185	-2.6001742077	 1.4640248883	 0.105078
H	 0.4644910914	 0.053788816	 2.004066337	 0.111596
H	 1.769646061	-2.2142068876	 2.2820084713	 0.076118
