16
gdb 106545	2.31192	1.59428	1.14526	0.729	65.55	-0.2505	-0.0164	0.2341	1066.4221	0.123908	-474.95408	-474.945844	-474.9449	-474.98721	30.824	
O	-0.0636935264	 1.3810205068	-0.1077784545	-0.417691
C	-0.0182389674	-0.0371348868	-0.1507251037	-0.215709
C	-1.3884021846	-0.6227576251	 0.0105186024	 0.126751
N	-2.5273672503	-0.378029752	-0.9997624906	-0.373977
C	-3.214396905	-1.2048223625	 0.095773355	-0.210675
C	-1.9261770777	-2.1005172776	 0.0440830808	 0.165619
O	-1.7277224273	-2.8865444475	-1.0798912358	-0.449182
C	-2.455059891	-0.2917847127	 1.0673532918	 0.414798
O	-2.626805824	 0.4608839025	 1.9809487875	-0.341808
H	-0.3885549979	 1.6348767876	 0.7640119353	 0.30109
H	 0.4028787473	-0.3072578096	-1.1241589813	 0.131016
H	 0.64327635	-0.4555739077	 0.6235493251	 0.108743
H	-2.8262876098	 0.5996770101	-0.9912084677	 0.244285
H	-4.2599695653	-1.4955890184	 0.0244510146	 0.109538
H	-1.6965610558	-2.69156887	 0.930816426	 0.109474
H	-1.9564334248	-2.3274584371	-1.8372766047	 0.297727
