20
gdb 111464	2.69523	1.45706	1.05824	2.7905	79.46	-0.2486	0.0243	0.2729	1181.3499	0.171922	-403.159001	-403.150602	-403.149658	-403.192217	32.413	
C	-0.0334813808	 1.5214617804	 0.21860131	-0.390792
C	-0.1235605334	 0.011578904	-0.0194805129	-0.16977
C	 0.6111613465	-0.4684795852	-1.2860101277	-0.099137
C	 0.8215898153	-1.971483953	-1.3921178229	-0.081029
C	-0.3987112739	-2.8509260541	-1.6164415781	-0.321078
C	 0.4083725794	-2.3532499702	-2.7793270599	 0.080657
O	-0.100736878	-1.2096746395	-3.4407737947	-0.237405
C	-0.0952562145	-0.1260135848	-2.5982380736	 0.390613
N	-0.6108818324	 0.9880114813	-2.8944198683	-0.526164
H	 1.0097618985	 1.8362292584	 0.3390599609	 0.104914
H	-0.457575726	 2.0710968918	-0.6235927276	 0.161339
H	-0.5711874877	 1.8006248001	 1.1301964255	 0.104182
H	 0.3075952514	-0.5229706358	 0.8359870015	 0.095154
H	-1.1741638806	-0.2953561494	-0.0766454122	 0.100303
H	 1.596186823	 0.0173948517	-1.31407139	 0.104993
H	 1.69403667	-2.4081620726	-0.9218461984	 0.098802
H	-0.3059934375	-3.8982750632	-1.3507942696	 0.121455
H	-1.3900805656	-2.4324858867	-1.4764543671	 0.129441
H	 0.9563047204	-3.007694014	-3.4448704529	 0.110841
H	-1.0314277642	 0.9521988106	-3.8244702521	 0.222678
