18
gdb 272	6.8197	1.72205	1.47522	1.3839	60.25	-0.2613	0.0807	0.342	850.8528	0.164714	-272.837559	-272.829406	-272.828462	-272.869568	28.734	
C	-0.0578834649	 1.5245636763	-0.0054110246	-0.385736
C	 0.0067563903	-0.0081134095	 0.0443585073	 0.038624
C	 0.8400582757	-0.4722770071	 1.2487656481	-0.381001
C	-1.4123468638	-0.6010977899	 0.0423970995	-0.149929
C	-1.4749068893	-2.1171812439	-0.099979967	-0.08247
O	-2.8441696673	-2.4812857503	-0.2146996999	-0.421762
H	 0.9447056373	 1.9630050927	-0.0476507561	 0.107347
H	-0.6151062697	 1.8722566404	-0.8815285015	 0.11051
H	-0.5571968695	 1.9238167563	 0.885553148	 0.112251
H	 0.5149469548	-0.350735159	-0.8692819411	 0.069801
H	 1.8336177829	-0.0118009156	 1.2370060802	 0.109472
H	 0.3546923902	-0.188050259	 2.1904354731	 0.112348
H	 0.9816065163	-1.5571232199	 1.2619847275	 0.111483
H	-1.9376107883	-0.3122247705	 0.9623744022	 0.09823
H	-1.9853342299	-0.1711221404	-0.7881360468	 0.100981
H	-0.905247257	-2.4289371911	-0.9918861592	 0.080733
H	-1.0115707694	-2.6075349614	 0.7696309751	 0.085354
H	-2.8959572382	-3.4400247481	-0.2656219846	 0.283765
