18
gdb 38397	3.94797	1.3426	1.32305	0.9661	74.76	-0.2366	0.0769	0.3135	1020.0504	0.148254	-401.854887	-401.847836	-401.846892	-401.886226	28.596	
C	 0.0700062426	 1.4225281827	 0.0363484943	-0.239428
C	 1.3192250107	 0.6467517199	-0.0387821093	-0.014036
C	 1.713207675	 0.1110185408	 1.3340588644	-0.334656
C	 0.3076163531	-0.5318298321	 1.3767822905	 0.360968
C	 0.0997894916	-2.0715188535	 1.5596555927	-0.333396
C	-0.9095532617	-1.7552251784	 2.6674487884	 0.037211
O	-0.2177676393	-0.9749609217	 3.6532993799	-0.248979
C	-0.7266021671	-0.3067981743	 2.4919796831	-0.045099
N	-0.0348165397	-0.0533318045	-0.0090283229	-0.182026
H	-0.1852987842	 1.9502941916	 0.9531115742	 0.112734
H	-0.2946506855	 1.8921849694	-0.8717552474	 0.122695
H	 1.9393031589	 0.6281558581	-0.9287995242	 0.096799
H	 2.5055510358	-0.6390343919	 1.3002147166	 0.115743
H	 1.9605687387	 0.8516800628	 2.1000017495	 0.110487
H	-0.3543225821	-2.4958429955	 0.661433408	 0.125269
H	 0.9669311645	-2.6614069052	 1.8668568726	 0.106537
H	-1.7727809507	-2.319487814	 2.9991837299	 0.106389
H	-1.4066140006	 0.5236823558	 2.6444912398	 0.102792
