15
gdb 131831	3.00838	1.2848	0.96135	5.8809	62.65	-0.25	-0.0015	0.2485	1164.2476	0.112939	-491.094403	-491.086219	-491.085275	-491.128197	28.999	
O	-0.2606074804	 1.531224992	 0.2875583602	-0.416305
C	 0.0581149111	 0.1714681799	 0.0314408761	-0.079136
C	-1.2557869159	-0.5806741262	-0.1237067491	-0.173052
N	-2.0114291982	-0.1510348695	-1.2867763983	-0.140145
C	-2.5890558874	 1.0599065453	-1.5495011245	 0.072862
N	-3.1892261433	 1.0990169309	-2.6900716558	-0.136938
O	-2.9958141159	-0.1972018821	-3.2413900611	-0.238423
C	-2.2701474859	-0.9699129191	-2.3813946988	 0.516503
O	-1.9403951547	-2.1106749596	-2.5601372486	-0.405372
H	 0.5427778471	 2.0558403359	 0.226049984	 0.299722
H	 0.6558192677	 0.0607393675	-0.8842721721	 0.115666
H	 0.6215757475	-0.2753715488	 0.8642525531	 0.1069
H	-1.0702909485	-1.6485250826	-0.2630944325	 0.158995
H	-1.8615671771	-0.4440797433	 0.7782832805	 0.137363
H	-2.5319606362	 1.8989231495	-0.8747877031	 0.181361
