17
gdb 64682	4.83632	0.86437	0.82264	4.6153	79.78	-0.2752	0.0076	0.2828	1384.1995	0.133816	-380.826909	-380.817477	-380.816533	-380.861384	34.332	
C	-0.095366472	 1.7103013313	 0.2181927713	-0.448733
C	-0.0935881739	 0.2026828967	 0.1033769454	 0.320509
C	-1.3866725092	-0.4194066211	-0.4310164102	-0.434211
C	-1.645487341	-0.0701203463	-1.824433531	 0.31018
C	-1.8387233022	 0.2203714197	-2.9741297773	-0.43691
N	 1.1799226562	-0.3964033995	-0.2945812867	-0.329161
C	 0.6812578538	-0.6395678036	 1.077396133	-0.256793
C	 1.4384957428	-0.0620160246	 2.1614953751	 0.33489
N	 2.0156763794	 0.3976353726	 3.0515709699	-0.33589
H	 0.8699314054	 2.0711781709	 0.5763396023	 0.152305
H	-0.2922382432	 2.1556659188	-0.7612413485	 0.141886
H	-0.874121439	 2.0450745346	 0.911270359	 0.126008
H	-1.3389430844	-1.5115630081	-0.3314485043	 0.129916
H	-2.2271489548	-0.0913759526	 0.1941111103	 0.147029
H	-2.0175946349	 0.4748283356	-3.9897476723	 0.2065
H	 1.0394897902	-1.2302394908	-0.8611267238	 0.244978
H	 0.2739188468	-1.6198979034	 1.3118280479	 0.127497
