22
gdb 19523	3.32802	1.51369	1.4412	0.149	80.98	-0.2555	0.0796	0.3351	1037.7346	0.202593	-313.076844	-313.068708	-313.067764	-313.109527	31.304	
C	 0.0897793191	 1.4416030773	-0.203440922	-0.369872
C	 0.076955766	-0.0446334699	 0.1780650616	-0.21165
C	-1.3170006841	-0.6395120655	 0.1117499747	 0.016249
C	-1.9925980696	-1.1906886784	-1.1270769788	-0.052187
C	-1.1613695042	-1.6238470022	-2.3297118181	-0.215112
C	-0.1231392768	-2.652816023	-1.8058328933	-0.217182
C	-0.6361016565	-3.1315596416	-0.4212503959	-0.212689
C	-1.6691041811	-2.108967223	 0.036818597	-0.075516
H	 1.0975276046	 1.8631054398	-0.1314347003	 0.107039
H	-0.2653217179	 1.5875924834	-1.2289501677	 0.11836
H	-0.5629988787	 2.0242361918	 0.4562654362	 0.111506
H	 0.7742506949	-0.5855668738	-0.4665781089	 0.098293
H	 0.4629648462	-0.1589552989	 1.1999625347	 0.094679
H	-2.011268548	-0.0849141939	 0.7430433248	 0.074911
H	-3.0131174621	-0.8759528112	-1.3204547736	 0.07318
H	-1.8291831152	-2.092982513	-3.0611594731	 0.097461
H	-0.6769945579	-0.7860737277	-2.8442961089	 0.095814
H	-0.0025560883	-3.489672024	-2.4999451685	 0.094178
H	 0.8641479112	-2.1933038708	-1.7137442672	 0.106764
H	-1.1295656818	-4.1059461561	-0.5116012298	 0.096971
H	 0.185054144	-3.2632776511	 0.2924331261	 0.095284
H	-2.4524779239	-2.463147178	 0.6994750311	 0.073522
