25
gdb 58888	2.92671	1.21764	1.03104	0.2195	91.81	-0.2528	0.0818	0.3346	1316.1555	0.230256	-352.371447	-352.362086	-352.361142	-352.405347	37.214	
C	-0.0689743236	 1.5772132695	 0.4104342852	-0.382141
C	 0.0134945328	 0.0789182863	 0.06928884	-0.060209
C	 0.8817089926	-0.6525902598	 1.1023703655	-0.405913
C	-1.3811696349	-0.5124205434	-0.1197906262	 0.395525
C	-2.2358680781	-0.9238974638	 1.0593491741	-0.337162
C	-1.7442195838	-1.9718955705	 0.0860704904	-0.083169
C	-2.6884888159	-2.4130359602	-1.0211237144	-0.216398
C	-3.2689616972	-1.0962331923	-1.5838690059	-0.232006
C	-2.1683313911	-0.0376421557	-1.3459713841	-0.267499
H	 0.9309325054	 2.0164823652	 0.491600244	 0.104603
H	-0.6180838502	 2.1369416685	-0.352373643	 0.112812
H	-0.5808931087	 1.7278523264	 1.3677330332	 0.113255
H	 0.5242347793	-0.0104704133	-0.9016506585	 0.066627
H	 1.0132254627	-1.7089456632	 0.8516445629	 0.113928
H	 1.8764082101	-0.1973920063	 1.1469648123	 0.109916
H	 0.4538174642	-0.5925504462	 2.1092496007	 0.114691
H	-1.7749891595	-0.9181576334	 2.0410442847	 0.10437
H	-3.2885394112	-0.6579493807	 1.0760722227	 0.101648
H	-1.0127593525	-2.6859610146	 0.4481887374	 0.074695
H	-2.1162562585	-2.9420415952	-1.7933704499	 0.094949
H	-3.4713308133	-3.0979180517	-0.6762130062	 0.093389
H	-3.5481399023	-1.1767273279	-2.6377845124	 0.094555
H	-4.1797557593	-0.823790328	-1.0416573001	 0.103185
H	-2.5878657288	 0.9674516883	-1.2280028387	 0.094388
H	-1.484960998	 0.0018697819	-2.2047527038	 0.091962
