18
gdb 31578	3.31186	1.15345	0.86635	1.6936	77.1	-0.1676	0.0575	0.2251	1332.7117	0.147777	-435.305618	-435.295785	-435.294841	-435.340415	34.667	
C	-0.0012353174	 1.3626193061	 0.0076663975	-0.233249
O	 0.0342757742	-0.0632950319	-0.0402910839	-0.273231
C	 0.6466848662	-0.5728360637	-1.117857161	 0.481237
N	 1.2040987572	 0.077539956	-2.1075643427	-0.41709
C	 1.6910590999	-0.915334484	-2.9444067881	 0.178038
N	 2.4052755222	-0.5710456644	-4.1059866721	-0.602386
C	 1.4273722338	-2.1638087316	-2.4494638734	 0.261467
C	 1.7566396449	-3.5306707061	-2.9359397421	-0.513524
N	 0.7267524633	-1.9161727776	-1.2561538554	-0.404023
H	 1.0115520718	 1.7762860564	 0.0150375109	 0.138639
H	-0.536959062	 1.7671759468	-0.8563657094	 0.136267
H	-0.5226977338	 1.6158895265	 0.9314632167	 0.12744
H	 2.3752643209	 0.4334024848	-4.2317051285	 0.24273
H	 2.0356503681	-1.0135000493	-4.9386274939	 0.237985
H	 2.2314406135	-4.14308723	-2.1581093297	 0.121465
H	 0.8817844125	-4.0887272644	-3.2983949458	 0.118882
H	 2.4666052662	-3.4565469905	-3.7643360969	 0.139434
H	 0.3652718584	-2.596043253	-0.6099903322	 0.259919
