18
gdb 30753	3.02732	1.25631	0.94604	2.635	76.34	-0.1794	0.0524	0.2318	1257.9294	0.146109	-439.103817	-439.093912	-439.092968	-439.138862	35.193	
C	 0.2765560019	 0.9400245025	-0.4551349434	-0.249598
O	-0.2707014773	 0.2554782361	 0.6769779262	-0.276891
C	-1.36270505	-0.5076157395	 0.4015958506	 0.221506
C	-1.4456289259	-1.8577084017	 0.1638359212	 0.157461
O	-0.4153094752	-2.755021087	 0.0981632766	-0.460953
C	-2.8193963607	-2.1942083363	-0.0217368135	 0.196415
C	-3.3607654275	-3.5585948328	-0.3147246038	-0.498188
C	-3.5260739806	-1.0191918387	 0.1155143982	-0.177058
N	-2.6437680696	 0.0082121724	 0.3553594208	-0.318512
H	 1.1626503527	 1.4722662522	-0.1020641758	 0.129601
H	 0.558117941	 0.2327579004	-1.2441379002	 0.125483
H	-0.4400095288	 1.6612468044	-0.866817687	 0.116979
H	 0.3745358496	-2.3127934083	 0.4289530176	 0.294171
H	-3.0663553487	-4.2817450516	 0.4544270898	 0.127652
H	-4.453624705	-3.5433711377	-0.3609467454	 0.11336
H	-2.9913878815	-3.948367269	-1.2706768529	 0.125668
H	-4.5876222871	-0.8392761477	 0.0589879747	 0.112926
H	-2.8878893673	 0.9391574424	 0.6430107664	 0.259979
