23
gdb 53534	3.29457	0.81967	0.7783	0.2251	94.43	-0.2409	0.0573	0.2982	1635.4198	0.20395	-351.132246	-351.121668	-351.120724	-351.169018	38.406	
C	 0.0684205673	 1.4855001442	-0.1934612268	-0.498041
C	 0.0271023387	 0.0379135698	-0.0376474992	 0.083032
C	 0.004563215	-1.1593267779	 0.0954290052	 0.054042
C	-0.0489492663	-2.6110332672	 0.240968349	-0.409207
C	-1.4665373043	-3.207676992	 0.0697865855	 0.358305
C	-2.4126876954	-2.6955978556	 1.148774847	-0.457869
C	-1.963263249	-3.1062506497	-1.4078831829	-0.247428
C	-1.5063475344	-4.570331311	-1.6481223786	-0.210447
C	-1.3919105926	-4.7580956818	-0.1110918918	-0.260261
H	 0.7928315731	 1.7847536716	-0.9592732712	 0.145284
H	-0.9084594904	 1.8824500675	-0.491560835	 0.145722
H	 0.3533140021	 1.9803725001	 0.7418114535	 0.145465
H	 0.6278576686	-3.0714023915	-0.4911647059	 0.118833
H	 0.3356665721	-2.9000842709	 1.2290830724	 0.118571
H	-2.494711563	-1.6043917692	 1.1149945201	 0.125916
H	-3.4147885627	-3.1180803579	 1.021558103	 0.104855
H	-2.0578955289	-2.9728134057	 2.1492170468	 0.107426
H	-3.0503300189	-2.9967661408	-1.46283858	 0.09312
H	-1.5082346411	-2.3239497724	-2.02053633	 0.102635
H	-2.203129144	-5.2266427928	-2.174191736	 0.095401
H	-0.5387501264	-4.6320923747	-2.1531663894	 0.101362
H	-0.4965772669	-5.2572789632	 0.2722650843	 0.090031
H	-2.2690675627	-5.2559011287	 0.3125189299	 0.093254
