18
gdb 83469	2.85744	1.37473	1.13275	3.5914	73.26	-0.2468	0.0188	0.2657	1113.6889	0.147991	-439.075608	-439.067147	-439.066202	-439.108944	31.883	
O	-0.2793865667	 1.4275398883	 0.0622323633	-0.427552
C	-0.249955317	 0.0370501569	 0.0128821036	 0.11996
C	-0.4212574233	-0.7907848595	 1.2434223528	-0.179185
C	-1.4308564839	-0.1306042578	 2.1897893391	-0.217343
C	-2.508593393	-0.1433385858	 1.0607534209	-0.275309
C	-1.4923327933	-0.7912695346	 0.1125777785	 0.327146
N	-1.8021492088	-1.7168298539	-0.9179191428	-0.392519
C	-1.8664099267	-1.3403315764	-2.2298730796	 0.133593
O	-1.593950099	-0.2375828309	-2.655744126	-0.322735
H	-0.6579471186	 1.7139211916	-0.7787447365	 0.29724
H	 0.4719730051	-0.3800919599	-0.6887307649	 0.095772
H	 0.3028442145	-1.5491369936	 1.519122739	 0.091199
H	-1.7016769353	-0.7654552444	 3.0353624289	 0.099981
H	-1.1384463232	 0.8549715198	 2.5563103283	 0.120988
H	-3.3413032108	-0.8119764483	 1.2934716922	 0.096172
H	-2.9057142403	 0.8238953221	 0.7413887099	 0.106941
H	-2.1493299189	-2.6339038775	-0.6776922031	 0.246099
H	-2.1881315408	-2.175826176	-2.8823139738	 0.079553
