21
gdb 110665	2.94896	1.38751	1.2765	1.5323	80.81	-0.2339	0.0853	0.3191	1116.598	0.184397	-387.06513	-387.05727	-387.056325	-387.097715	31.196	
C	 1.1127271403	 0.3136777974	 1.1444345784	-0.381274
C	 0.0788208885	 0.2582275264	 0.0141003647	-0.199268
C	 0.6040017161	-0.4539894324	-1.2286626396	 0.014265
C	 0.9632836027	-1.9495368596	-1.2333032228	-0.095992
C	-0.2568379847	-2.8291583265	-1.4729735048	-0.067141
C	-1.6500256197	-2.25906054	-1.2577017795	-0.10675
O	-1.6816120197	-1.0382458226	-2.0065070334	-0.261203
C	-0.3529225314	-0.7586706236	-2.4329819992	 0.052038
C	 0.3693797951	-2.1135361365	-2.628533695	-0.096403
H	 1.4034995157	-0.6926011959	 1.4658135019	 0.11536
H	 2.023569306	 0.8338434848	 0.8265179108	 0.110781
H	 0.7182098341	 0.8396864591	 2.0193240465	 0.111304
H	-0.8334880665	-0.2273089822	 0.3721723641	 0.103777
H	-0.2147402166	 1.2783612367	-0.2664114959	 0.09501
H	 1.4706762213	 0.0955612201	-1.6199220886	 0.067557
H	 1.879876923	-2.3842269894	-0.8502693932	 0.082012
H	-0.1060577307	-3.8973733219	-1.3670643248	 0.089933
H	-2.4205713122	-2.9353422641	-1.650787101	 0.101237
H	-1.8788384198	-2.0624267731	-0.202198748	 0.099005
H	-0.4007775433	-0.0329121968	-3.2440526298	 0.07705
H	 0.7639133616	-2.5569268497	-3.5320126608	 0.088702
