18
gdb 47069	3.12696	1.53157	1.07581	3.3304	81.06	-0.2415	-0.0286	0.2128	1103.8705	0.150914	-401.979687	-401.972481	-401.971537	-402.011367	28.453	
N	-0.1124141517	 1.2888784414	-0.0205313292	-0.548387
C	-0.0542549174	 0.0250865791	-0.0347402807	 0.320788
O	 1.1141056697	-0.7071549748	 0.01024801	-0.258345
C	 0.8338091358	-2.1249903761	 0.1365159116	-0.112306
C	-0.588036978	-2.2942113138	-0.4142043168	-0.079128
C	-1.6206179095	-3.2493511917	 0.2165039948	-0.247649
C	-2.9391613718	-2.4141345893	 0.2222214292	-0.248342
C	-2.4386775015	-0.9824746324	 0.2657827716	-0.220791
C	-1.1571231283	-0.9365731436	-0.0915002228	 0.290504
H	 0.8257511214	 1.6864199378	 0.0546783474	 0.222298
H	 1.6118270737	-2.6561819248	-0.4152584112	 0.118638
H	 0.8911916057	-2.4040342643	 1.1968320503	 0.10992
H	-0.5342762322	-2.4372466378	-1.5029622305	 0.092112
H	-1.7208887806	-4.1998549224	-0.3130772343	 0.103193
H	-1.3329578299	-3.4724924324	 1.2504595343	 0.107174
H	-3.5332492753	-2.5964068576	-0.6852578253	 0.116765
H	-3.5898194705	-2.6591122863	 1.0682839386	 0.112412
H	-3.0419561795	-0.1372597409	 0.573667523	 0.121143
