20
gdb 97361	3.95049	0.76041	0.74493	2.8393	80.59	-0.2548	-0.0374	0.2175	1620.8711	0.165557	-440.292855	-440.281793	-440.280849	-440.330482	38.158	
C	 0.0596209506	 1.412209473	-0.1169641167	-0.315451
N	 0.0693716404	-0.0346255954	-0.0732567484	-0.20711
C	-1.0428964954	-0.6177460892	-0.0071247418	 0.125782
O	-1.0988076212	-1.9655001421	 0.0333672273	-0.25425
C	-2.3815761575	-2.6140664574	 0.1226277846	 0.252748
C	-3.0916009406	-2.2890774639	 1.4457240683	-0.420405
C	-3.2627333646	-2.3321252721	-1.0998620189	-0.422844
C	-2.0086295411	-4.1033968738	 0.1393225864	 0.139874
O	-2.8231714304	-4.9858170568	 0.0950131299	-0.256937
H	 0.6362425089	 1.8094557384	 0.7261559765	 0.129323
H	 0.5570599235	 1.7559272587	-1.0310601368	 0.129531
H	-0.9491176941	 1.8568959656	-0.0851558876	 0.094042
H	-2.0131736203	-0.10367657	 0.0195054626	 0.079474
H	-3.4263833786	-1.248324985	 1.4702248225	 0.123301
H	-3.9649250044	-2.9370320354	 1.5535481466	 0.147607
H	-2.4218042476	-2.4584205772	 2.293548499	 0.137565
H	-2.693605692	-2.4764568015	-2.0222965249	 0.137585
H	-4.1042007971	-3.0289253477	-1.0965744574	 0.149761
H	-3.6549273386	-1.3116510149	-1.0861809099	 0.120797
H	-0.9168517598	-4.2923008533	 0.208683289	 0.109606
