20
gdb 86447	1.98866	1.6619	0.95153	4.8694	78.23	-0.2399	0.0483	0.2882	1264.0892	0.17065	-440.318524	-440.309428	-440.308484	-440.352643	34.004	
C	 0.1013496067	 1.5349129071	 0.1662846496	-0.402605
C	 0.0265312256	 0.035558289	-0.0681590408	 0.128304
C	 0.8655413153	-0.4628300343	-1.2338368504	-0.225129
C	 0.8395678297	-1.9835202397	-1.2269940582	 0.130942
C	 1.7388540748	-2.6312050059	-2.2663365044	-0.403339
O	 1.2827573734	-2.4724409129	 0.0500851124	-0.251593
C	 0.8936140703	-1.8803815541	 1.1980541976	 0.459183
N	 1.0212974718	-2.5185035321	 2.28059191	-0.5447
O	 0.4598551153	-0.5905931058	 1.1564630743	-0.283386
H	 1.1369631224	 1.8461698091	 0.332055196	 0.130223
H	-0.2924280121	 2.0734124246	-0.7010450093	 0.120023
H	-0.48702303	 1.8128890464	 1.0444281788	 0.133771
H	-1.0215249753	-0.2569781028	-0.2334113436	 0.08704
H	 0.4610147804	-0.0812405975	-2.1768357466	 0.111048
H	 1.8982677251	-0.1072330983	-1.1359652725	 0.114225
H	-0.196491622	-2.3245843066	-1.3769383237	 0.086705
H	 2.7743181724	-2.3038035104	-2.1344485617	 0.13064
H	 1.7069518887	-3.7191905249	-2.1701519955	 0.138738
H	 1.4089654315	-2.3584977079	-3.2732022529	 0.117999
H	 0.7355752361	-1.9231995927	 3.0553671911	 0.22191
