18
gdb 72042	2.49171	1.9438	1.52503	2.1619	69.57	-0.2268	0.0666	0.2934	925.7866	0.149558	-439.05255	-439.045185	-439.04424	-439.083692	30.407	
O	-0.1324612143	 1.3567643367	-0.0473832761	-0.468642
C	 0.010641522	-0.0167785165	-0.0214418541	 0.352335
C	 1.1151969047	-0.775567379	-0.7663436708	-0.24532
N	 0.7096424128	-2.1767126803	-0.4561752115	-0.122271
C	 0.583121063	-2.1175015315	 1.0363213094	-0.1834
C	-0.3332698461	-0.9041820871	 1.1750819388	-0.24561
C	-1.1949337899	-0.9198239261	-0.0877039883	 0.352286
O	-2.4689521576	-0.3935930804	-0.1758166831	-0.468643
C	-0.7235718654	-2.1528709313	-0.8675342374	-0.245238
H	 0.5274165717	 1.7413955234	 0.5395450874	 0.284857
H	 1.103663801	-0.601355277	-1.8459044204	 0.11097
H	 2.1221334765	-0.575780883	-0.3850495086	 0.094271
H	 0.1500855214	-3.049903788	 1.4112371522	 0.102506
H	 1.5704590651	-1.9860054668	 1.4894517206	 0.102499
H	-0.6999332474	-0.4825507149	 2.1016656543	 0.089272
H	-3.0617234149	-0.9457162354	 0.3453587722	 0.284876
H	-0.8112599993	-2.0356399084	-1.9512784746	 0.110964
H	-1.2223994332	-3.0809508944	-0.5691406901	 0.094287
