21
gdb 106072	2.5876	1.57476	1.35127	0.8189	89.28	-0.2055	-0.0283	0.1772	1086.4837	0.182835	-349.861842	-349.853738	-349.852794	-349.894374	32.317	
C	 0.0829010123	 1.4793251569	 0.4717064319	-0.37429
C	-0.0023061759	-0.011683663	 0.1175521224	-0.314878
C	 0.6814329391	-0.345396184	-1.1765782845	 0.342127
C	 1.0398610176	-1.6601385704	-1.8117217724	-0.140913
C	 0.0035062434	-1.4489981171	-2.9771780679	-0.264474
C	 0.2337076604	 0.0246787498	-2.6122961789	 0.003803
C	 1.2093676262	 0.6641680815	-3.2883872204	-0.102746
C	 2.5169942323	 0.5675316296	-2.5069701098	-0.264312
C	 2.118378382	-0.5345119946	-1.5076332545	-0.093976
H	 1.1237941191	 1.7947763475	 0.59817541	 0.115355
H	-0.3564140158	 2.0926060254	-0.3215107177	 0.12528
H	-0.4503636377	 1.6961463764	 1.4024810767	 0.108616
H	 0.4456932644	-0.6112303264	 0.9203730205	 0.095289
H	-1.0571315434	-0.3126166125	 0.0622451808	 0.098254
H	 1.1545657164	-2.6066851871	-1.2860826033	 0.085685
H	 0.258102421	-1.7491162806	-3.9978628136	 0.098089
H	-0.9546344856	-1.8931793396	-2.6825511354	 0.103131
H	 1.2323993534	 0.6938773309	-4.3749040572	 0.093016
H	 3.3121863426	 0.2836117052	-3.2077538552	 0.107455
H	 2.8700491942	 1.463006342	-1.9749080803	 0.10668
H	 2.8186304539	-0.83886097	-0.7297987314	 0.07281
