19
gdb 109727	2.51544	0.99954	0.90585	0.5663	82.27	-0.2248	0.0447	0.2696	1429.674	0.155756	-422.966812	-422.956188	-422.955244	-423.003553	36.619	
C	 0.3739855081	 1.1653008974	 0.2372873296	-0.238162
O	-0.3251270063	 0.1502711003	-0.4689827254	-0.234927
C	 0.4777159273	-0.5104749196	-1.3812249649	 0.070746
C	 1.3976959393	-1.5959407612	-0.8798780485	 0.0833
O	 1.4705149468	-1.8659494	 0.4798761963	-0.421232
C	 0.1287395705	-1.9715360696	-1.6559004649	-0.333255
C	-0.9230371901	-2.6038992369	-0.9183013801	 0.073592
C	-1.7635695103	-3.1570922961	-0.2527292646	 0.090123
C	-2.8144212955	-3.8090386007	 0.5157180463	-0.500821
H	 1.2076838454	 0.7457938166	 0.8115850377	 0.133148
H	 0.7584653891	 1.9361728159	-0.4472561735	 0.103397
H	-0.3450903467	 1.6266137702	 0.9181077719	 0.125808
H	 0.7990263771	 0.0859315378	-2.2383662914	 0.084476
H	 2.3518486343	-1.748284758	-1.3760125121	 0.106115
H	 0.6137553978	-2.2226700261	 0.7535942919	 0.290427
H	 0.2619077829	-2.3089029801	-2.6794837066	 0.114756
H	-3.6598718482	-4.0779666927	-0.1271626541	 0.152342
H	-2.4560200017	-4.7277115154	 0.993263778	 0.147966
H	-3.1958643198	-3.1499748717	 1.3033432244	 0.1522
