22
gdb 102381	1.68823	1.52307	1.07152	4.5587	82.35	-0.2297	0.0331	0.2628	1284.8793	0.193475	-400.525344	-400.514247	-400.513303	-400.561268	39.978	
C	 0.1748043993	 1.4971892258	 0.0837775161	-0.409168
C	-0.0158380897	-0.0209654821	 0.0536242717	-0.202186
C	-1.4835447214	-0.5228246444	-0.0266072225	 0.099293
C	-2.2089875424	 0.0268992227	-1.2975009945	-0.189094
N	-1.5220172816	-0.4540082258	-2.4972570798	-0.522815
N	-1.4303397879	-1.9914932747	 0.0048913007	-0.302978
C	-2.6999035109	-2.6921618474	 0.1879852184	-0.338738
C	-2.2158435018	-0.0310199232	 1.1548965507	 0.30803
N	-2.7951304624	 0.3934707312	 2.0604583566	-0.359702
H	 1.2343473653	 1.7388206237	 0.2083653451	 0.122306
H	-0.1621682092	 1.9794954856	-0.8399520953	 0.110518
H	-0.3708265125	 1.9520952954	 0.9160746867	 0.144415
H	 0.5091197156	-0.4532931308	-0.8057101485	 0.105783
H	 0.424573186	-0.4771876096	 0.9441022825	 0.126789
H	-3.2301034017	-0.3632395728	-1.3027413023	 0.120984
H	-2.2910880101	 1.120294621	-1.2313877745	 0.107762
H	-2.1649923795	-0.4972977982	-3.2791054937	 0.239639
H	-0.778975026	 0.1806966696	-2.7687425957	 0.237793
H	-1.028485234	-2.260739609	-0.8896332582	 0.232638
H	-3.1168935313	-2.4528206199	 1.1702257081	 0.148151
H	-3.471674632	-2.47518046	-0.5691737416	 0.096728
H	-2.503752232	-3.7676648974	 0.1622869701	 0.123852
