16
gdb 33672	3.1269	1.47031	1.38119	3.775	73.6	-0.2533	0.0132	0.2664	977.3692	0.126831	-400.734189	-400.727412	-400.726468	-400.765394	26.774	
N	-0.0675196437	-1.1482683361	 0.0320838279	-0.358097
C	-0.0404304822	 0.0096355058	 0.0087708095	 0.142401
C	 0.0028200571	 1.4260311348	-0.0098753451	 0.210837
C	-0.737788314	 2.5017107311	 0.8241910603	-0.153095
C	 0.5766752966	 3.2404488615	 1.0707148636	-0.233415
C	 1.2436854609	 2.3762287675	-0.0478198031	-0.139775
C	 1.087731562	 3.0612873063	-1.4016238186	-0.083542
O	-0.3297724298	 3.2660330272	-1.5366533946	-0.265325
C	-0.9659405112	 2.3744781897	-0.6620813192	 0.068189
H	-1.5350281113	 2.3348605748	 1.5390379899	 0.112411
H	 0.5737574199	 4.3236863673	 0.9157681212	 0.112931
H	 0.9867200985	 3.0111898073	 2.0560126295	 0.120576
H	 2.2253916977	 1.9538818996	 0.1551971097	 0.10298
H	 1.5794573435	 4.0375672779	-1.4484051455	 0.119909
H	 1.4562057744	 2.4321550657	-2.2242814226	 0.112158
H	-1.9265577583	 2.0195400095	-1.0146031329	 0.130858
