18
gdb 38776	2.95572	2.00483	1.6856	1.7652	73.37	-0.2195	0.0779	0.2974	866.3466	0.150948	-401.878812	-401.872582	-401.871638	-401.908995	26.714	
C	-0.0289973256	 1.4209545288	-0.2889757214	-0.258735
C	 1.2583440781	 0.725037881	 0.0066010656	-0.023295
C	 2.0159040379	 0.8893349765	 1.2957071959	-0.05791
C	 1.4903655338	 1.5004758207	 2.571570611	 0.06852
O	 0.0680644443	 1.426999255	 2.6575035982	-0.300178
C	 0.1349991324	-0.0300857612	 2.5134274722	 0.092438
C	-0.5532136664	-0.5167156123	 1.2411932543	-0.170651
N	-0.0104238546	-0.0201873697	-0.0241849327	-0.109333
C	 1.6688035303	 0.0119626351	 2.4873037723	-0.175659
H	-0.4250566067	 2.0807734646	 0.4747574656	 0.136382
H	-0.2693176942	 1.6898247288	-1.3152740325	 0.103802
H	 1.9080228132	 0.4831225597	-0.8329791297	 0.086562
H	 3.0845011932	 1.0408222205	 1.1696465133	 0.091031
H	 1.9928348797	 2.2743815734	 3.1396056805	 0.107533
H	-0.2881288893	-0.5133907463	 3.399604327	 0.086951
H	-0.4828892229	-1.6132673392	 1.2297182172	 0.107069
H	-1.6185319093	-0.2639218414	 1.2854722087	 0.115505
H	 2.3440441859	-0.673023584	 2.9805941946	 0.099967
