17
gdb 70133	2.39972	1.99225	1.24814	2.8376	74.66	-0.2153	-0.008	0.2072	1001.1748	0.138004	-418.035521	-418.027823	-418.026879	-418.067383	30.302	
C	-0.0382963049	 1.501662272	 0.004124111	-0.469278
C	 0.0544831716	-0.0054133496	 0.0062017758	 0.15795
N	-0.7803109294	-0.7850947867	 0.9478737937	-0.356176
C	 0.6893632048	-0.7523734541	 1.1496131083	-0.143618
C	 1.4109054237	-2.006692405	 0.8590001865	-0.094228
C	 1.3474715934	-2.5278175399	-0.3698538292	 0.009042
N	 0.6912996229	-1.8873948081	-1.4190415098	-0.361703
C	 0.1454657106	-0.6203875476	-1.3680029675	 0.437653
O	-0.208164326	-0.040160286	-2.3764960337	-0.369653
H	 0.8275524354	 1.9517880538	-0.4904621363	 0.134765
H	-0.9299670088	 1.8258990878	-0.5391727513	 0.146542
H	-0.0860280328	 1.8829673903	 1.029134267	 0.106201
H	-1.222925237	-0.1298280611	 1.5894528383	 0.233357
H	 1.0594296865	-0.1465920149	 1.9732113216	 0.089491
H	 1.9576697047	-2.5152382319	 1.642086565	 0.101532
H	 1.8126415705	-3.4684995942	-0.6383077065	 0.122663
H	 0.7454227647	-2.2768494548	-2.3483040332	 0.255463
