20
gdb 85672	2.48646	1.24855	1.0819	3.2509	79.78	-0.2717	0.0284	0.3002	1218.5972	0.169294	-403.166825	-403.157157	-403.156213	-403.200795	36.494	
C	-1.1074326732	 0.9952533266	-0.0492179625	-0.427535
C	-0.0216675494	-0.0674409378	-0.0804450733	 0.015345
C	 1.3116483615	 0.2111970649	-0.8235798	-0.264697
C	 2.0492964513	-0.621949417	 0.2657517075	-0.193813
C	 3.3551447975	-0.1922420334	 0.7256079046	 0.261402
N	 4.3800043253	 0.1709670182	 1.1218150242	-0.33928
C	 0.7883511737	-0.4126290654	 1.2042651357	 0.371015
C	 0.955747363	 0.7228262894	 2.2050524689	-0.45963
O	 0.2991210113	-1.5785656939	 1.8205927917	-0.467439
H	-0.7232109814	 1.9610270244	 0.2942588227	 0.117274
H	-1.5283768529	 1.1444819872	-1.0491975662	 0.12174
H	-1.927994055	 0.7014408765	 0.613723216	 0.127994
H	-0.4388994788	-1.0143956631	-0.4397050357	 0.093872
H	 1.4074512536	-0.1397339421	-1.8517236682	 0.117596
H	 1.5967187532	 1.2655173892	-0.7810138661	 0.120286
H	 2.0859562997	-1.6779927507	-0.013461866	 0.128234
H	 1.3097306997	 1.6417872714	 1.7303579828	 0.134635
H	 0.001986936	 0.9310447007	 2.6978783832	 0.129678
H	 1.6948440817	 0.4525190766	 2.9681529044	 0.130089
H	 0.7251442432	-1.6794275018	 2.6791848263	 0.283234
