11
gdb 25146	3.76508	1.30165	0.96725	6.4671	65.98	-0.2955	-0.111	0.1844	1078.9762	0.068357	-447.793497	-447.786705	-447.785761	-447.825226	24.337	
O	-0.0465266097	-0.0589654424	 0.0036841973	-0.341975
C	 0.017148418	 1.1413279037	 0.0091066801	 0.449281
N	-1.1773707466	 1.9224631091	 0.0298101219	-0.316043
C	-1.1629242633	 3.2648336291	 0.0362966059	 0.123095
N	-0.065401693	 3.9639625648	 0.0241996569	-0.29687
C	 1.0704513964	 3.1939454008	 0.004064396	 0.242191
N	 1.1821864128	 1.8976321605	-0.003871383	-0.322927
C	 2.3057435503	 3.953588016	-0.0093785061	 0.310662
N	 3.2861017793	 4.5645243707	-0.020014542	-0.305073
H	-2.046198386	 1.4032797973	 0.0394969513	 0.289708
H	-2.1252061681	 3.7710709303	 0.0524686916	 0.167949
