17
gdb 69916	2.7408	1.78472	1.43045	3.6449	71.52	-0.2331	0.0024	0.2355	941.0362	0.136808	-421.795166	-421.788026	-421.787082	-421.826378	29.285	
O	-0.0909023819	 1.319011717	 0.1414261293	-0.463852
C	 0.0439313608	-0.0599999566	 0.0199886008	 0.406798
C	-0.3794174709	-0.7621054916	-1.2445501172	-0.380107
C	-1.19659488	-0.9490726735	 0.0204837846	-0.086157
C	-0.8028922178	-1.9993412972	 1.0696929071	-0.154697
C	 0.6988024821	-2.2939739841	 0.76703311	-0.265297
C	 0.9198251761	-0.779318934	 1.0604799653	-0.216226
C	-0.1926609316	-1.0275733619	 2.1368806031	 0.436427
O	-0.4017646849	-0.7256517202	 3.2674143617	-0.311247
H	 0.6690565567	 1.7340839571	-0.2810525783	 0.286459
H	-0.8498646032	-0.0950607247	-1.9594012514	 0.123229
H	 0.1874044813	-1.5640502487	-1.7024860352	 0.114055
H	-2.1836132677	-0.5067247228	 0.0726283818	 0.112122
H	-1.5115226592	-2.7838641421	 1.3246335084	 0.085018
H	 1.1561046555	-2.930348415	 1.5270912198	 0.120841
H	 0.9554483021	-2.6627008195	-0.2246041969	 0.112768
H	 1.8950557425	-0.3585171522	 1.296973517	 0.079869
