18
gdb 8038	3.40336	2.03175	1.57971	1.3422	67.59	-0.2414	0.0627	0.3042	876.5899	0.152706	-384.909667	-384.901893	-384.900949	-384.941409	29.449	
C	 0.3221253886	 1.5500274198	-0.0331115956	-0.41009
C	 0.0380230418	 0.0705059441	 0.0926676632	 0.132258
O	 0.7991500039	-0.752493812	-0.8439592981	-0.355154
C	 1.2813587678	-1.615357099	 0.2127695845	 0.40809
C	 1.0651576637	-3.0772367472	-0.0643614037	-0.485351
C	 2.6123437869	-1.0985455373	 0.793357715	-0.118081
O	 1.9087270229	-0.2284759974	 1.7187326822	-0.291607
C	 0.6263296817	-0.7115019421	 1.2835666527	-0.00787
H	 1.3612804568	 1.7635726686	 0.2261655267	 0.135665
H	 0.1325823972	 1.8826515983	-1.0580743813	 0.125541
H	-0.3295625077	 2.120421285	 0.6375934832	 0.116703
H	-1.0349081893	-0.136661996	-0.0332388704	 0.074045
H	 1.6440925883	-3.3808883142	-0.9439236367	 0.133831
H	 1.3844407874	-3.6904287172	 0.7838080466	 0.122645
H	 0.0107745249	-3.2816185675	-0.2705069735	 0.128587
H	 3.2118619649	-1.8430168176	 1.3331236919	 0.09891
H	 3.2406549119	-0.5477370095	 0.0858651902	 0.110997
H	-0.0209913118	-1.0100190288	 2.1107657128	 0.080881
