17
gdb 72998	2.48584	1.61914	1.25541	2.0385	69.91	-0.2502	-0.0317	0.2184	1033.6212	0.133406	-458.925277	-458.916673	-458.915729	-458.95805	32.389	
C	 0.1006936816	 1.5748152837	 0.202391757	-0.516924
C	 0.0991887027	 0.0790243835	 0.0974996877	 0.198387
C	-1.1477986302	-0.8008146049	 0.0002150757	-0.146426
O	-0.5073091475	-1.8655876065	 0.7755318201	-0.306377
C	 0.6327991083	-1.0357857501	 0.9588916582	-0.001809
C	 1.2621215877	-0.801336964	-0.4128966123	 0.243195
O	 1.077679535	-1.7373348235	-1.4264147369	-0.480063
C	 2.6337446982	-0.2391175185	-0.3853866879	 0.100449
O	 3.0278791274	 0.5963322181	 0.3974716022	-0.281828
H	 1.0911819443	 1.9432731905	 0.4724808299	 0.168158
H	-0.1888035581	 2.0306523438	-0.7511873398	 0.126502
H	-0.6119238753	 1.9081952533	 0.9648879161	 0.121565
H	-1.999263357	-0.3975770151	 0.5561477528	 0.125701
H	-1.4581053781	-1.1403320363	-0.9921738354	 0.123792
H	 1.186993767	-1.0851928553	 1.8892098256	 0.129147
H	 0.605815633	-2.4828749157	-1.0291547929	 0.298648
H	 3.296182931	-0.6895247629	-1.1542425899	 0.097884
