15
gdb 51389	4.09168	0.91719	0.87896	3.445	66.24	-0.2615	-0.0405	0.2209	1295.86	0.110912	-457.760601	-457.752568	-457.751624	-457.794852	28.475	
O	-0.3451017926	 0.2309949904	 0.0209764864	-0.229773
C	 0.0742654172	 1.3539714174	 0.1170263721	 0.161924
C	 1.4798303832	 1.7843067762	-0.260953082	-0.313408
C	 1.452504514	 2.910769677	-1.2785662994	-0.057343
C	 1.3066316842	 4.3516524668	-0.9405453927	 0.08074
O	 1.9397025068	 4.6326538668	 0.3366137308	-0.262379
C	 3.186623533	 4.3167706911	-0.2075716077	 0.466688
O	 4.2464792099	 4.4381344073	 0.308763856	-0.312728
C	 2.6164183509	 3.8915000428	-1.5352715631	-0.302278
H	-0.5664954411	 2.1793742772	 0.5034979785	 0.085012
H	 1.9743377726	 2.128612636	 0.6552301719	 0.150174
H	 2.0224841887	 0.9178316008	-0.6473319073	 0.133848
H	 0.9703063978	 2.6502636773	-2.2199164613	 0.124715
H	 0.571222762	 5.0614851866	-1.291484537	 0.137692
H	 3.0650873132	 4.0311766962	-2.5075425051	 0.137116
