23
gdb 59942	2.49884	1.00388	0.97006	1.4267	88.62	-0.2456	0.0472	0.2928	1432.37	0.200133	-388.258666	-388.247144	-388.2462	-388.295241	42.665	
C	 1.0465542278	 1.1135922359	-0.4273377697	-0.381016
C	 0.1773505957	-0.1094534942	-0.1330756758	 0.148484
C	 0.1961694609	-1.1197259545	-1.2806161814	-0.381036
O	 0.684895718	-0.7523921902	 1.0424777822	-0.307837
C	-0.1616349492	-0.8657944092	 2.1927221037	 0.166605
C	-0.5568854019	 0.5185202002	 2.7502279689	-0.410661
C	-1.4131421312	-1.7205582691	 1.8986481084	-0.410591
C	 0.6609721604	-1.561317137	 3.194393827	 0.347028
C	 1.2994424848	-2.1268885666	 4.0399980853	-0.478902
H	 2.0901888782	 0.8088703125	-0.5534364201	 0.12556
H	 0.7191334818	 1.6146426209	-1.3443256441	 0.108025
H	 1.0003897295	 1.8327116457	 0.3948471441	 0.115128
H	-0.8557600848	 0.2221113409	 0.0285267548	 0.071878
H	 1.2135411341	-1.4934496191	-1.4329979658	 0.125572
H	-0.449195217	-1.9740528803	-1.0594905287	 0.115148
H	-0.1465349684	-0.6590076475	-2.2130331015	 0.108023
H	-1.1880382779	 1.0610968206	 2.0403421264	 0.114047
H	-1.1167054081	 0.4042934089	 3.6822113657	 0.125031
H	 0.3395978966	 1.1086392036	 2.9526380339	 0.133103
H	-1.1149197427	-2.6950663496	 1.5058622836	 0.133088
H	-1.9885336489	-1.8754029284	 2.8151592792	 0.12502
H	-2.0627401117	-1.2263302886	 1.1703339197	 0.11403
H	 1.8758682839	-2.6274148448	 4.7781784839	 0.194276
