21
gdb 79447	3.15675	1.50716	1.27857	1.3105	81.72	-0.2541	0.0784	0.3325	1071.0207	0.184615	-387.056177	-387.048568	-387.047624	-387.087638	31.652	
C	-0.1297630895	 1.5221034137	 0.0627416227	-0.420428
C	-0.0120918019	 0.0018965273	 0.0401624738	 0.014207
C	 0.7800652579	-0.5592690507	-1.1573979313	-0.022954
C	 2.1251341491	-0.3483039623	-0.3867777926	-0.029689
C	 2.6469739954	-1.6836951562	-0.9354267431	-0.235111
C	 1.1504231228	-2.0843831037	-0.8857769418	-0.117547
C	 0.8930951714	-2.1145356985	 0.6437945854	 0.155802
O	 1.7815787385	-2.9156284875	 1.4026681977	-0.451515
C	 1.1647634756	-0.6154611152	 0.8554832668	-0.062163
H	 0.828240209	 2.0131419591	-0.1341931182	 0.116583
H	-0.8406641416	 1.868147082	-0.6959919039	 0.112023
H	-0.4887436265	 1.8714338502	 1.0369192447	 0.113464
H	-0.9963067073	-0.4408589545	 0.239036903	 0.056228
H	 0.6228850197	-0.2515789331	-2.1922213727	 0.060413
H	 2.7002432867	 0.5752334091	-0.4012539448	 0.065859
H	 3.0039901553	-1.5644338523	-1.9628003899	 0.088775
H	 3.3538222753	-2.2739556647	-0.3500825416	 0.102139
H	 0.7447911578	-2.8979243653	-1.4894662117	 0.052427
H	-0.1462369807	-2.374422884	 0.8876344528	 0.058727
H	 1.6624489242	-3.8320207528	 1.1318894547	 0.278281
H	 1.405855859	-0.2933473304	 1.8683112901	 0.064479
