18
gdb 17631	3.74138	1.37728	1.13328	1.7266	63.94	-0.2516	0.0689	0.3205	1077.0398	0.151808	-422.049648	-422.040825	-422.039881	-422.082943	32.496	
C	 0.0511831891	 1.5120380773	-0.0667671283	-0.412744
C	-0.0193919725	-0.0071724125	 0.0280242491	 0.1125
O	 0.697430633	-0.5085469629	 1.155466175	-0.43128
C	-1.4771918601	-0.5213653105	 0.0608915268	 0.072793
O	-2.2282531151	-0.036591711	-1.0348584257	-0.437374
C	-1.5095908217	-2.042552771	 0.0913594273	 0.059616
C	-2.7071852728	-2.7859758656	-0.3052466432	-0.189726
O	-1.600707536	-2.64350641	-1.2128123708	-0.254127
H	 1.0912691345	 1.843923388	-0.1238974707	 0.121362
H	-0.4914654289	 1.8657097157	-0.9458029441	 0.140369
H	-0.4102755091	 1.9743910379	 0.8163656705	 0.102697
H	 0.4764573827	-0.4536526779	-0.8434412035	 0.096249
H	 0.4331170495	 0.0106832614	 1.9232197042	 0.279494
H	-1.9521197279	-0.1348160977	 0.9754003325	 0.079116
H	-2.0770061466	-0.6753481621	-1.7479352134	 0.293019
H	-0.7850353215	-2.5076378629	 0.7549270697	 0.11808
H	-2.8654405736	-3.7953065937	 0.0690664322	 0.122024
H	-3.6022055732	-2.2364697123	-0.5875872576	 0.127933
