12
gdb 9461	3.00848	1.80862	1.66751	3.286	56.47	-0.2664	-0.0212	0.2452	820.5781	0.081555	-418.450148	-418.442539	-418.441595	-418.482133	27.099	
O	 0.0323985808	 1.4373367062	 0.0933262765	-0.441257
C	 0.0267795226	 0.0301177436	 0.064703775	 0.054266
C	-1.4029151053	-0.5223276462	-0.1360839494	-0.096374
O	-1.0340672965	-1.0599068959	-1.445766107	-0.234511
C	 0.2423910564	-0.5795981558	-1.3622150357	 0.411435
O	 1.111019013	-0.6306376753	-2.1670034774	-0.316971
C	 0.831125595	-0.5783600106	 1.1110012218	 0.283839
C	 1.5270020017	-1.0687291233	 1.9591368029	-0.46374
H	 0.9513283911	 1.7304243637	 0.0919660188	 0.301834
H	-1.7152295833	-1.3167790791	 0.5408921145	 0.141353
H	-2.1568031534	 0.2601145408	-0.229184628	 0.144803
H	 2.138756998	-1.5052754581	 2.7105659879	 0.215325
