20
gdb 18479	2.94515	1.90951	1.46304	1.0611	74.94	-0.2371	0.0802	0.3173	957.7116	0.17681	-348.963836	-348.95556	-348.954616	-348.996261	31.212	
C	 0.1703431548	 1.1029942319	-0.2328230935	-0.237207
O	-0.4415034841	 0.0249905316	 0.4454766107	-0.240712
C	 0.4282573883	-0.6233188808	 1.323051564	 0.148124
C	 0.0946289113	-1.9627026497	 1.8634339006	-0.122677
C	-0.5682265752	-2.8364912055	 0.7902635341	-0.250339
C	 0.7195900306	-2.7202267278	-0.0918738079	 0.045755
C	 0.6000569655	-2.2945128512	-1.5511474977	-0.412395
C	 1.3356199382	-1.7627358542	 0.9441115773	-0.136202
H	 1.0103399428	 0.7686355816	-0.8582357453	 0.110726
H	-0.5913447861	 1.5586461669	-0.870064401	 0.124995
H	 0.543486269	 1.86175656	 0.472143611	 0.105301
H	 0.8789560425	 0.0526909292	 2.0544017767	 0.07971
H	 0.0538682798	-2.1521002981	 2.92987563	 0.084575
H	-0.7667403138	-3.8572146021	 1.1224398109	 0.096684
H	-1.4809407731	-2.4175625446	 0.3587745776	 0.10914
H	 1.2606018889	-3.6709829456	-0.040261378	 0.072682
H	-0.0165141493	-1.3988764285	-1.6526781801	 0.132527
H	 1.5858727226	-2.0852945366	-1.9825487329	 0.105537
H	 0.141267126	-3.0895206599	-2.1503245025	 0.107611
H	 2.3871685014	-1.7485392766	 1.212506966	 0.076164
