17
gdb 38895	3.65177	1.47539	1.16772	1.8766	73.26	-0.2434	-0.0064	0.2369	1030.6309	0.137686	-421.783857	-421.777008	-421.776064	-421.815083	27.363	
C	-0.0334954222	 1.4760512852	 0.0363161169	-0.168264
O	 1.4196036262	 1.476871434	 0.1110097071	-0.30529
C	 1.4821779163	 0.0830012666	-0.3114170639	 0.076855
C	 2.237328847	-0.9090434198	 0.5717156826	-0.269642
C	 1.5759024589	-2.2848644241	 0.4014236492	 0.030075
O	 0.7138012574	-2.7310307631	 1.4519626384	-0.250406
C	 0.1163828006	-2.3863703795	 0.1847406299	 0.018644
C	-0.6794238773	-1.1235418191	 0.1657575829	-0.260697
C	-0.0057462845	-0.0219074139	-0.1269125473	 0.274549
H	-0.502264038	 1.8700338622	 0.9453695474	 0.12546
H	-0.3936439054	 2.0457802183	-0.8317007031	 0.112603
H	 1.824665654	 0.0240368362	-1.3549775392	 0.085995
H	 3.3022442029	-0.9579261395	 0.3269058627	 0.104393
H	 2.1387196138	-0.5984083035	 1.6152419944	 0.130525
H	 2.2060044151	-3.0729818219	-0.0095544546	 0.094694
H	-0.2780293604	-3.2463203751	-0.3561290673	 0.096539
H	-1.7230365244	-1.1387679529	 0.4650932538	 0.103966
