21
gdb 120075	5.51419	0.85147	0.84321	0.9404	84.38	-0.2497	0.0888	0.3385	1469.0635	0.182648	-386.99827	-386.989975	-386.989031	-387.031775	31.575	
C	 0.0576447074	 1.4001322425	-0.1068285237	-0.222213
O	 0.1574330799	-0.001810342	-0.0832007906	-0.233279
C	 0.5113576247	-0.5078894407	 1.1889664716	-0.089981
C	 0.5667656278	-2.0183888543	 1.1023112656	-0.019051
C	 1.7702364996	-2.6941259959	 0.4103003424	-0.030733
C	 2.7066188739	-2.5234633248	 1.6613790616	-0.043647
C	 3.0892089115	-4.0161528942	 1.670087868	-0.267284
C	 1.604867116	-4.0012817914	 1.260630629	-0.042724
C	 1.2687531521	-2.8118461683	 2.2264934723	-0.060473
H	 1.0132221804	 1.8848662249	 0.1517479974	 0.100392
H	-0.2220163437	 1.6935811276	-1.121887447	 0.124478
H	-0.7097591878	 1.7688745872	 0.5932415131	 0.1005
H	 1.4844646691	-0.0959998243	 1.5069720378	 0.080594
H	-0.2317790172	-0.1944865253	 1.9441449332	 0.079486
H	-0.4110517304	-2.4122403889	 0.7995630572	 0.067513
H	 2.0778098842	-2.6420981544	-0.6348667075	 0.072517
H	 3.3327724081	-1.6605648355	 1.8909155031	 0.070033
H	 3.8068598798	-4.3455487647	 0.9114085962	 0.090922
H	 3.3296284659	-4.4582326605	 2.6427652712	 0.089391
H	 0.9406928432	-4.8346135649	 1.0247922931	 0.068076
H	 0.9986649157	-2.9001953422	 3.281003276	 0.065484
