17
gdb 28794	3.12199	1.64314	1.10177	2.3993	75.39	-0.1713	0.0569	0.2282	1062.1356	0.138957	-418.028173	-418.020358	-418.019414	-418.06068	29.418	
N	 0.2586427245	 1.3999019767	 0.3201495669	-0.611289
C	 0.0574696727	 0.0119687198	 0.1426710785	 0.182762
C	-1.0411242386	-0.8169061769	 0.2136321698	-0.181497
C	-0.6226857206	-2.1791926026	 0.0122215255	-0.335261
C	 0.7290789553	-2.106621983	-0.1803507429	 0.41307
O	 1.7533001389	-2.9493131781	-0.4924772119	-0.283553
C	 2.9613799501	-2.1850679871	-0.3015182183	-0.102068
C	 2.5516288004	-0.6911766002	-0.4081379201	-0.198963
N	 1.1491875679	-0.814399364	-0.0800195717	-0.042278
H	-0.3420846441	 1.7638398137	 1.0505564398	 0.2432
H	 0.060201939	 1.9299728914	-0.5237337397	 0.239302
H	-2.0513366997	-0.4902442477	 0.4130198004	 0.081763
H	-1.2373527862	-3.0635628416	 0.013150462	 0.097006
H	 3.3649738867	-2.4029690541	 0.6948547349	 0.119737
H	 3.6834893839	-2.493383819	-1.0590837777	 0.124852
H	 3.0919635848	-0.0586846866	 0.2998177819	 0.134815
H	 2.6991032151	-0.2895373907	-1.4189487974	 0.118403
