23
gdb 96557	2.20389	1.56121	1.08973	1.5558	82.51	-0.2411	0.0811	0.3222	1221.8836	0.206303	-425.429117	-425.419912	-425.418968	-425.46261	35.911	
C	-0.1239416177	 1.5187463463	-0.04743657	-0.415466
C	 0.0453412216	 0.001201943	-0.0173515894	 0.096191
O	 0.6584812575	-0.395267984	-1.2369940831	-0.25393
C	 0.1714852469	-1.6190159656	-1.7605452141	-0.076377
C	 0.6149247433	-2.8551360913	-0.9765829917	-0.1952
C	 0.3276225199	-2.7812583945	 0.5277816285	-0.080164
O	 1.1886799236	-1.8666957084	 1.1766180466	-0.270002
C	 0.8415236831	-0.485020526	 1.218041576	 0.153031
C	 2.1668009278	 0.2442740379	 1.420160371	-0.39659
H	 0.832005955	 2.0100135034	-0.2446243452	 0.133411
H	-0.8182591566	 1.797934481	-0.8441080858	 0.119254
H	-0.5190531532	 1.8920702932	 0.9026921359	 0.114063
H	-0.9593162366	-0.4459869095	 0.0336313063	 0.065543
H	-0.930602917	-1.5866820661	-1.8085735878	 0.084247
H	 0.541646998	-1.6730459377	-2.7895077724	 0.105152
H	 0.1145409466	-3.7349940278	-1.4033260198	 0.089217
H	 1.6942806906	-3.0001264433	-1.0963583763	 0.113508
H	-0.7333011414	-2.5620330468	 0.7245120305	 0.086857
H	 0.5386519415	-3.7548918427	 0.9836978677	 0.104038
H	 0.1882055837	-0.3072438801	 2.0911276782	 0.060234
H	 2.7582859242	 0.2055760331	 0.5012225324	 0.131067
H	 2.0154288905	 1.288654672	 1.7038036	 0.110124
H	 2.7295996284	-0.250617616	 2.2153254926	 0.121792
