20
gdb 103873	4.18209	0.76887	0.71153	2.0059	82.09	-0.2454	0.0549	0.3003	1609.8953	0.168101	-403.084759	-403.074308	-403.073364	-403.120783	37.847	
C	 0.0614846003	 1.6220940258	-0.1530627832	-0.462749
C	-0.1077282588	 0.1345661925	 0.0852456074	 0.304892
C	-1.370147412	-0.463265812	-0.5164869331	-0.14332
O	-1.3449124074	-0.5165950299	-1.9359717422	-0.414324
N	 1.1262168587	-0.6671286232	 0.0034323126	-0.354572
C	 0.435932539	-0.5525839816	 1.2930416006	-0.054406
C	 1.1785209564	 0.1528169347	 2.42071392	-0.365162
C	 1.9715533572	-0.7754586215	 3.2204621989	 0.299232
C	 2.6053900398	-1.5610426307	 3.8726555342	-0.442678
H	 1.0129964583	 1.9860042324	 0.2365545146	 0.134372
H	 0.0568584914	 1.8410385033	-1.2274869442	 0.111344
H	-0.750187592	 2.1926948616	 0.312552731	 0.115855
H	-1.4771029673	-1.5031887353	-0.1897537975	 0.10495
H	-2.2531229755	 0.0874683431	-0.1542031255	 0.091329
H	-1.383417364	 0.3835865957	-2.2730396199	 0.287514
H	 0.9444921151	-1.5641124857	-0.4404508704	 0.235393
H	-0.1276554805	-1.419161143	 1.6369684584	 0.089433
H	 1.8324338709	 0.9227227813	 2.0000039295	 0.139086
H	 0.4553965558	 0.6657798	 3.0690097793	 0.129072
H	 3.1772872247	-2.2454045477	 4.4485371395	 0.194738
