16
gdb 44815	2.84133	1.53128	1.1887	3.4392	68.66	-0.2485	-0.0087	0.2398	1039.2626	0.12482	-437.847617	-437.840045	-437.839101	-437.880313	28.425	
O	 0.1704216947	-0.0006812748	 0.3426757554	-0.339135
C	 0.157746956	 1.1870875138	 0.2756904855	 0.433489
O	-0.9399443504	 2.0291871321	 0.3591979591	-0.259814
C	-0.1031590167	 3.162202361	-0.0166723478	 0.042433
C	 0.8991068101	 3.3922525787	 1.0488167283	-0.343694
C	 1.1420278551	 2.2972247534	-0.0097715096	 0.131297
C	 2.3478520144	 2.2040410407	-0.8678103227	-0.117473
C	 3.178429855	 0.9696891679	-0.8450195223	-0.245035
N	 2.3793529772	 1.3077523438	-2.035048334	-0.324726
H	-0.5017968195	 3.8487481797	-0.7492725548	 0.141246
H	 1.5460946934	 4.2565500177	 0.9257767734	 0.137687
H	 0.6634947049	 3.1299113088	 2.0752587643	 0.1427
H	 2.844337278	 3.1568970684	-1.0404444773	 0.094365
H	 4.2542362665	 1.0428313852	-0.9753296647	 0.12175
H	 2.8388850703	 0.1531976695	-0.2148872178	 0.141783
H	 1.5437539809	 0.7267607041	-2.0537011551	 0.243129
