18
gdb 85502	2.60805	1.28338	0.97912	3.0182	72.85	-0.2474	-0.0343	0.2131	1209.4787	0.147295	-439.144667	-439.135786	-439.134842	-439.178987	32.306	
C	-0.0809189754	 1.5833342379	 0.0177993505	-0.409663
C	 0.100895532	 0.0668913241	 0.0186356425	 0.024662
N	 0.9241509735	-0.411018056	-1.0837106565	-0.305929
C	 1.6643312377	-1.5341833496	-0.8130542904	 0.407373
O	 2.2989750405	-2.18288876	-1.6121027732	-0.370624
C	 1.5151759832	-1.8003139827	 0.6898615608	-0.367909
C	 0.846191554	-0.53050126	 1.2577147455	-0.101253
C	 1.8990408532	 0.419965711	 1.7972447448	 0.164244
O	 1.829553664	 0.972373734	 2.8643515484	-0.252994
H	 0.8796847387	 2.1059776832	 0.0061498949	 0.134521
H	-0.6502974777	 1.9018223591	-0.8612318871	 0.120978
H	-0.6340198842	 1.8991242615	 0.9072188334	 0.140427
H	-0.8970966571	-0.3970722171	-0.0201064361	 0.092205
H	 0.7452684183	-0.1533152475	-2.042522776	 0.252198
H	 0.8783018903	-2.6810216377	 0.8213887011	 0.14117
H	 2.4857820339	-2.0356724012	 1.1336471992	 0.139771
H	 0.1426913544	-0.7271691422	 2.0686377741	 0.101039
H	 2.7777884408	 0.571041133	 1.1288731839	 0.089783
