20
gdb 92748	2.37991	1.51326	1.12839	1.346	76.47	-0.2426	0.0237	0.2663	1166.1273	0.170228	-440.314365	-440.304911	-440.303967	-440.348531	34.982	
C	 0.0700218242	 1.5334298111	-0.0826840718	-0.405978
C	 0.0236390882	 0.0219342204	 0.0431849323	 0.129748
O	 0.6347622484	-0.51905733	-1.1500917407	-0.278179
C	 1.0668431163	-1.8110919504	-1.1081949144	 0.373541
C	 1.5011651168	-2.2625042723	-2.4722376537	-0.450837
N	 1.1287409178	-2.5759124259	-0.0960799038	-0.311575
C	 0.7120784266	-2.0566018987	 1.2050956111	-0.194154
C	 0.7453743606	-0.5294893554	 1.2793044184	 0.086732
O	 2.0738240282	-0.0326267955	 1.3747847624	-0.4389
H	 1.1043006073	 1.8796577095	-0.0328417023	 0.139418
H	-0.3727926978	 1.8514839534	-1.0299511766	 0.123014
H	-0.4906131649	 1.9942154054	 0.736466643	 0.117398
H	-1.0191591605	-0.3254151066	 0.0663621383	 0.082556
H	 2.2646098338	-1.5870240667	-2.8710456667	 0.136869
H	 1.8954819633	-3.276033071	-2.4145944628	 0.144821
H	 0.6542691086	-2.234271934	-3.1654896704	 0.138614
H	-0.2955753908	-2.4284343572	 1.4338702599	 0.109883
H	 1.378295722	-2.4697903041	 1.9703014859	 0.115797
H	 0.2305511212	-0.1754387029	 2.1790359034	 0.089179
H	 2.6095451506	-0.4980623391	 0.7226546483	 0.292055
