15
gdb 2602	3.08328	2.76798	1.75275	2.1673	57.86	-0.2578	-0.0374	0.2204	748.6572	0.122833	-345.646761	-345.639221	-345.638277	-345.678533	26.553	
C	-0.4611410559	 1.4416273557	-0.0543816001	-0.387896
C	 0.1954258307	 0.0655110725	 0.1148747999	-0.266519
C	 0.8232086054	-0.4386768469	-1.1639736042	 0.313553
C	 0.6686122881	-1.8417289803	-1.6152446864	-0.222971
O	-0.0674167178	-0.8037583106	-2.2372698015	-0.261799
C	 2.0545438028	 0.2551181481	-1.6671768044	 0.127356
O	 2.7196183003	 1.019200351	-1.015752679	-0.255619
H	 0.279343843	 2.1975601808	-0.3285256523	 0.138821
H	-1.2285392277	 1.4095162681	-0.8334436822	 0.130585
H	-0.9361157319	 1.7576017409	 0.8785505134	 0.116819
H	 0.9801908542	 0.1155996568	 0.8773272177	 0.123325
H	-0.5458003125	-0.6654644566	 0.453811405	 0.104014
H	 1.4340063293	-2.3119447114	-2.2323962128	 0.123181
H	 0.0997922712	-2.5181853266	-0.9790115449	 0.129015
H	 2.3036933808	-0.0056010214	-2.7202404382	 0.088137
