15
gdb 42988	2.81832	1.73	1.28277	3.0865	65.	-0.2486	-0.0474	0.2012	960.5526	0.112264	-457.739806	-457.732636	-457.731691	-457.771677	27.325	
O	 0.0944188052	 0.0683827529	 0.2750521302	-0.313951
C	 0.0222321606	 1.2538608231	 0.0890218373	 0.358516
C	-1.2104575926	 2.06122259	-0.2249595122	-0.091669
O	-1.3118195789	 3.1862327811	 0.6746358091	-0.244131
C	-0.7688430669	 3.4145073077	-0.6219607344	 0.040067
C	 0.7475485122	 3.5177306031	-0.6098105534	-0.354218
C	 1.1932692115	 2.2328054202	 0.0825353796	 0.325355
C	 2.2431724189	 2.1227775153	 1.1098963138	-0.222335
O	 2.470455789	 1.6870564235	-0.2250452639	-0.257848
H	-2.1393010956	 1.5905168642	-0.5283049602	 0.12407
H	-1.3683910986	 4.0353214909	-1.2819121039	 0.114757
H	 1.1388267834	 3.5358461177	-1.6329879546	 0.133672
H	 1.0856727397	 4.4244357851	-0.1005600833	 0.127876
H	 2.7746481586	 3.0240530099	 1.4126064785	 0.122919
H	 2.1746780136	 1.3295320452	 1.8520570074	 0.136921
