15
gdb 99443	3.39068	0.72889	0.61621	3.7349	88.11	-0.2572	-0.0329	0.2243	1721.5052	0.111117	-379.615824	-379.606112	-379.605168	-379.651042	34.132	
N	-0.0382229034	 1.4859327022	 0.0206842547	-0.513904
C	 0.0223806965	 0.0324145384	-0.0142336669	-0.153999
C	-1.4235998338	-0.5495780786	-0.0059963618	-0.362064
C	-2.1515303761	-0.0919702173	-1.2021014022	 0.295295
N	-2.6893544913	 0.3009533988	-2.1459523735	-0.324869
C	-1.4268472744	-2.0054376511	 0.0915861875	 0.427586
C	-1.4016258626	-3.2089931749	 0.1999824239	-0.218764
C	-1.3736458941	-4.5644343563	 0.3156388065	 0.294293
C	-1.3485205404	-5.7665913215	 0.4203346128	-0.549193
H	 0.8783456773	 1.8691696176	 0.2233440188	 0.240209
H	-0.318192139	 1.8521803186	-0.884462466	 0.24896
H	 0.5590796683	-0.4005758885	-0.8717817424	 0.116737
H	 0.5129853903	-0.3247152764	 0.8954456071	 0.129611
H	-1.9326373524	-0.1167318262	 0.8655066326	 0.170605
H	-1.328844755	-6.8247602747	 0.5086151189	 0.199495
