17
gdb 126310	2.10732	1.64456	0.99017	4.9262	78.11	-0.2556	-0.0468	0.2087	1185.2817	0.136917	-418.049686	-418.041387	-418.040443	-418.082946	30.191	
C	-0.2627392562	 1.5115297215	-0.0709080425	-0.374833
C	 0.0931659074	 0.0157995082	 0.0250333884	-0.309715
C	 0.8120936335	-0.5161422874	-1.1783124597	 0.406578
C	 2.1454729705	-0.7685765901	-1.3602662364	-0.323408
C	 2.2649620881	-1.2188965515	-2.7037335035	 0.026125
N	 1.1067676105	-1.2521233519	-3.3263585342	-0.22935
N	 0.2077240415	-0.818888255	-2.3921509613	-0.095683
C	-1.1588485334	-0.7476212164	-2.6966601398	 0.18269
O	-1.6401430072	-1.0181548721	-3.7588512458	-0.258735
H	 0.6365376226	 2.1127252854	-0.2315803447	 0.133055
H	-0.9488714045	 1.7128801324	-0.8989591755	 0.127099
H	-0.741596679	 1.8492527963	 0.8527123981	 0.12508
H	 0.749656965	-0.1419959522	 0.8861702206	 0.125175
H	-0.8113086318	-0.5700086565	 0.2256409333	 0.122067
H	 2.9276893421	-0.6503047995	-0.6270680031	 0.115094
H	 3.1602066068	-1.5224332348	-3.228265215	 0.127538
H	-1.7422247458	-0.4084897861	-1.8242418687	 0.101223
