20
gdb 95697	3.24717	1.18849	0.92645	4.7171	75.89	-0.2466	0.0394	0.286	1277.3529	0.173065	-440.338621	-440.330015	-440.32907	-440.371922	32.789	
C	 0.1441817939	 1.6229764261	-0.0037023528	-0.403734
C	-0.0385585724	 0.101429743	-0.0483269848	 0.036948
C	 0.6277424738	-0.4975502379	-1.292471	-0.195342
C	 0.5180975458	-2.0144280744	-1.392271427	-0.088187
O	 1.3345195681	-2.7217784228	-0.4442177835	-0.234173
C	 0.8431204778	-2.989195395	 0.7975515337	 0.409263
O	 1.0091580431	-4.0660410767	 1.3121512666	-0.369787
N	 0.1618172513	-1.9521885491	 1.3997451077	-0.348183
C	 0.5036398757	-0.5364260194	 1.2375237975	-0.16399
H	 1.2037180694	 1.8912393009	 0.0825377085	 0.119903
H	-0.2410050956	 2.0916003819	-0.9145881171	 0.118377
H	-0.3822483979	 2.0650359891	 0.8486947367	 0.114894
H	-1.1129796343	-0.1245380215	-0.0911695634	 0.080857
H	 0.17311753	-0.0669660152	-2.1937355608	 0.100432
H	 1.6909410718	-0.2237063177	-1.314714431	 0.108486
H	-0.5241732043	-2.3396806695	-1.290040423	 0.115686
H	 0.8835745341	-2.3523695103	-2.3654820633	 0.121506
H	-0.1217331249	-2.2196854751	 2.3306084227	 0.252989
H	 1.5926488155	-0.3889052134	 1.2866353954	 0.115088
H	 0.074349039	-0.0175275829	 2.0994438979	 0.108968
