14
gdb 132292	1.96566	1.88509	0.96275	1.7778	71.03	-0.2002	-0.0135	0.1867	1114.5402	0.102789	-474.207133	-474.199646	-474.198702	-474.238964	29.21	
N	 0.0428706417	 1.3526285139	 0.148457991	-0.566278
C	-0.0329237532	-0.0123594394	 0.0576394006	 0.390607
C	-1.2076795748	-0.7115937521	 0.0350074252	-0.22526
C	-1.2190598867	-2.1481387504	-0.0009375053	 0.380234
N	-2.2767387474	-2.8711724674	-0.0198059635	-0.566184
N	 0.1046973867	-2.6857273586	-0.015867291	-0.433055
C	 1.1938215037	-1.8937790767	-0.0033281932	 0.410843
F	 2.3298098408	-2.5693023062	-0.0346991493	-0.058558
N	 1.2182271579	-0.6201175418	 0.0318106117	-0.41547
H	 0.927997382	 1.75443388	-0.1159800091	 0.263781
H	-0.7742746962	 1.8876869959	-0.0943393153	 0.260464
H	-2.167558558	-0.2137302071	 0.0516932265	 0.099943
H	-2.060447168	-3.8674900967	-0.0463787944	 0.19341
H	 0.2325942615	-3.6866637234	-0.0444131439	 0.265523
