20
gdb 53039	3.39965	0.9271	0.83125	0.9479	92.02	-0.2261	0.0397	0.2658	1498.237	0.169393	-365.944485	-365.934826	-365.933882	-365.980678	34.941	
C	 0.0176641253	 1.4651359343	 0.0668625993	-0.508909
C	 0.0015716203	 0.0114026639	 0.0085733705	 0.256129
C	-0.0192673935	-1.1933659307	-0.0267355432	-0.139119
C	-0.0091727789	-2.6179402545	-0.1118583616	 0.15025
C	 0.7060721443	-3.4283605923	-1.2236580723	-0.301637
C	-0.4531262798	-4.4687571788	-1.1953694755	-0.244569
C	-1.1367136404	-3.6520192675	-0.0849118316	-0.104577
N	-0.2968268148	-3.4262862469	 1.0636146414	-0.113945
C	 0.6318174061	-4.4165801898	 1.5856565625	-0.32184
H	 0.9142645038	 1.872310762	-0.4139908228	 0.146972
H	-0.8534713401	 1.8968761759	-0.4390401657	 0.146815
H	 0.0084515254	 1.8204364844	 1.1033612189	 0.150035
H	 0.7433592692	-2.8736358842	-2.1622648868	 0.115885
H	 1.7135432413	-3.7811164334	-0.9852135141	 0.100354
H	-1.0305702441	-4.4683755241	-2.1219482984	 0.109158
H	-0.1970312753	-5.5029542143	-0.9468960953	 0.102235
H	-2.2046490847	-3.4917281019	 0.022259799	 0.098231
H	 1.1547929967	-5.0191959725	 0.8302126863	 0.10544
H	 1.3840476933	-3.9023382973	 2.1912028592	 0.128768
H	 0.0788520157	-5.0982851221	 2.2395276002	 0.124321
