20
gdb 30360	2.91465	1.61224	1.09053	2.0915	86.26	-0.1917	0.0512	0.2429	1131.4149	0.174416	-366.068013	-366.060276	-366.059332	-366.100095	30.705	
C	-0.0961658451	 1.5729887334	-0.0373536286	-0.395024
C	 0.0346795314	 0.0490651709	 0.0229043706	-0.12222
C	 0.8318689048	-0.5616920861	-1.168801589	-0.216605
C	 1.5132835091	-1.8306747373	-0.606738781	-0.191418
N	 1.6277320545	-1.5033925945	 0.8043549578	 0.005782
C	 2.2904510939	-2.0249596588	 1.8825318841	-0.143987
C	 1.8938642658	-1.30022767	 2.9888802301	-0.139329
C	 0.9515254436	-0.3189705331	 2.5597625598	-0.33418
C	 0.8083379258	-0.4774772365	 1.1990625925	 0.367917
H	 0.8902785359	 2.0479189179	-0.0422748173	 0.119827
H	-0.6342818259	 1.8860438828	-0.9384573863	 0.110089
H	-0.6467828709	 1.9532406621	 0.8286631349	 0.121225
H	-0.9788917066	-0.3801733944	 0.0264375898	 0.08484
H	 0.2024821535	-0.7777790582	-2.0353829553	 0.103722
H	 1.600585272	 0.1519387197	-1.4842079946	 0.111928
H	 0.893117054	-2.7255746047	-0.7499369077	 0.114207
H	 2.4925335166	-2.0245505904	-1.0544998369	 0.118067
H	 2.9875633916	-2.8409273993	 1.7785842977	 0.109012
H	 2.2528617851	-1.4480482016	 3.9965715995	 0.088227
H	 0.4515734906	 0.4094235584	 3.1796748098	 0.087919
