21
gdb 72739	2.46796	1.74496	1.50967	1.5585	81.7	-0.2284	0.0719	0.3003	1017.9204	0.182672	-387.053173	-387.045082	-387.044138	-387.085371	32.529	
C	-0.061302935	 1.5482158583	 0.004976401	-0.478289
C	 0.0480799088	 0.0496035455	 0.1007734937	 0.411575
C	 0.9058069556	-0.708240034	-0.9635200861	-0.273701
C	 1.8072590279	-1.2876466435	 0.176277903	-0.346484
C	 0.7982259366	-0.7671114056	 1.2009947741	 0.280035
C	 0.8619628067	-0.3349415254	 2.6701215176	-0.346265
C	-0.6319539201	-0.7758619173	 2.8344280112	-0.23663
C	-0.6020017221	-1.3982213936	 1.408477054	 0.072868
O	-1.2216518103	-0.5974065774	 0.3805881623	-0.346365
H	 0.9221839235	 2.002800123	-0.1526995055	 0.115921
H	-0.7012028822	 1.8240412272	-0.8412354855	 0.129503
H	-0.5022963234	 1.9718349673	 0.9124622524	 0.121234
H	 0.3147189337	-1.4550243232	-1.4969102348	 0.112724
H	 1.4194875448	-0.0746918022	-1.690810402	 0.098447
H	 1.9989425585	-2.364503904	 0.1693674083	 0.098208
H	 2.7698272075	-0.7698094283	 0.2402731505	 0.103244
H	 1.5441694675	-0.9525454436	 3.2625346665	 0.104704
H	 1.0993769088	 0.7155000401	 2.864014623	 0.097723
H	-0.8160981496	-1.4848525468	 3.6450381302	 0.100779
H	-1.3500721964	 0.0433156023	 2.909240303	 0.11195
H	-0.8370557408	-2.4625592989	 1.3138009331	 0.068819
