19
gdb 83450	2.87838	1.15483	1.03947	1.873	81.15	-0.2434	0.0524	0.2958	1234.9259	0.157827	-385.821481	-385.812477	-385.811533	-385.855333	34.339	
O	-0.3261345466	 1.4604151751	-0.0503848389	-0.421208
C	-0.2162945059	 0.0660234758	-0.0326990706	 0.069154
C	-0.4215651304	-0.7593729537	 1.210609281	-0.189447
C	-1.4615102398	-0.0940217269	 2.119999808	-0.219954
C	-2.4872441136	-0.1015802819	 0.9439152967	-0.271298
C	-1.4426969515	-0.7769639606	 0.0428070159	 0.332234
C	-1.7590937225	-1.8660939317	-0.9592735168	-0.47203
C	-2.5293692783	-1.3752316109	-2.1001060846	 0.318919
C	-3.1693746471	-0.9500010484	-3.0241991525	-0.456362
H	 0.4313206926	 1.8247571038	 0.4196760704	 0.286408
H	 0.547244575	-0.3313798376	-0.7041082516	 0.082143
H	 0.2945116641	-1.5160693573	 1.5138347665	 0.080545
H	-1.7702614913	-0.7342965991	 2.9485188183	 0.101082
H	-1.1859381254	 0.8875344446	 2.5159852174	 0.094526
H	-3.342346593	-0.7517979014	 1.1434142317	 0.099592
H	-2.8475735881	 0.8691600181	 0.5986328575	 0.116482
H	-0.8261367148	-2.3225700752	-1.3147750448	 0.126543
H	-2.3204531302	-2.6701819267	-0.463706335	 0.127687
H	-3.7306777733	-0.5773360761	-3.8445931487	 0.194985
