20
gdb 47731	2.47226	1.64254	1.12566	2.6017	78.98	-0.2109	-0.0154	0.1955	1118.8257	0.173098	-403.159887	-403.151766	-403.150822	-403.192697	31.922	
O	 0.0204196925	 0.0487285472	 0.4688489356	-0.328071
C	 0.0162986925	 1.2093511216	 0.1150611704	 0.307598
C	-1.3054519609	 1.9554554303	-0.1081413045	-0.274935
N	-1.2774881673	 3.1051153237	-1.0087314157	-0.283611
C	-0.1408662746	 3.9864255892	-0.7378639078	-0.168714
C	 1.2086248391	 3.2709944396	-0.8834634109	-0.299311
C	 1.2767599071	 2.0178577047	-0.0190830497	 0.251438
C	 2.1077910618	 2.0420162996	 1.2695763106	-0.283204
C	 2.5758207603	 1.2540941607	 0.0889300304	-0.303168
H	-2.0545460031	 1.2307274329	-0.4375026787	 0.129008
H	-1.6257593384	 2.3021974685	 0.8869732909	 0.131745
H	-1.2240448385	 2.7787752568	-1.9693626154	 0.218104
H	-0.1931040922	 4.8455838287	-1.4146204623	 0.102649
H	-0.2540632373	 4.3751292926	 0.283111328	 0.10683
H	 1.3408401023	 2.9934104706	-1.9391897511	 0.097716
H	 2.0382899812	 3.9448521807	-0.6356071265	 0.095008
H	 2.6050682602	 2.9759671968	 1.510061247	 0.11575
H	 1.717536588	 1.4941073284	 2.1196427262	 0.132629
H	 2.4910679652	 0.1752112266	 0.1423433617	 0.140256
H	 3.4134868723	 1.6349861408	-0.4856196281	 0.112281
