15
gdb 50459	4.45147	1.04569	0.87776	1.6742	69.77	-0.2474	-0.0685	0.179	1234.4901	0.111263	-457.785382	-457.777409	-457.776464	-457.818599	28.736	
O	-0.9329810936	 1.227980037	 0.0085217647	-0.235984
C	 0.1780498389	 0.7743827972	 0.0304846923	 0.133662
C	 1.4434048401	 1.6379485495	 0.0073191023	-0.01154
O	 2.5215930792	 0.7699373634	-0.2497588729	-0.263743
C	 3.7560275991	 1.4362481331	-0.4560350233	-0.190374
C	 3.6900679873	 2.4930957835	-1.5599011439	 0.353073
O	 4.681174916	 2.8245540053	-2.1747013005	-0.31335
C	 2.3670153683	 3.1165921529	-1.7514796646	-0.175679
C	 1.3321921022	 2.7614944866	-0.9825116625	-0.060536
H	 0.3924626912	-0.3133319461	 0.0869029361	 0.114055
H	 1.5213020666	 2.0709117084	 1.0276111666	 0.118483
H	 4.1001202604	 1.9286331784	 0.4708023655	 0.119044
H	 4.4913123726	 0.6769098261	-0.7278442848	 0.146001
H	 2.2988471903	 3.9033318365	-2.4957195334	 0.122833
H	 0.3631569011	 3.2487050983	-1.0380892115	 0.144056
