19
gdb 112271	2.42804	1.23277	0.90138	3.3524	72.65	-0.2519	0.	0.2518	1338.8767	0.157402	-460.181109	-460.171437	-460.170493	-460.216324	33.866	
C	 0.3453137455	 1.5467410411	 0.1159254446	-0.391951
C	 0.0352107357	 0.0507955963	 0.0091777575	-0.180986
C	 0.4135864977	-0.5222235845	-1.3407316162	 0.090688
O	 1.8725327796	-0.4660789334	-1.5816605225	-0.25408
C	 1.9849303754	-1.8301750362	-1.609605046	 0.426717
O	 2.9758237183	-2.4838529875	-1.6901087407	-0.327892
C	 0.4617275352	-2.0594635737	-1.4847016415	-0.072042
O	 0.0032429103	-2.7745537047	-0.3811519978	-0.239082
C	 0.1813206922	-4.178034038	-0.5113124932	-0.249131
H	 1.4115422441	 1.7331250669	-0.0401763762	 0.140085
H	-0.2096471729	 2.123578049	-0.6321556285	 0.115443
H	 0.0734196381	 1.9302753925	 1.1032267765	 0.119184
H	 0.5576469797	-0.5098811655	 0.7902262306	 0.119848
H	-1.0352826196	-0.1343185464	 0.159422809	 0.113435
H	-0.0951921766	-0.0066407233	-2.1603514285	 0.096906
H	 0.0264875331	-2.4337622754	-2.4241391599	 0.099817
H	-0.2186701631	-4.6308538005	 0.3977501409	 0.135086
H	-0.3694317427	-4.5671627633	-1.3808532389	 0.111889
H	 1.2406136601	-4.4397679934	-0.6166992592	 0.146068
