14
gdb 62334	4.26046	1.3274	1.18037	5.4099	65.07	-0.2692	0.0013	0.2706	998.9597	0.099866	-436.599188	-436.592122	-436.591178	-436.63049	27.953	
O	 0.1041349899	 1.4224277831	-0.0398702206	-0.454053
C	-0.0367794625	 0.0496474617	 0.0388987863	 0.28281
C	 1.0195509703	-0.6031464582	-0.7228894854	 0.267021
N	 1.8461295949	-1.1470606686	-1.319027287	-0.329407
C	-0.4323825947	-0.7803602886	 1.2547122907	-0.172543
C	-1.6152225003	-0.1624679224	 2.0536106235	 0.007393
O	-2.0142523838	 1.0926632675	 1.4620521945	-0.265499
C	-2.4606551437	-0.1439127837	 0.8652923542	 0.007396
C	-1.327203582	-0.7606899596	-0.0030480706	-0.17255
H	-0.6248769355	 1.7870267513	 0.4845251632	 0.306972
H	 0.18494007	-1.5826639783	 1.6366230566	 0.126765
H	-1.8345858654	-0.306413374	 3.1034908116	 0.134468
H	-3.5264089889	-0.2692768026	 0.725503356	 0.134467
H	-1.4973147682	-1.5456804476	-0.727952343	 0.12676
