25
gdb 100966	2.22509	1.07184	0.99021	1.3349	88.94	-0.2495	0.0806	0.3301	1432.4199	0.226437	-389.484702	-389.473545	-389.4726	-389.520514	41.912	
C	 0.2373897615	 1.6149387362	-0.0473140731	-0.389667
C	 0.194441332	 0.0834126657	-0.0097750186	-0.180115
C	 0.5467971234	-0.5259857777	 1.361981998	-0.003289
C	-0.4918507023	-0.1890725161	 2.4449142267	-0.413497
C	 0.7802263595	-2.0372486998	 1.261952124	 0.345124
C	-0.3970522676	-2.8914723066	 0.8235013853	-0.470849
C	 2.1605462119	-2.4941367731	 0.8117251064	-0.382076
C	 1.7295839867	-2.6630607938	 2.2499322089	 0.04887
O	 2.2779436226	-1.8416570632	 3.2426202084	-0.42035
H	 1.2219673544	 1.9900992105	 0.2548144501	 0.111016
H	 0.0362232177	 1.9874032914	-1.056952985	 0.108116
H	-0.5054508172	 2.0627381117	 0.6199981409	 0.11743
H	-0.8027786405	-0.2555600114	-0.3197421516	 0.09154
H	 0.8956230758	-0.3107344953	-0.756274106	 0.091798
H	 1.4973811567	-0.0865774546	 1.6850727587	 0.076261
H	-1.4902528255	-0.5535091561	 2.1780660851	 0.106851
H	-0.2064462726	-0.6386911242	 3.39984391	 0.129878
H	-0.5693073787	 0.89139922	 2.5969726172	 0.109406
H	-0.7180429158	-2.640536027	-0.1931472367	 0.118657
H	-0.130932108	-3.9533070528	 0.8271949439	 0.109114
H	-1.2580521675	-2.7668569633	 1.4883880428	 0.119661
H	 2.2497440188	-3.3747086396	 0.1833271718	 0.103221
H	 2.8967320446	-1.7204911342	 0.6157719672	 0.106851
H	 1.4929854712	-3.6728566449	 2.5883398064	 0.079032
H	 3.200935779	-2.0897714117	 3.3572701091	 0.287019
