17
gdb 52868	2.74667	1.05155	0.83027	1.5933	79.	-0.2443	-0.0254	0.2189	1422.8767	0.131479	-421.796838	-421.786608	-421.785664	-421.833926	34.807	
C	 0.0981445317	 1.6467966133	 0.5491294633	-0.506486
C	 0.0776442648	 0.222687845	 0.2561834344	 0.207942
C	 0.0656379586	-0.955676317	 0.0120944187	-0.031432
C	 0.0644249944	-2.357951867	-0.3048577319	 0.089721
C	-0.6954284909	-3.307953953	 0.5537246843	-0.206057
O	-1.1947228465	-2.9355327764	-0.7158053101	-0.257698
C	 1.2916072777	-2.8937777636	-1.036092435	 0.305855
C	 1.0806817942	-4.1013130033	-1.9254369306	-0.484146
O	 2.3600270546	-2.3498329784	-0.9042369038	-0.282434
H	 1.1028383567	 2.0588361543	 0.4067244914	 0.159912
H	-0.583832431	 2.1947422601	-0.1101570042	 0.154997
H	-0.2030347311	 1.8467122075	 1.5830940965	 0.151671
H	-0.3553625782	-4.3381566262	 0.6523647769	 0.121393
H	-1.223046156	-2.8988724155	 1.4129175199	 0.134875
H	 0.4395660916	-3.8223902438	-2.7683568721	 0.15976
H	 2.0491048436	-4.4426435421	-2.2920597625	 0.140946
H	 0.5668937058	-4.914132644	-1.4049158053	 0.141181
