16
gdb 9478	2.96238	1.68697	1.57231	5.2453	65.11	-0.2585	0.0089	0.2673	905.0168	0.129843	-379.908068	-379.899643	-379.898699	-379.940973	30.33	
C	 0.1384279721	 1.4321653666	-0.2222659122	-0.426407
C	-0.0167930885	-0.0692995785	-0.0202088355	 0.269013
O	 0.7354325151	-0.838493966	-0.9882423588	-0.305103
C	 1.6368285322	-1.3517969438	 0.0153114851	-0.096099
C	 0.8057832526	-0.7148271104	 1.1583763756	-0.073349
N	 1.3847733541	 0.1812084884	 2.1228012571	-0.50865
C	-1.435400531	-0.4553615056	-0.0344271431	 0.256335
N	-2.5487111061	-0.7659429163	-0.0164656815	-0.33927
H	 1.1978768412	 1.6995806968	-0.2372222633	 0.117511
H	-0.3064020663	 1.7272715958	-1.1758652631	 0.144842
H	-0.3511040631	 1.9791853596	 0.5870277834	 0.149816
H	 1.6982694715	-2.4451397186	-0.0072821165	 0.117587
H	 2.6469962148	-0.9322091101	-0.0914941118	 0.097377
H	 0.2016268523	-1.4525918997	 1.6879590191	 0.117053
H	 1.6543186018	-0.3061850533	 2.9682010803	 0.244122
H	 2.2059687175	 0.6544952851	 1.7630804252	 0.23522
