22
gdb 118819	3.07009	0.83953	0.79486	3.748	84.81	-0.2482	0.005	0.2532	1581.3076	0.192102	-404.357606	-404.347232	-404.346288	-404.393376	37.421	
C	-0.1019161546	 1.6270312145	-0.0520329485	-0.381074
C	 0.1943664222	 0.1274815926	 0.0337936229	-0.170403
C	 0.4320716132	-0.5073738884	-1.3431613172	-0.231745
C	 0.8244391938	-1.9759263821	-1.2892957381	 0.296957
C	-0.2249199591	-2.9393160274	-0.7653691597	-0.465186
C	 1.8134807933	-2.4987309946	-2.3000925217	-0.289728
N	 2.2258993216	-2.2213106546	-0.9426742314	-0.08617
C	 2.7182251084	-3.1771362312	-0.0751241457	 0.134277
O	 3.4650355291	-4.0753488267	-0.3817283593	-0.292211
H	 0.7282526652	 2.1680938566	-0.5191962613	 0.118383
H	-1.0001506671	 1.8212497066	-0.6488196059	 0.114864
H	-0.2631043227	 2.0574279029	 0.9409806747	 0.115013
H	 1.0840226967	-0.0391680368	 0.65381216	 0.107403
H	-0.6370799791	-0.3769039781	 0.5408759455	 0.097951
H	-0.4705115506	-0.4069772118	-1.9609190752	 0.098048
H	 1.2282878392	 0.0443224227	-1.8559658953	 0.103412
H	-1.1278095376	-2.8824230222	-1.382377939	 0.128866
H	 0.1385680202	-3.9705808796	-0.7876566822	 0.135224
H	-0.5136356197	-2.7045684519	 0.2636706646	 0.131579
H	 1.7567658771	-3.5455002113	-2.5886435222	 0.132414
H	 2.2050703735	-1.830831644	-3.0630186283	 0.121754
H	 2.404606567	-2.9823524253	 0.968891893	 0.080373
