15
gdb 29679	2.37379	1.98914	1.08962	3.6816	69.62	-0.2477	-0.0374	0.2103	1029.6836	0.114872	-454.047912	-454.040094	-454.03915	-454.080581	28.755	
C	-0.0121253491	 1.4558406149	-0.0006113705	-0.34112
N	 0.0057377182	-0.0080806248	 0.0110873651	-0.237958
C	 0.0807225844	-0.6221491364	-1.229437902	 0.514382
O	 0.1300239652	-0.0165162931	-2.2792824676	-0.398269
N	 0.0958234675	-2.0130982801	-1.1856164986	-0.397335
C	 0.0423001003	-2.7392728506	-0.0275088832	 0.043839
C	-0.0301907587	-2.1330890711	 1.1702228003	-0.258352
C	-0.0534504366	-0.6800904041	 1.2617288604	 0.444459
O	-0.1177152032	-0.0568696524	 2.303283839	-0.379407
H	 0.8951879142	 1.8373800765	-0.4739827838	 0.145595
H	-0.87185042	 1.8150001718	-0.5704988426	 0.145606
H	-0.0728495696	 1.7843160695	 1.0341715447	 0.168154
H	 0.1504406945	-2.458601254	-2.0876266747	 0.275532
H	 0.0623882293	-3.8159183693	-0.1480526779	 0.145569
H	-0.0732241264	-2.6894229268	 2.0944852314	 0.129303
