16
gdb 1872	6.03552	1.98423	1.57826	3.2473	61.95	-0.2542	0.0328	0.287	789.4531	0.138297	-325.807242	-325.800516	-325.799571	-325.837836	25.089	
C	-0.1768931397	 1.5036227815	-0.0059813097	-0.413388
C	 0.0921020143	 0.0026675791	 0.0410661536	 0.012032
C	 0.9535098437	-0.5207645228	-1.1195984337	-0.087305
O	 1.5550564779	-1.7338944083	-0.6429137789	-0.236695
C	 1.5628360036	-1.7538736856	 0.7268969069	 0.408983
N	 2.0432660372	-2.6878448673	 1.4264061575	-0.541488
C	 0.9067758681	-0.4935333277	 1.246278755	-0.303271
H	 0.7595434328	 2.0721138135	 0.024672579	 0.119894
H	-0.7104629813	 1.7842836434	-0.9203525557	 0.120315
H	-0.7882818686	 1.8211162119	 0.8441602989	 0.125961
H	-0.8626767309	-0.5373594546	 0.0224787439	 0.090789
H	 0.3851450524	-0.7579477637	-2.0223754354	 0.118433
H	 1.7452930833	 0.194819134	-1.3823685737	 0.1052
H	 2.4391163642	-3.4143325784	 0.8266714029	 0.219908
H	 1.6876223914	 0.2318156137	 1.5100872907	 0.125403
H	 0.3232855915	-0.6925222086	 2.1455009187	 0.135229
