16
gdb 66816	3.7302	1.8285	1.81782	0.2784	68.97	-0.2263	0.066	0.2923	811.4248	0.126624	-400.661877	-400.656095	-400.655151	-400.691595	25.325	
O	-0.0680289426	 1.4157842229	 0.0237884554	-0.460958
C	 0.0393503808	 0.0445141267	 0.0022981958	 0.37121
C	-1.1477408358	-0.8778927455	 0.1290955108	-0.12929
C	-0.818431864	-2.0152613653	 1.0813251195	-0.078343
C	 0.6028254338	-1.8441389431	 1.6045592771	-0.105764
C	 0.3199052774	-2.7994886928	 0.4730452797	-0.037621
N	 0.8902028126	-1.8653853161	-0.5526629209	-0.148996
C	-0.2084416088	-0.9973516189	-1.0689966239	-0.139348
C	 1.1603320038	-0.8583042088	 0.5633933227	-0.103596
H	 0.6172821088	 1.7843642271	-0.5450021719	 0.289591
H	-2.144155169	-0.4756164114	 0.0033803363	 0.096296
H	-1.5681845754	-2.5032096522	 1.6895288249	 0.09108
H	 0.9306119906	-2.0226029633	 2.6202393033	 0.091589
H	 0.3921536392	-3.8762311757	 0.3862416484	 0.092445
H	-0.4927061514	-0.9533805351	-2.1135391312	 0.094523
H	 2.18249812	-0.4862904285	 0.6391904439	 0.077183
