20
gdb 121074	3.81391	0.78913	0.68164	3.6082	76.62	-0.2375	0.0357	0.2732	1625.0551	0.171787	-440.331828	-440.322494	-440.321549	-440.366751	34.026	
O	-0.06118273	 1.4863821153	 0.1758695772	-0.416177
C	 0.0502061208	 0.0827362583	 0.0114809373	-0.084172
C	-1.3615705803	-0.4932863457	 0.0150305832	-0.176242
C	-1.4143009028	-2.0183528821	-0.0645216144	 0.035543
C	-2.8508719369	-2.5902103291	 0.0265421825	-0.228937
C	-2.8078911353	-3.8778563183	-0.8085510544	-0.336805
C	-1.6548563398	-3.6545649254	-1.7927034549	 0.404769
O	-1.3758698949	-4.3174309469	-2.7666256073	-0.377839
N	-0.9690590202	-2.552326798	-1.3464476753	-0.309786
H	 0.8211344498	 1.8672130053	 0.1412031968	 0.288543
H	 0.5606377293	-0.1632512149	-0.9346190842	 0.082302
H	 0.6384010006	-0.371396396	 0.8265995413	 0.087277
H	-1.8541911365	-0.1728447216	 0.9409076273	 0.112436
H	-1.9275752585	-0.0638149256	-0.819228382	 0.113071
H	-0.8012589012	-2.4338104156	 0.7531422895	 0.075404
H	-3.1578016459	-2.7451802965	 1.0629270007	 0.108658
H	-3.5459989717	-1.8733036439	-0.4231048528	 0.114235
H	-2.5608693142	-4.7572122767	-0.2022874759	 0.12876
H	-3.7321354109	-4.1023778447	-1.3435364875	 0.131187
H	-0.0744584917	-2.3329202578	-1.7554525572	 0.247774
