18
gdb 55344	1.98289	1.74281	1.05695	3.0124	72.58	-0.2443	-0.0409	0.2034	1140.4438	0.147403	-439.118223	-439.109437	-439.108492	-439.152534	32.319	
N	 0.8750249569	 0.051498466	 0.752538815	-0.518499
C	 0.136521038	-0.0066414197	-0.3942063892	 0.375015
O	 0.4590609391	 0.5654400119	-1.4193554427	-0.357133
C	-1.1951671154	-0.7655623457	-0.2676984425	-0.149331
C	-1.8942988531	-0.9442222904	-1.6397856837	-0.214133
C	-1.3751810295	-2.4065423821	-1.7082997267	-0.249944
C	-1.1412535004	-2.3330085227	-0.1736247245	-0.074506
C	-0.0318891274	-3.1188744753	 0.4611658227	 0.13725
O	 0.658591409	-2.7569861959	 1.3860278329	-0.259478
H	 1.7951347118	 0.4544053845	 0.6522584573	 0.252893
H	 0.7782072814	-0.7028473745	 1.4203030466	 0.271296
H	-1.7761986178	-0.2875482526	 0.5251781682	 0.103937
H	-2.9824394662	-0.8987609342	-1.5531189878	 0.099736
H	-1.5483079275	-0.2614812108	-2.4141194918	 0.13925
H	-2.0523930722	-3.1792774804	-2.076829664	 0.105291
H	-0.4307810637	-2.4680550468	-2.2567637662	 0.124725
H	-2.0526395058	-2.6785345384	 0.3371894233	 0.120534
H	 0.1021672828	-4.1371928129	 0.0301536829	 0.093097
