20
gdb 39455	2.42867	1.78339	1.20466	2.2139	79.63	-0.2357	0.0247	0.2604	1069.0129	0.173665	-403.137322	-403.129655	-403.128711	-403.169194	30.798	
C	 0.0765368509	 1.4179399267	-0.3422304282	-0.336167
C	 1.2756048729	 0.6276064368	 0.1327419224	-0.015243
C	 1.885821525	 0.8146452752	 1.5033086817	-0.225056
C	 2.6086336212	-0.4603443119	 1.9752959102	-0.19457
C	 1.8028533754	-1.7485797956	 1.7268308184	-0.151222
N	 0.5392325301	-1.7771493931	 2.4448620938	-0.254342
C	-0.5117056386	-1.1600609309	 2.1335461859	 0.133498
O	-0.8718020307	-0.3079546351	 1.1248165155	-0.235755
C	-0.0690741554	-0.0369808305	-0.0031327934	 0.114327
H	-0.3713360889	 2.1099667616	 0.363340566	 0.126156
H	 0.0180136752	 1.7234292044	-1.3807200835	 0.115995
H	 1.9890230385	 0.3474218783	-0.6401803318	 0.08903
H	 2.5899279499	 1.6547139745	 1.49140221	 0.099036
H	 1.1008448804	 1.0835013192	 2.2176106649	 0.114009
H	 3.5668808132	-0.5618311607	 1.4497596177	 0.094476
H	 2.8400569062	-0.3772050571	 3.042878604	 0.106185
H	 1.6728658797	-1.8964458466	 0.6477874675	 0.098764
H	 2.3943607448	-2.5971089633	 2.0874429902	 0.099577
H	-1.3870282152	-1.2537421317	 2.777507901	 0.117287
H	-0.2234389445	-0.7561890202	-0.8027331322	 0.104014
