18
gdb 53033	5.25212	0.90692	0.86009	1.5885	87.97	-0.2246	0.041	0.2656	1408.6135	0.147619	-364.721718	-364.713462	-364.712518	-364.756426	30.662	
C	-0.0267301471	 1.4407671408	-0.0200842712	-0.515596
C	 0.0047349329	-0.0134749283	-0.0199355292	 0.375432
C	 0.0181668034	-1.218536193	-0.0179023072	-0.315538
C	 0.0839228221	-2.6384248671	-0.0065897173	 0.242915
C	 1.2614535192	-3.5214746628	 0.4306541239	-0.302236
C	 0.4702197798	-4.7029336101	-0.1841233996	-0.10658
C	-0.780376767	-4.7521920653	 0.7083053217	-0.147526
N	-1.2146599228	-3.4243300229	 0.1596342212	-0.179342
C	-0.3456966052	-3.6463708715	-1.0232990496	-0.105338
H	 0.6524996859	 1.8521855541	 0.7349555002	 0.148706
H	 0.2713293007	 1.8495177818	-0.9922266705	 0.147369
H	-1.0328141108	 1.8132315956	 0.2025683514	 0.152781
H	 2.1508858611	-3.2705474665	-0.1516041881	 0.113461
H	 1.512295176	-3.5738121844	 1.4955424032	 0.099138
H	 0.979811622	-5.5942198831	-0.5439141754	 0.07824
H	-1.5140477179	-5.4997784045	 0.3955705979	 0.111571
H	-0.6437640331	-4.79287336	 1.7952205611	 0.099452
H	-0.6671549692	-3.5506760329	-2.0521866024	 0.103094
