15
gdb 4357	4.12567	1.82578	1.27634	3.377	71.15	-0.2332	-0.0123	0.2209	921.5252	0.121177	-358.919727	-358.912468	-358.911523	-358.951222	27.143	
C	-0.0255807091	 1.5037158072	-0.0165019717	-0.467987
C	 0.0352751996	 0.0020218783	 0.0286729704	 0.344349
N	 0.122206913	-0.6305169608	-1.1597583814	-0.325333
C	 0.1738710634	-1.9563110118	-1.1034584188	 0.063849
N	 0.1480831586	-2.7362484874	-0.0236017684	-0.325682
C	 0.0661193205	-2.1003246861	 1.15377077	 0.40798
N	 0.0845001164	-2.8833817035	 2.2747708764	-0.565231
C	 0.0046867108	-0.697649375	 1.2225841111	-0.248833
H	 0.8676382703	 1.8996648819	-0.5100930164	 0.144512
H	-0.88531004	 1.8260243516	-0.6124048158	 0.143587
H	-0.1015576906	 1.9407418062	 0.9819492815	 0.115893
H	 0.2421840848	-2.4760863148	-2.0575941842	 0.109592
H	-0.0766674548	-3.8662154482	 2.1205728679	 0.261274
H	-0.2598105678	-2.5017075891	 3.139489759	 0.256444
H	-0.0603810951	-0.1846497284	 2.1760300704	 0.085586
