18
gdb 95274	2.72265	1.82431	1.31428	1.782	71.28	-0.2546	0.0175	0.2721	987.8137	0.150125	-439.112371	-439.105038	-439.104094	-439.1442	28.421	
C	 0.0187764347	 1.5683943325	-0.0454968358	-0.401185
C	 0.1593632867	 0.0591904202	-0.0292088118	 0.132424
O	 1.0186061284	-0.351396	-1.0922282758	-0.255376
C	 1.3604681778	-1.6996042222	-0.8334057778	-0.111033
C	 1.5776310202	-1.7897384962	 0.6806090561	 0.070895
O	 2.9532074707	-1.5073860366	 1.0353920454	-0.226954
C	 2.9285237548	-0.3075364409	 1.661327173	 0.113944
N	 1.8266293246	 0.2867158381	 1.8544928785	-0.257967
C	 0.79395795	-0.5626340994	 1.243300636	-0.049928
H	 0.9885449853	 2.0419375731	 0.1155668743	 0.140539
H	-0.3868589149	 1.8949527618	-1.0067274367	 0.121023
H	-0.6592292617	 1.8943633704	 0.7485218397	 0.119275
H	-0.8299626137	-0.4123902309	-0.1688142787	 0.063108
H	 0.5424680291	-2.3792075454	-1.1267429598	 0.090525
H	 2.2567507931	-1.9538484154	-1.4031337737	 0.123956
H	 1.3213683182	-2.7635045154	 1.1007301524	 0.096216
H	 3.9023202553	 0.052608827	 1.974533565	 0.143307
H	 0.0314213514	-0.8088966206	 1.9863820797	 0.087232
