19
gdb 30252	2.62899	1.54326	1.03334	2.1242	85.16	-0.1697	0.0534	0.2231	1177.1965	0.16099	-382.068346	-382.059748	-382.058804	-382.101694	32.575	
C	-0.3416873471	 1.5406108098	 0.038444539	-0.391439
C	 0.0086133488	 0.0560056257	 0.0814581096	-0.155128
C	 1.1381172374	-0.4310610088	-0.9138674911	-0.183965
N	 1.9412997544	-0.7673309617	 0.2721533967	 0.011979
C	 2.9149307469	-1.5106059085	 0.8636565888	-0.154733
C	 2.5628174345	-1.5878840161	 2.2054991057	-0.190431
C	 1.302864859	-0.9325001242	 2.4094712163	 0.05209
N	 0.6477731029	-0.77799527	 3.6504580516	-0.607163
C	 0.9581055153	-0.4332114356	 1.1703925963	 0.280994
H	 0.5603803717	 2.1566348325	 0.1066147761	 0.12401
H	-0.8670657634	 1.7953983556	-0.8889111944	 0.110618
H	-0.9931423364	 1.8101481921	 0.8760404364	 0.120291
H	-0.9021598204	-0.5460256732	-0.0188126164	 0.082137
H	 0.8668364765	-1.297986936	-1.5239810469	 0.120193
H	 1.58205417	 0.3428556769	-1.5482461636	 0.115038
H	 3.7869180558	-1.8725874262	 0.3432876171	 0.11289
H	 3.1646412367	-2.036954452	 2.9832032302	 0.082142
H	 0.78939469	-1.5828487044	 4.2487678661	 0.237069
H	-0.3490305028	-0.6373588262	 3.5400980124	 0.233408
