16
gdb 9333	7.94241	0.72405	0.67177	5.0972	62.82	-0.2499	-0.0934	0.1565	1565.9473	0.126606	-420.881675	-420.872235	-420.871291	-420.91732	31.151	
O	 0.0167190312	 1.4249101091	 0.0091894702	-0.41721
C	 0.0469805323	 0.0083496433	 0.0015911118	-0.076928
C	-1.3942465965	-0.4836571372	 0.0126881194	-0.164624
C	-1.4921942057	-2.0060920709	 0.0057861328	-0.331181
C	-2.9148092295	-2.5249535688	 0.01669406	 0.300231
O	-3.8980245088	-1.8300957295	 0.029911377	-0.261148
C	-3.0544399629	-4.0697179643	 0.0096532016	 0.092746
O	-4.1181549955	-4.6221419259	 0.0165639765	-0.201296
H	 0.9222338523	 1.7483229357	 0.0021198541	 0.288122
H	 0.5664445954	-0.3770423854	-0.8921347811	 0.084012
H	 0.5832185065	-0.3861950266	 0.8813088003	 0.084012
H	-1.9041299273	-0.0831556136	 0.8945466229	 0.127833
H	-1.9206691987	-0.0741473285	-0.8552076101	 0.12782
H	-0.9867656941	-2.4398356382	-0.8716818748	 0.130885
H	-0.9702332324	-2.4487593145	 0.8690105199	 0.130899
H	-2.0940949162	-4.6346840147	-0.0023289104	 0.085828
