19
gdb 36733	4.12984	0.80186	0.77738	1.6563	78.22	-0.2468	0.0301	0.2769	1517.7654	0.157961	-422.977198	-422.96798	-422.967036	-423.012703	33.011	
C	 0.5906279704	-1.1481062821	-0.201204195	-0.416098
C	 0.3991075953	 0.0371097105	-0.1911716786	 0.283397
C	 0.1334715032	 1.4696649282	-0.1873201657	-0.216492
O	 1.32218579	 2.1762815216	 0.1126271915	-0.263051
C	 1.1449667358	 3.585410657	 0.200160911	 0.111665
C	 2.419924463	 4.1641685102	 0.82101586	-0.243658
C	 3.3064699331	 4.3368199392	-0.413435219	-0.066339
O	 2.4218494701	 4.7834714871	-1.4369878509	-0.259415
C	 1.1175907898	 4.2675804707	-1.1878572029	-0.078322
H	 0.7667461202	-2.1953456488	-0.2084471511	 0.201795
H	-0.2732589907	 1.7669819655	-1.1678168247	 0.121183
H	-0.6456167361	 1.7012926003	 0.5595573437	 0.118918
H	 0.2414540652	 3.8077188801	 0.7852873452	 0.068426
H	 2.2053459205	 5.1371071848	 1.2736075518	 0.107766
H	 2.8317578112	 3.4967216317	 1.5795520368	 0.117646
H	 4.0907820333	 5.0895959421	-0.2955735701	 0.106118
H	 3.7741941803	 3.3803875093	-0.6898389512	 0.105254
H	 0.8384268259	 3.5459514242	-1.9674136874	 0.101182
H	 0.4015727794	 5.0985700986	-1.2193974633	 0.100026
