15
gdb 19383	3.18131	2.32048	1.60406	2.5137	66.68	-0.2456	-0.0188	0.2268	805.1804	0.119716	-362.620953	-362.614312	-362.613368	-362.651661	25.583	
O	 0.0712744526	 0.0553986139	-0.1802387193	-0.333681
C	-0.0101988318	 1.2362886815	 0.0229924032	 0.359013
C	-1.1278985193	 2.2398402858	-0.0058781735	-0.17931
C	-0.9629434998	 3.2414511225	 1.1304805916	-0.287829
C	-0.0536845325	 3.3723004376	-0.0386052578	-0.13761
C	 1.0494556272	 2.3320640086	 0.0929184168	 0.256208
C	 2.362910391	 2.3186054617	 0.7766679625	-0.302984
N	 2.2731876651	 2.2792698458	-0.6926956168	-0.372938
H	-2.0592359546	 2.147020415	-0.5487785589	 0.116571
H	-1.775039678	 3.9580491295	 1.1991438818	 0.130331
H	-0.5718259862	 2.9164265113	 2.090507007	 0.126528
H	-0.0307213219	 4.220211642	-0.7086718345	 0.121253
H	 2.7657750433	 3.2427611221	 1.1818876587	 0.127237
H	 2.6447550973	 1.4135467083	 1.3090875338	 0.128473
H	 2.4064256677	 1.3255184744	-1.0278638345	 0.248738
