22
gdb 117172	2.95668	0.85414	0.77217	1.5053	80.75	-0.2559	0.0323	0.2882	1621.5515	0.191642	-441.492669	-441.481638	-441.480694	-441.529431	38.718	
C	 0.0206841594	 1.1859227081	-0.8257948415	-0.389888
C	-0.1235551622	-0.0194519052	 0.0837389461	-0.032302
O	-1.3756756811	-0.6525228088	-0.2293775739	-0.250643
C	-1.6861294717	-1.7558451966	 0.4748550682	 0.377369
N	-0.9431790066	-2.2171195958	 1.3925299982	-0.534043
C	-3.0075771908	-2.3463497177	-0.0213020242	 0.041885
C	-2.7949244955	-3.1305434523	-1.3157249319	-0.400359
O	-3.5567920583	-3.2288143565	 0.934981858	-0.238928
C	-4.2159516695	-2.5769885401	 2.0049603925	-0.247845
H	 0.9649332015	 1.6978415698	-0.6176025686	 0.12101
H	 0.0165265359	 0.8855314301	-1.8775822603	 0.125854
H	-0.7973474451	 1.8947894918	-0.6682358457	 0.126233
H	 0.6860793544	-0.7430637516	-0.057727712	 0.11989
H	-0.1223632517	 0.2607927858	 1.1422509563	 0.120085
H	-1.3792142838	-3.0591388581	 1.7697493247	 0.230971
H	-3.6971599492	-1.5096503048	-0.2116275109	 0.082429
H	-3.7510434062	-3.5084349284	-1.6859388064	 0.124143
H	-2.3440322521	-2.4882257371	-2.0758393337	 0.13141
H	-2.1309721982	-3.9800665558	-1.1323556976	 0.13148
H	-4.6043846622	-3.3571296578	 2.6635955933	 0.130001
H	-3.5347798093	-1.9328890316	 2.5772509705	 0.120628
H	-5.0558426276	-1.9662338075	 1.6418360092	 0.110621
