23
gdb 118409	2.08285	0.81219	0.60741	1.1794	92.56	-0.2433	0.0618	0.3051	1921.0985	0.202352	-388.265439	-388.253496	-388.252552	-388.304584	40.457	
C	-1.5210629079	-0.2255745215	-0.0035121709	-0.387652
C	-0.0009238884	-0.0885618263	 0.0873817279	-0.164632
C	 0.7400366584	-0.6211922882	-1.1607841155	-0.166981
C	 2.2412545657	-0.2931471934	-1.1061428306	-0.064515
O	 2.3917690046	 1.1094820105	-1.1003206262	-0.232063
C	 3.7356644685	 1.5170158534	-1.0173523376	-0.227352
C	 0.5555124607	-2.0606932093	-1.3427840585	 0.06858
C	 0.4258751858	-3.2514621808	-1.4722670538	 0.054657
C	 0.2601232079	-4.6886965193	-1.6407524797	-0.498425
H	-1.9183603211	 0.3381049976	-0.8552531166	 0.112023
H	-1.8155738335	-1.2718881672	-0.1295753009	 0.124712
H	-2.0038844679	 0.1563866274	 0.9012670185	 0.109133
H	 0.2798608566	 0.9613284464	 0.2119968543	 0.113843
H	 0.3708774883	-0.6274724642	 0.9677903066	 0.094728
H	 0.3382822028	-0.0980842141	-2.0407077638	 0.105401
H	 2.6885592245	-0.7383782124	-0.2012781	 0.09061
H	 2.7527526389	-0.7340106286	-1.9764971591	 0.093308
H	 4.2151699877	 1.1597653693	-0.092102212	 0.104345
H	 4.327465701	 1.151002797	-1.8714601564	 0.104142
H	 3.7480551146	 2.6097300772	-1.0222725294	 0.126664
H	 1.1349517654	-5.1363703795	-2.1254414451	 0.14615
H	 0.1237815104	-5.1913864387	-0.6767730558	 0.146183
H	-0.613881943	-4.9192244056	-2.2601189853	 0.147142
