13
gdb 25437	2.77052	1.57606	1.00458	3.5317	68.78	-0.257	-0.0801	0.1769	1069.3266	0.09056	-452.779181	-452.771923	-452.770978	-452.811474	26.19	
N	 0.2053773974	 1.3913738862	 0.3209152456	-0.513835
C	 0.1299315734	 0.1224483598	 0.2316761499	 0.287341
N	 1.256866376	-0.7257042399	 0.4136944547	-0.30143
C	 1.1146952705	-1.9782574998	 0.3117138446	 0.128465
O	-0.0388298481	-2.6620165846	 0.035213809	-0.183605
C	-1.1447028399	-1.9026344867	-0.147614495	 0.028587
C	-1.133913561	-0.5606757901	-0.0674006303	 0.035702
C	-2.4035207945	 0.1826122539	-0.2847588055	 0.101259
O	-3.4562047649	-0.3616332143	-0.5324481833	-0.275744
H	 1.1676908919	 1.6601422973	 0.5340467179	 0.229175
H	 1.9378210552	-2.6742019	 0.4402118523	 0.158872
H	-2.0310077332	-2.4854998841	-0.3633914257	 0.177403
H	-2.3079671226	 1.2793263123	-0.2014258341	 0.127809
