16
gdb 15562	3.41711	1.8626	1.42697	2.7627	65.75	-0.2469	-0.0191	0.2278	882.6053	0.130136	-383.754903	-383.74738	-383.746436	-383.78705	27.808	
O	 0.0261952232	 1.4633621608	 0.0466180116	-0.427018
C	 0.1094881092	 0.0449040244	 0.0623478497	 0.107515
C	 0.5738164453	-0.4910758908	 1.4383284004	-0.278482
C	-0.7294114004	-0.7927480373	 2.1421830803	-0.09221
C	-1.7530550992	-0.8478929688	 1.2901351205	-0.05984
C	-1.3021084439	-0.6003870035	-0.1299356254	-0.169458
C	-2.207471074	 0.2766281247	-0.9702721842	 0.15722
O	-3.2432004703	 0.7543377546	-0.5826124364	-0.250755
H	-0.562233714	 1.7300784579	 0.7638421002	 0.290134
H	 0.7980274936	-0.2076942645	-0.746582534	 0.092217
H	 1.1848536315	-1.397981746	 1.3313880196	 0.112984
H	 1.1967444999	 0.254213019	 1.9445990737	 0.116317
H	-0.7945316373	-0.9671510965	 3.2102674413	 0.101598
H	-2.7854547721	-1.0543102281	 1.5408417507	 0.114939
H	-1.1923524156	-1.5504732771	-0.6797170534	 0.103163
H	-1.846452496	 0.4491565911	-2.0081573945	 0.081675
