17
gdb 32887	4.49594	0.79801	0.71389	1.7578	71.96	-0.1961	0.0299	0.2261	1534.412	0.1369	-455.181455	-455.172549	-455.171605	-455.216154	32.48	
O	 0.0543482466	 1.433750237	 0.1913800852	-0.414459
C	 0.0416831712	 0.0182481562	 0.2299571863	-0.055612
C	-1.3329111803	-0.5657724751	-0.1491218163	-0.324143
C	-1.3534933817	-2.0575587528	-0.0957731321	 0.343905
N	-0.7572747826	-2.8677558158	-0.957868155	-0.385531
C	-0.9944576836	-4.1313447555	-0.5002585593	 0.33883
O	-0.5260942341	-5.2166217537	-1.1554102171	-0.438456
C	-1.7385110903	-4.1192119902	 0.6505814589	-0.213312
N	-1.9548359127	-2.7690939934	 0.8918976949	-0.277166
H	-0.019679476	 1.7051912904	-0.7290790258	 0.284283
H	 0.8109513693	-0.4213009331	-0.4198000289	 0.113886
H	 0.2882675493	-0.2574222208	 1.2606179284	 0.112873
H	-2.0925187723	-0.1457062597	 0.5191571698	 0.105095
H	-1.5842169592	-0.2446740152	-1.1671841226	 0.118366
H	-0.05061806	-4.8791239721	-1.9240110676	 0.29902
H	-2.1244292283	-4.8974124156	 1.2836809637	 0.128519
H	-2.4773704854	-2.3858631505	 1.6612857775	 0.263901
