21
gdb 90869	3.26449	1.51408	1.29215	1.3523	81.01	-0.2358	0.0861	0.3219	1066.508	0.18493	-387.07106	-387.06359	-387.062646	-387.1026	30.944	
C	-0.8327337591	 1.2942554133	 0.1351699036	-0.404561
C	 0.0758166447	 0.0844745281	-0.0066032045	 0.163609
C	 0.58512612	-0.1356236507	-1.445115249	-0.2404
C	 1.9181543688	-0.9028722442	-1.4418314042	-0.018499
C	 3.1964200152	-0.0809350034	-1.0449978742	-0.237256
C	 3.316598219	-0.8977093689	 0.2400991842	-0.09129
C	 2.0076997046	-0.8519354346	 0.9763723017	 0.1081
O	 1.1754992121	 0.2727666359	 0.8928439719	-0.273578
C	 2.132567184	-1.7805644214	-0.191310837	-0.131629
H	-0.2874491284	 2.2088919274	-0.118202213	 0.122696
H	-1.6922917302	 1.2072104996	-0.5368645598	 0.112599
H	-1.1991641107	 1.3863533668	 1.1612527747	 0.120062
H	-0.4707417491	-0.8183660442	 0.3089574644	 0.065379
H	-0.1795011041	-0.6810306111	-2.0110498861	 0.092946
H	 0.7226555702	 0.8294387268	-1.9492336751	 0.095997
H	 2.0653190952	-1.4387906022	-2.3808910895	 0.071691
H	 4.0207625013	-0.2637879894	-1.737629029	 0.097817
H	 3.0640492275	 0.9975580254	-0.917404267	 0.099692
H	 4.2375959547	-1.1796373206	 0.7363091384	 0.08135
H	 2.0068204221	-1.3115000262	 1.9630218181	 0.084692
H	 1.9877061821	-2.8518875462	-0.1197114686	 0.080581
