25
gdb 60270	3.59222	0.77449	0.74477	1.6927	88.91	-0.2376	0.0738	0.3115	1692.2318	0.229155	-389.507344	-389.497026	-389.496082	-389.543633	37.818	
C	-0.052927072	 1.5953713875	 0.1096161064	-0.388206
C	 0.0198090504	 0.0634481765	 0.0476689098	 0.036765
C	 0.8745708023	-0.4814180018	 1.2009218993	-0.382502
C	-1.4006746232	-0.5364363348	 0.0305614435	-0.200192
C	-1.4861363941	-2.0495380791	-0.1831198669	 0.000131
C	-2.9198463264	-2.6048662768	-0.2523936031	-0.247306
C	-2.7160757011	-3.9433851235	-0.9683705284	-0.067865
O	-1.5751392679	-3.7826010834	-1.8129574209	-0.265924
C	-0.9240506328	-2.5490487654	-1.5238180358	-0.063069
H	 0.9467814985	 2.041376625	 0.0842068188	 0.109346
H	-0.6243988617	 2.0034284384	-0.7307821377	 0.10946
H	-0.5401049518	 1.9269489028	 1.0347406948	 0.111194
H	 0.5138450454	-0.2067555584	-0.8965987642	 0.078067
H	 0.4090075144	-0.2594742429	 2.1690710841	 0.110589
H	 1.0126043319	-1.564932049	 1.1384329075	 0.11466
H	 1.8689040385	-0.0229478186	 1.1997436868	 0.110907
H	-1.9014590349	-0.2791915694	 0.9746564807	 0.089956
H	-1.9790484552	-0.0436199676	-0.7634846574	 0.089081
H	-0.9594345731	-2.5687793717	 0.6272434711	 0.078353
H	-3.3896647374	-2.7154159228	 0.7284907295	 0.100251
H	-3.5489012537	-1.9374891174	-0.8537342244	 0.101537
H	-2.5248381562	-4.7535679261	-0.2487841973	 0.091102
H	-3.5756659387	-4.2370986141	-1.5818967235	 0.099354
H	-1.1314122628	-1.8176018042	-2.3230031065	 0.083613
H	 0.1574176416	-2.7233362732	-1.5032125661	 0.1007
