18
gdb 74734	2.32076	2.17367	1.50948	1.6494	77.51	-0.223	-0.0003	0.2227	937.7209	0.147473	-401.793377	-401.786019	-401.785075	-401.824701	30.088	
C	 0.0513137544	 1.4284187116	 0.0806639657	-0.52347
C	 0.015325964	-0.0546174997	-0.035223816	 0.338879
C	 0.0557090042	-0.8758412512	-1.088425638	-0.177194
C	-0.0187015592	-2.231601568	-0.4201249166	-0.057626
O	 0.9676149778	-2.0732679314	 0.7171777771	-0.358624
C	-0.0592100013	-1.0583915905	 1.1362584649	 0.245729
C	-1.0414241513	-0.6460725283	 2.2689847023	-0.275086
N	-2.1188668326	-1.0546871165	 1.2509932641	-0.358564
C	-1.1061927595	-2.0348768678	 0.736596609	 0.039466
H	 0.8842481743	 1.7627976577	 0.7118464278	 0.129094
H	 0.1637363531	 1.8954248876	-0.9015872796	 0.127445
H	-0.8700598471	 1.8148739465	 0.5318911407	 0.139242
H	 0.1238934615	-0.6700479904	-2.1463373085	 0.105868
H	 0.1252638286	-3.1585005668	-0.9753467462	 0.082159
H	-1.0057476217	-1.2966388572	 3.1492358959	 0.118281
H	-1.0805841072	 0.4055434854	 2.5661455386	 0.114702
H	-2.9382848089	-1.4890681776	 1.670371815	 0.222341
H	-1.0854816591	-2.9403493533	 1.3542963536	 0.08736
