20
gdb 104128	3.65655	1.02875	0.97508	5.038	75.19	-0.2367	0.0398	0.2764	1294.3664	0.170744	-440.337562	-440.328243	-440.327299	-440.371574	35.24	
C	-0.2211857658	 1.7548647119	-0.2529080147	-0.413224
C	-0.2225807733	 0.2335725917	-0.0654364873	-0.220121
C	 0.747905266	-0.5193953664	-0.9855945579	 0.376092
O	 0.4246492561	-0.3111052555	-2.3606130843	-0.473624
C	 2.2455604873	-0.1626640511	-0.7328756543	-0.201891
N	 2.9355397901	-1.3916488786	-1.0566242641	-0.305347
C	 2.1488570441	-2.5125329986	-1.091715563	 0.406752
O	 2.5308521253	-3.6439297532	-1.2884501923	-0.380561
C	 0.7208610483	-2.043965532	-0.8023834331	-0.360007
H	 0.7634003692	 2.1925660341	-0.054485742	 0.121681
H	-0.5198766598	 2.0355785396	-1.269023756	 0.115471
H	-0.9324385045	 2.2288376374	 0.4291925596	 0.126475
H	 0.0224569003	-0.0080625079	 0.9757643147	 0.098566
H	-1.2296259578	-0.1560281635	-0.2526576973	 0.111685
H	 0.5449792942	 0.622132945	-2.5641077352	 0.278476
H	 2.5649686749	 0.6639097124	-1.3778475701	 0.101941
H	 2.4122624131	 0.1426619589	 0.3107258822	 0.102021
H	 3.9357382659	-1.4672485216	-1.1482423017	 0.250073
H	 0.4638187883	-2.326797636	 0.223856427	 0.122145
H	 0.0076836482	-2.5164182966	-1.4785730803	 0.143398
