18
gdb 19406	2.99072	2.17687	1.62265	1.5903	71.49	-0.2485	0.0733	0.3217	857.596	0.15416	-347.755743	-347.748434	-347.74749	-347.786889	29.072	
O	 0.1869835723	 1.3575752436	-0.214233576	-0.431075
C	 0.031287211	-0.025587837	-0.0075710033	 0.056689
C	 0.3135686465	-0.6343965484	 1.3715464973	-0.080736
C	-0.7426053888	-0.2540901479	 2.3791189398	-0.298733
C	-1.0653870321	-1.3123652584	 1.3651155477	-0.13301
C	-1.3899734829	-0.6415274575	 0.0450814353	 0.349932
C	-2.6649120137	 0.0339609036	-0.3709429198	-0.325597
C	-2.1601797119	-1.1836561127	-1.1156431666	-0.353384
H	-0.2573280959	 1.8143133234	 0.5082466771	 0.279822
H	 0.6367737373	-0.5056866647	-0.7820644687	 0.093223
H	 1.2666489366	-1.0406427046	 1.6875801565	 0.087768
H	-0.5467575766	-0.5995802067	 3.3892393628	 0.11424
H	-1.2528091634	 0.706579074	 2.3376202138	 0.098367
H	-1.310182981	-2.3323310957	 1.6342535322	 0.089785
H	-3.5411011203	-0.0763735649	 0.2600330861	 0.10996
H	-2.5749541064	 0.9981471746	-0.8617435745	 0.117058
H	-1.7508622676	-1.0441654545	-2.1117523005	 0.114801
H	-2.6969202531	-2.1177955861	-0.9817742691	 0.110891
