15
gdb 35834	2.08911	1.67075	1.02042	1.4799	82.12	-0.24	-0.0314	0.2086	1141.0457	0.110301	-383.419665	-383.411143	-383.410199	-383.453188	31.481	
C	-0.064875436	-1.163830929	 0.3496728955	-0.477438
C	-0.0190404167	 0.0148861362	 0.1222176346	 0.358656
C	 0.0340101649	 1.4527776741	-0.160571913	-0.178806
O	-0.7497510654	 2.2061438781	 0.7649727026	-0.259466
C	 0.0932583286	 2.998318912	 1.5979406149	-0.11199
C	 1.4572346303	 2.8977556235	 0.9882240427	-0.230231
C	 1.4483788605	 2.0260486111	-0.0238699981	 0.181233
C	 2.5077598416	 1.6305975423	-0.8670801299	 0.263601
C	 3.3785074804	 1.2724785349	-1.6183031658	-0.425806
H	-0.1056074133	-2.2058834418	 0.5511068381	 0.202179
H	-0.3640246831	 1.6292279123	-1.1697593071	 0.121647
H	-0.291368989	 4.0278810736	 1.614532032	 0.119833
H	 0.0785815907	 2.6268172221	 2.6357565713	 0.117949
H	 2.3163419991	 3.4517802184	 1.3420677815	 0.119913
H	 4.1557656473	 0.9592665523	-2.2705683894	 0.198724
