20
gdb 69438	2.73596	1.31256	1.2284	1.7846	84.18	-0.2335	0.0476	0.2811	1147.8599	0.17078	-365.968579	-365.959983	-365.959039	-366.001429	33.959	
C	 0.1999408018	 1.431620246	 0.3269008184	-0.475991
C	 0.0941860223	-0.0465361576	 0.0460301563	 0.35979
C	-1.01864927	-0.8620229957	 0.6054928156	-0.299203
N	 0.3385149286	-0.9812971959	 1.1681854854	-0.12279
C	 1.095607966	-2.1375852574	 0.6284486977	-0.156146
C	 0.9711699986	-2.0874805236	-0.9269655619	-0.257257
C	 0.7543003217	-0.5915819496	-1.2172349319	-0.269314
C	 2.4885832432	-2.0443694245	 1.0649146615	 0.3545
C	 3.6423285625	-1.9772892247	 1.394415165	-0.462003
H	 1.2473047641	 1.7529768448	 0.3276906345	 0.12285
H	-0.330841105	 2.0121207375	-0.4363229255	 0.114656
H	-0.2296744759	 1.6739610612	 1.302079663	 0.12696
H	-1.7372661734	-0.4014418574	 1.2777601071	 0.113247
H	-1.4223015608	-1.6833180842	 0.0184288219	 0.106804
H	 0.662020864	-3.0612849022	 1.0293484274	 0.10685
H	 1.8549567686	-2.496346656	-1.4182486825	 0.118486
H	 0.1130336025	-2.6816042223	-1.2516396841	 0.106754
H	 0.1553134231	-0.4206492067	-2.1170936378	 0.104133
H	 1.7143319201	-0.0832170737	-1.3619607778	 0.113292
H	 4.6564150679	-1.9169729082	 1.7033090075	 0.194381
