17
gdb 112498	3.67921	0.99338	0.86698	2.2715	77.11	-0.2302	-0.0332	0.197	1348.167	0.132706	-421.781125	-421.771745	-421.770801	-421.815846	33.529	
C	 0.1615571703	 1.2422335534	 0.2755035409	-0.251843
O	-0.0189032453	-0.029246758	-0.3293902272	-0.239626
C	-1.275445578	-0.5786999661	-0.0992039782	 0.040452
C	-1.5245847311	-1.9688383985	-0.7377490321	-0.283397
C	-2.2334446596	-2.4624417914	 0.5718962714	-0.308868
C	-1.9762043858	-3.7887933176	 1.0763784454	 0.323233
C	-1.7328626744	-4.8845729991	 1.5065721996	-0.427615
C	-1.5555940806	-1.2404650559	 1.2746803523	 0.366242
O	-1.2201271059	-1.0114053679	 2.3957019493	-0.284765
H	 1.1644180138	 1.5800185634	 0.0065886758	 0.13299
H	-0.5744768413	 1.96895332	-0.101574444	 0.10678
H	 0.0768202943	 1.1831227374	 1.3665618442	 0.141997
H	-2.0859113905	 0.1310469219	-0.3442116461	 0.088348
H	-2.1177450271	-1.9942653259	-1.6507713129	 0.120739
H	-0.5764971768	-2.486994541	-0.8890683939	 0.142353
H	-3.3123150135	-2.2687747967	 0.5145831843	 0.132538
H	-1.5220601784	-5.852352768	 1.8891805112	 0.200441
