19
gdb 95388	2.49805	1.76882	1.28082	2.6429	69.3	-0.2518	0.0568	0.3086	1016.5373	0.161946	-460.173959	-460.166206	-460.165261	-460.207097	29.815	
O	 0.0513009421	 1.4353010075	-0.2038650866	-0.423605
C	 0.0118617755	 0.0625348362	 0.1416361045	 0.099071
C	 0.233805666	-0.2172381581	 1.6388894071	-0.132483
O	-0.431422089	-1.4444742074	 1.8853105051	-0.25266
C	-1.5964167147	-1.5157730632	 1.0783128188	 0.225932
O	-2.7631939709	-1.1080622208	 1.7504047438	-0.253719
C	-3.0502226869	 0.2536094473	 1.433364342	-0.096012
C	-2.5716317806	 0.4370770537	-0.0119446639	-0.228226
C	-1.3873421911	-0.5436757288	-0.1196402902	-0.123595
H	 0.9559239504	 1.7460758052	-0.10088701	 0.28947
H	 0.753343569	-0.5001081715	-0.4428901076	 0.076571
H	 1.2859306598	-0.3445531897	 1.9127768073	 0.100634
H	-0.1822187288	 0.6112826523	 2.2322830003	 0.100552
H	-1.728644232	-2.5714681183	 0.8308489648	 0.088144
H	-4.1255788728	 0.403821785	 1.5617048471	 0.10805
H	-2.5274583258	 0.9326312591	 2.1225132578	 0.100848
H	-3.3605977958	 0.1365105532	-0.7066636228	 0.10471
H	-2.2820797875	 1.4629435957	-0.2407374952	 0.130744
H	-1.4000956968	-1.0734447473	-1.0723879623	 0.085573
