15
gdb 93395	2.88472	1.62206	1.23745	3.8008	60.74	-0.2779	-0.0279	0.25	979.6948	0.113258	-494.903527	-494.89613	-494.895186	-494.935697	27.934	
O	 0.0782477676	 1.4231354218	-0.0650152363	-0.427033
C	 0.0380625471	 0.01525756	-0.0071778414	 0.093204
C	 0.8055734124	-0.5469528823	 1.1880417917	-0.110057
O	 0.1225829169	-0.3887174395	 2.4484970252	-0.234476
C	-1.1372920455	-0.8627475737	 2.5739567552	 0.43084
O	-1.5889778656	-1.1432500231	 3.6484960274	-0.317729
C	-1.964634908	-0.9304796421	 1.312684279	-0.093948
O	-2.2752929758	 0.3655116705	 0.7674540277	-0.240663
C	-1.4076236208	-0.4869713433	 0.0216916113	-0.00832
H	-0.6283457036	 1.7417653692	 0.5123338477	 0.300171
H	 0.5324595265	-0.3519140879	-0.9137997895	 0.101173
H	 1.0180695607	-1.6130078169	 1.0343245918	 0.114567
H	 1.7489169755	-0.012115958	 1.3073684023	 0.142481
H	-2.8049437659	-1.6166859689	 1.3672581038	 0.132825
H	-1.8399648316	-0.8701031358	-0.9001899459	 0.116967
