16
gdb 69207	2.67814	1.66181	1.1989	2.8836	71.28	-0.2749	-0.0228	0.252	1032.3511	0.124812	-437.937223	-437.929476	-437.928532	-437.969383	29.502	
C	-0.0189807073	 1.5330220354	 0.0049372291	-0.482507
C	 0.0688919332	 0.0290680211	 0.036208942	 0.166023
C	-0.8132718055	-0.8173860291	 0.9307774719	-0.323524
C	 0.6840439455	-0.8215870965	 1.1323609455	-0.166254
C	 1.3930905991	-1.9236484303	 0.4373348912	 0.422594
N	 2.1751561283	-2.7650993915	 0.9466052272	-0.530694
O	 1.0725745306	-1.8761367051	-0.9187581954	-0.232538
C	 0.4281364586	-0.6842157582	-1.232180605	 0.409855
O	 0.2456997363	-0.3490046794	-2.3615263289	-0.324495
H	 0.9359720413	 1.9800153121	-0.2869189174	 0.138184
H	-0.7736724915	 1.8518377916	-0.7194145606	 0.150426
H	-0.2956595534	 1.9255071629	 0.987137	 0.124684
H	-1.3936770019	-0.271953797	 1.6664599646	 0.136467
H	-1.296904971	-1.7031980602	 0.5343727217	 0.144242
H	 1.1171651274	-0.4166403389	 2.0362998456	 0.12963
H	 2.5401395803	-3.4029582371	 0.2375582885	 0.237908
