18
gdb 105703	3.10951	0.92011	0.81736	3.1418	69.33	-0.2547	0.028	0.2826	1418.481	0.14649	-476.21859	-476.209071	-476.208126	-476.254234	33.702	
O	 0.3651492714	 0.8902559716	 0.7323900544	-0.412694
C	 0.0538800275	-0.1345936143	-0.1951489636	-0.130527
C	-1.4155089097	-0.5020398206	-0.1358903587	 0.351494
C	-2.3732869522	 0.6091584312	-0.5389721782	-0.232102
N	-3.7395506289	 0.317168868	-0.1601274925	-0.279602
C	-4.7858798301	 0.4036213056	-1.0238302018	 0.152176
O	-4.7114639125	 0.7573162263	-2.1816508217	-0.322714
C	-1.8211057594	-1.9098929005	-0.1600706732	-0.220485
O	-1.7715475565	-1.1897920584	 1.0835388146	-0.288798
H	 0.1523914681	 0.5451337562	 1.6073276583	 0.294635
H	 0.3072920484	 0.2582832469	-1.1857842448	 0.121365
H	 0.6605534815	-1.0347001232	-0.021397218	 0.09735
H	-2.0256429495	 1.5387292578	-0.0721614551	 0.132852
H	-2.3606971038	 0.7541653808	-1.6225802914	 0.154806
H	-3.8924547474	-0.0308320508	 0.7738845003	 0.257771
H	-5.7388470779	 0.1108187151	-0.5404766765	 0.076946
H	-2.8206959123	-2.1718121362	-0.499114091	 0.126029
H	-1.0679341266	-2.6875458555	-0.2734994414	 0.121496
