20
gdb 53554	4.19407	0.78599	0.7504	1.4769	87.87	-0.2383	0.0587	0.297	1613.4489	0.170321	-365.951153	-365.941625	-365.940681	-365.987983	34.134	
C	 0.0433066718	 1.5014275507	-0.2137267834	-0.495582
C	 0.0489389799	 0.0556124466	-0.040393264	 0.055952
C	 0.0665100584	-1.1403923719	 0.097063945	 0.068112
C	 0.0495559679	-2.5922029913	 0.2715864945	-0.448234
C	-1.3475659317	-3.1624295026	 0.2133787751	 0.36741
C	-2.4696183961	-2.9014398951	 1.233920533	-0.286032
C	-2.9864058635	-4.3601012291	 0.993088603	-0.235741
C	-1.8514784262	-4.5613970612	-0.0208152544	-0.098277
N	-1.9003283334	-3.5515619364	-1.0765480735	-0.346903
H	 0.7767929122	 1.8152113042	-0.9648715286	 0.147018
H	-0.9384842671	 1.8595502674	-0.5432754233	 0.145184
H	 0.2862745819	 2.0184652216	 0.7213711113	 0.14429
H	 0.651729652	-3.0740555048	-0.5074405433	 0.136832
H	 0.5082058746	-2.8518241561	 1.235528057	 0.121434
H	-2.1010765405	-2.7572628807	 2.2527064886	 0.107674
H	-3.1455819338	-2.0759679172	 0.9892326329	 0.099568
H	-2.8914105846	-4.9860620604	 1.8836214088	 0.107039
H	-4.000086432	-4.4738229605	 0.5937481692	 0.097496
H	-1.3148079807	-5.4816847888	-0.2245979774	 0.091625
H	-2.8400315289	-3.1917315344	-1.2375090604	 0.221136
