17
gdb 35066	2.50614	1.50512	1.47732	5.0971	72.58	-0.2314	0.0305	0.262	996.0554	0.138278	-417.988538	-417.980827	-417.979883	-418.020878	29.473	
N	-0.4213695015	-1.1086140704	-0.129596442	-0.356084
C	-0.2638754234	 0.0368881271	-0.0725133716	 0.327554
C	-0.0791129225	 1.4524907131	-0.020388921	-0.277357
C	 0.5072013786	 2.1013514488	 1.2647036276	-0.062034
N	 0.9411620988	 1.2407280515	 2.317167584	-0.293615
C	 2.388158887	 1.0552245538	 2.3602821055	-0.177242
C	 2.8197181176	 0.4702766674	 1.0222401171	-0.06657
O	 2.4999987566	 1.3433923587	-0.069931386	-0.258232
C	 1.3296021792	 2.0719788795	 0.017736322	 0.114007
H	-0.8230657554	 2.024522375	-0.5656181911	 0.127773
H	 0.0515081576	 3.0481925878	 1.5471364111	 0.10289
H	 0.53338739	 1.478112366	 3.2084687057	 0.235873
H	 2.9468867865	 1.9875046126	 2.5527573198	 0.09294
H	 2.6306173267	 0.3431591407	 3.1547301769	 0.116174
H	 3.9041127438	 0.3401713646	 0.9790854923	 0.113645
H	 2.3345379865	-0.5011068638	 0.8749125071	 0.139831
H	 1.421202674	 2.9896408878	-0.5544331875	 0.120449
