15
gdb 42722	3.83094	1.31476	1.21448	2.0082	76.2	-0.2514	-0.0076	0.2438	1025.2388	0.111974	-383.436981	-383.429617	-383.428673	-383.468676	28.92	
C	-0.0990134954	-1.3018336142	-0.1215747361	-0.427905
C	-0.0338791209	-0.1047457514	-0.0353505103	 0.329725
C	 0.0038189315	 1.3425299839	 0.0279156245	-0.21466
C	-0.0838287635	 2.0589807522	 1.4275481052	-0.186508
C	 1.1756006992	 1.5663753798	 2.1162626073	-0.081504
C	 2.1156090789	 1.5840061961	 1.153268534	-0.0815
C	 1.3875672963	 2.086568051	-0.0798330838	-0.186504
C	 0.6164589698	 3.2601590696	 0.6610223532	 0.409647
O	 0.5780541	 4.442649189	 0.6451758893	-0.293207
H	-0.1475213206	-2.3605739657	-0.1881861123	 0.195789
H	-0.7211194778	 1.7760465585	-0.6717901225	 0.117155
H	-1.0155854298	 2.1499140005	 1.9792110039	 0.093643
H	 1.2789634576	 1.3723584817	 3.1735793966	 0.116094
H	 3.1784999311	 1.4079835624	 1.2275953021	 0.116094
H	 1.9146480434	 2.2048557565	-1.0226827411	 0.093643
