13
gdb 3727	7.20798	1.96805	1.68951	1.166	54.44	-0.2903	-0.0227	0.2676	732.5749	0.102894	-340.645686	-340.639404	-340.63846	-340.676378	21.918	
C	 0.0779052325	 1.5410163945	 0.0568520554	-0.380287
C	-0.0602891503	 0.0151305615	-0.0610923182	-0.287627
C	 0.6509648136	-0.5293171445	-1.2559457611	 0.376844
N	 0.0330275718	-1.1559662484	-2.2227466145	-0.176154
O	 1.0638273512	-1.4794425065	-3.1201464639	-0.153163
C	 2.1827497036	-1.0021378079	-2.5777788985	 0.109043
N	 2.0183202561	-0.4079202077	-1.4412365173	-0.30535
H	 1.1307045475	 1.8313720317	 0.1022535343	 0.142367
H	-0.3774158334	 2.0430505418	-0.8019622642	 0.1283
H	-0.4185518021	 1.8984163137	 0.9631292476	 0.120701
H	 0.3610827682	-0.460695814	 0.8320258012	 0.128887
H	-1.1115145794	-0.2782370254	-0.1239939995	 0.131311
H	 3.1002149407	-1.1555596586	-3.1273764212	 0.165127
