18
gdb 46361	2.98267	1.26039	1.07632	4.1425	71.65	-0.2407	-0.0324	0.2083	1159.0342	0.147583	-439.044854	-439.03645	-439.035506	-439.079176	30.18	
O	 0.1206007942	 0.0590181187	-0.6138936825	-0.283509
C	 0.0258736124	 1.1784072643	-0.209704919	 0.385734
C	-1.1117518333	 2.0553733915	 0.3341553168	-0.278259
N	-0.0819399465	 3.0460471797	 0.7465552494	-0.32805
C	 1.0099191184	 2.3496110805	 0.0033045306	-0.121277
C	 2.292855966	 2.1283564746	 0.7834354023	-0.033967
C	 2.2354088218	 1.2919052867	 2.0799069327	-0.076991
O	 3.252877321	 0.3931422838	 1.5946179917	-0.272828
C	 3.2595197267	 1.0209749187	 0.2962462698	-0.090066
H	-1.7970623901	 2.3760715146	-0.4631121191	 0.125614
H	-1.7019266914	 1.6376883883	 1.1568910236	 0.137839
H	-0.265238726	 3.9900389059	 0.4281974787	 0.227131
H	 1.2441377447	 2.8017820602	-0.974851927	 0.096399
H	 2.791026159	 3.0902102509	 0.9327323091	 0.086644
H	 2.5379702447	 1.799819893	 3.002099412	 0.103642
H	 1.2814283323	 0.7777682112	 2.2570106496	 0.101559
H	 2.8432058519	 0.3629152412	-0.4760250627	 0.121286
H	 4.263808744	 1.3444159564	-0.0007649561	 0.0991
