20
gdb 82336	2.21045	1.66909	1.32235	4.0695	81.42	-0.2796	0.034	0.3136	1071.0226	0.172956	-366.036233	-366.027994	-366.027049	-366.068773	32.227	
C	 0.0255008138	 1.5967139786	-0.0596581571	-0.406958
C	 0.1059419999	 0.0702041259	-0.0181234872	 0.00605
C	 0.7507526975	-0.5862523678	-1.2333528232	-0.026699
C	 2.2576144629	-0.604686549	-1.3328946231	-0.305443
C	 1.524020641	-1.8031437484	-0.7823634739	-0.030843
C	 1.3871267638	-1.9249555599	 0.7272746604	-0.235826
C	 0.8791899002	-0.5296446466	 1.2095364012	-0.189186
C	 1.974662473	 0.3181117407	 1.6816194667	 0.294223
N	 2.8375957008	 0.9825085879	 2.071500135	-0.352926
H	 1.0188358362	 2.0460615007	-0.1441594306	 0.141655
H	-0.5671322415	 1.9202350312	-0.9209903972	 0.115208
H	-0.4494190585	 1.9973479029	 0.8418284211	 0.118665
H	-0.9155498746	-0.3254053347	 0.0565567075	 0.084754
H	 0.1757988316	-0.5965830584	-2.1531295374	 0.084902
H	 2.6770947995	-0.7061617148	-2.3279082338	 0.113905
H	 2.8542527198	 0.012874611	-0.6702831035	 0.142326
H	 1.5201702412	-2.7185649586	-1.3633006357	 0.086779
H	 0.6277261178	-2.6767517319	 0.9675117041	 0.109393
H	 2.310410383	-2.2181927099	 1.2349065685	 0.123586
H	 0.1976381426	-0.6416914988	 2.0583882781	 0.126435
