21
gdb 95458	2.77047	1.16372	0.93476	0.6782	90.23	-0.2334	0.0216	0.255	1329.6403	0.1818	-349.941976	-349.932557	-349.931613	-349.97637	35.652	
C	 0.0160827213	 1.5963466654	-0.0723945917	-0.398433
C	 0.0700322046	 0.0672725479	 0.0190776532	-0.059616
C	 0.7312926622	-0.5992996473	-1.215331996	-0.212511
C	 1.440206889	-1.8677936785	-0.6841629815	-0.254973
C	 1.5987531512	-1.5660011759	 0.7850282114	-0.169605
C	 0.8721562973	-0.5180281152	 1.1751820297	 0.339958
C	 0.7455871893	-0.0259706556	 2.5997072526	-0.465506
C	 1.4326065943	 1.239502046	 2.8621967008	 0.323453
C	 2.0113022889	 2.268563582	 3.0878143785	-0.470091
H	 1.0216983075	 2.0209953468	-0.1514395616	 0.122329
H	-0.5541975699	 1.9020790626	-0.9563863257	 0.10692
H	-0.4626153685	 2.0426396012	 0.8041342147	 0.117862
H	-0.9675362676	-0.2926966017	 0.1207809182	 0.072782
H	 0.0157478354	-0.808262477	-2.0152350899	 0.09319
H	 1.4803791592	 0.089255877	-1.6228924498	 0.101973
H	 0.8280146439	-2.7701232533	-0.8276307539	 0.103156
H	 2.392782578	-2.0626560722	-1.1898111954	 0.101964
H	 2.2037827557	-2.1767377309	 1.4480256912	 0.085021
H	-0.3176895712	 0.088976434	 2.8560311733	 0.131687
H	 1.1418292862	-0.7891425508	 3.2803304311	 0.135307
H	 2.5191329133	 3.1800134755	 3.2838701607	 0.195134
