21
gdb 89018	3.94276	0.741	0.66435	2.0568	80.56	-0.2615	0.0212	0.2826	1745.8548	0.180153	-424.256808	-424.246313	-424.245369	-424.294485	36.486	
C	 0.118935046	 1.520174613	-0.2627503804	-0.407804
C	 0.1279991958	 0.0255374533	-0.0184256591	 0.000285
C	 1.4194678566	-0.7441329683	 0.098297979	-0.286335
C	 0.5175608107	-0.6056695478	 1.302719454	-0.018678
C	 0.9406618457	 0.2165153794	 2.4850387966	-0.085572
O	 1.7891436002	-0.6126678302	 3.3112545262	-0.241032
C	 2.304748209	-0.0147071242	 4.4038602238	 0.429592
C	 3.1561434455	-0.9836407812	 5.1905065937	-0.477305
O	 2.1017904905	 1.1374730111	 4.6957324577	-0.353096
H	 0.9682098856	 2.0219648949	 0.2092980064	 0.120546
H	 0.1751382575	 1.7304932204	-1.3363704237	 0.120041
H	-0.7969796089	 1.9854551734	 0.1182452956	 0.119905
H	-0.6755171016	-0.4974533525	-0.5309883862	 0.087003
H	 1.506057645	-1.7139944438	-0.378629826	 0.11187
H	 2.3409708113	-0.1693252257	 0.1043698534	 0.111569
H	-0.0458880138	-1.4924406855	 1.5800490496	 0.089627
H	 1.4981367184	 1.1114651493	 2.1973774212	 0.118323
H	 0.0851558654	 0.5442736927	 3.0855384554	 0.118448
H	 3.9492291208	-1.3893594519	 4.5563752593	 0.148088
H	 3.5884194675	-0.472263242	 6.0496679877	 0.146294
H	 2.547101573	-1.8274224246	 5.5276458758	 0.148231
