18
gdb 16442	4.12346	1.911	1.71806	1.7834	70.82	-0.2384	0.0708	0.3093	837.7956	0.154526	-347.745384	-347.738523	-347.737579	-347.77598	27.497	
C	-0.0044011146	 1.5483924937	 0.0223685601	-0.507926
C	 0.0346044403	 0.0470238628	 0.0151992406	 0.361171
C	-0.8777686141	-0.8224151507	 0.8266999479	-0.340961
C	 0.608493185	-0.9606075588	 1.0358236122	-0.123485
C	 1.2944692179	-1.7611026237	-0.0934777477	-0.062582
C	 0.490910887	-2.8528734936	-0.8296169037	-0.108973
O	-0.1325831133	-1.8623495584	-1.6916508126	-0.298965
C	 0.6715034917	-0.8001713983	-1.1183359557	 0.050848
H	 0.9610866898	 1.9799631897	-0.2665149341	 0.115404
H	-0.7598554545	 1.9286092575	-0.6763127781	 0.124858
H	-0.2540847217	 1.9305774287	 1.0177093324	 0.118159
H	-1.3944784454	-0.3068087443	 1.6307845211	 0.107109
H	-1.465364287	-1.5989534104	 0.3489304717	 0.128004
H	 1.0584978462	-0.7645377387	 2.0022756452	 0.08477
H	 2.3710695998	-1.8883803042	 0.0062719872	 0.077845
H	 1.1066290158	-3.5480795808	-1.4136574495	 0.100281
H	-0.2432633779	-3.4218417116	-0.2473932572	 0.102551
H	 1.2393498449	-0.2448303188	-1.8700704998	 0.071892
