19
gdb 73573	2.36273	1.93366	1.47315	2.5422	73.14	-0.2384	0.0744	0.3127	967.4428	0.160281	-422.985887	-422.978413	-422.977469	-423.017465	29.968	
C	-0.080749777	 1.4751925389	 0.0382112798	-0.486005
C	 0.0015969105	-0.040681141	-0.0405065461	 0.304583
C	-1.3569327878	-0.7640125269	-0.1105317911	-0.144872
O	-1.5694915098	-1.3095977097	 1.1902346657	-0.256757
C	-0.3102217173	-1.7643371555	 1.6866393559	-0.099264
C	 0.7196240536	-0.7522315802	 1.167445241	-0.109701
C	 1.8138499682	-1.2193275776	 0.1835302406	 0.008585
O	 1.1719969832	-1.9973903401	-0.8348135754	-0.241203
C	 1.1417206549	-0.5714486343	-0.9511687916	-0.038577
H	 0.9070030536	 1.9228958569	 0.1959515216	 0.11561
H	-0.4926105374	 1.8975081888	-0.8857905245	 0.118952
H	-0.7269759136	 1.7820800725	 0.8670060809	 0.131012
H	-2.1958057785	-0.0936244305	-0.3188627739	 0.101064
H	-1.3360654098	-1.5598148004	-0.8672972509	 0.103459
H	-0.3861419747	-1.7971406364	 2.776590296	 0.103674
H	-0.0862472679	-2.7730255411	 1.3130567436	 0.102827
H	 1.08529983	-0.0568743906	 1.9255607664	 0.079658
H	 2.8630490043	-1.418092275	 0.3685059639	 0.105679
H	 1.5390157553	-0.1368109878	-1.8621961718	 0.101276
