23
gdb 101707	3.56957	0.7379	0.67407	1.7821	82.15	-0.2567	0.0721	0.3288	1728.8741	0.202996	-425.408702	-425.39777	-425.396826	-425.445394	39.282	
C	 0.7289726767	 1.3132672189	 0.3428683283	-0.389417
C	 0.0330475728	-0.017949986	 0.030348544	 0.031586
C	 0.4467003381	-0.5441110758	-1.3446979375	-0.079914
O	 0.0654045827	 0.4107060652	-2.3245026539	-0.42416
C	 0.2924602818	-1.0895175496	 1.1041149447	-0.241161
C	-0.2983546398	-0.7365905248	 2.4505308746	 0.066638
O	-0.0291399474	-1.6272694404	 3.5389112906	-0.271807
C	 0.454120584	-0.2826309912	 3.6353304774	 0.084792
C	 1.9469380241	-0.0853046648	 3.6951864733	-0.420057
H	 1.8129749698	 1.1720267573	 0.4352914095	 0.10613
H	 0.5498747846	 2.0325654209	-0.4588998989	 0.135112
H	 0.3676414397	 1.7432705843	 1.281454641	 0.111981
H	-1.0501467542	 0.1635841842	-0.0207636319	 0.08367
H	 1.536461634	-0.7161134554	-1.3602261634	 0.082393
H	-0.0412301051	-1.5145694519	-1.5296430408	 0.08373
H	 0.3842911623	 0.1096404094	-3.1798557097	 0.287086
H	-0.159111148	-2.0394236188	 0.7873266461	 0.105736
H	 1.3675585273	-1.2771626605	 1.1986458828	 0.099493
H	-1.3464855536	-0.4278527079	 2.3971827998	 0.084485
H	-0.1022757091	 0.3240396139	 4.3543268108	 0.084566
H	 2.4697345409	-0.707153021	 2.9659712784	 0.127591
H	 2.2018286295	 0.9636394218	 3.5090680514	 0.122956
H	 2.3199077989	-0.3491843081	 4.6905006236	 0.128571
