19
gdb 46501	3.74999	1.23943	1.06713	3.0147	77.53	-0.2333	0.0216	0.2549	1159.4096	0.16166	-419.196956	-419.189007	-419.188063	-419.229543	31.125	
N	-0.0726490315	 1.2604580498	-0.3553238644	-0.506774
C	-0.004773332	 0.0513964054	 0.0128915379	 0.374361
C	-1.2593473164	-0.7937987369	 0.1463819739	-0.248905
N	-1.1951059882	-1.8540418519	 1.1565272513	-0.347964
C	 0.0439109497	-2.5839684693	 1.0194097907	 0.322217
C	 0.1000418276	-3.9746384025	 1.5827847746	-0.329406
C	 0.0183701461	-3.770079524	 0.0879923243	-0.281872
C	 1.266258692	-1.7056490357	 1.0935479071	-0.138161
O	 1.1938248305	-0.5761568777	 0.2023086747	-0.251456
H	 0.8680642035	 1.653666785	-0.4394081367	 0.215971
H	-2.1017191668	-0.1295154147	 0.3427164767	 0.135646
H	-1.4373853405	-1.2688085582	-0.8274519777	 0.133885
H	-1.2477416123	-1.443062709	 2.0858850335	 0.220895
H	 1.0359719666	-4.3222636643	 2.0075909274	 0.115223
H	-0.7909870899	-4.3264346394	 2.0895641198	 0.125641
H	-0.926230611	-3.9916850523	-0.3942273371	 0.126564
H	 0.8999092484	-3.9751547901	-0.5093194614	 0.118059
H	 1.390922515	-1.3218601847	 2.1174906932	 0.101896
H	 2.1797642292	-2.2397702197	 0.8179603421	 0.11418
