23
gdb 119272	2.52944	0.9239	0.74474	1.3397	84.26	-0.2472	0.0872	0.3345	1634.399	0.203285	-425.389336	-425.378529	-425.377584	-425.425962	38.155	
C	 0.198377793	 1.7102767386	-1.2679692488	-0.22298
O	 0.1075655394	 0.3222484442	-1.4725503648	-0.238034
C	 0.5672537337	-0.4281406765	-0.3686284895	-0.127212
C	 0.3953341551	-1.9103556682	-0.6422828073	 0.314619
C	 0.8936405855	-2.7872534885	 0.4789132172	-0.139077
O	 0.1511955028	-2.5149667789	 1.6530267394	-0.236456
C	 0.5945149724	-3.2548426837	 2.7635170486	-0.221748
C	-0.8046855066	-2.3730265657	-1.4275996208	-0.285641
C	 0.5705443443	-2.4211544384	-2.0508118687	-0.313148
H	-0.4002880608	 2.0356326334	-0.4025460885	 0.105382
H	 1.2391039553	 2.0321675161	-1.1030472496	 0.102842
H	-0.1838425114	 2.2002621786	-2.1669324788	 0.125431
H	 1.6334677604	-0.2060925037	-0.1771568692	 0.078351
H	 0.010596699	-0.1552639999	 0.5413429275	 0.105556
H	 0.7925699106	-3.8493869739	 0.1989652143	 0.08234
H	 1.9674674679	-2.6024031981	 0.6651453913	 0.081659
H	-0.029511079	-2.9749571344	 3.615877448	 0.126108
H	 0.500652045	-4.3401734819	 2.5967207828	 0.102004
H	 1.6473877025	-3.038774191	 3.0074984071	 0.101444
H	-1.2745704881	-3.3053723957	-1.1334998427	 0.106113
H	-1.4834484558	-1.6096710951	-1.7874455454	 0.124637
H	 0.7952472529	-1.6873200672	-2.8148967163	 0.125744
H	 1.0432568721	-3.38804719	-2.1905988057	 0.102068
