23
gdb 57590	2.25261	1.34124	1.19812	2.5314	85.16	-0.2415	-0.017	0.2245	1212.5359	0.202592	-388.294517	-388.283976	-388.283032	-388.330022	39.614	
C	 0.1675424895	 1.5204055287	 0.1359052866	-0.420842
C	 0.0231541359	-0.0049767394	 0.0177469759	 0.099243
C	 0.5200596736	-0.6635279817	 1.3242608195	-0.453557
C	-1.4497351078	-0.3916727835	-0.1087253594	 0.153366
O	-2.3780440563	 0.3743216013	-0.141737481	-0.258028
C	 0.7249078195	-0.5422580177	-1.2549451789	 0.357108
C	 0.2782645617	 0.1273899126	-2.5494750017	-0.470565
C	 2.1726983942	-0.9739228096	-1.2131427946	-0.320305
C	 1.0867910607	-2.0091911389	-1.3750593342	-0.314738
H	 1.2244512947	 1.8042208103	 0.1214378653	 0.110525
H	-0.3474436966	 2.0406931445	-0.6731463926	 0.13191
H	-0.2709499708	 1.8738330834	 1.072995103	 0.11902
H	-0.0509219588	-0.2751586357	 2.1732765974	 0.129192
H	 0.4053160773	-1.7509686495	 1.3224520602	 0.121884
H	 1.5724667726	-0.4289784464	 1.5047280434	 0.128663
H	-1.6155566417	-1.4928978787	-0.1699328712	 0.073655
H	 0.5813852766	 1.1778265488	-2.5891455831	 0.124054
H	 0.7249067879	-0.3753356193	-3.412289178	 0.112678
H	-0.8099234777	 0.0916247186	-2.6722904572	 0.1289
H	 2.7878550585	-0.731149445	-2.073260783	 0.11198
H	 2.7092768254	-0.9512012178	-0.2722955468	 0.111703
H	 0.9051104002	-2.6798148041	-0.5436345537	 0.11228
H	 0.9580089416	-2.4761671007	-2.3456413659	 0.111874
