22
gdb 117631	2.45282	0.93636	0.88879	3.8892	78.59	-0.2392	0.0352	0.2744	1461.1393	0.191399	-441.518005	-441.50654	-441.505596	-441.555463	41.075	
C	 0.319847774	 1.5088753212	 0.2127877794	-0.453389
C	 0.1635818428	-0.022351564	 0.1958085842	 0.142477
C	 0.7880510841	-0.6220271832	 1.4735790206	-0.406177
C	-1.3267481228	-0.4322737952	 0.0480976193	-0.171409
C	-2.2582764604	-0.0311003073	 1.1882687553	-0.10214
O	-3.5689857374	-0.4205665375	 0.7987151844	-0.418929
C	 0.8820327887	-0.7000136734	-0.9979025848	 0.41017
N	 1.4086858233	 0.1104471573	-1.9596605365	-0.538813
O	 0.9649534099	-1.9124422472	-1.0743324816	-0.385307
H	 1.374865613	 1.8033694766	 0.2113129551	 0.117605
H	-0.1796406666	 1.9835488902	-0.6399953316	 0.113747
H	-0.1257197914	 1.932727488	 1.1169547057	 0.12361
H	 0.3021538255	-0.2309634389	 2.3720172964	 0.107008
H	 0.7003357005	-1.7098518666	 1.4625716765	 0.143331
H	 1.8523353013	-0.3711629067	 1.5378950476	 0.112551
H	-1.7299348375	 0.004342833	-0.8745310916	 0.101304
H	-1.3736799278	-1.5180641199	-0.072906412	 0.131603
H	-1.9615116497	-0.5324183262	 2.1213384928	 0.090854
H	-2.2127378877	 1.0543781439	 1.3697076591	 0.080718
H	-4.1668971479	-0.2288573425	 1.5269112535	 0.284714
H	 1.3200784639	 1.1092131047	-1.9494766327	 0.25757
H	 1.8333882022	-0.3331210964	-2.7576203193	 0.258902
