17
gdb 108286	2.79929	1.40951	1.09409	4.4792	68.18	-0.2595	-0.0129	0.2466	1127.0791	0.135137	-458.962614	-458.95443	-458.953486	-458.995708	30.191	
C	-0.0258341331	 1.5863153287	 0.0214023103	-0.387166
C	 0.0598083939	 0.0590948581	 0.142518495	-0.285008
C	-1.2840121253	-0.6033182379	 0.0182174994	 0.411383
C	-2.3756852032	-0.5046706802	 1.0991718245	-0.12728
O	-2.6730648654	-1.9208863166	 0.9767721469	-0.284915
C	-1.6351139486	-2.1064407245	-0.0051724103	-0.153742
C	-2.1538714054	-1.8048733617	-1.4231320941	 0.450413
O	-2.6462539669	-2.3759038409	-2.3386528266	-0.316375
O	-1.874879375	-0.4542983557	-1.3216371097	-0.290983
H	 0.9672794777	 2.0362994452	 0.1003197072	 0.12412
H	-0.4566779877	 1.8737684501	-0.94145242	 0.146133
H	-0.6501048782	 2.0152469267	 0.8125772488	 0.122431
H	 0.7204741688	-0.342827968	-0.6340966131	 0.118052
H	 0.4947540904	-0.2232700936	 1.1086597624	 0.114031
H	-2.0040167726	-0.2708422264	 2.1033150819	 0.116126
H	-3.2297158445	 0.1321959699	 0.8512238998	 0.129018
H	-0.989501795	-2.9656786533	 0.1782342175	 0.113762
