12
gdb 23978	6.22808	0.95137	0.8253	1.547	82.76	-0.2357	-0.0459	0.1899	1281.8039	0.076234	-398.310765	-398.303149	-398.302204	-398.342949	28.335	
C	 0.1160734526	-1.1611586446	-0.0054507644	-0.347018
C	 0.0128296952	 0.036634511	 0.0028213964	 0.245025
C	-0.0996986299	 1.4418167128	 0.0124086094	 0.23983
N	-1.1781412045	 2.1665285033	 0.0314491799	-0.346995
C	-0.7192750787	 3.4811573318	 0.0325900292	 0.099386
C	 0.6463174848	 3.4615977098	 0.0135193806	-0.103089
O	 1.0571473229	 2.1728731232	 0.0004755773	-0.162423
C	-1.5776208675	 4.6043444701	 0.0508841456	 0.181979
C	-2.2961028517	 5.5688812907	 0.0663292724	-0.372737
H	 0.1986825647	-2.2202826555	-0.0126413072	 0.206564
H	 1.4072267013	 4.2223851726	 0.0072881281	 0.165412
H	-2.9370472491	 6.4153583446	 0.0800295626	 0.194066
