18
gdb 42423	4.44378	0.78228	0.74362	3.668	82.64	-0.252	-0.0249	0.2271	1559.7692	0.146908	-401.932344	-401.923199	-401.922255	-401.967422	33.311	
O	 0.0913551861	-0.1473400925	 0.3854441862	-0.362416
C	-0.047548366	 1.0343569605	 0.1267241906	 0.292794
N	 0.9747432049	 1.879780298	-0.2005096363	-0.337312
C	 2.35247166	 1.4668757487	-0.2784876138	 0.0789
C	 3.1608829314	 1.760008302	-1.5725047606	-0.239001
C	 4.3947219903	 2.0423515658	-0.6720094568	-0.210557
C	 3.4266758266	 2.250923717	 0.5248014944	-0.239014
C	-1.3522891767	 1.6877993891	 0.1392708859	 0.202617
C	-2.4408700152	 2.1980554948	 0.157908103	-0.399928
H	 0.7420828343	 2.8413995606	-0.3958395258	 0.250314
H	 2.3683094533	 0.4046827488	-0.0318793495	 0.128216
H	 3.2254078999	 0.9671374057	-2.3207836431	 0.109463
H	 2.8048576503	 2.6742220598	-2.0595113034	 0.096333
H	 5.0138234679	 1.1509615642	-0.541819538	 0.112223
H	 5.0400997651	 2.8774441359	-0.9492618834	 0.102951
H	 3.1459596136	 3.3042213562	 0.6319546221	 0.09633
H	 3.7103014334	 1.8627481653	 1.5054162255	 0.109461
H	-3.4093940192	 2.6351261201	 0.1784282629	 0.208624
