15
gdb 11203	4.42932	1.38677	1.23108	2.2392	63.07	-0.2622	-0.0362	0.226	972.1539	0.119137	-399.826346	-399.818919	-399.817975	-399.859041	26.277	
N	-0.2471689882	 1.0229572634	 0.6574336934	-0.534703
C	-0.1224340064	-0.1219495264	 0.1458888498	 0.418626
C	-1.1513204492	-0.8211397855	-0.7180297225	-0.32583
C	-0.68926631	-2.2940193288	-0.7355065895	-0.113172
C	 0.8244822183	-2.1382013109	-0.4592839219	-0.111803
O	 0.9733247818	-0.929961813	 0.293900658	-0.232376
C	-1.3591034633	-3.0945999461	 0.3634308942	 0.163786
O	-2.0039310384	-4.0932468001	 0.1796542789	-0.246202
H	 0.5919059744	 1.2801712254	 1.1798359759	 0.227129
H	-2.1583079439	-0.6663799066	-0.3267295073	 0.15059
H	-1.1254532693	-0.3993427962	-1.7277500785	 0.146294
H	-0.8826360715	-2.7973380959	-1.6839915955	 0.107729
H	 1.2508065871	-2.9551668971	 0.1297681809	 0.132049
H	 1.3851054029	-2.0567003674	-1.3979625447	 0.125458
H	-1.2087493842	-2.6852620449	 1.3897993289	 0.092427
