19
gdb 61994	4.07175	0.77158	0.74209	5.8775	76.98	-0.2427	-0.0295	0.2133	1571.841	0.156502	-419.230587	-419.220027	-419.219082	-419.267539	36.467	
C	-0.7884071643	 1.286561002	-0.0406613112	-0.383813
C	-0.1132600035	-0.1009160516	 0.0184401881	-0.109575
N	-1.0011799053	-1.2609250718	 0.1204265836	-0.278449
C	-1.7513548093	-1.3682455076	 1.3568877397	-0.266875
C	-3.1829164406	-0.8225701842	 1.2839363361	 0.38437
C	-3.9777232597	-0.830839249	 2.5731534074	-0.47749
O	-3.6449445432	-0.4392933167	 0.2333791298	-0.298305
C	 0.7499372816	-0.2829020411	-1.1629764213	 0.278499
N	 1.4187446162	-0.396162314	-2.0979609297	-0.318258
H	-0.0381750571	 2.0769677444	-0.1348264132	 0.134183
H	-1.471388832	 1.3450150813	-0.8912381528	 0.149065
H	-1.3623420344	 1.4647383304	 0.8723859127	 0.117259
H	 0.5514809893	-0.1291666331	 0.8921312404	 0.130519
H	-1.6616100288	-1.2472375885	-0.6529782849	 0.239437
H	-1.839262181	-2.4255289727	 1.6552618932	 0.134611
H	-1.2165849785	-0.8809865297	 2.1817486472	 0.12355
H	-3.5638054095	-0.0891869152	 3.2667903504	 0.146459
H	-5.021506278	-0.5889946928	 2.3704931635	 0.151745
H	-3.907764742	-1.8041291799	 3.0702027109	 0.143069
