21
gdb 117241	3.93786	0.76621	0.73681	3.4325	82.13	-0.241	-0.0101	0.2309	1664.7066	0.179811	-424.220988	-424.210698	-424.209754	-424.257105	36.447	
C	-0.1047427504	 1.4344341244	 0.1596003001	-0.225311
O	 0.0319911569	 0.0441019135	-0.0166461756	-0.210709
C	-1.1818161772	-0.6341065502	 0.0657464639	-0.158893
C	-0.9795538549	-2.1330789914	-0.1430982083	 0.360034
O	 0.1087687352	-2.6101324663	-0.3743505913	-0.313198
C	-2.2301326284	-2.9358805542	-0.0356238911	-0.133412
C	-2.2859693045	-4.2888434261	-0.7253980143	-0.286416
C	-2.2515801685	-4.2490594389	 0.7649781156	 0.015323
C	-1.0580967431	-4.7403115677	 1.5520694948	-0.417808
H	 0.8935486246	 1.870201107	 0.0787476244	 0.133774
H	-0.7531232263	 1.8833698619	-0.6098612226	 0.104074
H	-0.5235776211	 1.6835158307	 1.1477819566	 0.103767
H	-1.6737484601	-0.4856726127	 1.0461457394	 0.105806
H	-1.9059191376	-0.2778642221	-0.6922585486	 0.105352
H	-3.1472815665	-2.3556484159	-0.0003529285	 0.082925
H	-3.2057380423	-4.5548182686	-1.234035503	 0.11442
H	-1.3709368186	-4.5742536677	-1.2341284352	 0.139443
H	-3.2079345247	-4.4150664287	 1.2551942023	 0.0921
H	-0.123522771	-4.5037824337	 1.0411631765	 0.159088
H	-1.0279254435	-4.2873842672	 2.5490399015	 0.113582
H	-1.1176611581	-5.826447796	 1.6822784634	 0.116061
