19
gdb 95030	2.48878	1.90086	1.42286	1.3927	73.12	-0.237	0.0599	0.2969	967.7484	0.160993	-422.984433	-422.976844	-422.9759	-423.016611	29.976	
O	 0.2309814563	 1.2610374139	-0.5240951902	-0.421893
C	 0.0454466434	-0.0458572711	-0.0042073373	 0.063532
C	 0.4343726385	-0.1761369459	 1.5006611135	-0.114635
O	-0.5948472967	-0.8759330006	 2.1897720872	-0.268499
C	-1.7627883145	-0.9604011312	 1.3886601064	 0.100176
C	-2.8683319898	 0.0993696044	 1.5381138931	-0.071113
C	-2.3416464761	 1.4895753396	 1.3311508394	-0.284628
C	-2.5419556388	 0.6244237681	 0.125495186	-0.043001
C	-1.4389147875	-0.4382778118	-0.0329124119	-0.06602
H	 1.1765038683	 1.4304176474	-0.5794818325	 0.285359
H	 0.6243068757	-0.7693131202	-0.5952179788	 0.072032
H	 1.3696346531	-0.732095891	 1.6422659585	 0.093942
H	 0.5746928434	 0.8324367919	 1.914818615	 0.100011
H	-2.1482986552	-1.9818846667	 1.450008335	 0.078165
H	-3.8346427157	-0.083403834	 1.9921618117	 0.081602
H	-3.0893748083	 2.2677647197	 1.4510511189	 0.110341
H	-1.3533185333	 1.7871229162	 1.6595541618	 0.121644
H	-3.2269651435	 0.9000352138	-0.665820088	 0.087111
H	-1.6620369992	-1.1485045125	-0.8294970378	 0.075875
