15
gdb 73347	2.62874	1.94326	1.51151	2.3877	64.26	-0.2517	-0.0094	0.2424	883.2489	0.112761	-457.74397	-457.736981	-457.736037	-457.775156	27.651	
O	 0.0943814581	 1.3683340439	-0.1018467468	-0.482249
C	 0.0011968934	-0.0089054566	-0.0908860836	 0.265903
C	 0.6853507839	-0.702565602	-1.2768225697	-0.127532
O	 0.2283403069	-2.0542257811	-1.2333213027	-0.262141
C	-0.8904721736	-2.0945769111	-0.3837189692	 0.115831
C	-0.733731827	-1.735062764	 1.096352473	-0.23379
C	-1.3765783031	-0.7717597884	 0.012410161	-0.204683
C	 0.3021378876	-0.688453802	 1.2583096883	 0.368319
O	 0.8984214765	-0.2370344026	 2.2041873392	-0.359307
H	 0.4021044879	 1.6341229151	 0.7766515388	 0.301754
H	 0.3921645889	-0.2151109517	-2.2171678714	 0.113691
H	 1.775682207	-0.6920301628	-1.191956304	 0.127522
H	-1.5556989771	-2.9227556356	-0.5958002697	 0.129104
H	-1.2135226755	-2.3002217643	 1.8858940123	 0.118669
H	-2.3681109836	-0.3437923068	 0.0021767145	 0.12891
