13
gdb 42179	2.16867	1.70625	1.04445	2.7001	71.38	-0.2756	-0.1028	0.1728	1079.427	0.087171	-415.557029	-415.54851	-415.547566	-415.590661	30.341	
O	 0.2089927676	 0.7528007197	 1.4027323675	-0.299216
C	-0.0110077382	 1.4156288305	 0.4156764092	 0.282823
C	 1.0664875797	 1.7001322659	-0.5435088444	 0.234195
N	 1.9373730958	 1.884325454	-1.2810101898	-0.308361
C	-1.3696732089	 1.9704123791	 0.0966255309	 0.026004
C	-2.4729661561	 0.928624787	 0.2004266774	-0.237511
N	-2.3305252541	 1.9408438239	 1.2216403957	-0.319436
C	-1.4537239128	 3.0488725122	-0.8464183806	 0.21218
C	-1.4986856342	 3.9394809335	-1.6508237709	-0.361041
H	-3.3190542776	 1.0492956819	-0.4683929341	 0.153846
H	-2.1634783386	-0.0909703081	 0.4124678383	 0.147106
H	-1.8381501848	 1.5443185629	 2.0237892413	 0.261143
H	-1.5359779078	 4.7312789774	-2.3583654206	 0.208266
