19
gdb 7856	4.50571	1.06084	0.94074	2.0881	72.55	-0.2375	-0.0082	0.2293	1283.3683	0.16321	-365.063729	-365.054344	-365.053399	-365.099058	32.884	
C	-0.0027003541	 1.5334775893	-0.2044504711	-0.392469
C	 0.051227501	 0.0371696405	-0.0042957181	-0.009518
N	 1.3791588197	-0.6014930334	-0.0269772284	-0.342076
C	 0.5827290892	-0.6324982176	 1.2132346543	 0.005582
C	 1.1586957755	 0.1003157618	 2.4008370915	-0.319878
C	 1.9215342648	-0.8208473001	 3.353360911	 0.39173
C	 2.835702621	-0.1339330608	 4.3510012073	-0.475797
O	 1.7943555958	-2.0231387783	 3.3233840192	-0.296103
H	 0.8360675671	 2.0327535387	 0.2856276152	 0.122111
H	 0.0431441911	 1.7792204323	-1.2708337064	 0.120727
H	-0.9352635746	 1.9476702491	 0.1948868188	 0.11394
H	-0.7546874131	-0.5006784341	-0.5038738687	 0.080604
H	 1.3415808036	-1.5018689847	-0.4962138356	 0.232116
H	 0.1275564852	-1.5821053487	 1.4820310516	 0.100661
H	 1.8172733295	 0.9128115457	 2.0790761042	 0.123193
H	 0.3601166882	 0.5710377692	 2.9950208691	 0.123726
H	 2.3230051678	 0.6970861579	 4.8473907277	 0.132946
H	 3.1915421799	-0.8524882989	 5.0903055789	 0.141635
H	 3.6946274923	 0.2945921821	 3.8207420194	 0.146871
