16
gdb 18940	3.25424	3.20866	2.49205	0.	62.05	-0.2358	0.0993	0.3351	643.1073	0.134902	-383.726907	-383.721994	-383.72105	-383.755611	21.756	
C	-0.0286358622	 1.579863783	 0.0090570495	-0.195526
C	 1.5078457959	 1.6413915253	 0.0417928942	 0.041567
O	 1.717156793	 1.0363025285	 1.3295261692	-0.266841
C	 1.2552467997	-0.2753659123	 0.962951965	 0.041567
C	 2.3806290837	-0.6465989507	-0.0175149776	-0.195526
C	 1.9103775267	 0.4567522406	-0.9803866841	 0.041567
O	 0.6348493514	-0.1030217406	-1.3379932716	-0.266843
C	 0.0305300264	 0.0437700867	-0.0412785923	 0.041567
H	-0.4413768794	 2.0285074852	 0.9133950856	 0.106186
H	-0.51908207	 1.9658781067	-0.8853263027	 0.106186
H	 2.0278416332	 2.5934894505	-0.036891926	 0.083431
H	 1.0599044162	-0.8856815126	 1.8418341176	 0.083431
H	 3.3527059401	-0.5064567935	 0.456708825	 0.106186
H	 2.3117169839	-1.62141565	-0.5017159235	 0.106186
H	 2.4929400961	 0.7092302772	-1.8635359564	 0.083431
H	-0.8766884546	-0.5504942739	 0.0416749981	 0.083432
