16
gdb 113134	2.13377	1.3146	1.09478	3.9934	76.29	-0.2723	-0.0002	0.2721	1174.8805	0.12241	-400.706461	-400.697273	-400.696329	-400.74056	33.615	
O	 0.2994886365	 0.5863189371	 0.7822780176	-0.415716
C	-0.1689046795	 0.1821668744	-0.4869493766	-0.086724
C	-1.5287284235	-0.4824745599	-0.41907932	-0.058546
C	-1.9094074768	-1.5567629427	-1.3778227392	-0.320089
C	-1.6111814807	-1.9434687536	 0.0808135891	 0.007541
C	-0.3919337526	-2.6396957011	 0.3967601869	 0.239766
C	 0.6379428342	-3.1942665819	 0.6754930098	-0.424797
C	-2.7481335855	-2.2797583099	 0.905583048	 0.237018
N	-3.668510225	-2.536024422	 1.5569721124	-0.33737
H	 0.4965861194	-0.2140978225	 1.2823428892	 0.292548
H	-0.2506839525	 1.0923751313	-1.0906479516	 0.123205
H	 0.5444609271	-0.484224074	-0.9924530327	 0.101847
H	-2.3257519107	 0.1486510004	-0.0392191897	 0.132597
H	-2.9411232349	-1.6421651465	-1.6966692831	 0.151909
H	-1.1723544639	-1.8850677754	-2.1020104558	 0.14496
H	 1.5367810985	-3.7083167937	 0.9139443357	 0.211849
