15
gdb 131865	5.85162	0.78279	0.70659	5.2959	64.89	-0.245	-0.0532	0.1918	1501.1831	0.112398	-487.197341	-487.18897	-487.188026	-487.231532	29.349	
O	 0.0000583778	 1.366674025	-0.2767690076	-0.422065
C	-0.0119249689	-0.0218007829	 0.0314317759	-0.096836
C	-1.4699975893	-0.440038411	 0.1247209228	-0.127564
N	-2.1327979769	-0.1254861779	-1.1316999655	-0.381001
C	-3.4066446965	-0.5197765693	-1.3590453349	 0.52991
N	-4.0825852919	-1.4072057974	-0.6714440271	-0.210676
O	-5.2788795205	-1.4835547954	-1.3471927743	-0.148749
N	-5.25794622	-0.614920789	-2.4069211262	 0.050322
N	-4.1444973861	-0.0279850777	-2.4299456776	-0.238679
H	 0.8999554062	 1.6289458802	-0.4898669175	 0.298641
H	 0.4889368665	-0.6067549107	-0.7532222354	 0.107365
H	 0.4858922229	-0.2291254555	 0.9893923447	 0.104678
H	-1.5391842469	-1.5162338818	 0.3073121923	 0.13943
H	-1.9501100314	 0.0721864694	 0.9711305118	 0.12438
H	-1.8719363749	 0.7634214039	-1.5344419413	 0.270844
