20
gdb 45593	2.74052	1.53481	1.26563	2.6495	77.7	-0.2172	-0.0229	0.1942	1066.2166	0.173025	-403.151967	-403.144122	-403.143178	-403.184391	30.762	
O	 0.1544789518	 0.0518741639	-0.7257808871	-0.294972
C	 0.0645179425	 1.114581518	-0.1875082404	 0.398057
C	-0.9663975826	 1.7905607968	 0.7288237592	-0.304893
N	-0.1622026117	 3.0340640984	 0.6391809896	-0.084637
C	 0.237715771	 3.7077932127	 1.8680565194	-0.171204
C	 1.0789813175	 2.8518333575	 2.8512528603	-0.207427
C	 1.9945795385	 1.8322954821	 2.1236765793	-0.210774
C	 2.2614324997	 2.2215986498	 0.6620354522	-0.225939
C	 0.9478872974	 2.3741642771	-0.1163974478	-0.097381
H	-1.9863530936	 1.8767314187	 0.336817477	 0.129418
H	-1.0133996926	 1.3177910316	 1.7214524969	 0.120452
H	 0.8156570555	 4.5904049262	 1.5690793408	 0.107845
H	-0.6595473304	 4.0887359966	 2.3671090163	 0.106334
H	 1.6780027492	 3.5319888157	 3.4671025637	 0.099881
H	 0.4240293989	 2.3183344931	 3.5480156652	 0.101977
H	 2.9419117629	 1.7224599534	 2.6597406377	 0.102366
H	 1.5278078877	 0.8398338827	 2.1383095596	 0.110356
H	 2.8165991672	 3.1669180023	 0.6166432552	 0.105319
H	 2.8820574048	 1.4693117087	 0.1636784597	 0.118357
H	 1.1307229765	 2.8335694445	-1.0969216369	 0.096861
