27
gdb 104658	1.77646	1.2963	1.028	0.0656	96.09	-0.249	0.0763	0.3253	1432.2687	0.250117	-353.560051	-353.548405	-353.547461	-353.596397	43.228	
C	 2.1540150222	-0.2394235812	 0.8425619237	-0.385271
C	 0.9505934326	-0.9252727441	 0.179582569	-0.253149
C	 1.0613616404	-1.0532582755	-1.3361737847	 0.352918
C	 1.1554005564	 0.2697359538	-2.0945791591	-0.246012
C	-0.068871305	 1.1806267377	-1.9383589806	-0.383626
C	 1.8279285599	-2.218691285	-1.9453664086	-0.069336
C	 2.5605075328	-3.2742519541	-1.141574753	-0.417094
C	 0.3147550863	-2.1661139943	-2.057774309	-0.064117
C	-0.6033273468	-3.1619189548	-1.3779404605	-0.416803
H	 3.085509237	-0.7675974852	 0.6147380756	 0.118192
H	 2.2707074091	 0.7956420361	 0.5068717478	 0.117818
H	 2.0371045279	-0.2192650743	 1.9308319958	 0.107834
H	 0.8198064538	-1.9119750658	 0.6311224517	 0.091171
H	 0.0373936129	-0.3698160217	 0.4293215036	 0.094782
H	 2.0571264299	 0.8146267853	-1.7863391546	 0.092395
H	 1.2948852392	 0.0463593532	-3.1592538221	 0.088983
H	-0.9862196915	 0.6612400224	-2.2363164385	 0.114774
H	-0.1999087002	 1.5181461833	-0.9053256963	 0.116411
H	 0.0280565685	 2.0741264495	-2.5633701816	 0.108515
H	 2.3546791566	-1.9689289608	-2.8648478489	 0.07177
H	 2.0634041492	-3.5216777041	-0.2009303637	 0.11456
H	 2.6489527835	-4.2039910052	-1.7155738491	 0.114016
H	 3.5763037925	-2.944436045	-0.896257602	 0.115581
H	-0.0509638277	-1.8806491416	-3.042928203	 0.072436
H	-0.2274748508	-3.5023771228	-0.4107274034	 0.114705
H	-1.5960498725	-2.7293220274	-1.208880818	 0.114887
H	-0.7360663561	-4.0517703084	-2.0039696505	 0.113661
