14
gdb 132913	3.18101	1.34968	0.94809	3.9605	69.72	-0.2051	-0.0252	0.1799	1119.5329	0.10216	-478.03865	-478.031118	-478.030173	-478.070436	29.437	
N	 0.0266602014	 1.3930694881	-0.1300822154	-0.588352
C	-0.0252876641	 0.0236622882	-0.0522963724	 0.288374
C	-1.1890478132	-0.7072844206	-0.0250184152	-0.381764
C	-1.2107252053	-2.1485343143	-0.0011167958	 0.442613
O	-2.1956733273	-2.8716074427	 0.0205857375	-0.416044
N	 0.0786558981	-2.7311022825	-0.0019870198	-0.379765
C	 1.2500932716	-2.034539323	-0.0174341733	-0.069951
C	 1.2208001666	-0.685250749	-0.0434636711	 0.160642
F	 2.3571146282	 0.0364007029	-0.0486691426	-0.094479
H	 0.8985470613	 1.8279058368	 0.1246228623	 0.264862
H	-0.8012687483	 1.9043661501	 0.1283465802	 0.263285
H	-2.1542840031	-0.215655105	-0.0278716176	 0.103072
H	 0.0838106897	-3.7401674977	 0.0156560867	 0.261508
H	 2.1778318044	-2.5912607614	-0.0058198734	 0.146
