20
gdb 81226	2.4463	1.9514	1.72333	1.3086	78.69	-0.2166	0.0766	0.2932	927.2358	0.172692	-403.062593	-403.055327	-403.054383	-403.093736	30.217	
C	 0.0110768599	 1.4796713014	-0.3114688114	-0.339364
N	-0.0197156506	 0.0675544284	 0.0458909644	-0.077609
C	-1.1227328483	-0.4940256522	 0.8625399807	-0.00803
C	-0.1506081604	-1.7246596068	 1.0783150326	-0.32254
C	 0.8350735707	-0.538097926	 1.1015541544	 0.289082
C	 2.2110078361	 0.0954988637	 1.3258079693	-0.227686
O	 1.5739272832	 1.0988216828	 2.1853883479	-0.312851
C	 0.4613320404	 0.17102105	 2.408465827	 0.139517
C	-1.053471274	 0.3654539332	 2.1820837486	-0.298332
H	 0.9319419021	 1.6825233686	-0.8667702063	 0.121562
H	-0.8271561828	 1.6736144162	-0.9895365332	 0.114724
H	-0.0348607357	 2.1885374561	 0.5241876212	 0.121077
H	-2.0960441876	-0.6214153111	 0.3843084764	 0.072544
H	-0.2471521997	-2.3141062348	 1.9924349907	 0.097361
H	-0.1150034886	-2.3472149902	 0.1854316642	 0.114134
H	 2.918211996	-0.5215707469	 1.893778292	 0.108662
H	 2.7107272431	 0.5470968045	 0.4639621951	 0.113965
H	 0.6675114337	-0.3932399566	 3.3262713756	 0.074859
H	-1.3791022546	 1.3923585445	 2.0029643715	 0.118899
H	-1.6422333431	-0.0357351748	 3.0112297195	 0.100027
