15
gdb 71476	4.41165	1.2241	1.10872	4.7865	70.84	-0.265	0.0105	0.2755	1063.2487	0.113005	-416.748003	-416.740768	-416.739824	-416.779456	28.457	
O	 0.0624776296	 1.4192269305	-0.0570999162	-0.461345
C	-0.0083104668	 0.0492262704	-0.0166739337	 0.358574
C	 0.3931585098	-0.7465654256	-1.262012776	-0.182572
N	-0.5164140673	-1.8604160052	-0.8273924044	-0.164301
C	-1.2871796273	-0.9217699419	 0.0153557127	-0.187443
C	-0.3709965551	-1.8883652037	 0.6853202923	 0.238554
C	 0.6009507188	-0.7945067673	 1.134225333	-0.366593
C	-0.6692339279	-3.1086374299	 1.3619684227	 0.203194
N	-0.8972123154	-4.0787483973	 1.9489713999	-0.344323
H	-0.0759469367	 1.7759579425	 0.8269682992	 0.29375
H	-0.0129019749	-0.3230131593	-2.1828499303	 0.132375
H	 1.4463619104	-1.0150360199	-1.392396663	 0.113809
H	-2.3653114963	-0.8279773204	 0.0139456569	 0.125134
H	 1.6755439521	-0.9975328755	 1.1035852066	 0.121281
H	 0.3130076269	-0.4167206373	 2.1195906703	 0.119906
