20
gdb 50565	3.1611	1.3695	1.1776	2.8042	78.22	-0.221	-0.0221	0.1989	1103.4173	0.173207	-403.130778	-403.123093	-403.122149	-403.1633	30.163	
O	-0.2312443361	 0.1229637575	-0.3522917774	-0.244133
C	 0.4939198767	 0.724577507	 0.3976944968	 0.148965
C	 1.2139314437	 2.0272736462	 0.0678111024	-0.064594
C	 0.8030641237	 2.6161369531	-1.3053524473	-0.2241
C	 0.8459158786	 4.1675514014	-1.3244597759	-0.219114
C	 0.7011204308	 4.7377290634	 0.0954738639	-0.01261
C	 1.8414417213	 4.175694361	 0.972106246	-0.169457
N	 1.0153718252	 2.9398409093	 1.2133678445	-0.130776
C	-0.1957007436	 3.804413838	 0.9452547148	-0.191997
H	 0.6920838213	 0.3722750613	 1.433174542	 0.090797
H	 2.2835338601	 1.7661196174	 0.0773650152	 0.098028
H	 1.4297384071	 2.1980307681	-2.0975065279	 0.105269
H	-0.2100561035	 2.2689572003	-1.5240824516	 0.12887
H	 1.7872816041	 4.5294755872	-1.7551608001	 0.098824
H	 0.0443568704	 4.5432144104	-1.9697229769	 0.101198
H	 0.5108580414	 5.8144528931	 0.0977565891	 0.063969
H	 2.8161171318	 3.9962931715	 0.5058255056	 0.096159
H	 1.9834488794	 4.715225639	 1.9139061115	 0.103933
H	-0.5273082159	 4.2580711325	 1.8834893144	 0.108405
H	-1.0429801765	 3.3001460323	 0.4723927409	 0.112363
