19
gdb 56051	5.10729	0.66846	0.61842	2.0068	84.54	-0.2345	-0.0138	0.2207	1824.0014	0.157956	-419.232355	-419.222564	-419.22162	-419.268687	34.499	
C	 0.1539856076	 1.6244999368	-0.4517211358	-0.500026
C	-0.2520964201	 0.3342367101	 0.2362155504	 0.412219
O	-0.7090761159	 0.2836489554	 1.3582150068	-0.340797
N	-0.056032728	-0.8004763901	-0.5341754758	-0.338477
C	-0.3626031811	-2.0845762981	-0.1096517517	 0.115147
N	-0.1491332899	-3.0748921077	-0.8705418466	-0.268603
C	-0.4750598685	-4.3927129597	-0.4100937073	 0.05638
C	 0.6003653557	-5.2806752435	 0.1553806678	-0.248388
C	-0.5381931373	-4.8150734423	 1.0398938661	-0.286958
H	 1.2128038592	 1.6010394614	-0.7303567078	 0.144003
H	-0.4273569957	 1.7753432414	-1.3675020277	 0.145226
H	-0.0229379813	 2.4555589965	 0.2296535796	 0.156607
H	 0.3300296421	-0.7233206924	-1.4641641133	 0.258288
H	-0.7850603876	-2.1105178755	 0.8959891489	 0.139785
H	-1.1714918285	-4.8866713077	-1.0831930095	 0.096466
H	 0.6368704369	-6.3182732404	-0.1575932143	 0.111894
H	 1.570378489	-4.8249523177	 0.3229295059	 0.116097
H	-0.2999728091	-4.0905168519	 1.8100825436	 0.117897
H	-1.2991553573	-5.5309677945	 1.3308260105	 0.113241
