13
gdb 129487	4.71823	1.11274	0.90039	1.4899	62.31	-0.2412	-0.0439	0.1973	1175.4728	0.090206	-486.100619	-486.092829	-486.091884	-486.133226	28.521	
N	-0.1510322189	 1.3321338064	-0.0169529644	-0.565898
C	 0.0901282359	 0.0065793189	-0.0240953178	 0.530579
O	 1.160935111	-0.5479128881	-0.0652139561	-0.365549
N	-1.1220385623	-0.7670025241	 0.0244527094	-0.014456
C	-1.2152794337	-2.1285541612	 0.0294716943	-0.167719
C	-2.5693476419	-2.3438888157	 0.0831087787	 0.367904
O	-3.2251204857	-3.5147288645	 0.1100242098	-0.420169
N	-3.2208799603	-1.1484913474	 0.107825787	-0.271769
N	-2.3395025869	-0.1910408824	 0.0722490563	-0.157584
H	 0.6355384131	 1.9559176733	-0.0467587815	 0.280264
H	-1.0963032897	 1.6782068871	 0.0212086433	 0.293195
H	-0.3515038664	-2.7655762315	-0.0040694087	 0.179255
H	-4.1682573342	-3.3099842209	 0.1469186597	 0.311946
