16
gdb 10040	3.15405	1.36676	0.99418	4.0118	71.45	-0.247	0.0133	0.2603	1138.4753	0.128896	-342.750122	-342.7411	-342.740155	-342.783967	31.734	
C	 0.1122369263	 1.4965203319	-0.1071725495	-0.329806
N	-0.0982950859	 0.0646358267	 0.0833694005	-0.284237
C	 0.6425678571	-0.5019415608	 1.2005644018	-0.111092
C	 0.1762552108	-1.9584903756	 1.4662650641	-0.362641
C	-1.2260020977	-2.0077892889	 1.8582283002	 0.278937
C	-2.3863717482	-2.0134352582	 2.1723104328	-0.425468
C	 2.086458306	-0.5001344046	 0.9029623744	 0.307198
N	 3.2225458688	-0.5025425641	 0.6938013545	-0.325815
H	 1.1508898503	 1.6799652488	-0.3993766664	 0.149053
H	-0.5301114726	 1.8446695642	-0.919820461	 0.129462
H	-0.1003306245	 2.1031822906	 0.7901221095	 0.10239
H	-1.0825551066	-0.1253841942	 0.2445267358	 0.235751
H	 0.5149078658	 0.0705879467	 2.1386624277	 0.113448
H	 0.3365678597	-2.5423866732	 0.5535701058	 0.161591
H	 0.8045607304	-2.3960898391	 2.2488554421	 0.154198
H	-3.4091238997	-2.0423457202	 2.4579058476	 0.207029
