13
gdb 2226	3.86004	2.92095	2.19271	1.1029	49.09	-0.2346	0.0545	0.2891	619.244	0.100897	-381.524347	-381.517963	-381.517019	-381.554215	24.164	
O	 0.0042692362	 1.3856318002	-0.0234049072	-0.434311
C	-0.0790502225	-0.0034061355	-0.044190017	 0.043
C	-0.4701680039	-0.7886161621	 1.1720613185	-0.02709
O	-1.3909535651	 0.0057833311	 1.9354307863	-0.301885
C	-2.381036147	-0.0601875939	 0.8628755333	-0.151436
C	-1.3864353058	-0.775346913	-0.0467957068	 0.263217
O	-1.7116294259	-1.7843916157	-0.9266533125	-0.44764
H	-0.2903683172	 1.6533057976	 0.8582327178	 0.298451
H	 0.6906883117	-0.4653652952	-0.6583141722	 0.111721
H	 0.1058914726	-1.5456754687	 1.6911084506	 0.115112
H	-3.2205726189	-0.6966353701	 1.1593377173	 0.123391
H	-2.7344017157	 0.9316273606	 0.5608829902	 0.112263
H	-1.6813726986	-1.4300071252	-1.8222745484	 0.295206
