17
gdb 125218	2.97639	1.4062	0.96643	4.2086	81.82	-0.2305	-0.0637	0.1668	1196.342	0.13516	-418.008161	-417.999673	-417.998729	-418.041169	31.892	
C	-0.1207394778	 1.5102681437	-0.016623793	-0.497765
C	-0.0667652522	 0.0091633414	-0.0265546879	 0.242745
C	-0.096363805	-0.7130994088	-1.1604056926	-0.217543
C	-0.0425941845	-2.1591445005	-1.1345853583	 0.397803
N	-0.0684745651	-2.8738387877	-2.1851393049	-0.532696
O	 0.0403786176	-2.7486208662	 0.1177922075	-0.294485
N	 0.0723347342	-2.020351286	 1.3042665137	-0.130627
C	 0.0220840489	-0.7336485872	 1.2313791718	 0.299301
C	 0.0615817418	-0.0232490513	 2.5571354781	-0.477414
H	 0.7683453339	 1.9391711049	 0.4592785466	 0.142791
H	-0.1848820933	 1.9017692856	-1.0340487727	 0.138659
H	-0.9877058599	 1.8754413746	 0.5454564607	 0.142794
H	-0.1611653899	-0.2595274218	-2.142579961	 0.130023
H	-0.0207609455	-3.8655972768	-1.9461502301	 0.225831
H	 0.1277253318	-0.7560817334	 3.3618358909	 0.155098
H	 0.9238291807	 0.6496660261	 2.6184239797	 0.137744
H	-0.8368159858	 0.5858835634	 2.7050504715	 0.137741
