18
gdb 26476	3.576	1.33462	1.05931	1.2123	78.72	-0.2244	0.0109	0.2354	1145.995	0.14856	-401.976764	-401.968745	-401.967801	-402.009992	30.507	
C	-0.1801406451	 1.4823508367	 0.1594651039	-0.468387
C	-0.0242860983	-0.0181971833	 0.0109654825	 0.199586
C	 1.3454333053	-0.5878880247	-0.3288264736	-0.285941
C	 0.786583368	-0.7821079776	 1.0479180854	-0.285898
C	-1.1791438352	-0.7377869346	-0.5593304467	 0.389342
N	-1.3051532925	-2.0102640583	-0.7916379032	-0.334354
C	-2.5786652306	-2.1458799083	-1.3263807992	-0.113707
C	-3.1658090555	-0.9303565124	-1.391336384	-0.055856
O	-2.276017695	-0.0117259456	-0.9000464704	-0.180681
H	 0.7287763717	 1.9124991384	 0.5890297498	 0.114396
H	-0.3592571225	 1.9637515082	-0.8069960929	 0.127254
H	-1.0181914798	 1.7346387845	 0.8166456192	 0.127278
H	 1.3652833673	-1.4466971053	-0.9889121329	 0.137969
H	 2.1506959572	 0.1256022745	-0.4680830934	 0.113744
H	 1.2033994997	-0.2036054759	 1.8655438254	 0.113754
H	 0.4316005684	-1.7711936694	 1.3112799629	 0.137899
H	-2.9725700327	-3.1052392641	-1.6223929639	 0.121949
H	-4.1166076805	-0.5514128028	-1.7225456091	 0.141654
