18
gdb 7806	3.50564	1.801	1.25349	3.2186	70.61	-0.2267	0.0237	0.2504	974.6441	0.155649	-381.123287	-381.115725	-381.114781	-381.155072	28.575	
C	-0.0059336706	 1.4665701158	 0.0103732361	-0.315767
N	 0.0098348302	 0.0150176121	-0.0428051682	-0.077928
C	 0.7724254814	-0.5007392639	-1.1672816126	-0.156978
C	 0.5750543786	-2.0041819788	-1.2351512303	-0.079093
O	 0.9320402358	-2.6618532403	-0.0112253094	-0.248724
C	 0.5865114496	-2.0711602861	 1.1680205734	 0.37685
N	 0.4389205698	-2.7365515663	 2.2335779932	-0.506985
C	 0.5175522702	-0.5591078709	 1.1970448956	-0.21852
H	 1.0014197207	 1.9060213013	 0.1430867941	 0.095647
H	-0.4330479387	 1.8655850547	-0.9147202587	 0.120232
H	-0.6303671693	 1.7977088744	 0.845831844	 0.125927
H	 0.40203289	-0.0531493565	-2.0959557746	 0.108771
H	 1.8521289095	-0.2607661949	-1.0877505834	 0.085378
H	-0.4757989425	-2.2262715812	-1.4585800268	 0.116931
H	 1.2047089919	-2.4544231505	-2.0064202586	 0.116987
H	 0.5758899243	-3.7319247766	 2.0434540632	 0.218695
H	 1.5417499323	-0.1915886698	 1.4207496873	 0.100399
H	-0.1188016134	-0.2716079625	 2.0357099856	 0.138179
