18
gdb 60660	2.92362	1.23848	0.94629	14.0654	69.44	-0.1814	-0.0263	0.1551	1216.1211	0.14875	-476.176938	-476.168537	-476.167593	-476.210783	31.111	
O	-0.0513691397	 1.4758852598	 0.0067123611	-0.454849
C	 0.0380719029	 0.0920575165	-0.1411470182	-0.015233
C	 0.9344370096	-0.2444642267	-1.3399836284	 0.00239
C	 0.9810582854	-1.7612607429	-1.6210154061	-0.201948
N	-0.1293897045	-1.5522295974	-2.6809440089	-0.280854
H	-0.0672286591	-2.0669420575	-3.5574548692	 0.306174
H	-1.0473202794	-1.7120640935	-2.265628485	 0.318551
C	 0.2218470029	-0.0583919256	-2.6987458139	-0.203923
C	 0.615362083	-0.5621973403	 1.1744194688	 0.352845
O	 0.744281829	-1.8051064865	 1.1568873841	-0.476721
O	 0.8698762751	 0.2837544248	 2.0512469311	-0.461782
H	 0.2882523744	 1.5605103809	 0.9343904175	 0.288918
H	-0.9659551245	-0.352214542	-0.3118572335	 0.024014
H	 1.8926533213	 0.2629791944	-1.2389940789	 0.118278
H	 1.8710979167	-2.1223995141	-2.1367531637	 0.143255
H	 0.6844593899	-2.3760282608	-0.7656121176	 0.213556
H	-0.6587944902	 0.5822919765	-2.7383463296	 0.176954
H	 0.8758608073	 0.1185134046	-3.5544775996	 0.150373
