20
gdb 39925	3.18391	1.50445	1.21362	1.7138	84.56	-0.225	0.0189	0.2439	1078.6214	0.173536	-365.985797	-365.978354	-365.97741	-366.017666	30.238	
C	-0.1232190718	 1.4928138676	 0.0254377086	-0.29207
N	 1.2068660372	 0.8621197302	 0.0610625466	-0.372696
C	-0.0065493159	 0.0107315615	 0.0237156785	 0.324797
C	-0.2707865435	-0.8586321395	 1.2050196103	-0.107634
C	-0.5963829494	-2.1027114942	 0.8477917484	-0.097657
C	-0.6183378392	-2.2923041492	-0.6462953127	-0.068176
C	-2.0282256302	-2.3197789927	-1.3141078415	-0.225555
C	-1.9000665737	-0.7998417054	-1.6097301888	-0.222304
C	-0.3975665571	-0.8365946466	-1.1829314639	-0.11188
H	-0.4032490512	 2.0208918464	 0.9338053853	 0.11353
H	-0.4541296188	 1.9743506567	-0.8922927338	 0.108318
H	 1.6255521011	 0.8932868527	-0.866260888	 0.226062
H	-0.1752779325	-0.4895871627	 2.2197817683	 0.09822
H	-0.8247970669	-2.9087938637	 1.5376238619	 0.093446
H	 0.0667916526	-3.0808190147	-0.9745640807	 0.072929
H	-2.0451358777	-2.9280756673	-2.2224246342	 0.09848
H	-2.8603901034	-2.6288403327	-0.6765673392	 0.097741
H	-2.0941125046	-0.4974794537	-2.6413835856	 0.09687
H	-2.5044311062	-0.1733265673	-0.9493941403	 0.106049
H	 0.2972955312	-0.7333496758	-2.0202619091	 0.061529
