23
gdb 115901	3.17989	1.2411	1.07806	1.0233	85.3	-0.2438	0.0825	0.3263	1238.2096	0.208276	-388.282511	-388.274143	-388.273199	-388.3154	33.216	
C	-0.4293790491	 1.6123890057	 0.1575457173	-0.23733
O	-0.2067724119	 0.2660142019	 0.5026890844	-0.25277
C	-1.1643521663	-0.6418278184	-0.0259680419	 0.149637
C	-1.0142471701	-0.8007835116	-1.5602791749	-0.22503
C	-1.4073496085	-2.2074796857	-2.0756642452	-0.219015
C	-1.1695848828	-3.2781956882	-0.9996864998	 0.003435
C	-2.0715440577	-2.9690980284	 0.2264177708	-0.22841
C	-0.9586263312	-1.9866074114	 0.6785937012	-0.026175
C	 0.0412364222	-2.8906018093	-0.0978712277	-0.230115
H	 0.3036996975	 2.212185323	 0.7033453929	 0.123758
H	-0.3009303667	 1.8017854243	-0.9183854354	 0.103788
H	-1.440663271	 1.9435078809	 0.4450855738	 0.099299
H	-2.1741117374	-0.2701677473	 0.2228380159	 0.056287
H	-1.5697449956	-0.0261752142	-2.0972375023	 0.091797
H	 0.045386514	-0.6262014464	-1.7747858052	 0.114026
H	-2.4626943523	-2.2334861693	-2.3740792273	 0.094877
H	-0.8259918626	-2.4309334615	-2.9775031273	 0.094314
H	-1.2039814216	-4.2865813921	-1.4196803778	 0.055941
H	-3.0712487882	-2.5631163179	 0.0354631518	 0.082858
H	-2.1544528973	-3.8224540596	 0.9046846229	 0.093446
H	-0.7997904957	-1.8233927038	 1.746278787	 0.065059
H	 0.3651635663	-3.7342766297	 0.5170315458	 0.093804
H	 0.9185851763	-2.4281730408	-0.5570528389	 0.096521
