17
gdb 127457	3.44062	1.11073	0.88855	3.3848	71.43	-0.2285	0.0263	0.2548	1302.0311	0.137776	-451.352876	-451.343734	-451.342789	-451.387672	32.204	
C	-0.0954446984	 1.4225585657	 0.0353672	-0.329859
N	-0.0392346975	-0.0209499975	 0.0108907327	-0.020619
N	 0.0000292245	-0.7235697081	-1.1683820848	-0.319166
C	 0.039764349	-1.9783607425	-0.7593673349	 0.333247
C	 0.1185722524	-3.143311123	-1.7014378192	-0.250088
N	 1.3144055781	-3.9827192028	-1.5477681809	-0.500317
N	 0.0354522836	-2.1402947435	 0.6049344738	-0.420527
C	-0.0148672957	-0.8978848487	 1.0294224538	 0.446347
O	-0.0432503154	-0.4788300623	 2.3010918677	-0.425424
H	 0.781405294	 1.8434213232	-0.4638715864	 0.150536
H	-0.996628005	 1.7745200819	-0.4737912115	 0.151411
H	-0.1140077369	 1.7498371244	 1.0754397234	 0.158613
H	-0.7586977799	-3.7839191698	-1.5541489727	 0.11938
H	 0.0756679155	-2.7625654176	-2.725546527	 0.125013
H	 2.1409730689	-3.4074142581	-1.6898984546	 0.2251
H	 1.3644158056	-4.2953246527	-0.5812366103	 0.235921
H	-0.0264388929	-1.2706039785	 2.853220181	 0.320432
