20
gdb 99796	2.33987	0.95608	0.84298	4.105	88.58	-0.263	0.0217	0.2847	1527.9963	0.167715	-366.012227	-366.001027	-366.000083	-366.049891	38.785	
C	-0.049314924	 1.5431496544	-0.1257908794	-0.413152
C	 0.0768576668	 0.0219004027	-0.0267376238	-0.180517
C	 0.7531332951	-0.5073101516	 1.2805330824	-0.117333
C	 2.2075501298	 0.0146074059	 1.4253225491	-0.404956
C	-0.0315760268	-0.0446043251	 2.4459622881	 0.297277
N	-0.6421588073	 0.34404789	 3.3469331734	-0.353698
C	 0.7513945754	-1.9758477945	 1.2625486327	 0.077821
C	 0.7659655801	-3.1780696936	 1.2152786477	 0.094458
C	 0.7745095999	-4.6330236985	 1.1744598477	-0.500957
H	 0.9257610097	 2.0367787827	-0.1692582949	 0.122613
H	-0.5924373304	 1.8108285875	-1.0367554575	 0.122296
H	-0.6014539174	 1.9532482847	 0.7252306646	 0.146014
H	-0.9129609108	-0.4392194418	-0.094964076	 0.124134
H	 0.6659247072	-0.3716332112	-0.8619165328	 0.112802
H	 2.2251054784	 1.1035100264	 1.503714332	 0.136443
H	 2.6745071154	-0.4061432717	 2.3177287852	 0.143111
H	 2.7865051172	-0.2923130049	 0.5504848596	 0.130281
H	 1.7946798392	-5.0261727851	 1.2400288345	 0.152506
H	 0.2017081923	-5.0514087845	 2.0089651675	 0.15837
H	 0.3312845003	-5.0068617919	 0.2452629999	 0.152486
