20
gdb 119654	3.80144	1.01207	0.91881	1.5926	78.94	-0.2341	0.0579	0.2919	1352.7814	0.170238	-403.037344	-403.028946	-403.028001	-403.070962	32.039	
C	-0.0104393108	 1.5548488904	 0.0209148143	-0.381206
C	 0.0162983787	 0.0244788819	 0.0315924418	-0.171066
C	 0.6161080909	-0.5680032781	-1.2518949856	-0.34558
C	 0.6699343024	-2.0657474791	-1.2551703093	 0.334108
N	-0.5332419262	-2.9729970113	-1.2251751315	-0.384956
C	 0.6146530372	-3.9353643027	-1.2642646982	-0.077551
C	 1.4224028566	-3.028033771	-2.2314620894	 0.05046
O	 2.6510564341	-3.0622514566	-1.4485161824	-0.330639
C	 1.5989852079	-3.045344802	-0.441020341	 0.036157
H	 0.9998210194	 1.9668811359	-0.0784978218	 0.117541
H	-0.605618813	 1.9336128677	-0.817214204	 0.117959
H	-0.4436671699	 1.9521458881	 0.9438967778	 0.11321
H	 0.5935293718	-0.3280300188	 0.8960649459	 0.097648
H	-1.0036695779	-0.3580097332	 0.1641401432	 0.103325
H	 0.0336797695	-0.2348622979	-2.1206242402	 0.110669
H	 1.6400853671	-0.197875615	-1.3932212171	 0.115471
H	-0.9555640697	-2.9709490808	-0.2931185951	 0.209645
H	 0.499925999	-5.0191786121	-1.2722911224	 0.091026
H	 1.4827237183	-3.025934103	-3.3188398774	 0.101686
H	 1.8783620745	-3.0683641025	 0.6139818022	 0.092091
