22
gdb 107699	3.32327	1.30311	1.14484	1.5229	87.03	-0.2226	0.0933	0.3159	1196.8568	0.193486	-367.134144	-367.125284	-367.12434	-367.16734	34.626	
C	-0.0771134806	 1.5180489477	 0.0604124218	-0.378416
C	-0.0907480009	-0.0139161748	-0.0089015914	-0.321424
C	-1.4823415549	-0.5789385222	-0.0886922218	 0.393156
C	-2.5794182713	-0.3050688556	-1.1260648063	-0.351671
C	-3.2427239924	-1.1751962348	-0.0541550262	 0.371734
C	-4.6847629487	-1.5675049901	 0.075127498	-0.517193
C	-1.9617323096	-2.0437380603	 0.178735983	-0.155621
C	-2.0396045817	-1.7329497614	 1.6669193633	-0.204876
N	-2.5034429218	-0.4012969046	 1.0858210799	-0.217469
H	 0.9444880719	 1.8973927299	 0.1562048096	 0.109231
H	-0.5149301514	 1.9596000552	-0.8406787444	 0.117072
H	-0.6583042044	 1.8671773357	 0.91853669	 0.138362
H	 0.4750161721	-0.3592551066	-0.8843294898	 0.100817
H	 0.4191851567	-0.4304756489	 0.8688383023	 0.101496
H	-2.9382040325	 0.7264939569	-1.1961954696	 0.100804
H	-2.4462132978	-0.7543171976	-2.1148302578	 0.090209
H	-4.9982728158	-2.1667820657	-0.7865141248	 0.121703
H	-4.8632068306	-2.1574526175	 0.9799929608	 0.123538
H	-5.3196379149	-0.6766710336	 0.1200910147	 0.130553
H	-1.6624552947	-2.9563385655	-0.350590186	 0.055667
H	-2.8031200635	-2.2397952104	 2.2657667656	 0.095551
H	-1.1066945332	-1.6635137256	 2.234897229	 0.096776
