19
gdb 76823	2.73557	1.53995	1.24641	0.7741	77.15	-0.2341	-0.0003	0.2338	1061.2973	0.159392	-422.994389	-422.986071	-422.985127	-423.027084	31.97	
C	-0.0161197162	 1.5274248184	-0.0123734319	-0.401706
C	-0.0306391572	 0.0081053457	-0.0038911884	-0.089113
C	 1.1405398112	-0.6630091263	-0.8622131883	 0.056534
O	 1.7381669547	 0.0341244378	-1.9152120619	-0.41741
C	 1.8640542499	-0.7892935805	 0.46035105	 0.166888
C	 2.8924337346	-0.2612154678	 1.1165904311	-0.252218
C	 2.404522049	 0.1073764325	 2.5102923485	-0.104679
O	 0.9663350384	 0.0730073115	 2.4330100894	-0.276294
C	 0.61445061	-0.6607815046	 1.2736706166	 0.083894
H	 0.9542263901	 1.9233253689	 0.3062094972	 0.111452
H	-0.2331890992	 1.9113899591	-1.0138363066	 0.122634
H	-0.7650507868	 1.9231006416	 0.678895912	 0.130129
H	-1.0235499181	-0.3755855539	-0.2541934799	 0.074598
H	 0.8061497904	-1.6171964486	-1.2782916237	 0.104779
H	 2.1311104885	 0.8347122782	-1.5501758066	 0.28426
H	 3.8688885909	 0.0131361325	 0.7373613171	 0.107757
H	 2.7539318176	-0.5809783651	 3.2965704027	 0.107092
H	 2.7186296059	 1.1196152649	 2.7960737081	 0.1118
H	 0.0941048162	-1.5865285342	 1.5511709047	 0.079604
