18
gdb 22598	2.91239	1.22503	1.03239	1.7013	77.49	-0.2415	0.0147	0.2562	1217.1711	0.144656	-438.970288	-438.961178	-438.960234	-439.003737	34.207	
C	-0.0887338315	 1.5443663277	-0.000589538	-0.437814
C	-0.0340040778	 0.0271438314	-0.0235743523	-0.012302
C	 1.2431614016	-0.6604967836	-0.5974277771	-0.05913
O	 1.9952162682	-0.2028343216	 0.6049265873	-0.346333
C	 0.6907122401	-0.7122670382	 1.1597181107	 0.300021
C	 0.4602185662	-0.6567191479	 2.6331365954	-0.523485
C	 0.8808859425	-1.8892221501	 0.2185608594	 0.490676
N	 0.8247880081	-3.1442282072	 0.265847471	-0.324874
O	 1.1853146974	-3.7237270756	-0.9726573841	-0.396834
H	 0.8744244522	 1.9600103414	 0.3008845039	 0.141004
H	-0.3453274805	 1.9353629433	-0.9905016026	 0.120731
H	-0.8559108359	 1.8928982594	 0.6990640115	 0.119123
H	-0.9808429429	-0.4286748295	-0.3324628619	 0.085846
H	 1.7242785287	-0.563077461	-1.5672021016	 0.111777
H	 0.4525034574	 0.3791479937	 2.9841473664	 0.136915
H	-0.5028163764	-1.115563006	 2.8760631935	 0.139304
H	 1.2465100542	-1.2020857326	 3.1619270994	 0.148245
H	 1.1110671683	-4.6642783634	-0.779022491	 0.307129
