13
gdb 129011	4.07809	1.74565	1.2224	2.5498	72.47	-0.2629	-0.0627	0.2002	912.4659	0.094445	-411.836869	-411.831181	-411.830237	-411.866831	22.817	
N	 0.0083411094	 1.3015265508	 0.0093431434	-0.309829
N	 1.2815350489	 1.7784281739	-0.0001931371	-0.086188
N	 2.1070454077	 0.7839218819	-0.0137202936	-0.280211
C	 1.3756445523	-0.3825876832	-0.0132331885	 0.28686
C	 0.0063295347	-0.0583904014	 0.001724725	 0.422287
N	-1.0262685145	-0.9000158565	 0.0069123141	-0.357254
C	-0.6550523219	-2.1794392097	-0.0038273585	-0.022862
C	 0.6811690244	-2.6348200078	-0.0192050209	-0.105721
C	 1.733006569	-1.7324374265	-0.0242359372	-0.195694
H	-0.7667896099	 1.9446161988	 0.020406902	 0.287621
H	-1.4633293124	-2.9061891442	-0.0001484555	 0.11901
H	 0.8686703567	-3.702142812	-0.0269968748	 0.111391
H	 2.7698888357	-2.0477391143	-0.0359582195	 0.130593
