19
gdb 70262	3.75597	1.12042	0.98601	1.7166	81.51	-0.2325	0.0352	0.2678	1248.0856	0.158195	-385.845279	-385.836685	-385.835741	-385.878258	33.472	
C	-0.8263927559	 1.479402646	 0.1921289497	-0.479681
C	-0.1194033459	 0.1500841977	 0.0876121227	 0.304419
C	-0.7296813439	-1.1016987389	 0.7068894763	-0.36762
C	 0.5601328374	-0.5274423049	 1.2431408773	 0.087386
O	 1.7748907205	-1.1111288172	 0.8515685269	-0.264061
C	 1.7824723896	-1.1958210641	-0.5819112931	-0.069744
C	 0.8156356058	-0.0874074514	-1.0905288876	-0.310133
C	 3.1453544912	-1.0762929282	-1.0821769263	 0.295049
C	 4.2562367344	-0.9789744251	-1.5286937468	-0.410509
H	-0.1162516717	 2.3118680142	 0.1261207028	 0.119991
H	-1.5630408926	 1.6050500477	-0.6100571206	 0.120074
H	-1.360688214	 1.569002129	 1.143345894	 0.117021
H	-1.6201812444	-0.9619024925	 1.3112234209	 0.109322
H	-0.7064648643	-2.0412689154	 0.1645973343	 0.115225
H	 0.6170185512	-0.1104353539	 2.2420116706	 0.102484
H	 1.3906448236	-2.1797755935	-0.8788559307	 0.105497
H	 0.3121517584	-0.4001682668	-2.0099695223	 0.111304
H	 1.373963177	 0.8292169064	-1.3049723103	 0.116753
H	 5.2427969734	-0.8950468092	-1.9126673379	 0.197223
