17
gdb 92520	2.4097	1.76354	1.37385	2.4544	67.64	-0.2404	-0.0441	0.1962	987.8454	0.135629	-458.955642	-458.94769	-458.946746	-458.988665	29.409	
C	 0.2294076014	 1.4890232321	-0.1723974428	-0.401066
C	-0.0323690502	-0.007248999	 0.0160697794	 0.009924
O	 0.384210426	-0.7836739782	-1.1095063791	-0.286053
C	 1.5229308157	-1.5833571335	-0.8180544228	 0.061641
C	 2.8845124363	-0.8905697767	-1.0176315665	-0.098493
O	 3.0135376669	-0.6680666583	 0.412186092	-0.292107
C	 1.8298683479	-1.4636261542	 0.681739189	-0.023253
C	 0.7166635109	-0.568594163	 1.2289723657	 0.38411
O	 0.4785321407	-0.3310343353	 2.3822710048	-0.302458
H	 1.3008392584	 1.6915765029	-0.2522260616	 0.135491
H	-0.268027336	 1.8439292595	-1.0785911035	 0.130009
H	-0.1632647913	 2.0391283851	 0.6875539449	 0.139346
H	-1.1068348564	-0.1759382401	 0.1602890044	 0.114567
H	 1.3864016068	-2.5643700555	-1.2752691963	 0.099468
H	 3.6858242705	-1.5406415893	-1.3890199477	 0.110801
H	 2.8585422941	 0.0406725609	-1.5912539637	 0.118655
H	 2.0333359883	-2.3453297074	 1.2940474338	 0.099417
