16
gdb 17342	3.51829	2.16952	1.82841	0.5795	62.81	-0.2495	0.0775	0.327	771.4436	0.131219	-383.708548	-383.702061	-383.701116	-383.738679	26.496	
O	-0.1048576275	 1.4253858067	 0.1028037283	-0.467913
C	-0.0402703791	 0.0340270056	 0.0585239037	 0.372071
C	-0.3127134742	-0.7380319749	-1.2063084525	-0.347301
C	-1.2983899518	-0.7919221634	-0.0520264583	-0.086907
C	-1.2359014673	-1.939082215	 0.9620444293	-0.262646
C	 0.1319591267	-1.8285735306	 1.6270357263	 0.05157
O	 1.2483095603	-1.9816698757	 0.7354694788	-0.254154
C	 0.838411789	-0.6548552464	 1.0916101865	-0.047277
H	 0.6276302185	 1.7752089876	-0.4163577242	 0.285468
H	-0.629568158	-0.1516864132	-2.0626699731	 0.108431
H	 0.3025619509	-1.6022526949	-1.4244678533	 0.133533
H	-2.2478405014	-0.2916495714	-0.2040641702	 0.097264
H	-2.0128450327	-1.8074759679	 1.7237731894	 0.10922
H	-1.3857781829	-2.9252980301	 0.5093576855	 0.116359
H	 0.2895640042	-2.2243849037	 2.6279351512	 0.096605
H	 1.5562078954	-0.0610499127	 1.6515432726	 0.095676
