20
gdb 126710	3.17538	1.10179	0.88092	1.5792	84.68	-0.1908	0.0392	0.23	1386.4974	0.171615	-399.363219	-399.353437	-399.352492	-399.398502	35.42	
C	 0.1729233532	 1.5400629613	 0.0787807613	-0.369768
C	-0.0721233237	 0.0429871793	-0.1199057948	-0.136663
N	 0.6722967849	-0.5053588003	-1.2355438106	 0.04974
C	 1.7637101453	-1.3051549432	-1.2091648698	-0.114729
C	 2.1729108635	-1.5095449449	-2.5123247941	 0.134906
C	 3.329365246	-2.3096102373	-3.0231592266	-0.518126
C	 1.2314120115	-0.7656181686	-3.2713722889	 0.302472
N	 1.2373712801	-0.5867830692	-4.6576687292	-0.590033
N	 0.3262642537	-0.1644293077	-2.5043136934	-0.355615
H	 1.2253391161	 1.7374652522	 0.3037161471	 0.121719
H	-0.0936130095	 2.0860891831	-0.8290548638	 0.147182
H	-0.4356245894	 1.9172810806	 0.9066569843	 0.113376
H	 0.2191341738	-0.5221661983	 0.7705571852	 0.11275
H	-1.1363543711	-0.1441076943	-0.2981991157	 0.123315
H	 2.1714598457	-1.6688609784	-0.2777561695	 0.120795
H	 3.0079666118	-3.1757719426	-3.617285909	 0.116472
H	 3.9816670989	-1.7069943762	-3.6664201209	 0.131807
H	 3.938809748	-2.6938694525	-2.2003010747	 0.121486
H	 1.4325711642	-1.4395375909	-5.1663336245	 0.241951
H	 0.3665959273	-0.1820956022	-4.9786614025	 0.246963
