20
gdb 99478	2.51777	1.05592	0.83529	2.1437	82.55	-0.259	0.0211	0.2801	1464.6833	0.167941	-403.120776	-403.11015	-403.109206	-403.157036	37.839	
C	-0.0255042652	 1.6074526587	-0.0088998674	-0.395339
C	-0.0091129545	 0.0796842183	 0.0532694024	-0.167702
C	 0.6486990709	-0.5638925798	-1.1859208513	-0.211982
C	 2.0586069006	-0.1902976866	-1.3205005927	 0.35803
C	 3.2159371907	 0.1237399415	-1.4009205389	-0.498653
C	 0.5234362018	-2.0856012391	-1.1891017112	 0.402649
N	 0.1807903265	-2.7321926903	-0.1571409929	-0.526583
O	 0.826374015	-2.5575274524	-2.4257248481	-0.22411
C	 0.8238721617	-3.9648954812	-2.6122601441	-0.265908
H	 0.9884348123	 2.0132336425	-0.0727508126	 0.1302
H	-0.5845921105	 1.9664968512	-0.8807720249	 0.10962
H	-0.5009679622	 2.0234806555	 0.8842490218	 0.113459
H	 0.5183849913	-0.2661456791	 0.9459709429	 0.124436
H	-1.0279950483	-0.311729702	 0.129071141	 0.10786
H	 0.1243073374	-0.213586668	-2.0865906666	 0.120222
H	 4.2381257012	 0.3989760931	-1.4833569722	 0.196403
H	 0.142453849	-3.738455642	-0.3098722337	 0.218778
H	 1.5468553772	-4.4560569029	-1.9500400889	 0.134501
H	-0.1722447544	-4.390764143	-2.4392270647	 0.129918
H	 1.1116080296	-4.1327738942	-3.6505262078	 0.1442
