13
gdb 129257	5.67315	1.065	0.89667	3.2179	80.61	-0.2427	-0.0871	0.1556	1198.7634	0.088526	-415.552846	-415.545347	-415.544402	-415.58503	28.231	
N	-0.0193516852	 1.1767761396	 0.6233232761	-0.529293
C	-0.0490174024	 0.0512943709	 0.0409974165	 0.408184
O	 1.1196337029	-0.4993497984	-0.4869130197	-0.279791
N	 1.1825074797	-1.7179826421	-1.1369554917	-0.126002
C	 0.0731210347	-2.3833857728	-1.2569658837	 0.17209
C	-1.2070931021	-1.9161985857	-0.7496846624	-0.155953
C	-1.25693546	-0.7339762301	-0.1213725881	-0.115729
C	 0.1543173243	-3.6375109797	-1.9292843991	 0.260043
C	 0.1628788742	-4.7025103279	-2.4877506922	-0.36281
H	 0.9266418705	 1.5611242259	 0.6299249306	 0.233465
H	-2.0810120313	-2.5387614431	-0.895615815	 0.136867
H	-2.1664799113	-0.311340612	 0.2864472538	 0.146765
H	 0.190767766	-5.6414680446	-2.984154095	 0.212164
