16
gdb 28236	4.72335	1.23267	0.99554	0.8599	72.56	-0.1796	0.036	0.2157	1149.3198	0.12634	-437.897463	-437.889768	-437.888824	-437.930038	28.764	
N	 0.0159942059	 1.3706978515	-0.0968579674	-0.594966
C	-0.1179584753	-0.0087810919	-0.0211363466	 0.290757
C	-1.2119661953	-0.8231405584	-0.0143938541	-0.382905
C	-0.7260367575	-2.1710659391	 0.06035987	 0.16334
C	 0.6145480282	-2.0468586725	 0.1013301607	 0.428093
O	 1.3800228123	-3.1442851069	 0.2129691869	-0.284847
C	 0.403939405	-4.2390657787	 0.1337975712	-0.08966
C	-1.0479631272	-3.6335796229	 0.1853011518	-0.37768
O	 1.0645569475	-0.7970220623	 0.0546004276	-0.232155
H	 0.4827001063	 1.7700539118	 0.711478521	 0.244313
H	 0.5073298507	 1.6790885648	-0.9301993853	 0.244159
H	-2.22904113	-0.4669788082	-0.0645582152	 0.110972
H	 0.5877743955	-4.7607702153	-0.8094342391	 0.124513
H	 0.6175282865	-4.9156535966	 0.962931128	 0.125883
H	-1.5536305222	-3.8885474993	 1.1250806769	 0.114901
H	-1.6599771005	-4.039095706	-0.6275936962	 0.115282
