17
gdb 108156	3.40082	1.46006	1.23209	4.3394	74.	-0.2135	-0.0442	0.1693	1032.9966	0.134156	-417.850564	-417.842558	-417.841614	-417.882986	30.823	
C	-0.2433655074	 1.456731559	 0.2257062475	-0.332225
N	 0.2067130403	 0.0862842154	-0.0112163292	-0.365341
C	 0.8691499446	-0.5465327968	 1.0560483409	 0.32106
C	 2.3130793833	-0.1154721218	 1.4358999571	-0.200445
N	 2.6157066539	-0.9500246973	 2.6385791315	-0.230186
C	 1.708504464	-1.829833887	 2.5659744444	 0.280639
O	 0.6451223766	-1.9130501251	 3.4662729609	-0.264125
C	-0.0606557721	-1.3852442024	 2.2419765101	-0.023017
C	 0.8409469785	-2.0067443623	 1.2770394721	-0.276464
H	 0.6172179467	 2.0952354044	 0.4441497861	 0.138609
H	-0.7174130742	 1.8395297271	-0.6815781026	 0.125799
H	-0.9526538123	 1.5471375351	 1.0629641559	 0.113108
H	-0.5355600682	-0.4853305804	-0.3947290269	 0.231184
H	 2.9842679411	-0.2483602294	 0.5741633444	 0.116683
H	 2.3935932542	 0.9226040337	 1.7723277218	 0.130244
H	-1.1407189879	-1.3297955405	 2.3191732173	 0.123015
H	 0.7639315288	-2.8658673418	 0.6178441586	 0.111462
