25
gdb 60208	3.58771	0.87677	0.78437	0.3216	92.53	-0.2492	0.0828	0.3321	1590.9026	0.228824	-352.334858	-352.325094	-352.32415	-352.369756	37.725	
C	 0.0092587311	 1.582894248	-0.0902305721	-0.389374
C	 0.0437060928	 0.0534722448	 0.0353505095	 0.041838
C	 0.8588790102	-0.3649615242	 1.2674779064	-0.377548
C	-1.3865679381	-0.5197374224	 0.0370282785	-0.189221
C	-1.4895506899	-2.0445159961	-0.0263252376	 0.017158
C	-1.3419935876	-2.9282838911	 1.2688244444	-0.245801
C	-2.7056663801	-3.5630424173	 0.9747334987	-0.048244
C	-3.7667347816	-2.5010261516	 0.9495815387	-0.273761
C	-2.8772684444	-2.6678615664	-0.2533690962	-0.062633
H	 1.0205504308	 2.0005809567	-0.1398367337	 0.106619
H	-0.5295898922	 1.8992150231	-0.9896785965	 0.107597
H	-0.4929145577	 2.0351581215	 0.773702563	 0.110085
H	 0.5547228365	-0.3436055721	-0.8546030172	 0.067558
H	 0.3757699503	-0.0216642684	 2.1904915911	 0.108403
H	 0.9747442578	-1.4500324805	 1.3362042899	 0.118543
H	 1.8617868445	 0.0743892529	 1.2377445023	 0.10552
H	-1.9228489901	-0.1440188805	 0.9194238337	 0.086566
H	-1.9193376956	-0.111486953	-0.8332225914	 0.088769
H	-0.7964329469	-2.4157725679	-0.7899989155	 0.068321
H	-0.5052630954	-3.6278615638	 1.2068455311	 0.098909
H	-1.2727025961	-2.3895082677	 2.2198749296	 0.092709
H	-2.9478592981	-4.612590078	 1.0890909809	 0.081443
H	-4.7826789716	-2.8597553063	 0.8166847187	 0.106848
H	-3.6897050772	-1.627951886	 1.5934294716	 0.10281
H	-3.2912955013	-2.9150302538	-1.2245297979	 0.076886
