19
gdb 33097	6.36879	0.7748	0.69984	0.5851	80.48	-0.1989	0.03	0.2288	1640.7025	0.158069	-423.056334	-423.047003	-423.046058	-423.090945	33.681	
C	 0.0582895651	 1.5238783693	 0.0183397481	-0.391131
C	-0.0244146237	 0.0097307112	-0.0301294864	-0.049108
O	 0.7508069185	-0.4436189311	-1.1340797912	-0.266556
C	 0.7772549377	-1.7826822386	-1.3125113365	 0.354597
C	 0.1772619764	-2.7806058053	-0.6015917419	-0.182387
O	 0.4959934676	-3.9912762506	-1.1644774943	-0.191224
C	 1.2998027635	-3.7503285381	-2.2335962733	 0.401123
C	 1.7692372643	-4.9353289833	-2.9988659505	-0.488085
C	 1.5071798769	-2.4133684846	-2.3737481862	-0.419321
H	 1.0949018618	 1.8492062758	 0.1422424212	 0.131216
H	-0.3315962096	 1.9606553227	-0.9052241319	 0.131216
H	-0.5286669538	 1.9065673931	 0.8584055005	 0.118905
H	 0.3632473332	-0.4388009048	 0.8967498488	 0.102416
H	-1.0647109883	-0.327234053	-0.1518150773	 0.102414
H	-0.4602413131	-2.8129008636	 0.2630601656	 0.125835
H	 2.3482957775	-5.6174833448	-2.3660250694	 0.13778
H	 0.92862537	-5.5058588565	-3.4099608049	 0.137771
H	 2.4040323173	-4.6153799721	-3.8279086278	 0.13478
H	 2.0989677786	-1.9187784757	-3.1271247726	 0.10976
