17
gdb 125758	4.62722	0.82469	0.70916	2.5187	70.79	-0.2757	-0.0143	0.2614	1548.4039	0.135144	-455.156653	-455.147482	-455.146538	-455.191985	31.712	
C	-0.2873856022	 1.4080321788	 0.102671335	-0.4888
C	-0.0368036868	-0.0560313627	-0.0080852102	 0.351197
N	 0.7095204185	-0.5698507164	-0.9494062984	-0.170333
O	 0.6728393549	-1.9473845719	-0.6798002399	-0.206415
C	-0.098816501	-2.1041988776	 0.4027818013	 0.432285
C	-0.3125873049	-3.4856597978	 0.9158347394	-0.317619
C	-1.2111857278	-3.5218293603	 2.1475024876	-0.072476
O	-1.3249039553	-4.8844365586	 2.5211700362	-0.419726
N	-0.5673546144	-0.9843548326	 0.8667227287	-0.359846
H	 0.0613312257	 1.7798652897	 1.0707868857	 0.148216
H	 0.230192751	 1.9416520779	-0.6956037835	 0.150678
H	-1.3599258308	 1.6145967444	 0.0390711244	 0.148204
H	-0.7494546995	-4.1037860523	 0.1229998829	 0.148441
H	 0.6568390406	-3.9384669063	 1.1540612406	 0.148462
H	-0.7673999381	-2.9115560839	 2.9468691845	 0.10838
H	-2.1876597693	-3.0785654901	 1.9057959846	 0.108284
H	-1.8880525507	-4.9367412105	 3.2986347512	 0.291069
