14
gdb 3459	4.71653	2.66184	2.63733	1.8555	57.23	-0.2388	-0.0011	0.2377	595.1662	0.116283	-324.563073	-324.557647	-324.556703	-324.592125	21.244	
O	-0.0006557436	-0.0161864955	-0.1937956748	-0.329361
C	-0.0128500461	 1.1560510553	 0.0427685983	 0.416607
C	-1.0569308105	 2.2953344245	 0.0512515738	-0.122271
C	-0.8023853724	 2.9968851604	 1.3933133543	-0.200723
C	 0.7665295923	 3.0178382274	 1.3702803431	-0.200725
C	 1.0002118488	 2.3228295585	 0.0210385255	-0.12227
N	-0.0505516838	 3.0155804314	-0.8318145469	-0.316357
H	-2.0760424875	 2.1808245879	-0.31263246	 0.091666
H	-1.2275879378	 4.0023749634	 1.3980241407	 0.116144
H	-1.2132309064	 2.436436989	 2.2364366474	 0.111884
H	 1.1646905741	 4.0343230456	 1.3629194808	 0.116143
H	 1.2167614196	 2.4688753011	 2.200753571	 0.111886
H	 2.0108957176	 2.2354522389	-0.3726567809	 0.091666
H	-0.0583227843	 2.5813341922	-1.7557704422	 0.23571
