19
gdb 109074	3.60606	1.20571	1.1694	2.2276	75.66	-0.2356	0.006	0.2416	1152.833	0.160657	-423.021235	-423.013482	-423.012537	-423.053775	30.139	
C	 0.1594143827	 1.5005215267	-0.1901213864	-0.373616
C	-0.0779436965	 0.0129837166	 0.1272805101	-0.311753
C	 0.6301171779	-0.4461174483	 1.3610566455	 0.360496
C	 0.1579523471	-0.9471600125	 2.5073990381	-0.224776
C	 1.3945088098	-1.3830243419	 3.2813493883	 0.139266
O	 1.8867030047	-2.5913720012	 2.6438989722	-0.276351
C	 2.4445289355	-2.1155394088	 1.4152322729	-0.08245
C	 2.1488597753	-0.5822192782	 1.5025893523	-0.087606
O	 2.3494706426	-0.4105975837	 2.9161512651	-0.229792
H	 1.2228084489	 1.7150589558	-0.3364743984	 0.120314
H	-0.3682035433	 1.7893528986	-1.1040260193	 0.116673
H	-0.1980837912	 2.1340578284	 0.6268261515	 0.128188
H	-1.1516954358	-0.1744881784	 0.2363099069	 0.110342
H	 0.2539462841	-0.5897176755	-0.7301353381	 0.108519
H	-0.8667067586	-1.1532672545	 2.7850685065	 0.107616
H	 1.3468448919	-1.5373036963	 4.3569045144	 0.093394
H	 3.5224103089	-2.3081479964	 1.401612258	 0.109193
H	 1.969393815	-2.6011545671	 0.5563219757	 0.102226
H	 2.7961545709	 0.0727440267	 0.9227861546	 0.090117
