17
gdb 34158	3.77409	1.57324	1.37511	0.8391	82.1	-0.2361	0.0413	0.2774	957.5213	0.136624	-347.44702	-347.440331	-347.439387	-347.47776	28.311	
C	 0.0256627747	-1.1578698941	-0.0132980166	-0.363506
C	-0.0149240625	 0.0451780124	-0.0015368388	 0.058359
C	-0.0725038847	 1.477155694	 0.0144049458	 0.281475
C	-1.067428315	 2.2788455048	 0.9044042059	-0.292893
C	-0.8259850506	 3.4242765559	-0.1038873616	-0.080459
C	 0.6923150809	 3.7212314605	-0.1035655118	-0.07792
C	 0.9660032632	 2.9316035265	-1.3652560859	-0.095182
C	 1.2494571789	 2.3002887498	-0.0235993125	-0.126251
C	-0.4828866551	 2.3813599893	-1.2331111649	-0.10608
H	 0.0634112057	-2.2187182589	-0.023964587	 0.176996
H	-2.0786887208	 1.8689175832	 0.8253790816	 0.107664
H	-0.8033124984	 2.4334048658	 1.9545408033	 0.098541
H	-1.5246133876	 4.2481891408	-0.2376977591	 0.070199
H	 1.2199442338	 4.576015131	 0.2982926612	 0.088237
H	 1.6131404726	 3.1272129574	-2.2090465903	 0.088743
H	 2.1966276272	 2.0509292091	 0.4347091691	 0.091893
H	-1.1614337222	 2.0512593826	-2.0145805683	 0.080183
