16
gdb 89656	3.04694	1.30935	1.07445	2.7961	70.78	-0.2715	-0.0081	0.2634	1118.5535	0.122591	-437.864524	-437.855977	-437.855033	-437.897614	31.78	
C	-0.0837293241	 1.517733939	 0.0441729016	-0.509664
C	 0.1958858601	 0.0562451273	-0.0458854808	 0.284954
O	-0.6524273786	-0.8551755581	 0.6734581365	-0.314105
C	 0.7673487427	-0.9241596158	 0.9161194136	 0.246527
C	 1.3652297344	-1.7894076345	-0.1961035157	-0.350304
C	 0.7326984587	-0.7814163398	-1.2328877435	 0.100209
O	-0.2253409701	-1.2557864531	-2.1295702803	-0.428704
C	 1.2312340716	-0.7319155049	 2.2543645554	 0.209349
N	 1.6434870487	-0.5822961764	 3.3245768437	-0.337515
H	 0.7813629079	 2.0952150604	-0.2948675252	 0.139539
H	-0.9352413263	 1.7772427747	-0.5937379571	 0.148834
H	-0.3199105015	 1.8017439866	 1.0725924569	 0.15293
H	 2.4565812776	-1.7923477266	-0.2126828388	 0.132624
H	 0.9856500922	-2.8125143785	-0.2309668132	 0.124719
H	 1.4947585365	-0.2586199913	-1.8152941444	 0.107874
H	-0.9432001498	-1.6222083089	-1.5969223788	 0.292734
