22
gdb 64248	3.14341	1.20882	1.16064	2.2437	81.81	-0.2427	0.0742	0.317	1204.4251	0.193844	-404.337507	-404.328324	-404.32738	-404.371264	35.638	
C	 0.1543539423	 1.4097289517	 0.1212328266	-0.42607
C	-0.0652135458	-0.1006650018	-0.0572326609	 0.391256
C	-1.5511383648	-0.4445042519	-0.0645320555	-0.430706
C	 0.7010232804	-0.650826631	-1.2794781785	-0.33392
C	 2.0996852147	-0.8468579706	-0.719333846	 0.305658
C	 3.2406051201	-1.3688687741	-1.4997802492	-0.307701
N	 3.2156952045	 0.0472266839	-1.0770412389	-0.348744
C	 1.8857808564	-1.1218611656	 0.7689956775	-0.122866
O	 0.5235240789	-0.8111850972	 1.0487742722	-0.302044
H	 1.2202865587	 1.6559835767	 0.1219544564	 0.130273
H	-0.3280231325	 1.9755453018	-0.6831723348	 0.106482
H	-0.2708745899	 1.7361804009	 1.0745397869	 0.122072
H	-2.0584290495	 0.0396033873	-0.9051328685	 0.110649
H	-1.6919659934	-1.5259386523	-0.1454348251	 0.116386
H	-2.0251220379	-0.1063760245	 0.8616360937	 0.122858
H	 0.2690518556	-1.6122363598	-1.5803580526	 0.104461
H	 0.6770565478	 0.0182655217	-2.1447470182	 0.095731
H	 4.0022097444	-1.975049169	-1.0151158721	 0.118531
H	 3.0809263698	-1.6054159578	-2.5493313406	 0.110896
H	 2.9549194659	 0.632765045	-1.867561866	 0.226136
H	 2.0510057701	-2.1759871285	 1.0249654137	 0.100419
H	 2.5708591443	-0.5075683348	 1.3670013898	 0.110242
