19
gdb 114190	3.52061	1.10841	0.93842	2.1117	78.61	-0.2218	-0.0271	0.1947	1296.9513	0.157493	-423.007454	-422.99828	-422.997336	-423.041973	33.262	
C	 0.1648173776	 1.6338657027	-0.505813357	-0.247889
O	 0.4909057859	 0.3692155484	 0.0472095334	-0.241599
C	 0.6714095535	-0.6225677296	-0.9215315225	 0.031615
C	 0.9837423017	-2.0339352717	-0.3405776358	-0.374726
C	-0.1828936046	-2.6156698436	-1.157673484	 0.234729
C	-0.216504904	-3.8315022318	-2.0632598501	-0.306719
C	-1.1098780382	-3.7724196073	-0.8664339804	-0.306986
C	-0.6055850144	-1.2376811671	-1.5731687088	 0.320566
O	-1.572179164	-0.7834559054	-2.1228138236	-0.321726
H	 0.969421732	 1.9995383132	-1.1629115446	 0.104385
H	-0.7678954251	 1.5949123566	-1.08043029	 0.140617
H	 0.0484972734	 2.325484458	 0.3315646806	 0.127243
H	 1.3943850686	-0.306913045	-1.6933427499	 0.084411
H	 1.9793769535	-2.4217421997	-0.563168455	 0.109354
H	 0.8139159814	-2.0549439234	 0.7383595006	 0.124908
H	-0.6575007157	-3.6995342031	-3.0456962517	 0.134372
H	 0.6484146777	-4.4859236319	-2.0311369978	 0.124366
H	-0.8682467913	-4.3911412324	-0.0088029261	 0.125407
H	-2.168213818	-3.5898904068	-1.0209549574	 0.137672
