19
gdb 80587	2.72309	1.4029	1.23354	3.4378	75.99	-0.2265	0.0537	0.2802	1100.482	0.160107	-419.20947	-419.20077	-419.199826	-419.242848	33.091	
C	 0.4175905711	 1.587689261	 0.1330402702	-0.422541
C	 0.2593089338	 0.0912283908	-0.0143644421	 0.000325
C	 0.6269663153	-0.7153378131	-1.2437750601	-0.118798
C	 1.9447280105	-0.2262453014	-1.8612677172	-0.207485
N	 2.5999446864	-0.4326888057	-0.5492641719	-0.103869
C	 1.3755449341	-0.9120073648	 0.0750784824	-0.020534
C	 3.5304745886	 0.3526456861	 0.1001721986	 0.410247
N	 4.3720667337	 1.0536845391	-0.7551203179	-0.559986
O	 3.6026050963	 0.4233040496	 1.3124015516	-0.393404
H	 1.3354859234	 1.9558592038	-0.3312938397	 0.132095
H	-0.423890891	 2.1139834215	-0.3304273244	 0.111764
H	 0.455475097	 1.8669532465	 1.1902198961	 0.134251
H	-0.6477713499	-0.3017727286	 0.4428625326	 0.092345
H	-0.0614403446	-1.3874210107	-1.7371898859	 0.097209
H	 2.3387026777	-0.8983921571	-2.6317254752	 0.111293
H	 1.9713222156	 0.804774649	-2.2322736203	 0.117704
H	 1.3972423295	-1.7475638565	 0.7631250901	 0.107851
H	 4.5583048034	 0.6539043235	-1.6625247129	 0.252068
H	 5.188474779	 1.4155365969	-0.285672084	 0.259466
