19
gdb 126834	3.04316	1.26482	0.97212	5.0401	79.39	-0.2125	0.0166	0.2292	1262.249	0.159331	-415.398747	-415.388938	-415.387994	-415.434257	34.502	
C	-0.0922705359	 1.5352910671	 0.0043709712	-0.38033
C	 0.008952979	 0.0087965188	-0.0353529508	-0.150479
N	 0.7529557144	-0.4813681024	-1.1813718498	 0.031853
N	 0.1230323571	-0.7523710566	-2.3521865397	-0.176898
N	 1.0267583881	-1.1708449879	-3.1891119446	-0.253619
C	 2.2531023571	-1.1585472168	-2.5934849983	 0.264249
C	 3.4977649649	-1.590066695	-3.2966929297	-0.507541
C	 2.0861685728	-0.707932564	-1.2970135577	 0.220337
N	 2.9621549842	-0.5632969374	-0.216769227	-0.612732
H	 0.8945306732	 2.0037575248	 0.0820406244	 0.113966
H	-0.5750396778	 1.9070638848	-0.9029585712	 0.150142
H	-0.6838480174	 1.8504852559	 0.8691005186	 0.125688
H	 0.499607539	-0.3788320206	 0.8629681325	 0.131631
H	-0.985711723	-0.4376580582	-0.1012227979	 0.143783
H	 4.3517869088	-0.9538789299	-3.035501754	 0.110632
H	 3.7752828678	-2.6253714861	-3.0628583307	 0.129902
H	 3.3468686435	-1.5264118205	-4.3767932724	 0.149602
H	 3.8963650074	-0.8689575228	-0.4569939569	 0.256565
H	 3.0105083568	 0.3837055367	 0.1431567041	 0.253248
