20
gdb 39692	5.30338	0.78384	0.77245	2.2174	85.03	-0.2423	0.0276	0.27	1568.3632	0.171847	-403.133337	-403.12481	-403.123866	-403.168012	31.439	
C	-0.0007060866	 1.525052486	-0.1570120963	-0.214151
C	 1.5477068657	 1.5435809722	-0.2653947379	-0.222302
C	 1.5816737783	 0.2140554963	 0.5396829137	 0.048765
C	 0.0888891194	 0.0077466812	 0.158250133	-0.222614
N	 2.5094416706	-0.7953899318	 0.0756192047	-0.327246
C	 3.315404048	-1.3188247238	 0.8751436723	 0.456468
C	 4.4002601963	-2.3704607386	 0.7716846013	-0.376562
C	 4.5776996028	-2.0960137742	 2.2787786218	-0.076623
O	 3.5103380099	-1.102812757	 2.2351278208	-0.262637
H	-0.3586397743	 2.1016158732	 0.7007971266	 0.099564
H	-0.572519097	 1.8257208907	-1.0374275857	 0.095753
H	 1.8826219479	 1.3650126806	-1.2908086805	 0.107755
H	 2.090961561	 2.3983839049	 0.1449622517	 0.091784
H	 1.6791810003	 0.4176445493	 1.6128437899	 0.081517
H	-0.5757566084	-0.4085797962	 0.9192802224	 0.091654
H	 0.0181072267	-0.5979909713	-0.7492796231	 0.107785
H	 4.0472713662	-3.3676132135	 0.503361037	 0.138286
H	 5.2417212865	-2.0989149416	 0.1320844151	 0.138277
H	 4.3214916043	-2.9159864514	 2.9542385709	 0.122267
H	 5.5239597124	-1.6401710851	 2.5805280123	 0.12226
