17
gdb 39273	2.58763	2.26513	1.59844	1.1908	66.95	-0.2429	0.0744	0.3173	863.5	0.138178	-458.922145	-458.915718	-458.914773	-458.952621	26.723	
C	 0.0030867848	 1.4504487362	-0.0974826474	-0.424631
C	 1.3482676053	 0.7617246574	 0.0089988327	 0.064023
O	 2.1263645796	 0.4438510992	-1.1012450524	-0.244428
C	 2.2919150725	-0.9795693244	-1.1659678906	-0.103718
C	 0.9389144857	-1.7099229349	-0.9010005997	 0.164828
O	 0.7748144322	-2.1219015962	 0.4685319375	-0.291661
C	-0.035926933	-1.110087229	 1.109321326	-0.158361
C	 0.0658426313	-0.0306768623	 0.0656644911	 0.342157
O	-0.0833135548	-0.7729323048	-1.1361130667	-0.250401
H	-0.2903606141	 2.0704850806	 0.7424337889	 0.128714
H	-0.3357136256	 1.7907533538	-1.0695797413	 0.144817
H	 1.9029931299	 0.9093757076	 0.9364189603	 0.089342
H	 2.64452816	-1.1946136511	-2.178337251	 0.115418
H	 3.0428305697	-1.3232063281	-0.4415910312	 0.105833
H	 0.8085121852	-2.5844664826	-1.5428062516	 0.097316
H	-1.0537541305	-1.4883143117	 1.2593042739	 0.108865
H	 0.4086264019	-0.84084699	 2.0710115715	 0.111888
