23
gdb 75365	2.52265	1.64636	1.3209	0.2101	90.06	-0.2221	0.0355	0.2576	1104.2731	0.209555	-351.196776	-351.188847	-351.187903	-351.228786	32.618	
C	-0.03101578	 1.5210812805	 0.0357582568	-0.491446
C	 0.0147331133	 0.0219126419	-0.0561020815	 0.336915
C	 0.0171890518	-0.6401809087	-1.2165515608	-0.149891
C	 0.0377974752	-2.1466194485	-1.3053337097	-0.255667
C	-0.0851900635	-2.8058720345	 0.0828259986	-0.00061
C	-1.4962446407	-2.594101938	 0.701237308	-0.200679
C	-1.3902940742	-1.300708435	 1.5660516143	-0.203799
C	 0.02766414	-0.7553422967	 1.252853707	-0.085422
C	 0.830344707	-2.0555270356	 1.0687926162	-0.22513
H	 0.8563735946	 1.9139886919	 0.5494920341	 0.120118
H	-0.0876546625	 1.9881053166	-0.9515007938	 0.1167
H	-0.8980743926	 1.8564020326	 0.6205581993	 0.120578
H	 0.006817172	-0.0883115437	-2.1547907732	 0.070192
H	-0.7777161117	-2.4946925181	-1.9551913659	 0.096497
H	 0.9644709695	-2.4757812219	-1.7999761578	 0.096051
H	 0.1592596867	-3.8689927668	 0.0021774826	 0.056017
H	-2.2621740525	-2.5073279239	-0.0750553564	 0.095271
H	-1.7746352558	-3.4498033722	 1.3237311711	 0.093271
H	-2.1741423605	-0.5745859634	 1.3337396527	 0.094191
H	-1.4744743554	-1.5375843158	 2.6324067359	 0.089216
H	 0.40975309	-0.1244474499	 2.0613266446	 0.052829
H	 0.9149567661	-2.5972014752	 2.0181769286	 0.084036
H	 1.8387249034	-1.8860306257	 0.6793052192	 0.090761
