16
gdb 105345	2.39798	1.59591	1.18791	5.0723	68.54	-0.2745	0.0008	0.2753	1055.5461	0.123461	-437.838598	-437.830415	-437.82947	-437.871454	30.672	
O	 0.0521576666	 1.3463786411	-0.2651258934	-0.407647
C	 0.0798544542	 0.016572674	 0.196250674	-0.110482
C	-1.3174209927	-0.6033076165	 0.1302877155	 0.200461
O	-1.8562094425	-0.5259674347	-1.2267407448	-0.326049
C	-2.1675128249	-1.9310441621	-1.2002626298	 0.115427
C	-0.9215598567	-2.7422335208	-1.1105404684	-0.318575
C	-1.5116962429	-2.1289872974	 0.1456864513	-0.170723
C	-2.2382814127	 0.0679582433	 1.0605535653	 0.300113
N	-2.955472335	 0.5592528928	 1.8211351035	-0.331231
H	-0.3240885025	 1.3278434538	-1.1536849584	 0.300507
H	 0.7688909408	-0.6105965772	-0.3853070248	 0.100258
H	 0.4292513816	 0.0381078116	 1.2330385105	 0.13246
H	-3.121457604	-2.2395095965	-1.6079734474	 0.125924
H	-1.0616177381	-3.8174171959	-1.167022857	 0.132341
H	-0.0018005362	-2.3769707036	-1.5550139221	 0.128465
H	-1.8226202049	-2.700758012	 1.0075876559	 0.12875
