17
gdb 75091	3.30811	1.46005	1.08049	4.2497	76.49	-0.2118	-0.0042	0.2076	1099.7123	0.137504	-418.033862	-418.025955	-418.025011	-418.066387	30.17	
C	 0.0452051636	 1.5192237841	 0.0425566713	-0.484558
C	 0.0034614693	 0.0216709044	-0.014107998	 0.255024
C	-0.1303135835	-0.6758308057	-1.1459604468	-0.079495
N	-0.1702692247	-2.0745623546	-1.1637457294	-0.355819
C	 0.127676461	-2.8710406629	-0.0725646877	 0.423773
O	 0.3606452537	-4.0513236478	-0.1788519601	-0.357223
N	 0.081277612	-2.2155053848	 1.1819930508	-0.15379
C	 1.2795162971	-1.5247796356	 1.6679521808	-0.255783
C	 0.0641030739	-0.7487421741	 1.2554751133	-0.10934
H	 0.9881831162	 1.8806404985	 0.4726720691	 0.12837
H	-0.0611700481	 1.9590696542	-0.9529414968	 0.123895
H	-0.7595777816	 1.9177092187	 0.6742786192	 0.127534
H	-0.2075533195	-0.2068148495	-2.1202462774	 0.116211
H	-0.189536436	-2.5628544558	-2.0447166564	 0.259582
H	 1.5055880688	-1.6806848573	 2.7187779211	 0.129186
H	 2.1420475178	-1.4867226363	 1.0078021298	 0.129322
H	-0.5673530399	-0.3710378556	 2.0607119972	 0.103113
