18
gdb 71136	2.85096	1.78478	1.376	3.4818	76.87	-0.2465	0.0287	0.2752	978.9052	0.149119	-401.947988	-401.940802	-401.939858	-401.979202	29.462	
C	 0.0487385249	 1.4767126941	-0.0994707018	-0.485118
C	-0.0073131824	-0.0203487919	 0.0412321032	 0.392113
C	-1.340622249	-0.7298290661	 0.4477780148	-0.277074
C	-0.5045263216	-1.6640807293	 1.3184554315	-0.077819
C	 0.7591466712	-2.1215230621	 0.578034002	-0.123407
C	 0.7051954632	-0.7620827925	 1.2125890622	-0.134978
C	 0.8270095002	-1.934121879	-0.8960823607	 0.411136
N	 1.1907543705	-2.794215205	-1.7470804409	-0.5624
O	 0.4749049092	-0.6374256636	-1.1757621519	-0.281992
H	 1.0735811605	 1.8043455652	-0.2983519734	 0.132861
H	-0.5850276714	 1.808990892	-0.9271945882	 0.134528
H	-0.2998751909	 1.9581821709	 0.8183865416	 0.124259
H	-1.9684459703	-0.0758581352	 1.0592442508	 0.107389
H	-1.9295913648	-1.1508196352	-0.3728255352	 0.108063
H	-0.8487706915	-2.2327962862	 2.1731661888	 0.099203
H	 1.3215925797	-2.9311055131	 1.0215276845	 0.115666
H	 1.3905776733	-0.36678061	 1.9502254972	 0.098421
H	 1.1789488792	-2.392531213	-2.6861686744	 0.21915
