14
gdb 27491	2.06326	1.96115	1.01176	4.0975	67.67	-0.2698	-0.0525	0.2174	1095.973	0.101727	-470.083626	-470.075794	-470.07485	-470.116523	28.39	
C	 0.034276649	 1.4883160719	 0.0633779453	-0.469149
C	-0.089940837	 0.0091253701	-0.0902627436	 0.409597
N	 0.0325606736	-0.5849381776	-1.2100628951	-0.346729
C	-0.1017423863	-1.984406804	-1.2524629131	 0.44493
O	-0.0020301042	-2.6303249467	-2.2625145942	-0.345507
N	-0.3638737416	-2.5950292182	-0.025159332	-0.379638
C	-0.4967317626	-1.9614905153	 1.1870333436	 0.47053
N	-0.7328503956	-2.5708253105	 2.2632026453	-0.554704
O	-0.3461982349	-0.5870363903	 1.1133854832	-0.241829
H	 0.8412219556	 1.7242556667	 0.764258779	 0.159845
H	 0.2375482778	 1.9388279204	-0.9063540614	 0.168136
H	-0.8895622471	 1.8989493917	 0.4828076538	 0.159839
H	-0.4657725969	-3.6000122309	-0.0207053227	 0.286237
H	-0.7950371697	-1.9254795272	 3.0465359918	 0.238443
