23
gdb 109776	1.86399	1.32404	0.90311	1.3875	86.87	-0.2381	0.0762	0.3143	1402.8511	0.204811	-388.254821	-388.244566	-388.243622	-388.290836	37.724	
C	-0.6735921533	 1.0443188577	-1.7199768158	-0.405703
C	-0.1493841678	-0.150616272	-0.9491149306	-0.054747
C	 1.3226784213	-0.5016918229	-0.8414472598	-0.030351
C	 2.4110348019	 0.3190445338	-1.4819222302	-0.094984
O	 3.6137135572	 0.0865633416	-0.7559805208	-0.420917
C	 0.5637698421	-0.0269818155	 0.3834389064	-0.024374
C	 0.8326935448	 1.2868802847	 1.0490924445	 0.036688
C	 0.0857960159	 1.653041888	 2.3112225374	-0.279991
C	 1.5554622834	 1.3176833538	 2.3724593669	-0.261822
H	-0.0325389173	 1.9243609924	-1.6318674868	 0.114959
H	-0.7677827652	 0.8123094106	-2.7868110608	 0.113919
H	-1.6666194618	 1.3298918978	-1.3557112827	 0.118759
H	-0.8041967154	-1.0151806111	-1.0313500115	 0.080536
H	 1.5556949019	-1.5633316898	-0.861186875	 0.085151
H	 2.5254754096	 0.0158701557	-2.535703529	 0.082635
H	 2.1555292289	 1.3880158367	-1.4829907424	 0.078844
H	 4.3254152386	 0.5530302395	-1.204570083	 0.282395
H	 0.3321002436	-0.8109950853	 1.1018108037	 0.07346
H	 1.0497355153	 2.1167141685	 0.3852379998	 0.072903
H	-0.2168139146	 2.6849038314	 2.4533761596	 0.105845
H	-0.6172628844	 0.9277939104	 2.7083419429	 0.107723
H	 1.8430879953	 0.3665034228	 2.8077878662	 0.112296
H	 2.2625695399	 2.1189376413	 2.5563327009	 0.106777
