27
gdb 120443	3.91369	0.68062	0.67036	0.0908	97.14	-0.2741	0.0823	0.3565	1909.5571	0.250654	-353.568001	-353.557033	-353.556089	-353.604089	41.554	
C	-0.0612866086	 1.6217944344	-0.0421196846	-0.379054
C	-0.0672572763	 0.0913277443	-0.0866362525	-0.161337
C	 0.8283332244	-0.4842561906	-1.1902404027	-0.191334
C	 0.8189262745	-2.0064657078	-1.2526275968	 0.053965
C	-0.472401239	-2.7268054223	-1.737698498	-0.268054
C	 0.4056078607	-3.7039627311	-2.5843127383	 0.35506
C	 0.6525781651	-5.0287037963	-1.8576725783	-0.43341
C	-0.0541151336	-3.950760311	-4.0178676815	-0.448013
C	 1.5944295197	-2.7054226051	-2.4033841881	-0.289551
H	 0.9486080072	 2.008385483	 0.1354910705	 0.112214
H	-0.4136351588	 2.0462831216	-0.9889558659	 0.112283
H	-0.7082836385	 2.003024707	 0.7543045862	 0.10914
H	 0.2574141593	-0.305459691	 0.8846299691	 0.091933
H	-1.0947692957	-0.2671211821	-0.2311235014	 0.098583
H	 0.5096891916	-0.0827619187	-2.1632839723	 0.084151
H	 1.859606431	-0.1330922371	-1.0411374844	 0.088509
H	 1.1344012306	-2.4080841938	-0.282565572	 0.064531
H	-1.1222710986	-3.1750534061	-0.9803904019	 0.088377
H	-1.0819052175	-2.0750442187	-2.373854039	 0.087023
H	-0.2595331638	-5.6362035118	-1.8283180848	 0.108474
H	 1.4288988721	-5.6146027073	-2.3635048335	 0.10862
H	 0.978015967	-4.868522588	-0.8242417998	 0.110131
H	-0.2290323544	-3.0080553314	-4.5473270266	 0.10488
H	 0.6959968182	-4.5170302868	-4.583297557	 0.108838
H	-0.9881120511	-4.5252640626	-4.0413348471	 0.108721
H	 1.7069613247	-2.0464986224	-3.2713819916	 0.087644
H	 2.5730373197	-3.1345018185	-2.1675608578	 0.087679
