21
gdb 58642	2.63902	1.23342	1.05991	3.4196	77.86	-0.2347	0.0622	0.2969	1241.2623	0.182594	-420.346286	-420.3368	-420.335856	-420.380609	35.935	
C	 0.1772864695	 1.446151628	 0.5548077692	-0.440078
C	 0.0370796146	-0.0745693598	 0.4612096135	 0.061882
O	 0.4337209464	-0.7026517483	 1.6800833735	-0.423963
C	-1.3399810612	-0.6034278023	 0.044320676	 0.273163
C	-2.568235045	-0.0367614363	 0.6707139369	-0.286892
N	-2.2705847214	 0.2093692896	-0.7520747927	-0.363794
C	-1.3010707408	-2.0583492949	-0.3450179036	-0.032731
C	-2.4047827191	-2.6950799513	-1.095829518	-0.255425
N	-1.1161519349	-2.4237637258	-1.7638260145	-0.331828
H	 1.1751856326	 1.6787616405	 0.9343567134	 0.13776
H	 0.0722330762	 1.9311134155	-0.4212592004	 0.121503
H	-0.5503061105	 1.8897226581	 1.2442143715	 0.115089
H	 0.7649700156	-0.4392711892	-0.2734592582	 0.106248
H	-0.2379564338	-0.4979315388	 2.340756265	 0.277557
H	-3.4185820411	-0.6868246454	 0.8541024692	 0.124965
H	-2.478007713	 0.7961654267	 1.363723397	 0.109939
H	-1.9150531574	 1.1535367811	-0.8698676687	 0.234043
H	-0.7142509091	-2.6656870192	 0.3386594879	 0.102168
H	-2.6270736458	-3.7463199539	-0.9352680294	 0.112056
H	-3.2524154248	-2.0744231361	-1.3703847667	 0.126028
H	-1.2391575369	-1.5779263783	-2.3199705408	 0.232311
