17
gdb 112280	2.45484	1.24269	0.90884	2.6762	65.17	-0.2602	-0.0095	0.2506	1274.5293	0.134268	-496.101219	-496.091935	-496.090991	-496.136062	32.348	
C	 0.3138326268	 1.4447558911	-0.0652353028	-0.250646
O	-0.2810597804	 0.2180017579	 0.3374997769	-0.240869
C	 0.4765372741	-0.4779936822	 1.275759359	-0.070578
C	-0.0676200689	-1.8698534724	 1.6537171597	 0.055764
C	-1.2121405194	-2.4329895989	 0.8333184044	-0.064197
O	-1.3652209966	-3.8179805966	 1.0716291451	-0.419348
O	 1.2110194794	-2.4794713765	 1.2270763173	-0.266137
C	 1.6965844991	-1.2802781432	 0.7651493397	 0.42852
O	 2.7091258923	-1.0782931979	 0.1768740195	-0.320628
H	 1.2895877934	 1.2806729815	-0.5369478982	 0.146793
H	-0.3679451655	 1.9021213383	-0.7842159761	 0.138445
H	 0.4414612631	 2.1209125656	 0.7930532563	 0.114727
H	 0.7358645765	 0.1487453716	 2.1425588294	 0.106251
H	-0.2136978983	-2.0543267292	 2.7199664391	 0.109338
H	-2.1462586086	-1.949033569	 1.1347458042	 0.127049
H	-1.0484824865	-2.2084250929	-0.2291807284	 0.109922
H	-0.5381056806	-4.2415973872	 0.814497605	 0.295592
