17
gdb 31799	4.8762	0.99367	0.84322	3.0625	78.43	-0.2389	-0.0321	0.2068	1347.6046	0.136448	-418.061406	-418.052588	-418.051644	-418.096826	30.914	
C	-0.0603314374	 1.4889489823	-0.0364750775	-0.459276
C	 0.0079639556	-0.0118367866	 0.0189137863	 0.352709
N	 0.4041072142	-0.644926089	-1.0949828594	-0.285895
C	 0.4602729194	-1.9737949471	-1.0445074796	-0.041768
C	 0.1293646992	-2.7029148527	 0.0984279405	 0.220414
C	 0.1573857775	-4.2078875996	 0.1337233309	-0.184315
O	 1.1587602259	-4.6696481834	-0.7584121019	-0.411556
C	-0.2480293065	-1.9389306306	 1.1966860408	-0.060834
N	-0.3184782884	-0.6074472257	 1.1724889969	-0.283349
H	 0.9425604445	 1.9077398155	-0.1728943301	 0.140514
H	-0.6573551583	 1.8103868091	-0.8948878898	 0.138699
H	-0.4904085795	 1.8841630362	 0.8840008491	 0.134645
H	 0.7918566237	-2.4890532686	-1.9414523247	 0.128569
H	 0.3455609486	-4.5453980087	 1.1655368172	 0.102063
H	-0.8325229098	-4.600057089	-0.1529821716	 0.109142
H	 1.0625152296	-5.6217613833	-0.8516195822	 0.294306
H	-0.5038431784	-2.4171987087	 2.1421815451	 0.105931
