12
gdb 123291	1.97752	1.9157	0.97306	4.5482	77.5	-0.2581	-0.0587	0.1994	1094.7013	0.079289	-394.536198	-394.52882	-394.527876	-394.568344	27.078	
C	 0.1420433516	-1.1955041201	-0.0053704861	-0.417873
C	 0.0302899213	 0.0025882963	 0.0027598865	 0.285971
C	-0.0881536223	 1.4040271446	 0.0120504947	 0.212932
C	-1.20650584	 2.2445055309	 0.0322657174	-0.024667
C	-0.6711511183	 3.556060643	 0.0319290675	-0.066769
N	 0.6536635117	 3.5431406494	 0.0133373809	-0.195307
N	 0.9821014707	 2.2410923522	 0.0016484005	-0.287797
C	-2.5651674523	 1.8565696717	 0.0491483302	 0.186234
N	-3.6827734167	 1.5537989144	 0.0631253053	-0.345888
H	 0.2259092613	-2.2548668847	-0.0123758763	 0.21415
H	-1.2124971186	 4.4893317863	 0.0445860935	 0.147808
H	 1.9527049916	 1.9713050061	-0.0133831441	 0.291205
