17
gdb 13602	4.57526	1.28089	1.14406	4.4249	67.45	-0.2334	0.0207	0.2541	1080.1869	0.141923	-401.019408	-401.010965	-401.010021	-401.05273	30.602	
C	-0.0551281474	 1.4488810875	-0.1624731678	-0.335746
N	-0.1132500889	-0.000135766	-0.1721022015	-0.330078
C	-1.1932066712	-0.7000634285	 0.2653633405	 0.479921
O	-2.19884601	-0.1447729738	 0.7155464472	-0.430024
C	-1.1021795816	-2.1780746365	 0.1476773225	-0.216932
C	-1.7571059566	-3.0080773946	 1.2571891149	-0.324786
C	-2.4296002886	-2.9248498922	-0.0702860508	 0.157208
O	-3.6107947677	-2.2390061816	-0.2641259894	-0.425161
H	 0.7619786932	 1.8098453878	 0.4718237756	 0.128333
H	 0.0829110091	 1.8472756914	-1.1735965859	 0.129063
H	-1.0027181317	 1.8100784464	 0.2373947719	 0.174921
H	 0.6808617337	-0.5142420758	-0.5149047471	 0.248773
H	-0.2118153254	-2.5817697589	-0.3240809091	 0.079578
H	-1.2576054545	-3.9252291008	 1.5494364664	 0.115148
H	-2.197144494	-2.4347366161	 2.0659420739	 0.13763
H	-2.3719244489	-3.7932032321	-0.7195636001	 0.107779
H	-3.4926528794	-1.3660858462	 0.155809169	 0.304373
