21
gdb 83203	2.44596	1.44734	1.19127	0.8132	87.19	-0.251	0.0599	0.3109	1152.1928	0.183083	-349.923549	-349.914634	-349.91369	-349.957101	34.448	
C	 0.0715936196	 1.5471818867	-0.5826730106	-0.421765
C	 0.0824892587	 0.1001899329	-0.1326871725	 0.004992
C	 1.2407150202	-0.8675760202	-0.2492595697	-0.07027
C	 2.6646055869	-0.3423816726	-0.3983932408	-0.226457
C	 2.9002797415	 0.640451149	 0.7744714133	-0.242535
C	 1.8335452229	 0.2835624983	 1.8574475796	-0.161601
C	 1.3889838649	 1.4305019511	 2.6426978861	 0.324216
C	 1.0262478564	 2.3769077203	 3.2902309626	-0.470827
C	 0.7201247065	-0.465876268	 1.1163382318	-0.06595
H	 1.0344230537	 2.0469435856	-0.4756374914	 0.122477
H	-0.2131850831	 1.6094146844	-1.6391793496	 0.112551
H	-0.6591364678	 2.1243556683	-0.0068005562	 0.126387
H	-0.8710078027	-0.3840681012	-0.3373541975	 0.083426
H	 1.0345055972	-1.8529788485	-0.6546565156	 0.078467
H	 3.3571005435	-1.1889384266	-0.3311954985	 0.101368
H	 2.8476915065	 0.1360484782	-1.367040689	 0.10064
H	 3.9112565656	 0.5622728793	 1.1825816177	 0.105304
H	 2.7748857249	 1.6772609872	 0.45949683	 0.121081
H	 2.2816532418	-0.4406929162	 2.551316419	 0.103159
H	 0.7022103421	 3.2102188871	 3.8625874238	 0.190296
H	 0.1237522307	-1.143334265	 1.7180745875	 0.085042
