18
gdb 77185	3.39174	1.05984	0.86377	1.8641	74.66	-0.2665	0.0173	0.2837	1336.7216	0.146988	-439.06386	-439.054987	-439.054043	-439.098205	32.344	
O	 0.1356175327	 1.1319805923	 0.402379112	-0.432756
C	 0.1573633638	-0.2165648792	 0.0146376902	-0.025118
C	-1.228740969	-0.8829443381	-0.1656698772	 0.108138
O	-0.8730979015	-1.1833264569	-1.5773726043	-0.270795
C	 0.3057887579	-0.4924940145	-1.4682665449	 0.399752
N	 1.1635417966	-0.1506771705	-2.317747445	-0.558453
C	-1.5696567514	-2.1060795238	 0.6141026117	 0.003508
C	-2.4284143267	-1.9695642849	 1.8515323111	-0.270251
C	-2.9868203009	-2.6256788037	 0.6185942175	-0.267535
H	 0.8191874751	 1.5834430268	-0.1066343888	 0.302802
H	 0.8371643665	-0.8136461014	 0.6386586838	 0.098689
H	-2.0353156208	-0.1438752448	-0.1500942325	 0.100687
H	 0.9105425472	-0.4543794139	-3.259543365	 0.230647
H	-0.777903655	-2.8491942409	 0.6491413118	 0.091627
H	-2.1822482737	-2.5897481377	 2.7054404792	 0.12128
H	-2.7894054831	-0.9802210294	 2.1116373678	 0.124648
H	-3.7253168609	-2.0801912508	 0.0408692759	 0.12203
H	-3.1300240168	-3.6999462088	 0.6227233067	 0.1211
