17
gdb 68662	2.41977	1.91539	1.50752	4.0784	73.22	-0.2143	-0.0179	0.1965	941.3882	0.136928	-418.014257	-418.006574	-418.00563	-418.045982	30.137	
C	 0.0359313938	 1.5599367356	 0.0618008341	-0.469861
C	 0.0025597979	 0.0562083249	-0.0376852287	 0.193095
C	 0.6947316965	-0.7192233699	-1.2147696085	-0.283616
C	-0.3582506285	-1.8546520265	-0.981166644	-0.132628
N	 0.0032275847	-2.6401349402	 0.2047991885	-0.281309
C	 0.461644564	-1.8544243357	 1.2420081224	 0.056016
N	 0.4326333193	-0.5766104538	 1.2442746907	-0.270601
C	-1.2598967029	-0.6929146825	-0.4833133954	 0.434211
O	-2.4231598454	-0.4343634834	-0.5807413565	-0.321013
H	 1.0453749183	 1.9033676609	 0.3075582196	 0.124389
H	-0.2793319889	 2.0235033713	-0.8775558137	 0.114167
H	-0.6353944775	 1.8950219586	 0.8575890858	 0.138021
H	 0.5509339534	-0.2235850378	-2.1770769906	 0.118795
H	 1.7431109273	-0.9819506384	-1.0599537679	 0.109877
H	-0.6982482825	-2.4932280382	-1.7945264686	 0.099028
H	 0.4465738319	-3.5376456607	 0.0634684836	 0.247437
H	 0.8314706488	-2.3919866543	 2.1145597094	 0.123992
