19
gdb 110482	4.04252	1.27396	1.25669	1.7504	76.91	-0.2421	0.0647	0.3068	1062.1645	0.160817	-385.805636	-385.798471	-385.797526	-385.837373	29.13	
O	 0.1463770513	 1.42281466	-0.0883909099	-0.422205
C	 0.1028472648	 0.0156034103	 0.1210329679	-0.093088
C	-1.3075650529	-0.5417358576	 0.0587674365	-0.004672
C	-2.0625610773	-0.6304147837	-1.3002456497	-0.092622
C	-1.3021114366	-1.6413264132	-2.1938997775	-0.069844
C	-0.9326348737	-2.7022746422	-1.151482513	-0.066189
C	-2.2435238496	-2.787788942	-1.899063856	-0.111208
C	-2.8460499452	-1.8923606825	-0.7744664068	-0.049827
C	-1.5593946113	-2.0720269205	 0.1176512717	-0.091104
H	-0.217241942	 1.5953813907	-0.9626932376	 0.281153
H	 0.7459668064	-0.5140593594	-0.5993995374	 0.087579
H	 0.5306006758	-0.1464453414	 1.1170673484	 0.104967
H	-1.9432954735	-0.0317927262	 0.7932381296	 0.076021
H	-2.5477480789	 0.225990728	-1.7682454447	 0.061454
H	-0.7070022027	-1.4626072125	-3.0795127532	 0.084105
H	-0.0554940702	-3.3287828846	-1.2425544837	 0.085637
H	-2.6508510558	-3.5581702998	-2.5396846643	 0.086897
H	-3.8641516589	-1.8739844392	-0.3951083721	 0.069792
H	-1.5391400699	-2.6364849642	 1.0491470119	 0.063154
