19
gdb 76448	2.99808	0.97309	0.91186	3.9028	72.46	-0.2308	-0.0173	0.2135	1359.3906	0.155213	-460.15023	-460.13992	-460.138976	-460.186133	36.686	
C	 0.0054245872	 1.479734184	-0.2768709306	-0.420117
C	 0.0271141063	-0.0041872015	 0.0124495278	-0.124207
C	 1.3242097692	-0.7995177934	-0.0074141236	-0.010227
O	 2.5507707013	-0.1261286742	-0.1227879884	-0.429375
C	 0.6241462079	-0.5427010271	 1.3050242263	 0.381015
O	 1.2622616261	 0.3570744471	 2.1653474248	-0.473618
C	-0.0636184729	-1.6558779965	 2.0687212911	-0.34022
C	 0.9231684521	-2.5510515474	 2.7933228075	 0.162626
O	 0.861121129	-3.7541244779	 2.810578953	-0.246327
H	 0.798843678	 2.003118477	 0.2601876826	 0.125492
H	 0.1160631353	 1.6836547422	-1.348331957	 0.111621
H	-0.9455519177	 1.9164052428	 0.0431189802	 0.129932
H	-0.8314387924	-0.5542850576	-0.3656108397	 0.089931
H	 1.3210011574	-1.8022758221	-0.4318111546	 0.102391
H	 2.5681045095	 0.355933202	-0.9560654736	 0.300683
H	 2.118754633	 0.5561661288	 1.7593683463	 0.297375
H	-0.7176059687	-1.1958677144	 2.8237012925	 0.134277
H	-0.6855971391	-2.2741631278	 1.4164067672	 0.118353
H	 1.7315160582	-2.0039711944	 3.3242193383	 0.090395
