15
gdb 132148	3.23859	1.36152	0.96417	5.0464	72.37	-0.2172	-0.0157	0.2015	1135.3374	0.113688	-458.143877	-458.13606	-458.135116	-458.176223	29.438	
C	 0.0006553488	 1.505297004	-0.0332398344	-0.472296
C	-0.0061963253	 0.0077818565	-0.0214586544	 0.252545
C	-1.1339716324	-0.7157012435	-0.1248778579	-0.098515
N	-1.0851472406	-2.1070986384	-0.1091358281	-0.383973
C	 0.1304157741	-2.6966215603	 0.0137770287	 0.401867
F	 0.0503286638	-4.0202118216	 0.0168262867	-0.066789
N	 1.2506797789	-2.116180014	 0.1177355826	-0.400316
C	 1.2816554018	-0.7019842231	 0.1090577099	 0.270424
N	 2.3690793911	-0.0344392489	 0.2088035402	-0.531672
H	 0.6220578736	 1.8763407961	-0.8543330334	 0.148164
H	-1.0093174576	 1.9126300831	-0.1341044097	 0.104955
H	 0.4544589153	 1.8906847928	 0.8851287536	 0.148183
H	-2.12187204	-0.2851512173	-0.2239893892	 0.133283
H	-1.9134119254	-2.6736353798	-0.1843106243	 0.27767
H	 3.152752804	-0.6845593457	 0.2901055496	 0.21647
