19
gdb 63316	2.61581	1.59341	1.32389	4.3374	76.57	-0.2519	0.032	0.2839	1052.3833	0.15915	-419.210756	-419.202383	-419.201439	-419.243346	32.685	
C	 0.1136617324	 1.4922732277	-0.1499453132	-0.423469
C	-0.0624293422	-0.009924329	 0.0503208323	 0.33251
C	-1.5399387222	-0.4032466143	 0.1310075441	-0.423164
O	 0.5308399529	-0.6930850181	-1.0835002719	-0.273232
C	 1.2711962608	-1.7739668096	-0.6751550057	 0.413637
N	 1.759074871	-2.6522493657	-1.4341387092	-0.54531
N	 1.43368469	-1.7887926263	 0.7423934554	-0.133057
C	 2.1880651734	-0.5873193483	 1.1932626873	-0.268456
C	 0.7109732974	-0.5997255666	 1.2275786667	-0.049963
H	 1.1692154568	 1.7567247101	-0.2452543806	 0.125025
H	-0.4073436088	 1.8198989668	-1.0539662689	 0.131724
H	-0.3042990586	 2.0376797999	 0.7017062482	 0.123811
H	-2.0549695481	-0.1231849968	-0.791664886	 0.130419
H	-1.6450018068	-1.4826399381	 0.2730304497	 0.13663
H	-2.0284761721	 0.1050315238	 0.96847837	 0.12034
H	 1.5082354749	-2.4532958293	-2.4023412714	 0.22559
H	 2.7511838076	-0.7385520064	 2.1078907764	 0.134111
H	 2.6913340285	-0.0008576698	 0.4301978327	 0.136676
H	 0.1847278531	-0.7099090699	 2.1707309842	 0.106178
