20
gdb 22551	2.28509	1.01601	0.85927	2.1779	75.52	-0.2484	-0.0015	0.2469	1432.2534	0.167357	-477.368097	-477.357139	-477.356195	-477.404696	38.399	
C	-0.0898139874	 1.2538818988	 0.0435700352	-0.239717
O	 0.1987581079	-0.1313858034	 0.04942067	-0.260255
C	 0.7116782192	-0.6257701041	-1.1863213004	 0.007735
C	 1.3520702841	-1.9759612476	-0.8395534669	-0.075023
O	 2.3265057112	-1.8259630675	 0.1686878723	-0.42226
C	-0.3738510047	-0.7462083778	-2.2347017122	 0.349649
C	-1.6435254907	-1.4840871833	-1.9129395148	-0.482947
N	-0.1100168106	-0.1927299278	-3.3573006464	-0.17432
O	-1.1343054442	-0.3895137693	-4.2923660908	-0.393699
H	 0.8089389059	 1.8490232112	-0.1733724518	 0.116717
H	-0.859923895	 1.5087633276	-0.6967590935	 0.119622
H	-0.456268109	 1.5085610705	 1.0406931801	 0.129173
H	 1.4916850544	 0.0465694208	-1.5684802519	 0.09086
H	 0.5655848177	-2.6865338162	-0.5388863733	 0.090614
H	 1.8507303744	-2.3775418551	-1.726695018	 0.118439
H	 1.9029128572	-1.2955984312	 0.8550282316	 0.287368
H	-2.503694992	-0.9598408366	-2.3360368091	 0.147063
H	-1.6334867261	-2.4862117451	-2.357203391	 0.145393
H	-1.7637360966	-1.5796753003	-0.8327914443	 0.137583
H	-0.8094222158	 0.0998589363	-5.0557881948	 0.308002
