15
gdb 127295	5.00967	1.28527	1.04068	2.0909	69.37	-0.1991	0.0198	0.2188	1098.2011	0.114476	-453.929656	-453.922213	-453.921269	-453.961876	27.104	
C	 0.001920559	 1.3780872478	 0.0744082008	-0.31385
N	-0.1330086645	-0.0561795032	-0.0170248022	 0.030476
C	-0.1106464152	-0.811395336	-1.1743945872	-0.203784
C	 0.0208944739	-2.1015429919	-0.7405230916	 0.209598
O	 0.0135410132	-3.4101691199	-1.1434279267	-0.288974
C	 0.3452953392	-4.1223568737	 0.0684937756	 0.004226
O	 0.1221269364	-3.2630949878	 1.2035913129	-0.273319
C	 0.0806656606	-2.0208042832	 0.6448815993	 0.390901
N	 0.0059974864	-0.8045350577	 1.126908713	-0.377265
H	 1.0519576666	 1.6935437574	 0.1145989959	 0.135383
H	-0.4744477231	 1.8386250829	-0.7946295147	 0.134201
H	-0.5018534916	 1.7171439511	 0.9812655744	 0.155539
H	-0.2012063001	-0.3549202209	-2.1452878665	 0.140166
H	-0.2977748139	-5.0006124662	 0.1531606928	 0.137539
H	 1.4074241531	-4.4038727287	 0.0379502942	 0.119165
