14
gdb 4434	3.49496	1.88602	1.23933	5.6601	61.02	-0.1962	0.0411	0.2373	922.112	0.107639	-415.916309	-415.908557	-415.907613	-415.948135	28.233	
C	 0.0981733607	 1.4910525478	 0.02301558	-0.496583
C	-0.0707080389	 0.0195151339	 0.0365634771	 0.312876
C	-1.1348439526	-0.7980489601	-0.030777562	 0.173989
N	-2.5167266109	-0.5825701732	-0.0523918957	-0.607193
N	-0.6382182145	-2.1067561772	-0.0067382476	-0.391699
C	 0.7336659663	-2.0889076349	 0.1397953573	 0.474808
O	 1.5059428648	-3.0030301492	 0.23981041	-0.404197
O	 1.0842115788	-0.7583081152	 0.1489961385	-0.249676
H	 0.7889425962	 1.8032645485	-0.7687160939	 0.144954
H	-0.8629958615	 1.9807903533	-0.1577732627	 0.119864
H	 0.4969838531	 1.8682764986	 0.9724464818	 0.143174
H	-2.7466215294	 0.388123657	 0.1169993895	 0.253348
H	-2.9454063489	-0.8716161671	-0.9271855208	 0.252596
H	-1.185053353	-2.9355416622	 0.1509015884	 0.273738
