16
gdb 19033	4.01535	2.15679	1.82988	3.383	67.56	-0.2308	-0.008	0.2228	758.6809	0.132887	-346.606957	-346.601065	-346.600121	-346.636804	24.194	
O	 0.0107780274	 0.0028992117	-0.1530322997	-0.332752
C	-0.0223191799	 1.1989820373	-0.0042142174	 0.407167
C	-1.2859518999	 2.0712589118	 0.0950457134	-0.324274
C	-0.7469920604	 3.4338115595	 0.5336860255	-0.054575
C	-0.0606554908	 3.322173324	 1.9359980578	-0.239605
C	 1.2694289891	 3.1257618436	 1.2150940192	-0.055058
C	 0.6805141147	 3.5563192483	-0.0995126916	-0.088266
C	 1.1516903847	 2.1282090448	 0.0455494266	-0.147104
H	-1.740581018	 2.1194664812	-0.9028136046	 0.125877
H	-2.0201948364	 1.631025473	 0.7752934573	 0.123673
H	-1.4341185255	 4.2672252051	 0.3986228221	 0.07891
H	-0.0761140784	 4.2772222527	 2.4673059736	 0.108051
H	-0.4160937292	 2.532422772	 2.6072427166	 0.100362
H	 2.2568150922	 3.321084986	 1.6161710091	 0.096895
H	 1.0328113859	 4.2517102429	-0.8491602475	 0.096287
H	 2.0917803246	 1.8011015859	-0.3808136904	 0.104411
