17
gdb 100608	3.76697	0.85408	0.77045	3.7174	67.66	-0.2526	-0.0243	0.2284	1454.0497	0.135757	-492.305561	-492.29617	-492.295226	-492.340581	33.542	
O	 0.0086940394	 1.1043235491	-1.0123367283	-0.421144
C	 0.0669064242	-0.2627687453	-0.6153587634	-0.100341
C	-1.0424375737	-0.5573210589	 0.4092410728	 0.059508
O	-2.2703875792	-0.0275268041	-0.0640331384	-0.455881
C	-1.1595380006	-2.0588406433	 0.6352961326	 0.334471
N	-0.2657011932	-2.6525577006	 1.3112311439	-0.513763
N	-2.2719157128	-2.6196907708	-0.0094105077	-0.333237
C	-2.6178165968	-3.9451248248	-0.0362148954	 0.162727
O	-1.991437003	-4.8490985103	 0.4713367414	-0.300491
H	 0.3821224462	 1.6400154117	-0.3037123198	 0.296124
H	-0.1103397362	-0.8437823017	-1.5260876989	 0.122181
H	 1.0416984466	-0.5454070046	-0.2052151031	 0.133969
H	-0.7712037926	-0.1040110991	 1.3733778694	 0.09971
H	-2.0259286657	 0.747898844	-0.590176299	 0.296102
H	-0.4434077071	-3.6569246218	 1.3401930616	 0.253153
H	-2.8853609756	-1.9418400903	-0.4446977125	 0.271631
H	-3.56110337	-4.1072378192	-0.5919229353	 0.095281
