17
gdb 33552	2.17242	1.57207	1.18559	0.9757	85.61	-0.2496	0.008	0.2576	1112.62	0.134169	-347.490137	-347.481413	-347.480469	-347.523354	33.48	
C	-0.0152345152	-1.2291968296	-0.0238093179	-0.448713
C	-0.0313656844	-0.0278562915	-0.0270158669	 0.28866
C	-0.0302336712	 1.4389341916	-0.0038787036	-0.089972
C	-0.6177600532	 2.005796787	 1.3435603645	-0.250426
C	 0.2435979347	 3.2425529293	 1.6820822954	-0.264283
C	 1.5191847613	 2.9886495975	 0.9175064746	-0.06521
C	 1.389937491	 2.0219451535	 0.0154263994	-0.092226
C	-0.7592000651	 1.958699544	-1.171921692	 0.334306
C	-1.3447939907	 2.4135075335	-2.1176320319	-0.487178
H	-0.0066188286	-2.2909938311	-0.0303051615	 0.195065
H	-1.6836652778	 2.2184815582	 1.2545078464	 0.117758
H	-0.484412301	 1.2390148734	 2.1099439881	 0.121837
H	-0.226926907	 4.1756290409	 1.3442355243	 0.11977
H	 0.4040920365	 3.3475381474	 2.7603717417	 0.109523
H	 2.4214755891	 3.570006946	 1.0721375927	 0.102262
H	 2.1371749801	 1.676445021	-0.6871050813	 0.111918
H	-1.8631420185	 2.8034215688	-2.9583733021	 0.196908
