17
gdb 20909	3.21126	1.99123	1.3621	3.2356	70.81	-0.2013	0.0423	0.2436	927.1451	0.144103	-360.065247	-360.057224	-360.05628	-360.098015	29.352	
C	 0.0653575289	 1.5574369279	 0.0140515703	-0.380412
C	-0.0232697511	 0.0324186689	-0.0801588632	-0.141315
N	 0.7083688025	-0.5081637774	-1.2107567639	 0.002945
N	 0.0439822528	-0.7929671506	-2.3669161092	-0.282424
C	 0.9965909133	-1.1571633967	-3.2143716817	 0.005888
C	 2.2794146952	-1.1220398032	-2.6296443052	-0.305919
C	 2.0491955234	-0.693891425	-1.3337098541	 0.375895
N	 2.9293053511	-0.3826718953	-0.2909378382	-0.60503
H	 1.1020477899	 1.8796218525	 0.1441399078	 0.138155
H	-0.3289959856	 2.0141206815	-0.8975851816	 0.140097
H	-0.5198837428	 1.9184015777	 0.8656639898	 0.114779
H	 0.3466103118	-0.4321221539	 0.8420518912	 0.101669
H	-1.0572357108	-0.2914764048	-0.2144532616	 0.139442
H	 0.7311620911	-1.4482480718	-4.2207311957	 0.104021
H	 3.2290541183	-1.3789468817	-3.0706094942	 0.088732
H	 3.8691569448	-0.6935493916	-0.4982423551	 0.254534
H	 2.6456016472	-0.7665183766	 0.6034002246	 0.248943
