21
gdb 80547	2.52929	1.48572	1.23555	0.698	78.14	-0.2286	0.0697	0.2983	1123.1362	0.182662	-424.201447	-424.192745	-424.191801	-424.234035	34.43	
C	-0.13444946	 1.6225248718	-0.0309152404	-0.446334
C	-0.0157522798	 0.1067934046	 0.0042289143	 0.043566
C	 1.1032008171	-0.6061707715	-0.7936196934	 0.032869
O	 2.3225657035	-0.083191044	-0.2403638415	-0.301288
C	 2.0984489593	-0.2236591612	 1.1958155597	 0.157959
C	 2.4405238728	 1.0431637685	 1.9643560555	-0.425066
C	 0.6469611063	-0.7282451081	 1.1671556666	-0.134908
C	 0.8365394341	-1.8547726097	 0.1010148045	 0.125872
O	-0.3454841806	-2.5820237383	-0.1351584627	-0.441306
H	 0.8397115702	 2.1049712066	-0.1305510113	 0.133008
H	-0.7432679944	 1.9272524169	-0.8894380144	 0.11027
H	-0.6246719007	 2.0128786224	 0.8677042985	 0.114018
H	-0.9752621021	-0.360127445	-0.2198149658	 0.096028
H	 1.1703623902	-0.6281641053	-1.8821453173	 0.068642
H	 2.7617702275	-1.0208150513	 1.5616634449	 0.074683
H	 1.7538838867	 1.8659436964	 1.7672354621	 0.12471
H	 2.4267158577	 0.8344405706	 3.0396343752	 0.112743
H	 3.4517562278	 1.3674569408	 1.6991008344	 0.126568
H	 0.148827256	-0.916896094	 2.1178657677	 0.072648
H	 1.6998436463	-2.5174435696	 0.2463273792	 0.069128
H	-0.2279559979	-3.0845507504	-0.947768006	 0.286191
