14
gdb 48127	3.03629	1.25933	0.90031	4.8679	66.23	-0.2628	-0.0935	0.1693	1197.4328	0.099488	-473.868041	-473.859693	-473.858749	-473.901966	28.706	
O	-0.0322956437	-0.0328746796	 0.0025175562	-0.202831
C	-0.0144345791	 1.1658796706	 0.0085967294	 0.055761
C	 1.3314998389	 1.9263647172	-0.0027486122	 0.30249
O	 2.4047253376	 1.3761531497	-0.0176310738	-0.304166
N	 1.2222940381	 3.3094042625	 0.0059422043	-0.155377
C	 2.3081238942	 4.3095697062	-0.0006437412	-0.167239
C	 1.2166356272	 5.4151832908	 0.0182256817	-0.376192
C	 0.188725343	 4.274393229	 0.0236367794	 0.436564
O	-1.0022508017	 4.1658745463	 0.0367374068	-0.329393
H	-0.9246319072	 1.7938995033	 0.0223312782	 0.142359
H	 2.943293827	 4.249070957	 0.884800349	 0.145407
H	 2.922905559	 4.2594399194	-0.9010002021	 0.145394
H	 1.1860132	 6.0388003632	 0.913041545	 0.153606
H	 1.1654576065	 6.0489551544	-0.8684798605	 0.153616
