17
gdb 24441	3.44305	1.61962	1.1443	4.6207	74.08	-0.1916	0.0323	0.2238	1032.5203	0.140548	-418.055484	-418.048621	-418.047677	-418.086638	27.388	
C	-0.0090233363	 1.5171430884	-0.0118982389	-0.216232
C	 1.4320775385	 2.0409898377	 0.060593624	-0.076587
O	 2.1064045561	 1.6665872752	 1.2656219559	-0.262272
C	 1.9261185323	 0.3540093417	 1.5496642938	 0.336641
C	 0.9779131842	-0.4588096117	 0.9828173396	 0.195222
C	-0.0499956314	-0.0287991666	-0.0065395109	-0.343372
N	 1.1857698226	-1.6855205979	 1.5931324952	-0.343348
C	 2.2185319375	-1.5297930954	 2.4684137409	-0.004328
N	 2.6928253793	-0.2998372119	 2.4664212661	-0.330638
H	-0.5636194001	 1.9011682981	 0.8511592235	 0.119901
H	-0.4861435164	 1.9151655469	-0.9129597064	 0.103047
H	 2.0082803959	 1.667488641	-0.7995090317	 0.101476
H	 1.4516153331	 3.1329573782	 0.0402265178	 0.114719
H	-1.0566010878	-0.3745213861	 0.2614615266	 0.106768
H	 0.1537904931	-0.4207895763	-1.013465924	 0.108655
H	 0.6728597985	-2.5335183556	 1.4208603569	 0.261691
H	 2.5857029108	-2.3424098456	 3.0765189216	 0.128659
