16
gdb 26302	3.45904	1.06388	0.97286	3.7765	67.52	-0.2204	0.0168	0.2372	1238.4477	0.123794	-475.077494	-475.068804	-475.067859	-475.111276	31.778	
C	 0.0990420724	 1.5691163128	-0.0272621091	-0.404082
C	-0.0087644883	 0.0395402217	-0.0016966579	 0.006894
O	 0.545772103	-0.5393577961	-1.1805423501	-0.425117
C	 0.6041045049	-0.5504024668	 1.2242732635	 0.381168
C	 0.1449189774	-1.3033201325	 2.2314757006	-0.225198
N	 1.2303993491	-1.5531190924	 3.0726151386	-0.364653
C	 2.3677685491	-0.9598586413	 2.5744755503	 0.479933
O	 3.4889387185	-0.9507855239	 3.0001077468	-0.396412
O	 1.9606916998	-0.3256132124	 1.4102973172	-0.263156
H	 1.1467359371	 1.8808403933	 0.029406429	 0.132233
H	-0.3306336484	 1.9490251775	-0.9573729844	 0.128077
H	-0.4324869968	 2.0143995605	 0.8193742565	 0.120919
H	-1.0643779357	-0.2528506582	-0.0088584692	 0.102891
H	 1.4947322581	-0.3685481804	-1.1657300813	 0.291197
H	-0.8429812424	-1.6830278967	 2.4265340738	 0.15575
H	 1.2344063921	-2.088877865	 3.9220516357	 0.279556
