16
gdb 128523	2.09001	1.80237	1.00838	1.8091	68.51	-0.198	0.0399	0.2379	1133.522	0.124636	-471.201178	-471.191932	-471.190987	-471.235114	33.19	
C	 0.17194359	 1.402350962	 0.2325009214	-0.256579
O	-0.2469745009	 0.0871996533	-0.1264609794	-0.294054
C	 0.4872622787	-0.4873512994	-1.1247516315	 0.114901
C	-0.0344908517	-0.9888371645	-2.3035974777	 0.304432
N	-1.3305910364	-0.9226101384	-2.8165732235	-0.610909
N	 0.9964636054	-1.5710201485	-2.9638452005	-0.276745
N	 2.1901104273	-1.4422180766	-2.2997926872	-0.342429
C	 1.8674632036	-0.8042820047	-1.1905179886	 0.340772
O	 2.7803561802	-0.5064887974	-0.2386756068	-0.43612
H	 1.2023274103	 1.4013472304	 0.6041997131	 0.140974
H	 0.1010618515	 2.0870972331	-0.6229432488	 0.110665
H	-0.5009201568	 1.7380118189	 1.0248420074	 0.124403
H	-1.9372481625	-0.4680106693	-2.1433944626	 0.259191
H	-1.7164004363	-1.8346794964	-3.0369026294	 0.250931
H	 1.0028884451	-1.8851034116	-3.917613035	 0.269115
H	 3.6302532127	-0.8414926111	-0.5522883209	 0.301451
