14
gdb 11651	3.42416	1.87795	1.50177	1.886	65.18	-0.2419	0.0103	0.2523	847.1139	0.105408	-382.427686	-382.420565	-382.41962	-382.458757	27.545	
O	 0.1928923839	 1.462433316	 0.0993651593	-0.422948
C	 0.0519283166	 0.0785659998	 0.0337339608	 0.090662
C	-0.1154481209	-0.6774444639	 1.3669135951	 0.005376
C	-1.5384368872	-0.0989831265	 1.5324317586	-0.26218
C	-1.3762653749	-0.5962631345	 0.0679666579	 0.301856
O	-0.6810561279	-1.8038934213	 0.5889584961	-0.334454
C	-2.3466346257	-0.7222581494	-0.9732311363	 0.052953
C	-3.1550665118	-0.7830590283	-1.861589965	-0.351642
H	 0.1695780585	 1.8146643591	-0.7961540448	 0.297111
H	 0.7290142021	-0.4108096962	-0.6740668547	 0.094633
H	 0.6314638002	-0.9161168296	 2.1216804127	 0.103464
H	-2.2157729842	-0.6991866397	 2.1399558081	 0.114626
H	-1.6380793433	 0.9755344371	 1.68498267	 0.120812
H	-3.8729511955	-0.8482883326	-2.6418373279	 0.18973
