14
gdb 132764	2.34843	1.77346	1.01676	1.862	66.98	-0.2595	-0.0249	0.2345	1054.2895	0.100309	-486.009306	-486.001716	-486.000772	-486.042213	27.723	
C	-0.0186977667	 1.5426564369	 0.0085829599	-0.51048
C	 0.0078514538	 0.0405892787	-0.0204488294	-0.040194
C	-0.0664341558	-0.7117549529	-1.1850668765	 0.280542
F	-0.1676817917	-0.0840192393	-2.3568605407	-0.06885
C	-0.038231904	-2.1026598801	-1.1639776615	-0.259326
C	 0.0677985119	-2.7134810709	 0.0751032398	 0.002786
N	 0.1427088709	-2.0359512621	 1.2290229466	-0.326517
C	 0.1112309779	-0.7286228897	 1.1440324728	 0.304818
F	 0.1862294513	-0.0622589433	 2.2961826232	-0.066055
H	 0.8905704317	 1.940903973	 0.4696613046	 0.147552
H	-0.1022891054	 1.9471417349	-1.0005392837	 0.142053
H	-0.8633603141	 1.907390061	 0.6014575031	 0.147553
H	-0.0975233558	-2.668332873	-2.0846647126	 0.119772
H	 0.0944989375	-3.7961295533	 0.1540195452	 0.126346
