14
gdb 129045	2.6548	1.79353	1.09265	4.3277	79.07	-0.2396	-0.0805	0.159	1023.0606	0.10339	-428.996571	-428.989236	-428.988292	-429.029905	27.288	
N	-0.0841379952	 1.1745328722	 0.7708661451	-0.475687
C	-0.0332363856	 0.0746172627	 0.1207730345	 0.24492
C	-1.2670270507	-0.5030538727	-0.3715627344	-0.110338
C	-1.4280367154	-1.6382575375	-1.0681964028	 0.014663
N	-0.4670545607	-2.4832726151	-1.5923371732	-0.229429
N	 0.877086638	-2.3803012322	-1.7419235004	-0.067074
N	 1.60664984	-1.5775746829	-1.1166408417	-0.243895
C	 1.2852469424	-0.6466071796	-0.084262534	 0.281189
N	 2.2372217206	-0.3178359644	 0.6960064408	-0.44268
H	 0.8565883942	 1.4034680081	 1.1061902801	 0.245374
H	-2.1612492345	 0.0363866344	-0.0833226903	 0.126864
H	-2.4282645199	-1.9804065279	-1.3128088751	 0.135445
H	-0.8016511457	-3.2328397381	-2.1777445169	 0.27998
H	 3.0841544225	-0.8230895971	 0.4240771584	 0.240668
