16
gdb 10276	2.45191	1.94395	1.09939	8.705	65.36	-0.2225	-0.0307	0.1918	1049.1304	0.129567	-417.093603	-417.084606	-417.083662	-417.127597	30.867	
C	 0.0601873688	 1.4523071648	-0.0603250336	-0.354372
N	-0.0942117935	 0.0227917309	 0.0912545114	-0.231907
C	-1.2177499737	-0.6551953929	 0.1870864178	 0.27946
N	-2.3961904422	-0.0563454266	 0.1523144193	-0.325395
H	-2.4081976514	 0.9503384196	 0.0491112905	 0.25208
C	-3.7080007657	-0.7010454173	 0.248541585	-0.355272
C	-0.9334094609	-2.2398281695	 0.3447673784	 0.38529
O	 0.289028974	-2.4453950214	 0.3374392369	-0.456363
O	-1.9234453846	-2.961691344	 0.4432916404	-0.429323
H	 1.1227010513	 1.6910018199	-0.1102135817	 0.163034
H	-0.4138803642	 1.8113407648	-0.9828571725	 0.14395
H	-0.3718529864	 1.9948768557	 0.7903606335	 0.143962
H	 0.6859688144	-0.6481920889	 0.142760554	 0.290335
H	-4.2470780551	-0.3065429335	 1.1152889599	 0.132451
H	-4.2871570407	-0.4893265937	-0.655444497	 0.132437
H	-3.5395307901	-1.7721960877	 0.3554742776	 0.229633
