18
gdb 124471	3.22555	1.22569	1.09923	3.0803	73.46	-0.2482	0.0031	0.2513	1159.714	0.147117	-435.272988	-435.264038	-435.263094	-435.306609	33.541	
C	-0.3449999572	 1.4551861321	-0.1511128621	-0.414345
C	 0.0281800568	-0.0228467832	 0.0464308454	 0.242809
C	 0.9402429662	-0.2017141676	 1.2707926311	-0.414346
O	-1.1537289409	-0.8200530787	 0.1858392893	-0.470826
C	 0.7058928672	-0.5552868124	-1.1865006508	 0.339343
C	 0.3156561034	-1.5748786181	-2.0206434634	-0.175961
N	 1.2947605027	-1.6168944965	-2.9554827355	-0.165757
N	 2.2400547481	-0.68763815	-2.7279950609	-0.111844
N	 1.8811897605	-0.0441097845	-1.6539426834	-0.276392
H	 0.5453479047	 2.0509051793	-0.3678821875	 0.143031
H	-1.0452559745	 1.5563919606	-0.9842626517	 0.122398
H	-0.817096875	 1.8539583659	 0.75457237	 0.098584
H	 0.4599382558	 0.2074212084	 2.1674975564	 0.098584
H	 1.1420570457	-1.263273564	 1.4354242939	 0.122391
H	 1.8909898522	 0.3161966287	 1.1209880128	 0.14302
H	-1.6200373196	-0.5102022116	 0.968864794	 0.277525
H	-0.5350494453	-2.2320844066	-2.0166013974	 0.160596
H	 1.3871500392	-2.2280019518	-3.7509483101	 0.28119
