15
gdb 98509	2.84833	1.20726	0.93294	2.6458	68.73	-0.2705	-0.0459	0.2246	1218.8247	0.108566	-457.706613	-457.697519	-457.696575	-457.740831	32.764	
O	-0.1578877978	 1.4551024512	-0.508486263	-0.423079
C	-0.2995103208	 0.0849327229	-0.7327816185	-0.133117
C	-1.1260964192	-0.558873088	 0.3702187801	 0.264869
O	-1.4583571083	 0.0850761728	 1.3384183565	-0.311522
C	-1.48915715	-2.0213401267	 0.2242433174	 0.114432
C	-2.2552160124	-2.4199088754	-0.9902045451	-0.197595
O	-0.8688150448	-2.6842361105	-0.8949347369	-0.251958
C	-1.6305054553	-2.7788550011	 1.4386121105	 0.277116
C	-1.7361440061	-3.4029718609	 2.4587633462	-0.382788
H	-0.5282426515	 1.614874154	 0.3739077	 0.295446
H	-0.7584961667	-0.1051535199	-1.7132656635	 0.124868
H	 0.6721727962	-0.4376610572	-0.7529996269	 0.136352
H	-2.9119322647	-3.2832865865	-0.9085900383	 0.145272
H	-2.5494662366	-1.6588242236	-1.7110533198	 0.133083
H	-1.8290156018	-3.9529262112	 3.3630571614	 0.20862
