13
gdb 19390	3.24271	2.34989	1.62005	1.3431	59.14	-0.2484	-0.0401	0.2083	768.9356	0.095139	-398.531513	-398.525027	-398.524083	-398.562211	24.198	
O	 0.0599094689	 0.0276944927	-0.1325283424	-0.310182
C	 0.0004805716	 1.2123899671	 0.0182810401	 0.358009
C	-1.106412259	 2.2724165851	-0.0460499161	-0.114934
O	-0.877815085	 3.1279994689	 1.092803556	-0.227239
C	-0.0627563254	 3.3338060743	-0.0576054813	-0.086447
C	 1.0634547468	 2.3161167625	 0.0715145506	 0.250361
C	 2.3712998397	 2.3316334682	 0.7570761836	-0.289474
N	 2.2908484389	 2.2718936408	-0.7114653604	-0.368347
H	-2.1015744818	 2.2414780095	-0.4716676573	 0.129628
H	-0.0788147074	 4.293428837	-0.5574194963	 0.135564
H	 2.7553730595	 3.2659885588	 1.1558999663	 0.135587
H	 2.6566755932	 1.4372634153	 1.3048949461	 0.135676
H	 2.4456540801	 1.3189583498	-1.0389219887	 0.251798
