20
gdb 103583	2.81407	1.19391	1.06809	4.3977	81.72	-0.24	-0.0253	0.2147	1237.3994	0.170705	-403.207672	-403.198461	-403.197517	-403.241488	35.018	
C	-0.1103696538	 1.569079899	-0.0983634442	-0.400329
C	 0.0440982167	 0.0467573138	-0.0286134521	-0.180385
C	 0.7729527508	-0.4834970323	 1.2339320729	 0.209593
C	 2.2282883678	 0.0198158338	 1.3162528012	-0.420881
N	 0.033112639	-0.176400122	 2.4517102845	-0.345575
C	-0.3446075785	-1.2894569458	 3.1761107505	 0.392263
O	-0.9012687968	-1.2950563745	 4.2535844369	-0.386813
C	 0.0899587582	-2.4496063715	 2.3383137917	-0.211156
C	 0.7261089337	-1.9994695652	 1.2580026249	-0.083792
H	 0.854996701	 2.0823098027	-0.1398869001	 0.120282
H	-0.6695599002	 1.8519784302	-0.9950400541	 0.122531
H	-0.6639777358	 1.9525422275	 0.7649978006	 0.119489
H	-0.9463811482	-0.4196958422	-0.0573340456	 0.110752
H	 0.5879521028	-0.3092288583	-0.9126497778	 0.096735
H	 2.2642497831	 1.1090582604	 1.4106468466	 0.121793
H	 2.7310737788	-0.4150728673	 2.183702023	 0.131566
H	 2.7861377315	-0.257359211	 0.4160405177	 0.120284
H	-0.0043857225	 0.7413100451	 2.8628118651	 0.247706
H	-0.1022161981	-3.4724979178	 2.6293846455	 0.122486
H	 1.1636240604	-2.5845396446	 0.4579361627	 0.11345
