21
gdb 38245	3.06761	1.71629	1.40604	1.6761	80.77	-0.2349	0.078	0.3129	997.8223	0.186469	-387.077445	-387.070435	-387.069491	-387.109269	29.356	
C	-0.0596691438	 1.6056023342	-0.0355261073	-0.27435
C	 1.4595613734	 1.3417319855	-0.0092273342	 0.105402
C	 1.15116157	 0.1714963925	 0.9810515771	-0.327125
C	-0.0726858838	 0.0381877809	 0.0287145674	 0.324927
C	-1.3336645908	-0.7956495641	-0.0161241937	-0.360132
C	-1.7055253016	-0.7899668478	-1.5428842406	-0.202351
C	-0.4489502742	-0.2851675415	-2.3357483496	-0.267876
C	 0.6592444014	-0.2920679725	-1.2778879956	 0.149201
O	 1.6958633004	 0.705754979	-1.2841615329	-0.303454
H	-0.4444157669	 2.0528507768	 0.8836123477	 0.095882
H	-0.4622744319	 2.1139062772	-0.9136614302	 0.098617
H	 2.2146795738	 2.10524857	 0.1707877801	 0.078299
H	 1.861246787	-0.6588573787	 1.0216333942	 0.097377
H	 0.9086272068	 0.5281960694	 1.9839862351	 0.098743
H	-1.1275920502	-1.8179122717	 0.3213485393	 0.102471
H	-2.1409102812	-0.4060817809	 0.6098227964	 0.09874
H	-2.0052943165	-1.7894648183	-1.8683335718	 0.103675
H	-2.5610687245	-0.1360276259	-1.7304027741	 0.106476
H	-0.2207609872	-0.9204373026	-3.194902163	 0.097935
H	-0.601702255	 0.7279911684	-2.7157414434	 0.10969
H	 1.1279547547	-1.2854255798	-1.234319161	 0.067852
