13
gdb 20411	4.93484	2.09629	1.50343	3.0356	59.29	-0.2284	-0.0118	0.2167	772.3807	0.097929	-398.577453	-398.571642	-398.570697	-398.607604	22.036	
C	 0.0368176411	 1.3858230578	-0.1596226738	-0.098056
C	 1.4899404014	 1.8738418854	 0.1557946803	-0.370333
C	 2.1081495785	 0.5815315871	 0.5967426152	 0.316091
N	 3.2884943439	 0.1211416844	 0.9027885376	-0.23282
O	 3.0525730829	-1.2086844328	 1.26754175	-0.180776
C	 1.7219765067	-1.4988821681	 1.1624273728	-0.077943
C	 1.0888235008	-0.3814070493	 0.7394047972	 0.229551
O	-0.1510597042	 0.0672347638	 0.4400933426	-0.283319
H	-0.735972217	 2.0397032648	 0.247686351	 0.130876
H	-0.1158994159	 1.2840464104	-1.239191659	 0.127553
H	 1.9662661261	 2.3183110006	-0.7207200059	 0.143113
H	 1.5039914174	 2.6172722295	 0.9591491281	 0.143395
H	 1.4348297384	-2.5035540236	 1.419875454	 0.15267
