13
gdb 23950	2.00327	1.89951	0.975	0.6213	85.2	-0.2177	-0.0407	0.1771	1118.4459	0.087789	-382.256279	-382.24846	-382.247516	-382.288609	29.632	
C	 0.1660115763	-1.1756320662	-0.0059142279	-0.395529
C	 0.0562095084	 0.0238945656	 0.0027250649	 0.248336
C	-0.082516254	 1.419001911	 0.0122765484	 0.164953
C	-1.19504204	 2.238344003	 0.032288086	 0.034342
C	-0.6908092799	 3.5840100942	 0.0326155379	-0.271917
C	 0.6612825851	 3.4816768687	 0.0131361384	-0.029323
O	 1.0497504682	 2.182932046	 0.0005955882	-0.177424
C	-2.5457168713	 1.8313955952	 0.0489291618	 0.160836
C	-3.7050942837	 1.5067452344	 0.0634767676	-0.393541
H	 0.25877996	-2.2334671317	-0.0139154925	 0.196184
H	-1.2786001892	 4.4872813847	 0.0457820725	 0.129015
H	 1.4587738987	 4.2062432665	 0.0059444941	 0.146009
H	-4.7241689787	 1.2093201386	 0.0765415806	 0.188059
