22
gdb 120905	2.89125	1.00201	0.89022	0.5248	82.1	-0.2219	0.0808	0.3027	1408.7812	0.194151	-404.292558	-404.283049	-404.282105	-404.327234	35.679	
C	 0.1412111609	 1.8149264811	-0.6141037952	-0.427743
C	 0.0791477211	 0.3041638579	-0.5463286497	 0.035066
C	 0.619908376	-0.6367197531	-1.5450538422	-0.043458
C	 1.9642714542	-0.1772526541	-2.1119339938	-0.306316
C	 2.4929203926	-0.2446640712	-0.6544818246	 0.08259
C	 3.2457049255	 0.9047429956	 0.0007420812	-0.209079
C	 3.502670021	 0.6511860253	 1.4824711856	-0.068312
O	 4.2168719172	 1.7679959773	 1.9945407948	-0.424551
N	 1.1364559037	-0.6405906907	-0.1051788356	-0.179406
H	 0.9383850909	 2.19241048	-1.255798112	 0.127446
H	-0.807057854	 2.1881290862	-1.0168485812	 0.118901
H	 0.2693879272	 2.2521034024	 0.3816997302	 0.129746
H	-0.8561138255	-0.0395071255	-0.1053694454	 0.094617
H	 0.0417644001	-1.4672972783	-1.9393375987	 0.090347
H	 2.4373089197	-0.9017618712	-2.7767032834	 0.107921
H	 1.9670949487	 0.7983458093	-2.6079303153	 0.102786
H	 3.1037827363	-1.1482131781	-0.5466963225	 0.085068
H	 4.2112004476	 1.0241268263	-0.5077091648	 0.104509
H	 2.719886014	 1.8566184699	-0.1001437608	 0.108006
H	 2.5442166216	 0.5115705519	 2.0039269563	 0.10374
H	 4.077897882	-0.2810763611	 1.6061510295	 0.083628
H	 4.345978829	 1.6324440502	 2.9376203276	 0.284493
