18
gdb 49739	2.58093	1.57418	1.39209	4.4544	72.35	-0.2472	0.0095	0.2567	1009.3553	0.149449	-439.080731	-439.073005	-439.072061	-439.113141	29.194	
O	 0.3107989418	 0.1331047368	 0.6007081705	-0.305094
C	 0.2541958298	 1.3070788711	 0.3229185682	 0.15599
N	 1.2187137122	 1.989436575	-0.3857162461	-0.061427
C	 1.8638013101	 3.2610660453	-0.1211925628	-0.04999
C	 1.7096535148	 3.9602219828	 1.2279181769	-0.238022
C	 2.6260166913	 3.3360995995	 2.2862986152	-0.069939
O	 2.5705168904	 1.9212317615	 2.2480243573	-0.239476
C	 3.2037943308	 1.394434023	 1.0991762362	-0.110071
C	 2.6432149357	 1.9625049458	-0.1931590854	-0.048929
H	-0.6312702984	 1.9383875668	 0.5325090857	 0.079781
H	 1.8951234524	 3.9168509257	-0.9888000577	 0.104761
H	 1.955644678	 5.0208198135	 1.1111500256	 0.110123
H	 0.6668108049	 3.9157629836	 1.5584165831	 0.120329
H	 3.663771344	 3.6749787562	 2.1310370275	 0.091275
H	 2.3219546681	 3.6325688794	 3.2937067801	 0.115241
H	 4.2870091094	 1.6010571294	 1.1269649093	 0.09612
H	 3.0494563725	 0.3133472129	 1.1336269508	 0.145364
H	 3.2347905324	 1.748634772	-1.0818178243	 0.103965
