18
gdb 51014	2.23957	1.20466	0.93545	3.485	73.36	-0.2454	-0.0245	0.2209	1282.8753	0.145398	-439.102359	-439.092862	-439.091917	-439.13796	33.553	
O	-0.5104189982	 1.5142313909	 1.5034663974	-0.239122
C	-0.2091846554	 1.5029130533	 0.3374062791	 0.162962
C	 1.2003672455	 1.656439145	-0.1885266161	-0.34322
C	 1.3097833708	 2.7140300297	-1.2843814785	 0.344268
C	 1.3504219972	 4.1740031106	-0.9085867282	-0.325256
C	 2.5984885718	 3.4880044755	-1.4075029539	-0.277627
N	 0.6170916495	 2.3993701547	-2.5096778521	-0.33605
C	 1.0056842075	 1.3927658194	-3.3431222665	 0.144091
O	 1.9672452246	 0.6775350164	-3.1636443473	-0.316056
H	-0.9875129161	 1.3737525487	-0.4500678882	 0.066789
H	 1.8558994542	 1.8974154601	 0.6518809981	 0.120913
H	 1.5263619332	 0.6983931544	-0.6149075876	 0.157628
H	 0.8640195892	 4.8823032827	-1.5708908088	 0.116935
H	 1.2764457039	 4.4215834725	 0.1444806809	 0.133774
H	 3.3889517721	 3.2666958126	-0.7000291686	 0.127207
H	 2.9381122767	 3.7203172405	-2.4093352569	 0.130149
H	-0.2361643716	 2.8913296126	-2.7255980118	 0.251735
H	 0.3317274751	 1.3000387105	-4.2184805509	 0.080877
