18
gdb 87054	2.44751	1.41526	1.01827	3.819	76.98	-0.2868	0.0061	0.2929	1204.5189	0.146137	-401.932966	-401.923967	-401.923023	-401.966821	33.103	
C	 0.0864802232	 1.334017603	-0.2497391203	-0.434557
C	 0.2126549901	-0.1213792187	 0.1067040243	 0.040116
O	 1.5363498201	-0.6437148505	 0.2801318939	-0.272655
C	 0.6762492884	-0.6221177403	 1.424272507	 0.209727
C	 1.0449609075	 0.3529867213	 2.4412924369	 0.27332
N	 1.3084805482	 1.1119761222	 3.2723084768	-0.340746
C	 0.2485042619	-1.953351606	 1.9749558861	-0.086854
C	 0.3426189793	-3.1859758543	 1.1156947021	-0.278849
C	 1.2926234045	-3.0013752352	 2.2710948647	-0.257084
H	 0.7357692622	 1.9536247196	 0.3721975871	 0.154433
H	 0.3586207003	 1.4859266155	-1.2989636196	 0.138066
H	-0.9485305049	 1.6654165143	-0.1178629443	 0.134314
H	-0.449652548	-0.8033714206	-0.4279924654	 0.105436
H	-0.5868825639	-1.8836033431	 2.6649759166	 0.106919
H	-0.4492932733	-3.9209248952	 1.201849366	 0.117743
H	 0.7546475865	-3.067704893	 0.1204456015	 0.134177
H	 2.3216711837	-2.7597867098	 2.0299153339	 0.133957
H	 1.1643266042	-3.6081112392	 3.1596419628	 0.122535
