21
gdb 102751	2.02486	1.12922	0.81416	2.0122	80.07	-0.2433	-0.0298	0.2135	1479.4816	0.179219	-424.212889	-424.202616	-424.201672	-424.249576	36.382	
C	 0.1914510977	 1.4928120053	 0.0813702852	-0.390436
C	 0.104426143	-0.0172280596	-0.1501440025	-0.196241
C	 0.9664196288	-0.4869355117	-1.3308656789	 0.044906
O	 2.3234478262	-0.1982894732	-1.0342756954	-0.26146
C	 3.1700206742	-0.2295363911	-2.1472364326	 0.134832
C	 3.2700138273	 0.9925104451	-3.0236299704	-0.285427
C	 4.3904542216	 0.6257268029	-2.0690677616	-0.287548
C	 0.7728404863	-1.9878527257	-1.5266914373	 0.134147
O	-0.1475067896	-2.4814216506	-2.1236195366	-0.247925
H	 1.223353467	 1.7950776435	 0.2749149889	 0.133586
H	-0.1673442915	 2.0466474606	-0.7931270778	 0.115612
H	-0.4197510039	 1.7886802325	 0.9390295123	 0.116993
H	 0.4265038309	-0.5544154376	 0.7504440335	 0.109515
H	-0.9279734831	-0.320348783	-0.3542480334	 0.12059
H	 0.6478089738	 0.0270140262	-2.2494527536	 0.093912
H	 3.2547256948	-1.2055569392	-2.625700846	 0.091893
H	 3.4229243959	 0.8594871865	-4.0887999743	 0.118132
H	 2.6532935653	 1.8420404453	-2.7525948917	 0.12278
H	 4.4954820521	 1.2311737585	-1.176199601	 0.12799
H	 5.319995813	 0.2401042702	-2.4716368084	 0.118332
H	 1.5563172903	-2.6037556648	-1.0255006885	 0.085816
