20
gdb 76445	2.32728	1.19095	1.11783	2.5038	76.63	-0.2294	0.027	0.2564	1240.5688	0.168523	-440.29258	-440.282215	-440.281271	-440.327658	37.586	
C	-0.2252384569	 1.0706457282	-0.2967655233	-0.424986
C	 0.337566519	-0.2854700043	 0.0702344728	-0.103011
C	 1.8373722942	-0.5359566803	 0.1640152493	 0.025474
O	 2.7385265623	 0.5318283829	 0.0536403608	-0.422399
C	 0.9977702224	-0.5561874907	 1.4158874758	 0.317827
C	 1.1607804174	 0.5552752338	 2.4306281562	-0.47545
N	 0.7449334532	-1.8163097839	 2.0940822306	-0.336552
C	 0.5904800153	-3.0486145916	 1.5504466706	 0.154109
O	 0.6552609413	-3.3321067988	 0.3696531713	-0.33912
H	 0.4799505624	 1.8766066662	-0.0798249353	 0.123826
H	-0.449230065	 1.1100364772	-1.3685744766	 0.118029
H	-1.1573415727	 1.2811125352	 0.2386988509	 0.118862
H	-0.2058579907	-1.1340592319	-0.3293068802	 0.120138
H	 2.1948892461	-1.4896842845	-0.2112074945	 0.12076
H	 2.8339095694	 0.73898174	-0.8820702179	 0.291096
H	 1.4956005057	 1.4739556594	 1.9535658375	 0.153546
H	 0.2185107866	 0.7532232797	 2.9545974037	 0.116558
H	 1.9181922481	 0.2809503504	 3.1743195123	 0.1208
H	 0.6544797887	-1.7591605383	 3.0964320418	 0.243204
H	 0.3905628033	-3.8067937387	 2.3349801242	 0.077289
