17
gdb 106945	3.98064	1.10672	0.98921	1.7245	68.3	-0.2451	-0.0325	0.2126	1191.4698	0.135479	-458.969218	-458.960969	-458.960025	-459.002473	30.831	
O	 0.0217748521	 1.364241823	-0.4085528896	-0.411392
C	 0.0465578496	 0.0504234821	 0.1242922001	-0.155329
C	-1.3427888766	-0.5168475904	 0.2514019575	 0.378886
C	-2.3905292249	 0.1452472122	 1.1406392904	-0.280186
C	-3.5529907423	-0.8711667246	 1.201682452	-0.341852
C	-2.9192020522	-2.2286286105	 0.8708246026	 0.42289
O	-3.2980139241	-3.3140689293	 1.2265031552	-0.313397
C	-1.6647970342	-1.9482960552	 0.0774186489	-0.156393
O	-1.9192531589	-0.9945769333	-0.974461328	-0.29417
H	-0.3391685919	 1.302289851	-1.3000516116	 0.294951
H	 0.6611435036	-0.6267541976	-0.4857086652	 0.102344
H	 0.5092622381	 0.1320384352	 1.1134541203	 0.119148
H	-1.9631569959	 0.3099225344	 2.1357980988	 0.116711
H	-2.6828976079	 1.1205714411	 0.7451207291	 0.125749
H	-4.0554270656	-0.9168993002	 2.1690993201	 0.13329
H	-4.3123814499	-0.6540550118	 0.4436526817	 0.146377
H	-0.9441746288	-2.7320366858	-0.1340361223	 0.112373
