17
gdb 19074	3.67249	2.52839	2.12531	0.2638	66.5	-0.2082	0.0875	0.2956	713.7488	0.145201	-363.793512	-363.787781	-363.786836	-363.822872	24.569	
C	 0.0233088402	 1.5372931998	-0.0819693851	-0.337756
C	 1.3070372063	 0.7375288678	 0.0159305945	 0.099659
O	 2.0378099956	 0.6961270891	 1.2214787839	-0.273546
C	 1.4894551713	-0.1757773873	 2.2074516337	 0.117883
C	 0.0087510268	 0.1676550887	 2.4742802646	-0.201871
N	-0.3559389477	-0.6713379158	 1.2712727317	-0.13734
C	 0.9084859562	-1.4624232475	 1.5791151613	-0.191786
C	-0.0297516212	 0.0345371681	 0.0291075972	-0.023497
H	-0.2669251511	 2.1668673441	 0.7493683666	 0.124939
H	-0.2179390678	 1.9542216126	-1.0543654067	 0.114046
H	 1.9657725939	 0.7002874772	-0.8457798511	 0.097413
H	 2.2227714274	-0.2186784914	 3.015462199	 0.077043
H	-0.3885355145	-0.3172924542	 3.3704968335	 0.110473
H	-0.3000978619	 1.2125779029	 2.4658840594	 0.110409
H	 1.4098458439	-1.8920312398	 0.7091038552	 0.109704
H	 0.6978928756	-2.2385293589	 2.3194707074	 0.108302
H	-0.343182243	-0.5243438853	-0.8482656951	 0.095924
