19
gdb 18087	4.71756	1.14018	1.10377	0.4297	70.91	-0.2259	0.0764	0.3024	1141.7242	0.166134	-365.004046	-364.995973	-364.995029	-365.037019	29.963	
O	-0.4605207445	 1.5045425006	-1.031041651	-0.422463
C	-0.4708487838	 0.0886770349	-1.1296140607	-0.063026
C	-1.4878746066	-0.4381132948	-0.1206198886	-0.222663
C	-1.5369739596	-1.9489147532	-0.0984455449	 0.013436
C	-2.7078960377	-2.783927592	 0.2390322773	-0.049454
C	-4.0283607507	-2.1850565913	-0.2408465069	-0.249711
C	-3.3815211117	-2.1297122455	-1.6463594207	-0.154666
N	-2.1153971266	-2.7988909675	-1.1694225854	-0.157368
H	 0.171176238	 1.8457238708	-1.6705824643	 0.286189
H	-0.7467708083	-0.2430148271	-2.1428086848	 0.097672
H	 0.522207786	-0.3362538594	-0.9100265232	 0.086566
H	-1.2048751639	-0.0797661246	 0.8765403416	 0.110216
H	-2.4616607689	 0.0068408814	-0.3412158272	 0.110662
H	-0.5928599397	-2.3925767683	 0.2176905239	 0.092172
H	-2.6241343681	-3.6446360366	 0.8964776702	 0.090424
H	-4.8564512376	-2.8940343131	-0.1895157711	 0.110846
H	-4.3441738698	-1.2469713284	 0.2254861307	 0.104999
H	-3.8706432239	-2.7760015693	-2.3774345232	 0.111147
H	-3.2311421426	-1.1445176267	-2.0983810816	 0.105021
