21
gdb 72147	2.44537	1.93358	1.73812	1.3594	80.04	-0.2429	0.0783	0.3212	933.826	0.186478	-387.104578	-387.09769	-387.096746	-387.135144	30.202	
O	-0.0579371989	 1.3623359113	 0.0588270021	-0.515488
C	 0.0444794335	-0.0328978707	 0.0396681401	 0.465075
C	 0.8960505333	-0.7528012121	 1.0868410839	-0.297798
C	 0.5208932153	-2.1688211341	 0.602032991	-0.017681
C	-1.0247125657	-2.1112652414	 0.6831651747	-0.220822
C	-1.3471319375	-0.75782771	 0.0001468391	-0.045721
C	-1.210579926	-0.8586225299	-1.5385831953	-0.230102
C	 0.3208759908	-0.7482234799	-1.3450949987	-0.086434
C	 0.9306747578	-2.0975084608	-0.8905327187	-0.219357
H	 0.8145889718	 1.7293528209	-0.119880966	 0.2739
H	 1.9669930703	-0.5348481295	 0.9971975351	 0.079222
H	 0.5732655713	-0.5391168565	 2.1107385797	 0.095201
H	 0.969973776	-2.9992418426	 1.1503058906	 0.056247
H	-1.515101294	-2.9567942557	 0.1892801587	 0.089631
H	-1.3470560636	-2.1079480416	 1.729982051	 0.093775
H	-2.2101492907	-0.2344783124	 0.4139582138	 0.065408
H	-1.5965024047	-1.7605833787	-2.0252710986	 0.081468
H	-1.6193693358	 0.0240306733	-2.0367111044	 0.10215
H	 0.9044878294	-0.2223730985	-2.1044804146	 0.051126
H	 2.0225984495	-2.0847442044	-0.9804858015	 0.08972
H	 0.5621557079	-2.9447130767	-1.478885872	 0.090481
