19
gdb 89372	2.90415	1.67312	1.46306	1.4062	74.68	-0.2394	0.0023	0.2417	992.5939	0.15902	-423.031564	-423.023709	-423.022765	-423.063297	31.727	
C	-0.1647609694	 1.5257413958	-0.0573127699	-0.412506
C	 0.0769134206	 0.0271377702	-0.0062340128	 0.145948
O	 0.9438341625	-0.3974638048	-1.069288341	-0.330251
C	 1.9553268342	-1.2194638749	-0.4123195803	 0.45417
C	 2.5280400103	-2.2198987862	-1.3744256236	-0.492951
O	 1.2366695825	-1.804765095	 0.658207517	-0.261951
C	 0.829258855	-0.5552416993	 1.2436422079	-0.049583
C	 2.1506027847	 0.1862336879	 1.3653260033	-0.102219
C	 2.8667764033	-0.2292075425	 0.3200846763	-0.107929
H	 0.7741404792	 2.0780694268	 0.0268328818	 0.123936
H	-0.6350788494	 1.7959679148	-1.0070280903	 0.129101
H	-0.8353794062	 1.8366431295	 0.7515947063	 0.110748
H	-0.8725432489	-0.5160493549	-0.0959322139	 0.0843
H	 2.9937466195	-1.7005963626	-2.2156956425	 0.132408
H	 3.2822371442	-2.8332523897	-0.8752910464	 0.131736
H	 1.7324502897	-2.863756788	-1.7552669592	 0.138445
H	 0.2250879167	-0.7083748441	 2.1357133039	 0.086637
H	 2.3731933484	 0.9703950281	 2.0752935752	 0.110337
H	 3.8238896532	 0.121626609	-0.0407770219	 0.109625
