19
gdb 86010	2.49734	1.29076	1.0974	3.2517	77.86	-0.247	-0.0339	0.2132	1197.0266	0.157444	-423.047553	-423.038352	-423.037407	-423.081779	34.273	
C	 0.2587787425	 1.5732766108	 0.0780616575	-0.397185
C	 0.0661956988	 0.0512698518	 0.0249768474	-0.030671
C	 0.8011052696	-0.626836451	-1.1620446607	-0.293192
C	 1.487596212	-1.8990531858	-0.6070815817	 0.268745
O	 0.8787398849	-3.1332713909	-0.9945318318	-0.477416
C	 2.9412050459	-2.0471119785	-1.0626164594	 0.143877
O	 3.6461138911	-1.1416595898	-1.421097418	-0.249386
C	 1.4212689265	-1.6965720161	 0.8963036266	-0.167734
C	 0.6356082977	-0.6716171931	 1.2232483021	-0.058546
H	 1.3219107368	 1.8273049583	 0.1428363718	 0.128444
H	-0.1485389967	 2.047725154	-0.82031981	 0.120091
H	-0.2481773888	 2.0086843824	 0.9457249178	 0.112086
H	-1.0152404842	-0.1443608305	-0.0245257661	 0.081258
H	 0.1405550918	-0.8881813299	-1.9916889136	 0.108175
H	 1.5799980417	 0.0386267363	-1.5458872236	 0.131635
H	 0.0707401093	-3.2321177231	-0.4800518995	 0.279724
H	 3.3030594907	-3.0971309632	-1.0127015647	 0.091894
H	 1.9220361706	-2.3680967968	 1.5849772298	 0.105125
H	 0.4034143599	-0.3705512348	 2.240563886	 0.103076
