17
gdb 127849	2.55575	1.54719	0.97539	2.3068	82.26	-0.23	-0.0451	0.1848	1183.3111	0.135037	-417.990602	-417.981981	-417.981037	-418.024085	31.51	
C	 0.0699405217	 1.3826116336	 0.1096804965	-0.32821
N	 0.013040765	-0.0687353976	 0.1168708507	-0.302051
C	-1.1362317712	-0.6299760221	-0.0064616387	 0.23837
C	-2.4413091623	-0.0183318827	-0.1582609812	-0.262003
C	-3.5162567862	-0.8149454381	-0.271130748	 0.103129
O	-3.4828833806	-2.1548717563	-0.2549125769	-0.23917
N	-2.2541354561	-2.8234266346	-0.1114777096	-0.148767
C	-1.1869138723	-2.1077240751	 0.0013137624	 0.330799
C	 0.0908371176	-2.877839287	 0.150460481	-0.452796
H	 1.1085801664	 1.7022614814	 0.2230313967	 0.124229
H	-0.3124243878	 1.8114432915	-0.8288557398	 0.117314
H	-0.5096756031	 1.827840924	 0.9323213475	 0.11731
H	-2.5688716038	 1.0547403451	-0.1825840395	 0.119913
H	-4.536540615	-0.4650296548	-0.3885118803	 0.145029
H	-0.1103251011	-3.9493947257	 0.1367144634	 0.137133
H	 0.7804037086	-2.6107445935	-0.6552271491	 0.149902
H	 0.5857012201	-2.5966561381	 1.084292205	 0.149871
