16
gdb 110168	2.56135	1.22719	0.89454	2.9629	73.17	-0.2573	0.0044	0.2617	1267.7436	0.123668	-434.05058	-434.041599	-434.040655	-434.08478	31.779	
C	 0.1714328734	 1.3882427397	 0.0497983084	-0.253636
O	-0.1694151703	 0.0399289051	 0.356865913	-0.242682
C	 0.7369714017	-0.5708122672	 1.2110803589	 0.031623
C	 0.3739041707	-2.0729870591	 1.4789376428	-0.143727
N	 1.7424048764	-2.4070021179	 1.064651152	-0.330698
C	 2.0343843035	-1.1292730689	 0.5907763056	 0.3784
N	 2.9377516198	-0.5809556168	-0.0976101137	-0.545426
C	 0.0190682618	-2.4645897835	 2.8415602524	 0.289128
N	-0.2692868899	-2.7749501465	 3.916456225	-0.318103
H	 1.1415980384	 1.4464031092	-0.4546411324	 0.155644
H	-0.6134259426	 1.7638610149	-0.6090867326	 0.133962
H	 0.2012033832	 2.0020382104	 0.9619186168	 0.114408
H	 0.9072925522	 0.0079231263	 2.1294778085	 0.114092
H	-0.4075814298	-2.3947026484	 0.7825787848	 0.143507
H	 2.0568799253	-3.2967658915	 0.7043594567	 0.254822
H	 3.6403357962	-1.246232046	-0.425242066	 0.218687
