16
gdb 27099	2.72726	1.35515	1.07122	3.5048	72.94	-0.2354	0.006	0.2413	1146.6861	0.125002	-434.100609	-434.091979	-434.091035	-434.135167	30.437	
C	-0.5305852878	 1.3293232413	-0.177043683	-0.491484
C	-0.0062424176	-0.0589498586	-0.0516242042	 0.224985
C	 0.5133363875	-0.8665081333	-1.0099890838	 0.31678
N	 0.7473367515	-0.7109114641	-2.3683181602	-0.407249
C	-0.0761540269	-1.2462432809	-3.3455286978	 0.059917
N	-1.174566102	-1.8206840235	-3.074777681	-0.43524
O	 0.8539395606	-2.0680520312	-0.4153636028	-0.160658
C	 0.5104505843	-1.8991415834	 0.872980877	 0.079812
N	 0.0038517066	-0.7445018937	 1.1613241431	-0.316625
H	 0.0109203375	 2.0128542324	 0.4852532466	 0.13613
H	-0.4352368132	 1.6863048007	-1.2050539167	 0.125678
H	-1.5869363502	 1.3698685049	 0.1075287875	 0.145451
H	 1.6680992281	-0.4246661956	-2.6631941151	 0.255408
H	 0.3407632308	-1.0858649803	-4.3476415406	 0.0934
H	-1.6409522715	-2.1144309721	-3.9296153996	 0.22604
H	 0.6890580022	-2.7308494626	 1.5374023906	 0.147654
