23
gdb 93133	2.08577	1.7896	1.27563	0.2656	89.63	-0.2326	0.0302	0.2628	1123.4488	0.208331	-351.152906	-351.14451	-351.143566	-351.185258	34.214	
C	-0.2164064259	 1.5528995305	-0.2985292299	-0.408177
C	-0.0400915626	 0.0536886306	-0.01551685	-0.006689
C	 0.5738477903	-0.6934497699	-1.2190456325	-0.250603
C	 1.986634307	-0.3457462919	-1.6286270021	-0.028692
C	 2.9741382237	 0.2504642289	-0.9557525098	-0.05464
C	 2.9687897231	 0.7949504152	 0.4551826735	-0.287492
C	 2.1732352827	-0.0148345758	 1.4685151892	 0.009297
C	 1.1316702476	 0.6390144679	 2.3475556156	-0.328705
C	 0.7111298567	-0.32023336	 1.260522449	 0.003206
H	 0.7268807379	 2.0589901557	-0.5166612924	 0.126562
H	-0.8630128915	 1.688823912	-1.1721742769	 0.10836
H	-0.6912658602	 2.0615454159	 0.5455768146	 0.114437
H	-1.0562592825	-0.3476768399	 0.1035156988	 0.070203
H	 0.5290270649	-1.7757039239	-1.0202648647	 0.103037
H	-0.0743287658	-0.5426637842	-2.0938699472	 0.0933
H	 2.2204138236	-0.6557135757	-2.6470932059	 0.079062
H	 3.9096704134	 0.3962692965	-1.4938258166	 0.07843
H	 4.0056955389	 0.8694342458	 0.8044180246	 0.099094
H	 2.608388917	 1.8330565213	 0.4394166604	 0.110047
H	 2.7470252471	-0.8174184691	 1.9241101315	 0.079177
H	 1.0366048493	 0.3251781353	 3.3816488208	 0.104389
H	 0.9546874152	 1.6981836038	 2.1915559948	 0.109042
H	 0.41862978	-1.3045196689	 1.6203479551	 0.077356
