18
gdb 48586	3.33572	1.45276	1.26801	2.9546	75.99	-0.2365	-0.022	0.2145	1020.764	0.149491	-401.900603	-401.893512	-401.892568	-401.932341	28.529	
O	-0.6685732638	 0.8044605503	 0.6698311389	-0.252945
C	 0.1208932188	 1.0039058459	-0.2213949366	 0.02576
C	 1.3523808714	 1.8338496463	-0.0969777874	 0.266682
C	 1.8245721981	 2.4880959988	 1.2443461892	-0.255611
C	 3.1984720948	 2.5253196393	 0.4844354038	-0.057857
C	 2.7719044807	 1.1682117799	-0.136853556	-0.273813
C	 2.8522512052	 3.5366656729	-0.6271369177	-0.026352
N	 2.6872502915	 2.9560277763	-1.9810184511	-0.340937
C	 1.5289066493	 3.0367849423	-1.0625291295	-0.106677
H	-0.0275543843	 0.5501709815	-1.2294682648	 0.073954
H	 1.3709558729	 3.4423922145	 1.5250290498	 0.095868
H	 1.8043132425	 1.7921572373	 2.0849475022	 0.112642
H	 4.1479919752	 2.6402579662	 1.0058390899	 0.069957
H	 2.8405067871	 0.3535915463	 0.5854671793	 0.105796
H	 3.1784443942	 0.8855539529	-1.1047693784	 0.133535
H	 3.078787555	 4.5902295444	-0.5120313038	 0.09636
H	 2.6153256656	 3.7160420066	-2.6548648612	 0.23277
H	 0.6868386057	 3.6779789481	-1.2956026665	 0.100868
