16
gdb 53841	3.99361	0.86111	0.75726	1.726	66.07	-0.2454	-0.0677	0.1776	1460.2164	0.122161	-475.045026	-475.035741	-475.034797	-475.080836	32.433	
N	-0.0277140402	 1.2563639669	 0.2917859827	-0.518066
C	 0.0574718969	-0.0792942056	 0.116764319	 0.333318
O	 1.0792144502	-0.7386922594	 0.0867465696	-0.349477
C	-1.334023488	-0.7351039254	-0.0592605318	 0.299547
O	-2.3359951961	-0.0577427481	-0.0337956822	-0.306827
C	-1.3207850584	-2.2315846416	-0.2849201679	-0.339289
C	-2.6834271808	-2.8610134062	-0.1493990874	 0.099662
C	-2.8363824403	-4.2765422583	 0.2038849282	-0.184919
O	-3.0674232887	-3.2512734262	 1.1708393388	-0.231407
H	 0.8061881472	 1.8014673095	 0.4290163644	 0.270934
H	-0.9382123654	 1.6869972672	 0.3069123124	 0.280865
H	-0.9117812296	-2.3973856749	-1.2925610151	 0.147215
H	-0.5978470043	-2.6877426131	 0.3976098385	 0.15602
H	-3.4781266827	-2.3786063506	-0.7165062498	 0.109483
H	-3.7201332477	-4.8227287435	-0.122636372	 0.117589
H	-1.9502677122	-4.8876402507	 0.3726681627	 0.115353
