18
gdb 47509	2.79898	1.40778	1.07271	2.8248	72.18	-0.2377	-0.0247	0.213	1128.3845	0.148519	-439.073478	-439.065594	-439.06465	-439.106151	30.315	
O	-0.0337299581	-0.0561892896	 0.1929830185	-0.296325
C	-0.0270491961	 1.1335696683	-0.0086996681	 0.370564
C	-1.3249958641	 1.944738887	-0.0794200153	-0.173755
O	-1.3027117789	 2.9536530052	-1.0731047307	-0.236832
C	-0.2056402404	 3.8415315991	-0.9334260205	-0.164009
C	 1.1052476392	 3.1047650214	-1.1166477585	 0.316143
C	 1.7041905763	 3.0410730735	-2.472114428	-0.274357
N	 2.3318618378	 3.8556822711	-1.409630988	-0.36223
C	 1.2536513336	 1.949574112	-0.1394424211	-0.369919
H	-2.1530551241	 1.2727093956	-0.310804745	 0.138856
H	-1.5022885715	 2.3834498136	 0.9207202352	 0.108253
H	-0.3333840179	 4.6145045107	-1.6974678898	 0.108464
H	-0.2324471656	 4.3289531186	 0.0577237977	 0.091634
H	 2.2773304088	 2.1677321804	-2.7703658515	 0.12659
H	 1.1896443718	 3.5451193101	-3.2860168476	 0.11872
H	 2.1190943499	 4.8408439295	-1.5554877474	 0.2319
H	 1.4621954191	 2.3625542757	 0.859651914	 0.131964
H	 2.0847924503	 1.2886398577	-0.3930701238	 0.13434
