18
gdb 7850	3.84442	1.33674	1.19533	3.3467	68.6	-0.2401	0.0551	0.2952	1070.0176	0.154078	-381.150973	-381.142214	-381.14127	-381.184553	32.271	
C	-0.2066207224	 1.3926926728	 0.3662139523	-0.405742
C	 0.0797992613	-0.0717399996	 0.1307003804	 0.036296
C	 1.4170420976	-0.5300062832	-0.401909149	-0.336545
C	 1.022408637	-0.8446747825	 1.0196583811	 0.047835
N	 1.7240729019	-0.1657565686	 2.0706891019	-0.345376
C	 1.0982208002	 0.0283179116	 3.2898993563	 0.443957
N	 1.9601343178	 0.4579889351	 4.2957225497	-0.565621
O	-0.0850589196	-0.1744547869	 3.4764707087	-0.383281
H	 0.6953571107	 1.9256143066	 0.6789235939	 0.110902
H	-0.5798231682	 1.8691758668	-0.5466111989	 0.109178
H	-0.9568788041	 1.5155046765	 1.1530799669	 0.137956
H	-0.7793299273	-0.648557144	-0.2001895411	 0.08879
H	 1.4612533673	-1.3455474736	-1.1149734304	 0.112955
H	 2.1772224994	 0.2321984242	-0.5428650968	 0.108375
H	 0.737262246	-1.8705933686	 1.2433821978	 0.096936
H	 2.7236904475	-0.3040942934	 2.0957978103	 0.238543
H	 2.7411249258	 1.0358006604	 4.0215168483	 0.245505
H	 1.460594879	 0.8078670765	 5.0995635285	 0.259338
