17
gdb 43358	2.79195	1.768	1.27707	4.5776	73.48	-0.2271	-0.0541	0.1729	985.4334	0.138555	-421.862061	-421.85498	-421.854035	-421.894096	27.371	
O	 0.2010098538	-0.0007496396	 0.0342759392	-0.320797
C	 0.0751687383	 1.199541203	 0.0409952089	 0.369025
C	-1.1630604407	 1.9792388135	 0.2661100809	-0.185052
C	-0.9068457239	 3.2909149516	 0.185763497	-0.059057
C	 0.5427885417	 3.6157464064	-0.0905361184	-0.106638
C	 1.280123961	 4.2985299099	 1.0879852081	-0.230274
C	 1.8472361037	 3.0962117988	 1.8531140934	-0.083794
O	 2.2022088443	 2.1545173042	 0.846116138	-0.247875
C	 1.2235047166	 2.224244976	-0.1834449187	-0.008578
H	-2.1206456756	 1.5126771345	 0.4605914092	 0.120075
H	-1.6452461474	 4.0776450665	 0.3077478391	 0.117921
H	 0.6363870204	 4.2055642902	-1.0072337303	 0.094755
H	 2.0945540911	 4.9209130261	 0.707035015	 0.114985
H	 0.6262568785	 4.9259481531	 1.6996368397	 0.105472
H	 2.7478316186	 3.3219319866	 2.4290059307	 0.116159
H	 1.0954381361	 2.6757100754	 2.5385875715	 0.100473
H	 1.7231842535	 2.0164352839	-1.1336696332	 0.1032
