20
gdb 6845	3.22098	1.89008	1.63867	1.0937	75.75	-0.2402	0.0266	0.2667	908.8843	0.176874	-349.021378	-349.01332	-349.012376	-349.05298	31.816	
C	 0.0331536926	 1.5053839993	 0.0618047267	-0.416931
C	-0.0531134113	-0.01774328	-0.022593846	 0.363699
C	-1.5226730651	-0.4701394242	-0.0433408662	-0.424515
C	 0.7092464988	-0.5433789967	-1.258379969	-0.26749
C	 1.072069858	-1.9973421216	-1.1144601754	-0.07004
C	 1.0515289184	-2.6103241033	 0.0656225627	-0.060534
C	 0.6800094263	-1.8828745821	 1.3247131359	-0.120727
O	 0.6054131324	-0.4796608221	 1.1682230809	-0.291773
H	 1.0748846618	 1.8165883511	 0.1791600211	 0.120029
H	-0.3703025584	 1.9664644082	-0.8450894533	 0.108935
H	-0.5328193663	 1.8751683051	 0.9217540504	 0.116753
H	-2.0616129832	 0.0226830957	-0.8584667319	 0.111656
H	-1.6133618087	-1.5499066657	-0.1898764256	 0.120996
H	-2.0091192101	-0.2036601385	 0.8997178044	 0.118722
H	 0.0996356759	-0.3924901753	-2.1584245128	 0.099671
H	 1.6193277041	 0.0539462037	-1.4074686016	 0.107347
H	 1.3573972999	-2.5379808618	-2.0131616021	 0.086976
H	 1.293895697	-3.6652810968	 0.1632542492	 0.087867
H	-0.2670788925	-2.2890245983	 1.7249259984	 0.095309
H	 1.4371024803	-2.0542203266	 2.1005625542	 0.114048
