21
gdb 122099	3.02458	0.7321	0.60858	1.4745	82.98	-0.2505	0.0358	0.2863	1852.2145	0.178352	-424.166054	-424.154822	-424.153878	-424.203408	38.648	
C	 0.2682346974	 0.4537108792	 1.5774455591	-0.227606
O	 0.2008505419	-0.8221614758	 0.9899099026	-0.23295
C	 0.789244594	-0.8661488069	-0.292153565	-0.061322
C	 0.6980091629	-2.2999693694	-0.8001893142	-0.212384
C	 1.2173987021	-2.446550991	-2.2347888313	-0.079564
O	 2.5801608162	-2.0469930213	-2.2373545381	-0.233098
C	 3.1464973858	-1.9376648386	-3.5268267434	-0.237794
C	 1.0411872624	-3.8194465026	-2.7301130069	 0.335278
C	 0.8996009941	-4.9446795633	-3.1285912423	-0.451987
H	 1.3090172202	 0.7924982201	 1.7037332214	 0.103402
H	-0.2653405603	 1.2098679478	 0.9788346666	 0.100778
H	-0.2031204914	 0.3874951249	 2.5612124312	 0.125536
H	 0.2611333118	-0.1809967023	-0.9803660485	 0.077135
H	 1.8390229924	-0.5403584554	-0.2527072025	 0.10657
H	 1.2723836698	-2.9615773663	-0.1450121524	 0.125464
H	-0.3448765638	-2.6294806453	-0.7672904129	 0.119041
H	 0.6432450839	-1.7705476929	-2.894295592	 0.090451
H	 3.1463730329	-2.9006407852	-4.0544754095	 0.121939
H	 2.6073565771	-1.2010703581	-4.1429087612	 0.103401
H	 4.1771279874	-1.6015961442	-3.3931430747	 0.128844
H	 0.7717468432	-5.9383235536	-3.4815430759	 0.198867
