19
gdb 82866	2.53077	2.06351	1.77667	2.502	72.18	-0.2395	0.0737	0.3132	875.8643	0.163667	-423.030707	-423.024433	-423.023489	-423.060946	27.436	
O	 0.1649005955	 1.3758417491	-0.095169318	-0.455961
C	 0.0238069945	-0.0202660263	-0.0085270649	 0.158815
C	 0.6080652759	-0.5784963683	 1.3167927158	 0.051532
O	 0.126857336	 0.2854792129	 2.3813595144	-0.318926
C	-1.0959920514	-0.5113737594	 2.41994558	 0.102805
C	-2.079349364	 0.0044632363	 1.3544296929	-0.236414
C	-1.4393465019	-0.5513784855	 0.0589594218	-0.068225
C	-1.194820786	-2.0236200123	 0.4501254445	-0.242466
C	-0.3818105236	-1.7051268567	 1.7082365414	-0.064963
H	 0.1203546973	 1.6918396947	 0.8192309309	 0.286458
H	 0.5330682185	-0.4567934841	-0.8755813108	 0.078936
H	 1.6916975588	-0.7057772975	 1.3451130238	 0.079255
H	-1.4853019174	-0.6015020542	 3.4353498955	 0.079647
H	-3.0803181081	-0.415607074	 1.5041499928	 0.097565
H	-2.1588851477	 1.09439659	 1.3768889695	 0.109043
H	-2.0142901646	-0.3730314124	-0.8503180949	 0.066944
H	-2.1158115604	-2.5763446733	 0.6595751476	 0.099424
H	-0.6202431965	-2.5805686367	-0.2971384422	 0.100447
H	-0.0110020447	-2.5152158924	 2.3323723898	 0.076082
