19
gdb 47936	2.27593	1.59803	1.09939	4.7899	72.02	-0.2476	0.0019	0.2494	1131.4848	0.160816	-460.180992	-460.172772	-460.171828	-460.214146	31.095	
O	-0.071381401	 0.1653394875	 0.9632489396	-0.312524
C	-0.0509895997	 1.1673733868	 0.3020544682	 0.393009
C	-1.3452174163	 1.9481026785	-0.0060376658	-0.20111
O	-1.8503000218	 1.6899642754	-1.29848408	-0.24144
C	-1.375145515	 2.4767048173	-2.3824344596	-0.073657
C	-0.0275092344	 2.0040577079	-2.9534132646	-0.206827
C	 1.2295718528	 2.6950306232	-2.4011021303	-0.208379
C	 1.2863093226	 2.8409773462	-0.8836106092	-0.074277
O	 1.1334264738	 1.5888524633	-0.2048962139	-0.218206
H	-2.0792873984	 1.5493896124	 0.6961195095	 0.141231
H	-1.2440250402	 3.0270705973	 0.1780941944	 0.105337
H	-2.1492216497	 2.3695164524	-3.1480567045	 0.117851
H	-1.3434189299	 3.5416630712	-2.0999145354	 0.088183
H	 0.0285379943	 0.9230871019	-2.7869605889	 0.131428
H	-0.0378108675	 2.1450962057	-4.0400488963	 0.10483
H	 2.1142524759	 2.1457372858	-2.7414741474	 0.11821
H	 1.3127368549	 3.7076538741	-2.8178926473	 0.104353
H	 2.2691467633	 3.2126334558	-0.5802793664	 0.124419
H	 0.5469500862	 3.5639638473	-0.529587972	 0.107569
