23
gdb 105878	2.00436	1.39596	1.22555	1.6831	85.61	-0.2267	0.0744	0.3011	1237.8264	0.204141	-388.260931	-388.251001	-388.250057	-388.295395	37.496	
C	-1.0691295658	 1.2811430074	-0.3646446895	-0.372546
C	-0.3222793134	-0.0446166116	-0.1553483416	-0.29541
C	 0.5794888925	-0.4087113495	-1.3041146491	 0.237246
C	 0.0850225246	-1.1460631896	-2.5498888949	-0.07158
C	 0.2389937974	-0.7528407895	-4.0044289173	-0.427227
C	 1.1922721439	-1.7304630633	-1.7286247249	 0.012145
O	 2.4492242899	-1.1300812189	-2.0602999957	-0.309559
C	 2.0004120801	 0.1403020258	-1.4997668187	 0.115632
C	 2.323364353	 1.3578702238	-2.3443070267	-0.420075
H	-0.3718244634	 2.1176770977	-0.4800661836	 0.117799
H	-1.6910574855	 1.2421525776	-1.2648337346	 0.119563
H	-1.7192415682	 1.506170994	 0.4865931312	 0.111499
H	 0.2692236135	 0.0098908173	 0.7688091375	 0.096176
H	-1.0514386305	-0.8499029286	-0.0015556966	 0.097963
H	-0.8687871221	-1.6213811323	-2.3197746014	 0.083088
H	 1.2903323166	-0.5993789829	-4.2537473828	 0.138603
H	-0.141124315	-1.5523774405	-4.6497252147	 0.112092
H	-0.3164760657	 0.1596106804	-4.2465044224	 0.112237
H	 1.2111817548	-2.7135666416	-1.2697287654	 0.096362
H	 2.4690903652	 0.2547708178	-0.5102846175	 0.075865
H	 3.4036365219	 1.4149345449	-2.5156480832	 0.126347
H	 1.8203046675	 1.343416466	-3.3117001122	 0.125878
H	 2.0218950387	 2.2662504255	-1.8113207959	 0.117902
