23
gdb 40727	3.48762	1.08925	1.01996	0.1883	88.47	-0.2606	0.0823	0.3429	1301.6963	0.208207	-351.142822	-351.134538	-351.133593	-351.175916	33.235	
C	-0.2088984316	 0.9650064414	-0.5105787175	-0.276537
C	 1.2320291409	 0.6936621416	-0.147803877	-0.276537
C	 0.1721386986	-0.3381271826	 0.1457733623	 0.041405
C	-0.2416510206	-0.618172955	 1.5798649262	-0.011998
C	-1.6856194485	-1.1971219244	 1.7137276612	-0.238549
C	-1.5368986273	-2.6766857924	 2.0367833139	-0.017124
C	-0.6751963157	-3.5213548597	 1.1303823419	-0.290734
C	-0.0943585397	-2.9483359384	 2.3999634825	-0.017124
C	 0.6827577726	-1.6431198529	 2.3100008752	-0.238549
H	-0.7510612602	 1.6921180982	 0.0857757682	 0.108571
H	-0.4867299003	 0.9593602148	-1.5588555168	 0.108202
H	 1.938297105	 0.502697401	-0.9483190238	 0.108202
H	 1.6525951762	 1.2394806316	 0.6909314594	 0.108571
H	 0.1753913348	-1.2020964557	-0.5133683455	 0.080976
H	-0.1928742018	 0.3426729943	 2.1048142444	 0.064273
H	-2.2131288027	-0.7047782996	 2.5387387231	 0.092257
H	-2.2733709389	-1.011849811	 0.8077379176	 0.098255
H	-2.3479132771	-3.1668855058	 2.5648207652	 0.07536
H	-0.8723747907	-4.588204815	 1.1155907001	 0.105019
H	-0.3591714061	-3.1245827276	 0.1719174215	 0.110187
H	 0.1607664648	-3.6393044091	 3.196416803	 0.07536
H	 1.6434228095	-1.7494357956	 1.7938472741	 0.098255
H	 0.906064419	-1.2921654183	 3.3240407107	 0.092257
