22
gdb 53507	2.59956	0.93915	0.72538	1.0959	91.38	-0.2284	0.0609	0.2892	1632.8817	0.191671	-367.163562	-367.15274	-367.151796	-367.201975	38.122	
C	-0.0300451333	 1.5185922372	-0.0885263375	-0.49821
C	-0.033544621	 0.0635904352	-0.0205779586	 0.094292
C	-0.0320380559	-1.1392628713	 0.0431191773	 0.042949
C	-0.0113493696	-2.5975950475	 0.0962117158	-0.354016
C	-1.397881595	-3.2742908697	 0.0003000756	 0.059844
C	-1.2415652411	-4.7859048342	-0.1735707855	-0.39303
N	-2.1552508994	-3.0142974459	 1.2236167826	-0.05734
C	-2.9601807239	-1.798256967	 1.2680834338	-0.212302
C	-3.6075694568	-3.1301999458	 1.12669043	-0.230256
H	 0.9711332421	 1.9040042608	-0.3120597606	 0.146277
H	-0.7046896457	 1.8850493368	-0.8704765706	 0.143691
H	-0.3503479144	 1.9649443224	 0.8596041864	 0.14543
H	 0.6135807749	-2.9778775026	-0.7219832803	 0.118785
H	 0.4578546978	-2.9315312675	 1.0302911362	 0.132142
H	-1.9199214002	-2.8634443422	-0.883558539	 0.061362
H	-0.6927818399	-5.0193608076	-1.0910386133	 0.111006
H	-0.7006269633	-5.2139353812	 0.6763807496	 0.1246
H	-2.2196213776	-5.2723874367	-0.2293696504	 0.115124
H	-2.9699112925	-1.2747156135	 2.2196276029	 0.113525
H	-2.9526659478	-1.1519165583	 0.393961534	 0.117082
H	-4.0382779185	-3.369378265	 0.1549066967	 0.105982
H	-4.102686589	-3.6030319364	 1.9701201151	 0.113061
