17
gdb 50303	3.20439	1.44446	1.10595	5.4466	75.78	-0.2366	-0.0117	0.2249	1091.6079	0.137876	-418.033646	-418.025834	-418.02489	-418.066405	29.177	
N	 0.0699606194	 1.294440744	 0.2074302359	-0.417125
C	-0.0421937065	 0.0367936585	 0.0882719067	 0.084816
N	-1.2522310349	-0.6456133966	 0.0277913917	-0.113096
C	-1.2545280381	-2.1083053779	-0.0797063167	-0.194811
C	-2.7144447386	-2.5010016006	 0.0783224441	-0.05899
C	-3.3989598808	-2.0479779931	 1.3307724125	-0.286814
C	-3.5187652585	-1.2223602429	 0.062858798	-0.149532
C	-2.5477234395	-0.0823551167	-0.0445772327	 0.433675
O	-2.8126165887	 1.0820672682	-0.1796624548	-0.337685
H	 1.0572123431	 1.5458344362	 0.2298540285	 0.22713
H	 0.7995861879	-0.6663187296	 0.0262467581	 0.088642
H	-0.8714433791	-2.4237080666	-1.0591436202	 0.121011
H	-0.6158100079	-2.5547255065	 0.6915233543	 0.121765
H	-3.0579134934	-3.3934916932	-0.4285378336	 0.105129
H	-4.287652683	-2.5883350144	 1.636053514	 0.127762
H	-2.8036648071	-1.654671704	 2.1489869348	 0.130834
H	-4.4781969043	-1.1044482547	-0.4216362105	 0.11729
