18
gdb 7171	4.25109	0.98012	0.833	2.3099	71.19	-0.2545	0.0505	0.3051	1368.3818	0.15006	-384.889097	-384.879194	-384.87825	-384.924295	34.383	
C	-0.301744705	 1.2295682808	-0.6025183297	-0.225037
O	-0.4623330479	-0.1690886481	-0.5590989305	-0.233565
C	-0.8869086919	-0.6391886882	 0.6993181074	-0.078098
C	-1.0157051722	-2.1635040628	 0.6472654106	 0.101621
O	-1.3308150293	-2.6631484864	 1.934503841	-0.42317
C	-2.0274432084	-2.6012248402	-0.4302899626	-0.384273
C	-2.132690299	-4.0461353781	-0.5760124556	 0.311433
C	-2.2107413245	-5.239012918	-0.6978612592	-0.440268
H	 0.0299443634	 1.4899432057	-1.6103506686	 0.130237
H	-1.2464945129	 1.7547615726	-0.3909349688	 0.105508
H	 0.4522354442	 1.5747759788	 0.1217305778	 0.108665
H	-0.1681764334	-0.3715744969	 1.4894557456	 0.101321
H	-1.8607663091	-0.1922436018	 0.975690842	 0.072142
H	-0.0368530006	-2.5873945715	 0.4009824064	 0.11276
H	-2.2516037411	-2.4509129506	 2.12352606	 0.281397
H	-3.0122710909	-2.177717385	-0.179640755	 0.112064
H	-1.7317808441	-2.1394216574	-1.3786500574	 0.15388
H	-2.2801166772	-6.2929220931	-0.8049060332	 0.193382
