15
gdb 23431	4.73271	0.91219	0.81256	3.5491	73.5	-0.2499	-0.0073	0.2426	1344.2736	0.110999	-453.863743	-453.855621	-453.854677	-453.896859	29.749	
O	-0.169042015	 1.3667724214	-0.2198755966	-0.385034
N	 0.0338895174	-0.0039177812	-0.0060654517	-0.251936
C	-1.0658874905	-0.6093623372	 0.1428341295	 0.46181
C	-2.5547382973	-0.2622933167	 0.0168124441	-0.343021
C	-2.8257204083	-1.7752433056	 0.1543517631	-0.055434
C	-1.3406149047	-2.0718497208	 0.3014956594	-0.146693
N	-2.2681357532	-2.1963684613	 1.4285684459	-0.078816
C	-2.5385690443	-3.4190177372	 2.0261765238	 0.141032
O	-1.7206048808	-4.2715261381	 2.2672493382	-0.286823
H	 0.7315889456	 1.6935095202	-0.3222258227	 0.312473
H	-2.9898864276	 0.377115466	 0.7870094116	 0.138576
H	-2.7868219257	 0.1385456116	-0.9736703647	 0.139655
H	-3.5769157706	-2.3695629201	-0.3502455513	 0.126202
H	-0.7528409811	-2.9260338568	-0.0053136923	 0.137828
H	-3.599938214	-3.4870446042	 2.3330219138	 0.090182
