16
gdb 2702	14.86585	0.81287	0.78572	3.8682	61.86	-0.2758	0.0347	0.3105	1355.9803	0.136033	-325.79183	-325.783423	-325.782478	-325.825195	28.313	
O	-0.0770640494	 1.4589132865	 0.0106969069	-0.419776
C	 0.0325071193	 0.0447732312	 0.0019058125	-0.078273
C	-1.3791925642	-0.5281444811	 0.0123169694	-0.169695
C	-1.3957012496	-2.0578686025	 0.0041038829	-0.185901
C	-2.8332664401	-2.6144400922	 0.0148973656	-0.339577
C	-2.8717303849	-4.0752823523	 0.0075654181	 0.256533
N	-2.882661781	-5.2307985621	 0.0013044215	-0.304269
H	 0.8094571054	 1.8314592999	 0.0042622855	 0.2887
H	 0.5711813162	-0.3099687616	-0.892189776	 0.089193
H	 0.588207886	-0.3196767338	 0.8815608846	 0.089194
H	-1.9010783228	-0.1472402823	 0.8988732645	 0.111466
H	-1.9179673589	-0.1376221227	-0.8598329803	 0.111466
H	-0.8741235672	-2.4393280649	-0.8811799448	 0.121925
H	-0.8572888367	-2.4489168335	 0.8750048551	 0.121924
H	-3.3715015757	-2.2575078689	 0.9009032013	 0.153542
H	-3.3883471667	-2.2481041697	-0.8567914469	 0.153549
