18
gdb 46982	2.69228	1.81502	1.45334	3.1853	71.93	-0.2546	0.0205	0.2751	953.1808	0.151198	-439.107854	-439.100727	-439.099783	-439.139621	28.027	
N	-0.0690387072	 1.2662376558	-0.2574734484	-0.51884
C	 0.0052367403	 0.0392758675	 0.0361233986	 0.403802
O	 1.1986849175	-0.5871130203	 0.2666211359	-0.267689
C	 1.2097398313	-1.8505712224	 0.958467371	-0.080964
C	-0.0798263496	-2.6299452549	 0.7385050366	 0.071331
C	-0.3577176008	-2.9488005849	-0.7519230216	-0.239537
C	-1.2470758587	-1.7602230939	-1.2009236188	-0.225813
C	-1.2251647576	-0.8463474371	 0.0458443698	-0.000919
O	-1.1496373097	-1.7675589922	 1.1364738751	-0.260955
H	 0.862422001	 1.6887482282	-0.2539947754	 0.219016
H	 2.0847982217	-2.3928596514	 0.58761894	 0.115476
H	 1.3412798618	-1.6544084018	 2.029357826	 0.118733
H	-0.0935832301	-3.5103150319	 1.3861146627	 0.089911
H	 0.5676779234	-3.0191760525	-1.3286134813	 0.113027
H	-0.8832567356	-3.9005554093	-0.8491635261	 0.113469
H	-0.8773255065	-1.2537006071	-2.0942874086	 0.124355
H	-2.2723741237	-2.0838528971	-1.3923654826	 0.114013
H	-2.1103662878	-0.2243521146	 0.165984467	 0.111585
