14
gdb 20203	4.10744	2.7712	2.08654	3.4059	60.21	-0.2542	-0.0264	0.2278	659.0233	0.110292	-378.650166	-378.644853	-378.643909	-378.67934	21.473	
C	 0.0484634707	 1.5623605812	 0.1019180333	-0.099526
O	 1.4845364799	 1.8781830441	 0.0647496559	-0.241564
C	 1.8838912021	 0.7301618804	 0.6760026448	 0.298523
N	 2.0685582868	 0.5992012341	 1.9228317303	-0.244219
C	 1.4393417079	-0.700026702	 2.2451010845	-0.183686
C	 0.6326163079	-1.0234385619	 0.9795366786	-0.055856
C	-0.0113742455	 0.0052246329	 0.0398602741	-0.093718
N	 1.3981324256	-0.403456158	-0.1106369658	-0.123162
H	-0.3841565382	 1.9996724368	 1.0055190525	 0.135671
H	-0.4066894896	 1.9950472368	-0.7909486807	 0.136867
H	 2.1623477522	-1.5056642366	 2.4314378609	 0.124814
H	 0.8435260687	-0.57048646	 3.1540386136	 0.126848
H	 0.3148323523	-2.0515515614	 0.8213804899	 0.104858
H	-0.7135824906	-0.4047689265	-0.6826525221	 0.114149
