18
gdb 62240	5.18264	0.57171	0.52967	4.7008	76.54	-0.2676	0.0158	0.2834	1982.4286	0.14695	-435.264888	-435.254578	-435.253634	-435.302385	34.733	
N	-0.0241143132	 1.4881783345	 0.1052347813	-0.496065
C	-0.0100774643	 0.0267004671	-0.0096393029	-0.140531
C	-1.4223561871	-0.5486112565	 0.1959835138	-0.189892
C	-1.9751669044	-0.2128328973	 1.575864791	-0.081039
O	-3.2511498081	-0.8394769935	 1.6851923552	-0.183678
C	-4.0918553141	-0.3483074623	 2.6170864939	 0.126606
N	-5.1876463604	-0.9293332701	 2.8462410903	-0.435124
C	 0.5533920969	-0.4487449783	-1.2924243521	 0.259549
N	 0.9991884414	-0.7727154004	-2.3088048358	-0.314772
H	 0.9212030173	 1.8541223508	 0.0433178776	 0.249212
H	-0.5385738484	 1.8878107858	-0.6755366587	 0.245083
H	 0.6413400965	-0.3555662493	 0.7863988324	 0.136186
H	-2.096222129	-0.1560539626	-0.5736621421	 0.127521
H	-1.3951107358	-1.6347742199	 0.0700354401	 0.141219
H	-1.3069917224	-0.5962677797	 2.3602979163	 0.109933
H	-2.0590322321	 0.871469457	 1.7040200162	 0.129317
H	-3.7215365003	 0.5661220546	 3.1020851125	 0.085853
H	-5.7094992524	-0.4194343499	 3.5558648008	 0.230622
