15
gdb 75793	2.55743	1.33159	1.19608	1.0013	63.07	-0.2624	-0.0458	0.2166	1068.042	0.108956	-494.904063	-494.895233	-494.894289	-494.937811	32.002	
O	 0.3733975705	 0.7685555669	-0.6688995425	-0.430293
C	 0.059513067	-0.3774429918	 0.0650720596	-0.012563
C	 0.0365419226	-0.2388869155	 1.5907759813	 0.338737
O	 0.6448760555	 0.5087661501	 2.3020181666	-0.299283
C	-1.2498712534	-1.0496824553	 1.7081615918	-0.36269
C	-1.489459728	-0.7135624415	 0.1983646918	 0.261109
O	-2.2606237261	 0.4389794929	 0.0127692822	-0.487997
C	-1.9664702632	-1.8672672163	-0.6577539508	 0.102092
O	-1.5307746499	-2.9864515878	-0.5608372897	-0.257773
H	 0.724032723	 1.4178588253	-0.0433386775	 0.311488
H	 0.6076808625	-1.2592033167	-0.2867164814	 0.134154
H	-1.0635950311	-2.1210146861	 1.8330635621	 0.158073
H	-2.0002863472	-0.6964831847	 2.4157166463	 0.15129
H	-1.7255676757	 1.0423559391	-0.525585879	 0.293419
H	-2.7498319567	-1.5868917387	-1.3946397508	 0.100235
