16
gdb 83329	2.31656	1.74568	1.47473	1.5785	63.94	-0.2212	-0.0327	0.1885	946.0283	0.124804	-474.993281	-474.985395	-474.984451	-475.0254	30.443	
O	 0.0193147669	 1.4302864268	-0.0863079528	-0.443541
C	-0.0680508751	 0.0432772909	-0.0596330123	 0.114163
C	 0.1314157111	-0.662963026	 1.3197544943	-0.203442
N	-0.8391907715	 0.1338850041	 2.1172842745	-0.33866
C	-2.0768085161	 0.0729421937	 1.2591488011	-0.224027
C	-1.5114169465	-0.6513262696	 0.0269120453	 0.242945
O	-2.3959511018	-0.8266110942	-1.0137410242	-0.475429
C	-0.723548268	-1.784948209	 0.7022391533	 0.371308
O	-0.6916282536	-2.9766887255	 0.5905614657	-0.324953
H	-0.1490075796	 1.7246316615	 0.8219236495	 0.300141
H	 0.5434012877	-0.3782792989	-0.8604500546	 0.10112
H	 1.1010866436	-0.80870554	 1.7872792302	 0.099391
H	-0.9999681085	-0.2861767275	 3.0260205981	 0.238597
H	-2.8943743276	-0.4897523064	 1.7192213016	 0.120888
H	-2.4336534313	 1.07768712	 1.0122442168	 0.124233
H	-2.1274746496	-1.6069770801	-1.5127045164	 0.297265
