14
gdb 8747	2.49791	1.86324	1.13154	1.5647	64.88	-0.2602	0.0134	0.2735	999.4241	0.102653	-382.449683	-382.440451	-382.439507	-382.483603	32.813	
O	 1.4325049239	 1.4879047411	-0.8320438831	-0.398876
C	 0.5692698976	 0.6482094487	-0.0929203464	-0.061257
C	 0.1794753343	-0.5459253008	-0.8450131758	 0.296993
C	-0.0675037526	-1.537242899	-1.4783083033	-0.449174
C	 1.2015380802	 0.2497512704	 1.2841355163	-0.061257
O	 1.7460399045	 1.3736836508	 1.9450895896	-0.398876
C	 0.2255412273	-0.4612326491	 2.1120686568	 0.296993
C	-0.6090011105	-0.978510486	 2.8054189971	-0.449174
H	 2.1678567055	 0.9527270957	-1.1517000857	 0.287838
H	-0.3170119702	 1.2591083402	 0.1182437316	 0.120213
H	-0.3100211999	-2.4080666698	-2.0361740357	 0.204263
H	 2.0567052232	-0.4045490194	 1.0746992081	 0.120213
H	 1.0151589834	 1.9150976089	 2.264497558	 0.287838
H	-1.3338237169	-1.4570125517	 3.4169996225	 0.204263
