15
gdb 8584	5.1191	1.84973	1.75632	2.6617	67.5	-0.2653	0.0063	0.2717	776.2796	0.119704	-362.531266	-362.525365	-362.52442	-362.561016	24.277	
N	 0.0858382585	 1.3109961321	-0.3229503859	-0.537593
C	-0.0186175894	 0.108604996	 0.0001549894	 0.358097
O	 1.0127128297	-0.8301452217	 0.312045939	-0.323608
C	-0.0483766059	-1.6942561281	 0.8235467989	 0.386242
C	-0.9046390413	-2.9933248795	 0.7921827931	-0.299187
C	-1.8293907505	-1.7558986042	 1.2504672683	-0.088253
C	-0.68466439	-1.3276426377	 2.1878852832	-0.261596
C	-1.130359228	-0.9532201683	 0.0817016809	-0.12723
H	 1.0632076218	 1.6087427461	-0.3466393968	 0.2373
H	-1.1181924908	-3.4204031223	-0.188485119	 0.117871
H	-0.7212854572	-3.758097729	 1.5511148788	 0.111048
H	-2.8910789006	-1.8262073665	 1.4865634917	 0.099845
H	-0.4627446582	-1.9819430849	 3.0323559604	 0.101271
H	-0.654036495	-0.2713406735	 2.460750349	 0.118484
H	-1.3561126929	-1.3203468585	-0.9220783411	 0.107307
