21
gdb 64473	2.61214	1.36886	1.12644	1.7125	81.11	-0.2449	0.0062	0.251	1181.719	0.182281	-424.224645	-424.215535	-424.214591	-424.258267	35.301	
C	 0.4173093525	 1.6014943795	 0.0342043959	-0.42087
C	-0.0950225084	 0.1551149105	-0.0530575624	 0.312872
O	-1.5288411304	 0.1774663985	-0.2347486935	-0.463911
C	 0.4421317425	-0.5037338181	-1.3288419409	-0.196373
C	 0.0849070432	-1.9766277629	-1.5039045609	-0.097933
O	 0.9305680511	-2.8222146653	-0.7405077444	-0.239159
C	 0.5238686603	-3.0459261395	 0.5846580727	-0.130868
C	 0.4295022877	-1.8557193055	 1.5040021728	-0.076924
C	 0.2115846515	-0.5654402652	 1.2479993966	-0.100912
H	 1.5058518563	 1.6300257896	 0.1506500803	 0.118575
H	 0.1445649072	 2.1521995594	-0.8700686374	 0.119713
H	-0.0271360058	 2.117095109	 0.8929133766	 0.102493
H	-1.9301986989	 0.3706836913	 0.6190790148	 0.274373
H	 0.0305594601	 0.0633855311	-2.1723653677	 0.100804
H	 1.5320393035	-0.4077913508	-1.3651464925	 0.103889
H	-0.9726813615	-2.1463385923	-1.2570243639	 0.105979
H	 0.2397747621	-2.2686477362	-2.5478108593	 0.10016
H	-0.4512767761	-3.5710253472	 0.6088927206	 0.100606
H	 1.258163602	-3.7471958339	 0.9982302479	 0.115005
H	 0.5225703886	-2.136994482	 2.5534204143	 0.09222
H	 0.1669264124	 0.0939378401	 2.1159484405	 0.080262
