23
gdb 120655	4.39278	0.74887	0.70375	1.6482	87.3	-0.2534	0.0795	0.3328	1734.6987	0.20469	-388.273557	-388.263798	-388.262853	-388.308843	36.251	
C	-0.0331698012	 1.5428728745	 0.1150170319	-0.382012
C	-0.0990526049	 0.0140443723	 0.1198894314	-0.156176
C	-1.4269913662	-0.5307547637	-0.4258639363	-0.205279
C	-1.4798664961	-2.0376776854	-0.4125215705	-0.051333
O	-1.6435456529	-2.6647444986	 0.8766189332	-0.298293
C	-2.679834648	-2.811113241	-0.0771331986	 0.453797
C	-4.1257226719	-2.3360458914	 0.101229971	-0.308579
C	-4.5560475273	-3.5036767286	-0.838240116	-0.211832
C	-3.1483618694	-4.1484484857	-0.658010354	-0.311452
H	 0.9211843384	 1.9018971882	 0.5125056699	 0.112899
H	-0.142852164	 1.9424529073	-0.8995967796	 0.111557
H	-0.8323302508	 1.9754481508	 0.7273496742	 0.115129
H	 0.7299443597	-0.3928259554	-0.4741118391	 0.093882
H	 0.0394810845	-0.3643565194	 1.1392900304	 0.115857
H	-2.2588271374	-0.1348923442	 0.168094204	 0.100488
H	-1.5757731149	-0.1809308515	-1.4573063865	 0.093716
H	-0.7298333564	-2.5310183591	-1.0367721826	 0.083428
H	-4.4654562605	-2.4824020557	 1.1308609857	 0.113706
H	-4.3709892245	-1.3170808787	-0.2081904963	 0.103746
H	-5.4121080917	-4.0993907339	-0.5177609592	 0.104141
H	-4.7286336886	-3.166480664	-1.8629061194	 0.106419
H	-2.6376008338	-4.5218595431	-1.5490914601	 0.102353
H	-3.1448348121	-4.9323872936	 0.1053904365	 0.113836
