19
gdb 33216	5.34642	0.65843	0.63888	2.3018	78.38	-0.2163	0.0333	0.2497	1755.7207	0.16085	-419.244477	-419.235385	-419.23444	-419.279997	32.651	
O	 0.1735320887	 1.3440426289	-0.4031955937	-0.418759
C	 0.0668801841	-0.0105004201	 0.0018774265	-0.057202
C	-1.3534323139	-0.560795841	-0.130231239	-0.192795
C	-1.4480799826	-2.0516486745	 0.2488160064	-0.317118
C	-2.8418187152	-2.5887433352	 0.1835794734	 0.346601
N	-3.6963814587	-2.6414670067	 1.1838418969	-0.298181
C	-4.858913363	-3.1587005828	 0.6588686455	-0.087753
C	-4.7101718519	-3.4230284153	-0.6750448412	-0.11368
N	-3.4146175775	-3.0530983879	-0.9688676221	-0.274577
H	-0.3762674315	 1.8705580462	 0.1859774223	 0.282051
H	 0.7485982324	-0.5671995476	-0.6517958339	 0.107925
H	 0.42724321	-0.1517392697	 1.0341679982	 0.090211
H	-2.03121893	 0.009286443	 0.5182685092	 0.108981
H	-1.6975871953	-0.4054728301	-1.1596493637	 0.100792
H	-0.7874603714	-2.6388941956	-0.4026749521	 0.099949
H	-1.0928204105	-2.1926837407	 1.2740696064	 0.133116
H	-5.7324194853	-3.3154963473	 1.2732893881	 0.104122
H	-5.3708083108	-3.8321700475	-1.4209919802	 0.124329
H	-2.9700867775	-3.1206274163	-1.8689757471	 0.261987
