20
gdb 111363	2.01343	1.66854	1.09472	2.0368	84.66	-0.2298	0.0491	0.2789	1181.0162	0.170134	-365.933537	-365.924527	-365.923582	-365.967116	34.545	
C	 0.0975725666	 1.5195636942	-0.0731855333	-0.388014
C	 0.0132972809	-0.0033532809	-0.2189325448	-0.19195
C	-1.3893460206	-0.5525597289	 0.0056353359	 0.015415
C	-1.6054970351	-2.0666617009	-0.1163437779	-0.078047
N	-0.8041470315	-2.700423584	 0.9586872253	-0.323147
C	-2.1482328141	-2.1651904731	 1.2617872791	-0.05599
C	-1.9849590598	-0.6497839665	 1.4902201451	-0.217112
C	-1.1901250686	-0.2212086368	 2.6240658467	 0.37004
C	-0.5453931153	 0.1381111366	 3.5739523641	-0.477409
H	 1.1170260428	 1.8753568031	-0.2523034043	 0.109261
H	-0.5608674859	 2.0254121111	-0.7892710765	 0.103866
H	-0.1934471745	 1.834903716	 0.932982907	 0.130428
H	 0.335071075	-0.294534585	-1.2281605729	 0.08696
H	 0.699298066	-0.4917011436	 0.4792225119	 0.127444
H	-2.1125989633	-0.0146291262	-0.6162735502	 0.073466
H	-1.8731064798	-2.6202891608	-1.0082476007	 0.09248
H	-0.9019218872	-3.7097013778	 0.8538559257	 0.229798
H	-2.9248084118	-2.7982495392	 1.6725330019	 0.097546
H	-2.9632543929	-0.1607783668	 1.51732953	 0.102429
H	 0.0310112292	 0.4445255396	 4.4112378079	 0.192536
