17
gdb 70969	3.81807	1.32351	1.15501	1.7785	79.85	-0.2332	0.0191	0.2523	1093.1837	0.134016	-384.594767	-384.586858	-384.585914	-384.62676	31.431	
C	 0.0086514037	 1.4012248354	-0.0966453614	-0.507117
C	-0.0117002989	-0.0843387877	 0.0082155027	 0.482095
O	 0.9157607127	-0.8464321975	-0.774872957	-0.360954
C	 0.1212634568	-2.0275895877	-0.4338050789	 0.350082
C	 0.4290841431	-2.2237978874	 1.0830121245	-0.272349
C	-0.3237827849	-0.9107694181	 1.2736430565	-0.178846
C	-1.1001325248	-1.1006131789	-0.028996781	-0.257373
C	 0.152463848	-3.0935023883	-1.3885598043	 0.063901
C	 0.1583151666	-4.0067520629	-2.1702170397	-0.323208
H	 0.9668324727	 1.800231206	 0.2526296372	 0.135588
H	-0.1405683066	 1.7213052256	-1.1323436292	 0.134849
H	-0.7852983645	 1.8351251059	 0.5184345258	 0.126903
H	-0.1221056108	-3.0725542914	 1.4937357492	 0.113793
H	 1.4897368699	-2.2809439886	 1.3443043429	 0.106479
H	-0.6720964531	-0.45906535	 2.1935315336	 0.09392
H	-2.1496093612	-1.0904791577	-0.2881829805	 0.10525
H	 0.1704550212	-4.8091506267	-2.8659126703	 0.186986
