19
gdb 95553	2.42392	1.64321	1.21911	0.7023	75.8	-0.24	-0.0021	0.2379	1069.5262	0.160666	-423.006674	-422.998673	-422.997729	-423.038966	31.528	
O	 0.1602385352	 1.4084666818	-0.1333432746	-0.430556
C	 0.058450551	-0.0087932323	-0.0284141936	 0.089886
C	 0.6640557509	-0.4885223569	 1.3029055854	-0.207145
C	 0.5409126068	-1.9973879723	 1.6600128296	-0.266608
C	 0.3786465067	-2.9552370919	 0.5017769602	-0.09881
C	-0.6171328233	-2.9264533145	-0.3879213291	-0.036287
C	-1.6862644081	-1.9013062425	-0.4649890882	 0.012644
O	-2.0692273905	-1.184331163	 0.7238406972	-0.255939
C	-1.3705358414	-0.4663047962	-0.2935536867	-0.004972
H	-0.3051396771	 1.7908843609	 0.6191005607	 0.278318
H	 0.6762126882	-0.3827227182	-0.8537793498	 0.102513
H	 1.7173870774	-0.1914207971	 1.2782049426	 0.10964
H	 0.1994061307	 0.0903421779	 2.1110491004	 0.093819
H	 1.4223754404	-2.2851365914	 2.2404585382	 0.096709
H	-0.3213050006	-2.1214788195	 2.3194858622	 0.13933
H	 1.1108959424	-3.7539477929	 0.4163183878	 0.095107
H	-0.6571149373	-3.6834310567	-1.1669691693	 0.088926
H	-2.5316627421	-2.1548741847	-1.1034346854	 0.095544
H	-1.9717991091	 0.2679185895	-0.8314426977	 0.097882
