21
gdb 83702	2.63841	1.5727	1.15412	1.5769	84.43	-0.2321	0.0239	0.256	1139.5915	0.183245	-387.094938	-387.086398	-387.085453	-387.127856	32.988	
C	-0.6478925438	 1.3731912072	 0.1575420482	-0.395469
C	-0.0461970746	-0.0296997435	-0.0036692703	-0.100835
C	 0.8307025924	-0.177028219	-1.2632713771	 0.113141
O	 1.5733563641	 1.0188818878	-1.6067076232	-0.291702
C	 2.8382440912	 0.3442437456	-1.4416681833	-0.073534
C	 2.1380449496	-0.9041478139	-0.8539599116	-0.120407
C	 2.0459241015	-0.9514536418	 0.6436454353	-0.196773
C	 0.894520873	-0.4639850725	 1.1166590128	 0.334068
C	 0.4964171211	-0.3648907985	 2.5562032929	-0.495008
H	 0.1407922515	 2.1282823793	 0.1835873432	 0.134381
H	-1.310698457	 1.6097058242	-0.6808595236	 0.115518
H	-1.2370101131	 1.4445487481	 1.0767527907	 0.108483
H	-0.8782640138	-0.749149406	-0.0637961034	 0.071743
H	 0.2801863615	-0.5536269029	-2.1329648061	 0.065894
H	 3.3354029152	 0.1782915764	-2.4070254508	 0.092772
H	 3.5141562416	 0.8902014272	-0.7733126436	 0.099915
H	 2.388096766	-1.8587579237	-1.3236015306	 0.076704
H	 2.8505594052	-1.3330182318	 1.2647661016	 0.084004
H	 1.2640151957	-0.7801382763	 3.2147896979	 0.121953
H	 0.3224992326	 0.6762873332	 2.8536090486	 0.131929
H	-0.44228959	-0.9022673893	 2.7448697926	 0.123224
