20
gdb 107258	2.82599	1.54786	1.16727	1.7831	78.96	-0.2048	0.0808	0.2856	1116.8128	0.169102	-403.047578	-403.038748	-403.037804	-403.080839	34.036	
C	-0.8641846264	 1.8675794641	-1.827570299	-0.258298
O	-1.0101053188	 1.3237214803	-0.5337020916	-0.274693
C	-1.7991954081	 0.1971658568	-0.4304409455	 0.396212
C	-1.9342916704	-0.9300943967	-1.4072821593	-0.387552
C	-3.1778046009	-0.1952269817	-0.9105185889	-0.101344
N	-3.6575183654	-0.4891640172	 0.4971977732	-0.171055
C	-2.8126864983	-1.5353164753	 1.1200615588	-0.293589
C	-2.2760059072	-0.1620398425	 0.9983801741	 0.253567
C	-2.0488414517	 0.7727650866	 2.1493642936	-0.473542
H	-0.3065770002	 2.799481923	-1.7143835855	 0.133009
H	-0.3027444681	 1.1977322272	-2.4935478038	 0.116114
H	-1.8386775988	 2.0880588124	-2.2866457126	 0.114814
H	-1.7121910484	-0.6482291057	-2.4327543162	 0.116639
H	-1.6912428146	-1.9671925808	-1.1968420766	 0.112234
H	-3.895802016	 0.2403539289	-1.5934348755	 0.104333
H	-3.1867614653	-1.824160649	 2.0988873521	 0.119031
H	-2.4387236707	-2.3668766889	 0.5351486145	 0.11659
H	-1.0259815462	 0.6824119273	 2.5315935746	 0.122754
H	-2.2011345791	 1.8113901621	 1.8434202186	 0.131727
H	-2.7436914255	 0.542542719	 2.9618424051	 0.123049
