17
gdb 32230	2.67575	1.52552	0.97988	1.9563	81.25	-0.1909	-0.001	0.1899	1171.9869	0.13832	-418.075154	-418.067061	-418.066116	-418.107682	31.	
C	-0.160156441	 1.4557693505	 0.0213636102	-0.324668
N	 0.164084435	 0.0475017913	 0.0712951535	-0.374365
C	 0.6882525107	-0.6087582826	-1.0247741778	 0.244904
C	 1.2441067503	 0.0126872554	-2.1395764848	-0.182611
C	 1.7864993882	-0.766141231	-3.1687045963	-0.119164
C	 1.7467723317	-2.1428365945	-3.0629502819	-0.035834
N	 1.2008743795	-2.7655163871	-2.0007061907	-0.357891
C	 0.7022750794	-2.025950351	-1.0389666372	 0.373323
O	 0.1410017496	-2.6485842501	 0.0335966777	-0.439665
H	 0.7481061564	 2.0606314039	-0.0851022327	 0.132907
H	-0.8375240769	 1.7174298364	-0.8072050249	 0.116844
H	-0.6370898668	 1.7419856082	 0.9609819384	 0.128461
H	-0.4278061753	-0.5291854526	 0.6471431394	 0.254028
H	 1.2596388503	 1.0938213693	-2.2089780508	 0.095985
H	 2.2265831461	-0.2938058552	-4.0393975711	 0.090751
H	 2.1529567482	-2.7849431131	-3.8379679689	 0.1007
H	 0.2179961845	-3.595884028	-0.1432053022	 0.296295
