14
gdb 34185	4.56521	1.51262	1.36013	4.9966	68.46	-0.2608	0.0098	0.2706	906.5661	0.102425	-399.496482	-399.490411	-399.489467	-399.526869	24.797	
N	 0.0713941675	-1.0522428137	-0.0133353976	-0.335374
C	 0.014132467	 0.1024477539	-0.0193696256	 0.207746
C	-0.0165308641	 1.5325266564	 0.003413959	 0.354356
O	-1.0382335282	 2.1431362835	-0.7271932548	-0.265174
C	-0.7672038346	 3.4950845086	-0.4854884071	 0.049879
C	-0.1898624617	 3.7283075705	 0.8958975385	-0.131642
C	 0.715988472	 3.7677167537	-0.3379608687	-0.131598
C	 1.2635499211	 2.3773308039	 0.0289749035	-0.164739
C	 0.3673908987	 2.338630794	 1.2507364383	-0.164692
H	-1.4518411104	 4.1793112055	-0.966348048	 0.123667
H	-0.497707589	 4.5046214219	 1.5809585463	 0.109181
H	 1.2531872075	 4.5808000283	-0.8038464984	 0.109181
H	 2.2513302627	 1.9756106899	-0.1430783379	 0.1196
H	 0.5127285815	 1.9005314137	 2.2272759723	 0.119608
