19
gdb 38592	3.13416	2.11708	1.82269	1.7964	76.36	-0.2318	0.0935	0.3253	836.1784	0.164415	-385.875381	-385.869816	-385.868871	-385.904896	25.286	
C	-0.0506269299	 1.577609457	-0.05399176	-0.2392
C	 1.5005256568	 1.4225006745	-0.0485497838	-0.073667
C	 1.2798050039	 0.1841748652	 0.9065966594	-0.014677
C	 2.1422245058	-1.0541133472	 0.6622033983	-0.245335
C	 2.0222995373	-1.1940284054	-0.8574412289	 0.089641
O	 2.8393053745	-0.1565217238	-1.4618850904	-0.315569
C	 1.7118628959	 0.737896459	-1.4113641061	 0.130423
C	 0.7018494997	-0.4278919504	-1.220414077	-0.084406
C	-0.0209950461	 0.0286049647	 0.0645102214	-0.04701
H	-0.429350941	 2.0594273597	 0.8505280379	 0.099729
H	-0.518605742	 2.0260087833	-0.9363001071	 0.091327
H	 2.1685058074	 2.2429074568	 0.2134567116	 0.063883
H	 1.1267492634	 0.4767622126	 1.9463070771	 0.066753
H	 3.189901065	-0.9501025158	 0.9572795997	 0.108227
H	 1.7140002326	-1.9174937002	 1.1874253368	 0.091702
H	 2.2381574929	-2.1795638636	-1.2756396847	 0.070877
H	 1.6707950162	 1.4086972774	-2.2732126099	 0.0758
H	 0.1184718506	-0.7704121009	-2.072078057	 0.071398
H	-0.874823233	-0.5514094828	 0.4158449027	 0.060105
