23
gdb 84874	2.1163	1.66691	1.20468	1.6577	86.08	-0.2413	0.0149	0.2563	1156.8373	0.206025	-388.313852	-388.304537	-388.303592	-388.346847	37.388	
C	-0.1351068868	 1.5678793798	 0.0783450603	-0.439573
C	-0.0252015234	 0.0325500293	 0.014384765	 0.258171
C	-1.4379093992	-0.5705914581	 0.0080434653	-0.432258
C	 0.7404817009	-0.4092692572	-1.2521500641	-0.222491
C	 2.1795328094	 0.125299564	-1.3150588688	-0.276175
C	 2.8784006805	 0.0131586731	 0.0125538004	-0.044535
C	 2.2401815306	-0.2784821485	 1.1449969487	-0.10774
C	 0.7523271948	-0.5130985794	 1.2443630079	 0.093079
O	 0.2411945999	-0.0192771346	 2.4838096573	-0.449156
H	 0.8416092445	 2.0501000839	 0.184211696	 0.114045
H	-0.60219905	 1.9549552156	-0.8334652266	 0.111066
H	-0.7602832492	 1.8773686931	 0.9214284878	 0.115157
H	-2.0419324493	-0.1530963296	-0.8050685822	 0.102798
H	-1.4029608059	-1.6577056102	-0.1260893433	 0.105134
H	-1.9452709447	-0.3643712056	 0.9548434312	 0.127157
H	 0.7710282973	-1.5066092975	-1.2723218226	 0.096289
H	 0.1828599137	-0.0997262263	-2.1442970516	 0.090214
H	 2.7468104643	-0.419793768	-2.0803155204	 0.104223
H	 2.1918418106	 1.1746033604	-1.6446559677	 0.110349
H	 3.9530633823	 0.1822158735	 0.0255332876	 0.086835
H	 2.7820904382	-0.366173832	 2.0842304937	 0.089505
H	 0.5672738995	-1.5951490529	 1.3040560082	 0.089534
H	 0.5292360722	 0.8956758875	 2.570855688	 0.278372
