20
gdb 92232	2.72637	1.76628	1.35763	2.5906	77.16	-0.2162	0.0647	0.2808	1001.1833	0.173208	-403.107504	-403.099966	-403.099022	-403.139142	30.769	
O	 0.0803065777	 1.4179140123	-0.1834087601	-0.421314
C	 0.0428943781	 0.0174979836	-0.0454145711	 0.135921
C	 0.4008846999	-0.6277761089	 1.3274451048	-0.298703
C	-0.9042377672	-1.4769244099	 1.2441702028	-0.001341
C	-1.9914153308	-1.3277968346	 2.3262757946	-0.259357
C	-2.896985109	-0.2033166511	 1.8294179388	-0.012186
C	-2.3020544311	 1.131620261	 1.589853913	-0.237694
N	-2.5162147408	 0.2165730329	 0.4572422273	-0.096359
C	-1.3795740049	-0.6100258253	 0.0298469517	-0.029273
H	 1.0007008697	 1.6854262892	-0.2697130107	 0.284022
H	 0.6071009145	-0.4681638535	-0.8544966011	 0.069654
H	 1.3393810001	-1.1876913752	 1.3640869893	 0.092272
H	 0.3993428339	 0.0953137658	 2.1476228816	 0.104406
H	-0.7030689067	-2.5238213856	 1.0096985245	 0.071284
H	-2.5712959465	-2.2521910266	 2.415660614	 0.103574
H	-1.5683552706	-1.1179244625	 3.3148912359	 0.105337
H	-3.9633087654	-0.2919827789	 2.0205412319	 0.084987
H	-2.9367059904	 2.0136648189	 1.5624966786	 0.111444
H	-1.2949476916	 1.3304917853	 1.9348432475	 0.11877
H	-1.686504679	-1.1402555967	-0.8753038633	 0.074555
