19
gdb 62234	5.37977	0.5796	0.53786	2.1804	79.55	-0.2599	-0.0313	0.2285	1974.2889	0.154287	-422.98975	-422.978958	-422.978014	-423.027178	36.803	
C	 0.0562858878	 1.5460088197	 0.0393482092	-0.38532
C	-0.0243244389	 0.0084258855	-0.0195923424	-0.167628
C	-1.4801157848	-0.4850113958	-0.037248819	-0.051355
O	-2.10060132	-0.0717071335	 1.1635238341	-0.250611
C	-3.4501813787	-0.4453428386	 1.2582005571	-0.145399
C	-3.9889610116	 0.0521962204	 2.5887099395	 0.139061
O	-5.1232936665	-0.110500035	 2.9500831721	-0.235213
C	 0.6876879194	-0.5269964725	-1.177401565	 0.309844
C	 1.2529042578	-0.9589376418	-2.1463298028	-0.464889
H	 1.095534075	 1.8747858085	 0.1138028018	 0.126829
H	-0.3756294776	 1.9873494269	-0.864168167	 0.123695
H	-0.4962161445	 1.9127705736	 0.9067988759	 0.13175
H	 0.4341836048	-0.3976896244	 0.8920727274	 0.117723
H	-2.0072384793	-0.0676461441	-0.9104421676	 0.101894
H	-1.5055275082	-1.5816527462	-0.1262180669	 0.104899
H	-4.0583348827	-0.0138833364	 0.4452102442	 0.125031
H	-3.5813784441	-1.5398193079	 1.2103420303	 0.124854
H	-3.2310368189	 0.5853703572	 3.2040681282	 0.09673
H	 1.7645240311	-1.3431801456	-2.9938578091	 0.198105
