18
gdb 81630	4.40051	0.93143	0.84669	2.535	74.59	-0.2509	0.0257	0.2767	1349.7577	0.14807	-439.049441	-439.041046	-439.040102	-439.084399	31.475	
O	 0.0289734751	 1.5126254256	-0.2307296682	-0.450121
C	 0.0231253565	 0.1274364861	-0.0499783585	 0.189198
C	 0.0890383253	-0.5222122469	 1.3741888255	-0.130839
C	-1.41060921	-0.1284073663	 1.5402194212	-0.251169
C	-1.3099629026	-0.6842927818	 0.0867805981	-0.130954
C	-0.4542396945	-1.8283551662	 0.7148880485	 0.112241
N	 0.3923189844	-2.6610045597	-0.1004681763	-0.327941
C	 0.4306959209	-4.0181751919	 0.0308162627	 0.149397
O	-0.218539969	-4.6686523407	 0.8207390091	-0.319478
H	-0.5859118353	 1.9222262539	 0.385728632	 0.285502
H	 0.7421185866	-0.2414358149	-0.7847683949	 0.063967
H	 0.8848823007	-0.4382841575	 2.1150131621	 0.081733
H	-1.9949264323	-0.7190418415	 2.2495299543	 0.109642
H	-1.6436230124	 0.932018467	 1.6599218568	 0.085211
H	-2.1131527773	-0.7855759835	-0.6438821813	 0.081714
H	-0.9950810516	-2.4928867003	 1.3864020462	 0.123455
H	 0.9874525915	-2.2507815273	-0.8007950748	 0.25332
H	 1.1422837639	-4.4747347343	-0.6857028327	 0.075123
