20
gdb 65639	3.0649	1.33289	1.18468	3.2468	79.34	-0.2187	-0.0164	0.2023	1126.0861	0.170112	-403.114974	-403.106305	-403.105361	-403.148753	32.763	
C	 0.1846893299	 1.5706437728	 0.0574425606	-0.47424
C	 0.0276862591	 0.0560728613	 0.0248915497	 0.246468
C	 0.8154532774	-0.7528913682	-1.0374404026	-0.322882
C	 1.392900626	-1.5749264493	 0.132890931	 0.052523
C	 2.7363736035	-1.1067530541	 0.7384850154	-0.24603
C	 1.9009264123	-0.270644542	 1.7459463595	-0.172894
N	 0.6130869432	-0.7601335519	 1.1561094619	-0.184436
C	-1.4570515031	-0.286928778	 0.068249594	 0.147033
O	-2.0740716292	-0.8412317332	-0.8033184469	-0.257386
H	 1.2348617661	 1.8716539716	 0.0176750501	 0.127212
H	-0.3172738954	 2.0107142672	-0.8108959873	 0.136687
H	-0.262374977	 1.9985515141	 0.9618478874	 0.12923
H	 0.1708195259	-1.2962650687	-1.7303982861	 0.130418
H	 1.5538829176	-0.1783797509	-1.6029906923	 0.098377
H	 1.2076573212	-2.6519437255	 0.1167454167	 0.082275
H	 3.3350208208	-1.8987113361	 1.1931294698	 0.110043
H	 3.3741953332	-0.5367481672	 0.0572678996	 0.103012
H	 1.9933499126	-0.5935635112	 2.7870168498	 0.111249
H	 2.0437203299	 0.8128745893	 1.7184585478	 0.103521
H	-1.9315884138	 0.0043321299	 1.0321733117	 0.079818
