18
gdb 24607	4.67663	1.03835	0.93549	1.9658	78.59	-0.2024	0.0447	0.2472	1267.3557	0.150012	-401.962074	-401.954255	-401.95331	-401.995439	29.423	
C	 0.0382803519	 1.386029956	-0.2476425255	-0.062597
C	 1.5045776453	 1.5125466934	 0.1992754579	-0.279628
C	 1.3158892445	 0.0584484501	 0.7221131873	 0.025921
O	 0.0095537715	-0.0161946153	 0.091234742	-0.288878
C	 2.2404795576	-1.0125707562	 0.2610281165	 0.274422
C	 2.0851428105	-1.7680169024	-0.8805080909	-0.169759
N	 3.1491591685	-2.6290439736	-0.9629091017	-0.240636
C	 3.9868696465	-2.4396257263	 0.1067359962	-0.066948
C	 3.4485664187	-1.4443995418	 0.8870369706	-0.271955
H	-0.6761873904	 1.9640791078	 0.3539279665	 0.0959
H	-0.1769137795	 1.5551983045	-1.3089136799	 0.101037
H	 2.2199269571	 1.5797973792	-0.6214593459	 0.11147
H	 1.7296804795	 2.2744034043	 0.9472868273	 0.103856
H	 1.216030914	 0.0281147924	 1.8174507616	 0.071971
H	 1.2915298772	-1.7713466331	-1.6082261409	 0.128763
H	 3.2779293435	-3.3178027826	-1.6827281313	 0.26052
H	 4.8839279424	-3.026311194	 0.2226504164	 0.117564
H	 3.8699975711	-1.0625147626	 1.8048793738	 0.088977
