18
gdb 16569	2.93934	2.6176	2.15721	1.8867	65.54	-0.2533	0.0768	0.3301	742.46	0.157919	-384.953126	-384.947112	-384.946168	-384.982857	25.198	
C	-0.0330427309	 1.5589270925	-0.0436171669	-0.240889
C	 1.4586469729	 2.0093167026	-0.0546374948	-0.24089
C	 2.2583204651	 0.6869907321	 0.032784645	 0.119175
C	 1.3406959957	-0.3111116454	-0.6887563401	-0.223115
C	 0.0339198938	 0.0153715623	 0.0492186781	 0.119175
O	 0.1659104441	-0.4494699776	 1.3993003151	-0.268871
C	 1.2103108417	 0.1888174885	 2.0937967598	 0.019739
O	 2.4239177419	 0.2322952477	 1.3826162316	-0.268871
H	-0.607692394	 1.9810833054	 0.7846368861	 0.112374
H	-0.5411706828	 1.8428427148	-0.9696535979	 0.10296
H	 1.7121691127	 2.5231970293	-0.9863021667	 0.10296
H	 1.7148226021	 2.6823285743	 0.7674769043	 0.112373
H	 3.2682724069	 0.7650664435	-0.3730921194	 0.07685
H	 1.2641216127	-0.0836616574	-1.7580300137	 0.092322
H	 1.6546016038	-1.3474630068	-0.5537740817	 0.109708
H	-0.8558849366	-0.4801527023	-0.3426199936	 0.07685
H	 0.9040267149	 1.2102028016	 2.3785793072	 0.080335
H	 1.393662846	-0.3963155352	 2.9980835076	 0.117815
