17
gdb 38791	2.75268	2.39599	1.9887	2.9157	68.98	-0.2369	0.053	0.29	783.6777	0.1394	-421.778276	-421.772753	-421.771809	-421.807835	24.285	
C	 0.0055290385	 1.5197581052	 0.0797796873	-0.233949
C	 1.4740759487	 1.9354363737	-0.018440545	 0.093503
O	 2.225232808	 1.5724175944	 1.1750427629	-0.290482
C	 2.7931032395	 0.4353217943	 0.5185800734	 0.087492
C	 1.845638464	-0.8376722046	 0.5220889036	 0.087492
O	 0.5951270913	-0.6177578926	 1.1810800128	-0.290482
C	 0.0286245702	-0.0066453978	-0.0130885719	 0.093504
C	 1.2807833561	-0.3993900823	-0.8530260267	-0.116009
C	 2.2074986949	 0.8457274845	-0.8564584653	-0.11601
H	-0.4575184888	 1.8669543509	 1.0077519052	 0.124945
H	-0.5555219816	 1.9349981312	-0.7678646877	 0.097732
H	 1.6270454289	 2.9893466899	-0.2672022264	 0.079132
H	 3.8500334719	 0.2850714833	 0.7513543858	 0.074603
H	 2.2935655685	-1.8061679536	 0.7571160925	 0.074603
H	-0.9376775452	-0.4565682043	-0.257707843	 0.079132
H	 1.1845377913	-1.0427962096	-1.724363649	 0.077398
H	 2.7939018639	 1.1195076473	-1.7303231684	 0.077398
