19
gdb 91472	2.60774	1.68562	1.25592	4.3218	80.01	-0.225	0.024	0.2489	1043.052	0.161269	-382.056615	-382.048817	-382.047873	-382.088579	30.925	
C	 0.0527629837	 1.451951061	-0.0726640032	-0.346746
N	-0.0108157184	 0.0066985834	 0.0813527973	-0.099697
C	-1.3788271353	-0.5398668625	 0.3277638294	-0.168455
C	-1.104970004	-1.4001998941	 1.5725634533	-0.066883
C	-0.2895241385	-0.4063223002	 2.4534823438	-0.269612
C	 0.708111728	-0.5501418845	 1.2537834972	 0.241331
C	 0.2633244203	-2.0403660211	 1.1935451772	-0.251258
C	 2.1014383225	-0.1662256167	 1.3525725691	 0.187348
N	 3.2125424777	 0.1337134517	 1.4603059952	-0.351939
H	 1.0925590964	 1.7610085716	-0.2116187079	 0.146057
H	-0.5041007849	 1.7348583055	-0.9707481684	 0.12762
H	-0.3662981273	 2.0193860161	 0.7776946137	 0.096887
H	-2.1048543996	 0.2571353278	 0.5317132473	 0.099898
H	-1.7323055143	-1.1203248689	-0.5309638466	 0.109943
H	-1.9295253232	-1.9877272387	 1.9722664774	 0.081079
H	-0.7036760439	 0.5851558738	 2.6489536596	 0.109329
H	 0.0859205716	-0.8552309762	 3.3737328591	 0.119523
H	 0.6942984631	-2.6413078271	 1.9946064833	 0.118317
H	 0.3642775059	-2.5295945208	 0.2234100433	 0.117256
