16
gdb 45495	2.96176	1.85367	1.65941	5.2455	66.41	-0.2686	0.0099	0.2784	865.2492	0.127677	-437.916077	-437.909836	-437.908892	-437.946738	25.228	
O	-0.0248656452	-0.0292024481	-0.1157457646	-0.340811
C	-0.0088936212	 1.1572605182	-0.0081580335	 0.451899
O	-1.1389563445	 1.9219990703	 0.0604645852	-0.239834
C	-0.7892323807	 3.2571998935	 0.4843383745	 0.059072
C	-0.8478608261	 3.3090204147	 2.0149113378	-0.209591
C	 0.4336572523	 2.5531159622	 2.4612047729	-0.255011
C	 1.404943092	 2.7293599544	 1.2934276012	-0.033531
C	 0.7066558548	 3.3690817101	 0.1498425041	-0.066663
N	 1.1609119248	 1.9850895096	 0.0167789479	-0.185665
H	-1.4454831292	 3.9557841703	-0.0333919556	 0.102267
H	-0.7965461671	 4.3550091841	 2.3371725831	 0.111363
H	-1.7730245005	 2.8759020324	 2.4024404762	 0.124194
H	 0.8600139775	 2.9751735335	 3.3744468911	 0.114428
H	 0.2363941193	 1.4951557803	 2.6625968325	 0.141242
H	 2.4603496651	 2.8800795734	 1.4913764725	 0.115627
H	 1.1141137087	 4.1167316411	-0.5205095352	 0.111013
