19
gdb 52262	4.73189	0.74434	0.70612	2.9213	77.83	-0.2466	-0.0268	0.2198	1601.472	0.157545	-423.032858	-423.02377	-423.022825	-423.06848	32.139	
O	-0.2089184042	 0.1332639046	 0.4728480947	-0.238633
C	-0.001026993	 1.153609078	-0.1275369998	 0.140327
C	 1.3738253555	 1.786675581	-0.2629775035	-0.154596
O	 1.2517648833	 2.9195725586	-1.0803897254	-0.261915
C	 2.4417891777	 3.6907818756	-1.219290785	 0.136181
C	 3.4362045738	 3.0504412998	-2.230130755	-0.27524
C	 3.2305341219	 3.8535343614	-3.4908607391	-0.054201
C	 2.4760314951	 4.9299527874	-3.2829391576	-0.054849
C	 2.033916163	 5.0451247302	-1.8459797075	-0.275692
H	-0.8065641132	 1.7284252018	-0.6352784734	 0.096628
H	 1.7399312798	 2.0459090567	 0.7462119055	 0.119598
H	 2.0664602539	 1.0312806592	-0.667657897	 0.122069
H	 2.8958233443	 3.8158827071	-0.2263963563	 0.066072
H	 4.4728202157	 3.1226977065	-1.8742264245	 0.107802
H	 3.2302893437	 1.9824952417	-2.3658088362	 0.110511
H	 3.6742190351	 3.5705307009	-4.4387609926	 0.093829
H	 2.210310237	 5.6653280796	-4.0338234825	 0.093785
H	 0.955219107	 5.1930720269	-1.7294085269	 0.120751
H	 2.5271755734	 5.8855336928	-1.3403847379	 0.107574
