23
gdb 87854	2.86844	1.34793	1.20391	0.0732	88.72	-0.2525	0.0942	0.3467	1175.9156	0.207406	-351.150515	-351.142103	-351.141159	-351.183129	34.188	
C	-0.2861691028	 1.438530754	 0.6725119595	-0.413955
C	-0.1026791048	-0.0429527894	 0.428631317	-0.021005
C	 1.030088452	-0.5499002799	-0.431977514	-0.374152
C	 1.0210644977	-0.8597199261	 1.0418075498	 0.352164
C	 2.0371806545	-0.2553787667	 2.0165799798	-0.299271
C	 1.7732203689	-0.9719207365	 3.3346361888	-0.022263
C	 0.3393780418	-1.0762058867	 3.7952369426	-0.291243
C	 0.968988424	-2.2212987403	 3.0397285485	-0.022637
C	 0.7356342059	-2.2828644602	 1.5370324627	-0.289101
H	 0.6703293123	 1.9692111101	 0.6975360526	 0.117032
H	-0.8855461095	 1.8885028282	-0.1268442858	 0.115615
H	-0.7987992724	 1.6346414958	 1.6217191227	 0.115587
H	-1.0403269826	-0.5856706229	 0.3245818372	 0.077723
H	 0.8398566573	-1.3591697634	-1.1306568025	 0.103502
H	 1.7493140738	 0.1815634857	-0.7907722732	 0.103169
H	 3.0601560577	-0.474957317	 1.6833134446	 0.095572
H	 1.9541915123	 0.833116947	 2.0967683597	 0.096408
H	 2.5551447453	-0.9726793013	 4.0860959818	 0.075799
H	 0.1717148036	-1.2188843087	 4.857396369	 0.103477
H	-0.4185997253	-0.4736444387	 3.3048496047	 0.114446
H	 1.1570560211	-3.1471112172	 3.5720858582	 0.076016
H	-0.2706738352	-2.6210265172	 1.2633936219	 0.092432
H	 1.4459849748	-2.9920011487	 1.0905728445	 0.094685
