16
gdb 66884	2.7143	1.98723	1.40779	2.6351	73.09	-0.2212	-0.0301	0.191	928.0417	0.124684	-400.731074	-400.723806	-400.722862	-400.762646	28.266	
C	 0.0532917036	 1.5474444628	-0.0009636942	-0.497438
C	-0.0419364851	 0.053941354	 0.0111209866	 0.169909
C	 0.0886715927	-0.7951176414	 1.2558048351	-0.101578
C	-0.6443393435	-2.0962216466	 1.3631393191	-0.089609
C	-0.3843115425	-2.8112416891	 0.2695756586	-0.083939
C	 0.4501019497	-1.9594990473	-0.6531568302	-0.18891
N	 1.1439805124	-0.9210102652	 0.2408304099	-0.156838
C	-0.4149269008	-0.781207163	-1.1713195967	 0.404717
O	-0.908834117	-0.5126547157	-2.2296132178	-0.32226
H	 0.7327226491	 1.8997172144	 0.78015779	 0.134254
H	 0.4144192912	 1.9056021551	-0.9695749707	 0.143886
H	-0.9313583681	 1.992255844	 0.1773636029	 0.138925
H	 0.3690439867	-0.245761118	 2.1516551686	 0.101657
H	-1.273577914	-2.3647841774	 2.2003843312	 0.117821
H	-0.7885293045	-3.7761386083	-0.0043826046	 0.124587
H	 1.0985019601	-2.4524056684	-1.375645078	 0.104815
