15
gdb 29893	3.34505	1.4653	1.02548	3.9127	72.37	-0.2432	-0.0391	0.2041	1094.7784	0.115515	-450.206079	-450.198195	-450.197251	-450.239073	28.508	
C	-0.017690555	 1.4657570804	 0.0022071913	-0.334624
N	-0.0008693183	 0.0072730601	-0.0104604698	-0.14516
C	-0.1285358242	-0.7236414698	-1.161805253	 0.105934
N	-0.1244636006	-2.0025672457	-1.261835301	-0.327732
C	 0.0241298785	-2.7501607755	-0.0894052118	 0.418321
N	 0.0485965903	-4.0191504303	-0.0165268383	-0.544541
N	 0.1563039129	-2.0138271343	 1.1003708772	-0.397265
C	 0.1538087983	-0.6507286163	 1.2225989139	 0.511654
O	 0.2700486202	-0.0466151441	 2.264622568	-0.394769
H	 0.9169516479	 1.8538751807	 0.4129038384	 0.161625
H	-0.1424729225	 1.8208788873	-1.0218168866	 0.137738
H	-0.8409539701	 1.8319490181	 0.6194884239	 0.161548
H	-0.2431474484	-0.1245139593	-2.0637291965	 0.136784
H	-0.058027995	-4.4024467192	-0.9542395156	 0.230742
H	 0.2644539159	-2.540773652	 1.9554940499	 0.279744
