17
gdb 123788	5.42218	0.93374	0.83224	5.7092	75.08	-0.2136	0.0167	0.2303	1349.3922	0.138144	-414.159898	-414.152004	-414.15106	-414.193123	29.601	
C	-0.3331787216	 1.082481461	-0.3061812893	-0.245279
C	 1.0632305703	 1.1620485596	 0.257712545	-0.287943
C	 0.3991337007	-0.1752695369	 0.0849040254	 0.031095
N	-0.0281265932	-0.8540892345	 1.2779784304	-0.406948
C	-1.0806657782	-1.7464022986	 1.1621828756	 0.412427
C	-1.9960876387	-2.0000045499	 0.1592931508	-0.138843
N	-2.8694106652	-2.9517182372	 0.5997096351	-0.182343
N	-2.5608451035	-3.3123001554	 1.8034432317	-0.127164
N	-1.4666946469	-2.5777605717	 2.1612277596	-0.276902
H	-1.1495233707	 1.3926025751	 0.3347761342	 0.132498
H	-0.4796575202	 1.2757412574	-1.3624926762	 0.122181
H	 1.8824468385	 1.4108467612	-0.4067768091	 0.121465
H	 1.1693830843	 1.5317263254	 1.2712020817	 0.122358
H	 0.7541332855	-0.8102314494	-0.7274240081	 0.097903
H	 0.741598114	-1.1966404984	 1.8385630634	 0.240075
H	-2.0715936868	-1.560837941	-0.8202877884	 0.115317
H	-1.0810221482	-2.6817458767	 3.0853684582	 0.270102
