17
gdb 5827	2.80322	1.70147	1.39453	3.8194	64.37	-0.2765	0.0118	0.2883	954.9953	0.138777	-401.010403	-401.000896	-400.999952	-401.043906	34.557	
C	-0.0468349213	 1.5533830829	 0.0082776358	-0.434376
C	 0.0098606687	 0.0243601049	 0.0511330667	 0.324027
C	 0.6801704754	-0.4794651229	 1.3289786879	-0.421448
O	-1.2962643516	-0.5412267098	 0.0455746652	-0.444694
C	 0.7602183877	-0.4890656082	-1.2203520675	-0.03666
O	 2.0868008482	-0.0073472091	-1.3324028747	-0.414767
C	 0.7211711914	-1.9623117026	-1.3039962389	 0.270008
N	 0.7565357457	-3.1158659468	-1.3606359064	-0.325131
H	 0.9568199293	 1.9813947267	-0.0424397537	 0.139851
H	-0.5990791791	 1.8965818425	-0.875522017	 0.107086
H	-0.5550716356	 1.9335260156	 0.8981494208	 0.128499
H	 0.1189340306	-0.1285767245	 2.1981695616	 0.134784
H	 0.6962256264	-1.5723455138	 1.3516288626	 0.149668
H	 1.7037136474	-0.1021335626	 1.4107640655	 0.113456
H	-1.8185092577	-0.1048443152	-0.6366834132	 0.283788
H	 0.2324414643	-0.0933396876	-2.0969695865	 0.125073
H	 2.6412099203	-0.4966679095	-0.7144664681	 0.300837
