14
gdb 132873	3.04182	1.36801	0.94495	5.8291	70.49	-0.1949	-0.0357	0.1592	1133.8176	0.1021	-478.027708	-478.020098	-478.019154	-478.059692	29.184	
N	 0.0384289551	 1.4596075765	 0.1544103946	-0.594332
C	-0.0026500303	 0.0557092014	 0.0385878349	 0.241452
C	-1.1594376051	-0.6624891024	 0.0074915379	-0.052881
N	-1.1229691931	-2.0387755417	-0.0084036363	-0.372049
C	 0.0148408038	-2.8414024982	-0.0275602715	 0.33418
O	-0.042095608	-4.0598717921	-0.0565046038	-0.397778
C	 1.2293528774	-2.0314523921	-0.0065496298	 0.145119
F	 2.3693564085	-2.7103307828	-0.0205837918	-0.055123
C	 1.2270097107	-0.6774019422	 0.033733657	-0.244218
H	 0.7506645381	 1.8806029387	-0.4294270754	 0.249271
H	-0.8521999512	 1.8984296171	-0.0409429961	 0.244268
H	-2.1430845727	-0.2108753917	 0.0060862795	 0.119463
H	-1.9884327275	-2.5595196206	-0.0239718224	 0.263645
H	 2.1740281342	-0.1482298397	 0.0701707333	 0.118982
