17
gdb 97876	5.88257	0.57706	0.55058	2.424	86.64	-0.2496	-0.0587	0.1908	2002.7165	0.131778	-384.645001	-384.634529	-384.633584	-384.682733	35.63	
C	-0.4928054468	 1.369000016	 0.3366227416	-0.365779
C	 0.4291490072	 0.2534063144	-0.188699457	-0.315636
C	 1.1541247957	-0.4357638775	 0.8729968108	 0.131689
C	 1.7367183723	-0.9930640585	 1.7663970067	 0.025955
C	 2.4383204241	-1.6757637332	 2.8383392434	-0.47161
C	 1.5867652328	-2.692387081	 3.609910651	 0.252178
O	 0.4272428534	-2.9261096907	 3.3710052682	-0.261396
C	 2.3056052526	-3.3685388633	 4.6791390281	 0.236901
C	 2.9169313669	-3.9174967516	 5.5587832582	-0.401908
H	 0.0828105103	 2.130301668	 0.8701475125	 0.126176
H	-1.0174502636	 1.8516755686	-0.4932645574	 0.114012
H	-1.2367506782	 0.9629100174	 1.0269483564	 0.134393
H	-0.1642896517	-0.4778332451	-0.7521356096	 0.133796
H	 1.146373222	 0.6751609467	-0.9046647413	 0.127842
H	 3.3206877258	-2.2140949016	 2.463310438	 0.159003
H	 2.837041694	-0.9650111685	 3.5765216349	 0.15846
H	 3.4382968732	-4.4141362199	 6.3409851855	 0.215924
