18
gdb 20204	3.2909	2.75613	2.16257	0.3096	74.12	-0.2196	0.0197	0.2392	725.3651	0.158055	-310.674809	-310.669117	-310.668173	-310.704126	24.684	
C	-0.0253230531	 1.5464764565	-0.0243496133	-0.229753
C	 1.465635671	 1.9710463681	 0.0318841533	-0.18773
C	 2.1433925041	 0.836477702	 0.847861233	-0.088598
C	 1.6959961539	 0.9475754862	 2.2988450907	-0.08197
C	 0.6655665413	 0.1376141358	 2.5520869602	-0.077332
C	 0.334725464	-0.6984517376	 1.36072651	-0.082052
C	 0.0121911546	 0.0172356977	 0.0366065843	-0.038473
C	 1.4161223907	-0.4335800242	 0.3400914772	-0.07324
H	-0.5829782309	 1.9734684335	 0.8153437898	 0.103107
H	-0.5119937294	 1.8894571614	-0.9415976385	 0.093606
H	 1.8889337947	 1.9902643784	-0.9794216175	 0.093348
H	 1.6111760472	 2.9633681647	 0.47183022	 0.089601
H	 3.2293714289	 0.8212757288	 0.7205575486	 0.065193
H	 2.0906310678	 1.7002545261	 2.9727118527	 0.089045
H	 0.107526173	 0.092779527	 3.4804008289	 0.089774
H	-0.0848259701	-1.6905395198	 1.4914884834	 0.077871
H	-0.5970736448	-0.5440146647	-0.6637853315	 0.079265
H	 1.9325204172	-1.2157854499	-0.2024678614	 0.078338
