18
gdb 44228	3.64548	1.28306	1.19684	3.7425	76.28	-0.2389	-0.0017	0.2371	1087.2508	0.148357	-401.922348	-401.914812	-401.913868	-401.954495	29.582	
O	-0.0931357871	 0.076366291	-0.4564300864	-0.31367
C	-0.0934960967	 1.2225480113	-0.1172518796	 0.384891
C	-1.1671135414	 2.305339604	 0.1392032323	-0.382837
C	 0.0212121093	 3.2927746606	 0.0929933515	-0.075142
N	 0.9893090047	 2.1319657694	 0.0636498965	-0.135858
C	 1.6287318407	 2.6285114539	-1.2036082213	-0.271135
C	 0.575026165	 3.7518464464	-1.2660881748	 0.35452
C	-0.2031782013	 4.2094285975	-2.4655777685	-0.319596
C	 0.7469964689	 5.1530117907	-1.764770693	-0.332152
H	-1.9101281096	 2.3796502548	-0.6575089924	 0.137154
H	-1.6770224403	 2.238329441	 1.1035680051	 0.135632
H	 0.1236603979	 3.9946709184	 0.9237056731	 0.087459
H	 2.6542156745	 2.9680286022	-1.0321807642	 0.118964
H	 1.6210275843	 1.8844000275	-2.0053541421	 0.13041
H	 0.0831132425	 3.8190087874	-3.4368099437	 0.122554
H	-1.2693743374	 4.3768724706	-2.3492888904	 0.119268
H	 0.3243128699	 5.9596510285	-1.1741374834	 0.119169
H	 1.6789745261	 5.4047005848	-2.2609328086	 0.120369
