21
gdb 76737	1.96006	1.74827	1.12851	1.3565	78.34	-0.2256	0.0671	0.2927	1165.3358	0.179942	-424.195036	-424.18511	-424.184165	-424.228898	37.918	
C	-0.7260044428	 1.4568702231	-0.5394846384	-0.413812
C	-0.2571106469	 0.0282177897	-0.2847152579	-0.054054
C	 1.0703621363	-0.505556638	-0.9726282691	-0.06474
C	 1.8859836875	 0.3988620932	-1.8894107595	-0.409999
C	 1.6182496255	-0.841638173	 0.4189149075	 0.349084
O	 2.4529380189	-1.9039448812	 0.711441252	-0.460688
C	 1.6588142694	 0.3685396433	 1.3092717742	-0.398183
C	 0.337102388	-0.3323660222	 1.0832465241	 0.297285
O	-0.3916907883	-0.9042685656	 2.1123115532	-0.467078
H	 0.0428172796	 2.196082912	-0.2942008053	 0.114001
H	-1.003757117	 1.6039641135	-1.5887395746	 0.115089
H	-1.6088881436	 1.6851445586	 0.0680555099	 0.112439
H	-1.0756492005	-0.6646939447	-0.5054715263	 0.07623
H	 0.8375781976	-1.4362762463	-1.5047131147	 0.063607
H	 2.162086667	 1.3389496823	-1.402326372	 0.114948
H	 2.8135338917	-0.1000041918	-2.1894935098	 0.12164
H	 1.331666781	 0.6467438881	-2.8010650236	 0.112342
H	 1.998549708	-2.7180253832	 0.4662330109	 0.284488
H	 2.094583716	 0.1414798501	 2.2777364952	 0.119689
H	 1.8711711259	 1.3686459433	 0.9385619817	 0.101721
H	-0.6329830234	-0.2149041711	 2.7398838825	 0.285989
