23
gdb 114261	3.99691	1.08226	1.02783	0.3273	91.95	-0.2276	0.0776	0.3052	1301.8747	0.206759	-351.038597	-351.030303	-351.029359	-351.071329	33.623	
C	-0.0381359694	 1.6975687566	 0.1728907974	-0.379666
C	 0.085257644	 0.1705296948	 0.0884318906	-0.199552
C	-1.2803418156	-0.5130186119	 0.0162079289	-0.004173
C	-2.0754682503	-0.4859340729	-1.3729072867	-0.360113
C	-1.8259511106	-2.0066273061	-1.4416250792	 0.307433
C	-2.264810188	-3.5050660058	-1.3977121061	-0.307178
C	-0.9006155236	-3.3878269737	-0.574083289	-0.080036
C	-0.3779309939	-2.5263918952	-1.7354586076	-0.239457
C	-1.5257753034	-2.0907148563	 0.0553952268	-0.041738
H	 0.9466371087	 2.1725650696	 0.2246294475	 0.110787
H	-0.5567984115	 2.1029280039	-0.7027908032	 0.118185
H	-0.6031269406	 2.0008553619	 1.0613239998	 0.113295
H	 0.7063295984	-0.0827909363	-0.7758934733	 0.101556
H	 0.6191079838	-0.2027974452	 0.9715979519	 0.099677
H	-1.891853571	-0.0799288831	 0.8149495998	 0.074974
H	-3.1228361417	-0.2048773183	-1.2323365951	 0.103649
H	-1.6521473337	 0.1169046608	-2.1828680645	 0.097456
H	-3.1649792097	-3.7287576015	-0.8190015395	 0.093849
H	-2.21750332	-4.0994908378	-2.3166196206	 0.088535
H	-0.386598937	-4.220043412	-0.0830918185	 0.064398
H	-0.2400467526	-3.0260070615	-2.6991228367	 0.082831
H	 0.4596259422	-1.8669981674	-1.5187323675	 0.094065
H	-2.3861402944	-2.2979559824	 0.6995505348	 0.061224
