17
gdb 36704	3.74017	1.06406	0.92795	3.4031	72.16	-0.2483	0.004	0.2523	1248.2326	0.136163	-417.951531	-417.94334	-417.942396	-417.985358	29.858	
N	 0.2476717441	-0.0987200643	 1.4233892683	-0.307526
C	 0.1316776564	 0.5828999602	 0.4976836049	 0.263906
C	-0.0136675287	 1.4604477831	-0.6824119011	-0.205187
O	 1.1256248989	 2.23399978	-0.9522188575	-0.239124
C	 1.3747060596	 3.2732838888	-0.017972137	 0.11697
C	 2.213552729	 2.9921670828	 1.2628269383	-0.204102
N	 3.2223120978	 4.043797553	 0.8784194541	-0.124989
C	 3.798470839	 3.5690845142	-0.3870811201	-0.230249
C	 2.4744799413	 4.2221505506	-0.441266815	-0.065301
H	-0.1889819456	 0.8326106236	-1.5611324594	 0.163331
H	-0.9071568714	 2.0867225153	-0.5325326497	 0.14198
H	 0.4358601813	 3.7924672131	 0.214462129	 0.085927
H	 1.7088004483	 3.2623356625	 2.19133384	 0.121852
H	 2.6341526095	 1.9873199244	 1.3524390824	 0.128322
H	 4.6457560405	 4.1617567986	-0.7171575577	 0.126753
H	 3.8864173349	 2.5003498062	-0.5662496337	 0.126406
H	 2.3207611853	 5.1979041578	-0.8889457858	 0.101033
