16
gdb 24661	4.47192	1.16556	0.9899	1.952	78.92	-0.2402	-0.044	0.1962	1171.6424	0.127721	-396.947123	-396.940047	-396.939102	-396.979233	26.756	
C	 1.0931324005	 0.8680282526	-0.1459477971	-0.229435
N	 0.0332911111	 0.1895823259	-0.8936936797	-0.312247
C	-0.256272944	 0.6688357433	 0.4673138388	-0.105932
C	-0.5029266149	-0.3546859255	 1.5176564419	 0.335533
N	-1.0209830642	 0.0852923699	 2.669886491	-0.31045
C	-1.2188855303	-0.8278050704	 3.6219873557	-0.021858
C	-0.9073493703	-2.17048841	 3.4346501773	-0.012236
N	-0.4034544037	-2.621012543	 2.2824700629	-0.235935
C	-0.2073463945	-1.7114954957	 1.3293174155	-0.061966
H	 1.9159043241	 0.2287297401	 0.1620215599	 0.127587
H	 1.3773085698	 1.8800017437	-0.4222385268	 0.122699
H	-0.3809436572	 0.8128088923	-1.5804871499	 0.24138
H	-0.862141634	 1.5621869721	 0.5933370979	 0.100585
H	-1.6423520866	-0.4777824754	 4.5602424339	 0.113206
H	-1.0726313352	-2.8995761116	 4.2234473219	 0.114266
H	 0.1817743592	-2.0550523783	 0.3761486366	 0.134801
