21
gdb 107645	3.13387	1.28292	1.06097	1.331	84.29	-0.2316	0.0146	0.2461	1218.1033	0.183004	-387.080778	-387.072145	-387.071201	-387.113956	33.504	
C	 0.1146822717	 1.492930849	 0.4594412192	-0.378905
C	-0.0264506209	 0.0937195649	-0.1522292916	-0.252893
C	-1.4481996173	-0.4555297063	-0.1175144572	 0.278825
C	-1.9269939571	-1.0816878864	 1.1896498133	-0.340182
C	-1.6382442015	-1.9448894336	-0.0118800535	 0.045435
O	-2.7365325418	-2.539601825	-0.6426563078	-0.260662
C	-3.0866436036	-1.9751791204	-1.8995050917	-0.123211
C	-3.1747000565	-0.4705923537	-1.8575275794	-0.081629
C	-2.4373670169	 0.2274875077	-0.9964940539	-0.140599
H	 1.1584247286	 1.8213426341	 0.4416084718	 0.112527
H	-0.4719758288	 2.2363213916	-0.0895442878	 0.118736
H	-0.2248285379	 1.5042809588	 1.5003201895	 0.119451
H	 0.3281871365	 0.1080379935	-1.1908331415	 0.099407
H	 0.6295774063	-0.600543204	 0.3874719681	 0.094967
H	-1.2366518003	-1.1054833767	 2.0273097634	 0.105664
H	-2.9727011252	-0.9694867501	 1.451064505	 0.119989
H	-0.7515381677	-2.5780620677	 0.0025200686	 0.08355
H	-2.3757858767	-2.29459377	-2.6819563887	 0.099836
H	-4.0575087291	-2.4119635985	-2.155138974	 0.115204
H	-3.8656468215	 0.0136451394	-2.5413824684	 0.09375
H	-2.51769134	 1.3096463935	-0.9386620137	 0.090737
