20
gdb 93791	2.85608	1.28441	0.9499	4.5825	75.52	-0.2548	0.0261	0.2809	1256.1084	0.172275	-440.340117	-440.331165	-440.330221	-440.373942	34.006	
C	-0.5187530643	 1.3813590279	 0.1690893663	-0.424697
C	 0.0486275124	-0.0306968886	 0.0573205987	 0.061915
C	 0.6258758339	-0.3205680869	-1.3462532273	-0.207703
C	 1.5576392469	-1.5599452249	-1.3832921	-0.231048
C	 1.5809243021	-2.3202812914	-0.0438556952	 0.03243
O	 2.549087795	-3.3298564607	-0.0361215138	-0.446374
C	 1.8623425374	-1.3382928645	 1.0939957985	 0.386897
O	 2.735177064	-1.562078186	 1.9203208638	-0.402071
N	 1.0871252261	-0.2288959866	 1.067404153	-0.318553
H	 0.2637908806	 2.128996469	 0.0003249747	 0.128792
H	-1.3019383463	 1.5339299837	-0.5782743193	 0.131866
H	-0.9586301228	 1.55584208	 1.1566140593	 0.123408
H	-0.7695752391	-0.7418141628	 0.2474679537	 0.092955
H	-0.2150241305	-0.4399995966	-2.0367707428	 0.106396
H	 1.1800093101	 0.5641462185	-1.6774044994	 0.107643
H	 1.2653520427	-2.253804871	-2.1757730822	 0.113802
H	 2.5876550008	-1.259082668	-1.596190306	 0.116746
H	 0.5798626011	-2.752515225	 0.1350971399	 0.08746
H	 3.0728022223	-3.1564294606	 0.7655572696	 0.291252
H	 1.2026289275	 0.4368816146	 1.8173542585	 0.248886
