21
gdb 78010	2.57714	1.26385	1.01523	3.3263	85.72	-0.2406	-0.0152	0.2254	1263.6847	0.181524	-387.083584	-387.074313	-387.073369	-387.11731	35.032	
C	-0.2767628007	 1.2625846723	-0.6540847626	-0.42267
C	 0.1414943979	-0.1909202083	-0.556255792	-0.059668
C	 1.5164309639	-0.7670079684	-0.5996954042	-0.140934
C	 2.6016338085	 0.0003362053	 0.1779904738	 0.045457
C	 3.1893471744	 1.2869903137	-0.393086594	-0.415591
C	 1.6803992323	 0.0288251467	 1.4434666597	-0.342352
C	 0.6537830516	-0.8415988159	 0.7139417711	 0.25917
C	 0.0526759451	-2.0588711486	 1.2603327855	 0.054757
O	 0.1634619008	-2.4320032168	 2.4061931247	-0.276373
H	-0.1893306258	 1.6198514623	-1.6856282065	 0.124197
H	-1.3227839648	 1.3726762889	-0.3494416267	 0.123612
H	 0.3193786926	 1.920818773	-0.0209702682	 0.129274
H	-0.5563598871	-0.8518599356	-1.0717155976	 0.095408
H	 1.7317675155	-1.6002615761	-1.260682941	 0.0954
H	 3.422770383	-0.6965130766	 0.3742015865	 0.087563
H	 2.426362057	 2.0400011336	-0.6044221711	 0.119445
H	 3.9055978689	 1.7254107904	 0.3105783945	 0.118922
H	 3.7244798345	 1.0866457078	-1.3279424415	 0.11712
H	 2.1076304169	-0.4828289283	 2.3065882202	 0.128715
H	 1.3251896889	 1.012321402	 1.7645408661	 0.101131
H	-0.5249751334	-2.6545021613	 0.5134287135	 0.057416
