17
gdb 10818	4.95177	1.49649	1.19272	5.452	75.03	-0.209	-0.0256	0.1834	995.7891	0.143798	-363.899792	-363.89227	-363.891326	-363.931566	28.044	
C	-0.0292125168	 1.4544341356	-0.2488620023	-0.335877
N	 0.0142924616	 0.1268364034	 0.3323523084	-0.044843
C	-1.2383302162	-0.6253126728	 0.3362416675	-0.169812
C	-1.1447039622	-1.847377216	 1.2482797434	-0.327327
C	 0.0971744243	-2.7022561869	 0.9601760591	 0.369303
O	 0.1005199128	-3.9035197305	 1.1673791942	-0.35891
C	 1.2510794322	-1.9377419226	 0.5188363136	-0.262696
C	 1.1640213852	-0.601507228	 0.2845523198	 0.048842
H	 0.9521514313	 1.9267384814	-0.1656146719	 0.137714
H	-0.3169122177	 1.4356757491	-1.3117201054	 0.124645
H	-0.754160383	 2.0747787272	 0.2877052112	 0.134339
H	-2.0437691894	 0.0422096594	 0.6585329617	 0.112728
H	-1.4697147868	-0.9452625897	-0.6948195851	 0.10861
H	-1.0778389796	-1.5229393821	 2.2955339388	 0.126233
H	-2.0376819109	-2.4691318692	 1.1543946222	 0.124984
H	 2.2079061176	-2.4388677368	 0.44903629	 0.096412
H	 2.0526561177	-0.0244401916	 0.0420030347	 0.115656
