23
gdb 62711	3.53689	1.3933	1.16415	0.0404	89.65	-0.2796	0.0943	0.3739	1161.2363	0.207415	-351.12754	-351.119346	-351.118402	-351.159638	33.673	
C	-0.1322165243	 1.5429435503	 0.0056446657	-0.464089
C	-0.0268937522	 0.0137436495	-0.0001639812	 0.358054
C	-1.408917008	-0.5482751445	-0.3519125834	-0.464087
C	 1.2275127369	-0.6372033463	-0.6720530511	-0.097873
C	 2.1204479994	-0.1619871975	 0.5244475398	-0.001808
C	 3.2256616835	-1.1860602589	 0.7750752643	-0.248875
C	 2.4256567908	-2.4963784061	 0.5510723253	-0.248877
C	 1.0535374428	-1.9094686659	 0.2257081184	-0.001803
C	 0.7790568203	-0.6750945188	 1.15078119	-0.097899
H	 0.801526992	 2.0525770786	 0.2471244765	 0.112474
H	-0.4610226415	 1.9047677166	-0.9757487861	 0.110611
H	-0.8837852819	 1.8691656532	 0.7342653108	 0.110593
H	-1.7326407406	-0.1754732073	-1.3308871902	 0.110598
H	-1.4510476592	-1.6377746078	-0.385569346	 0.112474
H	-2.1531596283	-0.2120307502	 0.3796616771	 0.110606
H	 1.4978469691	-0.6210660712	-1.7319723071	 0.053744
H	 2.3919152402	 0.8880191325	 0.6130469626	 0.057978
H	 4.058823651	-1.0710235994	 0.0738860379	 0.094114
H	 3.6374787482	-1.1065680564	 1.7865801935	 0.094113
H	 2.8199717131	-3.1000916817	-0.2730034419	 0.094113
H	 2.3986591806	-3.1356543581	 1.4396980927	 0.094114
H	 0.2529455714	-2.6153905047	 0.014082205	 0.057978
H	 0.5268854364	-0.7030408962	 2.2149221972	 0.053747
