19
gdb 102210	3.05039	0.75167	0.62372	1.3437	87.28	-0.249	0.0364	0.2854	1782.1154	0.155659	-385.830886	-385.819869	-385.818925	-385.868917	38.073	
C	 0.0930907085	 1.5172443536	 0.0211676256	-0.498297
C	 0.0642385811	 0.0619023388	-0.0186157925	 0.093162
C	 0.0530877561	-1.1419340982	-0.0517199719	 0.041556
C	 0.0165976917	-2.5996606888	-0.0781008779	-0.369243
C	-1.4274498248	-3.1741217077	-0.0303992191	-0.17966
C	-2.2534256607	-2.7581486336	-1.2695870271	-0.052567
O	-3.5781724435	-3.2379283198	-1.219764201	-0.420966
C	-1.4051109894	-4.6309170548	 0.0776061119	 0.297573
C	-1.4046066523	-5.8336265827	 0.1165977367	-0.457435
H	 0.847432752	 1.8806511083	 0.7277370729	 0.149096
H	 0.3289445609	 1.9390105817	-0.962045928	 0.148817
H	-0.874822862	 1.9250636306	 0.3326591006	 0.150179
H	 0.5151345806	-2.977384395	-0.9799672229	 0.135385
H	 0.5793967484	-3.0034749952	 0.7711288229	 0.139639
H	-1.9331931024	-2.763704524	 0.852152073	 0.123226
H	-2.3133206537	-1.6675372524	-1.3035853902	 0.123984
H	-1.7273976222	-3.0985780386	-2.1762280545	 0.089859
H	-3.5294983074	-4.1980608986	-1.1386802402	 0.284976
H	-1.3958703209	-6.8939865536	 0.1783255618	 0.200718
