15
gdb 17808	4.68018	1.60192	1.38082	12.8573	65.3	-0.1829	-0.0034	0.1795	882.6071	0.119684	-399.708212	-399.701486	-399.700542	-399.740212	25.276	
O	 0.1548719673	 0.4684664458	-1.1467299404	-0.43903
C	 0.1013285847	 1.0536311854	-0.0657758521	 0.336453
O	 0.893445575	 1.1574461328	 0.889878436	-0.46117
C	-1.2974552327	 1.8316995045	 0.1062448659	-0.096785
C	-2.0917432058	 1.7666840708	 1.4393899978	-0.026811
C	-1.0614175929	 2.7236596725	 2.0805957392	-0.22117
C	-1.3467491124	 3.2793981286	 0.6670282956	-0.026832
N	-2.8660900432	 3.0389550914	 0.9567894704	-0.286332
H	-3.4597843298	 2.9117941816	 0.1349986223	 0.287294
H	-3.308859981	 3.6227764603	 1.6728041862	 0.277901
H	-1.9004392886	 1.6693307666	-0.792676127	 0.084108
H	-2.6696182061	 0.9553022043	 1.8780357579	 0.131017
H	-1.3943217493	 3.3229411039	 2.9334223315	 0.09237
H	-0.0676460576	 2.2715034492	 2.1523935047	 0.218013
H	-1.0593144976	 4.2239437122	 0.208881532	 0.130975
