20
gdb 82455	2.35228	1.75789	1.35267	2.3715	78.55	-0.2132	0.0654	0.2787	1047.0095	0.169983	-403.074189	-403.065513	-403.064568	-403.106733	34.144	
C	-0.0964280193	 1.5806445431	-0.0949027404	-0.429467
C	 0.0824435876	 0.0773007863	 0.038585479	 0.019638
N	 1.1017509434	-0.6289027336	-0.8607142132	-0.186219
C	 2.4178529656	 0.0325195121	-0.4949662378	-0.246363
C	 2.2771804693	-0.5882244557	 0.8828783015	 0.315531
O	 3.2436126354	-0.8256276161	 1.838640217	-0.459455
C	 1.3392078659	-1.6043187139	 0.3140600153	-0.131094
C	 0.7577657926	-0.5650512096	 1.2405209467	 0.241065
C	 0.2853104076	-0.7000737802	 2.6567849729	-0.523082
H	 0.7733378059	 2.1457127382	 0.2499371728	 0.113203
H	-0.2897532079	 1.847878336	-1.1396298469	 0.129245
H	-0.9573695856	 1.9073455336	 0.4980077557	 0.118219
H	-0.8763198233	-0.4166082302	-0.1617929135	 0.076536
H	 3.2173763259	-0.4375059647	-1.0744871144	 0.111934
H	 2.4578396632	 1.1181182763	-0.6292657913	 0.091928
H	 3.3194415567	-0.0459063968	 2.400539118	 0.287698
H	 1.3224860632	-2.6835216542	 0.2571835891	 0.100816
H	 0.9918971035	-1.2935305465	 3.2454343387	 0.130846
H	 0.1900056544	 0.2804792971	 3.1394846602	 0.115805
H	-0.6934535741	-1.1896300111	 2.7092125106	 0.123217
