17
gdb 20003	3.9897	1.32105	1.09233	3.9547	71.28	-0.2363	-0.0115	0.2248	1087.0794	0.14129	-363.822798	-363.814975	-363.814031	-363.855586	28.593	
O	-0.0504768124	 0.0035378484	-0.3627415648	-0.275599
C	 0.024510413	 1.133362762	 0.0573929596	 0.165026
C	 1.2721401079	 1.9340441679	 0.0512104526	-0.130202
C	 1.1634364211	 3.4442195937	-0.1593129403	-0.320501
C	 1.5545778262	 2.9226075734	 1.1781282669	 0.053813
N	 0.5976204364	 3.0275795577	 2.2419967167	-0.068787
C	 1.0047521001	 2.4991433953	 3.5416570438	-0.22203
C	 0.921690383	 3.9681146928	 3.3118200135	-0.221967
H	-0.8589947981	 1.6573768241	 0.4783444637	 0.086451
H	 2.1248185782	 1.4216939273	-0.380237283	 0.106451
H	 1.9088957068	 3.9148992634	-0.7891522041	 0.127682
H	 0.1603637051	 3.8477871854	-0.2471139352	 0.134196
H	 2.6088507041	 3.0043284407	 1.4587408789	 0.085017
H	 0.2317291619	 1.9820129216	 4.1020163889	 0.12557
H	 1.9983639159	 2.0625029047	 3.6242321903	 0.117063
H	 1.8599513479	 4.515477566	 3.2395839791	 0.114472
H	 0.0871247627	 4.5434828656	 3.7012864934	 0.123346
