20
gdb 82879	2.50192	1.94919	1.4301	1.2643	78.41	-0.2099	0.0869	0.2968	991.4199	0.171388	-403.090219	-403.082466	-403.081522	-403.121874	31.446	
C	 0.0004764476	 1.4384639372	-0.3577911109	-0.334061
N	-0.0015260182	 0.009322759	-0.0775273669	-0.086529
C	-1.1705297927	-0.5072287239	 0.7158225316	-0.109337
C	-0.8865823546	-2.0143067919	 0.6061972645	-0.201562
C	 0.4199779471	-1.8901633159	 1.4179344032	 0.053838
O	-0.1024725298	-1.5002512322	 2.7196857192	-0.325812
C	-0.378186224	-0.2312122485	 2.1088731891	 0.463412
C	-0.7443265557	 0.856467622	 3.0743569245	-0.518551
C	 0.7925910198	-0.3826415685	 1.1037954834	-0.108368
H	 0.9629337634	 1.7131667573	-0.8027721685	 0.120916
H	-0.7797428483	 1.6584043267	-1.0936545024	 0.120573
H	-0.1619414955	 2.0940923175	 0.5142062988	 0.097313
H	-2.1584538138	-0.1112875123	 0.4828976936	 0.068295
H	-1.5929485314	-2.6621736166	 1.1283041432	 0.102866
H	-0.7635182132	-2.3162757314	-0.434543675	 0.106751
H	 1.1395662698	-2.7056523178	 1.4540332021	 0.082026
H	 0.0580633574	 1.0140428153	 3.8014765893	 0.130333
H	-0.9456176675	 1.7998887826	 2.5623721283	 0.129364
H	-1.6479411641	 0.569193284	 3.6239783699	 0.132913
H	 1.8153143236	-0.0267378523	 1.2278759231	 0.075621
