14
gdb 42744	2.56283	2.01314	1.50842	3.6207	67.13	-0.2117	-0.0744	0.1373	871.2719	0.102919	-436.690943	-436.684375	-436.683431	-436.72194	25.738	
O	-0.0093942422	 0.0016480108	-0.0126731747	-0.29973
C	-0.0529688485	 1.1992425376	 0.0249988828	 0.326897
C	-1.2564179489	 2.1584080908	 0.0187952091	-0.174666
N	-0.7340162259	 3.2736608983	-0.8198416001	-0.293225
C	 0.4738428594	 3.5643694855	 0.0026966529	-0.174669
C	-0.164621528	 3.6568876426	 1.3850791585	-0.059523
C	-1.200849978	 2.8148292126	 1.3947330081	-0.059535
C	 1.1665534488	 2.190192063	 0.0136885731	 0.326897
O	 2.3294128639	 1.9020919191	-0.0343463435	-0.299728
H	-2.2026003726	 1.7353867047	-0.313324571	 0.103592
H	-0.4663980983	 2.9337130103	-1.7457461103	 0.23434
H	 1.0777268656	 4.4008742817	-0.3438512264	 0.103592
H	 0.2361227529	 4.2400427488	 2.2016442507	 0.132878
H	-1.8444393681	 2.5493522343	 2.2210254109	 0.132879
