15
gdb 15551	3.57698	1.90675	1.39812	5.5928	65.37	-0.2453	0.0047	0.25	868.313	0.120667	-358.867797	-358.860481	-358.859537	-358.899505	26.869	
C	 0.0489796425	 1.5508185564	-0.171010759	-0.407477
C	-0.0285958927	 0.0396529154	 0.043163253	 0.008576
N	 0.5928529065	-0.718688748	-1.0593774162	-0.300553
C	 1.8406241884	-1.1126890458	-0.6201238651	 0.069884
N	 2.0837603382	-1.0454066923	 0.6332256896	-0.247115
C	 0.8383787583	-0.5162338028	 1.2346959083	-0.119599
C	 1.1096281273	 0.4679996132	 2.2853680027	 0.296141
N	 1.2898955145	 1.2499883393	 3.1162943828	-0.331909
H	 1.0876374029	 1.8821874212	-0.2652318215	 0.141171
H	-0.4910258583	 1.8328862253	-1.0810388313	 0.115499
H	-0.402798908	 2.0853700479	 0.6685256802	 0.150291
H	-1.0707337946	-0.2661490024	 0.1665885951	 0.103061
H	 0.5088034999	-0.345333301	-1.9948024013	 0.246978
H	 2.5572047678	-1.5030837627	-1.3370581627	 0.136819
H	 0.3068708773	-1.3533743936	 1.7068852256	 0.138231
