21
gdb 89223	2.90374	1.54922	1.22975	1.1259	80.9	-0.2427	0.0772	0.3199	1088.198	0.183832	-387.071559	-387.063623	-387.062679	-387.103311	32.845	
C	-0.1537421537	 1.5717715833	 0.021111876	-0.411623
C	 0.0398683512	 0.0568374066	-0.008090858	 0.05665
C	 0.8513348131	-0.4820253404	-1.2207249847	-0.320494
C	 1.6034258351	-1.6865079151	-0.6516464413	 0.424036
O	 1.8398845265	-2.791463008	-1.4710554883	-0.484469
C	 2.6013016121	-1.4628998091	 0.4806172009	-0.124869
C	 2.3114322143	-0.1544705884	 1.2103441499	-0.249127
C	 0.7897130815	-0.5384827969	 1.2018717739	-0.058066
C	 1.1889626052	-1.9714952567	 0.7594096814	-0.130161
H	 0.8064657975	 2.0982016997	 0.0494726208	 0.114803
H	-0.6934613984	 1.9186809627	-0.8664366636	 0.113324
H	-0.7291470369	 1.8809756534	 0.9006903957	 0.109872
H	-0.9495870435	-0.4192866095	-0.0319054437	 0.071931
H	 0.202968433	-0.805207765	-2.0403817804	 0.101977
H	 1.5298433168	 0.2816100369	-1.622157641	 0.086931
H	 2.581678602	-2.5810254518	-2.0483819108	 0.280856
H	 3.5267903897	-2.0284167264	 0.4926689705	 0.077193
H	 2.7175845913	-0.1645770874	 2.2253362721	 0.101004
H	 2.6034452009	 0.7852676978	 0.7274951137	 0.086725
H	 0.2679109488	-0.4165713889	 2.1517492984	 0.064541
H	 0.8425408537	-2.9291948268	 1.1233474784	 0.088965
