20
gdb 118365	1.87043	1.15028	0.75435	2.8567	76.81	-0.2473	-0.0272	0.22	1494.2059	0.168348	-440.247381	-440.237186	-440.236242	-440.283859	35.59	
O	 0.0823144827	 1.2873165377	 0.4424238828	-0.413982
C	 0.0621660068	-0.1021677526	 0.1591068388	-0.075337
C	-1.3647024245	-0.6260738137	-0.0314340194	-0.209495
C	-1.466433441	-2.1551994204	-0.1952994883	-0.063709
C	-2.9436586164	-2.5133539811	-0.3085510774	 0.161808
O	-3.6631602986	-2.7209860449	 0.6327309195	-0.252518
N	-0.7928102169	-2.6065870923	-1.4105212206	-0.080003
C	 0.5845587229	-3.0741578118	-1.278480882	-0.217409
C	-0.5203806625	-4.0431835461	-1.499123425	-0.231757
H	-0.2301807244	 1.7529744666	-0.3399083287	 0.283081
H	 0.6786522679	-0.3387319181	-0.7190217341	 0.102784
H	 0.5249410039	-0.5865804527	 1.0265647441	 0.110799
H	-1.9607936171	-0.3309738425	 0.8384290241	 0.127305
H	-1.8096609807	-0.1488308791	-0.9149514332	 0.098427
H	-1.078149867	-2.6435446671	 0.7158881912	 0.080983
H	-3.3184294479	-2.539665797	-1.3566002169	 0.088957
H	 1.2528234754	-2.8047149704	-2.0913058339	 0.12379
H	 1.0397771844	-3.0562141126	-0.2898929068	 0.119688
H	-0.8061292436	-4.6712590294	-0.656891983	 0.122667
H	-0.6755949435	-4.4909393124	-2.4758852411	 0.123923
