20
gdb 18345	3.11339	2.14553	1.47444	0.2016	80.23	-0.224	0.0338	0.2578	924.4399	0.178819	-311.882326	-311.874908	-311.873964	-311.913809	29.161	
C	 0.3537021701	 1.3695556068	-0.0403382846	-0.494843
C	 0.0413028776	-0.0951310371	-0.0431543406	 0.331844
C	-0.1133946344	-0.8840159731	-1.1114710763	-0.162764
C	-0.4563566358	-2.3145460513	-0.7646265408	-0.273696
C	-0.2792880692	-2.3447129206	 0.7658619545	 0.002826
C	 1.1615035501	-2.6030044321	 1.3021842128	-0.218573
C	 1.1441564825	-1.2269301	 2.0247450346	-0.223356
C	-0.1561790447	-0.8606614359	 1.2451700204	-0.104605
H	 1.2707390782	 1.5815823073	 0.5237573434	 0.124356
H	 0.4820283214	 1.7597968987	-1.053754575	 0.120501
H	-0.4469478023	 1.9424201444	 0.4456701377	 0.122201
H	-0.0237997019	-0.5419881515	-2.1384586764	 0.078396
H	-1.4803002166	-2.5658016795	-1.0760914832	 0.097261
H	 0.2000181978	-3.0397320705	-1.2648021502	 0.09738
H	-1.0364595351	-2.9416203912	 1.2776535068	 0.060561
H	 1.2902820282	-3.4806256533	 1.9403024816	 0.094321
H	 1.9004011668	-2.65472744	 0.4974292698	 0.099242
H	 0.9712806119	-1.3162520561	 3.1008616058	 0.095406
H	 2.0101423332	-0.5769569314	 1.8700461567	 0.092716
H	-0.9611132478	-0.4336944438	 1.8551455432	 0.060826
