20
gdb 78296	2.83316	1.39085	1.11005	2.8714	80.71	-0.2053	0.0651	0.2704	1192.4613	0.167325	-403.057042	-403.047855	-403.046911	-403.090169	35.356	
C	-0.1961996374	 1.3402667916	-0.0675942793	-0.317299
N	 0.101590848	-0.0846899434	 0.0617239803	-0.076161
C	 1.5313897724	-0.3899243703	-0.1068824747	-0.13202
C	 0.9189544399	-0.395228734	 1.2455435331	-0.132015
C	 1.1365457671	-1.9555613255	 1.3301060234	 0.336194
C	 1.3565097222	-2.7501402982	 2.5741071192	-0.510023
O	 0.4658707386	-2.5598457421	 0.2171249916	-0.30136
C	 1.7429289508	-1.9503331168	-0.0094775927	 0.336203
C	 2.8250697	-2.7375044422	-0.6702411405	-0.51002
H	 0.6033010249	 2.0084788873	 0.2970413504	 0.093
H	-0.3780357222	 1.5688587848	-1.1223592819	 0.125907
H	-1.109518735	 1.5625723877	 0.4930072582	 0.125904
H	 2.2158140205	 0.3223733043	-0.550982703	 0.090348
H	 1.0345650006	 0.3121507437	 2.0575025164	 0.090341
H	 0.4223635493	-2.8523030632	 3.1384798637	 0.134673
H	 1.7185773003	-3.7529363495	 2.3321808944	 0.132959
H	 2.0894725229	-2.2595895046	 3.2236288695	 0.12287
H	 2.6330158876	-2.8331942058	-1.7452028692	 0.134674
H	 3.7953572453	-2.2449802528	-0.5448785444	 0.122867
H	 2.885076414	-3.7429310811	-0.2451102245	 0.132957
