15
gdb 50691	2.20088	1.84723	1.21393	2.6446	61.15	-0.2537	-0.0554	0.1983	1000.2238	0.110513	-494.895937	-494.887552	-494.886607	-494.930375	28.682	
O	-0.6809099346	 0.7152895075	-0.6383444308	-0.233413
C	 0.3402005955	 0.7752542808	-0.0037974043	 0.129232
C	 1.2239264497	 2.0152649525	 0.0662756539	-0.017853
O	 2.567245787	 1.6676791176	 0.3514823809	-0.255181
C	 3.2990942792	 1.8991421194	-0.8420367101	 0.012385
O	 2.69912396	 3.0168579069	-1.4482114695	-0.225623
C	 1.3069992096	 2.8796289976	-1.2454838672	-0.020588
C	 0.6197433595	 2.260127852	-2.4719966189	 0.150641
O	 1.2054751797	 1.5574274044	-3.252238466	-0.245538
H	 0.7080782559	-0.0687217736	 0.6170075392	 0.114021
H	 0.8443566756	 2.6199065716	 0.9020376937	 0.129334
H	 4.3316186652	 2.1418550831	-0.5811203845	 0.130737
H	 3.2514411063	 1.0242261771	-1.5066264237	 0.117412
H	 0.8857954752	 3.8770554678	-1.0810083177	 0.113889
H	-0.4437264537	 2.5398033954	-2.6073473948	 0.100546
