16
gdb 125488	3.09977	1.17158	0.92331	1.5556	71.04	-0.2574	-0.0471	0.2102	1230.6162	0.124099	-434.103283	-434.094585	-434.093641	-434.138838	29.632	
C	-0.1489381365	 1.5093696835	-0.1612087349	-0.508064
C	-0.0598244278	 0.0215784702	-0.1028353599	 0.355051
N	-0.0452161414	-0.7981640481	-1.1421377348	-0.308659
C	 0.0440374413	-2.0272266133	-0.5671776707	 0.025749
N	 0.0820583868	-2.0309461635	 0.7531983651	-0.258235
N	 0.0074503197	-0.7027963456	 1.0440507613	-0.007241
C	 0.0882827452	-0.2633553475	 2.4168240004	-0.251474
C	 1.5288475568	-0.2035174882	 2.9286269298	 0.147924
O	 1.8659649163	 0.487384875	 3.8503523249	-0.219964
H	 0.721153705	 1.9907587295	 0.2977051484	 0.146164
H	-0.1984016174	 1.8098107622	-1.2080234424	 0.16711
H	-1.0433591616	 1.8833149857	 0.3491336203	 0.144674
H	 0.077560834	-2.9442542795	-1.1364398179	 0.129343
H	-0.3778008235	 0.7171416582	 2.5330969999	 0.153764
H	-0.4611903445	-0.9799330027	 3.0367760401	 0.170944
H	 2.2340271678	-0.867574196	 2.3838352803	 0.112913
