19
gdb 40029	3.49004	1.58217	1.49042	1.4788	78.24	-0.2191	0.0859	0.305	965.6938	0.161078	-385.845219	-385.838447	-385.837503	-385.876119	28.718	
C	 0.0163929372	 1.5245198364	 0.0312004785	-0.324769
C	 1.306786667	 0.717623536	 0.0257562024	-0.34912
C	-0.01610826	 0.0229026705	-0.0215506052	 0.462206
O	-0.4189650137	-0.6817123888	 1.1448220204	-0.301586
C	-1.4206028284	-1.5961034641	 0.723287269	 0.070059
C	-2.6524322427	-0.864104466	 0.0925524418	-0.251593
C	-2.0058781359	-1.0837013051	-1.2765741315	-0.081421
C	-1.0233725354	-2.0897811996	-0.6937809938	-0.091511
C	-0.5144351419	-0.7741526669	-1.2000954485	-0.140454
H	-0.2716735309	 1.9911232247	 0.9664920255	 0.11931
H	-0.2533832563	 2.0805305943	-0.8610280709	 0.109499
H	 1.9256110886	 0.7257401556	-0.8656154696	 0.110439
H	 1.8551911884	 0.651526967	 0.9588881521	 0.12328
H	-1.6002520436	-2.3077429599	 1.5271947003	 0.082468
H	-3.5664206806	-1.4547121487	 0.2027167654	 0.098839
H	-2.832376009	 0.1595329542	 0.4349951676	 0.101224
H	-2.516580037	-1.1197313601	-2.2317133331	 0.083906
H	-0.708928043	-3.0722050644	-1.0178239515	 0.088428
H	 0.0292888071	-0.7330659354	-2.1361400089	 0.090796
