18
gdb 20027	4.67902	1.15073	1.02967	2.3467	69.5	-0.252	0.0837	0.3357	1176.321	0.152389	-384.884345	-384.87598	-384.875036	-384.917809	30.007	
C	 0.0468727054	 1.3058476935	 0.0149826359	-0.231847
O	-0.4528096982	 0.0799028344	-0.482275015	-0.237443
C	 0.445470153	-0.5694627033	-1.3249302378	 0.119092
C	 1.5385051218	-1.4157008194	-0.7252285422	-0.333947
C	 0.3418472042	-2.0650448611	-1.4042500289	-0.077378
C	-0.6676417389	-2.7896342435	-0.5800062378	 0.104451
C	-1.6823771639	-3.6610201516	-1.1843603991	-0.186888
O	-0.5403962463	-4.2168811755	-0.5297458584	-0.244632
H	 0.9637594979	 1.1614496079	 0.6038491418	 0.111522
H	 0.2662385547	 2.011722105	-0.8002629056	 0.107742
H	-0.7286591361	 1.7335840704	 0.6543192461	 0.128904
H	 0.6673506539	-0.0247750632	-2.2444622019	 0.086691
H	 2.5058051751	-1.4626157815	-1.2126510341	 0.115621
H	 1.5685625224	-1.4739447696	 0.3579982915	 0.12366
H	 0.5159979879	-2.5095966467	-2.3796244833	 0.092897
H	-0.9018801538	-2.3265873962	 0.3768232986	 0.099795
H	-2.6361049925	-3.8153089635	-0.6810027433	 0.113265
H	-1.7070674663	-3.7853349762	-2.2667551164	 0.108493
