16
gdb 130178	3.30453	1.50247	1.04809	1.2374	71.62	-0.2068	0.0295	0.2363	1082.0344	0.127752	-434.069543	-434.061848	-434.060904	-434.101874	28.769	
N	-0.0659107903	 1.396482892	-0.1543814446	-0.590676
C	 0.0469218543	 0.0103094284	-0.0430169668	 0.196278
N	-1.0388640516	-0.7651918974	-0.0534852275	-0.304223
N	-0.5590786326	-2.0472689438	-0.0218199146	-0.342588
C	 0.7844556467	-2.0658788387	 0.0302526668	 0.320117
C	 1.2251909825	-0.7722857828	 0.0153411107	 0.155561
C	 2.719240011	-0.7713526157	 0.0322047858	-0.19694
O	 3.0709762302	-2.17146834	 0.1051620094	-0.281297
C	 1.9246311261	-3.0289502667	 0.0611437516	-0.17069
H	 0.5693433756	 1.8995385912	 0.4507749902	 0.245239
H	-1.0184432375	 1.7008301463	 0.0040885749	 0.250691
H	-1.2156711091	-2.8068877538	-0.0247227862	 0.270934
H	 3.1690463268	-0.3360534916	-0.872101206	 0.112954
H	 3.160665262	-0.2603047191	 0.8999218961	 0.105972
H	 1.9255297712	-3.6841841686	 0.9445347322	 0.114627
H	 1.9711619548	-3.6726398198	-0.8306514021	 0.114041
