19
gdb 53649	4.01344	0.56503	0.51231	4.7838	85.9	-0.2526	0.0205	0.2732	2112.6121	0.157538	-382.055364	-382.044406	-382.043462	-382.093824	37.172	
C	-0.0173879295	 1.5217394662	-0.0217190564	-0.497933
C	-0.0011459055	 0.0658438774	-0.0287304988	 0.135677
C	 0.02202219	-1.1377769345	-0.0376114317	 0.003424
C	 0.013796202	-2.5955252467	-0.0419870848	-0.375049
C	-1.4059726792	-3.1784799176	 0.0960630037	-0.174682
C	-1.4163567447	-4.7270391685	 0.0607064319	-0.132334
N	-0.6977123198	-5.4183454065	 1.133732063	-0.503052
C	-2.8120496383	-5.1990858264	 0.0462245924	 0.294559
N	-3.9181468954	-5.5322071126	 0.0405364574	-0.317187
H	 0.5868158605	 1.9233605949	 0.7991764994	 0.148826
H	 0.3820676758	 1.9287148576	-0.9571388497	 0.149603
H	-1.0359930871	 1.9068649109	 0.0980058703	 0.150488
H	 0.4686817749	-2.967143051	-0.9712050197	 0.128467
H	 0.6453946004	-2.9666221399	 0.7759047489	 0.119621
H	-1.8574274401	-2.8374823696	 1.0342482593	 0.121446
H	-2.0346342717	-2.7963734481	-0.7146965897	 0.131305
H	-0.9640684477	-5.0536987259	-0.8855271524	 0.133625
H	 0.2947557208	-5.219545051	 1.0706214871	 0.242317
H	-1.0173690652	-5.0905131587	 2.0407587299	 0.24088
