19
gdb 113869	3.30444	1.05197	0.93112	2.8834	71.76	-0.2529	0.0679	0.3207	1306.592	0.15858	-460.109413	-460.100352	-460.099408	-460.144474	32.322	
O	 0.0198352571	 1.2067371441	-0.7775071432	-0.420116
C	 0.1025784969	 0.0609124992	 0.0611304783	-0.111433
C	-1.2554595318	-0.5816438994	 0.2031578935	 0.038331
O	-1.692980576	-1.4174817104	-0.8900354831	-0.270604
C	-1.5342035166	-2.0145343859	 0.3955784746	 0.030917
C	-0.5403791486	-3.1409328733	 0.5324219045	 0.102192
C	-0.7980564801	-4.3540938434	-0.3991556409	-0.290628
C	 0.5662278639	-3.9868385202	-1.0127102314	-0.060298
O	 0.7496566903	-2.9089154024	-0.0673922279	-0.277761
H	-0.2331492494	 0.8935290719	-1.6525900745	 0.289251
H	 0.8295781239	-0.6703740759	-0.3010667382	 0.130357
H	 0.4351415566	 0.4263673701	 1.0393376647	 0.107901
H	-2.0275890437	 0.115238241	 0.5371435611	 0.097077
H	-2.4794274359	-2.2611885114	 0.8907948042	 0.089226
H	-0.4420538816	-3.3897810075	 1.5984528536	 0.08413
H	-0.8409164072	-5.3213612842	 0.1022687902	 0.114482
H	-1.6552945365	-4.2443441856	-1.064228581	 0.126845
H	 1.3558256098	-4.7408890232	-0.9207674622	 0.106064
H	 0.534729479	-3.6184059734	-2.0439586722	 0.114066
