21
gdb 94190	2.69191	1.24533	1.11519	2.2031	78.49	-0.2397	0.0651	0.3048	1213.0078	0.180861	-424.190978	-424.181421	-424.180477	-424.225521	35.83	
C	 0.073487075	 1.6014684731	-0.0706799459	-0.448686
C	 0.0349304687	 0.0797249602	-0.0280169548	 0.390952
O	 0.9938969421	-0.4700359029	-0.9934799669	-0.32786
C	 1.9037833481	-0.8687270464	 0.0474682357	-0.11165
C	 0.8576380052	-0.5504678405	 1.1343885486	 0.02252
O	 1.2013871555	 0.3479448483	 2.1605959837	-0.425066
C	-1.3238395888	-0.5460071275	-0.241836323	-0.015582
C	-2.5564515471	-0.0710769339	 0.4921960107	-0.277937
C	-2.4461257907	 0.1182944414	-0.9987301296	-0.277049
H	 1.0703636033	 1.9621504353	 0.1874878918	 0.129866
H	-0.1677013791	 1.9435559552	-1.0806561611	 0.12472
H	-0.6316926712	 2.0486997648	 0.6354645007	 0.121655
H	 2.2239220371	-1.9119499275	-0.0599486189	 0.095485
H	 2.7879077071	-0.2191169344	 0.106369456	 0.096
H	 0.3706702415	-1.4478296855	 1.5358897677	 0.072741
H	 1.6080867773	-0.1463728473	 2.8781687584	 0.289286
H	-1.2479209862	-1.6216703373	-0.3764492394	 0.082687
H	-3.2400422531	-0.821890875	 0.8728033464	 0.110505
H	-2.4742792477	 0.8085691141	 1.1210096116	 0.118557
H	-2.2953521123	 1.1259483297	-1.3675159378	 0.116135
H	-3.0537147346	-0.503243114	-1.646843794	 0.11272
