21
gdb 110853	2.17195	1.24696	1.09111	0.935	78.52	-0.2415	0.0747	0.3162	1254.2565	0.181209	-424.185737	-424.176007	-424.175062	-424.220031	36.67	
C	 0.7668223988	 0.5670672729	-1.7809191622	-0.429763
C	 1.2832214358	-0.7267959502	-1.1612364099	-0.013401
C	 2.7982887683	-1.129547508	-1.231648079	-0.267186
C	 2.7766715625	-1.4317221826	 0.2744494792	-0.148957
C	 2.4391876019	-0.1900064298	 1.082149933	-0.104515
C	 3.0081846628	 1.1916858324	 0.8434245137	-0.096735
O	 4.2564402016	 1.3563525065	 1.5055529838	-0.418546
C	 1.336667415	-0.9203638577	 0.3614064334	 0.346185
O	 0.2836464687	-1.4924905086	 1.0611989557	-0.464259
H	 1.3247167597	 1.445549558	-1.444820029	 0.120019
H	 0.8342711906	 0.5302959048	-2.8738525579	 0.116648
H	-0.2870836621	 0.7234368931	-1.52372383	 0.115158
H	 0.6967613198	-1.5644172253	-1.5539926933	 0.087475
H	 2.9769039012	-2.0108971912	-1.8505396403	 0.106161
H	 3.487512176	-0.3420304978	-1.5532614105	 0.095606
H	 3.2102305443	-2.3070544573	 0.742391144	 0.09368
H	 2.3979956863	-0.4246869501	 2.1456324218	 0.095894
H	 3.1035223622	 1.408492149	-0.22853978	 0.091453
H	 2.3482597029	 1.9562261691	 1.2686398643	 0.106159
H	 4.8302974488	 0.6423877834	 1.2075251054	 0.282357
H	-0.1795859952	-0.7976892904	 1.540140568	 0.286568
