20
gdb 47653	2.01326	1.79179	1.22129	2.3436	80.22	-0.2128	-0.0173	0.1955	1097.9951	0.173183	-403.157722	-403.149432	-403.148487	-403.190484	32.335	
O	 0.0489893422	-0.0087198627	 0.0684706923	-0.316454
C	-0.0209762105	 1.1993498749	 0.0455864623	 0.388489
C	-1.3601894476	 1.92631119	 0.043286736	-0.292124
C	-1.4873659858	 2.916241933	-1.142241739	-0.266032
C	-1.1767975805	 2.2461197056	-2.4552604688	-0.037881
C	 0.0401161016	 2.1460040216	-2.9945984041	-0.059322
C	 1.323347444	 2.7184832895	-2.4182388021	-0.21443
N	 1.9565422181	 1.974355397	-1.3168841135	-0.272216
C	 1.2746980646	 2.0325683507	-0.0222277722	-0.242657
H	-2.1441529465	 1.1645680286	 0.0067825668	 0.120605
H	-1.4664785263	 2.477032338	 0.9883426158	 0.114845
H	-2.5043324921	 3.3213765402	-1.1484723646	 0.109858
H	-0.8158368289	 3.7658049962	-0.9789085616	 0.108626
H	-2.0098195634	 1.7498192618	-2.9492575755	 0.09272
H	 0.1475748312	 1.5814937987	-3.9186816552	 0.09085
H	 2.0669855739	 2.7935299445	-3.218784371	 0.108076
H	 1.1594766026	 3.7409630322	-2.0570299894	 0.113595
H	 2.0723852723	 0.9987070226	-1.5766225907	 0.226666
H	 1.0964248623	 3.083542328	 0.2287990866	 0.101823
H	 1.9502222388	 1.6164154595	 0.7333749979	 0.124962
