11
gdb 129152	2.25042	1.75587	1.26083	3.1831	67.77	-0.2907	-0.1337	0.157	960.2723	0.058887	-484.764	-484.75701	-484.756066	-484.795285	26.568	
N	-0.2522986801	 1.4597315768	-0.0894877088	-0.441996
C	-0.0914587384	 0.1612518383	-0.0118059565	 0.280796
N	 1.2581563673	-0.5250974705	 0.0961989997	-0.107785
N	 1.6264572106	-1.4960243508	-0.702725153	 0.066855
O	 0.7866880188	-1.9072218132	-1.8966069884	-0.240383
C	-0.6373996599	-1.8333756217	-1.9599163432	 0.17525
N	-1.6249278136	-1.5046944235	-1.149420952	-0.287276
C	-1.2855805932	-0.8503729304	 0.1437704353	 0.407831
O	-1.9199656865	-1.0375145914	 1.2026084616	-0.293461
H	 0.734776912	 1.8912153593	-0.1577034046	 0.258628
H	-0.907372267	-2.2559724831	-2.9538882501	 0.18154
