13
gdb 33724	6.24379	0.96164	0.96095	2.8674	70.19	-0.2936	-0.0452	0.2483	1170.6301	0.088896	-415.551869	-415.54448	-415.543536	-415.583884	27.453	
N	-0.057134769	-1.0366748892	-0.1366007898	-0.32826
C	-0.0311840412	 0.1151769066	-0.0530722147	 0.188529
C	 0.0238119586	 1.5463020375	 0.0905922318	 0.298252
C	-0.6494540241	 2.4461181893	 1.1629954262	-0.27814
C	-0.0320467145	 3.3349763019	 0.0486701517	 0.298189
C	 1.2647656312	 2.4806536272	 0.0861724359	-0.278125
O	-0.5850237324	 2.398254055	-0.9644036595	-0.331764
C	-0.1761045732	 4.7515357529	-0.1620480131	 0.18856
N	-0.2737766491	 5.8943132033	-0.2996213645	-0.328266
H	-1.7376091259	 2.4123049317	 1.1696875305	 0.15116
H	-0.1981784144	 2.4834569143	 2.1551998714	 0.134349
H	 1.8773490966	 2.5208952508	 0.9876357198	 0.134349
H	 1.8360155574	 2.4767735986	-0.8406126855	 0.151165
