18
gdb 81491	2.28549	1.94624	1.21367	4.7104	76.8	-0.2708	0.0338	0.3046	1034.4484	0.147276	-401.904266	-401.895835	-401.894891	-401.936856	32.465	
C	-0.1572270324	 1.5452452639	 0.0102981161	-0.470937
C	-0.0158511512	 0.0138371387	 0.0058442303	 0.203843
C	-1.3654855262	-0.5047588622	-0.2388298488	 0.230474
N	-2.4744118963	-0.7402191181	-0.4699345398	-0.361494
C	 1.1693807245	-0.6693358608	-0.7781269079	-0.138985
C	 2.1291368492	-0.1475838745	 0.3280095335	-0.259307
C	 0.8880859934	-0.6945704013	 1.0927605455	-0.106655
C	 1.0031002606	-1.9220602862	 0.1515730525	 0.148453
O	-0.1125213227	-2.7549783711	 0.0848588475	-0.418127
H	 0.7848188779	 2.0638180052	 0.1860504447	 0.122969
H	-0.56098655	 1.8850576772	-0.9477692416	 0.140947
H	-0.8634227921	 1.849292632	 0.7882444169	 0.142542
H	 1.3213077887	-0.6506709584	-1.8585412522	 0.084685
H	 3.0519883304	-0.715877256	 0.4614825476	 0.105576
H	 2.3272868394	 0.9194396359	 0.3694474819	 0.112515
H	 0.7130800146	-0.704100071	 2.1685566841	 0.092393
H	 1.927289053	-2.5011320088	 0.2760047426	 0.077259
H	-0.1448772008	-3.1838747545	-0.776227013	 0.293849
