17
gdb 65770	2.98015	1.20169	1.09576	4.7667	70.99	-0.2592	-0.008	0.2513	1162.9133	0.134021	-458.99562	-458.986997	-458.986052	-459.029186	31.495	
C	 0.0618451673	 1.5600196142	-0.0542147276	-0.420959
C	-0.0035168224	 0.0397050654	 0.0054798859	 0.415036
O	-1.4051921153	-0.375477579	 0.0312865497	-0.235391
C	-2.111974951	-0.3123797796	-1.1153218333	 0.156799
O	-3.2742135354	-0.5944008781	-1.1603808282	-0.284502
O	 0.6697785719	-0.515354945	-1.0986545626	-0.28249
C	 1.4824921506	-1.6185573285	-0.6852441873	-0.139437
C	 1.4652389941	-1.5584894369	 0.8137609191	-0.094406
C	 0.6300849028	-0.6080920605	 1.2113640635	-0.112053
H	 1.1001753467	 1.8896364616	 0.0274517047	 0.132213
H	-0.3436685834	 1.9228555421	-1.0025313317	 0.133923
H	-0.5201762729	 1.9929118394	 0.763021589	 0.136916
H	-1.5130258916	-0.0022630904	-1.9864250975	 0.099032
H	 1.0730192072	-2.5648778944	-1.0680108337	 0.126588
H	 2.4835204827	-1.4896601584	-1.1158079948	 0.124284
H	 2.0460714612	-2.223419844	 1.4394735842	 0.121909
H	 0.3679880876	-0.3279591979	 2.2219236304	 0.122538
