24
gdb 78226	2.18749	1.48751	1.21724	1.5067	89.26	-0.2207	0.0769	0.2975	1215.2475	0.215879	-368.377996	-368.367973	-368.367029	-368.41183	39.015	
C	 2.032224083	 2.2078785391	 0.5052108267	-0.429515
C	 1.6488591243	 0.7444872398	 0.526998288	 0.015738
C	 1.1491122843	-0.1272146821	-0.5595462843	-0.089113
N	 2.5058320267	-0.3824009233	 0.0998962101	-0.166927
C	 3.1588862571	-0.0078200626	-1.2162856572	 0.01897
C	 4.209272891	-1.0280342289	-1.6189707435	-0.409298
C	 1.776042668	 0.0312919161	-1.9537765407	 0.30785
C	 1.48587503	-1.2246291958	-2.7856214097	-0.433661
C	 1.4354134322	 1.2713354903	-2.7831243996	-0.460099
H	 2.5309994842	 2.5290191217	-0.4084422612	 0.12616
H	 1.1370529918	 2.8266335768	 0.629523643	 0.12265
H	 2.7035881409	 2.4245184992	 1.3436981745	 0.123693
H	 1.1932283666	 0.4779192516	 1.4817523025	 0.091628
H	 0.3135630227	-0.8016099216	-0.3784557835	 0.080504
H	 3.6372937702	 0.9770374906	-1.174218222	 0.063584
H	 3.8156520486	-2.0467693168	-1.608353275	 0.122254
H	 4.6008239015	-0.8148250047	-2.6195874171	 0.108517
H	 5.0443763674	-0.9899928704	-0.9121955333	 0.120146
H	 1.6525802908	-2.1428931349	-2.2166849226	 0.125349
H	 0.4385140796	-1.2229171754	-3.1089280196	 0.109722
H	 2.1091410764	-1.2607077514	-3.6852447078	 0.112202
H	 2.0405539882	 1.2990191867	-3.6972334094	 0.111832
H	 0.3828966188	 1.2552982614	-3.0887765926	 0.113294
H	 1.6062107658	 2.2042981547	-2.2431020857	 0.114521
