17
gdb 31550	3.34134	1.15557	0.87001	2.4806	74.28	-0.1696	0.0475	0.2171	1309.6016	0.137452	-451.352927	-451.343709	-451.342764	-451.386635	33.968	
C	-0.0905503002	 1.3596029455	 0.0047371778	-0.318557
N	 0.1999129582	-0.0635964831	-0.0297998921	-0.387638
C	 0.7518029358	-0.6530816195	 1.0706294486	 0.498367
N	 1.311408615	-0.0520712495	 2.0830509078	-0.406025
C	 1.755323802	-1.1029259565	 2.878249429	 0.266607
N	 2.4821539391	-0.8459734589	 4.0333223044	-0.59934
C	 1.4298773755	-2.2972721448	 2.3260497086	 0.167311
N	 1.6341936594	-3.6088780596	 2.7200093632	-0.606619
O	 0.7636031943	-1.992342201	 1.1005565162	-0.240771
H	 0.8084031935	 1.8966866273	 0.3129385911	 0.161086
H	-0.3717712062	 1.6867937932	-0.9987223748	 0.122795
H	-0.8953406515	 1.619482117	 0.7065654978	 0.120474
H	-0.4499087442	-0.650228773	-0.5297613108	 0.248733
H	 2.1828388882	 0.005091755	 4.4903310308	 0.247098
H	 2.4862590445	-1.6313143774	 4.6703988484	 0.247491
H	 2.2666707358	-4.1314151803	 2.121424509	 0.240799
H	 0.7798012807	-4.1448506043	 2.834865465	 0.238189
