17
gdb 32144	3.72602	1.14352	0.88057	2.1902	81.33	-0.2065	-0.008	0.1985	1286.0414	0.137796	-418.056153	-418.047966	-418.047022	-418.088783	31.26	
C	-0.0517425623	 1.3833903838	-0.0685955788	-0.245087
O	-0.0009307667	-0.0298107503	 0.017225754	-0.267264
C	 0.6309430537	-0.581483219	 1.0860019049	 0.36261
C	 1.2451877445	 0.1391587087	 2.1155055366	-0.143749
N	 1.855005141	-0.4692597808	 3.137914289	-0.257599
C	 1.8767691257	-1.7930446055	 3.1804071312	-0.062369
C	 1.2865405346	-2.6106931486	 2.1978337633	 0.29573
N	 1.2886091252	-3.9969013841	 2.3286118991	-0.593327
C	 0.6561078584	-1.9751404801	 1.1316808506	-0.259653
H	 0.9527438233	 1.8211387768	-0.1257638724	 0.128189
H	-0.5962052304	 1.611446329	-0.9863754227	 0.134538
H	-0.583482903	 1.8210343064	 0.7855056556	 0.129106
H	 1.2536864746	 1.2229344072	 2.1249813211	 0.096491
H	 2.381371804	-2.2505206338	 4.0301050024	 0.08796
H	 2.030222004	-4.366246413	 2.9055883415	 0.250415
H	 1.1988006201	-4.5102847802	 1.4641149266	 0.249089
H	 0.1785266333	-2.5370031867	 0.3356480881	 0.094922
