19
gdb 2725	8.01396	0.96114	0.90219	2.249	65.31	-0.2596	0.0845	0.3441	1311.4578	0.170138	-348.047609	-348.038588	-348.037644	-348.081975	30.883	
C	-0.122815757	 1.427585222	 0.0202920493	-0.382433
C	 0.0122088879	-0.0957748025	-0.0446405728	-0.183941
C	 0.7244745041	-0.5616150123	-1.3069486885	-0.029009
O	 0.8176474961	-1.9718322106	-1.2874694717	-0.260412
C	 1.4501139823	-2.5239022082	-2.4262474417	-0.070501
C	 1.3217241057	-4.0346477157	-2.3065266982	-0.057367
O	-0.0336682869	-4.4303728943	-2.2428618189	-0.422047
H	 0.8577752688	 1.9159421943	 0.0088991901	 0.117541
H	-0.6956691318	 1.8146897955	-0.8295781244	 0.11782
H	-0.6366606018	 1.7373352368	 0.9346394405	 0.119281
H	 0.567099997	-0.4661284165	 0.8249514249	 0.108255
H	-0.9772159007	-0.5663984944	-0.0080574293	 0.10456
H	 0.1753985956	-0.2289788166	-2.2047916899	 0.087332
H	 1.7327267362	-0.1165485783	-1.3645866745	 0.085901
H	 0.9518998648	-2.1758316318	-3.3456457419	 0.093488
H	 2.5098751577	-2.2227161706	-2.475422817	 0.085661
H	 1.7626444695	-4.5160094812	-3.185718925	 0.106273
H	 1.8821304024	-4.3714669103	-1.4194714257	 0.091742
H	-0.4372278899	-3.8573666855	-1.5798361754	 0.287856
