21
gdb 78243	2.30966	1.61004	1.36339	2.0622	77.79	-0.2349	0.0745	0.3095	1084.3837	0.183227	-424.225435	-424.216917	-424.215972	-424.257907	34.044	
C	 0.033380068	 1.5742337441	-0.0146823871	-0.412373
C	 0.0716991814	 0.0545599669	 0.0584634068	 0.113319
O	 0.814350499	-0.4551746715	-1.0637597373	-0.301176
C	 1.2110850293	-1.80231134	-0.7497895143	 0.113281
C	 2.3572430577	-2.2127882362	-1.6630490679	-0.412372
C	 1.5147679078	-1.7667476474	 0.7429547105	-0.133542
C	 2.2745913465	-0.5616505781	 1.2390979499	 0.125235
O	 3.0471520614	 0.2685709901	 0.4201873022	-0.435142
C	 0.7664831584	-0.5470808308	 1.2738165664	-0.133563
H	 1.0346863638	 1.9965822266	 0.0985226631	 0.135541
H	-0.3871446419	 1.9006348047	-0.9701806483	 0.124515
H	-0.5966742051	 1.9681862741	 0.788675134	 0.118069
H	-0.9575189482	-0.3387550448	 0.008951455	 0.074478
H	 0.3516864823	-2.4723593735	-0.919817659	 0.07448
H	 3.2465959524	-1.6080134566	-1.4704037614	 0.13554
H	 2.6129835643	-3.2623150986	-1.488003037	 0.118072
H	 2.0688520774	-2.1016344947	-2.7122538672	 0.124515
H	 1.5616274877	-2.707470251	 1.2806888422	 0.086238
H	 2.7660557071	-0.6781992517	 2.1996814482	 0.104401
H	 2.576976208	 0.3463431326	-0.4216380155	 0.294242
H	 0.2370494727	-0.5484906142	 2.2203951067	 0.086242
