18
gdb 57695	3.14085	0.82578	0.75684	2.7644	78.63	-0.2707	0.0121	0.2828	1525.7902	0.144015	-401.929107	-401.918775	-401.917831	-401.964602	37.332	
C	 0.1816758015	 1.5760735934	 0.0083910325	-0.403917
C	 0.0000415414	 0.0531162887	-0.0016260073	 0.189896
O	 0.6602626699	-0.4265027393	 1.1654248036	-0.438115
C	-1.4837205831	-0.3882396322	-0.0302787999	-0.205455
C	-2.2794722451	 0.0787113761	 1.2058058044	-0.378987
C	-3.6094331637	-0.5144504712	 1.2519634458	 0.280885
C	-4.700009172	-1.0189854287	 1.2661205698	-0.419452
C	 0.6630630021	-0.5082609726	-1.2057002158	 0.249429
N	 1.1721362203	-0.9748310069	-2.1324078026	-0.331528
H	 1.2443320398	 1.8225729945	-0.0302466589	 0.148308
H	-0.320480476	 2.0319494554	-0.8479487348	 0.136684
H	-0.2326644405	 1.9867914441	 0.9312486377	 0.140758
H	 0.6494593475	-1.3907979558	 1.1507197295	 0.295118
H	-1.9547993726	-0.0187814176	-0.9464813223	 0.13143
H	-1.5166363067	-1.4820778192	-0.0844752831	 0.121882
H	-1.7180679062	-0.1846238508	 2.1093777065	 0.146975
H	-2.3707330673	 1.1709311937	 1.20559879	 0.137743
H	-5.6666006692	-1.4578621015	 1.2914219951	 0.198347
