18
gdb 86890	2.94962	1.2673	1.02972	4.2514	71.97	-0.2866	0.0158	0.3023	1193.2836	0.146864	-439.102525	-439.093591	-439.092647	-439.136592	32.58	
C	-0.2627597118	 1.5166501014	-0.0469383626	-0.400765
C	 0.1969634268	 0.06782312	-0.1241481355	 0.116021
O	 1.038785654	-0.0884614396	-1.2887991738	-0.269509
C	 2.3210575695	-0.4701468908	-0.8558221021	 0.053931
O	 2.4201153715	-0.1771602443	 0.5030021627	-0.239051
C	 1.1047846474	-0.4311360815	 1.0274652156	 0.082784
C	 0.9681843017	 0.2277067872	 2.3845337236	-0.421918
C	 2.5325449587	-1.930632864	-1.1102372208	 0.275271
N	 2.7110803277	-3.0541668302	-1.3103121592	-0.325692
H	 0.58527017	 2.1899025962	 0.1063569037	 0.131058
H	-0.7526792119	 1.7927321735	-0.9842185872	 0.134731
H	-0.9795714168	 1.6586830094	 0.7677196981	 0.120365
H	-0.6653263026	-0.5974873413	-0.2414919975	 0.09858
H	 3.0843252837	 0.0956476086	-1.3994942543	 0.138939
H	 0.9757546341	-1.518891152	 1.1280043367	 0.100156
H	 1.1406293147	 1.3045496185	 2.3248040468	 0.135419
H	-0.033148354	 0.053408465	 2.789548692	 0.129162
H	 1.6945821175	-0.2002192859	 3.0798832238	 0.140517
