25
gdb 91936	2.09657	1.63284	1.25526	0.2221	91.07	-0.2574	0.077	0.3344	1185.2863	0.229628	-352.364511	-352.355214	-352.35427	-352.39761	37.981	
C	-0.0117167715	 1.5777087755	-0.0910614523	-0.418616
C	 0.1014882676	 0.0561429196	-0.0005179251	 0.039974
C	 0.8126838552	-0.6024551608	-1.2059715119	-0.254708
C	 1.2296902588	-1.9865917967	-0.7071977604	-0.034427
C	 2.5474324618	-2.0827562053	 0.0136772573	-0.303908
C	 1.2717637915	-1.9220134215	 0.8059313043	-0.045378
C	 0.8023477939	-0.5274284286	 1.2790740739	 0.284902
C	 1.9652249438	 0.3494522713	 1.7789596261	-0.426805
C	-0.2146351386	-0.6882846325	 2.4211426411	-0.439255
H	 0.9706646141	 2.0542711742	-0.1733411909	 0.114442
H	-0.5911405443	 1.8685811486	-0.9739475932	 0.109695
H	-0.5163800124	 2.0006648094	 0.7844330825	 0.111268
H	-0.9181624676	-0.3535604253	 0.0142188564	 0.065365
H	 0.1503874623	-0.6614927288	-2.0751100824	 0.094536
H	 1.6833620409	-0.0105388534	-1.5184722931	 0.090822
H	 0.8516838084	-2.863138871	-1.221547104	 0.077047
H	 3.0323794898	-3.0527644638	 0.0585911468	 0.103287
H	 3.2397188123	-1.2509652796	-0.065444502	 0.104922
H	 0.9550902684	-2.7727239718	 1.4011538629	 0.07303
H	 2.6761244122	 0.5993286326	 0.9860870365	 0.109201
H	 1.5976823278	 1.292763948	 2.1959702105	 0.10771
H	 2.5210837258	-0.169053252	 2.5669894253	 0.11036
H	 0.2628963084	-1.0846160529	 3.3242466743	 0.108742
H	-0.6706658616	 0.2725908931	 2.6845396589	 0.108352
H	-1.019687547	-1.3749970181	 2.1377552786	 0.109442
