20
gdb 71233	2.73952	1.85179	1.69553	0.3228	77.39	-0.2154	0.0844	0.2998	927.969	0.173203	-403.103666	-403.096607	-403.095663	-403.134487	29.864	
C	-0.0510720712	 1.5463298278	 0.0234536046	-0.469356
C	 0.0223475297	 0.0360103842	-0.0262630636	 0.291894
C	 1.058494135	-0.6671929554	-0.9459253519	-0.271422
C	 1.2005857166	-1.6499933922	 0.2117180819	-0.006037
C	-0.108278956	-2.4556019298	 0.5297387799	 0.095464
C	-0.136646413	-1.6504327127	 1.8465732082	-0.204935
N	 0.7165497875	-0.5962644105	 1.2016395078	-0.180448
O	-1.1659564357	-2.0539461609	-0.3273548958	-0.270268
C	-1.3306169667	-0.6346950295	-0.2827851875	-0.123433
H	 0.9326461944	 1.9636529163	 0.2531414146	 0.127269
H	-0.3907350263	 1.9565813435	-0.9344628264	 0.113668
H	-0.7468873256	 1.8792845497	 0.8019859567	 0.117628
H	 0.702955443	-1.0435382349	-1.9072074411	 0.108536
H	 1.9653982769	-0.0733585783	-1.0817844126	 0.106234
H	 2.1479754208	-2.151417245	 0.426976112	 0.069267
H	-0.0960965099	-3.5479189023	 0.5314726332	 0.076607
H	-1.1065467579	-1.3404851713	 2.2458866418	 0.106695
H	 0.4434391962	-2.1184078236	 2.6477569008	 0.109162
H	-2.0601558139	-0.351513127	 0.4902659267	 0.095619
H	-1.7381644839	-0.3291885982	-1.2525726594	 0.107855
