21
gdb 2855	5.99498	1.26714	1.16532	0.1171	75.28	-0.2627	0.0941	0.3568	1119.7971	0.194358	-274.983122	-274.974445	-274.973501	-275.0162	31.674	
C	-0.3742027302	 1.5280195609	 0.2590152319	-0.371608
C	 0.1705957212	 0.1397840597	-0.0983922272	-0.192875
C	 0.9007163796	-0.5098165077	 1.0606563959	 0.006854
C	 0.1561078246	-1.3102273602	 2.1056962192	-0.291998
C	 1.1297672054	-1.9996946002	 1.1762720101	 0.006855
C	 0.6540218238	-3.0046091796	 0.1456105244	-0.192872
C	 0.5406683496	-4.4217201919	 0.7206672995	-0.371612
H	 0.4347194727	 2.2050474104	 0.5555201314	 0.111948
H	-0.8946487738	 1.9829840187	-0.5897413015	 0.10748
H	-1.0778958073	 1.4693417178	 1.0959952564	 0.117166
H	-0.6579278431	-0.4980745116	-0.4262015504	 0.094189
H	 0.8480175467	 0.2246302829	-0.9587707839	 0.094045
H	 1.7152511698	 0.1021321336	 1.4444136155	 0.074918
H	 0.4136379108	-1.18941036	 3.1524189704	 0.104287
H	-0.9019141996	-1.4865528639	 1.9295063553	 0.103475
H	 2.0807573313	-2.2753040582	 1.6289042217	 0.074917
H	-0.3194029583	-2.7003902725	-0.2552255429	 0.094189
H	 1.3455549433	-3.0118694503	-0.7076652653	 0.094045
H	 1.5078167042	-4.7734343811	 1.096909202	 0.111949
H	-0.1675614328	-4.4504880429	 1.5553803565	 0.117166
H	 0.199633532	-5.133822324	-0.0375214691	 0.107481
