16
gdb 71384	2.74093	1.83037	1.32535	5.2156	71.34	-0.2268	0.0194	0.2462	956.4424	0.124947	-433.979725	-433.972172	-433.971228	-434.01123	30.334	
N	-0.020926825	 1.3451311353	 0.1688765404	-0.621439
C	 0.052146273	-0.0590893947	-0.0174897799	 0.196572
C	 0.8107452015	-0.9825747881	-0.9672704602	-0.23843
N	-0.0824337355	-2.1080564361	-0.4595522976	-0.208997
C	-1.071433119	-1.0466536626	 0.0373797203	-0.148238
C	-0.1981998681	-0.9163198699	 1.2811169357	 0.342679
O	-0.4273887467	-0.305458974	 2.4741973531	-0.460281
C	 0.3866917825	-2.2315069141	 0.9564522662	 0.347565
N	 0.9503491176	-3.1649168304	 1.5751389594	-0.563649
H	 0.9020261133	 1.7587797824	 0.254763552	 0.247909
H	-0.5142008265	 1.8192850518	-0.5799437338	 0.248525
H	 0.6061512163	-0.788876882	-2.0252028105	 0.108538
H	 1.8811773426	-1.1583749824	-0.8120908069	 0.112622
H	-2.138325653	-1.0448782353	-0.1303011727	 0.120261
H	-0.4188844131	 0.648784264	 2.2943473879	 0.289055
H	 1.13628243	-3.9446652041	 0.9399665965	 0.227306
