17
gdb 67766	3.15574	1.65053	1.33319	3.4344	76.77	-0.2177	-0.0124	0.2052	981.6826	0.13632	-384.686304	-384.679113	-384.678169	-384.717544	29.151	
C	 0.0036532493	 1.4739578185	 0.0110701185	-0.496561
C	-0.0186681136	-0.0364971799	 0.0425408361	 0.314591
C	-1.2716218146	-0.787603668	-0.321445834	-0.155402
C	-1.2216617965	-2.0256387988	 0.1732979688	-0.094226
C	 0.1270928796	-2.2429270847	 0.823262053	-0.231038
C	 0.6612112608	-0.8074571806	 1.1245775303	-0.109542
C	 1.3263205901	-0.7423999875	-0.2800978107	-0.241452
C	 1.1950299818	-2.225355247	-0.3258782819	 0.438225
O	 1.8381306136	-3.0953806766	-0.8424244254	-0.333735
H	 0.9468410775	 1.8670613959	 0.4021551783	 0.122875
H	-0.1190914903	 1.8506323742	-1.0097744511	 0.12979
H	-0.8102737657	 1.8808521807	 0.6205268758	 0.128675
H	-2.0600279011	-0.3560346094	-0.9249047756	 0.104353
H	-1.9418053491	-2.8185713495	 0.0203365635	 0.114154
H	 0.226870895	-3.0418334653	 1.5553187408	 0.091951
H	 1.0637907451	-0.4291826669	 2.0551968213	 0.109404
H	 2.1784625081	-0.167657125	-0.6204060077	 0.107937
