21
gdb 80409	2.46193	1.69686	1.25939	2.7889	82.27	-0.228	-0.0032	0.2249	1092.9971	0.182897	-387.114639	-387.106042	-387.105098	-387.147358	33.69	
C	-0.1633294526	 1.5277368808	 0.0333492881	-0.420783
C	 0.0594475331	 0.0183616966	-0.0547095647	-0.079508
C	 0.9905296528	-0.5150505395	-1.167464162	-0.034194
C	 1.2037013768	-1.987004201	-0.719615745	-0.276197
C	 1.9933901202	-1.3259121357	 0.4678907264	 0.215529
C	 2.9627915955	-2.0577041861	 1.3588427245	-0.499657
C	 2.4108500507	-0.2429700817	-0.59440178	-0.272934
C	 0.8529948097	-0.5662389489	 1.1372043793	 0.411719
O	 0.6370124191	-0.4293610644	 2.3133460731	-0.35503
H	 0.7801080875	 2.0822269084	 0.0111931272	 0.118966
H	-0.7811509792	 1.882898487	-0.7973195831	 0.11505
H	-0.6714094739	 1.7752910816	 0.9698612143	 0.138449
H	-0.9165572208	-0.4828655106	-0.0983835926	 0.092711
H	 0.7327428829	-0.2631201115	-2.1958765293	 0.067425
H	 0.3228822698	-2.5919794421	-0.4823824038	 0.098339
H	 1.8758909117	-2.5416179038	-1.3792616712	 0.103096
H	 3.7493270955	-2.549301481	 0.7780151824	 0.110445
H	 3.4352501726	-1.3669213732	 2.064582743	 0.130456
H	 2.4455853269	-2.8198605683	 1.9508612085	 0.128778
H	 3.2059075546	-0.6160222229	-1.2448895377	 0.104402
H	 2.660050657	 0.7614103264	-0.2413217273	 0.102937
