21
gdb 110007	2.18187	1.47244	1.00155	0.9406	80.71	-0.2319	0.0273	0.2593	1240.1906	0.18187	-424.235913	-424.226304	-424.225359	-424.270039	36.271	
C	 0.0297794642	 1.4884919897	-0.058999342	-0.483951
C	 0.0568345554	-0.0080310663	-0.0434960144	 0.327817
C	-0.0632243015	-0.8209078509	-1.0992427876	-0.191148
C	-0.0739997595	-2.279322186	-0.7060847687	-0.282259
C	 0.5171835749	-2.2405664123	 0.7210119787	 0.098225
O	 1.9276874041	-2.4483730294	 0.7001825926	-0.43457
C	 0.1483510191	-0.8250398351	 1.241866815	-0.090873
C	 1.0999940105	-0.3089409118	 2.3186435816	-0.093349
O	 0.5130030043	 0.8499390516	 2.9010510905	-0.424908
H	 0.9298026427	 1.9148316918	 0.3967694401	 0.125148
H	-0.0593047788	 1.8712916719	-1.0798373611	 0.109916
H	-0.8101608911	 1.8694045061	 0.5331042118	 0.13522
H	-0.1927872329	-0.4837339679	-2.1226717537	 0.0831
H	-1.096838575	-2.68293125	-0.7055185452	 0.105788
H	 0.5230253607	-2.9318050397	-1.3527741976	 0.103982
H	 0.1286308456	-3.0315509368	 1.3676753021	 0.080991
H	 2.2924644294	-1.8363071491	 0.0500651675	 0.279292
H	-0.8490357942	-0.8613149224	 1.7070677914	 0.088927
H	 1.2553031688	-1.0967251411	 3.0708397803	 0.095446
H	 2.0834735373	-0.08083838	 1.8840105943	 0.081534
H	 1.1308084759	 1.2045069177	 3.5470018843	 0.285672
