18
gdb 13661	4.9484	0.95644	0.86638	4.3485	73.37	-0.2343	0.0244	0.2587	1325.6978	0.153479	-343.969785	-343.960992	-343.960048	-344.003897	31.382	
C	 0.1711434837	 1.5561780282	-0.1707115939	-0.414842
C	 0.0521089056	 0.0557011708	-0.0054542309	-0.014527
C	 1.2890486787	-0.8145940986	 0.0847089264	-0.313873
C	 0.3691921931	-0.6463686995	 1.2858806879	 0.042318
N	 0.7418053445	 0.0872881954	 2.4664680018	-0.305088
C	 1.7657303892	-0.586867702	 3.257362659	-0.254873
C	 2.1229895436	 0.201677515	 4.4397177732	 0.252424
N	 2.4232988744	 0.8344793809	 5.358074699	-0.298932
H	 1.0712214531	 1.9570291376	 0.3075442546	 0.112939
H	 0.2365870347	 1.8184025211	-1.2317289372	 0.127617
H	-0.6948802142	 2.07818325	 0.2503068471	 0.129983
H	-0.7843962693	-0.3725400001	-0.5512333948	 0.093886
H	 1.3124007254	-1.7653958346	-0.43694539	 0.113921
H	 2.243893091	-0.2971367119	 0.1149080681	 0.109183
H	-0.2564452333	-1.5039880466	 1.5248954341	 0.097978
H	 1.0364481678	 1.0301170833	 2.2442353314	 0.233064
H	 1.3706237892	-1.5535627048	 3.5940746116	 0.155496
H	 2.6923177729	-0.8089054842	 2.6987439826	 0.133326
