18
gdb 41663	3.4216	1.92514	1.90035	1.9384	72.29	-0.2406	0.0935	0.3341	822.189	0.152933	-401.944215	-401.938591	-401.937647	-401.973852	24.746	
C	-0.0134851546	 1.5530692213	 0.0198069548	-0.079238
O	 1.3656949908	 1.9704761423	 0.0143493317	-0.284135
C	 2.1299487285	 0.7686184573	-0.0703531352	 0.109213
C	 1.8971297867	 0.0959634655	-1.4247913583	-0.066168
C	 1.6048786043	-1.344651731	-1.2014352874	-0.044512
C	 1.7997439236	-1.6435175649	 0.2774671632	-0.257193
C	 1.3630987984	-0.2704227318	 0.7858975405	-0.08119
C	 0.0608273601	 0.0247690388	 0.0046678944	-0.019138
N	 0.4830724812	-0.3866387553	-1.3711704058	-0.125473
H	-0.5061653998	 1.9401979094	 0.9203030122	 0.098626
H	-0.5302755688	 1.9400603625	-0.8655369789	 0.112676
H	 3.1638906786	 0.9907552798	 0.1942596449	 0.080793
H	 2.2479160863	 0.5212187636	-2.3568382491	 0.096793
H	 1.7167809407	-2.0950055228	-1.9746124662	 0.094947
H	 1.1616653054	-2.4581369518	 0.6354726045	 0.106268
H	 2.8391073054	-1.8834116328	 0.5241631994	 0.106098
H	 1.3572887421	-0.087426336	 1.8585371843	 0.076746
H	-0.8488268691	-0.4903514639	 0.3162254409	 0.074888
