16
gdb 17724	4.64559	2.49553	2.0684	1.635	67.83	-0.238	0.0897	0.3276	687.8001	0.133181	-346.505368	-346.500118	-346.499173	-346.534311	22.582	
C	-0.0836764973	 1.5769411914	 0.0007328556	-0.344005
C	 1.4518528762	 1.2820583879	-0.0329147764	-0.103911
C	 1.3283406431	 0.1593712812	 1.0397708614	-0.067294
C	 1.7854623902	-1.0219403651	 0.1768489647	 0.083514
O	 0.7845329746	-2.0612239676	 0.3181343166	-0.297131
C	-0.4901469211	-1.3624833274	 0.3020782622	-0.188136
C	 0.0399894726	 0.0445467615	 0.1441925604	 0.270065
C	 1.2514771175	-0.0244574398	-0.8570831425	-0.067302
H	-0.4639795328	 2.1254551607	 0.8680326142	 0.100621
H	-0.536531496	 1.9519974931	-0.9222859435	 0.100619
H	 2.2618251839	 2.0039208821	-0.1356925699	 0.076411
H	 1.3165691347	 0.2702400103	 2.1247351237	 0.074946
H	 2.7690360401	-1.4904119936	 0.1823959232	 0.076717
H	-1.0969307354	-1.7183860041	-0.5380735776	 0.10497
H	-1.0248232656	-1.5459237913	 1.2407895294	 0.104971
H	 1.1519573354	-0.1235426092	-1.9386815013	 0.074946
