18
gdb 8029	3.53511	1.89402	1.54206	1.174	66.89	-0.2442	0.0659	0.31	880.2009	0.153093	-384.908087	-384.900251	-384.899307	-384.940647	29.802	
C	-0.1097811782	 1.5771770726	 0.1966078888	-0.47671
C	 0.0437814132	 0.0854061288	 0.0678689269	 0.452236
C	-1.1973981756	-0.837471374	 0.0566827581	-0.319087
C	-0.4630438999	-1.8217216249	 1.0231472919	 0.13879
O	-0.288566126	-3.1569467748	 0.6194526934	-0.429996
C	 0.7813069944	-0.8749542605	 1.0591744674	-0.15563
C	 1.7687144049	-1.0816994664	-0.0885502948	-0.102342
O	 0.9626741844	-0.2953593493	-0.9975157353	-0.331928
H	 0.8618892817	 2.0612626581	 0.33253238	 0.12331
H	-0.5691788563	 1.9877079883	-0.7098295524	 0.129744
H	-0.7504184032	 1.8319402859	 1.0471017215	 0.116404
H	-2.1047509225	-0.3985499573	 0.4811331308	 0.102025
H	-1.4275447511	-1.2403137256	-0.9336636654	 0.104228
H	-0.9437368674	-1.8745625199	 2.0031745536	 0.093485
H	-0.0466497376	-3.1608662909	-0.3125816565	 0.287606
H	 1.1716170211	-0.590905241	 2.0359594117	 0.072674
H	 2.7528859147	-0.6236953742	 0.0724928799	 0.102219
H	 1.9186159833	-2.1121107345	-0.4359950297	 0.092972
