21
gdb 73292	2.86551	1.80241	1.30487	1.3675	82.25	-0.2318	0.0911	0.3229	1039.0183	0.182836	-387.061353	-387.053348	-387.052404	-387.093105	32.748	
C	 0.038432364	 1.5169090533	-0.0728083816	-0.50708
C	 0.0280333972	 0.0079439656	 0.0119113344	 0.3133
C	 0.4418412596	-0.7637662307	-1.2367935269	-0.144103
O	 0.314520981	-2.1158861127	-0.797222119	-0.319722
C	-0.123558793	-1.9733991774	 0.5482204613	 0.493626
C	-0.3105461904	-3.3302357503	 1.1717890487	-0.492682
C	 0.6393509549	-0.7870282258	 1.2286875742	-0.157434
C	-0.6289183606	-0.4709362324	 2.0536692349	-0.275914
C	-1.1646789404	-0.8074232435	 0.6434328848	-0.157406
H	 1.0415761212	 1.8858678205	-0.3158745526	 0.11971
H	-0.639223531	 1.8669140443	-0.860074046	 0.119717
H	-0.2699336185	 1.9901719236	 0.8631508352	 0.122801
H	-0.2193238096	-0.575570743	-2.0936869608	 0.09471
H	 1.4760829026	-0.5564139869	-1.5436684641	 0.09471
H	 0.6315182763	-3.8865898579	 1.1513883042	 0.128288
H	-0.64655828	-3.2563587534	 2.2084443247	 0.121436
H	-1.0511765904	-3.9048936456	 0.6072786055	 0.128265
H	 1.6813112706	-0.7750961892	 1.55590731	 0.06437
H	-0.8833213364	-1.1604167772	 2.8618804484	 0.092926
H	-0.7493894443	 0.5604955526	 2.3890789437	 0.09612
H	-2.2002996629	-0.8189877138	 0.2966546111	 0.064365
