21
gdb 106873	2.17137	1.46496	1.0441	2.8618	85.21	-0.2399	-0.0223	0.2176	1238.0209	0.181527	-387.087955	-387.07868	-387.077736	-387.122127	34.64	
C	-0.4099830652	 1.2982533713	-0.0160933528	-0.377086
C	 0.0962434799	-0.152002111	-0.0028949549	-0.290135
C	 0.8561803048	-0.5073558429	-1.2507448317	 0.332604
C	 0.1904650602	-0.9412643649	-2.506452004	-0.362579
C	 1.1117114127	-1.9470505463	-1.8459966028	 0.194775
C	 2.5749077854	-1.5835301347	-2.1096039928	-0.304159
C	 2.3270410465	-0.1548661587	-1.528044681	-0.279675
C	 0.5955982154	-3.1892543729	-1.2673735777	 0.053622
O	-0.5675503675	-3.3921344461	-0.9871386771	-0.284656
H	 0.4178966902	 2.009536007	-0.1084732743	 0.116765
H	-1.0906441655	 1.4683642012	-0.8562843545	 0.121851
H	-0.947708307	 1.5311978384	 0.907844577	 0.116475
H	 0.7403551297	-0.3060240868	 0.8724904174	 0.09596
H	-0.747509254	-0.8426658297	 0.1052828987	 0.128791
H	-0.8607904749	-1.1951144619	-2.4177055722	 0.140295
H	 0.4897515547	-0.5316741744	-3.4691029094	 0.109273
H	 3.2737740144	-2.1646658696	-1.5023575782	 0.109408
H	 2.8953841031	-1.6371959638	-3.1551066	 0.101852
H	 2.4894216086	 0.685162298	-2.2110160607	 0.103015
H	 2.8958903756	 0.0267392599	-0.6130835628	 0.108099
H	 1.3738571029	-3.958951782	-1.0565934762	 0.065505
