17
gdb 4175	3.40608	1.81942	1.34827	1.1585	72.13	-0.2299	0.0148	0.2448	932.2433	0.141629	-363.793275	-363.785534	-363.784589	-363.825016	29.604	
C	-0.0904814224	 1.6180593672	-0.0113574277	-0.408853
C	 0.0621035034	 0.1007398158	-0.001489139	-0.079647
C	 0.7156769425	-0.6219237504	-1.2039809071	-0.062189
C	 2.1625013686	-0.2677687455	-1.3261037361	-0.28194
C	 1.7583968556	-1.279561273	-0.2700870264	-0.142763
C	 1.1255809835	-0.5737185345	 0.8741641231	 0.431955
N	 1.340286622	-0.6877097999	 2.1179678539	-0.271331
O	 0.4380135429	 0.1138879069	 2.8559430643	-0.399925
H	 0.8508948678	 2.1196360014	-0.2542018429	 0.115648
H	-0.8357375574	 1.9253243457	-0.7528808356	 0.113419
H	-0.4133748981	 1.9700433465	 0.9714926637	 0.140541
H	-0.9019085863	-0.363566091	 0.2396834947	 0.102382
H	 0.1680329418	-1.093964891	-2.0096038419	 0.095229
H	 2.6777181106	-0.6981528299	-2.1791521457	 0.119217
H	 2.5326275221	 0.7105392259	-1.0344785406	 0.119737
H	 2.1507172747	-2.2879414999	-0.2609201754	 0.103738
H	 0.7059717188	-0.0686366444	 3.7624321288	 0.304782
