18
gdb 10741	2.94731	1.65818	1.40612	4.5297	71.61	-0.2643	0.0309	0.2952	972.1078	0.153337	-343.978596	-343.969894	-343.96895	-344.011443	32.662	
C	 0.1293587012	 1.4684199872	 0.0369162072	-0.393068
C	-0.017805426	-0.06656228	 0.0415741123	 0.044826
N	 0.5084414916	-0.5661942427	 1.3155061962	-0.52719
C	-1.4591000208	-0.4072849705	 0.0081954671	 0.304246
N	-2.5802757618	-0.6798541299	-0.051627245	-0.340738
C	 0.6152313245	-0.6469156504	-1.2390232495	 0.03886
C	 2.0868719447	-0.9554027675	-1.321464262	-0.289681
C	 1.0734307439	-2.0743231678	-1.3395431039	-0.276081
H	 1.1932665391	 1.7253561394	 0.0443674896	 0.121192
H	-0.3209696497	 1.9009688315	-0.8594008365	 0.133479
H	-0.3464826854	 1.897533804	 0.9205898973	 0.144689
H	 0.4404481936	-1.5770105528	 1.3725470522	 0.243021
H	 1.485905228	-0.3101229993	 1.4097265074	 0.236558
H	 0.1686852006	-0.2345375145	-2.1394960259	 0.10114
H	 2.6106156848	-0.704241402	-2.2366353073	 0.122043
H	 2.6890794433	-0.8497134395	-0.4249688631	 0.103545
H	 1.0122371834	-2.7007006204	-0.4556493079	 0.108458
H	 0.8907185049	-2.6044082247	-2.2668944881	 0.124701
