17
gdb 31596	3.42781	1.03657	0.8327	1.9493	73.79	-0.1786	0.0422	0.2208	1347.535	0.13709	-455.165524	-455.156487	-455.155542	-455.199376	33.798	
N	-0.4027363247	 1.4570969158	-0.3663127518	-0.628438
C	-0.0132698014	 0.0862869737	-0.2736848014	 0.076433
C	-0.9135579936	-0.869174099	 0.1406373056	 0.385915
O	-2.1993955454	-0.7271892294	 0.5194450535	-0.438487
N	-0.3095425866	-2.0868445305	 0.1365975597	-0.35669
C	 1.0157540644	-1.9375537997	-0.2638145782	 0.270332
C	 1.9128438441	-3.1202302072	-0.3613802413	-0.180381
O	 1.9513466921	-3.8913114562	 0.8433426364	-0.419865
C	 1.2173369101	-0.6025143932	-0.5238431022	-0.33216
H	-0.3128872756	 1.8137979562	-1.313109699	 0.237766
H	 0.1683094044	 2.0535475811	 0.2250822521	 0.236969
H	-2.3721733714	 0.223421999	 0.4376160703	 0.303856
H	-0.7142270854	-2.9414148125	 0.4794269289	 0.269657
H	 1.5715990639	-3.8318645763	-1.1241920503	 0.111571
H	 2.913534382	-2.7780275339	-0.6627873056	 0.09887
H	 2.1888383589	-3.2849486933	 1.5538187762	 0.278019
H	 2.1423978243	-0.1669433247	-0.8735916531	 0.086631
