16
gdb 77110	3.35219	1.11936	0.93353	2.9415	70.68	-0.2747	0.0228	0.2975	1218.9563	0.123323	-437.861096	-437.852695	-437.85175	-437.894346	31.016	
O	 0.3067313583	 0.9394926146	-0.5587873013	-0.419722
C	-0.0725190891	-0.3379663627	-0.1492210181	 0.03528
C	-0.0420018341	-0.6781713393	 1.3947912374	-0.18457
C	-1.4437816856	-1.3561325994	 1.2311946477	-0.342636
C	-1.5751460374	-0.5923841095	-0.0881175729	 0.428376
C	-2.6289009936	 0.3187889871	-0.5312872897	-0.258345
O	-2.3821089391	-0.9415186592	-1.1832432795	-0.271962
C	 1.0622972761	-1.4731884775	 1.8916893187	 0.259491
N	 1.952674475	-2.1155353493	 2.2559949305	-0.323505
H	 1.2358256282	 0.9308858165	-0.8091947995	 0.301264
H	 0.4299274981	-1.1313697839	-0.7171118072	 0.107387
H	-0.1212017172	 0.2543067672	 1.9589189744	 0.13514
H	-1.3591107257	-2.4338114769	 1.0738365141	 0.141116
H	-2.1754647542	-1.1579564736	 2.0145518911	 0.131161
H	-3.560437125	 0.3762955698	 0.0294290136	 0.122141
H	-2.3612093046	 1.1995517662	-1.1099730295	 0.139384
