15
gdb 131152	4.0028	1.5106	1.2677	1.9128	71.48	-0.2352	-0.007	0.2282	963.0584	0.114562	-416.748065	-416.741421	-416.740477	-416.778883	26.655	
O	 0.0205622613	 1.4367303367	-0.1625956734	-0.445584
C	 0.0158862931	 0.0841203388	 0.0444690214	 0.301244
C	-0.1474690231	-0.8678065963	-1.1165025659	-0.301258
C	-1.1310011546	-0.943596917	 0.0383076479	-0.105764
N	-0.4816444479	-1.5494833065	 1.2074387862	 0.069581
N	-0.212841038	-2.7837572298	 1.6796885244	-0.273164
C	 1.0354711735	-2.6476920472	 2.1399837577	 0.008475
C	 1.6232603738	-1.3839415365	 1.8346199099	-0.333634
C	 0.5934652717	-0.7064476514	 1.217065549	 0.156387
H	-0.2912364035	 1.8693531654	 0.6410627264	 0.295994
H	-0.5445340093	-0.407264235	-2.0180209167	 0.133412
H	 0.5608207866	-1.673283908	-1.2821452571	 0.14048
H	-2.2033794047	-0.8272726067	-0.034518367	 0.127267
H	 1.4847902854	-3.4574480605	 2.6993113497	 0.114689
H	 2.623983036	-1.055620836	 2.0620452374	 0.111874
