20
gdb 67606	2.66622	2.19822	1.67477	1.6319	80.88	-0.2294	0.1025	0.332	903.3485	0.174519	-365.997622	-365.991019	-365.990074	-366.028082	28.426	
C	-0.0836503385	 1.4508844987	 0.0734119706	-0.499652
C	 0.0887017621	-0.0404509774	 0.0312083778	 0.35449
C	 0.1093145331	-0.8710977026	-1.2069131602	-0.088971
C	 0.9773303026	-2.0911868375	-0.9865268791	-0.259616
C	 0.6807020673	-2.244973073	 0.4947216415	-0.037854
C	-0.8502173998	-2.017721905	 0.6858831719	 0.003997
C	-0.5262003481	-1.2675945096	 1.9978179199	-0.230012
C	 0.7293561945	-0.8353583733	 1.1828725018	-0.116411
N	-1.0814735533	-0.9102815184	-0.3015202398	-0.171601
H	 0.8803553944	 1.9624116949	-0.0281198175	 0.114097
H	-0.7364562015	 1.7850749182	-0.7376001905	 0.127977
H	-0.535541697	 1.7704286101	 1.0193511446	 0.119255
H	-0.0597465737	-0.446241893	-2.1907872098	 0.084801
H	 0.6558539838	-2.9564356926	-1.5769935517	 0.102892
H	 2.0336228308	-1.8948098401	-1.2011063454	 0.102023
H	 1.1305278098	-3.0673903595	 1.0474363163	 0.070586
H	-1.592909434	-2.8119748732	 0.6140680438	 0.066718
H	-1.2254374246	-0.4944060555	 2.3267862071	 0.100342
H	-0.2866704193	-1.9422464862	 2.8237154765	 0.095432
H	 1.6295291014	-0.4323840848	 1.6473995823	 0.061507
