19
gdb 81225	2.36667	1.9439	1.66426	1.1444	74.26	-0.2455	0.0551	0.3006	930.4102	0.159966	-422.9364	-422.929032	-422.928088	-422.967825	29.97	
C	-0.2573366913	 1.5961922293	-0.0876711124	-0.437233
C	 0.0330360751	 0.1054798252	-0.0312253364	 0.011077
C	 1.1781996795	-0.5965486103	-0.7858576708	 0.041777
C	 2.4274040486	 0.2497361952	-0.3305461757	-0.320303
C	 2.156436277	 0.0539682462	 1.1822147918	 0.138076
O	 1.6194800596	 0.911859039	 2.2595514553	-0.313016
C	 0.6545175523	-0.1551534942	 2.5703517796	-0.215366
C	 0.809838258	-0.5950650561	 1.1056984147	 0.359197
O	 1.046832192	-1.7161248068	 0.193951317	-0.371783
H	 0.6027244583	 2.2135884097	 0.1724611615	 0.13784
H	-0.6035503759	 1.8791220494	-1.0881699616	 0.114964
H	-1.0580764827	 1.8480171351	 0.6155815065	 0.12218
H	-0.8804750579	-0.4745098517	-0.1914115186	 0.088884
H	 1.1150347539	-0.9356762046	-1.8193313339	 0.085443
H	 3.383072907	-0.1896934991	-0.62152859	 0.112806
H	 2.3789018274	 1.2681796809	-0.7194782827	 0.122952
H	 2.9177506235	-0.5944056862	 1.6291007588	 0.088518
H	 1.0564656258	-0.8492072598	 3.3181775221	 0.117377
H	-0.3107257802	 0.2468577988	 2.8893994447	 0.116611
