13
gdb 130627	5.15224	1.30349	1.04707	3.1136	64.88	-0.226	-0.0204	0.2056	1026.9451	0.092436	-448.950406	-448.943808	-448.942863	-448.98154	25.152	
O	 0.0222864415	 0.0079674365	 0.0032206735	-0.348354
C	-0.0168406103	 1.2108052729	 0.0102934553	 0.419629
C	-1.3138254023	 2.0980582902	 0.0330215675	-0.493938
C	-0.7200297841	 3.4648448275	 0.0320000753	 0.312341
C	 0.6459608576	 3.3950779351	 0.0126790114	 0.401598
N	 1.078174112	 2.0694862598	-0.000252997	-0.431892
N	 1.204133217	 4.6173410836	 0.0113485475	-0.303018
N	 0.2122070107	 5.4879221626	 0.0298174572	-0.125109
N	-0.9514206351	 4.7943547785	 0.0422271034	-0.318128
H	-1.923512151	 1.8550732071	-0.8429242793	 0.16178
H	-1.8989215036	 1.8457482573	 0.9229919819	 0.161779
H	 2.029358694	 1.7414923928	-0.0155453479	 0.277819
H	-1.8167847963	 5.3097605159	 0.0569620013	 0.285491
