17
gdb 29797	2.40993	1.36729	0.87814	5.1611	81.77	-0.1952	-0.0223	0.1729	1279.9353	0.136376	-418.052438	-418.043367	-418.042422	-418.086558	32.688	
C	-0.0103218801	 1.4531918962	-0.0008657877	-0.335851
N	 0.0010573492	 0.0053302022	 0.0023086657	 0.020312
C	 0.0078692779	-0.7835058416	-1.1429380262	-0.167952
C	 0.013430042	-2.1034923296	-0.7540609712	 0.125674
N	-0.0559947419	-3.2281959998	-1.5845200811	-0.605675
C	 0.012616466	-2.1160076086	 0.684998232	 0.126957
C	-0.0021112861	-3.2580500818	 1.5751643222	 0.061544
O	 0.0083365031	-3.202574765	 2.790663161	-0.3054
C	 0.0088872386	-0.784677517	 1.0944881521	-0.152979
H	 0.8695244052	 1.8473197793	-0.5198479089	 0.143468
H	-0.9089147469	 1.8336266791	-0.4974449023	 0.145067
H	 0.000156646	 1.8122912563	 1.0291600402	 0.148738
H	 0.0038576478	-0.3328760531	-2.1222853946	 0.110773
H	 0.2281047884	-3.0377278127	-2.5360887438	 0.243161
H	 0.4592947655	-4.0229158699	-1.2312350385	 0.249158
H	-0.0302034462	-4.2484981669	 1.0631622338	 0.042943
H	 0.0089793612	-0.380705727	 2.0937922674	 0.150062
