19
gdb 23291	2.5294	1.42208	1.19811	1.8916	78.79	-0.2429	0.0152	0.2582	1122.0855	0.160498	-419.132084	-419.123924	-419.12298	-419.164627	31.969	
C	-0.0778833283	 1.5463898273	 0.0227444301	-0.412738
C	 0.0733000981	 0.0271906649	 0.0342652427	 0.019006
C	 1.022184949	-0.5570609877	-1.0783721285	-0.250179
C	 2.0236923763	-1.314300628	-0.1663903792	-0.096952
N	 1.15094763	-1.9692781105	 0.8772472823	-0.328564
C	 0.8189011654	-0.5530011715	 1.2749053399	-0.100221
C	 2.2622745342	-0.2707386151	 0.9147521088	 0.538574
N	 3.1693537589	 0.450819315	 1.4058574936	-0.315057
O	 4.3809496152	 0.3026848198	 0.6936360601	-0.397866
H	 0.8963422777	 2.0384521976	 0.1095696979	 0.132404
H	-0.5476710039	 1.8882393542	-0.9052351618	 0.11665
H	-0.7011372496	 1.8880478912	 0.8563590347	 0.115574
H	-0.91899085	-0.4350815127	-0.0236794658	 0.071008
H	 0.5103030087	-1.236870308	-1.7659919293	 0.10006
H	 1.5022719654	 0.2274588617	-1.6709563163	 0.11346
H	 2.8215373741	-1.9014302657	-0.6155330825	 0.094474
H	 0.3477985231	-2.4428216099	 0.4574665484	 0.209371
H	 0.4030876498	-0.378305545	 2.2662696643	 0.084836
H	 4.975713076	 0.8714553725	 1.1940670506	 0.306159
