20
gdb 83823	2.76202	1.50099	1.20961	2.1328	79.69	-0.2345	0.0249	0.2594	1101.8296	0.172612	-403.139677	-403.131439	-403.130494	-403.172429	31.77	
C	 0.0914704147	 1.5164852287	 0.3311715634	-0.405871
C	-0.0102025754	 0.0556535682	-0.0487571629	-0.064547
C	 0.5450973036	-0.5018768308	-1.3496595166	-0.059836
C	 1.3135288556	 0.3165841316	-2.3659054118	-0.251033
C	 2.6188211356	-0.3902678435	-2.7553119524	-0.137535
N	 3.6744646386	-0.3948538611	-1.7564351101	-0.248721
C	 3.530930289	-0.3201894359	-0.5095898222	 0.125881
O	 2.4365151078	-0.2513163075	 0.3136399352	-0.232441
C	 1.2039622581	-0.8381161889	-0.042200973	 0.083398
H	 1.0848469287	 1.9226800632	 0.1321004896	 0.132921
H	-0.6433303746	 2.1187317913	-0.2134315284	 0.117581
H	-0.0995016792	 1.6432588242	 1.4018191083	 0.121753
H	-0.9218343472	-0.4254426216	 0.2962753203	 0.088516
H	-0.021787126	-1.3194877774	-1.7890035173	 0.088802
H	 0.6990244332	 0.4696246446	-3.2612178657	 0.099689
H	 1.5523887161	 1.3137871925	-1.9837515683	 0.110532
H	 2.406441975	-1.4301734759	-3.0436282361	 0.108811
H	 3.0398235013	 0.0845900993	-3.6499133429	 0.106658
H	 4.4182168052	-0.2513532717	 0.1210656451	 0.117
H	 1.1153180199	-1.8446774295	 0.3591196859	 0.098444
