17
gdb 68648	2.52694	1.95882	1.5158	2.719	71.75	-0.2351	-0.0277	0.2073	914.9771	0.137423	-421.854109	-421.847126	-421.846182	-421.885063	29.048	
O	 0.0606422834	 1.3990498325	 0.0302883544	-0.510336
C	-0.0022587738	 0.0160105984	 0.0762441842	 0.320508
C	-1.3732925519	-0.7102306034	 0.0143874105	-0.273889
C	-0.739600624	-2.126070549	 0.099163896	-0.082807
C	 0.1874271364	-2.1094787141	-1.1584952535	-0.331482
C	 0.6794735695	-0.6603818859	-1.1330144447	 0.378326
O	 1.3912818355	-0.0700288116	-1.906384939	-0.349848
C	 0.1741836302	-1.9418757294	 1.3095433648	-0.081233
C	 0.6243935107	-0.6853718763	 1.2849831144	-0.138205
H	 0.6298324548	 1.6119711105	-0.726405591	 0.289165
H	-2.0004961246	-0.4645200434	 0.8736311597	 0.115418
H	-1.9203737288	-0.5284980394	-0.9171266631	 0.102446
H	-1.4278301725	-2.9693418761	 0.1373639807	 0.076725
H	 1.0072338156	-2.8296191541	-1.1214419284	 0.133143
H	-0.3652944061	-2.2768644897	-2.0897375139	 0.132001
H	 0.4666584084	-2.7352428881	 1.9855642977	 0.105924
H	 1.3640059473	-0.208901621	 1.9145956713	 0.114144
