21
gdb 102980	1.93899	1.33303	1.11287	1.4536	86.26	-0.2422	0.0449	0.2871	1265.049	0.179494	-387.044611	-387.033906	-387.032962	-387.08005	39.25	
C	-0.2450466779	 1.0809971714	-1.7062770143	-0.413944
C	-0.0321472157	-0.1609066765	-0.8676357876	-0.047089
C	 1.3160072625	-0.6324259725	-0.3827172465	-0.063362
C	 2.6219587251	 0.0666008431	-0.6982443676	-0.41746
C	 0.301552814	-0.0816969833	 0.6258368792	 0.068122
C	 0.5011506747	 1.271874781	 1.3020700365	-0.120673
O	-0.7302326515	 1.881534801	 1.6456545317	-0.422102
C	-0.3543542136	-1.0244810346	 1.4943132969	 0.26332
C	-0.9204247675	-1.7680820165	 2.2547687303	-0.458125
H	 0.5033014953	 1.8548339752	-1.5233030465	 0.118171
H	-0.2001397458	 0.8302602445	-2.7716990923	 0.11747
H	-1.2261949876	 1.5200406494	-1.5016693985	 0.136712
H	-0.7260724304	-0.9612815143	-1.1088792943	 0.09601
H	 1.4199262354	-1.7128531251	-0.3310331576	 0.09561
H	 2.5222792095	 1.1504973902	-0.7831152434	 0.121738
H	 3.3712415903	-0.1379807198	 0.0737898763	 0.125507
H	 3.021928287	-0.2982403698	-1.6507587021	 0.123115
H	 1.1411495438	 1.1373244345	 2.1877496787	 0.094529
H	 1.006270293	 1.9730058883	 0.6361288753	 0.10216
H	-1.2211942782	 1.241740037	 2.1750700411	 0.286659
H	-1.4078317925	-2.4449998032	 2.9117316947	 0.193631
