15
gdb 33290	6.33164	0.71551	0.71455	5.3329	88.11	-0.2609	-0.0532	0.2077	1547.3656	0.114182	-379.584812	-379.577318	-379.576374	-379.617482	28.125	
N	 0.0513787203	-3.6657868888	-0.0485515801	-0.331299
C	 0.0317186307	-2.5041568163	-0.0300663689	 0.128254
C	 0.0115961437	-1.1404313687	-0.0077963957	 0.563153
C	-0.005878534	 0.0686317333	 0.0134173264	-0.46856
C	-0.0054888339	 1.4993154539	 0.046844412	 0.211457
C	-0.6659513349	 2.4469782436	 1.0964763628	-0.223613
C	-0.0628446959	 3.3285501442	-0.0249566486	-0.054143
C	 1.2247493234	 2.464794204	 0.0280944702	-0.260593
N	-0.6954522294	 2.3581928303	-1.0163848501	-0.338601
H	-1.7536803598	 2.4023306238	 1.1316846169	 0.126957
H	-0.1962565727	 2.4882733748	 2.0793111129	 0.111775
H	-0.151436483	 4.4060236683	-0.1516559758	 0.101223
H	 1.8463562537	 2.5072741043	 0.9270326587	 0.110819
H	 1.8264576285	 2.4351302793	-0.88405871	 0.109199
H	-0.1276555666	 2.334422034	-1.8705252507	 0.213973
