21
gdb 75507	2.15772	1.88353	1.10444	1.6864	84.41	-0.2366	0.0198	0.2564	1146.7141	0.184447	-387.095033	-387.086828	-387.085884	-387.127769	31.96	
C	 0.1188690867	 1.5012852554	 0.095777471	-0.48481
C	 0.0392513672	 0.0052720498	-0.0224488676	 0.302382
C	-0.0594501472	-0.6499199787	-1.1826775437	-0.149523
C	-0.054580065	-2.1555634388	-1.2928572194	-0.260287
C	 0.7562500471	-2.7781032965	-0.144461429	-0.220212
C	 0.2482331223	-2.2879074439	 1.2127652241	-0.064299
C	 1.3214120255	-2.0078744242	 2.2867540656	-0.08781
O	 1.217740846	-0.5816489016	 2.0888122638	-0.302184
C	 0.0273455267	-0.759024117	 1.2668568069	 0.064572
H	 1.0262551892	 1.7920682387	 0.6376221249	 0.143968
H	 0.1307415149	 1.9827800168	-0.8857583545	 0.116198
H	-0.7288722295	 1.9023327946	 0.6664968765	 0.119442
H	-0.1188041464	-0.0817476167	-2.1091640404	 0.079402
H	-1.0814731233	-2.550614902	-1.292846084	 0.106692
H	 0.3751560313	-2.4525910117	-2.256188857	 0.101787
H	 0.7294305742	-3.8720566145	-0.1929609081	 0.092741
H	 1.8027033953	-2.4759359578	-0.2691504438	 0.106631
H	-0.6075916128	-2.8792884862	 1.5475083844	 0.07113
H	 1.0358504142	-2.2976024899	 3.3073053391	 0.093066
H	 2.3322741369	-2.3795761723	 2.0796217938	 0.100769
H	-0.8627779133	-0.4758313634	 1.8523127174	 0.070345
