19
gdb 51008	2.84967	1.24149	1.00512	4.5309	77.32	-0.2291	0.0312	0.2602	1219.554	0.159934	-419.186728	-419.178058	-419.177114	-419.220551	32.674	
O	-0.3349130982	 0.1739357968	 0.3700783171	-0.341409
C	-0.0441627066	 1.3099109254	 0.047026453	 0.149258
N	 1.2038794465	 1.8106544648	-0.1182782271	-0.366045
C	 2.4560822422	 1.1023640015	-0.0524676594	 0.399766
C	 2.617712365	-0.1657365857	 0.7458244826	-0.307241
C	 2.64245488	-0.2191897324	-0.7665597636	-0.312982
C	 3.6110155112	 2.0691538682	-0.0402641694	-0.067452
N	 3.3632361376	 3.4016811971	-0.6107862515	-0.3377
C	 3.6501906812	 3.2713785136	 0.8303908541	-0.24168
H	-0.8106068337	 2.0874951969	-0.1470632295	 0.074348
H	 1.2980806833	 2.7358708474	-0.5210907093	 0.259486
H	 3.5522122393	-0.2874717849	 1.2848685799	 0.105031
H	 1.7385295619	-0.5632634003	 1.2314237323	 0.160583
H	 1.7712025226	-0.6449961567	-1.2486804023	 0.139549
H	 3.5844215478	-0.3964150478	-1.2757002364	 0.106469
H	 4.5671693622	 1.5979647878	-0.2565237167	 0.090694
H	 4.1694560569	 3.745177261	-1.1226201832	 0.24072
H	 2.8089061928	 3.4946488705	 1.4796853085	 0.129229
H	 4.6154715278	 3.6034263669	 1.2020192807	 0.119378
