15
gdb 128638	6.72975	0.9257	0.82225	2.0054	64.8	-0.2498	0.0104	0.2602	1356.0396	0.112122	-491.071594	-491.063071	-491.062127	-491.105287	29.31	
C	 0.0068497135	 1.3678947471	-0.0285006185	-0.251629
O	 0.026228775	-0.0687664861	-0.0423574713	-0.248113
C	 0.6091968564	-0.6548750874	-1.0639629867	 0.538901
N	 0.716348786	-1.9380771141	-1.2347910639	-0.424985
C	 1.3902066484	-1.9776456907	-2.4250444844	 0.47063
O	 1.7013726633	-3.14861352	-2.9576936614	-0.240705
C	 2.4058446162	-3.0967433806	-4.2029199561	-0.243666
N	 1.6923060932	-0.8212434504	-2.9754919908	-0.25808
O	 1.1485495966	 0.0977419592	-2.0279807997	-0.232324
H	 1.0242138483	 1.7672948316	-0.0193236142	 0.152515
H	-0.5293896815	 1.75483146	-0.8987641083	 0.152521
H	-0.514358057	 1.6389734717	 0.8884166426	 0.153361
H	 1.8085249985	-2.5839281775	-4.9626278644	 0.145563
H	 3.3580308653	-2.5709370098	-4.0854803239	 0.145569
H	 2.576417688	-4.1343023931	-4.4888851091	 0.140443
