21
gdb 80007	2.90872	1.43849	1.37438	0.282	87.18	-0.2107	0.004	0.2147	1093.2719	0.183665	-349.956278	-349.948249	-349.947305	-349.988152	32.921	
C	-0.1468546618	 1.5126120578	-0.0001590727	-0.426065
C	 0.0786550449	 0.0056030745	 0.0026615515	 0.062551
C	 1.1679084276	-0.5810105855	-0.9646323523	-0.113662
C	 2.4341557524	-0.0256546442	-0.2838426069	-0.071314
C	 2.2165362512	-0.0549509754	 1.0305432117	-0.08171
C	 0.8031512817	-0.6274482806	 1.2425396676	-0.167769
C	 0.8319713123	-2.0988192499	 0.762468729	 0.355271
C	 0.6988251619	-3.2633284919	 1.6835898375	-0.511304
C	 1.0467795917	-2.0600317881	-0.5547256364	-0.20028
H	 0.7779336684	 2.0693693375	 0.1667750999	 0.119725
H	-0.5708131781	 1.8330167445	-0.9585947763	 0.109432
H	-0.8615059044	 1.7935578997	 0.7817622532	 0.108841
H	-0.8777822911	-0.498975496	-0.1683305292	 0.068003
H	 1.0628154897	-0.3678086056	-2.0290369785	 0.052302
H	 3.3318994838	 0.273363776	-0.8082062647	 0.094026
H	 2.8938042364	 0.2173820894	 1.8288941576	 0.093731
H	 0.3605970448	-0.4614835601	 2.2264311581	 0.049921
H	-0.2492699251	-3.2334858541	 2.2362029315	 0.122343
H	 0.7456564855	-4.2128122712	 1.1423675324	 0.122576
H	 1.4968566656	-3.264645812	 2.4385627155	 0.124062
H	 1.1721152028	-2.896609165	-1.2300727488	 0.089321
