25
gdb 113928	3.64148	0.67063	0.62181	1.4264	90.31	-0.2549	0.0734	0.3283	1937.3266	0.226985	-389.487197	-389.476073	-389.475129	-389.524141	40.878	
C	-0.0949879075	 1.5781927779	-0.5508594345	-0.372175
C	 0.0150900102	 0.2146718077	 0.1420368488	-0.193052
C	-1.3274900972	-0.4778084971	 0.2730717636	-0.000216
C	-1.8827946401	-1.3218900938	-0.8520150653	-0.294481
C	-1.4836588886	-1.9693372152	 0.455279611	-0.003211
C	-0.3120696814	-2.9267301456	 0.5266118508	-0.228387
C	-0.7318027671	-4.388123767	 0.3019672358	 0.147927
C	 0.4620244794	-5.3429420928	 0.2922363196	-0.403624
O	-1.7100206	-4.800871375	 1.2568351894	-0.430542
H	 0.8821500273	 2.0650954313	-0.6311129368	 0.107257
H	-0.5051001231	 1.4725608931	-1.5606619854	 0.117551
H	-0.7576068672	 2.2506536436	 0.0052697701	 0.112564
H	 0.7117372783	-0.4188961366	-0.4187614856	 0.09243
H	 0.459379356	 0.3476215035	 1.1377736075	 0.093025
H	-2.0633758417	 0.1212516728	 0.8067730405	 0.075757
H	-2.9347053628	-1.246573398	-1.1051689626	 0.107272
H	-1.2342673752	-1.4903812655	-1.7079342257	 0.101136
H	-2.3073427301	-2.2754479723	 1.0932641484	 0.0915
H	 0.4519040975	-2.663010175	-0.2138484398	 0.092692
H	 0.1782311797	-2.8564457631	 1.5105537563	 0.080649
H	-1.2539213388	-4.4553145248	-0.6604484968	 0.091276
H	 1.0152168584	-5.2838854072	 1.2385545301	 0.104016
H	 0.1224493707	-6.3737722361	 0.1598223187	 0.122736
H	 1.1603624833	-5.0995235524	-0.5152191643	 0.114199
H	-1.28599134	-4.8001473525	 2.1226655965	 0.2737
