15
gdb 28732	5.45771	0.95693	0.81552	3.9605	74.98	-0.1781	0.0034	0.1814	1322.3869	0.113412	-453.993092	-453.984772	-453.983828	-454.026446	30.358	
N	-0.7426713945	 1.139672423	 1.0675935588	-0.595122
C	-0.2540225801	 0.063405174	 0.3351157078	 0.354203
C	-0.6739868751	-0.616114483	-0.7642368392	-0.246589
C	 0.2283362121	-1.7294958109	-0.9284832996	-0.248406
C	 1.1268992536	-1.6192675235	 0.0788723301	 0.437373
N	 2.2529698472	-2.3291870379	 0.4786999536	-0.408525
C	 2.7720001608	-3.4109120365	-0.1762045497	 0.139386
O	 2.321936044	-3.8872886743	-1.1949806979	-0.306767
O	 0.851550702	-0.5373009287	 0.8711547624	-0.218669
H	-0.0201613931	 1.8056126882	 1.3188144281	 0.252676
H	-1.4894639713	 1.613696114	 0.5775606986	 0.255529
H	-1.5144968533	-0.3638082425	-1.3906426331	 0.099006
H	 0.2258931992	-2.490428533	-1.6879988529	 0.13955
H	 2.6934239766	-2.022178733	 1.3325761267	 0.262693
H	 3.6645084518	-3.804833786	 0.3452204863	 0.083663
