18
gdb 116268	1.89244	1.58193	0.92827	1.9322	71.6	-0.2717	0.0269	0.2986	1228.5467	0.148677	-439.093535	-439.084688	-439.083743	-439.128008	31.825	
O	-0.0982583841	 1.4245063572	-0.2170936125	-0.425411
C	 0.045413017	 0.0124963496	-0.201116845	-0.107693
C	-1.342723104	-0.5541632394	 0.0699402204	-0.015519
C	-2.3709200389	-0.145620292	-1.0165262834	-0.084134
O	-3.2127336928	-1.2732046568	-1.2170850177	-0.236044
C	-2.3712649001	-2.3985484161	-1.1571063747	-0.096155
C	-1.44277202	-2.1190737496	 0.0603278024	-0.187874
C	-0.1726951517	-2.8303836413	-0.01771169	 0.274039
N	 0.8285429337	-3.4040286304	-0.0918748545	-0.335721
H	 0.7581770781	 1.8145068434	-0.4150296017	 0.293416
H	 0.4221216848	-0.3649338796	-1.1652021103	 0.101328
H	 0.750987462	-0.314529365	 0.5759573784	 0.11082
H	-1.6692805061	-0.1861783157	 1.0455372753	 0.103947
H	-2.9980336139	 0.6975523408	-0.7253670145	 0.127762
H	-1.8470853989	 0.1153606854	-1.9492332183	 0.102067
H	-2.9842640362	-3.2929252587	-1.0316906083	 0.129138
H	-1.7668678162	-2.5042397021	-2.071905433	 0.109204
H	-1.9506897929	-2.4485422697	 0.9709602074	 0.136829
