23
gdb 114204	3.09066	1.03714	0.87467	1.8025	86.06	-0.2547	0.0732	0.3279	1431.8157	0.204434	-388.268765	-388.258986	-388.258042	-388.303443	36.882	
C	 0.024821881	 1.5536573145	-0.166248753	-0.380723
C	 0.04095643	 0.0305006501	 0.0049264856	-0.198074
C	-1.3599323781	-0.5643357567	 0.0896285443	 0.047645
C	-2.2640658507	-0.531853947	-1.1842849131	-0.342043
C	-2.7147634808	-1.9452436227	-0.822574131	 0.475918
C	-4.0699550928	-2.4922946961	-0.7570102827	-0.269834
O	-3.132534344	-2.9289688233	-1.7532742579	-0.275789
C	-1.55663502	-2.1231229367	 0.1711218045	-0.131227
C	-0.4245484467	-2.9950803061	-0.3699880378	-0.39061
H	 1.0400005347	 1.9583627069	-0.2232970823	 0.111906
H	-0.5008810207	 1.8441095284	-1.082292637	 0.119746
H	-0.4821267277	 2.0412282214	 0.6739973622	 0.112969
H	 0.5879888487	-0.4224761912	-0.8307334214	 0.096777
H	 0.6005179217	-0.2286327695	 0.913393532	 0.094954
H	-1.893628688	-0.0969017822	 0.9251667144	 0.069309
H	-3.0297977859	 0.2442805314	-1.2538513298	 0.102162
H	-1.6738059668	-0.5267843612	-2.1070753216	 0.110191
H	-4.3222637237	-3.2326402966	 0.0020815529	 0.111506
H	-4.9107285117	-1.9101316803	-1.1337287477	 0.111714
H	-1.8534240219	-2.485033755	 1.1610342851	 0.067628
H	-0.1087489357	-2.6831900517	-1.3704518245	 0.119288
H	 0.4502194063	-2.9644477683	 0.2870406343	 0.111911
H	-0.7576784473	-4.0342265783	-0.4472924756	 0.124674
