18
gdb 77775	2.52054	1.53708	1.34205	3.2113	78.4	-0.2306	-0.0645	0.166	1051.4668	0.146747	-401.946878	-401.938459	-401.937515	-401.979479	32.151	
C	-0.2225957849	 1.49942332	-0.0022949032	-0.325271
N	 0.0452836449	 0.0713247306	 0.0972830891	-0.125833
C	 1.3740487968	-0.4893786193	-0.1769060716	-0.211437
C	 2.6002124581	 0.4133711304	-0.0763046357	 0.391796
O	 3.3878275287	 0.6497135859	-0.9614945754	-0.323055
C	 2.6497437882	 0.9030733879	 1.332565754	-0.208105
C	 1.6547526375	 0.3483466506	 2.0371138732	-0.114298
C	 0.7878673844	-0.555279255	 1.200158263	 0.284659
C	 0.1724632577	-1.7805331536	 1.8293825647	-0.476226
H	 0.5594758662	 2.1560259734	 0.4019341669	 0.113282
H	-0.3647806147	 1.7443611062	-1.0587772477	 0.135831
H	-1.1582968965	 1.7122188727	 0.5241076067	 0.125293
H	 1.4103776089	-1.3214719927	-0.8738913699	 0.107839
H	 3.3808459696	 1.6244127159	 1.6751588797	 0.122069
H	 1.4411685697	 0.5344426252	 3.084711981	 0.118112
H	-0.5066030846	-1.5001669874	 2.6430018544	 0.122062
H	-0.4028018449	-2.334478452	 1.0847111042	 0.138
H	 0.9422050248	-2.4387143687	 2.2458679564	 0.125282
