19
gdb 108441	2.2452	1.72699	1.21126	1.6874	76.52	-0.2253	0.0255	0.2508	1090.9779	0.160101	-419.179375	-419.170843	-419.169899	-419.212605	32.148	
C	-0.1487518446	 1.4622115917	-0.0478735614	-0.343008
N	-0.0241805337	-0.0015825793	-0.0587807125	-0.369111
C	 0.7427594794	-0.5032489637	-1.158580447	 0.230432
C	 0.1241020461	-0.340415487	-2.5861710387	-0.268287
C	 0.330672898	-1.8636763527	-2.857756434	-0.236549
C	 0.9857424962	-2.0132167134	-1.4746499997	 0.044427
O	 2.4269283554	-1.7644647574	-1.5287575879	-0.275461
C	 2.2665453808	-0.4332570071	-1.1821091847	 0.373244
N	 3.121018452	 0.4521250058	-0.9349596935	-0.555127
H	 0.8157328187	 1.9878389381	-0.0264114636	 0.13964
H	-0.6953936189	 1.7858742592	-0.9392448	 0.125906
H	-0.7352448099	 1.7587925962	 0.826011349	 0.118409
H	 0.4064568213	-0.2990274615	 0.8120485192	 0.223021
H	-0.9294641028	-0.063514905	-2.5229524225	 0.121072
H	 0.6404766474	 0.3548886915	-3.2493313169	 0.117794
H	-0.6082451799	-2.413886871	-2.9508760448	 0.114267
H	 0.985056152	-2.1329984524	-3.6886779262	 0.119413
H	 0.7488956481	-2.8476268654	-0.815190643	 0.093862
H	 4.0731112542	 0.0915591034	-1.0256565718	 0.226057
