9
gdb 350	9.53061	2.46518	1.98316	4.0593	41.61	-0.3197	-0.0717	0.248	575.2916	0.06048	-321.254976	-321.248781	-321.247837	-321.285034	19.572	
C	-0.0331603753	 1.3868373475	 0.0428569364	-0.249607
O	 0.0259235346	-0.0513599324	-0.0348443884	-0.211334
C	 0.6380322779	-0.5340798509	-1.1140859009	 0.365075
O	 1.1331894655	 0.0981644041	-2.0058172642	-0.327085
C	 0.6329618795	-2.0023759647	-1.0784405755	 0.256287
N	 0.6591526981	-3.1564392392	-1.1039712486	-0.302738
H	 0.9755820126	 1.8046717745	 0.0680552169	 0.157552
H	-0.5688976665	 1.789484515	-0.8193865759	 0.157791
H	-0.5659453965	 1.6035685461	 0.9670750201	 0.154058
