16
gdb 52368	6.01587	0.54093	0.50685	1.9587	72.2	-0.2633	-0.0937	0.1697	1999.7776	0.120765	-437.91502	-437.905102	-437.904158	-437.952056	32.653	
O	-0.5664470999	 0.7791857103	 0.8842156044	-0.229263
C	 0.0593139236	 1.005757657	-0.11734937	 0.161376
C	 1.3381170505	 1.8151166846	-0.1739665828	-0.287161
C	 1.2490128022	 2.9509050555	-1.2055383413	-0.203922
C	 2.566118956	 3.715390502	-1.3358502755	-0.307051
C	 2.5040288787	 4.8367506436	-2.3475013654	 0.287006
O	 1.5400822801	 5.1241805144	-3.0095429592	-0.258601
C	 3.7626034422	 5.6047814295	-2.4909107176	 0.230433
N	 4.753443421	 6.1923499684	-2.5906011795	-0.290353
H	-0.2788838758	 0.6167522243	-1.1067886377	 0.076935
H	 1.55529981	 2.1910616239	 0.8302608498	 0.128132
H	 2.1472520018	 1.1261828615	-0.4594568094	 0.12373
H	 0.9672070626	 2.5493231637	-2.1852728021	 0.128289
H	 0.4534815648	 3.649153966	-0.9252772049	 0.13674
H	 2.8797120981	 4.1509660844	-0.3765374359	 0.15367
H	 3.393630904	 3.0526799607	-1.6279495329	 0.150039
