18
gdb 53306	3.10293	0.82171	0.68221	4.1113	84.66	-0.2394	0.0268	0.2661	1640.7558	0.145961	-401.938404	-401.928424	-401.92748	-401.975446	34.363	
C	 0.0035233701	 1.4859701287	 0.0549412192	-0.500208
C	 0.0064187689	 0.0296412061	 0.0352900855	 0.077316
C	 0.0432349805	-1.1762854972	 0.0318248926	 0.057079
C	 0.0480421891	-2.6105863317	 0.0048060089	-0.234666
C	-0.4739286979	-3.4040551455	 1.19995539	-0.298321
C	-1.2748860898	-3.3561774259	-0.0703474328	 0.075167
N	-2.4683374953	-2.5759799419	-0.1503394109	-0.288296
C	-3.6997245832	-3.1388317895	-0.2670934342	 0.150012
O	-3.9235539137	-4.3307242184	-0.2552852311	-0.323759
H	 1.0167769456	 1.8782767635	 0.194991963	 0.154991
H	-0.3860336915	 1.9013888038	-0.8810167587	 0.149986
H	-0.6147388032	 1.8714878427	 0.8730934109	 0.150834
H	 0.8675761765	-3.0591611106	-0.5485221136	 0.119746
H	 0.0375674246	-4.3256293982	 1.4535499062	 0.126527
H	-0.8434103736	-2.8298351129	 2.0410301807	 0.129754
H	-1.3147466112	-4.2532379861	-0.677467078	 0.130196
H	-2.3663151478	-1.5741100145	-0.2330980044	 0.251306
H	-4.491169178	-2.3711592126	-0.3808855334	 0.072334
