20
gdb 36631	5.44678	0.68401	0.64238	4.2848	86.98	-0.2435	0.0118	0.2553	1733.2386	0.172165	-366.051972	-366.042927	-366.041983	-366.086901	32.779	
N	-0.1294272704	-1.143638043	-0.1041468151	-0.305208
C	-0.090306552	 0.0103602819	-0.1535538946	 0.257575
C	-0.0156177854	 1.468217322	-0.2064261976	-0.333119
C	 1.3837709166	 2.0043296076	 0.1934166619	-0.315716
C	 1.4599449443	 3.5010078224	 0.1248252942	 0.344103
C	 1.6168534001	 4.3340968891	 1.1560904372	-0.172228
C	 1.7162718103	 5.7782288219	 0.7322875838	-0.24368
C	 1.2645522025	 5.7371388821	-0.7508341979	-0.203383
C	 1.433609397	 4.2615454128	-1.1897628775	-0.30439
H	-0.2742425857	 1.7917899057	-1.2202942673	 0.154201
H	-0.776550461	 1.8847077994	 0.4624647399	 0.155724
H	 1.6158945668	 1.6596378094	 1.2054073335	 0.125038
H	 2.127313888	 1.55372692	-0.4759941941	 0.124524
H	 1.7146894585	 4.0194205676	 2.1904050324	 0.088753
H	 1.0972194443	 6.4472434849	 1.3405620122	 0.104803
H	 2.7492050314	 6.1402292812	 0.8369269953	 0.108463
H	 0.2079233021	 6.0151633676	-0.8151332202	 0.106296
H	 1.8194831305	 6.4332457715	-1.3842782087	 0.100698
H	 2.3754105978	 4.0984382948	-1.734152637	 0.108312
H	 0.6352999141	 3.9365315011	-1.8675246905	 0.099237
