20
gdb 105694	2.81536	1.00172	0.83744	3.6777	76.98	-0.248	0.0345	0.2825	1422.5235	0.169373	-440.284978	-440.274989	-440.274045	-440.321623	35.433	
C	 0.8364361064	 0.0900042265	 1.0264343628	-0.254272
O	-0.0474602113	 0.1002939218	-0.0822947077	-0.291744
C	-1.2334946396	-0.6325590899	 0.1041429601	 0.420565
C	-2.2512496301	 0.0662376973	 0.9810354628	-0.225284
N	-2.5707037138	 1.379318137	 0.4434127799	-0.270232
C	-3.8436872304	 1.7958957565	 0.2218263652	 0.154964
O	-4.8455522073	 1.1822323735	 0.5274936677	-0.328353
C	-1.6920702414	-1.3821597609	-1.1075688711	-0.310124
C	-1.147319028	-2.1361603399	 0.0911957158	-0.329478
H	 1.7316702684	 0.6355108427	 0.7194374606	 0.130514
H	 0.408268297	 0.5866921487	 1.9079958618	 0.112011
H	 1.1184270367	-0.9331420153	 1.3083213969	 0.114306
H	-3.1840950212	-0.4990372065	 1.0266963912	 0.145399
H	-1.8758887482	 0.1577148655	 2.0093699877	 0.109001
H	-1.8050229788	 1.9165692793	 0.0666843548	 0.253592
H	-3.8705212678	 2.7877837046	-0.2715097823	 0.073444
H	-2.7559613106	-1.4243255909	-1.3122114152	 0.129047
H	-1.0560987207	-1.3209504603	-1.9827955166	 0.125063
H	-0.1605901682	-2.5742311296	-0.0091002615	 0.120927
H	-1.834619311	-2.7036748801	 0.709295137	 0.120654
