21
gdb 89450	2.28596	1.81166	1.29717	1.4087	83.14	-0.2383	0.0199	0.2582	1081.3489	0.182562	-387.102121	-387.093677	-387.092733	-387.134684	33.472	
C	-0.7291449569	 1.2261485057	-0.0553065733	-0.410195
C	 0.0986098532	-0.0406563153	-0.0134851182	 0.154718
O	 1.2998132561	 0.0492739234	-0.8165820859	-0.3457
C	 2.126240206	-0.5082473012	 0.2441649732	 0.445423
C	 2.6544918535	-1.8801013423	-0.1298976471	-0.460201
C	 3.1980691745	 0.5038959159	 0.703544012	-0.309145
C	 2.5365715427	 1.2217048945	 1.8549551084	-0.065343
C	 1.3319075318	 0.7299381424	 2.1514378105	-0.081176
C	 0.9374897583	-0.4016456699	 1.2468764869	-0.18464
H	-0.1555710364	 2.0799801028	 0.3143695627	 0.124333
H	-1.037232463	 1.4350999849	-1.0847910208	 0.124283
H	-1.6331466254	 1.1162449366	 0.5541023343	 0.110503
H	-0.5111828706	-0.8953601136	-0.3436581638	 0.065719
H	 3.3430791398	-1.803605399	-0.9782558125	 0.124572
H	 3.1948504902	-2.3318559325	 0.7089533082	 0.114671
H	 1.83796908	-2.5496024915	-0.4168229381	 0.117387
H	 4.1338360218	 0.0167373608	 1.0094648611	 0.097945
H	 3.4442620003	 1.1743601322	-0.128664781	 0.120042
H	 3.0156212445	 2.0426778716	 2.3782538107	 0.093354
H	 0.6905214727	 1.0976614124	 2.9452233686	 0.093078
H	 0.6173818968	-1.3038033777	 1.7757638941	 0.070374
