19
gdb 60924	2.30492	1.25562	1.01239	4.5415	72.06	-0.2349	-0.0084	0.2265	1241.9968	0.156212	-460.140856	-460.130883	-460.129939	-460.176469	35.929	
C	 0.066105148	 1.4970004914	 0.0836685199	-0.411425
C	 0.0044066223	-0.0419398764	 0.0019008303	-0.079738
C	 0.7667066906	-0.6184298861	 1.1921109369	 0.177092
O	 1.9650318322	-0.7227015862	 1.2282108171	-0.265445
C	-1.4331241946	-0.5387040049	-0.0449092792	-0.116619
C	-1.9626199263	-1.2763679534	-1.2563222518	 0.01263
O	-1.0334121281	-1.5068641824	-2.2858464913	-0.419238
C	-1.7179559541	-2.0321392243	 0.0244825945	 0.072657
O	-0.6384587177	-2.9151739075	 0.0590908218	-0.422299
H	 1.1054678963	 1.8350907858	 0.0877676403	 0.136396
H	-0.444668069	 1.944583011	-0.7738975844	 0.125358
H	-0.4175702502	 1.8669648562	 0.9950239216	 0.117703
H	 0.5465928088	-0.3516957786	-0.895333607	 0.116586
H	 0.1344495985	-0.8954973648	 2.0664134765	 0.073149
H	-2.1598217132	 0.1038097457	 0.4456982942	 0.091424
H	-2.9759970055	-1.0671453397	-1.5915938419	 0.097389
H	-1.3839314478	-2.2051802108	-2.8499085576	 0.300502
H	-2.5546824919	-2.3894201408	 0.6163226471	 0.104242
H	-0.2003125484	-2.8484487742	-0.8011654671	 0.289637
