18
gdb 124704	3.79516	1.03462	0.88449	2.5201	72.93	-0.2598	0.0082	0.268	1303.5949	0.149204	-435.28647	-435.277756	-435.276812	-435.320748	31.404	
C	 0.0253339235	 1.5923479817	 0.1026954039	-0.415395
C	-0.0358789704	 0.0688837647	 0.0739012128	 0.028571
C	 0.7117774106	-0.5613537274	 1.2676814958	-0.076203
O	 2.0857255234	-0.2216281662	 1.2616613686	-0.406726
N	-1.4101829017	-0.4284210313	 0.0464753931	 0.03581
C	-2.5815035289	 0.1682148093	 0.3560863934	 0.019221
N	-3.5860772802	-0.6820557462	 0.2319117729	-0.283417
C	-2.9570417998	-1.8200773584	-0.1635195329	 0.035778
N	-1.6434147802	-1.7232725612	-0.2904620529	-0.252771
H	 1.0747274395	 1.8916207328	 0.1242196267	 0.147504
H	-0.4526995831	 2.0338807361	-0.7757090882	 0.130027
H	-0.4497629332	 1.9953307438	 1.0031682893	 0.127855
H	 0.4313092868	-0.2978258654	-0.8475167797	 0.104386
H	 0.2966610507	-0.1668426965	 2.2021654361	 0.117344
H	 0.5500872232	-1.6459060522	 1.2571155301	 0.124355
H	 2.5251702094	-0.7639145714	 0.5990104893	 0.291595
H	-2.6596828177	 1.202024437	 0.6513733874	 0.1447
H	-3.478386842	-2.7432903392	-0.3688031156	 0.127367
