19
gdb 66205	2.25096	1.47515	1.36515	1.0755	81.42	-0.2414	0.026	0.2674	1082.7971	0.158703	-385.870942	-385.862215	-385.861271	-385.903744	34.342	
O	-0.0792176602	 1.401901913	-0.0083718545	-0.460261
C	 0.0316813778	-0.0234504422	 0.0381062479	 0.188859
C	-1.410834805	-0.5588054634	 0.0529829493	-0.219673
C	-1.4545328199	-2.0914416385	 0.0711541975	-0.268462
C	-0.4858567514	-2.6977531835	-0.9083500783	-0.037125
C	 0.4980029897	-2.010515104	-1.4857124779	-0.0503
C	 0.7595557335	-0.5500930339	-1.2228383223	-0.290975
C	 0.7542737941	-0.4263235602	 1.2542749192	 0.342117
C	 1.3670418593	-0.7208744418	 2.2462461169	-0.518513
H	 0.7986666196	 1.7690220306	 0.1430307653	 0.279537
H	-1.937087977	-0.1356239453	 0.9124964245	 0.110919
H	-1.8971436889	-0.1765288092	-0.8514106377	 0.109655
H	-1.2309977733	-2.4615317621	 1.081636748	 0.121106
H	-2.4738604945	-2.4309726913	-0.1497884786	 0.104335
H	-0.6074381373	-3.7546904183	-1.1325785396	 0.08486
H	 1.1649944986	-2.5042441189	-2.1880171331	 0.085079
H	 0.4172632972	 0.0633493055	-2.0670095845	 0.117473
H	 1.8372521324	-0.369143485	-1.1267123313	 0.101979
H	 1.9022604053	-0.9845024915	 3.125038199	 0.199392
