19
gdb 86646	3.39656	1.15633	0.89037	5.1855	78.5	-0.2464	-0.0208	0.2257	1300.1763	0.160678	-419.263059	-419.254442	-419.253497	-419.296391	32.162	
C	-0.1589685773	 1.5272355421	-0.0497023612	-0.41046
C	 0.1160038642	 0.0310705644	 0.0607052497	 0.012789
C	 0.8288678991	-0.5679289004	-1.1660902513	-0.187338
N	 1.4585652727	-1.7823499775	-0.6369865365	-0.10538
C	 1.8440016971	-2.8261801275	-1.4347800662	 0.153335
O	 2.3834312289	-3.8440733628	-1.0561055164	-0.315692
C	 1.6151418118	-1.7225409746	 0.7802365465	 0.378636
N	 2.1152115132	-2.588405988	 1.5525137498	-0.534395
C	 1.0499745604	-0.3840812949	 1.2115722392	-0.290809
H	 0.772821055	 2.0914874298	-0.1695560172	 0.120914
H	-0.801838308	 1.7536406147	-0.9069181557	 0.120154
H	-0.6608215863	 1.8991280271	 0.8486372203	 0.12756
H	-0.8348021298	-0.5025578363	 0.1840528514	 0.093851
H	 0.1468205164	-0.8083810107	-1.986378001	 0.123802
H	 1.5892712826	 0.127589648	-1.5479806782	 0.11596
H	 1.5986793463	-2.6428268051	-2.4993130501	 0.085928
H	 2.4396204636	-3.3977583857	 1.0216286019	 0.251318
H	 1.8748294654	 0.3345162266	 1.3109755065	 0.12375
H	 0.5632100549	-0.4615469792	 2.1844449785	 0.136078
