19
gdb 117904	3.49595	0.87497	0.75115	5.2237	79.6	-0.2656	-0.0473	0.2183	1535.2863	0.157788	-419.247175	-419.236737	-419.235792	-419.283638	35.74	
C	 0.0866902777	 1.531849353	 0.0191851084	-0.381331
C	 0.0652242483	 0.0021342322	-0.0284643015	-0.176544
C	-1.3641444397	-0.551322715	 0.0312835656	-0.165318
N	-1.4177278499	-2.0152301576	 0.0215400972	-0.098364
C	-1.3613382785	-2.7069334669	 1.298813864	-0.36125
C	-1.4724713249	-2.6312700281	-1.1859682544	 0.360699
O	-1.4789970039	-2.0650145453	-2.263125911	-0.365443
C	-1.537101223	-4.1081785678	-1.1459294829	 0.211208
N	-1.5882624773	-5.2616620181	-1.2001329999	-0.332604
H	 1.1113185587	 1.9107745143	-0.0295361139	 0.123314
H	-0.4676965092	 1.9618443451	-0.8217162509	 0.127497
H	-0.3643114971	 1.9096626326	 0.9436211708	 0.116309
H	 0.532685504	-0.3528634772	-0.9528574588	 0.128893
H	 0.6532209383	-0.4045089209	 0.8036135914	 0.100221
H	-1.8711755829	-0.2106848048	 0.941014728	 0.107411
H	-1.9339439643	-0.1960186492	-0.8305417127	 0.146422
H	-1.368797412	-3.7862436822	 1.1466229698	 0.176053
H	-0.4473438823	-2.4405414283	 1.8410648634	 0.141722
H	-2.2234314521	-2.4350906957	 1.9185431273	 0.141105
