25
gdb 111496	2.49259	1.30586	1.06709	0.2401	91.34	-0.2582	0.0756	0.3337	1295.5529	0.230533	-352.363413	-352.354058	-352.353113	-352.397002	37.028	
C	 0.30931965	 0.9675244692	-0.3560745638	-0.385411
C	 0.0170158208	-0.4988196638	-0.0176480343	-0.182992
C	-1.474451187	-0.8094919512	 0.1784488089	 0.02882
C	-1.8160995509	-2.2964821914	 0.1661543624	-0.041037
C	-1.6031598158	-3.1244026238	 1.4115825509	-0.295541
C	-2.9630636335	-2.5403811813	 1.1153614627	-0.032808
C	-3.3375531179	-1.2103377629	 1.7547009772	-0.229842
C	-2.1656298846	-0.2242478773	 1.4611114934	-0.008099
C	-1.2639948672	 0.0052201773	 2.6855938053	-0.406703
H	 1.3808158834	 1.1343642965	-0.5057592769	 0.109672
H	-0.2042711178	 1.2654624737	-1.2773726353	 0.11117
H	-0.0232346172	 1.6461549755	 0.4359688638	 0.116916
H	 0.3907224943	-1.1280994181	-0.835546963	 0.089454
H	 0.5836014825	-0.8012701294	 0.8707356604	 0.09545
H	-2.0029025334	-0.3768245392	-0.6845124855	 0.064845
H	-1.761863222	-2.8076974324	-0.7901526459	 0.073712
H	-1.4907060437	-4.1941489846	 1.2677006729	 0.10496
H	-1.0152308736	-2.7360901923	 2.2341139224	 0.10857
H	-3.7647586444	-3.2257789685	 0.8613271288	 0.075067
H	-4.2611748541	-0.8456948867	 1.2898202467	 0.093468
H	-3.5376037819	-1.2905076589	 2.8297594946	 0.091276
H	-2.58512833	 0.7553815889	 1.2086095092	 0.072052
H	-0.78582834	-0.9078148419	 3.050015522	 0.120778
H	-0.4711046831	 0.7297943557	 2.4784766276	 0.115856
H	-1.8624792329	 0.4062648969	 3.5107356054	 0.110369
