21
gdb 108001	3.5133	1.46069	1.31378	0.1558	84.71	-0.2344	0.0902	0.3246	1066.8736	0.183751	-349.888112	-349.880633	-349.879689	-349.919854	30.952	
C	 0.0872506141	 1.5367043219	 0.124916442	-0.386343
C	-0.074399023	 0.0227804088	-0.051959434	-0.300416
C	-1.5042809464	-0.4668417183	-0.0248388644	 0.365804
C	-2.6494439772	 0.1119819036	-0.9030785728	-0.295123
C	-3.5866236935	-0.5287842952	 0.1474252724	-0.057601
C	-3.2707691765	-2.0428416435	 0.1762408543	-0.074698
C	-2.3980417492	-1.9573987699	 1.4093758223	-0.104561
C	-1.7490075878	-1.9989920483	 0.0434796094	-0.121027
C	-2.4583237414	-0.4105118005	 1.2413825243	-0.102176
H	 1.1446934481	 1.8181943067	 0.137980529	 0.110283
H	-0.3930547973	 2.0897234645	-0.688501495	 0.117884
H	-0.3585786625	 1.876377304	 1.0660869751	 0.114514
H	 0.3875195619	-0.2850993286	-1.0011132649	 0.093635
H	 0.4859572352	-0.4987233528	 0.7360494276	 0.097256
H	-2.6853432625	 1.2054281388	-0.8565300559	 0.09349
H	-2.7259045512	-0.2176607216	-1.9447528654	 0.086196
H	-4.6139397588	-0.2010125154	 0.3013660188	 0.060433
H	-3.8666754748	-2.8721049012	-0.1819427619	 0.081225
H	-2.3047055614	-2.6147890276	 2.2633897072	 0.081754
H	-1.1723633982	-2.7919245098	-0.4164927165	 0.076591
H	-2.4199555274	 0.3557639841	 2.0122753784	 0.06288
