11
gdb 23758	3.33867	2.26153	1.34826	1.1562	55.13	-0.2673	-0.0313	0.236	789.8713	0.072672	-446.697571	-446.691773	-446.690829	-446.727628	21.812	
F	 0.023253451	 0.0185144815	 0.003243761	-0.051001
C	-0.0205205974	 1.3442462192	 0.0108230008	 0.200905
C	-1.2247083773	 2.0267102065	 0.0302235266	-0.253474
C	-1.1834651475	 3.4196992053	 0.0370421474	 0.01551
N	-0.0546697769	 4.1310418385	 0.0259971237	-0.260432
C	 1.0984341853	 3.4590242591	 0.00732612	-0.091542
C	 1.165230044	 2.073558124	-0.0008747199	 0.114529
F	 2.3352919465	 1.4415736225	-0.0195679809	-0.057303
H	-2.1593238467	 1.4791248381	 0.0395885459	 0.127632
H	-2.1102598485	 3.9862231906	 0.0521917612	 0.122389
H	 2.0224672375	 4.0310858846	-0.0017748157	 0.132788
