18
gdb 26235	3.71122	1.03715	0.83749	1.4072	75.86	-0.1817	0.0458	0.2275	1350.9403	0.147388	-439.120317	-439.111142	-439.110198	-439.154286	34.575	
C	 0.2426982955	 1.268716784	 1.0046967173	-0.397369
C	-0.1474838939	 0.3038184844	-0.113464333	 0.003242
O	 0.7459450484	-0.8191302798	-0.1852280043	-0.433998
C	-1.5663409582	-0.1639374456	-0.0091788699	 0.283894
C	-2.6541448992	 0.2550024013	 0.7178071307	-0.232268
C	-3.7724046564	-0.5657493648	 0.368290127	-0.304158
C	-3.3122543348	-1.4652156969	-0.5646582759	 0.372524
O	-3.8937869997	-2.4910000155	-1.2371463468	-0.435191
N	-1.9942798701	-1.2198591002	-0.8025239861	-0.338139
H	 1.2940691983	 1.5466035935	 0.8984986411	 0.121843
H	-0.3645462853	 2.1781887714	 0.9688337837	 0.123891
H	 0.0991994765	 0.8040733081	 1.9862806267	 0.113009
H	 0.0140263645	 0.8052916835	-1.078110203	 0.095479
H	 0.6237308249	-1.3243452374	 0.6276380306	 0.275495
H	-2.6660101431	 1.0750675768	 1.4190127382	 0.091976
H	-4.7780273984	-0.5017423992	 0.7542882473	 0.085235
H	-4.8103666012	-2.5550379342	-0.9530451536	 0.306977
H	-1.3876835077	-1.7829033093	-1.3745936801	 0.267557
