19
gdb 51087	4.22557	1.06196	1.01573	2.7239	77.23	-0.2351	0.0172	0.2523	1227.1499	0.16126	-419.165538	-419.157701	-419.156757	-419.198582	30.143	
N	-0.0926518264	 1.2849874176	-0.0666287745	-0.442165
C	-0.0740154841	 0.0367785567	 0.1149938161	 0.108118
O	-1.1463408682	-0.7087081659	-0.2252398921	-0.245594
C	-1.0249227466	-2.1030236752	-0.0955274738	 0.409843
C	-0.6494080998	-2.8534938396	 1.213930114	-0.238901
N	-1.3933537863	-4.016347211	 0.5901104008	-0.127607
C	-2.299866139	-2.9609135149	-0.0169816063	-0.227912
C	-0.5029038603	-4.29801643	-0.5856951904	-0.163259
C	-0.1957399722	-2.8727885312	-1.1442523525	-0.285586
H	 0.7790392	 1.696108703	 0.2611537939	 0.229873
H	 0.7464836956	-0.546443965	 0.5529573061	 0.089275
H	 0.4013372482	-3.0482533293	 1.4464632161	 0.101778
H	-1.1816295123	-2.4896424091	 2.0950499511	 0.120427
H	-3.0202755398	-2.6060680836	 0.7218666776	 0.120286
H	-2.8022339312	-3.2507230267	-0.9433639004	 0.107939
H	 0.3880222874	-4.8314066797	-0.2465024902	 0.111308
H	-1.0348214685	-4.9337023128	-1.2968615441	 0.114431
H	-0.5670833901	-2.7041467142	-2.1580321918	 0.115928
H	 0.8655654535	-2.610564699	-1.1174711697	 0.101817
