19
gdb 52822	2.43871	1.00905	0.98791	2.6096	85.92	-0.2273	-0.0216	0.2057	1387.772	0.156005	-385.881841	-385.871525	-385.870581	-385.919331	35.86	
C	-0.0297391949	 1.4643766043	-0.0784603172	-0.498947
C	 0.0286529771	 0.0101874145	-0.0416868175	 0.038669
C	 0.081691679	-1.1937471803	-0.0173737728	 0.071365
C	 0.1157855997	-2.6473851355	 0.0119473327	 0.013762
C	 1.0720791029	-3.2355833528	-1.0313557759	-0.442166
C	 0.1947377919	-3.2343888675	 1.4746497357	-0.267691
C	-1.3287817853	-3.5536440371	 1.4612866006	-0.333212
C	-1.3347154044	-3.2414904766	-0.0388354316	 0.376528
O	-2.0854337233	-3.461429756	-0.9402191165	-0.291532
H	 0.7565420019	 1.8772277223	-0.7200930742	 0.149921
H	-0.9922610469	 1.8134426036	-0.4685935848	 0.151733
H	 0.0988099646	 1.8945164809	 0.9209969491	 0.147285
H	 2.0937943459	-2.8863202316	-0.8565662165	 0.126505
H	 1.0645794624	-4.3293554728	-0.9891201835	 0.115241
H	 0.7680357628	-2.9290135379	-2.0353330204	 0.142685
H	 0.8143385297	-4.133111507	 1.5119358213	 0.111443
H	 0.5305776984	-2.5314188054	 2.2356655856	 0.116023
H	-1.6527780697	-4.5592707934	 1.7394919139	 0.130215
H	-1.9285679019	-2.8281860418	 2.0199516221	 0.142172
