20
gdb 92249	2.70596	1.67635	1.38728	2.1643	78.44	-0.2169	0.0701	0.287	1026.6279	0.171675	-403.082976	-403.075199	-403.074255	-403.115027	30.88	
C	 0.2774625121	 1.4679693239	-0.1864160593	-0.409603
C	 0.024343789	-0.0043879576	 0.048439909	 0.073573
O	 0.8339437234	-0.8754363589	-0.8034929966	-0.32127
C	 1.2563876062	-1.6866710203	 0.3125406104	 0.052855
C	 2.628990269	-1.2733344351	 0.8890428537	-0.205055
N	 1.9795364765	-0.2289334601	 1.7528002474	-0.146243
C	 1.6214205238	-0.7036700093	 3.1322102286	-0.169273
C	 0.1309742702	-0.875964263	 2.7248397282	-0.36851
C	 0.6097310897	-0.6786743721	 1.2906121166	 0.320505
H	 1.3098668022	 1.7191663075	 0.0674823477	 0.140013
H	 0.0903586569	 1.7207427606	-1.2344753595	 0.124668
H	-0.393835608	 2.0723921792	 0.4337283173	 0.11242
H	-1.0402183922	-0.2501021607	-0.0875524595	 0.072434
H	 1.0081114652	-2.7440597438	 0.1820313308	 0.076362
H	 3.1368054467	-2.056543009	 1.465340126	 0.0976
H	 3.3234976104	-0.8558734265	 0.1547485766	 0.114459
H	 2.1152232335	-1.6431570683	 3.4087268542	 0.098993
H	 1.831071346	 0.0398264382	 3.905928527	 0.109431
H	-0.3559735123	-1.8238524506	 2.9634899088	 0.11063
H	-0.5059995283	-0.0575839439	 3.0716702926	 0.116009
