18
gdb 44503	4.13313	1.40135	1.202	2.7967	75.64	-0.2092	-0.0195	0.1897	1034.3414	0.14924	-401.903281	-401.896346	-401.895402	-401.935702	27.903	
O	-0.0010314049	 0.1114846211	 0.7636516464	-0.312261
C	-0.0269146259	 1.1678218278	 0.1780810104	 0.375369
C	-1.321231954	 1.8700040037	-0.2003479535	-0.366596
C	-1.0852522277	 3.1827655692	-0.9289141107	 0.001823
C	 0.0327987372	 3.2452460908	-2.0182831077	-0.033798
C	 0.0798604274	 4.7789915625	-1.8223103925	-0.216374
C	 0.0465474712	 4.1308354254	-0.418116147	-0.033838
N	 1.1087364836	 3.1712351356	-0.9413861812	-0.122477
C	 1.2489317206	 1.8961910151	-0.2369865574	-0.280864
H	-1.9141205443	 1.1785382959	-0.8126067991	 0.134758
H	-1.9020194417	 2.025585882	 0.7177753801	 0.134749
H	-2.0280110963	 3.6749184127	-1.1932184316	 0.072931
H	 0.1145322019	 2.6753600417	-2.9467370585	 0.082388
H	 1.0209293166	 5.2559700494	-2.0943729679	 0.109665
H	-0.8014009586	 5.3446729901	-2.1278010919	 0.097643
H	 0.1446343789	 4.6142527163	 0.5566447055	 0.082406
H	 1.8505932052	 2.0603405446	 0.6660814182	 0.137237
H	 1.8362406909	 1.2134516161	-0.8642350717	 0.137238
