16
gdb 95278	2.73563	1.88279	1.33629	1.1692	63.11	-0.2595	-0.001	0.2585	930.7899	0.127262	-475.043308	-475.03646	-475.035516	-475.074709	26.766	
O	 0.1328938111	 1.4007814008	-0.0131852098	-0.436618
C	 0.0642444653	 0.0029255043	 0.0574654687	 0.136521
C	 0.5638756878	-0.6004939518	 1.3853144129	-0.13712
O	-0.0587270244	-1.8900051827	 1.4590361352	-0.240645
C	-1.3239904063	-1.8137301928	 0.8938042886	 0.207556
O	-2.3454933114	-1.5322210385	 1.9028294215	-0.227414
C	-2.7540670698	-0.2719194363	 1.665209897	 0.11584
N	-2.3134454736	 0.359761446	 0.6531240962	-0.287875
C	-1.379157964	-0.5610789284	-0.0139346004	-0.112673
H	-0.7069710209	 1.7297056579	 0.3398554113	 0.295178
H	 0.6583458353	-0.4015927426	-0.7692991626	 0.095962
H	 1.64339172	-0.7542765113	 1.4214083551	 0.122541
H	 0.266262804	 0.0363027072	 2.2293625455	 0.108619
H	-1.5752903271	-2.7840486377	 0.4664775995	 0.109616
H	-3.4651018354	 0.1203827936	 2.3848120102	 0.150835
H	-1.7099163907	-0.7535161478	-1.0361954089	 0.099677
