14
gdb 27140	3.2681	1.184	0.90264	2.3899	67.13	-0.212	0.0051	0.2172	1216.747	0.100394	-473.828753	-473.820667	-473.819723	-473.862388	29.099	
O	 0.3843379011	 1.2879604643	-0.1108276428	-0.442333
C	 0.1384640971	-0.0447075755	-0.058436419	 0.202534
C	-0.2525168748	-0.8829253701	-1.0555199529	 0.260419
O	-0.5940547331	-0.6201996906	-2.3399066359	-0.220857
C	 0.2168308541	-1.142269755	-3.3180461522	 0.111972
N	-0.0891723472	-0.9547794174	-4.5206233723	-0.420067
O	-0.4065053158	-2.1549279965	-0.5891483792	-0.168358
C	-0.0853357263	-2.1156639883	 0.7338614443	-0.001261
C	 0.2503588512	-0.8565247157	 1.1169583368	-0.254687
H	 0.1476018276	 1.6076406564	-0.9893457278	 0.307278
H	 1.0750461549	-1.6839414281	-2.9061958544	 0.114372
H	 0.599618876	-1.3892478353	-5.131351088	 0.241425
H	-0.1395730099	-3.0569108361	 1.2539332948	 0.143367
H	 0.543279575	-0.527286742	 2.1007363886	 0.126195
