17
gdb 35225	3.4981	1.16915	1.00973	4.9475	80.77	-0.2458	-0.0087	0.2371	1185.7135	0.13742	-380.872234	-380.864278	-380.863334	-380.905861	29.754	
N	 0.007702527	-1.1456800281	-0.1393841442	-0.343067
C	-0.0012339186	 0.0092722639	-0.0785447569	 0.341139
C	 0.0202049946	 1.4501924218	-0.0523889996	-0.267952
N	 0.4014621224	 2.0907603428	 1.2216481565	-0.354008
C	 1.3202849524	 2.2035473782	 0.0832049963	 0.334253
C	 2.6956174573	 1.5297011918	 0.1786940331	-0.299835
C	 3.6719696947	 2.4839970365	-0.5651898528	-0.270408
C	 2.8041105356	 3.6424834946	-0.9913608416	-0.070204
C	 1.5268879997	 3.4802333212	-0.6474565519	-0.144331
H	-0.7577756672	 1.9118113992	-0.6553876476	 0.127401
H	-0.1393357117	 2.9445457011	 1.3456101885	 0.241118
H	 2.9640369351	 1.4085876187	 1.2303065785	 0.129795
H	 2.6811785118	 0.5320242995	-0.2664309265	 0.133349
H	 4.498956291	 2.8156642023	 0.0737829009	 0.117614
H	 4.1362698661	 2.0001077802	-1.4329323871	 0.120347
H	 3.1986209857	 4.4988503346	-1.5267197649	 0.106538
H	 0.7147618143	 4.1699254618	-0.8522685008	 0.098251
