21
gdb 74032	2.15405	1.82903	1.06335	1.4615	86.73	-0.2246	0.0255	0.2501	1172.6174	0.183844	-387.085727	-387.077388	-387.076443	-387.118371	32.53	
C	 0.0290127868	 1.4689276043	-0.0509156985	-0.483808
C	-0.0473311775	-0.0230051806	 0.1009368875	 0.079773
C	-1.163134175	-0.7426993822	 0.1210409277	 0.26167
C	-2.6184786154	-0.5861598934	-0.2717346327	-0.319539
C	-2.5153690282	-2.0429797769	-0.8470332842	-0.249192
C	-1.2159086366	-2.2483372162	-0.0043570774	-0.044979
C	 0.1038244765	-2.7505231613	-0.5701704842	-0.113832
O	 1.1523102375	-2.1921055411	 0.2169823563	-0.254374
C	 1.2659851006	-0.7800934526	 0.1377422717	-0.132611
H	 0.6149475226	 1.7521890919	-0.9352207155	 0.121651
H	-0.965399931	 1.9124179768	-0.1458810339	 0.12492
H	 0.5219212639	 1.9348068206	 0.8124436909	 0.125255
H	-3.2963805099	-0.5400303054	 0.5883484804	 0.108851
H	-2.8826655344	 0.218725349	-0.9633324048	 0.104915
H	-3.3510605209	-2.7184154699	-0.6514987113	 0.099503
H	-2.3050976705	-2.0335337136	-1.9201092182	 0.104987
H	-1.4375256741	-2.7507708495	 0.944756406	 0.080938
H	 0.2308056348	-3.8352152284	-0.5057736355	 0.102382
H	 0.2023504331	-2.4513095566	-1.6269335949	 0.081401
H	 1.8500584172	-0.4959264384	-0.7587395356	 0.089266
H	 1.8684502406	-0.4851838662	 1.0068835463	 0.112825
