19
gdb 41396	2.58744	2.01603	1.4028	1.5156	79.62	-0.2339	0.0139	0.2478	966.8214	0.161507	-385.873118	-385.866111	-385.865167	-385.90441	28.618	
C	 0.0165221278	 1.5708729865	 0.0586018189	-0.238465
C	 1.5689800058	 1.5031319081	-0.0878622816	-0.314766
C	 1.4998518732	-0.0031128132	 0.1880061371	 0.464815
O	 2.3522977073	-0.9313713348	-0.4881313979	-0.323945
C	 2.6288610573	-1.6556932758	 0.7332845216	-0.093161
C	 1.7472482325	-0.6821872942	 1.5582113879	-0.183479
C	 0.3824865094	-1.143991447	 1.997255713	-0.092274
C	-0.5808801789	-0.7719760168	 1.1470598233	-0.085918
C	-0.0386090849	 0.0037537165	-0.0229311168	-0.108558
H	-0.3072918941	 1.9467525134	 1.0315520096	 0.104359
H	-0.5149496002	 2.1157655438	-0.72373771	 0.103197
H	 1.8889067186	 1.6852680379	-1.1181637553	 0.11558
H	 2.1787206796	 2.1162135618	 0.5817151661	 0.097226
H	 2.2728974625	-2.6912838379	 0.6874782389	 0.101636
H	 3.6993050143	-1.6472615082	 0.9711785782	 0.099675
H	 2.2908367505	-0.1153962586	 2.3191233124	 0.081722
H	 0.2210280122	-1.7096512825	 2.9090532242	 0.094883
H	-1.6359862539	-0.9895903488	 1.2793899575	 0.095064
H	-0.3723813792	-0.3585843799	-0.999044717	 0.082407
