14
gdb 80127	2.89961	1.53264	1.28794	2.6938	63.55	-0.2533	-0.0379	0.2154	972.1572	0.100053	-473.810163	-473.802481	-473.801537	-473.842494	27.977	
O	-0.1596348031	 1.3894509386	-0.1522585962	-0.415741
C	-0.0861313762	 0.0168660943	-0.0168686017	 0.046061
C	-0.4207044446	-0.6753045841	 1.2675289865	-0.145969
N	-1.1675611546	 0.1042707264	 2.2182766433	-0.270962
C	-2.2737147884	 0.3954811748	 1.6518561803	 0.10224
O	-2.5298962516	-0.09242198	 0.4205067868	-0.206276
C	-1.3765894574	-0.8060087191	 0.032093882	 0.276157
C	-1.5917110796	-2.0047541694	-0.7947771333	 0.082463
O	-2.6658541887	-2.4367030603	-1.1263846348	-0.260363
H	-0.1251645216	 1.7809393395	 0.7298029963	 0.304818
H	 0.7044433641	-0.445694844	-0.6043265952	 0.124647
H	 0.1985162825	-1.4770353478	 1.6526543443	 0.122359
H	-3.0618310796	 1.0060491087	 2.0742359149	 0.161835
H	-0.6368336711	-2.4896729677	-1.1018329432	 0.078731
