18
gdb 14363	4.07941	2.1822	1.89968	1.5273	71.46	-0.2471	0.0914	0.3384	773.4394	0.156638	-347.734499	-347.728391	-347.727447	-347.764559	25.242	
C	-0.0599086378	 1.5179819491	 0.0251214268	-0.251374
C	 1.4627522467	 1.2623961395	 0.014870225	-0.100754
C	 1.1966101237	 0.0847971971	 1.0325724664	-0.317842
C	 0.1002673098	-0.0400778801	-0.0677781759	 0.32334
C	-0.8973328526	-0.9296936999	-0.7670598046	-0.391094
C	-0.7007612314	-0.3965704627	-2.2377841841	-0.068298
O	 0.5285323832	 0.3748167725	-2.3117197764	-0.291455
C	 1.2061026972	 0.1835317231	-1.0911727626	 0.144305
H	-0.4861510036	 1.9000370372	 0.9564701434	 0.084018
H	-0.4731483135	 2.0223830363	-0.8480902429	 0.109209
H	 2.2662592675	 1.9974417856	 0.0761160554	 0.07373
H	 1.9449947385	-0.7116330204	 1.077767502	 0.096056
H	 0.8715416717	 0.3880922022	 2.0300008389	 0.099152
H	-0.6193393704	-1.985972643	-0.6954234901	 0.109746
H	-1.9340994121	-0.8225760056	-0.4381984626	 0.107788
H	-0.6490936922	-1.2222890688	-2.9567992338	 0.105122
H	-1.5218809466	 0.2639690742	-2.5354127024	 0.109705
H	 1.9858690819	-0.5843936963	-1.1838846426	 0.058644
