22
gdb 64087	3.11152	1.1732	1.06668	3.8768	82.11	-0.2339	0.0325	0.2664	1242.253	0.195427	-404.410587	-404.401418	-404.400474	-404.443974	35.807	
C	-0.1881625066	 1.5766402978	 0.0342886723	-0.415684
C	-0.0405050452	 0.0441498655	-0.0053299182	 0.257877
C	-1.4341855561	-0.6006059245	 0.0207828544	-0.423335
C	 0.72364119	-0.4159287938	-1.2642841152	-0.225139
C	 2.1581569042	 0.1228335977	-1.3124081662	-0.326536
C	 2.9272210788	 0.0244969631	 0.0005689775	 0.392272
O	 4.1404819007	 0.1137883727	 0.0503576259	-0.379618
N	 2.1687068296	-0.0980508735	 1.1345129096	-0.3104
C	 0.7567359692	-0.4507803212	 1.2158626388	-0.165717
H	 0.7750798544	 2.0820590945	 0.1395117168	 0.127158
H	-0.6665525899	 1.944845434	-0.8796358001	 0.113278
H	-0.8127328953	 1.8803364041	 0.88139311	 0.111828
H	-2.0374063141	-0.251312706	-0.8236653491	 0.116174
H	-1.3711496145	-1.6923030497	-0.0419084128	 0.112991
H	-1.9727320141	-0.346040987	 0.940495225	 0.11202
H	 0.7465134187	-1.5136307844	-1.2726734756	 0.098447
H	 0.1788559663	-0.1123523298	-2.1658913722	 0.096618
H	 2.7555497713	-0.3888320136	-2.0711964552	 0.128012
H	 2.1646559158	 1.183617874	-1.5907191954	 0.131922
H	 2.7231346966	-0.1805348327	 1.975156673	 0.242651
H	 0.3452903945	-0.0125628433	 2.1329254224	 0.105457
H	 0.6364862756	-1.5420616838	 1.3023254744	 0.099725
