19
gdb 33068	4.86192	0.74413	0.67884	1.5826	79.59	-0.21	0.0244	0.2344	1662.0134	0.158558	-423.058978	-423.049493	-423.048549	-423.094215	33.832	
C	 0.0571744956	 1.4873129012	-0.0467765776	-0.488321
C	-0.0788205714	 0.0079097947	 0.004384732	 0.380285
C	-1.1258203527	-0.8443587232	-0.159926655	-0.382724
C	-0.6180029509	-2.1807590943	 0.0197806729	 0.254625
C	-1.3779765178	-3.4681911177	-0.0791372238	-0.306612
C	-1.7895920688	-3.8024015036	-1.5144479664	-0.060317
O	-2.5230488006	-5.0165331567	-1.4799790943	-0.418395
C	 0.7069097485	-2.0225204493	 0.2779648086	-0.123915
O	 1.0529462202	-0.7045256008	 0.2737151293	-0.180943
H	 0.7667870433	 1.8000906236	-0.8213455417	 0.137115
H	-0.9113942498	 1.9412672335	-0.2674828069	 0.134162
H	 0.4160361537	 1.8917840419	 0.9065788164	 0.1379
H	-2.1455133975	-0.5618470012	-0.3752758165	 0.102307
H	-0.7748638653	-4.2961748883	 0.308028386	 0.109547
H	-2.2871044897	-3.4282569832	 0.5327395942	 0.11425
H	-2.3939415431	-2.9793674447	-1.928018361	 0.087289
H	-0.8880056057	-3.8907716069	-2.1406207793	 0.089289
H	-2.7751558934	-5.2416936531	-2.380033688	 0.28577
H	 1.5047201553	-2.7169352319	 0.4861378512	 0.128687
