17
gdb 3490	3.81637	3.55354	3.55294	0.0041	65.65	-0.2602	0.0952	0.3554	562.2173	0.153086	-272.599303	-272.594418	-272.593474	-272.627483	21.364	
C	-0.0249797344	 1.5895878827	 0.0107571855	-0.212929
C	 1.4814026644	 1.833126173	-0.0038024693	-0.048541
C	 2.1204850601	 0.6760249892	 0.7434356263	-0.048316
C	 0.9855914896	-0.2403689655	 1.1919866627	-0.212905
C	 0.035817964	 0.0425239095	 0.002534136	-0.042719
C	 0.9610316113	-0.2290301042	-1.2086347779	-0.212929
C	 2.10485698	 0.6832732512	-0.7749119887	-0.048367
H	-0.5143647094	 1.98670572	 0.9067484553	 0.090231
H	-0.5333575912	 1.9956692044	-0.8704954592	 0.090211
H	 1.9167934851	 2.8236290595	-0.0035173045	 0.075757
H	 3.0368878833	 0.7955638764	 1.3061138811	 0.075744
H	 1.2833756283	-1.2928659641	 1.2516339377	 0.090217
H	 0.5532029936	 0.0525246612	 2.154890024	 0.090195
H	-0.919964682	-0.4804672757	 0.0097699384	 0.058178
H	 1.2572403801	-1.2808408123	-1.284930151	 0.090248
H	 0.508903222	 0.0735337975	-2.1594502353	 0.090172
H	 3.0095336552	 0.8081309572	-1.3551170311	 0.075754
