13
gdb 130473	4.22148	1.60882	1.16488	4.3356	72.79	-0.2338	-0.0704	0.1634	943.6258	0.092664	-415.623894	-415.617997	-415.617053	-415.654137	23.387	
O	-0.0461515382	 1.3556474213	 0.0100982753	-0.121195
C	 1.2151048506	 1.8444790839	 0.0003855296	-0.125797
C	 2.1029520729	 0.7997658299	-0.0141465055	 0.17046
C	 3.5167642523	 0.6284143134	-0.0290387979	-0.052879
N	 4.087909184	-0.5427364741	-0.0410979964	-0.219262
N	 3.3237248787	-1.7002281296	-0.039915153	-0.219262
C	 2.0223669854	-1.6351126223	-0.0267137941	-0.052879
C	 1.3093487694	-0.4022854547	-0.0129255824	 0.170461
C	-0.0001629938	 0.0037446734	 0.0021678719	-0.125797
H	 1.3084895671	 2.9170000159	 0.005392239	 0.163898
H	 4.18986485	 1.4828629347	-0.0309557606	 0.124177
H	 1.5010722672	-2.5897864442	-0.0268537049	 0.124177
H	-0.9497482254	-0.5034948076	 0.0087092189	 0.163898
