14
gdb 131452	3.16848	1.2905	0.9726	1.9777	63.79	-0.256	-0.0111	0.2449	1138.848	0.101151	-473.788141	-473.7807	-473.779755	-473.820892	27.283	
O	 0.3226424257	 1.3596592527	 0.0100820274	-0.417814
C	 0.15089764	 0.0286596152	 0.0002457105	 0.380021
N	 0.1802059526	-0.6755660635	-1.1039412236	-0.251071
O	-0.0285368264	-1.9947585606	-0.6925349565	-0.173033
C	-0.1741417792	-2.0151939845	 0.6396280288	 0.013774
C	-0.0789779273	-0.7651469503	 1.1637194908	 0.068891
C	-0.1654838126	-0.3335739318	 2.5712046508	-0.062874
C	-1.3897870125	-0.510454788	 3.374967444	-0.16663
O	-0.2701302291	-1.3811801293	 3.5373934139	-0.232019
H	 0.4768416613	 1.6452390353	-0.9005882345	 0.314952
H	-0.3259179381	-2.9817949609	 1.0931753641	 0.168921
H	 0.5043204431	 0.4794122977	 2.8507879465	 0.113178
H	-1.5862835023	 0.1593441809	 4.2108306529	 0.123583
H	-2.2660347951	-0.9565283526	 2.9081810348	 0.120119
