20
gdb 97373	2.53534	1.05108	0.82217	2.7695	79.96	-0.2428	0.0328	0.2755	1469.2103	0.168047	-440.258133	-440.248057	-440.247113	-440.293804	35.552	
C	-0.4319869467	 1.2888125832	-0.4277365033	-0.313625
N	 0.0315748851	-0.0504948328	-0.1307865177	-0.219163
C	 0.6717207822	-0.649866039	-1.0301308463	 0.147884
O	 1.1717077355	-1.8875288031	-0.798541465	-0.21836
C	 1.7196834306	-2.5890965328	-1.912079308	 0.056665
C	 2.7374494611	-3.5856969318	-1.3697796271	-0.401581
C	 0.624904467	-3.28103734	-2.707720378	 0.094189
C	-0.6807802388	-3.6023089492	-2.1225885675	-0.179894
O	-0.5209110532	-2.4980630825	-3.0256575537	-0.240168
H	-0.1676167247	 1.6423087833	-1.4378797726	 0.096506
H	-1.5223561193	 1.3315086696	-0.3251022753	 0.126643
H	-0.0165300477	 1.9934815089	 0.3020394925	 0.124341
H	 0.898813182	-0.246786485	-2.0269546841	 0.085292
H	 2.22414772	-1.8717794676	-2.5772979198	 0.089688
H	 3.1943388906	-4.1514207281	-2.1870598074	 0.121858
H	 3.5261861531	-3.0612473281	-0.8256811897	 0.134724
H	 2.2542194621	-4.2890717925	-0.6859327946	 0.136775
H	 0.9955600438	-3.8951628241	-3.5307857035	 0.094374
H	-1.2534028339	-4.4399567149	-2.5161509429	 0.118577
H	-0.8803522787	-3.3248936033	-1.0910902362	 0.145275
