15
gdb 101968	1.58911	1.46971	1.3413	2.4666	74.06	-0.2569	-0.0462	0.2107	1124.2075	0.107323	-420.546181	-420.536159	-420.535214	-420.581284	35.444	
O	 0.2154105578	 1.2754810991	 0.106148268	-0.41682
C	-0.0226829333	-0.1079348048	 0.1349261291	-0.073169
C	-1.5423626203	-0.4509517321	 0.0538073641	-0.249558
C	-1.7478592437	-1.9934909803	 0.1357343083	 0.15576
O	-0.8455775254	-2.7770842053	 0.2124946855	-0.235674
C	-2.2454496784	 0.1451339054	 1.1941734545	 0.308666
C	-2.7793605847	 0.6083752451	 2.1665530096	-0.456564
C	-2.1327289776	-0.0246234572	-1.2166938038	 0.336855
C	-2.6172103048	 0.2455330103	-2.2821495572	-0.446474
H	-0.2116561817	 1.6641372611	 0.8784880088	 0.290052
H	 0.4757977853	-0.5392774222	-0.7350322539	 0.135027
H	 0.3793134129	-0.5897254988	 1.0354114066	 0.114111
H	-2.8130886826	-2.2979820774	 0.1067398297	 0.115195
H	-3.2702189044	 1.0230620186	 3.0129379582	 0.213183
H	-3.0385356493	 0.5166531784	-3.2189659775	 0.20941
