23
gdb 62107	3.69485	0.65757	0.58709	2.8688	87.61	-0.247	-0.0185	0.2285	1908.3625	0.203437	-388.293814	-388.283275	-388.282331	-388.330675	37.763	
C	-0.3183194248	 1.3694426414	 0.0939162968	-0.394679
C	 0.0119315888	-0.1268349879	-0.0110613404	 0.009687
C	 0.7412473625	-0.4800655602	-1.3221217889	-0.189512
C	-0.0746129977	-0.2144084292	-2.6006927001	-0.284523
C	 0.6172492504	-0.773279949	-3.8223865375	 0.16062
O	 0.9301402608	-0.1372207385	-4.7954384314	-0.237943
C	 0.832661176	-0.5794737713	 1.1847600869	 0.041927
C	 0.1635055165	-0.9291249269	 2.4888062459	-0.277579
C	 0.7975840851	-2.0129038016	 1.6495315653	-0.276313
H	 0.5960142638	 1.9731929115	 0.0498984413	 0.114267
H	-0.9765833838	 1.7032977564	-0.7133859943	 0.115169
H	-0.8156551675	 1.5887406845	 1.0433989292	 0.118378
H	-0.934249554	-0.6889422183	 0.0049477333	 0.065113
H	 1.6837796221	 0.0813921042	-1.373808476	 0.106792
H	 1.0181412417	-1.5416291675	-1.2894179616	 0.102223
H	-1.0485991408	-0.7197464942	-2.5147449675	 0.114119
H	-0.2560584398	 0.8503178244	-2.7659428765	 0.12418
H	 0.8390652189	-1.8658897455	-3.7592389325	 0.067705
H	 1.7957843507	-0.07924824	 1.2695048176	 0.079411
H	 0.6476551299	-0.6431696096	 3.4159619867	 0.111717
H	-0.9207179035	-0.8918294676	 2.5260927959	 0.109709
H	 0.1347664475	-2.6983134784	 1.1302067769	 0.107704
H	 1.7157976272	-2.4696249267	 2.0019103107	 0.111829
