14
gdb 18867	4.06645	2.42779	1.9368	2.1845	61.89	-0.2537	-0.0527	0.2011	697.3605	0.10881	-378.617991	-378.612291	-378.611347	-378.647519	23.087	
O	 0.167130026	 1.4047011417	-0.2328796734	-0.404982
C	 0.0318620073	 0.0675329877	 0.0133206381	 0.136448
C	-1.3477560806	-0.7397895608	-0.0799093835	-0.131029
C	-1.7785939371	-1.3801026651	-1.4080133009	-0.046316
C	-1.183741518	-0.9742513564	-2.7614569746	-0.188314
N	 0.1266924634	-0.4245040955	-2.3227209162	-0.228
C	 0.2867098394	-0.8898870927	-1.1432790343	 0.093467
N	-0.6480590676	-1.9342991962	-0.6509050252	-0.126892
H	 0.0721955602	 1.5049691346	-1.1944591987	 0.294534
H	 0.4610602029	-0.168000341	 0.9901089156	 0.128351
H	-1.9757330819	-0.8640971946	 0.8011297897	 0.114512
H	-2.7123484051	-1.9372447341	-1.3693685263	 0.107563
H	-1.1180033298	-1.851327745	-3.4199930132	 0.126388
H	-1.720969369	-0.1858593226	-3.2967700071	 0.12427
