23
gdb 109374	2.19969	1.34029	0.88587	1.3849	88.39	-0.2228	0.0358	0.2586	1374.3466	0.206687	-388.310167	-388.300658	-388.299714	-388.344264	36.472	
C	-0.0301408977	 1.5645669366	-0.0188026651	-0.405799
C	 0.0454982138	 0.0278202053	 0.0501653786	-0.057083
C	 0.6316024783	-0.5298876988	-1.2584266246	-0.189603
C	 0.9570384793	-2.0210475058	-1.1538885148	-0.215383
C	 2.0023368345	-2.2593280688	-0.0577109572	-0.245945
C	 1.6874085736	-1.4867600029	 1.1952030643	-0.139472
C	 0.8133033778	-0.4799861902	 1.2623655755	 0.279374
C	 0.4964284697	 0.192063791	 2.5765694646	-0.157212
O	 1.0783452652	-0.5155783044	 3.6572840202	-0.415601
H	 0.9724174997	 2.0060151049	-0.0517842993	 0.116245
H	-0.5610890774	 1.8750467634	-0.924951526	 0.110373
H	-0.56124157	 1.9965090213	 0.8345014315	 0.111885
H	-0.9907461089	-0.3382933825	 0.1414069432	 0.076726
H	-0.069501518	-0.3388628244	-2.079323384	 0.086439
H	 1.5507119954	 0.0230402306	-1.498377786	 0.091793
H	 0.0417287773	-2.5756655453	-0.9091535781	 0.095624
H	 1.3125204039	-2.4075421412	-2.1153097214	 0.087131
H	 2.0706763363	-3.328648116	 0.1795823387	 0.098517
H	 3.002468097	-1.9800481995	-0.4237654305	 0.101977
H	 2.1934607745	-1.7895347849	 2.1061881777	 0.100679
H	 0.8556482761	 1.2343668744	 2.5569453848	 0.094712
H	-0.602076876	 0.2497087436	 2.689360312	 0.087901
H	 0.9852267958	 0.0237621135	 4.4470132258	 0.286722
