20
gdb 108717	3.34473	1.02841	0.84015	4.4935	84.21	-0.2318	-0.0208	0.211	1423.4901	0.17091	-403.209147	-403.199631	-403.198687	-403.244099	34.113	
C	-0.2318614273	 1.5131644954	-0.0978777209	-0.377373
C	 0.1069801685	 0.0139867343	 0.0009928785	-0.287155
C	 0.812588988	-0.520965795	-1.2065587491	 0.327844
C	 2.062221589	-0.9853784406	-1.3115013351	-0.339811
C	 2.3404961472	-1.4167835601	-2.7089996014	 0.43033
O	 3.3616756047	-1.8824716418	-3.1766448539	-0.407312
N	 1.1687530014	-1.1786964604	-3.4042294245	-0.098117
C	 1.0108261585	-1.4453481735	-4.8103565537	-0.3406
C	 0.1438510595	-0.6128098319	-2.5631718967	-0.26201
H	 0.6751788223	 2.1099838568	-0.2326668014	 0.12922
H	-0.8993581877	 1.7212562471	-0.9398146247	 0.121442
H	-0.7314225088	 1.8532131706	 0.8138586737	 0.121738
H	 0.7304560614	-0.1623575407	 0.8835595758	 0.11515
H	-0.823059023	-0.5497949331	 0.157088717	 0.111174
H	 2.80511717	-1.0666850039	-0.5300880569	 0.116068
H	 1.9536379991	-1.866167359	-5.1660175765	 0.16525
H	 0.2041733827	-2.1657120392	-4.9985188483	 0.118128
H	 0.7924609611	-0.5299498574	-5.3759950092	 0.117699
H	-0.7545351032	-1.2493623973	-2.5216042609	 0.118161
H	-0.1843504636	 0.3730545298	-2.9270192819	 0.120174
