16
gdb 11048	3.56965	2.4781	2.06807	1.5868	67.08	-0.2167	-0.0165	0.2002	730.0894	0.130911	-346.57921	-346.572878	-346.571934	-346.609044	26.399	
C	 0.013810858	 1.5133523249	-0.0472323033	-0.501414
C	-0.0119704995	 0.0062323035	 0.0315988742	 0.31006
O	 0.6734705915	-0.6140055103	-1.0771752056	-0.257971
C	 0.434945513	-1.9631494645	-0.6538163183	-0.054685
C	 1.02289139	-1.9055505871	 0.780773922	-0.083361
C	 0.739491319	-0.6811788647	 1.2091078223	-0.10894
C	-1.1105810729	-1.936690644	-0.5214354109	-0.083177
C	-1.3877492047	-0.7126952657	-0.0879792129	-0.109137
H	 1.043754375	 1.8803563795	-0.0398599072	 0.131289
H	-0.4710548342	 1.8578045244	-0.9647222005	 0.131304
H	-0.5142388907	 1.9487115314	 0.8070347493	 0.118043
H	 0.8678965591	-2.6836637915	-1.3459960133	 0.078968
H	 1.492128975	-2.7291278505	 1.2994633476	 0.108208
H	 0.917457923	-0.22728034	 2.1739314906	 0.106304
H	-1.7687475537	-2.7766580381	-0.6910655524	 0.108207
H	-2.336542438	-0.2755713372	 0.1900391683	 0.106301
