21
gdb 40947	3.43729	1.27938	1.12914	1.1249	84.97	-0.2395	0.0195	0.259	1167.9721	0.184502	-387.084358	-387.076417	-387.075473	-387.116743	31.637	
C	 0.1166318626	 1.3228036935	-0.6050740882	-0.213651
C	 1.3919687015	 1.6368432277	 0.2221561996	-0.274463
C	 1.3218448757	 0.2071759204	 0.8478505367	 0.326645
C	-0.155430378	 0.1182379699	 0.3337807334	-0.257226
C	 2.2582897755	-0.7712558954	 0.1327681068	-0.1468
O	 2.1552992568	-2.0754202339	 0.6776712074	-0.253554
C	 2.6165220723	-2.1367807956	 2.0135007669	-0.123828
C	 2.1359492256	-0.9897981292	 2.8591317397	-0.088599
C	 1.534158056	 0.0714593782	 2.3252154542	-0.138888
H	-0.6488892695	 2.1003019453	-0.6515180581	 0.097437
H	 0.3491861747	 1.0141823021	-1.6277451242	 0.103822
H	 2.3057582801	 1.8880752909	-0.3254316114	 0.095412
H	 1.2188227851	 2.4129714156	 0.9738607695	 0.097844
H	-0.870832592	 0.3653249238	 1.1232226721	 0.097172
H	-0.4487047959	-0.8354527931	-0.1125662032	 0.107687
H	 2.0079597222	-0.8640840873	-0.9287242401	 0.101776
H	 3.2959525927	-0.4027862504	 0.2065519259	 0.084425
H	 2.2546029694	-3.089832761	 2.417831969	 0.116235
H	 3.7220504298	-2.1821385091	 2.038900535	 0.095656
H	 2.3042271683	-1.0685784225	 3.9301744912	 0.09088
H	 1.167492427	 0.87687753	 2.9588023677	 0.082018
