19
gdb 114436	3.81396	1.37791	1.23338	1.0705	74.45	-0.2302	0.0899	0.3201	1069.4495	0.160542	-422.987609	-422.98008	-422.979136	-423.019719	29.496	
C	-0.0069347292	 1.3654347013	-0.1077497889	-0.240463
O	-0.0107917609	-0.0424897569	 0.0538719004	-0.236196
C	-1.2760231471	-0.6071946694	 0.0330936088	 0.24484
O	-1.8876228688	-0.4541208011	-1.2614597954	-0.291701
C	-2.5205294751	-1.6768523378	-1.5661703813	 0.112088
C	-1.691601443	-2.9400010576	-1.6948526519	-0.100765
C	-0.3805657807	-2.7585606038	-0.9300753521	-0.224872
C	-1.2000848604	-2.1193166378	 0.2383044832	-0.113231
C	-2.504833856	-2.6333583727	-0.4257499086	-0.131938
H	 1.0284451594	 1.6953428248	 0.0005084819	 0.125853
H	-0.3817100404	 1.6541317074	-1.096078638	 0.132204
H	-0.6216794748	 1.8559904842	 0.6620123844	 0.105244
H	-1.9235823067	-0.1083252146	 0.7781892713	 0.054476
H	-3.3931993319	-1.5621727414	-2.1976928543	 0.101123
H	-1.8928147153	-3.6745594334	-2.4669956914	 0.081746
H	 0.0432435224	-3.7195777459	-0.6306761478	 0.099498
H	 0.396253308	-2.1353543449	-1.3790258313	 0.114076
H	-0.9541599974	-2.4200031016	 1.2547786798	 0.079496
H	-3.351805172	-3.1263625988	 0.0322216511	 0.088521
