19
gdb 74601	3.2717	1.78799	1.3612	0.3987	84.99	-0.2074	0.0131	0.2204	984.2183	0.160377	-348.653623	-348.646745	-348.645801	-348.684469	28.889	
C	-0.1185718608	 1.4455557079	 0.0317766135	-0.508431
C	 0.0019831329	-0.0377609755	-0.0152022479	 0.176256
C	-0.0292209462	-0.8994613732	-1.0477109847	-0.19404
C	 0.1503501753	-2.3163086953	-0.4545279149	-0.142568
C	-0.6723598685	-2.2686805902	 0.867889223	-0.015954
C	 0.4208420717	-2.7439051638	 1.8706150866	-0.115322
C	 0.3833047361	-1.3799108579	 2.6422141969	-0.356961
C	 0.2010491466	-0.9991120936	 1.1532901244	 0.256519
C	 1.1991877893	-2.1104713119	 0.6792602171	-0.015962
H	 0.7740104516	 1.9059071929	 0.4746937397	 0.127091
H	-0.2562931207	 1.8663816655	-0.9683131779	 0.125279
H	-0.9677873101	 1.7587117678	 0.6526923646	 0.127066
H	-0.1548860084	-0.664054002	-2.096529962	 0.093707
H	 0.1538156705	-3.1692679962	-1.1355276461	 0.052167
H	-1.7568696544	-2.3168152699	 0.9965644839	 0.065443
H	 0.5477359434	-3.7403187907	 2.2939386596	 0.068831
H	-0.4714977723	-1.2146319414	 3.3060145047	 0.095718
H	 1.3130893623	-1.0637722185	 3.1261480619	 0.095718
H	 2.2803008918	-1.9755443639	 0.5896756774	 0.065441
