17
gdb 33986	2.35872	1.7118	1.20626	3.3609	78.58	-0.2496	0.0072	0.2568	1052.2395	0.136753	-380.822541	-380.814786	-380.813842	-380.854771	30.091	
N	 0.0455233833	-1.1606143143	-0.1198583545	-0.352076
C	 0.0474405016	-0.0058091039	-0.0311782133	 0.176695
C	 0.0213302272	 1.4112956572	 0.1012080068	 0.165843
N	 0.2121699865	 2.3193607726	-1.0707874679	-0.361474
C	 1.1481275268	 2.4062456599	 0.0613529198	-0.106643
C	 0.4744424479	 3.262397549	 1.1443912349	-0.309265
C	-0.6815438523	 2.2320719163	 1.1718697945	 0.330501
C	-2.1530862507	 2.4395962325	 1.3352029277	-0.313046
C	-1.3668644425	 1.6786225905	 2.3823091799	-0.339066
H	 0.6663305952	 1.7757709803	-1.8061300534	 0.246575
H	 2.2051314947	 2.2116864258	-0.067674102	 0.122035
H	 1.0392095063	 3.285278287	 2.0793150365	 0.117225
H	 0.2229173624	 4.2783507702	 0.8315664302	 0.12071
H	-2.4944586295	 3.4400801436	 1.5791007819	 0.121186
H	-2.8237062909	 1.881608811	 0.6907325129	 0.127281
H	-1.503623795	 0.6034625321	 2.4406209319	 0.134789
H	-1.1765873412	 2.1587170703	 3.3367510241	 0.118728
