18
gdb 73063	3.55243	1.06657	0.96563	4.5774	75.14	-0.244	0.0193	0.2633	1274.6571	0.146067	-439.033092	-439.024244	-439.0233	-439.067263	32.042	
C	-0.2424812593	 1.5374378177	 0.2793147705	-0.490364
C	 0.0462262984	 0.0884480658	 0.0610984862	 0.422424
O	-1.068179889	-0.783401373	-0.1146435476	-0.304031
C	-0.409527342	-1.8287612948	 0.6430535704	-0.090765
C	 0.8553166452	-0.9935203298	 0.8014922275	-0.256055
C	 1.2732030122	-0.4872052062	-0.5607228839	 0.042769
O	 1.1772524671	-1.2625173393	-1.7270153538	-0.1826
C	 2.0728703458	-2.2696230139	-1.8392772159	 0.127849
N	 2.1339251144	-2.940209058	-2.9056510176	-0.437466
H	 0.6828974303	 2.0970817864	 0.4408350184	 0.12569
H	-0.7448647059	 1.9546646289	-0.6003855426	 0.145381
H	-0.8962956273	 1.6789901008	 1.1448148684	 0.133158
H	-0.9326670208	-2.0031461318	 1.5888856203	 0.114042
H	-0.3336878852	-2.7642901631	 0.0789351831	 0.12131
H	 1.492762941	-0.9538078395	 1.6753537133	 0.102909
H	 2.1372337633	 0.1757615016	-0.5419887792	 0.108032
H	 2.6835655102	-2.4091596938	-0.9371623879	 0.088682
H	 2.8466549416	-3.6620519079	-2.8197472596	 0.229034
