23
gdb 107403	3.02265	1.18288	1.05424	1.7768	84.82	-0.2499	0.0855	0.3353	1293.4856	0.205875	-388.305272	-388.296012	-388.295068	-388.339101	35.825	
C	-0.2164035289	 1.5511722384	-0.4546997377	-0.380293
C	-0.0753766295	 0.0570397538	-0.134555189	-0.277291
C	-1.3429086181	-0.5487118637	 0.416221264	 0.43465
C	-1.8830724494	-0.1497511664	 1.7825043062	-0.296171
C	-2.9977813928	-1.1843964206	 2.117876173	 0.020469
C	-4.4046331877	-0.642693586	 1.8346393877	-0.392522
C	-2.6569371902	-2.4354998612	 1.2544719001	-0.257151
C	-1.8210464781	-1.9048074099	 0.110770648	-0.014658
O	-2.3991285347	-0.7639106082	-0.546056678	-0.303868
H	 0.7064511393	 1.9460674033	-0.8895814501	 0.111834
H	-1.0274258741	 1.7135113658	-1.1708880359	 0.133685
H	-0.437679382	 2.1365001243	 0.4435383443	 0.117332
H	 0.2023618222	-0.4869599899	-1.0438931794	 0.103889
H	 0.7350322213	-0.0961757346	 0.5898515006	 0.096476
H	-1.063435308	-0.1993293717	 2.5102211925	 0.09494
H	-2.2647224314	 0.8765239364	 1.7964075613	 0.104592
H	-2.9440692636	-1.4473015218	 3.1791202092	 0.069534
H	-4.5063506	-0.3660351819	 0.7825043288	 0.139812
H	-5.1671233957	-1.3939801339	 2.0685040811	 0.104228
H	-4.6125994917	 0.2427543869	 2.4456497265	 0.104093
H	-2.0603181514	-3.162292057	 1.8196017138	 0.097015
H	-3.5574586346	-2.9542378928	 0.9086931278	 0.105511
H	-1.2744362811	-2.5833165594	-0.5415699051	 0.083895
