16
gdb 4788	6.65106	1.3007	1.10967	1.6221	68.74	-0.194	0.0389	0.2328	1073.8753	0.131105	-379.960758	-379.952653	-379.951709	-379.993372	28.833	
C	-0.0896168402	 1.4265770403	 0.1651274208	-0.329004
N	-0.0557741214	 0.0049276786	-0.1376273945	-0.381081
C	-1.1845185596	-0.7587489833	-0.0618046572	 0.487966
N	-1.2560773495	-2.050635404	 0.066736874	-0.408872
C	-2.6277443988	-2.3182870224	 0.0122102022	 0.263465
C	-3.1527803405	-3.7091266481	 0.1188031304	-0.490157
C	-3.3003273382	-1.1570641053	-0.1376871446	-0.141629
O	-2.3707705058	-0.1259310028	-0.1852253598	-0.18904
H	 0.8847819997	 1.8571774889	-0.0747261552	 0.131051
H	-0.8416340452	 1.9150982589	-0.4578088038	 0.152767
H	-0.3224150998	 1.6439448777	 1.2175085813	 0.12319
H	 0.7636009924	-0.5021248745	 0.1595364726	 0.258987
H	-2.8448459107	-4.1702053295	 1.0634873956	 0.134424
H	-4.2445218898	-3.7239082401	 0.0669634987	 0.120036
H	-2.7597373646	-4.3369786398	-0.6881430765	 0.135464
H	-4.3333383478	-0.8687520247	-0.214913874	 0.132432
