17
gdb 60676	1.94762	1.45721	1.33624	3.0236	74.15	-0.2526	-0.0305	0.2221	1100.6421	0.131639	-421.773076	-421.763374	-421.76243	-421.807884	35.157	
O	-0.1631774641	 1.507406264	-0.091427351	-0.447537
C	 0.0464825491	 0.0971647083	-0.127132044	 0.037562
C	-1.3792550553	-0.4956822769	-0.0793426977	 0.168643
O	-1.7021522617	-1.5504799596	-0.5443255472	-0.240511
C	 0.7514191482	-0.3137359052	-1.3422542569	 0.344492
C	 1.341872881	-0.6163887708	-2.3439985111	-0.477867
C	 0.7493104091	-0.361000975	 1.1530363336	-0.018907
C	 1.5006041602	-1.6597474167	 1.2404199351	-0.26644
C	 2.2577538481	-0.3564742648	 1.2617575087	-0.299193
H	 0.6968316539	 1.920449047	 0.046150187	 0.289006
H	-2.0773449165	 0.1644611601	 0.4798120842	 0.098999
H	 1.8463261314	-0.8890564404	-3.2384550799	 0.206072
H	 0.2007235975	-0.0471810498	 2.036820123	 0.100039
H	 1.4151524538	-2.2290146188	 2.1587664286	 0.118821
H	 1.5696005641	-2.2583776853	 0.339738845	 0.139554
H	 2.8263403273	-0.1019723203	 0.3740389734	 0.128255
H	 2.693626914	-0.0190086058	 2.195224639	 0.119012
