15
gdb 11019	4.1557	1.77208	1.49591	4.4706	61.27	-0.2386	0.0261	0.2647	841.0661	0.120019	-399.824878	-399.817874	-399.81693	-399.855819	27.039	
O	-0.1601836105	 1.3945448466	 0.0498305733	-0.462714
C	-0.0822391184	 0.0065516066	 0.0450301065	 0.390329
C	-0.4201363727	-0.7785488607	-1.1842129228	-0.344656
C	-1.3322860852	-0.8347465013	 0.0384463158	-0.204711
C	-1.0875162634	-1.989825406	 0.9737246224	 0.426285
O	-1.8721691548	-2.8409398524	 1.3274622599	-0.38312
N	 0.2328641475	-1.9008941004	 1.3626025643	-0.324954
C	 0.8857390908	-0.6445566048	 1.0381105831	-0.235994
H	 0.5067254697	 1.7377312717	-0.5546105351	 0.289249
H	-0.8085676205	-0.2090569744	-2.0217160296	 0.124267
H	 0.161188106	-1.6568486479	-1.4472406515	 0.126246
H	-2.3281538722	-0.4187426669	-0.0231635872	 0.120757
H	 0.5878283568	-2.5374072383	 2.0582118987	 0.252047
H	 1.8841306871	-0.8040078006	 0.6110632498	 0.106883
H	 0.9855552097	 0.0119334587	 1.9130132525	 0.120087
