19
gdb 61018	3.12304	1.16202	1.03583	5.4144	76.89	-0.2255	0.0367	0.2622	1219.8387	0.159851	-419.175644	-419.166909	-419.165965	-419.210148	32.	
C	-0.0745906863	 1.4437540292	-0.0516376752	-0.355549
N	 0.0666230374	 0.0015111157	 0.0890262293	-0.059996
C	 0.0675115396	-0.5429944088	 1.3473994599	 0.147316
O	 0.0076094767	 0.0998195916	 2.3774774216	-0.352361
C	 0.0498496954	-0.7992824441	-1.1161539666	 0.047173
C	 0.9319938625	-2.102258897	-1.2625589363	-0.270514
C	-0.3341009495	-2.8461217371	-1.6949183215	-0.035435
N	-1.2536616107	-2.7692446351	-0.5372572861	-0.326924
C	-1.1851848164	-1.6402444948	-1.4939989422	-0.065844
H	 0.731018252	 1.8527243079	-0.6722855386	 0.120354
H	-1.035485168	 1.7099042521	-0.509815891	 0.120272
H	-0.0250055455	 1.8803273469	 0.9453783486	 0.169679
H	 0.1263457172	-1.6407142789	 1.3284726104	 0.1048
H	 0.2892305603	-0.1279971911	-1.9441680498	 0.092151
H	 1.6847254914	-1.9940432938	-2.0457240626	 0.111351
H	 1.4022371579	-2.4858986044	-0.3561706177	 0.122004
H	-0.4222529427	-3.6355669164	-2.4294287767	 0.100644
H	-2.0900389918	-3.304789115	-0.7663356959	 0.234423
H	-2.0701763296	-1.3091056271	-2.0238769194	 0.096455
