22
gdb 101784	2.3969	1.01975	0.78947	3.3806	79.3	-0.2334	0.034	0.2675	1512.759	0.191871	-441.522644	-441.511687	-441.510743	-441.559336	39.53	
C	-0.5590829919	 1.850506229	 0.2399307468	-0.398253
C	-0.4512123212	 0.3903642717	-0.2056250004	-0.170045
C	-1.6448267904	-0.4855292129	 0.1826108204	 0.134262
C	-1.4647305867	-1.9202803781	-0.3182959135	-0.399631
O	-1.7503451662	-0.4365399089	 1.6130667149	-0.267292
C	-2.9676560984	-0.9064445435	 2.1539126807	-0.1831
C	-4.1079593867	 0.1217742054	 2.2002267507	 0.350884
N	-3.7152363194	 1.4082940244	 2.0105123529	-0.508688
O	-5.2526299741	-0.2229307787	 2.4187626352	-0.359871
H	 0.2843665033	 2.4369720095	-0.1365213067	 0.115367
H	-1.4778384627	 2.3162435913	-0.1347239238	 0.114656
H	-0.5499741991	 1.9280731358	 1.3311787142	 0.128039
H	-0.3446304503	 0.342632806	-1.2956442674	 0.100099
H	 0.4560102298	-0.0587368287	 0.2172961026	 0.106349
H	-2.5607830995	-0.0574377951	-0.2561618131	 0.076724
H	-2.3139976452	-2.5581652035	-0.0596182066	 0.122914
H	-1.3698966511	-1.9299029047	-1.4085981839	 0.118633
H	-0.5606065087	-2.3611938265	 0.1132137653	 0.124649
H	-3.3535169995	-1.7922429022	 1.6385192123	 0.125352
H	-2.7614005235	-1.2023186453	 3.1888486769	 0.135494
H	-2.738337698	 1.6279179676	 1.9177552916	 0.273002
H	-4.3936727405	 2.1440317074	 2.1149084809	 0.260458
