14
gdb 1708	3.89576	2.44504	1.97745	3.1446	57.49	-0.2897	0.011	0.3007	692.3886	0.113337	-324.57665	-324.569773	-324.568829	-324.607306	25.296	
O	 0.199350164	 1.455321609	-0.3292916845	-0.454745
C	 0.0005371317	 0.1082302175	 0.024163468	 0.280841
C	 0.1422089964	-0.3006396111	 1.5303061294	-0.272557
C	-1.1962273209	-1.0760188978	 1.4080061106	-0.215811
C	-1.5011066459	-0.2826452516	 0.1099364536	-0.250893
C	 0.771091593	-0.782241958	-0.8588392891	 0.224467
N	 1.4060214361	-1.4642024024	-1.5435352487	-0.336933
H	 1.146154381	 1.629890258	-0.3836871761	 0.293064
H	 1.0384607155	-0.8485669109	 1.825352451	 0.118846
H	 0.0424828143	 0.6015538587	 2.138663421	 0.121033
H	-1.0377573645	-2.1387727096	 1.2119526311	 0.125524
H	-1.9056396158	-0.973169154	 2.2297650768	 0.113667
H	-2.0744753785	 0.6267364916	 0.3041344632	 0.128612
H	-1.9310900066	-0.8106576494	-0.7416102664	 0.124884
