17
gdb 33305	7.19602	0.64764	0.60209	1.3916	107.91	-0.2192	-0.0424	0.1767	1800.3903	0.13577	-347.526636	-347.517994	-347.51705	-347.560411	32.129	
C	 0.1119703225	-3.753359589	-0.017093042	-0.584241
C	 0.0601862715	-2.5456549343	 0.000191481	 0.261026
C	 0.0071942185	-1.1898524298	 0.0194733443	-0.014047
C	-0.0652774761	 0.023079701	 0.0355705519	 0.160729
C	-0.0685054937	 1.4310023393	 0.0595905128	 0.166703
C	-1.1495785125	 2.2306490018	 0.0554252211	-0.16602
C	-0.7818151705	 3.6895191395	 0.034302993	-0.250015
C	 0.7321484016	 3.6800418969	 0.3681427152	-0.215053
C	 1.2193472948	 2.2478216768	 0.040096471	-0.32382
H	 0.151268553	-4.8140235661	-0.0322463132	 0.189545
H	-2.1723257317	 1.8735235632	 0.0295677833	 0.101986
H	-0.9817423157	 4.117629894	-0.9592120547	 0.115197
H	-1.3678889715	 4.285219965	 0.7432000813	 0.110288
H	 1.2895394477	 4.4475491256	-0.1738516364	 0.102638
H	 0.8677464295	 3.8738206693	 1.4365211908	 0.11164
H	 1.9580489405	 1.8744591089	 0.7554477592	 0.116509
H	 1.6838505321	 2.1841122881	-0.9523956484	 0.116936
