16
gdb 76079	2.22855	1.38393	1.22597	3.7125	71.58	-0.2403	0.0125	0.2528	1095.6059	0.122539	-437.864828	-437.855614	-437.85467	-437.899113	34.071	
N	 0.570031991	 0.4805004213	-0.7231413683	-0.532266
C	-0.1359587119	 0.198113558	 0.4008767014	 0.397319
O	 0.1029764898	 0.6861810235	 1.489596165	-0.373104
C	-1.2787495135	-0.7834898543	 0.2535804179	-0.151904
C	-1.7977762692	-1.4055986688	-1.0169242304	 0.066473
O	-1.175998701	-1.1285294537	-2.2383871126	-0.417204
C	-1.0679733983	-2.2863675552	-0.0168111516	-0.260453
C	 0.2006241617	-2.8144782053	-0.4161598228	 0.309081
C	 1.2325647633	-3.2790246512	-0.8268142731	-0.441915
H	 1.2958474399	 1.1743263398	-0.653051434	 0.255501
H	 0.2460997646	 0.1562101029	-1.6216187679	 0.26813
H	-2.0245680402	-0.5967152439	 1.0177549845	 0.126348
H	-2.8743827416	-1.5322858492	-1.1040642611	 0.117184
H	-0.6551090204	-1.9040445712	-2.4886833755	 0.298942
H	-1.6751266175	-2.9535968392	 0.5869624945	 0.13054
H	 2.1654159534	-3.6805333134	-1.1381210159	 0.207328
