22
gdb 40830	3.67966	1.03407	0.86563	1.6972	82.82	-0.2415	0.083	0.3245	1392.1112	0.196765	-404.333083	-404.324685	-404.323741	-404.366344	32.78	
C	 0.591283822	 0.3449154202	-0.9773727408	-0.244583
N	-0.545037656	 1.0726715078	-0.3879325765	-0.314812
C	 0.4491620184	 0.449487203	 0.4957541133	-0.021533
C	-0.0201838903	-0.7108910749	 1.334104937	 0.150369
C	 1.1068532775	-1.6994406812	 1.6656078867	-0.199766
C	 0.6036376636	-2.791583937	 2.6206184812	-0.210502
C	-0.0768674222	-2.1567792271	 3.8410842447	-0.192879
C	-1.1278889584	-1.1440010603	 3.3827784829	-0.062401
O	-0.5722854722	-0.1607894489	 2.5260602667	-0.267381
H	 0.3224153732	-0.5776996671	-1.4857214886	 0.114974
H	 1.3913799554	 0.9034906533	-1.4559723129	 0.109814
H	-0.3869159837	 2.0750560889	-0.4421535013	 0.231939
H	 1.146535672	 1.1062852077	 1.013702256	 0.085917
H	-0.8140492	-1.2371037934	 0.7753502216	 0.065686
H	 1.495896872	-2.1377623895	 0.7398433674	 0.093903
H	 1.9306933851	-1.1459432481	 2.1350776868	 0.095079
H	-0.1209539487	-3.4268334649	 2.0924545016	 0.095193
H	 1.4271952033	-3.4447890267	 2.9279880898	 0.093609
H	-0.5463279363	-2.9199708571	 4.4724993482	 0.091283
H	 0.6694271874	-1.6379516748	 4.4555357195	 0.100409
H	-1.9520106649	-1.6686054443	 2.867853992	 0.083628
H	-1.5566053672	-0.6010305357	 4.230497875	 0.102054
