15
gdb 130145	6.06079	0.93005	0.811	1.8862	72.78	-0.2112	0.0212	0.2324	1337.5156	0.113886	-412.987083	-412.978712	-412.977768	-413.02063	30.943	
N	-0.8475141919	 1.0180376283	 0.8677964131	-0.58318
C	-0.1982424572	-0.026581995	 0.2409421679	 0.386608
N	-0.6353565079	-0.5746359317	-0.8865627718	-0.301244
N	 0.2712638784	-1.5816628239	-1.0620487266	-0.237046
C	 1.1769071745	-1.581070721	-0.0742741191	 0.398711
C	 2.3136530685	-2.5577713352	 0.034492999	-0.482688
C	 2.3704118431	-3.5022708438	-1.075905898	 0.288382
C	 2.3958666889	-4.2704394703	-1.9995359991	-0.430197
N	 0.9163614677	-0.6048669648	 0.7797820331	-0.376397
H	-0.2321549485	 1.5792390161	 1.4378750911	 0.257174
H	-1.4206673703	 1.5694783403	 0.2460608241	 0.256408
H	 0.2127450173	-2.1998733282	-1.8542219707	 0.279658
H	 3.2533493851	-1.9956700763	 0.1014819272	 0.167258
H	 2.2225370629	-3.0988437031	 0.9847286613	 0.168644
H	 2.4385634794	-4.9596315916	-2.8067398514	 0.20791
