19
gdb 122485	2.54386	0.97497	0.7765	4.0936	77.75	-0.2256	0.0305	0.2561	1481.838	0.159039	-419.188188	-419.178511	-419.177567	-419.223819	34.568	
O	 0.0065223599	 1.2269770622	-0.7330451615	-0.417236
C	-0.1390371139	 0.1271493337	 0.1580247345	-0.089685
C	-1.6104273268	-0.2528366276	 0.1567880962	-0.113983
N	-1.9981161473	-0.6900607315	-1.1800986086	-0.30933
C	-3.39064137	-0.9562198527	-1.3360691173	 0.055843
C	-4.4363905598	 0.1262683003	-1.4597897675	-0.3049
C	-4.0609357927	-0.7193173307	-2.6774156135	-0.200888
C	-3.3097119905	-0.1136625775	-3.739601502	 0.288619
N	-2.6895495467	 0.3758152294	-4.5856850833	-0.344803
H	 0.9367952697	 1.326562461	-0.9522572798	 0.294552
H	 0.4573561883	-0.7344066932	-0.173416421	 0.1025
H	 0.1738976631	 0.3950813846	 1.178475439	 0.090595
H	-1.7718307361	-1.0728084096	 0.8680812244	 0.100455
H	-2.2003562179	 0.609947554	 0.513414226	 0.093095
H	-1.6660381045	-0.0096145153	-1.8572409151	 0.245019
H	-3.711273793	-1.8673071725	-0.8348583768	 0.107009
H	-5.4267574378	-0.0277890139	-1.0457705123	 0.125592
H	-4.092418877	 1.1543785404	-1.4650648382	 0.142552
H	-4.7760602072	-1.4630233011	-3.0110825931	 0.134993
