21
gdb 52841	2.23127	1.0767	0.98556	1.7926	87.78	-0.2403	0.0389	0.2793	1400.6041	0.179765	-387.062848	-387.052211	-387.051267	-387.10014	38.134	
C	 0.1237250578	 1.5190801797	 0.0275012435	-0.499408
C	 0.0720793817	 0.0639993858	 0.0118260318	-0.010842
C	 0.0213175511	-1.1405055554	-0.003408492	 0.082126
C	 0.0163976416	-2.5997910381	-0.0317627703	 0.231592
O	 0.7821720229	-3.0964172471	-1.1179731775	-0.469811
C	 0.2876550931	-3.2290869339	 1.378307257	-0.272067
C	-1.2429094353	-3.3908180601	 1.5590971702	-0.234303
C	-1.4057681324	-3.2493541284	 0.0214999684	 0.021611
C	-2.6050182249	-2.525886258	-0.5634303164	-0.421518
H	 0.9575595919	 1.8850392948	 0.6367262332	 0.148543
H	 0.246972295	 1.9226471608	-0.9835196156	 0.150988
H	-0.7988231702	 1.9414558841	 0.4406873769	 0.152042
H	 1.5443249468	-2.5188208981	-1.2317822592	 0.277884
H	 0.7899496917	-4.1903736674	 1.2436323098	 0.107608
H	 0.8358967671	-2.6237766643	 2.1023835368	 0.097421
H	-1.6036605719	-4.3126355177	 2.0193527371	 0.096986
H	-1.6808729373	-2.5388555314	 2.0875634333	 0.104262
H	-1.2896461842	-4.2336697229	-0.4451891957	 0.087172
H	-2.7142022783	-1.5280144091	-0.127470867	 0.118296
H	-2.5040051589	-2.4100741896	-1.6477758764	 0.121448
H	-3.5273057573	-3.0846950737	-0.370266738	 0.109973
