23
gdb 120862	3.30899	0.59381	0.53536	2.4267	83.24	-0.2607	0.08	0.3407	2085.1426	0.204163	-425.40064	-425.38966	-425.388716	-425.437951	38.914	
O	 0.0339301758	 1.4078985052	 0.2126014778	-0.42242
C	-0.00917127	-0.0050432161	 0.3470997636	-0.066479
C	-1.2973455306	-0.4987910801	-0.3038027873	-0.197222
C	-1.4352544145	-2.0045181655	-0.2267290281	-0.01798
C	-2.0325206907	-2.67727329	 0.9891047424	-0.293496
C	-2.7629581412	-2.7207107489	-0.3345846228	-0.017979
C	-4.0798715203	-1.9997487384	-0.5298410653	-0.197224
C	-5.2692179154	-2.8424107939	-0.0801415993	-0.066478
O	-6.4504861556	-2.089979372	-0.3142446308	-0.42242
H	 0.8400213821	 1.7250666566	 0.6296733941	 0.284275
H	 0.8587091082	-0.4785212071	-0.1415663322	 0.080596
H	 0.0093249164	-0.3085839715	 1.4060805141	 0.087246
H	-2.1390778157	-0.0011254703	 0.1883519583	 0.107242
H	-1.3051677225	-0.1650278695	-1.3490428153	 0.105755
H	-0.6035774075	-2.5365018989	-0.6848760051	 0.078535
H	-1.5753716754	-3.5826413941	 1.3734985298	 0.105714
H	-2.4446576248	-2.0289777189	 1.7576694575	 0.108682
H	-2.7135037573	-3.6746436622	-0.8562718623	 0.078537
H	-4.0995921685	-1.0586516665	 0.0290383794	 0.107239
H	-4.2222857673	-1.7386302923	-1.5860241471	 0.105758
H	-5.2841342671	-3.7921841033	-0.6404145263	 0.080595
H	-5.159487997	-3.0965899204	 0.986285313	 0.087247
H	-7.2027260911	-2.6131708718	-0.0231549881	 0.284275
