17
gdb 70806	3.02565	1.58826	1.24979	2.0057	74.2	-0.2549	0.0182	0.2731	1026.0294	0.135349	-417.952988	-417.945019	-417.944074	-417.984965	31.297	
C	 0.0237979172	 1.4920226342	 0.0795267684	-0.494814
C	-0.0369981767	-0.0018177874	 0.0431558603	 0.343627
C	-1.2723264838	-0.8833122281	-0.1899449397	-0.329538
C	-0.3590336431	-2.0814288613	 0.1570210703	 0.326374
O	-0.8933740219	-3.2556330684	 0.6062518652	-0.46758
C	 0.6320425122	-1.0157464843	 0.8681551429	-0.194099
N	 1.1811345562	-0.7211409241	-0.5270011435	-0.238877
C	 0.6863623578	-2.0274063688	-0.918719623	 0.347807
N	 1.1321921214	-2.9209738789	-1.6814298059	-0.574721
H	 1.027923586	 1.8301674485	 0.34700009	 0.138907
H	-0.2288520801	 1.9141700643	-0.8986953999	 0.132454
H	-0.6864148427	 1.8859750718	 0.8138751851	 0.126029
H	-2.0186591761	-0.7113311394	 0.5901473437	 0.119415
H	-1.7458049466	-0.8881557111	-1.1774242447	 0.110228
H	-0.3314705558	-3.9718959003	 0.281644519	 0.303815
H	 1.2693762593	-1.0169856407	 1.7413465679	 0.120273
H	 1.9478917267	-2.5897806362	-2.2012584861	 0.230701
