14
gdb 17422	3.02045	2.78088	1.84707	3.2945	60.74	-0.2276	-0.0021	0.2255	731.531	0.105991	-382.492194	-382.485609	-382.484665	-382.522722	25.324	
C	-0.0949203603	 1.5477565811	 0.0610202664	-0.518309
C	 0.0630165212	 0.0655977821	 0.0919277566	 0.272976
O	-1.1770228246	-0.7089518409	 0.1656833577	-0.320945
C	-0.4088995631	-1.7418521384	 0.7836032648	 0.104467
C	 0.8967482237	-1.9187331647	 0.0043266064	-0.259935
C	 0.7238136212	-0.8835075595	 1.1740107544	-0.194835
C	 0.9074793492	-0.749565796	-0.9295136411	 0.451135
O	 1.5193396289	-0.4528437029	-1.9154444061	-0.337392
H	 0.8825940628	 2.0290513562	-0.0339917176	 0.140892
H	-0.6987677753	 1.8304558682	-0.8067277518	 0.151354
H	-0.5907583368	 1.9128504375	 0.9641223306	 0.135236
H	-0.9169183228	-2.5579143573	 1.2803917605	 0.126945
H	 1.4835251933	-2.826072925	-0.0023195503	 0.119449
H	 1.3427275426	-0.7351211406	 2.0461287695	 0.128963
