17
gdb 49428	3.64254	1.35431	1.19877	3.2269	79.56	-0.2234	-0.0522	0.1712	1047.9363	0.135723	-384.591933	-384.584791	-384.583846	-384.62385	28.168	
O	-0.2884939588	 0.2329451946	 0.4107939757	-0.253237
C	-0.0235594126	 1.3927002316	 0.2214280561	 0.160063
C	 1.3706361511	 1.9326131724	 0.0372934633	-0.113886
C	 1.6212663946	 2.9640195481	-1.1419627066	-0.106452
C	 1.4496538774	 4.5241724377	-0.8808618046	-0.041734
C	 0.6663088041	 5.1215623297	 0.3038581069	-0.261853
C	 0.8395016332	 3.9843067951	 1.3067973736	-0.108951
C	 1.8108803597	 3.151385961	 0.8725249026	 0.034235
C	 2.5825713517	 3.7604132959	-0.3112277021	-0.107313
H	-0.8229925934	 2.1635709733	 0.1341313909	 0.071819
H	 2.0812508668	 1.1042804354	-0.0459319661	 0.099926
H	 1.7699923147	 2.6411955356	-2.1693808935	 0.102637
H	 1.5812115418	 5.1043018959	-1.792588084	 0.086901
H	 1.071605171	 6.1080179144	 0.5709841117	 0.114959
H	-0.4069506994	 5.2576718081	 0.1223239374	 0.116099
H	-0.0004615567	 3.6520069719	 1.9090343616	 0.108768
H	 3.6510689448	 3.8948401795	-0.4121329229	 0.09802
