14
gdb 129734	2.37472	1.91338	1.06086	1.7546	73.36	-0.1939	-0.0488	0.1451	1036.1199	0.101416	-469.980807	-469.972901	-469.971957	-470.012924	30.145	
N	 0.0283934415	 1.4107049029	 0.1679947802	-0.59878
C	-0.0043778481	 0.0285572091	 0.0627210248	 0.116447
C	-1.1418660611	-0.7066621643	 0.037370809	 0.418627
O	-2.3667516251	-0.1497563416	 0.0481149611	-0.41437
O	-1.1939513127	-2.0587276276	-0.0067195063	-0.277805
N	-0.028158889	-2.8114850176	-0.0288343826	-0.084441
C	 1.0732754174	-2.1426967603	-0.0169056124	-0.023076
C	 1.2464071418	-0.693305083	 0.014558415	 0.246983
N	 2.3666390963	-0.0508887718	-0.0055950327	-0.569596
H	 0.9328479997	 1.7715068829	-0.1113548507	 0.269139
H	-0.7535073135	 1.897497769	-0.2446118395	 0.253636
H	-3.0241448129	-0.8563933279	 0.0168782743	 0.315362
H	 1.9569955558	-2.7767750541	-0.0424058702	 0.136202
H	 3.15963062	-0.6913245858	-0.0496527199	 0.21167
