18
gdb 107805	2.67644	1.62201	1.30167	1.2552	69.97	-0.2449	0.0524	0.2974	1009.767	0.148107	-439.005288	-438.997366	-438.996422	-439.037571	31.048	
O	-0.0133914268	 1.4115366678	 0.0264326568	-0.425642
C	 0.0723793015	-0.0077415402	 0.0127933237	-0.192275
C	-1.3094710149	-0.6033401412	 0.0290345062	 0.241196
C	-2.2858745199	-0.410168541	 1.2001659601	-0.194682
N	-3.0358718703	-1.6404115515	 0.7764343972	-0.147834
C	-3.0209240063	-1.59908121	-0.7290461552	-0.116008
C	-1.8373859136	-2.0943682276	 0.024485235	-0.127047
C	-2.2308158524	-0.3898180795	-1.2098632909	 0.111638
O	-2.8078998821	 0.8767591723	-1.4416041687	-0.447509
H	-0.6673585361	 1.666959583	-0.6363805203	 0.292703
H	 0.6348829607	-0.3719585601	-0.8633951748	 0.088185
H	 0.6415948955	-0.2917428828	 0.9052908967	 0.107968
H	-1.8253426944	-0.6047721796	 2.1718757998	 0.117394
H	-2.8754371399	 0.5136164465	 1.2613603934	 0.087159
H	-3.7950200157	-2.1609688118	-1.2348848398	 0.104833
H	-1.3832971377	-3.0720918551	 0.1056518829	 0.106788
H	-1.6872110771	-0.6411872425	-2.1258370325	 0.100904
H	-3.4431698005	 1.0606014433	-0.7418129295	 0.292228
