18
gdb 22522	2.99166	1.04174	0.99599	1.9359	72.25	-0.2492	-0.0064	0.2428	1269.4886	0.144949	-476.155228	-476.145673	-476.144729	-476.189586	34.93	
C	-0.2734614313	 1.6128993585	 0.2543757081	-0.434651
C	-0.0924973734	 0.109036328	 0.1444389359	 0.296869
C	-1.3755425854	-0.6203266061	-0.2786633931	-0.084319
O	-1.7191865952	-0.2676734029	-1.6021198914	-0.418908
O	 0.9632415788	-0.2470522392	-0.8220416527	-0.345074
C	 1.7331664529	-0.9626289652	 0.1758973851	-0.166365
C	 0.7161797147	-0.583238765	 1.219360805	 0.307147
N	 0.5321772414	-0.7133733011	 2.4612114199	-0.23819
O	 1.5748567061	-1.4480309564	 3.0502348247	-0.387293
H	 0.6876897418	 2.109960231	 0.4037715314	 0.122303
H	-0.7371099257	 1.9915736211	-0.6601921256	 0.141472
H	-0.9249731204	 1.8477672801	 1.1018339598	 0.131423
H	-1.2292646522	-1.7059659129	-0.1733382608	 0.087703
H	-2.2098228872	-0.328114605	 0.3668163542	 0.118479
H	-0.9314929271	-0.4468012509	-2.1318937931	 0.29371
H	 1.8178488301	-2.0352951244	-0.0381081904	 0.130229
H	 2.7373723972	-0.5440420937	 0.3131750863	 0.133708
H	 1.3171692351	-1.4640432258	 3.9785706468	 0.311757
