15
gdb 61329	4.29898	0.61598	0.61381	3.9405	81.64	-0.2702	-0.0589	0.2113	1774.0467	0.111442	-416.811485	-416.802021	-416.801076	-416.847211	31.891	
C	-0.2880535428	 1.3805266796	 0.0722161003	-0.351081
N	 0.0250158175	-0.0346716167	-0.0462890944	-0.024815
C	-0.0144913354	-0.8578136496	 1.1455994099	-0.364632
C	-1.3617376985	-1.025309147	 1.6960172938	 0.157812
C	-2.4744897156	-1.1491974949	 2.1481280598	-0.004137
C	-3.7320081362	-1.2937899411	 2.66143469	 0.221276
N	-4.8005639454	-1.4154731205	 3.0996422126	-0.327732
C	 0.3140899004	-0.5842606643	-1.2675455291	 0.162517
O	 0.3588201224	 0.0228586573	-2.3119737772	-0.323457
H	 0.4119695965	 1.8744915311	 0.7562016965	 0.13052
H	-0.19880006	 1.8191627814	-0.921218455	 0.178034
H	-1.3071472495	 1.5265044285	 0.446138877	 0.142869
H	 0.3983556567	-1.8440888727	 0.9020806842	 0.164346
H	 0.6332689129	-0.4295017279	 1.9239860619	 0.15748
H	 0.516431627	-1.670891373	-1.1895923403	 0.081
