12
gdb 27474	2.71821	1.78634	1.2362	3.8287	63.23	-0.2602	-0.1109	0.1493	939.3371	0.078985	-468.836048	-468.829256	-468.828312	-468.867455	25.249	
O	-0.1667172948	 1.2202136027	-0.3217159173	-0.36496
C	 0.0852372694	-0.0461642707	 0.0187675611	 0.448341
N	 1.2694445558	-0.5237124925	-0.1060837966	-0.342336
C	 1.507673935	-1.8592320631	 0.2152184731	 0.366765
O	 2.3380222923	-2.235250657	 0.9949551351	-0.292534
N	 0.7667908916	-2.7926100925	-0.5657435045	-0.191661
C	-0.50218109	-2.8247163965	-0.4273146013	-0.014937
C	-1.2999227523	-1.8825618107	 0.379227108	 0.003259
N	-1.0533124167	-0.6372554836	 0.5642534851	-0.218757
H	 0.6624760533	 1.5880851312	-0.6600267976	 0.319418
H	-1.0613736735	-3.6023805382	-0.9542763906	 0.140865
H	-2.2257483	-2.2661763392	 0.8137634655	 0.146537
