19
gdb 78513	2.50395	1.74052	1.19452	2.299	75.71	-0.2228	0.0739	0.2967	1075.5044	0.156774	-422.947708	-422.939079	-422.938135	-422.980221	33.795	
C	 0.0642315752	 1.4151063245	-0.1730148065	-0.529792
C	 0.0033198923	-0.069334029	-0.0268555874	 0.477029
O	 0.5514304254	-0.914408647	-1.0896052092	-0.390539
C	 0.0564921572	-1.8659303331	-0.0957999851	 0.458645
C	 0.2087367625	-3.329178342	-0.3604618069	-0.527214
C	 0.5082826781	-1.0027021242	 1.1285127147	-0.206109
C	-0.8839603745	-1.0762443414	 1.7622872898	 0.098963
O	-1.2037959661	 0.0453453734	 2.558658437	-0.441081
C	-1.2121867122	-1.0205466232	 0.2551234356	-0.239568
H	 1.1025644823	 1.7478885689	-0.2693586317	 0.129934
H	-0.4831073548	 1.7360123096	-1.0651414895	 0.127201
H	-0.3793309829	 1.8844485877	 0.7082346742	 0.144311
H	 1.2654821687	-3.5888295846	-0.4768623352	 0.135547
H	-0.2024322278	-3.9146770109	 0.4678463788	 0.126308
H	-0.3176371388	-3.6095919724	-1.278072752	 0.134416
H	 1.4904420706	-0.9924042955	 1.6013515945	 0.078676
H	-1.1319736215	-2.0157690067	 2.2751137037	 0.06665
H	-2.1396049513	 0.0018566848	 2.7787811184	 0.283888
H	-2.1717830226	-1.0330132291	-0.2642083533	 0.072738
