14
gdb 44984	3.82673	1.2199	1.05211	2.2925	66.57	-0.2942	-0.0154	0.2788	1086.4346	0.101646	-436.727284	-436.720065	-436.719121	-436.75924	27.214	
O	 0.0136931839	 0.085493692	-0.4290432324	-0.305942
C	-0.0507344081	 1.2037575599	-0.0261702507	 0.431744
C	-1.3063608973	 2.0398718305	 0.2481307328	-0.449189
C	-0.7832843429	 3.3395377352	 0.832743562	 0.141614
C	 0.0449961424	 3.2314830874	 2.1157886473	-0.342853
C	 0.7362623988	 3.2005506261	 0.7952499097	 0.072506
O	 1.0704965553	 1.9405896681	 0.2751569876	-0.212927
C	-1.4344279245	 4.5758503064	 0.5184483686	 0.215831
N	-1.963754666	 5.5733168087	 0.2670070028	-0.333584
H	-1.8364665499	 2.20093404	-0.6944055856	 0.169647
H	-1.9732557111	 1.4847006193	 0.9122004679	 0.162361
H	 0.1352068952	 4.1349006636	 2.7071746368	 0.156246
H	-0.024935519	 2.3078628773	 2.6810840418	 0.146262
H	 1.3949423833	 3.9909912854	 0.4610879216	 0.148283
