20
gdb 71698	3.34749	1.54528	1.43132	1.5092	81.82	-0.2163	0.0811	0.2973	1023.1665	0.171581	-365.973744	-365.966008	-365.965064	-366.005304	31.531	
C	-0.0175640373	 1.4706946742	 0.0919968308	-0.487934
C	-0.071188098	-0.032273046	 0.0708705214	 0.32534
C	-1.2933014748	-0.7828782057	-0.4240729277	-0.292122
C	-0.7426934188	-2.1889192052	-0.3523254409	-0.125187
C	 0.2497933265	-2.3185724505	 0.8034092764	-0.169982
C	 0.6816050239	-0.8689441207	 1.0451321135	-0.091026
N	 1.1878456451	-0.7265043257	-0.3638497957	-0.233458
C	 0.7414858947	-2.1592784221	-0.6133521492	 0.375452
C	 1.5331423788	-3.023592955	-1.537819926	-0.504409
H	 0.9537458283	 1.8177888178	 0.453892158	 0.129701
H	-0.1670155833	 1.8808514058	-0.9124345223	 0.122337
H	-0.7955187738	 1.8799161384	 0.7457462289	 0.116144
H	-2.1601220588	-0.6212205884	 0.2267897953	 0.102116
H	-1.56698525	-0.4908780356	-1.4446346484	 0.10278
H	-1.3160546632	-3.0588246576	-0.6487554596	 0.086446
H	 0.3030460711	-3.1548396762	 1.4865538329	 0.088309
H	 1.2455391128	-0.4899207344	 1.8904005218	 0.087404
H	 2.5870747932	-3.0547863064	-1.2430185259	 0.127703
H	 1.1461658961	-4.0476006874	-1.5371085523	 0.116699
H	 1.4839185874	-2.6417316895	-2.5644315711	 0.123685
