17
gdb 52499	15.76026	0.40218	0.39504	0.8622	105.11	-0.231	-0.006	0.225	2668.9374	0.132509	-347.48485	-347.474182	-347.473237	-347.523509	36.036	
C	-0.0114487057	 1.4991424254	 0.0102293861	-0.518345
C	 0.0101361549	 0.0475439905	 0.0022213492	 0.256399
C	 0.0290537136	-1.1626671875	-0.0044635786	-0.215549
C	 0.0492266461	-2.5226048438	-0.0119655871	-0.113907
C	 0.0728370459	-3.7333576314	-0.018697808	 0.208253
C	 0.067173359	-5.187107817	-0.0264553911	-0.384517
C	-1.3714776866	-5.7747061726	-0.0158783404	-0.340048
C	-1.3684979561	-7.2312162585	-0.0237314711	 0.294511
C	-1.331025416	-8.4325056963	-0.0305439373	-0.436813
H	 1.0044300408	 1.910282143	 0.0027247881	 0.156359
H	-0.5360839572	 1.8932812283	-0.867551283	 0.155889
H	-0.5191624285	 1.8837705445	 0.9020670493	 0.155889
H	 0.5965719122	-5.5620406726	-0.910639053	 0.146872
H	 0.6133181624	-5.5714662806	 0.843379557	 0.146872
H	-1.9014200723	-5.403281396	 0.8684369744	 0.145213
H	-1.9181675959	-5.3938564578	-0.8858740774	 0.145213
H	-1.3159534067	-9.4941597575	-0.036391827	 0.197709
