14
gdb 130462	4.05007	1.61977	1.15703	1.8401	81.82	-0.2144	-0.0608	0.1536	969.1244	0.1039	-399.555025	-399.548954	-399.54801	-399.585338	24.596	
O	-0.0427522805	 1.2774237474	 0.0091989842	-0.223613
C	 1.0833923854	 1.9880031473	 0.0023271245	 0.023681
C	 2.3141482231	 1.4201025288	-0.0124799226	 0.167489
C	 3.6557159154	 1.8987589647	-0.0225876002	-0.271169
C	 4.4738763649	 0.783992855	-0.0365813789	-0.081629
C	 3.6899466826	-0.4154996761	-0.0356297709	-0.285055
C	 2.3632936766	-0.0422012712	-0.0209110055	 0.233183
C	 1.1197029037	-0.7082331798	-0.0126744092	-0.041304
N	-0.0498498928	-0.1317819359	 0.0016031263	-0.123644
H	 0.8672562223	 3.0517888725	 0.0102104616	 0.154699
H	 3.9665519678	 2.9332178964	-0.0198540394	 0.103367
H	 5.5561334552	 0.8063090331	-0.0468068652	 0.10396
H	 4.0791777858	-1.4240755795	-0.0448658011	 0.102603
H	 1.0453806606	-1.7932574128	-0.0179057037	 0.137432
