19
gdb 45748	2.97231	1.30831	0.96396	2.3925	81.28	-0.2336	-0.0167	0.217	1232.5013	0.159379	-385.906317	-385.89803	-385.897086	-385.940175	31.354	
O	 0.2302663759	 0.0936450479	 0.0094931801	-0.306431
C	 0.0616723738	 1.2841935166	 0.0227234756	 0.388607
C	-1.2974616705	 2.0026835025	-0.016845788	-0.368397
C	-0.917869645	 3.4568163426	 0.0527894805	-0.082817
C	 0.4025883679	 3.6417006255	 0.0984910324	-0.076243
C	 1.1825495228	 2.3503780573	 0.0884334002	-0.172903
C	 2.1050436866	 2.1528089675	 1.279454346	 0.040832
C	 3.2102035205	 1.132835145	 1.2192423614	-0.255862
C	 3.5449816959	 2.6036470907	 1.2139160832	-0.284797
H	-1.8346228476	 1.730125361	-0.9349034351	 0.136455
H	-1.9301670295	 1.665403228	 0.814297576	 0.136257
H	-1.655504743	 4.2512419383	 0.0587929212	 0.101089
H	 0.8943304546	 4.6064264924	 0.1543885268	 0.102353
H	 1.7877469506	 2.251045209	-0.8255031758	 0.099036
H	 1.6111037988	 2.2716853977	 2.240285112	 0.084016
H	 3.4234724838	 0.557002465	 2.1124254204	 0.114108
H	 3.3287332942	 0.576144925	 0.2967211134	 0.122671
H	 3.8980071693	 3.0417104896	 0.2856932162	 0.109608
H	 3.9876835909	 3.0376522982	 2.1034990933	 0.112419
