18
gdb 10943	4.62109	1.29051	1.19345	3.1903	73.28	-0.2447	-0.0194	0.2253	1056.4174	0.152896	-347.790089	-347.782206	-347.781262	-347.822483	29.532	
C	-0.0188817137	 1.5531941867	 0.0047469664	-0.49827
C	 0.0516853002	 0.0536491348	 0.014691382	 0.378215
C	-0.8789325868	-0.8144722957	 0.8128867016	-0.330689
C	 0.601226076	-0.9151024389	 1.0713940695	-0.106049
C	 1.2576632555	-1.7905670596	-0.0111743842	-0.071381
C	 0.6905998846	-0.794806351	-1.0930382505	-0.318465
C	 2.7601586484	-1.7633499654	 0.0303819379	 0.158338
O	 3.4752116336	-2.7315881347	-0.0049058471	-0.258124
H	 0.9516136745	 1.9982728338	-0.243177891	 0.117939
H	-0.7461548108	 1.9111449686	-0.734202574	 0.123392
H	-0.3253018149	 1.9403962112	 0.9818889657	 0.120731
H	-1.4407359195	-0.2986450725	 1.5858153844	 0.113465
H	-1.4152385595	-1.6409379609	 0.3509533435	 0.107318
H	 1.0263022709	-0.707674928	 2.0469540919	 0.092369
H	 0.9189157825	-2.8285687787	-0.0675581653	 0.087973
H	 0.0152433884	-1.2315201824	-1.8350713957	 0.106409
H	 1.4920591532	-0.2682344052	-1.6206747529	 0.109382
H	 3.1897736973	-0.7340060519	 0.0947740477	 0.067446
