13
gdb 25217	2.55858	1.79588	1.09688	5.5941	72.48	-0.2514	-0.093	0.1584	1016.0203	0.089413	-456.603453	-456.596099	-456.595155	-456.63647	26.608	
O	-0.0706631979	 0.0132070105	-0.5303082141	-0.249715
C	-0.0170015815	 1.1135652974	-0.0824310184	 0.317764
O	-1.230919988	 1.7299268089	 0.2108162904	-0.205117
C	-1.5225439728	 2.7675864012	 1.0155398313	 0.075676
C	-0.7265729327	 3.5129893894	 1.8018597907	-0.154351
C	 0.7034750573	 3.4689295043	 1.9160666685	-0.068426
C	 1.5934984269	 2.7753179481	 1.1717650081	-0.189386
C	 1.3365396268	 1.8516404366	 0.0734686769	 0.241103
O	 2.2009513717	 1.528937702	-0.713264902	-0.289578
H	-2.5922855415	 2.9446026893	 0.9882423764	 0.14821
H	-1.2442497566	 4.2544877333	 2.4000832188	 0.119171
H	 1.1190871001	 4.1316393278	 2.6709100742	 0.124623
H	 2.6544905681	 2.9234103012	 1.3467690192	 0.130025
