14
gdb 124683	4.05869	1.07315	1.00974	3.0944	63.62	-0.2918	-0.0632	0.2286	1157.3127	0.099517	-466.137706	-466.129564	-466.12862	-466.171895	27.566	
C	-0.1812765352	 1.4300137376	-0.0428743479	-0.4
C	 0.0222092721	-0.082321834	 0.0271398361	-0.057108
C	 0.7171504225	-0.6507770266	-1.2210753307	 0.162621
O	 0.6144165677	-0.1417767087	-2.3009269832	-0.219421
N	 0.7634189619	-0.4916351511	 1.2164238629	 0.14361
N	 2.0537099951	-0.2512787784	 1.3959977292	-0.115085
N	 2.3355177869	-0.7593422506	 2.5564218628	-0.073754
N	 1.2192082052	-1.3063301536	 3.0774606079	-0.080565
N	 0.2383068567	-1.14375771	 2.2446735863	-0.107398
H	 0.7813601549	 1.9456370042	-0.0197674582	 0.160346
H	-0.6791323159	 1.6699134053	-0.9837273135	 0.161704
H	-0.7938713936	 1.7749689671	 0.792516352	 0.14398
H	-0.9411662846	-0.598775372	 0.1142925429	 0.163817
H	 1.2937375164	-1.5833103192	-1.0495685767	 0.117253
