17
gdb 53907	1.8954	1.5595	1.0286	2.9877	73.94	-0.2635	-0.0426	0.2209	1195.4335	0.133492	-417.998235	-417.988742	-417.987797	-418.033728	33.042	
C	 0.6702462122	 0.4206504813	-0.5996842299	-0.488059
C	-0.4143723444	 0.2443652368	 0.4312691481	 0.404555
O	-0.414168218	 0.7585209302	 1.5199397201	-0.290027
C	-1.5761255329	-0.7309502747	 0.0639198132	-0.230955
C	-2.1586801489	-0.4231881803	-1.2462328947	 0.302883
N	-2.6177965015	-0.1527606834	-2.2714844732	-0.320527
N	-1.023871801	-2.0882256963	 0.0590686518	-0.079649
C	-0.9746591383	-2.7372882426	 1.3735403443	-0.22513
C	-1.9717639569	-3.1647977665	 0.3564453521	-0.217988
H	 1.0014978762	-0.5592856967	-0.9563313337	 0.166459
H	 0.2699433153	 0.9574236764	-1.4669896042	 0.169431
H	 1.5016605307	 0.9805703303	-0.1715827368	 0.146929
H	-2.3508450538	-0.5814084442	 0.8326569328	 0.125638
H	-0.0862669703	-3.3321776037	 1.5591976913	 0.133071
H	-1.3355669697	-2.1730832555	 2.2302528961	 0.137743
H	-3.0110381049	-2.8932219737	 0.527156639	 0.129618
H	-1.8252955239	-4.0760777375	-0.2141552063	 0.13601
