18
gdb 40274	3.10521	1.47359	1.13491	1.4041	75.05	-0.239	0.0171	0.2561	1086.9017	0.149435	-439.070221	-439.062626	-439.061682	-439.102457	29.557	
C	-0.2691998569	 1.4921250719	 0.0170470052	-0.30263
C	 1.1972800869	 1.1660008041	 0.0479678989	-0.290711
C	 0.1740789904	 0.0428410628	 0.0124423207	 0.365085
C	-0.0802945914	-0.7319819835	 1.2851245996	-0.177074
O	 0.7445010323	-1.8848921272	 1.4086079552	-0.21286
C	 0.3033751023	-2.9494841256	 0.6464405484	 0.01898
O	 0.6409308404	-2.890662331	-0.7374816798	-0.226366
C	 0.3013186832	-1.8207127944	-1.5087265456	 0.103967
N	 0.0747885681	-0.6060445036	-1.2532439471	-0.30827
H	-0.7332538746	 1.8830325958	 0.9165842696	 0.110912
H	-0.6857370928	 1.8594636884	-0.9125278657	 0.126769
H	 1.7711622465	 1.32452023	-0.8562628357	 0.127395
H	 1.7471979276	 1.3110964487	 0.9714292132	 0.118622
H	 0.1299640679	-0.1051510782	 2.1560448758	 0.109312
H	-1.1377957209	-1.03954476	 1.331504874	 0.09668
H	 0.8025632266	-3.8495746246	 1.0086857733	 0.126064
H	-0.7916188696	-3.0549538118	 0.7244320324	 0.09343
H	 0.2833262641	-2.1459805018	-2.5485716224	 0.120696
