16
gdb 16141	3.91766	1.79383	1.49134	4.3245	66.02	-0.2431	-0.0176	0.2255	867.8653	0.130829	-383.737503	-383.73054	-383.729596	-383.768691	26.394	
O	-0.3407114334	 0.0853380308	-0.0085351738	-0.264518
C	-0.0875952975	 1.2584487985	-0.0996449032	 0.094555
C	 1.2671827303	 1.8466849426	-0.1414698079	 0.364461
C	 1.4766338701	 3.2690413091	 0.3704951474	-0.359431
C	 1.6082411114	 2.9859280037	-1.0977481483	-0.110805
C	 2.9783454205	 2.6179265576	-1.6428091656	-0.238937
C	 3.4850614221	 1.5558264922	-0.641320018	-0.09737
O	 2.3286710712	 0.9508211364	-0.0584367178	-0.281729
H	-0.8896659106	 2.0317426707	-0.1618492169	 0.066121
H	 0.5954975386	 3.8124595753	 0.6953463014	 0.128075
H	 2.3620495987	 3.4489086305	 0.970099488	 0.132331
H	 0.8613662541	 3.3805961263	-1.7768100986	 0.105944
H	 2.8651655403	 2.1929393013	-2.6448106249	 0.120305
H	 3.6640912535	 3.4674514725	-1.7119413496	 0.114526
H	 4.0775679236	 0.7644670932	-1.107101016	 0.121779
H	 4.0990159172	 2.0201609794	 0.1422212538	 0.104692
