18
gdb 64862	3.95641	0.89811	0.83233	2.5589	77.76	-0.2643	-0.0416	0.2227	1380.629	0.146278	-401.968405	-401.959304	-401.95836	-402.002719	33.033	
C	-0.1482218818	 1.6169767142	 0.0048952502	-0.45546
C	 0.0222352869	 0.1025797188	 0.0292531319	 0.214995
C	 1.1898861884	-0.426279861	-0.8722943487	-0.279428
C	 2.1059610076	-0.4999590376	 0.3865547662	-0.133798
C	 0.8212870133	-0.4330874146	 1.2666424446	-0.279343
C	 2.9752626792	-1.6546709034	 0.5327099145	 0.266443
N	 3.6477167649	-2.5886029348	 0.64563736	-0.320136
C	-1.2877808067	-0.6174680848	-0.1980916317	 0.118739
O	-2.3505416712	-0.0825513143	-0.376726573	-0.244426
H	 0.8061146778	 2.1261424581	 0.1720890822	 0.113648
H	-0.5489548696	 1.9444675941	-0.9582485088	 0.136846
H	-0.8502391858	 1.9383893571	 0.7790346249	 0.136989
H	 0.9860127537	-1.4221528791	-1.2744164456	 0.129956
H	 1.5140988323	 0.2279742511	-1.683170405	 0.128531
H	 2.7039889045	 0.4085694206	 0.4925196064	 0.13141
H	 0.8545506554	 0.215958533	 2.1431687582	 0.128584
H	 0.4956634403	-1.4311761903	 1.5712454518	 0.129987
H	-1.198509839	-1.7301821372	-0.1882763281	 0.076464
