23
gdb 97942	4.6437	0.57514	0.5428	0.1293	95.94	-0.2379	0.0597	0.2976	2151.3987	0.20519	-351.128843	-351.118473	-351.117528	-351.16619	37.148	
C	-0.0218118027	 1.3466516798	 0.5661379867	-0.362276
C	-0.0586542123	 0.0724452977	-0.2974409608	-0.312142
C	-1.3920354963	-0.5132431695	-0.3975265739	 0.095638
C	-2.5057216026	-0.9679236261	-0.4703016117	 0.033388
C	-3.8370650298	-1.5623300699	-0.5483755096	-0.379911
C	-3.8752672831	-3.0165702236	-0.0673854433	 0.071618
C	-3.651771907	-3.3210790457	 1.4396011663	-0.210591
C	-4.7589862343	-4.4058108923	 1.3424022206	-0.210531
C	-5.2541165953	-3.7269102911	 0.0365860825	-0.237186
H	 0.994505863	 1.7498083437	 0.6115828721	 0.11128
H	-0.6796782424	 2.1152283064	 0.1513458863	 0.126423
H	-0.3545920619	 1.1339906571	 1.5857753581	 0.126065
H	 0.3165629101	 0.3027248269	-1.3031793013	 0.12493
H	 0.6362244769	-0.6691508956	 0.1178349419	 0.124874
H	-4.5418723142	-0.969620141	 0.0518137899	 0.116554
H	-4.2061710559	-1.5126182394	-1.5824258343	 0.120994
H	-3.1870032277	-3.6138838112	-0.6746249462	 0.078293
H	-2.6528405357	-3.6292692073	 1.7553287692	 0.09812
H	-3.9671501826	-2.4775846408	 2.0629497638	 0.0978
H	-4.33945338	-5.3971324053	 1.1482676123	 0.101361
H	-5.4659272939	-4.4866921814	 2.1713318706	 0.094962
H	-6.0556708676	-3.0074717724	 0.2368894227	 0.095894
H	-5.5634908249	-4.3673994989	-0.7932177418	 0.094445
