20
gdb 83705	2.61534	1.60741	1.17593	3.6426	78.64	-0.2376	0.036	0.2737	1099.4423	0.173252	-403.194585	-403.186468	-403.185523	-403.227211	31.741	
C	-0.9556210572	 1.1929635505	 0.0860808769	-0.400729
C	-0.0800786961	-0.0521809697	-0.0385731045	-0.117414
C	 0.7981016512	-0.1932352167	-1.2854204934	-0.015809
C	 1.6725875555	 1.0184984958	-1.739456318	-0.232712
C	 2.9412801736	 0.1283398518	-1.6262818769	-0.227316
C	 2.110859641	-0.9144941598	-0.8316525606	-0.004712
N	 2.082766338	-0.7123669839	 0.6004708331	-0.306989
C	 0.9291653471	-0.1834665266	 1.1186474388	 0.398174
O	 0.7409784285	 0.1072412852	 2.280284318	-0.385169
H	-0.3803075422	 2.1104003991	-0.0704707953	 0.119785
H	-1.7728912198	 1.1772942579	-0.6410525619	 0.109215
H	-1.3799289467	 1.2369732227	 1.0924688377	 0.142841
H	-0.7280198185	-0.9372063024	 0.0384343964	 0.100113
H	 0.2940874919	-0.6784010437	-2.1223556138	 0.074898
H	 1.4512232726	 1.434195967	-2.7241516158	 0.104336
H	 1.6681603515	 1.8363837829	-1.0154163537	 0.114024
H	 3.2576902415	-0.2720453454	-2.5934231662	 0.104581
H	 3.811631834	 0.5507119973	-1.1182119256	 0.100644
H	 2.2583310111	-1.9679124326	-1.0923801077	 0.075639
H	 2.8681275032	-0.8967980293	 1.2052884225	 0.246602
