16
gdb 47214	2.75699	1.45489	1.03056	6.0484	74.75	-0.2617	-0.0365	0.2253	1125.0317	0.125113	-400.791826	-400.783869	-400.782925	-400.824944	29.41	
O	 0.1158058181	-0.165843732	 0.1557764924	-0.279339
C	 0.0246190678	 1.0330035478	 0.1498424605	 0.395064
C	-1.2797599726	 1.7890589277	 0.2901713394	-0.313494
C	-1.2249274023	 2.7743082541	 1.4752417665	-0.264461
C	 0.0530999228	 3.5667353195	 1.4839367494	-0.065321
C	 1.1519252633	 3.2187452254	 0.8200227639	-0.048703
C	 1.2586686594	 1.9533711731	-0.0196483385	-0.313328
C	 2.5068575875	 1.2376162854	 0.2531210089	 0.289911
N	 3.5127016268	 0.7158586198	 0.4753385037	-0.314635
H	-1.4377200595	 2.3610535804	-0.6339178343	 0.12857
H	-2.0918303173	 1.0667036054	 0.3915442358	 0.132746
H	-2.0872566667	 3.4488419171	 1.4318961538	 0.122944
H	-1.324302561	 2.2266835846	 2.4226055527	 0.138075
H	 0.0654225338	 4.4769459944	 2.0776342986	 0.109558
H	 2.0484560598	 3.8285920883	 0.8653445112	 0.122975
H	 1.2797298401	 2.233888569	-1.0857975041	 0.159438
