19
gdb 116042	2.58553	1.45354	1.06289	2.8136	73.54	-0.2455	0.0079	0.2533	1168.0724	0.158866	-460.152535	-460.143628	-460.142684	-460.186137	33.039	
C	-0.0744826532	 1.3686209831	 0.0789327878	-0.240395
O	 0.0417181807	-0.0430599595	 0.004795154	-0.231979
C	 0.6598084404	-0.6161584955	 1.0948285584	 0.177842
O	-0.180360018	-0.4551480523	 2.2385182627	-0.275763
C	 0.4842952174	-0.8271998258	 3.4341362922	-0.131746
C	 1.1674530203	-2.1614012732	 3.3147038368	-0.064094
C	 1.3465192998	-2.7514768609	 2.1344892703	-0.097758
C	 0.865818894	-2.1155816453	 0.8472284056	 0.069349
O	-0.3127491269	-2.744325416	 0.3697416434	-0.422788
H	 0.9130651597	 1.8434865924	 0.1812212463	 0.10422
H	-0.5309332818	 1.6954791692	-0.8572857163	 0.130892
H	-0.7041544218	 1.6760143209	 0.9203773925	 0.129275
H	 1.6348961342	-0.1300957914	 1.3036475631	 0.052595
H	 1.2160599698	-0.050338558	 3.7246616302	 0.103513
H	-0.2801711958	-0.850300582	 4.2189500162	 0.122792
H	 1.5067855658	-2.622610975	 4.2387904262	 0.098502
H	 1.8069353608	-3.7319547805	 2.0597809619	 0.1003
H	 1.6098888838	-2.2436659211	 0.0536813664	 0.093244
H	-1.0165675095	-2.4907908789	 0.9797253523	 0.281999
