16
gdb 29186	3.06951	1.376	0.95743	5.8283	76.79	-0.2078	-0.0478	0.16	1171.5985	0.12475	-437.946058	-437.937867	-437.936923	-437.978577	31.185	
C	 0.0032837581	 1.534087927	 0.009665934	-0.502537
C	 0.0033646812	 0.0319409794	-0.0126389627	 0.318148
C	-0.0348591307	-0.6714563	-1.1732464208	-0.355262
C	-0.0109924375	-2.1179897039	-1.2261711426	 0.427939
O	-0.0363945577	-2.8156459304	-2.2069019089	-0.356688
O	 0.0524852552	-2.7444553859	 0.0230892152	-0.223528
C	 0.0615597373	-2.0449356802	 1.1758144658	 0.022545
C	 0.0546714541	-0.6937804986	 1.238132073	 0.09622
N	 0.1870997679	 0.0175241468	 2.4504227943	-0.588076
H	 0.8479385405	 1.9090787078	 0.596958687	 0.155488
H	 0.0589436516	 1.9439864389	-1.0003139844	 0.138369
H	-0.908616897	 1.9243502827	 0.4801923828	 0.133284
H	-0.0744242452	-0.1738515315	-2.1347896133	 0.117841
H	 0.0977997523	-2.6935714103	 2.0440241913	 0.123751
H	 0.1563638591	-0.5904412186	 3.2597257841	 0.245088
H	-0.5113475393	 0.7434622467	 2.5617255151	 0.247418
