16
gdb 45643	3.19344	1.72611	1.25315	1.7839	76.4	-0.226	-0.0045	0.2215	980.2066	0.126808	-396.890297	-396.883507	-396.882563	-396.921569	26.917	
N	 0.0471338452	 1.3785058027	 0.0592177462	-0.530212
C	 0.0303761974	 0.1120209051	 0.0952155737	 0.303581
C	 1.1551128924	-0.9720576375	 0.0971507436	-0.270186
N	 0.531612203	-2.2722728123	 0.4656168018	-0.351981
C	-0.7074734896	-1.988609167	 0.4564364097	 0.387807
C	-2.09045221	-2.3519755823	 0.9383935836	-0.210288
C	-2.4309008219	-1.3513898282	 2.0442379855	-0.27766
C	-2.4634517661	-0.8922277444	 0.6195859469	-0.006934
N	-1.0998495385	-0.7005264982	 0.1020495399	-0.0731
H	 1.0065334811	 1.7232415989	 0.0327910038	 0.221124
H	 1.6250971144	-1.0319128894	-0.8918637837	 0.140433
H	 1.9390566541	-0.7209316865	 0.818732078	 0.136363
H	-2.6475892557	-3.2617035257	 0.7736689067	 0.127281
H	-3.3985607714	-1.5118324986	 2.510994997	 0.132994
H	-1.6555763444	-0.9948249259	 2.7145831901	 0.140148
H	-3.3214178801	-0.4892923406	 0.1008766474	 0.130631
