19
gdb 77985	2.80162	1.28819	1.04504	3.9657	82.38	-0.2346	0.0095	0.2441	1203.8641	0.159453	-382.044842	-382.035979	-382.035035	-382.078031	33.646	
C	-0.6322752834	 1.3032033041	-0.175726822	-0.424488
C	-0.3787632292	-0.1643245423	-0.4427079981	-0.045613
C	 0.4266539983	-0.778805541	-1.5659748794	-0.180954
C	 1.7395178438	-0.0467279532	-1.8901309172	 0.056346
C	 1.7505393196	 1.2387513647	-2.7003056174	-0.404635
N	 2.0465707999	 0.0795067147	-0.4200338499	-0.384656
C	 0.9284306484	-0.8444376518	-0.1122687403	 0.23513
C	 1.0742494659	-1.9562276854	 0.7654858067	 0.182229
N	 1.2111196396	-2.8558768723	 1.4822998741	-0.35172
H	-1.2798877871	 1.7367577327	-0.9446121711	 0.120667
H	-1.1323364178	 1.4239519877	 0.7904522925	 0.124256
H	 0.3038287476	 1.8620015956	-0.1425906307	 0.150442
H	-1.2241169976	-0.8095371977	-0.2108681717	 0.111403
H	 0.0174265162	-1.5800443922	-2.1678969837	 0.11329
H	 2.4179147831	-0.7736019442	-2.3544289608	 0.089827
H	 1.0716043137	 1.9876030813	-2.289303439	 0.129369
H	 2.7583115148	 1.6667367725	-2.7210946154	 0.122904
H	 1.4531445603	 1.0334126655	-3.7344198344	 0.120018
H	 2.945070504	-0.3286978989	-0.1854398123	 0.236186
