17
gdb 33705	3.78741	1.49405	1.25146	1.0429	83.91	-0.2207	0.0087	0.2294	1011.2127	0.136673	-347.490891	-347.483877	-347.482933	-347.521895	29.317	
C	 0.0829666984	-1.1407331212	-0.0018856123	-0.373796
C	 0.0161281688	 0.0607015397	-0.0145183644	 0.132161
C	-0.0671012475	 1.4897140045	-0.0143692216	 0.205398
C	-1.2196528672	 2.201102424	 0.624430958	-0.170495
C	-1.3152098204	 3.4381171074	 0.1309239462	-0.089247
C	-0.1414504717	 3.6980900897	-0.784911091	-0.133911
C	 1.1512876512	 3.7453845104	 0.1290247923	-0.235419
C	 1.308918381	 2.2496079753	-0.0971939098	-0.10331
C	 0.3397369074	 2.2815869838	-1.2452125631	-0.099105
H	 0.1381353928	-2.2007372647	 0.0047345331	 0.181884
H	-1.8313989675	 1.7466937621	 1.3924048354	 0.104293
H	-2.0061650711	 4.2066790502	 0.4545421865	 0.100589
H	-0.2496293086	 4.4927018866	-1.5207965958	 0.075329
H	 1.9597898669	 4.2811229699	-0.37538915	 0.108364
H	 1.0298585407	 4.1266118533	 1.1475915317	 0.097853
H	 2.2122556902	 1.6649771519	 0.0226851027	 0.10004
H	 0.3960395268	 1.8688218572	-2.2447744677	 0.09937
