14
gdb 21203	7.00043	1.31462	1.11615	4.1884	60.02	-0.2021	0.0461	0.2482	1007.9591	0.109035	-412.078984	-412.07124	-412.070296	-412.111129	27.542	
C	-0.0424163168	 1.4387383529	 0.0512032099	-0.317599
N	 0.0044216076	-0.0187893612	 0.1094330103	-0.389671
C	-1.1965568252	-0.6852831583	 0.0402243337	 0.505994
N	-2.3711124619	-0.1276389419	 0.065042356	-0.303821
N	-3.2445502963	-1.2118312167	 0.0664564074	-0.308153
C	-2.6302335384	-2.4364111048	 0.0316181969	 0.460008
O	-3.096298707	-3.5548604305	 0.0316471642	-0.423899
N	-1.2733448595	-2.0585752214	-0.0079236423	-0.428991
H	 0.9727529679	 1.8234280282	 0.1665823012	 0.1253
H	-0.4738023384	 1.8183164951	-0.8842975108	 0.130238
H	-0.6562421742	 1.806777508	 0.8757741184	 0.15755
H	 0.7245123874	-0.4288059998	-0.4694254245	 0.243925
H	-4.2351198962	-1.0577262224	 0.1113570973	 0.277291
H	-0.521536499	-2.7194288273	 0.0816477723	 0.271828
