19
gdb 125956	2.92473	1.56851	1.07225	1.9601	81.41	-0.2275	0.0229	0.2505	1127.025	0.163043	-382.107416	-382.099787	-382.098842	-382.139381	30.118	
C	-0.0944491687	 1.5966553612	-0.0629025928	-0.393902
C	 0.0055844422	 0.0710286762	 0.0209711793	-0.124119
C	 0.7993352822	-0.5663161415	-1.1716005012	-0.209438
C	 1.4991834124	-1.8548872013	-0.6403796672	-0.345907
C	 1.599269344	-1.5475681942	 0.8250699264	 0.324954
N	 2.2725422867	-2.0647926889	 1.8420050633	-0.335666
N	 1.8588831591	-1.3100500099	 2.889946734	-0.184188
C	 0.9561859937	-0.3424429685	 2.5530264027	-0.2345
C	 0.7659983278	-0.4755122336	 1.1970854778	 0.256655
H	 0.9012170665	 2.0526775964	-0.0475285616	 0.116307
H	-0.5963716287	 1.9068312102	-0.9857527512	 0.111564
H	-0.6644557293	 2.0052567153	 0.778178861	 0.110635
H	-1.0161544645	-0.3369847475	 0.0238304366	 0.081281
H	 0.1594192148	-0.7584963211	-2.0373001228	 0.094796
H	 1.5677795181	 0.1480221783	-1.4895674844	 0.104204
H	 0.8797715253	-2.744276491	-0.8133685055	 0.112923
H	 2.46292452	-2.0385384516	-1.1235660992	 0.115388
H	 2.2551987349	-1.4849598971	 3.7975203291	 0.269733
H	 0.5559175135	 0.3284082687	 3.2970613157	 0.129279
