20
gdb 72141	2.58475	1.99434	1.79917	0.8868	76.99	-0.2066	0.0892	0.2957	903.4365	0.174077	-403.133237	-403.126421	-403.125477	-403.163838	29.205	
C	 0.0428782838	 1.4918679453	 0.0095872474	-0.490238
C	 0.0051670737	-0.0146298289	-0.0623946075	 0.329199
C	 0.8023846197	-0.7402692449	-1.1388110159	-0.281116
C	 0.382071732	-2.1253435856	-0.6342598574	 0.07635
C	 0.860992409	-2.0433366472	 0.8262803231	-0.182231
N	 0.3311696403	-0.7215128189	 1.2796047796	-0.168533
C	-1.153714259	-0.8829203687	 1.4882702421	-0.197728
C	-1.3609421954	-0.7755715546	-0.0241871824	 0.068907
O	-1.0542593966	-2.0361409557	-0.6422816723	-0.286985
H	 1.0625426152	 1.8381406952	 0.204728546	 0.126957
H	-0.2959336432	 1.9326889939	-0.9341675128	 0.117234
H	-0.5959356767	 1.8756185737	 0.810671396	 0.122307
H	 0.4369268114	-0.5291799278	-2.1467510172	 0.106241
H	 1.8777568475	-0.5522990515	-1.0815758913	 0.105093
H	 0.6804398379	-3.0018661247	-1.2097595813	 0.076683
H	 0.4752810617	-2.8483552448	 1.4564867577	 0.105966
H	 1.955529386	-2.0544597932	 0.8862367427	 0.098629
H	-1.4595903345	-1.8187080669	 1.9635086842	 0.103468
H	-1.5509468959	-0.0360594138	 2.0568282787	 0.101754
H	-2.2825382169	-0.3787247007	-0.4599285995	 0.068042
