15
gdb 123927	3.48454	1.62912	1.1531	5.2576	67.39	-0.2365	-0.0243	0.2123	995.7787	0.114574	-453.935119	-453.9283	-453.927356	-453.966326	26.288	
C	-0.0131841629	 1.5080908965	 0.0058276828	-0.233489
C	 1.4067722184	 2.0794142246	 0.0403637061	-0.082023
O	 2.1589451125	 1.6617240787	 1.2124346919	-0.247955
C	 1.9507333593	 0.3879782299	 1.5106198079	 0.469597
C	 1.0062687261	-0.4620017107	 0.9897490797	 0.121376
C	-0.0138252658	-0.0376156935	-0.0124575522	-0.332077
N	 1.1957091866	-1.6531004834	 1.626226689	-0.165699
N	 2.1267399922	-1.6212430816	 2.4537615089	-0.044918
O	 2.6910189975	-0.2030561875	 2.4091956145	-0.250991
H	-0.5581278876	 1.8673079541	 0.8856542203	 0.129348
H	-0.5193935285	 1.9095139742	-0.8772472547	 0.119319
H	 1.9759637205	 1.7692638083	-0.8444555766	 0.12774
H	 1.4017150025	 3.1688940506	 0.0903763194	 0.136039
H	-1.0077674012	-0.4198162785	 0.2396602385	 0.131775
H	 0.2221376805	-0.4098551418	-1.0176056253	 0.121959
