19
gdb 114821	2.6157	1.32498	1.16833	2.6518	71.43	-0.242	0.062	0.3039	1151.5634	0.157381	-460.108428	-460.099393	-460.098449	-460.142412	33.233	
C	 0.1538276103	 1.5399390359	-0.1427163956	-0.23851
O	-0.3558995964	 0.2653250877	-0.4711830145	-0.24638
C	 0.5555544637	-0.5397518146	-1.1682113006	 0.053635
C	 1.7557993392	-1.1934064392	-0.3984324277	-0.279593
C	 1.264975728	-2.5906685719	-0.8602264639	 0.065243
O	 0.4572109085	-3.2392166712	 0.1374707298	-0.288115
C	-0.758704477	-2.649369053	-0.388149442	-0.135415
C	 0.0184603616	-1.9438824887	-1.5239056286	 0.316868
O	-0.3456579764	-2.208140264	-2.8435269988	-0.480015
H	 1.0314903808	 1.4732002192	 0.5164508794	 0.114106
H	 0.4403587647	 2.1046944822	-1.0435838461	 0.106055
H	-0.6380925876	 2.082372616	 0.3789143138	 0.129819
H	 0.9027235277	-0.0335001827	-2.0824225278	 0.071609
H	 2.7420506355	-0.8952718166	-0.7602478482	 0.104428
H	 1.7098082112	-1.0850252839	 0.6871278932	 0.117642
H	 1.9623013933	-3.2656716214	-1.3593301199	 0.085401
H	-1.4467966148	-3.415873586	-0.7629627625	 0.102786
H	-1.262179188	-2.0038434621	 0.3379435841	 0.114786
H	-1.1216333144	-1.6762437857	-3.0551980142	 0.28565
