20
gdb 15722	2.79562	1.90527	1.33053	2.4207	71.39	-0.2358	0.0754	0.3112	999.8258	0.176647	-386.139637	-386.130906	-386.129962	-386.173226	31.499	
C	 0.2298935654	 1.2802664771	 0.2759880339	-0.234884
O	 0.051996049	-0.0985168843	 0.0538307348	-0.244829
C	 0.5589636196	-0.5587047143	-1.1866456504	 0.098603
C	 2.0732227292	-0.8194682606	-1.1303415876	-0.259565
C	 2.1213565743	-2.1826265042	-0.4313272341	-0.054406
O	 0.9426484208	-2.8761498787	-0.8336543572	-0.281928
C	 0.021578018	-1.9751439347	-1.4607978981	 0.137696
C	-1.3889595808	-2.2588271506	-0.9694817391	-0.395383
H	 1.2904696012	 1.5683820254	 0.3282227717	 0.105262
H	-0.2488421679	 1.8818813526	-0.5128058975	 0.104826
H	-0.2404939292	 1.5159928923	 1.2337462252	 0.129513
H	 0.2746893874	 0.1386091733	-1.9882764349	 0.061257
H	 2.4742030836	-0.8868361399	-2.1472828877	 0.105626
H	 2.6248778085	-0.0405797502	-0.5991880705	 0.103575
H	 2.9980544838	-2.7770823212	-0.7109622286	 0.098298
H	 2.123756755	-2.0592792212	 0.6606973878	 0.099724
H	 0.0650871916	-2.1363061878	-2.5507244114	 0.06548
H	-1.4691395322	-2.0576614368	 0.0995551575	 0.136127
H	-2.1136421739	-1.6317221787	-1.4991217184	 0.105762
H	-1.6390313634	-3.3066392274	-1.1560643854	 0.119247
