17
gdb 62278	3.28029	1.57822	1.35383	4.8627	75.52	-0.2498	0.0263	0.2761	975.3754	0.136543	-380.803264	-380.795795	-380.794851	-380.834886	29.484	
C	-0.0530290169	 1.5713571785	 0.0372133011	-0.471709
C	 0.0610919849	 0.0498255098	-0.0247437545	 0.157445
C	-1.265091692	-0.5484035634	 0.1886556482	 0.279924
N	-2.3225165521	-0.9929187566	 0.3275431698	-0.344949
C	 0.7890522017	-0.6528714431	-1.1713393586	-0.101828
C	 2.2798041318	-0.6794653064	-0.7737617522	-0.1106
C	 2.3663013402	-0.0255797894	 0.5926312254	-0.188774
N	 1.0306608381	-0.6533640503	 0.9448896475	-0.188592
C	 1.3058551839	-1.6636759112	-0.1982485974	-0.015708
H	 0.8598111539	 2.0550096896	-0.312564308	 0.131606
H	-0.8771189055	 1.9079059395	-0.5977744077	 0.143581
H	-0.2605598389	 1.8925708899	 1.0625479004	 0.148483
H	 0.4636896245	-0.8007404198	-2.1929820885	 0.109603
H	 3.0456005429	-0.8510511185	-1.5200473057	 0.103677
H	 3.128581723	-0.4908198942	 1.2222118278	 0.122323
H	 2.4245967407	 1.0607253396	 0.6990721792	 0.107446
H	 1.2499694797	-2.738407084	-0.1153993269	 0.11807
