21
gdb 96182	2.23495	1.86714	1.16977	2.3556	78.36	-0.2382	0.0779	0.3161	1107.3118	0.184409	-424.217142	-424.209031	-424.208087	-424.249751	31.64	
C	 0.0872647518	 1.5411665809	-0.0624232037	-0.404192
C	 0.0687732089	 0.0199325864	-0.0080179387	 0.098602
O	 0.6072752437	-0.4611014466	-1.2315502804	-0.253528
C	 0.6694965799	-1.874264534	-1.2744073664	-0.075387
C	 1.7389461867	-2.391636247	-0.3126126348	-0.217142
C	 1.4705761354	-1.9215540742	 1.1290887628	-0.083585
C	 2.6564516517	-1.1954070375	 1.7972851325	-0.080393
O	 2.0864842341	 0.0933079183	 1.487327507	-0.291265
C	 0.8054080184	-0.5211134879	 1.2132165812	 0.139171
H	 1.119024205	 1.8986075071	-0.0806606383	 0.145164
H	-0.4271093187	 1.886930955	-0.9623843059	 0.120734
H	-0.4127768656	 1.9637547244	 0.8140810384	 0.113348
H	-0.9746656415	-0.3386628879	 0.0774680655	 0.057961
H	-0.3173673767	-2.3081640478	-1.0347437397	 0.080982
H	 0.9107073879	-2.1438552372	-2.3068621458	 0.105922
H	 1.797705273	-3.48447152	-0.3590963736	 0.09543
H	 2.7024595368	-2.0008739234	-0.6571846621	 0.112346
H	 0.9867898971	-2.7007939387	 1.7216695424	 0.073364
H	 2.7300009833	-1.3535600454	 2.8826377354	 0.09339
H	 3.6449826781	-1.3298781362	 1.3438722784	 0.104587
H	 0.1462221907	-0.4210154384	 2.090068566	 0.064492
