19
gdb 78860	2.81096	1.79666	1.37918	2.602	78.53	-0.2313	0.0741	0.3054	987.1219	0.160556	-381.971678	-381.964308	-381.963364	-382.003048	30.109	
C	 0.0726202412	 1.5970554204	-0.1147672006	-0.431822
C	 0.1065924702	 0.0795504271	-0.1136450258	 0.088974
C	 0.7362324143	-0.7411989516	-1.2673876763	-0.226316
C	 1.2411739766	-1.6965534943	-0.1132956199	-0.036587
C	 2.3564550874	-0.7355753769	 0.0839503549	-0.141591
N	 1.0619881452	-0.5829752452	 0.8490177805	-0.164681
C	 2.1766061309	-0.2163238833	-1.3210553288	 0.426977
C	 3.1195904944	-0.3472116512	-2.446532406	-0.334261
N	 2.7351028811	 0.9873952073	-1.9169617303	-0.382177
H	 1.0604657196	 2.026627354	-0.2964489943	 0.146222
H	-0.6168003277	 1.9672192527	-0.8823162479	 0.109419
H	-0.2821096208	 1.9596436174	 0.8553376969	 0.127773
H	-0.8832779327	-0.3216415958	 0.1292530654	 0.079603
H	 0.1955659074	-1.0020278046	-2.176567147	 0.069752
H	 1.120595185	-2.7471789495	 0.112243296	 0.100806
H	 3.259503251	-0.829278591	 0.6714025006	 0.102353
H	 4.1564488827	-0.6211684914	-2.2699899805	 0.121832
H	 2.7294081026	-0.656880586	-3.4131933851	 0.112777
H	 2.0593427617	 1.427644032	-2.5373073619	 0.230946
