21
gdb 116245	1.93961	1.52604	0.93323	1.1528	84.71	-0.2473	0.0471	0.2944	1311.3757	0.181964	-387.069015	-387.059491	-387.058546	-387.104412	35.382	
C	-0.0665159641	 1.6264248648	 0.1099173127	-0.389594
C	-0.0838620761	 0.0964195132	 0.0535857461	-0.190988
C	 0.7046244695	-0.5392265478	 1.1879716453	 0.135736
O	 0.117725897	-0.1766736255	 2.4312234143	-0.248929
C	 0.5941425913	-1.0990104916	 3.3924740942	-0.082775
C	 0.5020924212	-2.4640190531	 2.6997095457	-0.229027
C	 0.7946993043	-2.116352428	 1.206682305	-0.212745
C	-0.0969052521	-2.8057068199	 0.2857378646	 0.348388
C	-0.8289173661	-3.3931326536	-0.4664098131	-0.488377
H	 0.9552063187	 2.0151882533	 0.0308220757	 0.108889
H	-0.6498411091	 2.0541052126	-0.7110268441	 0.109094
H	-0.4878562132	 1.9838326765	 1.0529503139	 0.135175
H	-1.1126034612	-0.2761902133	 0.0953874553	 0.113215
H	 0.3357029492	-0.2545847158	-0.8962152744	 0.101463
H	 1.7419695763	-0.1613168661	 1.1641420699	 0.062034
H	 1.6361839192	-0.8680644495	 3.6722099946	 0.086615
H	-0.0297431141	-1.0144340168	 4.285554782	 0.111388
H	 1.2012983876	-3.2013219147	 3.099947595	 0.107699
H	-0.5090461276	-2.8656685478	 2.7915162286	 0.123402
H	 1.8230498966	-2.3983992641	 0.9565078268	 0.103906
H	-1.4755796373	-3.9078627529	-1.1328928981	 0.195431
