22
gdb 75199	2.49657	1.59317	1.15819	1.6286	88.15	-0.2178	0.0282	0.246	1168.3549	0.193423	-367.217596	-367.208247	-367.207303	-367.250752	36.544	
C	-0.0139398243	 1.5034724327	 0.0497125312	-0.502955
C	-0.0559892239	 0.0093204203	-0.0138988778	 0.328525
C	-0.0089817632	-0.7591857677	-1.105551953	-0.1848
C	-0.041475433	-2.2358694265	-0.7873036876	-0.306859
C	-0.0642759389	-2.2692446635	 0.7432518191	 0.28692
C	-0.7208052496	-3.4387183952	 1.4298247187	-0.492921
N	 1.158731279	-1.6636605075	 1.3314289655	-0.408041
C	-0.0981709629	-0.8535345356	 1.2227225542	 0.183721
C	-0.7845305865	-0.3607132252	 2.4702633438	-0.504061
H	 0.8682912709	 1.8507328445	 0.6028791205	 0.130665
H	 0.0204620903	 1.9426912233	-0.9510213324	 0.122439
H	-0.8896677858	 1.9141206908	 0.5677667722	 0.120809
H	 0.0832834094	-0.3849310647	-2.1198269016	 0.083576
H	-0.9285681541	-2.7287701413	-1.2099408347	 0.09617
H	 0.834691051	-2.7638601531	-1.1839233429	 0.113418
H	-0.1591387865	-4.3619950796	 1.24340707	 0.125
H	-0.7743021409	-3.3000417086	 2.5141775536	 0.111672
H	-1.7405758361	-3.5939548549	 1.0603448429	 0.121319
H	 1.2347840949	-1.9996294434	 2.292944102	 0.211171
H	-0.2471460207	 0.4892187972	 2.9066773163	 0.125785
H	-1.8070041028	-0.0300042731	 2.2560442613	 0.124078
H	-0.8400148863	-1.1417611988	 3.2343719487	 0.114369
