15
gdb 34373	2.70762	1.69431	1.34015	3.2838	69.33	-0.2717	-0.0101	0.2616	959.8682	0.114324	-416.820457	-416.813308	-416.812364	-416.85242	26.964	
N	 0.106985597	-1.1486751697	-0.3102144424	-0.331405
C	 0.0475705488	-0.0103641672	-0.119077353	 0.241336
C	 0.0144540932	 1.4302894962	 0.0669830417	 0.259995
C	-0.4710648938	 2.3020937309	-1.1247823174	-0.28241
C	 0.8750899019	 3.0910431637	-1.110220563	-0.220474
C	 1.3589026602	 2.2581420503	 0.1077275551	-0.056622
N	 1.3089565039	 2.9586010804	 1.3891063815	-0.248748
C	 0.22267868	 2.6199221242	 1.9436866733	 0.107228
O	-0.6217842324	 1.7448448285	 1.3238654677	-0.252935
H	-0.6646154735	 1.7338489894	-2.0356106228	 0.13577
H	-1.3629510494	 2.8762871367	-0.8684788611	 0.132148
H	 1.479472848	 2.9506778152	-2.0081414441	 0.122348
H	 0.794313422	 4.1582362844	-0.8997989315	 0.125619
H	 2.299807826	 1.7190030384	-0.0100203035	 0.111392
H	-0.132660602	 2.9626324385	 2.9084730893	 0.156758
