20
gdb 12084	3.22286	1.7306	1.34097	1.5232	74.93	-0.2432	0.0733	0.3165	992.2598	0.176257	-348.971679	-348.963146	-348.962202	-349.004379	32.979	
C	 0.3528442041	 1.4441620427	 1.0793760042	-0.450276
C	-0.0108267205	 0.2984443469	 0.1485990709	 0.35398
C	 0.7331189302	 0.2336365842	-1.1653393465	-0.307639
C	 1.0394491155	-0.7669915626	-0.0745649135	-0.297866
C	-1.4595432051	-0.0945404169	 0.2760960084	-0.078051
C	-2.544511654	 0.5191206499	-0.59698662	-0.338755
C	-2.2528782456	-0.9593097124	-0.6619733139	 0.080849
O	-1.630190362	-1.5189599094	-1.7846796496	-0.41556
H	 1.4120032163	 1.7045282761	 0.9885327017	 0.108928
H	-0.2347631517	 2.3410614934	 0.8510842721	 0.113768
H	 0.1633820031	 1.1812287985	 2.1273299959	 0.10888
H	 0.2151282713	-0.1354290366	-2.0389718158	 0.125261
H	 1.4586060198	 1.0181924869	-1.3563097541	 0.095902
H	 1.9784812186	-0.6818906491	 0.463075193	 0.099521
H	 0.6995176481	-1.7836720551	-0.2348324341	 0.120341
H	-1.7452919431	-0.2364912318	 1.3173091794	 0.082756
H	-3.4729023501	 0.863256301	-0.1536009856	 0.106894
H	-2.190932515	 1.1080893799	-1.4374267781	 0.117036
H	-2.9762180635	-1.6248058938	-0.1895226717	 0.085503
H	-2.2652564365	-1.5113906617	-2.5082601226	 0.288529
