11
gdb 130918	2.82684	1.56262	1.00634	2.4505	61.98	-0.269	-0.1204	0.1487	1040.4299	0.063845	-488.616665	-488.609377	-488.608433	-488.649243	25.51	
O	-0.0347450445	-0.019194713	-0.2685720604	-0.224393
C	 0.018691452	 1.1800423744	-0.2149820938	 0.119193
C	 1.3040984165	 1.9543041719	-0.0494543053	 0.14529
N	 2.3975367286	 1.2662928529	 0.0387318426	-0.062439
O	 3.5802143666	 1.9145581541	 0.1883986129	-0.197285
N	 3.694886789	 3.2942570626	 0.2538798893	-0.038003
C	 2.6161760571	 3.9875715524	 0.1675242569	-0.000655
C	 1.2730295474	 3.4228889055	 0.0046819382	 0.272709
O	 0.2610449037	 4.0944249637	-0.074983299	-0.324522
H	-0.8720954429	 1.8297291659	-0.2824442325	 0.135231
H	 2.7429764063	 5.0657184597	 0.2220996811	 0.174875
