21
gdb 71678	2.63944	2.20321	1.63635	0.0224	84.8	-0.2572	0.091	0.3482	921.4201	0.185486	-349.916994	-349.910294	-349.90935	-349.947459	29.327	
C	 0.0387463217	 1.4739142751	 0.0068828642	-0.506658
C	 0.0302704296	-0.0373419147	-0.022488469	 0.358757
C	-1.295428651	-0.8323774261	-0.2010718096	-0.288985
C	-0.38391786	-1.9487028487	-0.7283277728	-0.053778
C	 0.6927699848	-2.2138444412	 0.3641977802	-0.038206
C	 1.8505865029	-1.6168906621	-0.5058797309	-0.047255
C	 2.2949893849	-0.7401239744	 0.6774742407	-0.253708
C	 0.7983618806	-0.8036996618	 1.0779508371	-0.070684
C	 0.6637919838	-0.8900096865	-1.2094534501	-0.082622
H	 1.057155162	 1.8750800417	 0.0460734208	 0.116232
H	-0.44702958	 1.8913148166	-0.8818281558	 0.111742
H	-0.4994492062	 1.8505851005	 0.8853969092	 0.113493
H	-1.9073151809	-1.0195336095	 0.6891555456	 0.08322
H	-1.9212346866	-0.4055379026	-0.9918392361	 0.089923
H	-0.7360874519	-2.7834855066	-1.3334955133	 0.058255
H	 0.7700426578	-3.1247238029	 0.9556318073	 0.059975
H	 2.5359956223	-2.2122602631	-1.1089467606	 0.05803
H	 2.9284352416	-1.2974373324	 1.3746307222	 0.093423
H	 2.7446830938	 0.239584347	 0.4830600048	 0.086986
H	 0.4740809588	-0.6443005655	 2.1078619766	 0.054631
H	 0.7002833021	-0.462988153	-2.2108362206	 0.057229
