23
gdb 73799	2.26826	1.4314	1.09492	1.4476	88.7	-0.2219	0.034	0.2559	1250.795	0.203636	-388.325093	-388.314683	-388.313739	-388.359686	39.386	
C	 0.1002036786	 1.537149894	-0.0014064698	-0.496043
C	-0.0013346105	 0.043868198	-0.0457860493	 0.21169
C	-1.0987586653	-0.7204458756	 0.017073307	 0.203616
C	-2.5316423151	-0.2961041437	 0.1122035464	-0.525001
C	-0.7482495465	-2.2091504245	-0.0057163383	 0.323354
C	-0.9244915982	-2.8587784944	 1.3751867195	-0.447587
O	-1.5118107346	-2.9360436083	-0.9774964613	-0.474242
C	 0.7223753965	-2.2051477075	-0.4751497797	-0.252749
C	 1.2552062651	-0.7981536906	-0.1417739791	-0.300876
H	 0.7060790706	 1.863772303	 0.8542092114	 0.123037
H	 0.6021167083	 1.9219481283	-0.8986683144	 0.124147
H	-0.874208168	 2.0253386994	 0.0751964379	 0.120229
H	-2.6505572438	 0.7885021999	 0.0618853408	 0.123814
H	-3.1133131622	-0.7345405978	-0.707873971	 0.127786
H	-2.9958287378	-0.6342000269	 1.048402032	 0.119756
H	-1.9570103553	-2.7636864985	 1.7330990372	 0.103879
H	-0.6781406519	-3.9240982626	 1.3221578717	 0.120419
H	-0.274675145	-2.3861085286	 2.1181820784	 0.120184
H	-2.3681707051	-3.1439667672	-0.5901033645	 0.273843
H	 1.3085403226	-3.0132701842	-0.0290912162	 0.089724
H	 0.7134112781	-2.3580627773	-1.5577044886	 0.115343
H	 1.952560008	-0.4194271284	-0.8992913465	 0.097174
H	 1.8069183216	-0.7823767163	 0.8098254566	 0.098502
