21
gdb 43735	3.86609	1.03621	1.00629	3.0283	82.02	-0.2382	-0.0169	0.2213	1273.9236	0.182974	-387.119321	-387.110766	-387.109822	-387.154144	32.643	
O	-0.3606823852	 0.042729067	-0.3326869332	-0.291691
C	-0.1925766804	 1.1867410515	-0.0243475957	 0.413831
C	-1.1265889347	 2.3058199814	 0.4589436366	-0.401939
C	 0.1496166723	 3.166209763	 0.7760725485	 0.363714
C	 1.0471208622	 2.0840686106	 0.1003503525	-0.429952
C	 0.1648162575	 4.5907571223	 0.2096068668	-0.275176
C	-0.5872542174	 5.443366274	 1.2602763527	-0.20182
C	-0.4955431704	 4.64181949	 2.5947158011	-0.203401
C	 0.3763548779	 3.4085667745	 2.2750769878	-0.264034
H	-1.748780193	 2.7016526956	-0.3516003797	 0.124867
H	-1.7798950793	 2.0419734222	 1.2961865591	 0.125106
H	 1.8700400483	 1.6725412289	 0.6929284106	 0.125193
H	 1.441691112	 2.3780574872	-0.8790224139	 0.126391
H	 1.2055539488	 4.9272073126	 0.1237169643	 0.099023
H	-0.274898825	 4.6555891194	-0.7908308224	 0.092114
H	-0.1544221875	 6.4433937669	 1.3478393934	 0.10085
H	-1.6328911048	 5.5814722248	 0.9696495989	 0.102027
H	-0.0789853829	 5.2351017846	 3.4128677655	 0.099869
H	-1.4936038557	 4.3263567101	 2.9147868465	 0.102021
H	 0.1344287608	 2.5381754615	 2.893647784	 0.095422
H	 1.4365014666	 3.637519682	 2.4420517964	 0.097585
