19
gdb 66102	2.61164	1.4729	1.31636	1.3885	80.01	-0.2325	0.0534	0.2859	1070.8975	0.158448	-385.841912	-385.833456	-385.832512	-385.874462	33.411	
C	-0.0139621802	 1.5298042588	-0.0251664478	-0.430308
C	-0.000993399	-0.0096255646	 0.0086229035	 0.050127
C	 0.8406653198	-0.6037850577	-1.1705299323	-0.122307
O	 1.4143878998	-1.818587874	-0.7130002836	-0.252315
C	 1.5592606224	-1.7320295222	 0.6811325394	 0.123496
C	 2.2392431273	-0.5172955964	 1.2592458161	-0.357109
C	 0.7218456239	-0.6141538131	 1.2226709968	-0.082879
C	-1.3719003394	-0.5249923064	-0.0270273054	 0.338368
C	-2.5018062221	-0.9349695414	-0.0536149749	-0.487158
H	 1.0039256134	 1.9208115962	 0.0620299734	 0.116557
H	-0.4493133774	 1.8951084906	-0.9603640788	 0.125811
H	-0.6095216273	 1.9288526488	 0.7998426383	 0.12894
H	 0.2360825149	-0.8204837837	-2.0534511254	 0.123711
H	 1.62256269	 0.1157890235	-1.4530781711	 0.092696
H	 1.6537279802	-2.7080534723	 1.1407421599	 0.104151
H	 2.7081590818	-0.6242563372	 2.2314081082	 0.116327
H	 2.7529170309	 0.1672203151	 0.5928628338	 0.118108
H	 0.1673521689	-0.6985854638	 2.1487754204	 0.099224
H	-3.4972364781	-1.30381775	-0.0806419905	 0.19456
