16
gdb 46985	2.84396	1.83442	1.47099	1.7925	65.18	-0.2666	0.0135	0.28	908.8312	0.127092	-475.031394	-475.024518	-475.023573	-475.062968	26.421	
N	-0.0798424054	 1.2661570026	-0.2764433043	-0.5243
C	 0.0080301309	 0.0453398552	 0.0370282143	 0.420549
O	 1.1944209526	-0.5558025746	 0.336005489	-0.266867
C	 1.2247082864	-1.8884935312	 0.8766844871	-0.092526
C	-0.1062568969	-2.6150437434	 0.7095507041	 0.169913
O	-0.3649238111	-2.9027428995	-0.6554945845	-0.272178
C	-1.1768273548	-1.834530582	-1.1531789368	-0.096922
C	-1.2105375504	-0.8515743842	 0.0322734575	-0.047303
O	-1.1365552902	-1.7551267438	 1.1419463047	-0.245348
H	 0.8415904025	 1.7089615629	-0.2535445897	 0.223785
H	 2.0219013096	-2.4267851782	 0.3572358336	 0.129962
H	 1.4713366804	-1.8174387166	 1.942631535	 0.121203
H	-0.1322014744	-3.5401639974	 1.2926416101	 0.106026
H	-0.7275835363	-1.4066958663	-2.0534166028	 0.131042
H	-2.1809094462	-2.2070024392	-1.3843465706	 0.116677
H	-2.1155739566	-0.2529087041	 0.1030630233	 0.126287
