14
gdb 61694	2.21722	1.27371	1.03555	4.2089	69.5	-0.3009	-0.0456	0.2552	1181.8294	0.098098	-432.864814	-432.855421	-432.854476	-432.899479	32.226	
C	 0.0054863055	 1.5979308503	-0.0292697717	-0.404102
C	 0.008809885	 0.0572159299	 0.045827795	 0.068654
O	 0.7553184566	-0.4048080429	 1.1682515515	-0.214076
C	 0.1959934929	-0.2785251013	 2.4109269819	 0.123263
N	 0.9398385467	-0.4067735915	 3.4137519486	-0.418951
C	-1.3858575176	-0.4537491711	 0.0580235917	 0.280223
N	-2.4821439002	-0.8152174502	 0.0857612502	-0.310592
C	 0.6937690337	-0.4990972107	-1.1400010004	 0.316147
N	 1.2222269703	-0.8878751886	-2.0887914013	-0.304325
H	 1.0396757434	 1.946619182	-0.0313549905	 0.170582
H	-0.4983351675	 1.9350975725	-0.9373523138	 0.166292
H	-0.5151894916	 2.0044337014	 0.8404158606	 0.151489
H	-0.8852865989	-0.1062234625	 2.3967870213	 0.128759
H	 0.3957768015	-0.3393997074	 4.271739357	 0.246634
