16
gdb 81756	3.34901	1.2574	1.07678	4.3396	70.72	-0.277	-0.0101	0.2668	1124.6942	0.123068	-437.856518	-437.848074	-437.847129	-437.889567	31.272	
C	-0.1107932007	 1.5910062748	-0.0464048547	-0.411395
C	-0.013564674	 0.0738566924	-0.015520723	-0.060708
C	 0.7160740661	-0.6236779792	-1.1680628229	-0.050846
O	 2.0894041525	-0.2167379034	-1.1218546054	-0.281408
C	 1.6737242322	-1.2863631617	-0.2528392784	 0.288643
C	 2.3458099779	-2.5438784315	-0.3388799965	 0.184011
N	 2.8664133342	-3.5763607268	-0.3596141397	-0.333938
C	 1.0397211036	-0.5918869592	 0.9753765072	 0.050576
O	 1.8796344626	 0.2307657221	 1.718808952	-0.417253
H	 0.8480175204	 2.0440777017	-0.312554274	 0.126377
H	-0.8525518793	 1.9199637477	-0.7809035369	 0.124869
H	-0.4073620394	 1.9767167073	 0.9330126366	 0.136993
H	-0.9951362057	-0.3822150587	 0.1461552647	 0.094359
H	 0.3436786068	-0.9778379606	-2.1221358752	 0.133363
H	 0.5700752646	-1.2944481726	 1.6660113233	 0.118002
H	 2.4030598883	 0.7458994777	 1.0920061131	 0.298354
