18
gdb 80498	2.211	1.45494	1.25469	4.9247	77.72	-0.2674	0.0143	0.2817	1105.8794	0.147433	-401.935954	-401.927233	-401.926288	-401.968956	32.976	
C	-0.2566267643	 1.5607374588	 0.021466061	-0.42149
C	 0.0426791156	 0.0684376613	-0.0054851933	-0.027239
C	 1.1799856391	-0.499794772	-0.9165738984	-0.253567
C	 1.7872350611	-1.2357503267	 0.2825171695	-0.167956
C	 2.1764159436	-0.2709543299	 1.3537386721	 0.053366
O	 2.624263787	 1.0236115683	 1.0904697723	-0.410048
C	 0.7119936848	-0.5915892262	 1.2252472044	 0.159783
C	-0.0133139848	-1.1794517034	 2.3044663019	 0.196373
N	-0.6179473255	-1.6561626038	 3.1696214871	-0.351778
H	 0.6462102406	 2.14152873	 0.2148092375	 0.14528
H	-0.6818386683	 1.8789337951	-0.9368655573	 0.11383
H	-0.9896958958	 1.7929174341	 0.8014411109	 0.126034
H	-0.875679623	-0.4873502706	-0.2150007007	 0.096489
H	 0.8100791762	-1.166602136	-1.6960784975	 0.11376
H	 1.8382233113	 0.2473212542	-1.3676927906	 0.106016
H	 2.1290928325	-2.2637388776	 0.2893306996	 0.112682
H	 2.6295079563	-0.7369401227	 2.2292028909	 0.114094
H	 3.5326698838	 0.9665520471	 0.7734804505	 0.29437
