21
gdb 3269	3.10332	2.83981	1.69947	0.0016	73.41	-0.2965	0.0793	0.3757	820.4532	0.198509	-275.007113	-275.000051	-274.999107	-275.037827	27.867	
C	-0.0288800666	 1.4899121925	-0.0479930143	-0.174647
C	 1.3575907676	 2.1541796471	 0.0048845944	-0.181274
C	 2.037210223	 2.0515828068	 1.3824497053	-0.178092
C	 2.8188494155	 0.753316463	 1.6666436467	-0.182325
C	 2.2104875072	-0.5596012286	 1.1343048398	-0.178092
C	 0.678111564	-0.6854365875	 1.21227854	-0.181277
C	-0.053204871	-0.0434657852	 0.0208916627	-0.174645
H	-0.6310463717	 1.8957466483	 0.7774607827	 0.089531
H	-0.5381468293	 1.7977426153	-0.9699602058	 0.086639
H	 2.0090310771	 1.7406717696	-0.7772925109	 0.088919
H	 1.230236469	 3.215019929	-0.2420574642	 0.089004
H	 2.7283464863	 2.8927782752	 1.5122540288	 0.087986
H	 1.2643275917	 2.1888141571	 2.1498673598	 0.091367
H	 3.8308704702	 0.8457329747	 1.2528433513	 0.09173
H	 2.9515259487	 0.6729632563	 2.7528747429	 0.091729
H	 2.5067912968	-0.7019305287	 0.0869004183	 0.091367
H	 2.6733526626	-1.3886282971	 1.6825727751	 0.087987
H	 0.4170237925	-1.7503607986	 1.2310270481	 0.089004
H	 0.3054876975	-0.2689759987	 2.1582574967	 0.08892
H	-1.101519809	-0.3676954272	 0.0277344479	 0.086639
H	 0.3810952479	-0.4510698032	-0.9031876454	 0.08953
