20
gdb 100082	3.37705	0.92951	0.87487	4.5183	71.57	-0.2336	0.0373	0.2709	1382.308	0.168677	-477.459267	-477.448754	-477.447809	-477.494673	38.992	
C	 0.2879715783	 1.3086558803	 0.6109794961	-0.42279
C	 0.0164741903	-0.0353085912	-0.0810465571	 0.330487
O	 0.636230341	-1.1033285369	 0.6496293944	-0.473091
C	-1.4915263053	-0.3271114773	-0.1195606519	-0.103617
O	-1.909183239	-0.4912305194	 1.2339975214	-0.43683
C	 0.5789694714	-0.0795054304	-1.5109461839	-0.309933
C	 2.062217721	 0.2789930356	-1.6656966087	 0.357248
N	 2.9077139983	-0.4295457718	-0.8645478601	-0.506075
O	 2.4448458538	 1.0956879728	-2.4821100375	-0.363872
H	 1.3626182833	 1.4605493027	 0.7335928779	 0.128645
H	-0.1128418245	 2.1404817979	 0.0229936844	 0.120455
H	-0.1843280358	 1.3272376452	 1.5964381588	 0.126916
H	 0.0911728325	-1.2350878421	 1.43626531	 0.289595
H	-2.0292809583	 0.4993330318	-0.6055462531	 0.0996
H	-1.6648299952	-1.2461215535	-0.6959551661	 0.096887
H	-2.7813175956	-0.8942336955	 1.2436534016	 0.298001
H	 0.4293006197	-1.091662554	-1.9050243609	 0.122007
H	 0.0316880928	 0.6180653369	-2.1483765823	 0.122292
H	 2.5361562184	-0.9612994504	-0.0910764824	 0.27233
H	 3.8816345331	-0.1735054508	-0.8783470305	 0.251746
