21
gdb 45429	2.38348	1.62232	1.58951	3.0537	80.19	-0.2283	-0.0066	0.2216	1011.2568	0.18662	-387.146126	-387.138599	-387.137655	-387.178279	30.374	
O	-0.0025749471	-0.0435953481	 0.0040963335	-0.333457
C	-0.0005179345	 1.1640145883	 0.0108334869	 0.414599
C	-1.2763299249	 2.0113547422	 0.0316482614	-0.318404
C	-0.9053324524	 3.5043590691	 0.0336969725	-0.008687
C	-0.0487051311	 3.8006186005	 1.2803012666	-0.205353
C	 1.2353428781	 2.9189235012	 1.2607860437	-0.223549
C	 1.2530143288	 2.026003906	-0.002992731	-0.096507
C	 1.2002484046	 2.930364722	-1.2576628253	-0.223558
C	-0.0834167813	 3.812467622	-1.2332024783	-0.205318
H	-1.8850586226	 1.7417790684	-0.839867037	 0.123166
H	-1.8617360647	 1.733503481	 0.9164285141	 0.123107
H	-1.811700569	 4.1182691204	 0.0490871614	 0.064337
H	 0.2128914196	 4.8636483691	 1.3028063049	 0.096527
H	-0.6342712429	 3.6053019466	 2.184967206	 0.097901
H	 2.1358265235	 3.5423094413	 1.2558568982	 0.102406
H	 1.2947201027	 2.2945526663	 2.1574965615	 0.109327
H	 2.1316553087	 1.3772997984	-0.0182045672	 0.077251
H	 2.1007681916	 3.5535453988	-1.2723793258	 0.10245
H	 1.2341955756	 2.3141569614	-2.1613178827	 0.109353
H	-0.6938809213	 3.6259191854	-2.1231408398	 0.097904
H	 0.1779115986	 4.8756223095	-1.2527542536	 0.096507
