18
gdb 74780	3.12133	1.4355	1.40027	3.2762	78.23	-0.2423	-0.0053	0.237	1027.5175	0.149958	-401.970615	-401.963314	-401.96237	-402.002178	29.291	
C	-0.0076370323	 1.4942400476	 0.0490635886	-0.517826
C	-0.0600516706	 0.0063741089	-0.0260179134	 0.350028
C	-0.0627260669	-0.8122666368	-1.0848792303	-0.196761
C	 0.0156330802	-2.2499171914	-0.567026963	-0.144538
C	-0.8249668197	-2.11284271	 0.7349260805	-0.234087
C	 0.0272973787	-0.9201626986	 1.188523914	 0.001341
O	 1.3758469391	-1.5191874193	 1.1705374188	-0.266515
C	 1.3978388015	-2.3459929882	 0.0749319415	 0.445132
N	 2.37637419	-3.0398919569	-0.3157435478	-0.567787
H	 0.9225185655	 1.8281087671	 0.5263172852	 0.140371
H	-0.0600582595	 1.9472851022	-0.9445433308	 0.130896
H	-0.8315765254	 1.8964707873	 0.6517272891	 0.128303
H	-0.0134027577	-0.5406148683	-2.1312992672	 0.110097
H	-0.2046283565	-3.0522963304	-1.2652086812	 0.093132
H	-1.8678716787	-1.8594226305	 0.5416463323	 0.111546
H	-0.7502156909	-2.9695573139	 1.4106744187	 0.1136
H	-0.1259503563	-0.4915099332	 2.1770348877	 0.08337
H	 3.1808406593	-2.9006141855	 0.2993187472	 0.219698
