15
gdb 54491	2.62239	1.60371	1.10425	1.4436	66.23	-0.2639	-0.0385	0.2254	1056.9239	0.110461	-457.780946	-457.772672	-457.771728	-457.814582	29.67	
C	 0.1157840125	 1.3369067869	-0.5375618808	-0.494486
C	 0.0051940155	 0.0473491585	 0.2419973611	 0.304645
O	 0.8837528869	-0.3750505787	 0.9624223203	-0.317303
C	-1.2620717934	-0.717908213	 0.0722116474	-0.014489
C	-1.7055716697	-1.7765257534	 1.1146915917	-0.324733
C	-1.4706204257	-2.1971690144	-0.2684592957	 0.069636
O	-2.6181078244	-1.8767371468	-1.0925769463	-0.256441
C	-2.4051531459	-0.5148864185	-0.8877271848	 0.432458
O	-2.9683590697	 0.3897748384	-1.4103502023	-0.327622
H	 1.0350576493	 1.8546538544	-0.2633757919	 0.144396
H	 0.1193558225	 1.1211592733	-1.6126061839	 0.154076
H	-0.7574213808	 1.9715605352	-0.3565254161	 0.161854
H	-0.9103238998	-1.9794639963	 1.8252578654	 0.167611
H	-2.7180301092	-1.7413601449	 1.5019668659	 0.148214
H	-0.7553358879	-2.9084060004	-0.6555033099	 0.152185
