19
gdb 114499	2.60041	1.42316	1.08674	3.7521	76.25	-0.2354	-0.0172	0.2182	1165.9919	0.158033	-423.005406	-422.996788	-422.995843	-423.039626	31.892	
C	 0.1525769818	 1.5623761477	 0.2214488325	-0.239634
O	 0.6079410152	 0.261412013	-0.0807874726	-0.230478
C	 0.7731402836	-0.5482920498	 1.0495542555	 0.147905
C	-0.5006327884	-1.1885202944	 1.6925261015	-0.271133
C	 0.0581767705	-2.6022376111	 1.3885823006	-0.027479
C	-0.3929976925	-3.1802486016	 0.0188387332	-0.357914
C	 0.8427984211	-2.5216749195	-0.6285922255	 0.432932
O	 1.3021719319	-2.5400836554	-1.7312818905	-0.29463
C	 1.334980312	-1.955881348	 0.7132142859	-0.216318
H	 0.8518973811	 2.0886691839	 0.8897802776	 0.107006
H	 0.0846867907	 2.1079553334	-0.7221764061	 0.134436
H	-0.8390472049	 1.5531230808	 0.6979633674	 0.108667
H	 1.3929806879	-0.0358200247	 1.8007046263	 0.072465
H	-0.6174408742	-0.96387387	 2.7551200735	 0.103903
H	-1.4353909367	-0.9473219578	 1.1784743995	 0.105493
H	 0.1307806662	-3.3053289414	 2.2160380311	 0.077724
H	-0.3342837027	-4.2721827387	-0.0487114995	 0.131202
H	-1.3685878917	-2.8638545325	-0.3618481262	 0.126216
H	 2.3749285892	-2.1536847039	 0.9750398757	 0.089637
