18
gdb 62843	2.67572	1.855	1.4973	1.5256	73.44	-0.2288	0.0393	0.2681	941.7774	0.145747	-438.906254	-438.898277	-438.897333	-438.938013	31.998	
C	-0.0814990582	 1.5066703937	 0.0463358899	-0.498335
C	 0.0183126906	-0.0093906585	-0.0275774733	 0.471538
O	-1.2302983178	-0.5786014468	-0.3215812233	-0.468068
C	 1.2503813711	-0.6486910894	-0.7082059222	-0.157247
N	 2.091700567	-0.0672443201	 0.4624042946	-0.410045
C	 0.839587202	-0.7503194159	 1.0913421187	 0.165442
C	 0.0732635964	-1.6974999087	 2.042938416	-0.185001
O	-0.0807768632	-2.609506205	 0.8912369985	-0.290798
C	 1.0466793201	-1.9334020738	 0.228509988	 0.087199
H	 0.8703151541	 1.9606466424	 0.3164170802	 0.156624
H	-0.3914569318	 1.909918303	-0.9267458842	 0.108472
H	-0.8397487853	 1.7904582717	 0.7840098762	 0.121104
H	-1.742818532	 0.0782783406	-0.8018572158	 0.281682
H	 1.6224715526	-0.5458905777	-1.7328312576	 0.079752
H	 2.8904365455	-0.6895795752	 0.6199886331	 0.218682
H	 0.6552101701	-2.1662308274	 2.8443994163	 0.113413
H	-0.8942649682	-1.3434797435	 2.4078163115	 0.127872
H	 1.952277337	-2.5421828594	 0.3325042935	 0.077714
