12
gdb 132247	3.62622	1.18969	0.8958	1.6995	70.27	-0.2866	-0.0832	0.2033	1147.3865	0.07926	-439.709742	-439.703034	-439.702089	-439.741229	24.945	
F	 0.0048993522	 0.0482698068	 0.0032255607	-0.060707
C	-0.013487346	 1.3737995905	 0.0103695592	 0.376513
C	-1.2506779909	 2.0114100038	 0.0307132225	-0.361217
C	-1.2360202457	 3.4058309816	 0.0377911945	 0.216802
C	-0.0054626104	 4.0774119872	 0.0243780164	-0.208063
C	 1.1515863996	 3.3123182142	 0.0044823236	 0.016285
N	 1.1544353486	 1.9737814848	-0.0025438467	-0.308594
C	-2.4652591865	 4.13994634	 0.0585220172	 0.222629
N	-3.4553590382	 4.73794984	 0.0752553776	-0.31329
H	-2.1715547174	 1.4440491484	 0.0404194572	 0.147481
H	 0.037341091	 5.1586417667	 0.0294330404	 0.135288
H	 2.1262352138	 3.791300116	-0.0064092627	 0.136872
