18
gdb 90215	3.09252	1.75533	1.55874	2.6437	76.51	-0.2016	0.047	0.2486	917.0118	0.147476	-401.763853	-401.756732	-401.755788	-401.794824	29.556	
O	 0.1583548725	 1.285820957	-0.3503617871	-0.420751
C	 0.0721310147	-0.0829166987	-0.028782384	 0.012763
C	 0.1590151147	-0.406035764	 1.5382519301	-0.383234
C	-1.3928274157	-0.3697036294	 1.5508159413	 0.277353
C	-2.3278139992	 0.8416488163	 1.5468599213	-0.290373
C	-2.8541533843	-0.1083851085	 0.4705688013	-0.049565
N	-2.6172098337	-1.3725733849	 1.3766661999	-0.207007
C	-1.8388121562	-2.0260135507	 0.2366763567	-0.217604
C	-1.4100211578	-0.5754918318	 0.0415262229	 0.188914
H	 1.0619718727	 1.5763840156	-0.1868961948	 0.288728
H	 0.7342792179	-0.6893546303	-0.6640767576	 0.075262
H	 0.5891897318	-1.3916277807	 1.732265974	 0.121607
H	 0.6676882531	 0.3359006237	 2.1608829066	 0.108102
H	-2.9649734487	 0.9743980934	 2.4258043931	 0.101484
H	-1.8987034426	 1.780362497	 1.1951734653	 0.120792
H	-3.7702176074	-0.0625310067	-0.1272816104	 0.079659
H	-1.0978947344	-2.7542349176	 0.5852670025	 0.096926
H	-2.4807122074	-2.4819840298	-0.5248641513	 0.09694
