16
gdb 3491	3.93977	3.69898	3.61535	1.6939	62.	-0.2346	0.0934	0.328	539.2287	0.141472	-288.639421	-288.634665	-288.633721	-288.667528	20.416	
C	-0.0308766921	 1.5800917236	 0.0115039337	-0.22771
C	 1.4782956506	 1.803682913	 0.0113497436	-0.026147
C	 2.0948396106	 0.6697153261	 0.7566262037	-0.026148
C	 0.9613489706	-0.2448404712	 1.2109171496	-0.22771
C	 0.0307138087	 0.0361800116	 0.0099160518	-0.057692
C	 1.0179176027	-0.1896782098	-1.1503988034	-0.148923
N	 2.1345708275	 0.6940166783	-0.7296179645	-0.123605
H	-0.5149546637	 1.989880581	 0.9037472714	 0.098652
H	-0.5255066949	 1.9897209055	-0.8748966611	 0.099615
H	 1.9298256066	 2.7848084507	-0.0705086216	 0.087227
H	 3.0432735923	 0.7369199386	 1.2754169286	 0.087227
H	 1.2605337745	-1.2952189267	 1.284088707	 0.099615
H	 0.5317591157	 0.0647308941	 2.16902683	 0.098652
H	-0.9166356635	-0.4993730677	-0.0212332717	 0.066532
H	 1.3700351518	-1.2225697733	-1.2329007624	 0.100208
H	 0.6335124725	 0.1320587663	-2.1232173648	 0.100207
