25
gdb 94608	3.34867	0.87471	0.77805	0.1962	92.65	-0.2624	0.0852	0.3476	1603.0602	0.229421	-352.337294	-352.327606	-352.326661	-352.372247	37.208	
C	-0.1910989708	 1.5263031112	-0.1272923853	-0.390322
C	 0.0346982159	 0.0172880006	-0.061191887	-0.008108
C	 1.2980566888	-0.4579714866	-0.8403019253	-0.222346
C	 2.0737104666	-0.5222475567	 0.501951113	-0.219815
C	 0.7097645194	-0.5208786636	 1.2478570238	 0.059925
C	 0.5589493954	 0.227949374	 2.5688684355	-0.243003
C	 1.3054570107	-0.42881145	 3.7135795616	 0.040672
C	 2.7494819503	-0.0912273401	 3.9950723498	-0.250148
C	 1.6676568646	 0.3550089777	 4.9487438629	-0.281894
H	 0.7221786685	 2.087027027	 0.1010879499	 0.111849
H	-0.510141755	 1.819174389	-1.1336846287	 0.109587
H	-0.9657170966	 1.8527922543	 0.5747188218	 0.112386
H	-0.8956963913	-0.4934913504	-0.3303381062	 0.059464
H	 1.1615803294	-1.448166477	-1.284142264	 0.095217
H	 1.6815762714	 0.2157037577	-1.6120944987	 0.08931
H	 2.741086743	-1.3716078457	 0.6654409876	 0.092365
H	 2.6399494563	 0.3953204576	 0.6908432367	 0.094888
H	 0.3875040719	-1.5592583331	 1.3969619068	 0.063892
H	 0.9113336655	 1.2618290898	 2.4587620442	 0.086473
H	-0.5084552797	 0.2947362962	 2.8251245472	 0.091853
H	 1.0278251744	-1.4669420894	 3.8840741747	 0.077135
H	 3.4187705928	-0.8849886658	 4.3084317297	 0.107445
H	 3.2219929156	 0.6669176684	 3.379200257	 0.108475
H	 1.415263545	 1.4105076456	 4.9692891414	 0.10728
H	 1.5960378979	-0.1349460607	 5.9136558116	 0.107421
