20
gdb 114751	2.62949	1.49974	1.20667	1.6793	74.14	-0.2274	0.066	0.2934	1104.1285	0.171832	-440.247469	-440.238916	-440.237972	-440.280508	32.865	
C	-0.2608018237	 0.6315156095	 0.5027748134	-0.252145
O	 0.7269457122	-0.3155141403	 0.1304642419	-0.253759
C	 0.8855640308	-0.4675841729	-1.278047528	 0.030463
C	 2.3493077122	-0.7888454669	-1.6290651965	-0.178724
N	 2.512317845	-2.2533492085	-1.7544975967	-0.10375
C	 2.006434648	-2.9867679065	-0.5839840064	-0.263302
C	 1.1548033607	-2.8277756851	-1.7937945543	-0.052316
C	 0.1021077806	-1.7256699216	-1.7796557074	 0.11646
O	-1.0531028026	-2.0094920151	-1.0200092121	-0.430226
H	-0.0069392732	 1.6348288058	 0.1303024926	 0.111621
H	-1.252862553	 0.3537473838	 0.1270246619	 0.128244
H	-0.2819061347	 0.6574650953	 1.5952668354	 0.127658
H	 0.5432219302	 0.4450112231	-1.779593712	 0.075838
H	 2.6037751293	-0.3486883413	-2.5993644341	 0.109134
H	 3.0340615402	-0.38353719	-0.8791277926	 0.118972
H	 2.4965233633	-3.9393143263	-0.405028865	 0.11535
H	 1.7568176632	-2.4218741486	 0.3093462676	 0.132324
H	 0.999733254	-3.6713077343	-2.4600486582	 0.090727
H	-0.2525022707	-1.5536507078	-2.8014634864	 0.092695
H	-0.7596368319	-2.0511251821	-0.1013895231	 0.284733
