15
gdb 124419	3.32532	1.1703	0.9217	3.205	70.1	-0.2751	-0.0266	0.2485	1207.6642	0.113099	-416.814986	-416.806923	-416.805979	-416.84861	28.767	
C	 0.2311744799	 1.3802637438	 0.3410325226	-0.386512
C	-0.1025401485	-0.0832557723	-0.0362058554	-0.281365
C	-1.5511441874	-0.2461797016	-0.2121222795	 0.287139
N	-2.6910954772	-0.3599208764	-0.3617406131	-0.323536
C	 0.6348626453	-0.5443714065	-1.2678053741	 0.156424
C	 0.1530081669	-0.8792578901	-2.4945405046	 0.003227
O	 1.1521463898	-1.2218705498	-3.3172149004	-0.164963
N	 2.3580092263	-1.1205843065	-2.6338243483	-0.123363
C	 2.0403824773	-0.7215065204	-1.4286862539	-0.052101
H	 1.3063831601	 1.4814388159	 0.5082193273	 0.13347
H	-0.0597264951	 2.0583366268	-0.4643833884	 0.147601
H	-0.2936288212	 1.6711926093	 1.254064147	 0.142979
H	 0.1856731424	-0.7251931331	 0.8067919104	 0.144811
H	-0.8442307557	-0.9248586436	-2.9037058161	 0.178672
H	 2.8278167469	-0.5730662656	-0.7025013033	 0.137518
