20
gdb 85041	2.25243	1.5049	1.14108	2.3973	75.12	-0.2157	-0.0316	0.1841	1158.0013	0.169443	-440.296178	-440.286655	-440.285711	-440.331099	35.137	
C	 0.8468312844	 1.5962120973	 0.0500603628	-0.381426
C	 0.1048755489	 0.2597932403	 0.0868877562	-0.023698
C	 0.4880356571	-0.6596295725	-1.0949246124	 0.053125
O	 0.7170323909	-0.0468023086	-2.3296353192	-0.437704
C	 1.7327320571	-1.3412330898	-0.5457445409	 0.353819
O	 2.6874411458	-1.6404022196	-1.2183134062	-0.328505
C	 1.5548836485	-1.4533092157	 0.9621997161	-0.278297
N	 0.4590651321	-0.537295486	 1.2903884687	-0.066138
C	-0.6566581959	-1.1463494214	 1.9938873252	-0.33401
H	 1.9323795104	 1.4471809535	 0.0601456593	 0.115886
H	 0.5955523525	 2.1497118911	-0.8578747208	 0.132197
H	 0.5822956381	 2.1941542235	 0.9258708024	 0.115524
H	-0.972571716	 0.4451677262	 0.099376187	 0.082202
H	-0.2879324829	-1.4431023475	-1.1802630759	 0.09504
H	 1.5594703052	-0.4052292913	-2.6496630241	 0.292831
H	 1.3176863683	-2.495893303	 1.2185584754	 0.127255
H	 2.4963478686	-1.2055214251	 1.4691155609	 0.135238
H	-0.3042461482	-1.5887587507	 2.9312276915	 0.125204
H	-1.3920995563	-0.3787478896	 2.2518189789	 0.126853
H	-1.1772585886	-1.9393082712	 1.4236923254	 0.094603
