12
gdb 1403	7.32079	1.44499	1.25677	4.8335	56.7	-0.2889	0.006	0.2949	877.2135	0.088049	-323.347275	-323.339673	-323.338729	-323.379109	26.357	
O	-0.0818712884	 1.4450757651	 0.0014384017	-0.401291
C	 0.0087728494	 0.0338283945	 0.0152405887	-0.044155
C	 0.6865411106	-0.5128838538	-1.2727343658	-0.35162
C	-0.0073827599	-0.0853029764	-2.4840215276	 0.267183
N	-0.5599835448	 0.2390210324	-3.4450181371	-0.298257
C	 0.7135501098	-0.4722689642	 1.1950474841	 0.282455
C	 1.3349549817	-0.8613562291	 2.1471778102	-0.42243
H	 0.7873394823	 1.8053004612	 0.2115015534	 0.292747
H	-1.0284157231	-0.3190546183	 0.0285366724	 0.144355
H	 1.7253602365	-0.1667664209	-1.3076856464	 0.154608
H	 0.7127845132	-1.607014133	-1.2367556933	 0.164974
H	 1.8623400226	-1.2085576375	 3.0019222397	 0.211431
