25
gdb 58458	2.70845	0.9814	0.96714	1.3053	88.54	-0.25	0.0765	0.3266	1437.3498	0.226977	-389.489958	-389.479314	-389.47837	-389.524936	41.025	
C	-0.284964911	 1.4394161429	 0.0536823043	-0.403047
C	 0.0659270787	-0.0548744344	-0.0065917259	-0.011148
C	 0.7829522023	-0.3984414737	-1.3205809452	-0.402446
C	 0.836828874	-0.5381276735	 1.239840118	 0.370386
C	 2.2096241726	 0.1251027716	 1.4069094808	-0.460767
C	 0.0184010532	-0.5110782614	 2.5737832616	-0.288411
C	 0.5045614655	-1.938954956	 2.8831266015	 0.139509
O	-0.5116804784	-2.7790919405	 3.3863547799	-0.433866
C	 0.9284172807	-2.0931761869	 1.3969808708	-0.315769
H	 0.6084824296	 2.068432168	-0.0224857374	 0.113625
H	-0.9467099835	 1.7138864238	-0.7745112654	 0.109368
H	-0.7968644532	 1.695454887	 0.987046329	 0.115354
H	-0.8831420231	-0.6098784492	-0.0014805786	 0.066784
H	 1.7053209558	 0.1795758062	-1.4417594659	 0.113736
H	 1.0437023281	-1.4607030717	-1.3713082587	 0.113402
H	 0.1424142303	-0.1717186562	-2.1792988108	 0.109424
H	 2.1230292595	 1.2114424566	 1.5114451411	 0.11483
H	 2.7180205436	-0.2467266315	 2.3026101218	 0.111357
H	 2.8643222323	-0.0814074999	 0.5540351515	 0.113968
H	 0.2476132548	 0.2722984618	 3.3006479185	 0.092229
H	-1.0597823791	-0.5235246392	 2.3884515901	 0.105893
H	 1.3756321616	-1.9377150324	 3.5529616785	 0.063346
H	-0.1360144646	-3.6538912724	 3.5289852256	 0.279092
H	 0.1394843681	-2.6038811399	 0.8361310373	 0.097526
H	 1.8898015623	-2.5698390391	 1.1839632175	 0.085626
