23
gdb 95588	2.38411	1.41603	1.04831	0.3836	92.27	-0.2286	0.0157	0.2443	1257.4593	0.20767	-351.160895	-351.151929	-351.150984	-351.19452	35.242	
C	-0.5538167839	 1.3949165081	 0.0514129067	-0.389668
C	-0.031410592	-0.056656794	 0.0632114782	-0.010053
C	 0.5015600719	-0.4537467903	-1.3281080852	-0.204813
C	 1.0452947981	-1.8924295858	-1.4578015629	-0.254953
C	 2.5219934845	-2.1325074544	-1.2566428801	-0.01731
C	 3.4335186509	-1.408295455	-0.6072779369	-0.064235
C	 3.2050167831	-0.1242877175	 0.1732390311	-0.315312
C	 2.2174678607	-0.28291709	 1.3107092887	-0.053906
C	 0.8867527883	-0.2676669412	 1.2471157355	-0.044324
H	 0.2632705715	 2.0985058947	-0.1412754836	 0.117136
H	-1.3139322496	 1.5342342497	-0.7251097864	 0.108262
H	-1.0009020036	 1.6629176831	 1.013874201	 0.111888
H	-0.9032521856	-0.7029483782	 0.2467123082	 0.076111
H	-0.3441124484	-0.3518474348	-2.0190985995	 0.089823
H	 1.2478987386	 0.2624176862	-1.6842600483	 0.101339
H	 0.4812736276	-2.5559171137	-0.7840034663	 0.10871
H	 0.8060538531	-2.2556110638	-2.4656869698	 0.100598
H	 2.8759159604	-3.0484285678	-1.7288369084	 0.079759
H	 4.4554343084	-1.7807495096	-0.6051229395	 0.082629
H	 4.162561348	 0.202220556	 0.5897515809	 0.097755
H	 2.8889509145	 0.6811596293	-0.496562187	 0.117756
H	 2.6670087637	-0.4622552474	 2.2853947026	 0.084575
H	 0.3514898198	-0.3983843737	 2.1874597712	 0.078234
