17
gdb 109494	2.1853	1.63691	0.99857	3.1923	69.64	-0.2344	-0.0497	0.1848	1169.5105	0.133593	-458.990584	-458.981573	-458.980629	-459.02563	31.73	
C	-0.2812022231	 1.5802076025	 0.0525240785	-0.24747
O	 0.0171562198	 0.2083501033	 0.2706601337	-0.226319
C	-1.0144098584	-0.6588473302	-0.0366132219	-0.073675
C	-1.2813916569	-0.9562065006	-1.5211542105	 0.361413
O	-0.9674820172	-0.2565375126	-2.4470632706	-0.298638
C	-1.9713687637	-2.3215923903	-1.6081282796	-0.331168
C	-1.6360171011	-3.0498654447	-0.285784468	-0.33234
C	-0.8214470141	-2.0618685909	 0.5596786907	 0.360415
O	-0.1351300257	-2.334709922	 1.5035560843	-0.283808
H	 0.5926892093	 2.1435077499	 0.3855288234	 0.13573
H	-0.4712138019	 1.7883966726	-1.004762203	 0.143013
H	-1.1527270474	 1.8922911089	 0.6485877993	 0.104379
H	-1.9927101795	-0.3160282112	 0.3691990213	 0.10866
H	-3.0481766333	-2.1614982754	-1.7321015937	 0.141261
H	-1.6249372035	-2.8436952127	-2.5027391168	 0.146957
H	-2.5303091516	-3.3426896349	 0.274043836	 0.142328
H	-1.0445255617	-3.9576457217	-0.428248373	 0.14926
