17
gdb 83011	2.64266	1.94287	1.64616	2.5639	66.05	-0.2326	0.0508	0.2834	880.5229	0.137791	-458.914004	-458.907219	-458.906275	-458.945077	27.497	
O	 0.0246668621	 1.4821990004	 0.1969057355	-0.428417
C	-0.0200780794	 0.0991309944	 0.1014903793	 0.085956
C	-0.4666506832	-0.7843066931	 1.2369466889	 0.04784
O	-1.1329493744	-0.2067534978	 2.3314612116	-0.260408
C	-2.4461387597	 0.1871277569	 1.9790747094	 0.066559
C	-2.6476041237	 1.6851365174	 1.7001167579	-0.115839
O	-2.685151888	 1.4545969901	 0.2615313875	-0.318006
C	-2.596142114	 0.0029924199	 0.4501927802	 0.078544
C	-1.3280904088	-0.6739273157	-0.0171607792	-0.190501
H	-0.8452350551	 1.8096810116	-0.0759501852	 0.304967
H	 0.7951930615	-0.3127127316	-0.4929573096	 0.09949
H	 0.089301	-1.6775891021	 1.5026422782	 0.103018
H	-3.1648752317	-0.2860264214	 2.6538086258	 0.092358
H	-3.5975023766	 2.1006203569	 2.0527010759	 0.111241
H	-1.8106511301	 2.3217741946	 1.9971959133	 0.133681
H	-3.4997269279	-0.4829645854	 0.0737819351	 0.093302
H	-1.4116642009	-1.472629765	-0.7439210746	 0.096217
