19
gdb 38535	3.17565	1.6328	1.21433	1.5097	83.13	-0.2209	0.0283	0.2493	1043.41	0.161458	-385.854614	-385.847447	-385.846503	-385.885882	29.335	
C	-0.0895334437	 1.4251505688	 0.2187369477	-0.332839
C	 1.2905055343	 0.870208464	-0.0029344089	-0.130415
C	 1.7681162818	 0.1314163034	 1.2722349694	-0.344808
C	 0.5684720071	-0.7951556904	 1.0889223008	 0.324104
C	 0.1824366331	-2.0286382674	 1.383559847	-0.291393
C	-0.9507637953	-2.6334621972	 0.5827216008	-0.099803
O	-1.5861885986	-1.7338379805	-0.3166939279	-0.255218
C	-0.6990074237	-0.9012867082	-1.0653393114	-0.222872
C	 0.0444774351	-0.0442253529	-0.0784852891	 0.316782
H	-0.3951414142	 1.7747583306	 1.2027710577	 0.109225
H	-0.4847354751	 2.0143287981	-0.6046363816	 0.111897
H	 1.9331247524	 1.2136707668	-0.8042317998	 0.095626
H	 2.7236256083	-0.3886904157	 1.16114617	 0.117312
H	 1.8076460817	 0.7445081857	 2.1793199928	 0.107548
H	 0.6771967617	-2.6602435437	 2.1159494108	 0.086929
H	-0.5727940029	-3.5165276485	 0.0341734446	 0.09295
H	-1.7526429065	-2.9923268161	 1.2394084863	 0.116738
H	 0.001957626	-1.516168302	-1.6533716642	 0.090998
H	-1.3296146417	-0.3368279749	-1.7574368649	 0.107239
