19
gdb 92518	2.44739	1.6869	1.25847	1.7535	74.6	-0.2423	-0.0288	0.2136	1061.1337	0.159157	-423.041909	-423.033596	-423.032652	-423.075869	31.162	
C	-0.4479630078	 1.4307619275	-0.2513178298	-0.392105
C	-0.0438521471	-0.0263616328	-0.0451668561	 0.021678
O	 0.5130932538	-0.6025825659	-1.2214584986	-0.282925
C	 1.8162344032	-1.1262116325	-0.9785916773	 0.11879
C	 3.016989342	-0.166485298	-1.2423599022	-0.24648
C	 3.4519544289	-0.3232644661	 0.2444749469	-0.233944
C	 2.1186476729	-1.0769681082	 0.5313800625	-0.16689
C	 0.9982744514	-0.1984502783	 1.0713508503	 0.363952
O	 0.9290939833	 0.2983883719	 2.1653973405	-0.316005
H	 0.4133459497	 2.0367496077	-0.5475953722	 0.121101
H	-1.2089759122	 1.5073003478	-1.0316785189	 0.127459
H	-0.8507812256	 1.8310072585	 0.6830897379	 0.137869
H	-0.9341941233	-0.6074413988	 0.2447107804	 0.105838
H	 1.8921419244	-2.0951717649	-1.4777581552	 0.083437
H	 3.7385924213	-0.4951615165	-1.9929928775	 0.107105
H	 2.6763291509	 0.8385719039	-1.501828348	 0.114333
H	 4.3220901	-0.9699989369	 0.3715659399	 0.113767
H	 3.6123086942	 0.5899149572	 0.8214166293	 0.11946
H	 2.1785445	-2.0026249856	 1.1084923182	 0.103561
