19
gdb 106891	2.84517	1.24841	1.05157	2.4137	76.74	-0.2301	-0.015	0.2151	1206.9455	0.157653	-423.018692	-423.009461	-423.008517	-423.052823	34.108	
C	 0.0786115394	 1.5148736147	 0.228629785	-0.373559
C	-0.0006876679	 0.0210226105	-0.1185037328	-0.305768
C	-1.4122928589	-0.4972134718	-0.0891305131	 0.378308
C	-2.1083656552	-0.9674870467	 1.1367683246	-0.320947
C	-1.9127206285	-1.9771228897	 0.0037281299	-0.265869
C	-2.9281372758	-1.6836185812	-1.0474825799	 0.403238
O	-3.7111906241	-2.3350991772	-1.6830466953	-0.332548
C	-2.4656150919	-0.1993672783	-1.1630034131	-0.078429
O	-3.3654540956	 0.84192341	-0.8627568386	-0.434743
H	 1.1093016138	 1.8764948256	 0.1668182613	 0.113286
H	-0.5333774832	 2.1098270412	-0.4563700612	 0.133972
H	-0.2876598394	 1.701080043	 1.2430645418	 0.122898
H	 0.4286822004	-0.1495522543	-1.1141692514	 0.103075
H	 0.6107036383	-0.5563489363	 0.5858258324	 0.101126
H	-1.4736563779	-1.1577623334	 1.9970375318	 0.123264
H	-3.1023646101	-0.6094904698	 1.3815865541	 0.136454
H	-1.3583117485	-2.8955255198	 0.1536624052	 0.11182
H	-1.9929866558	-0.0598606951	-2.1498234609	 0.087789
H	-4.1244271093	 0.7483859084	-1.4494304498	 0.296632
