16
gdb 33678	3.21144	1.46141	1.3967	5.2746	73.73	-0.2361	0.0013	0.2374	974.3445	0.12768	-396.888221	-396.881446	-396.880502	-396.919359	26.884	
N	-0.0621049801	-1.1062329388	-0.1987455942	-0.348234
C	-0.0412402649	 0.04317786	-0.0660093202	 0.149228
C	 0.0194950271	 1.454632329	 0.1028853118	 0.291174
C	-0.9263620222	 2.3407947252	 0.8236213409	-0.071743
C	-0.1482625534	 3.2812338661	 1.731658623	-0.20116
N	 1.264337741	 2.9693013913	 1.4199506145	-0.290438
C	 1.2521687087	 2.3956474517	 0.0810976419	-0.107173
C	 0.4437972383	 3.2310822696	-0.9529346111	-0.16905
N	-0.8196752038	 2.4669194623	-0.6559900697	-0.179436
H	-1.8921158877	 1.9621827488	 1.1362833007	 0.128911
H	-0.425110822	 4.3271645295	 1.5346050765	 0.110558
H	-0.3698890006	 3.0755578399	 2.7845628842	 0.124352
H	 1.8539426412	 3.7942975872	 1.4679098944	 0.225261
H	 2.2226649103	 2.0006217251	-0.2152169283	 0.10523
H	 0.377782218	 4.3114331775	-0.7872834052	 0.105567
H	 0.7201163301	 3.0352747357	-1.991238949	 0.126954
