21
gdb 115737	2.68504	1.15612	0.92756	2.7024	78.01	-0.2553	0.0708	0.3261	1317.063	0.18234	-424.182752	-424.173548	-424.172604	-424.217122	34.165	
O	 0.1803836562	 1.3894781061	-0.1900297858	-0.424593
C	 0.0868407046	 0.0071398657	 0.1276679207	-0.078514
C	-1.3529639804	-0.4951219544	 0.0398627086	-0.026164
C	-1.8726225361	-0.6722462025	-1.4192088794	-0.240562
C	-1.6649807668	-2.2047970791	-1.2947300572	-0.240106
C	-1.5584070259	-2.0380049975	 0.2451353064	-0.01283
C	-0.5251835329	-2.8338109578	 0.9982529122	 0.058249
C	-0.133743685	-4.1928237849	 0.601734392	-0.183561
O	 0.7275470223	-3.0804430027	 0.3480375304	-0.230311
H	-0.0894669548	 1.4964235658	-1.1076997599	 0.280564
H	 0.7498041803	-0.5979134029	-0.5072627956	 0.107067
H	 0.4582015946	-0.0833051432	 1.153792421	 0.107679
H	-1.9717724506	 0.1431691482	 0.6771236601	 0.073143
H	-2.9253221967	-0.397984726	-1.5238803326	 0.103777
H	-1.310809339	-0.1651606082	-2.2110316127	 0.08552
H	-2.4588001912	-2.8514690301	-1.6752014093	 0.095791
H	-0.710661054	-2.526661187	-1.7188311398	 0.12197
H	-2.5284456093	-2.2128060248	 0.7250414549	 0.078648
H	-0.4201342152	-2.5762484113	 2.0543458093	 0.092807
H	 0.2220996283	-4.8970673225	 1.3521858787	 0.115901
H	-0.5827889284	-4.6430977109	-0.2822876219	 0.115524
