17
gdb 66509	3.04048	1.98913	1.75048	3.8878	76.4	-0.2032	-0.0463	0.1569	855.111	0.136169	-380.734271	-380.727532	-380.726588	-380.764895	27.838	
C	 0.0222326296	 1.4966195324	-0.0750074698	-0.511149
C	 0.0638471442	 0.0092399104	 0.0030905691	 0.351147
C	 0.254656436	-1.063226493	-1.0177607135	-0.099872
C	 0.4089404341	-2.0489974731	 0.1587703349	-0.147824
C	 0.6473022091	-0.8976286758	 1.1752600761	-0.105462
C	-0.3039080262	-1.338030261	 2.3498778596	-0.186312
N	-1.5704828659	-1.5846327795	 1.5835050105	-0.225447
C	-1.094671892	-1.7773432077	 0.4176978643	 0.208974
N	-1.1525973512	-0.7767273219	-0.6412231326	-0.203198
H	 1.0184239287	 1.9173526789	 0.1047293611	 0.124803
H	-0.3233555566	 1.8234942506	-1.0588311854	 0.142081
H	-0.6607330149	 1.9026616994	 0.678973626	 0.143037
H	 0.6179070398	-1.0456304834	-2.0363869415	 0.105813
H	 0.906511779	-3.0127423275	 0.2029069619	 0.092196
H	 1.6752011311	-0.6167703418	 1.4248064144	 0.079313
H	 0.1272707577	-2.2031945503	 2.8772250317	 0.109485
H	-0.5248652426	-0.5687076867	 3.0959705833	 0.122413
