20
gdb 67104	2.60371	1.99413	1.70585	1.9351	82.31	-0.2172	0.0842	0.3014	925.0731	0.172744	-365.915846	-365.908709	-365.907765	-365.946839	29.782	
C	-0.1527778904	 1.5087258514	-0.065190642	-0.530662
C	 0.0146264811	 0.0194726481	-0.054713642	 0.386998
C	 0.7451826769	-0.8927516159	-1.054654459	-0.134274
C	 2.2414420011	-0.861125049	-0.6133532892	-0.229409
C	 2.1500393406	-0.8606900354	 0.969519432	-0.359176
C	 0.6340518234	-0.8975680399	 1.0417676005	 0.257986
C	-0.7316582943	-0.9364954662	 1.74676306	-0.288079
N	-1.1702664777	-0.9386882496	 0.2716156266	-0.221625
C	 0.055639212	-1.8216556515	-0.0551726222	-0.008498
H	 0.8145374632	 2.0081468956	-0.1897955198	 0.121653
H	-0.8018592481	 1.8162180647	-0.8918058427	 0.132902
H	-0.6021912931	 1.8686667013	 0.8664086422	 0.124392
H	 0.5357977285	-0.8977969759	-2.126531998	 0.063396
H	 2.7873684259	-1.7334730264	-0.9849905088	 0.103561
H	 2.7548801355	 0.0288152109	-0.9903259643	 0.102849
H	 2.6393475137	-1.7326903085	 1.4123936588	 0.102984
H	 2.5934117277	 0.0378137747	 1.4086895039	 0.101792
H	-1.0077665599	-1.8511582237	 2.2810679811	 0.100693
H	-1.0596447843	-0.0537161087	 2.3045694349	 0.100321
H	-0.0151681018	-2.9106245662	-0.029662472	 0.072197
