19
gdb 68292	2.85177	1.43208	1.33121	1.9006	75.15	-0.2385	0.0772	0.3156	1056.8464	0.158085	-422.936936	-422.928782	-422.927838	-422.969687	31.272	
C	 0.1444277678	 1.4834243485	 0.0750052942	-0.516583
C	 0.0413106748	-0.0019299045	-0.0637498463	 0.32965
C	 0.7044696836	-0.9628220164	-1.0886448759	-0.273548
C	 0.0472410165	-1.8030126395	 0.0269818798	-0.029633
O	 0.5936829116	-0.8584829088	 1.0303866405	-0.351908
C	-1.2090452077	-0.9200502158	-0.0525162554	 0.337484
C	-2.3064670435	-0.8699122858	 1.012275482	-0.162371
O	-3.3304867961	-0.9104321099	-0.0106687633	-0.278483
C	-2.3568512005	-0.9723448934	-1.0721742044	-0.178842
H	 1.1920672937	 1.7885289161	 0.1535718542	 0.138198
H	-0.2953244127	 1.9767044102	-0.7977120103	 0.130368
H	-0.3841638324	 1.8258369502	 0.9699226736	 0.137106
H	 0.2836744801	-1.0145248843	-2.0969032229	 0.099091
H	 1.7954118555	-0.9603799924	-1.0809123193	 0.107335
H	 0.1325642893	-2.8685165185	 0.2413895439	 0.096281
H	-2.359859226	-1.734645841	 1.6846950999	 0.10751
H	-2.3582388082	 0.0488448239	 1.6096125921	 0.105091
H	-2.4347209378	-0.1155619246	-1.7552055434	 0.100543
H	-2.4391834678	-1.8984428341	-1.6566692992	 0.102711
