15
gdb 84417	3.29717	1.28735	0.97369	4.0308	70.34	-0.2429	-0.0409	0.2021	1152.0225	0.113306	-453.996237	-453.988084	-453.98714	-454.029271	29.674	
N	-0.0158009091	 1.4908096025	-0.2583694175	-0.497437
C	-0.0062800595	 0.0446639723	-0.05701322	-0.161828
C	 0.6156899234	-0.5115970597	 1.2082457232	-0.178307
C	-0.2700915642	-1.2603790714	 1.8646742171	-0.007976
N	-1.5089431538	-1.3058868797	 1.1837737877	-0.138152
C	-2.6328657768	-1.9920641824	 1.6184905492	 0.161582
O	-2.6581449608	-2.6489436971	 2.630686347	-0.307413
C	-1.4509995652	-0.5133172437	 0.0124841102	 0.437078
O	-2.3639608652	-0.3363332483	-0.7458717082	-0.328339
H	-0.3004613909	 1.9600865028	 0.5967081512	 0.235089
H	 0.9222172934	 1.8148003767	-0.4706003647	 0.23868
H	 0.4542321797	-0.4023104553	-0.9486905432	 0.132933
H	 1.6326630774	-0.3210677337	 1.5193043008	 0.118785
H	-0.1904581014	-1.8103406577	 2.790124767	 0.16497
H	-3.478237887	-1.8593457652	 0.9265735402	 0.130333
