16
gdb 71555	2.73158	1.46621	1.37598	2.3326	70.29	-0.2394	-0.0409	0.1985	1006.1788	0.122119	-437.779147	-437.771261	-437.770317	-437.811676	29.632	
C	 0.1288371051	 1.4768418007	-0.065464137	-0.529924
C	 0.0429228641	-0.0106838369	-0.0268633297	 0.439899
O	 0.5344337598	-0.8128305052	-1.144689465	-0.349664
C	 0.0393605745	-1.8090539962	-0.2137032576	 0.027375
C	 0.4828025523	-1.038218518	 1.067667787	-0.121625
N	-0.8657775373	-1.0085448867	 1.7193584291	-0.37448
C	-1.1972783321	-0.9503080791	 0.2686750797	 0.176601
C	-2.5592281584	-0.9270882144	-0.3163281349	 0.02039
O	-3.5742799249	-1.0481987397	 0.3240404858	-0.251319
H	 1.1735306405	 1.7944576434	-0.1359709395	 0.142297
H	-0.4140622706	 1.8771700259	-0.9264432999	 0.141106
H	-0.3050663238	 1.8869941458	 0.8508355704	 0.155695
H	 0.0959201851	-2.8639158205	-0.4856030828	 0.108763
H	 1.4224512917	-1.0914730572	 1.6180803576	 0.098947
H	-1.1099263386	-1.9215156258	 2.1078794445	 0.223864
H	-2.5702968274	-0.806199746	-1.4219832377	 0.092076
