19
gdb 66451	3.04193	1.65207	1.4872	1.7883	78.26	-0.2378	0.0858	0.3236	989.0476	0.158926	-385.819404	-385.811806	-385.810861	-385.850926	30.705	
C	-0.0105352566	 1.4453201261	 0.0290242667	-0.521512
C	 0.0145096004	-0.0513173812	-0.0286572577	 0.353348
C	-0.9400122316	-0.9693485261	 0.7390121859	-0.141641
C	 0.5566382826	-1.0750612144	 0.9465682771	-0.23751
C	 0.5795938656	-2.1068738567	-0.2295635134	 0.341108
C	 1.4999200976	-3.2667399338	-0.4580399788	-0.538866
C	-0.9904323765	-2.1431418689	-0.2709646017	 0.020868
O	-1.0312434761	-1.5812733895	-1.6031028089	-0.297916
C	 0.236744216	-0.9773982758	-1.2605138875	-0.044073
H	 0.9452105097	 1.8761438583	-0.290593829	 0.118314
H	-0.7950884191	 1.8500656638	-0.6206946706	 0.127953
H	-0.2066019907	 1.7983949963	 1.0470175882	 0.12076
H	-1.7045998635	-0.5899076978	 1.4036957344	 0.087574
H	 1.1582836999	-0.9626344342	 1.8378133111	 0.088738
H	 1.4383907228	-3.9922420855	 0.3609873811	 0.121945
H	 1.2396136967	-3.7831947068	-1.3885369337	 0.13201
H	 2.5430108647	-2.9388929119	-0.5333351376	 0.12147
H	-1.6410680768	-3.0049054988	-0.1238174169	 0.075725
H	 0.8304195447	-0.6539696929	-2.1161905885	 0.071702
