19
gdb 68829	2.76633	1.45419	1.23968	1.2553	76.76	-0.2246	0.0811	0.3058	1093.4366	0.15763	-422.976993	-422.968386	-422.967441	-423.009754	33.547	
C	-0.0305511789	 1.5453495849	 0.1435852194	-0.500234
C	-0.0230789459	 0.0482926532	 0.0579743706	 0.255065
C	 1.1800966574	-0.7526720771	-0.4074053482	-0.379577
C	 0.6386926756	-1.0330045991	 0.9538052834	 0.318949
O	 1.4303171181	-0.9784376375	 2.0764270069	-0.455075
C	-0.6225346794	-1.8519071643	 0.881754101	 0.364963
C	-0.864717948	-3.2536493817	 1.2177470629	-0.274453
O	-1.2478129235	-2.1916687719	 2.1179964909	-0.292352
C	-1.2794245667	-0.8402993134	-0.0738729751	-0.377467
H	 0.9366016722	 1.9196375379	 0.4946616943	 0.126862
H	-0.2291217331	 2.0051762867	-0.8324387089	 0.120924
H	-0.799756735	 1.9006338558	 0.8388350801	 0.118114
H	 1.1086566057	-1.4793853838	-1.2155706736	 0.1024
H	 2.1146425652	-0.1986385555	-0.389573122	 0.121596
H	 0.8329416522	-1.0710039617	 2.8309717506	 0.294488
H	-1.6974240919	-3.788003407	 0.7631248738	 0.118639
H	-0.0411916603	-3.8777853312	 1.5614142359	 0.120194
H	-2.1709129158	-0.4014309408	 0.3827479137	 0.118192
H	-1.523699658	-1.1951185534	-1.0809538958	 0.098775
