17
gdb 44008	3.81632	1.3956	1.24584	3.14	71.66	-0.2504	-0.0216	0.2288	1022.2581	0.136084	-421.813946	-421.806758	-421.805814	-421.845544	28.739	
O	-0.0240898012	 0.5502834972	-1.3358284692	-0.287919
C	-0.0217902029	 1.3307011038	-0.4273719498	 0.397415
C	-1.3019205407	 1.8872921072	 0.2761587068	-0.42862
C	-0.7609761725	 3.0043221997	 1.1112366686	 0.323877
C	-0.7973689072	 3.4600778095	 2.5793972667	-0.300472
C	 0.7805665227	 3.4812099132	 2.5572371335	-0.300471
C	 0.7151895445	 3.024112541	 1.0904975964	 0.323874
C	 1.2622161945	 1.9216747233	 0.2401294671	-0.428618
O	-0.0464330756	 3.9937206931	 0.3601306064	-0.309491
H	-2.040052945	 2.1724599357	-0.4778591278	 0.143747
H	-1.741350355	 1.0891605466	 0.8870457545	 0.132691
H	-1.3097559111	 4.4065732931	 2.7644935842	 0.116808
H	-1.1900109051	 2.6976756148	 3.2561695988	 0.111966
H	 1.2724171095	 4.4411555069	 2.7282339209	 0.116807
H	 1.2123312583	 2.7298477043	 3.2224295314	 0.111967
H	 1.7398669329	 1.1358386179	 0.838131697	 0.132691
H	 1.9709702139	 2.2262422726	-0.5342155356	 0.143747
