13
gdb 4326	3.92885	1.87377	1.26869	3.1476	63.85	-0.2144	-0.0261	0.1883	872.4547	0.098092	-398.676638	-398.670326	-398.669382	-398.706964	24.743	
O	-0.0813667094	 1.3551136053	 0.010591625	-0.427679
C	 0.0152623654	 0.0052721229	 0.0027406786	 0.454959
C	 1.2094129081	-0.6646666289	-0.0075124111	-0.429162
C	 1.2753923449	-2.1056037256	-0.0157655459	 0.443308
O	 2.2769831463	-2.8027801737	-0.0248488711	-0.408426
N	-0.0021365849	-2.717698345	-0.0118485499	-0.364791
C	-1.1858542882	-2.052957252	-0.0016698676	 0.054435
C	-1.2279963754	-0.6960332762	 0.0058480021	-0.245699
H	 0.8044884898	 1.7359996298	 0.0077490067	 0.30557
H	 2.1579579166	-0.1388967751	-0.0098812487	 0.099984
H	 0.0236480346	-3.7272956219	-0.0173881157	 0.261474
H	-2.0791949003	-2.6658201389	 0.0000328091	 0.13841
H	-2.1620946874	-0.1538260405	 0.0139765785	 0.117618
