17
gdb 111271	3.20813	1.27712	1.01359	2.6259	69.96	-0.2269	-0.0324	0.1945	1193.3247	0.132593	-458.923192	-458.914012	-458.913068	-458.957473	32.425	
C	 0.0826448957	 1.2976428141	 0.2202684393	-0.245055
O	-0.0037606451	 0.0036237513	-0.3540492962	-0.241945
C	-1.2395900617	-0.6002973992	-0.1561435682	 0.016571
C	-1.3683819656	-2.0324793711	-0.6701740795	-0.09147
O	-0.5062630065	-2.8397476514	 0.126146782	-0.265364
C	-1.8353565158	-2.568275427	 0.6407271183	 0.284493
C	-2.7218001502	-3.7037809335	 1.0240153574	-0.514641
C	-1.6614213538	-1.1778410622	 1.2525372395	 0.348194
O	-1.8700654104	-0.6953743475	 2.3260953513	-0.30588
H	 1.081893476	 1.6762909981	-0.0035257987	 0.132898
H	-0.6649697945	 1.9786733879	-0.2152395506	 0.106759
H	-0.0612182451	 1.2691161359	 1.307128142	 0.138713
H	-2.0719096114	 0.0364106422	-0.5109356401	 0.087318
H	-1.6203976464	-2.3808896711	-1.664439091	 0.119498
H	-2.6736398309	-4.4978642017	 0.2745240034	 0.141508
H	-2.4123340053	-4.1193619435	 1.9881016215	 0.150567
H	-3.7583494889	-3.3667429212	 1.1200856695	 0.137835
