13
gdb 27589	3.79505	1.22697	0.92736	5.9367	75.09	-0.2592	-0.0699	0.1894	1150.8922	0.092044	-411.86502	-411.857622	-411.856678	-411.896943	27.382	
N	 0.0103612106	 1.3614430084	 0.0916763249	-0.565848
C	-0.0113899312	 0.0061873795	 0.0338170497	 0.430593
C	-1.2169377321	-0.7242403302	 0.0280712353	-0.250716
C	-1.0972062013	-2.1022560572	-0.0030139649	 0.236382
N	 0.0834836641	-2.7482951107	-0.0249031519	-0.323272
C	 1.1477187426	-1.9507395486	-0.0163046982	 0.068436
N	 1.1751436279	-0.620087836	 0.008601682	-0.313
C	-2.2876770666	-2.9164025962	-0.0138374039	 0.243946
N	-3.2615557784	-3.5393744451	-0.0223480368	-0.319311
H	 0.8995202115	 1.8136691545	-0.0437061849	 0.272672
H	-0.8243733734	 1.8954024962	-0.0740258716	 0.26882
H	-2.1857250807	-0.2408312269	 0.0485702885	 0.122359
H	 2.115942407	-2.4454832677	-0.0347429183	 0.128941
