20
gdb 91346	1.92808	1.74884	1.57302	3.0022	74.17	-0.216	0.0456	0.2616	1028.5529	0.170452	-440.235587	-440.226782	-440.225838	-440.268596	34.359	
C	-0.0837814453	 1.5122982036	 0.0271240143	-0.485342
C	-0.0271856488	 0.00244602	-0.0006237369	 0.30209
C	-1.3225319719	-0.7900647003	 0.3413502079	 0.099308
O	-2.1111006383	-1.3619936586	-0.6579255531	-0.439328
C	-0.4408822616	-1.6719323849	 1.2700680234	-0.225931
N	 0.7145647283	-0.7201654174	 1.1318047617	-0.163195
C	 1.7252052614	-1.2156292441	 0.1503794053	-0.20862
C	 0.9407271582	-0.6235302921	-1.0487293643	 0.036247
O	 0.3088051967	-1.559128969	-1.915245226	-0.437295
H	 0.9172354203	 1.9553057354	-0.0148880352	 0.116041
H	-0.6574649004	 1.8838660349	-0.830302342	 0.126998
H	-0.5677723388	 1.8632145952	 0.9434491513	 0.125294
H	-1.9887879932	-0.1512527742	 0.9304249053	 0.090144
H	-1.5032347555	-1.7675138401	-1.2903839709	 0.293168
H	-0.7790253874	-1.7872268488	 2.3037225511	 0.102705
H	-0.2466260045	-2.6660451844	 0.8499741951	 0.094917
H	 2.7027558556	-0.7501703372	 0.3141335593	 0.106135
H	 1.8492750715	-2.3040894785	 0.1336230354	 0.099249
H	 1.4896941877	 0.1212715959	-1.6398243558	 0.075229
H	 0.987996806	-2.0634010052	-2.374095946	 0.292186
