20
gdb 37444	2.47439	1.93563	1.91706	1.8033	76.27	-0.227	0.0814	0.3084	893.7106	0.175769	-403.127086	-403.120543	-403.119599	-403.157487	28.228	
C	 0.0325797269	 1.4659269176	-0.1904208734	-0.268889
C	 1.3056745353	 0.7226097628	 0.0061943053	-0.022022
C	 1.9995749218	 0.6433721155	 1.358211833	 0.099251
C	 1.1708428802	 1.2700938708	 2.4867563736	-0.229012
C	-0.2105101016	 0.5559741404	 2.5142366767	-0.227259
C	-0.2264753157	-0.5067745087	 1.3997011217	-0.011328
C	 0.9446351242	-1.4705003992	 1.6434004686	-0.049941
O	 2.1860252455	-0.7518589786	 1.6533348222	-0.284514
N	 0.0041931307	 0.0183910007	 0.0331166788	-0.092287
H	-0.3130589994	 2.1468346159	 0.579567714	 0.113729
H	-0.2527001513	 1.7577474486	-1.1972965778	 0.116835
H	 1.9328447805	 0.4993379781	-0.8545291524	 0.093374
H	 3.0064857288	 1.0651668324	 1.3183550598	 0.074871
H	 1.7114555141	 1.1201379679	 3.4249339198	 0.107965
H	 1.0715721518	 2.3499446941	 2.3388760987	 0.100551
H	-0.3775639807	 0.0579803668	 3.4745904167	 0.102277
H	-1.0377935293	 1.2595789936	 2.3858116803	 0.103682
H	-1.170247692	-1.060328607	 1.4015560354	 0.07453
H	 0.827715937	-1.980814717	 2.6084830036	 0.093157
H	 0.975964883	-2.2277733248	 0.8499618654	 0.105031
