16
gdb 29918	3.31669	1.31058	0.95059	7.9138	79.17	-0.2376	-0.0111	0.2265	1185.7026	0.125378	-396.994939	-396.986272	-396.985328	-397.02852	30.601	
C	 0.0065862056	 1.4510995598	 0.0190217874	-0.344376
N	 0.0029039083	 0.0005476501	 0.0267845927	-0.044773
C	-0.0337373979	-0.8185928075	-1.0729775979	-0.00896
N	-0.0274411804	-2.0857926758	-0.7558048965	-0.323985
C	 0.0155379505	-2.0973173157	 0.6244044825	 0.110818
C	 0.036075199	-3.2919893552	 1.390636457	 0.216609
N	 0.0539761597	-4.2410161657	 2.0547509893	-0.356716
C	 0.0351348329	-0.8119281108	 1.1348024058	 0.216602
C	 0.0802744719	-0.3099536285	 2.5351175719	-0.515654
H	 0.9122752555	 1.8423379843	 0.4916182483	 0.153154
H	-0.0245424772	 1.7964876403	-1.0154234854	 0.154832
H	-0.8659582875	 1.8471578437	 0.5467484021	 0.153156
H	-0.0638187537	-0.4165010217	-2.0752397071	 0.13818
H	 0.9723631834	 0.2987634452	 2.7245428237	 0.140724
H	-0.7948776562	 0.3036408155	 2.779768977	 0.140725
H	 0.099418306	-1.157684478	 3.2228151093	 0.169662
