13
gdb 1908	5.75701	2.35071	1.99359	4.4405	54.23	-0.2727	0.0039	0.2766	658.0128	0.101312	-344.458979	-344.452841	-344.451897	-344.488754	22.959	
C	 0.0580341602	 1.4867077657	-0.0256586646	-0.48666
C	 0.0214702237	 0.0013352331	 0.0822818787	 0.462584
C	-0.9062874449	-0.8806551354	 0.8315166988	-0.324423
C	 0.6138106608	-0.9902042748	 1.0610362564	-0.316802
C	 1.2070299265	-1.6237663639	-0.1658701708	 0.465112
O	 1.9790395339	-2.483440094	-0.438750105	-0.325076
O	 0.5556722747	-0.7658882045	-1.0463654134	-0.294296
H	 1.067427847	 1.8345070185	-0.262882453	 0.143272
H	-0.6189810759	 1.8314949014	-0.814226318	 0.144489
H	-0.2590749684	 1.9419313518	 0.9166840142	 0.133711
H	-1.4390972826	-0.42641146	 1.6620430759	 0.130827
H	-1.437216274	-1.6758741345	 0.31836155	 0.138885
H	 1.079816769	-0.8709675432	 2.0280432309	 0.128377
