18
gdb 72872	3.39741	1.19223	1.02556	3.8812	74.68	-0.2444	0.0207	0.2652	1190.2177	0.146851	-439.074977	-439.066476	-439.065532	-439.109052	31.052	
C	-0.1308608205	 1.5228537528	 0.1945562469	-0.476794
C	 0.0750162081	 0.0426254538	 0.0382016216	 0.424169
C	-1.1490437305	-0.9200530829	 0.0299114592	-0.218239
N	-0.4020673998	-1.7909953611	 0.9453741625	-0.03589
C	-0.7453690002	-2.9679120553	 1.5155674178	 0.131142
O	-1.7994034967	-3.5401291915	 1.3322822213	-0.328108
C	 0.7760549994	-0.9368149182	 1.0373717108	-0.122461
C	 1.7965982929	-1.1384594444	-0.0973196358	-0.092595
O	 1.0292613085	-0.2993862655	-0.9933081543	-0.324948
H	 0.8221710711	 2.0328468548	 0.3596488834	 0.130714
H	-0.5805704368	 1.9329860357	-0.7164902322	 0.14032
H	-0.7995315419	 1.7395484913	 1.0329816277	 0.127675
H	-2.0687958995	-0.5225347175	 0.4732386069	 0.121496
H	-1.368823614	-1.3629575094	-0.9451446423	 0.133422
H	 0.0532548855	-3.3481571298	 2.1866397181	 0.066667
H	 1.1264594243	-0.6974421546	 2.042475764	 0.099242
H	 2.7843000139	-0.7043269062	 0.1038029193	 0.108894
H	 1.9109062261	-2.1622618022	-0.4685653349	 0.115294
