15
gdb 10258	2.22444	2.05769	1.11835	4.8004	67.05	-0.2863	0.0138	0.3001	1021.4613	0.115717	-362.635333	-362.62622	-362.625276	-362.669038	32.152	
C	-0.0665047544	 1.5651348871	-0.0436265887	-0.412895
C	 0.0032915189	 0.0408306951	-0.0391856387	 0.122328
O	 0.7882288248	-0.4547336751	-1.1099551856	-0.422011
C	 0.7044315741	-0.5099594745	 1.2366694597	-0.312617
C	 0.0729312686	-0.0545594253	 2.4745309103	 0.317863
C	-0.4501155782	 0.3238804967	 3.4862722181	-0.425066
C	 0.7546447195	-1.9814477998	 1.1970475559	 0.303637
N	 0.7857792339	-3.1354240162	 1.1829825577	-0.323395
H	 0.9399958979	 1.9929313965	 0.0010364051	 0.130033
H	-0.5419516091	 1.910076336	-0.9675921927	 0.115723
H	-0.6508770016	 1.9399461369	 0.7999595383	 0.140323
H	-1.0118260086	-0.3807704627	-0.0666889421	 0.099153
H	 0.3269720146	-0.2769473429	-1.9351205838	 0.29402
H	 1.7413274573	-0.1479983504	 1.1987884985	 0.162403
H	-0.9092631776	 0.6523780586	 4.386281538	 0.210501
