21
gdb 58892	3.07843	1.29216	1.09018	1.0611	77.49	-0.2266	0.0829	0.3096	1198.9815	0.181623	-424.209307	-424.200309	-424.199365	-424.24288	34.449	
C	-0.0908241663	 1.5687111774	 0.2720290345	-0.386071
C	 0.0451168222	 0.0529939433	 0.0553202623	-0.055868
C	 0.8821801331	-0.5933339599	 1.1656691128	-0.409131
C	-1.3187807806	-0.5827757223	-0.1043880822	 0.432701
C	-2.2451619538	-0.9954264467	 1.0307153903	-0.399226
C	-1.7208093263	-2.0150236955	 0.031849996	 0.016008
O	-2.5217848195	-2.3397279444	-1.0771904789	-0.257849
C	-2.9195247199	-1.1070766299	-1.6481708332	 0.006187
O	-1.9664249146	-0.1295089464	-1.2830590799	-0.305318
H	 0.8936518581	 2.0468060317	 0.2983085197	 0.106633
H	-0.6750740973	 2.0262231597	-0.5299636701	 0.132702
H	-0.5940377697	 1.7809886719	 1.222209351	 0.112505
H	 0.5610139978	-0.108980038	-0.9006458377	 0.086575
H	 0.434338567	-0.4337038157	 2.1525727902	 0.118622
H	 1.0034024598	-1.6705962347	 1.0147938638	 0.115823
H	 1.8809675954	-0.1472980795	 1.1871136483	 0.11879
H	-1.8222220349	-1.0418277179	 2.0284345722	 0.11923
H	-3.2890133152	-0.7033795386	 1.0010753743	 0.122699
H	-1.0758152981	-2.8320689707	 0.32814815	 0.112572
H	-2.9447444854	-1.2033416154	-2.7387408953	 0.119925
H	-3.9188762518	-0.8230642485	-1.2786765781	 0.092492
