17
gdb 96220	2.94663	1.36691	0.98041	3.2629	73.46	-0.2575	-0.0695	0.188	1158.9074	0.136335	-458.976962	-458.968975	-458.968031	-459.009566	30.231	
O	-0.0508258426	 1.4088450829	 0.0999954242	-0.439272
C	 0.0107135842	-0.0007268313	 0.0289482227	 0.007328
C	-1.4311053423	-0.5160571326	-0.0003103548	-0.101718
O	-1.4678881825	-1.9065566165	-0.2772404137	-0.246513
C	-1.0098941336	-2.2231750346	-1.571358096	-0.122491
C	 0.2417681817	-1.4959692706	-1.9536875476	-0.155177
C	 0.7279368189	-0.4844911367	-1.2210302681	 0.196791
C	 1.9737767466	 0.1734959565	-1.6322188654	 0.098006
O	 2.4882228343	 1.1039584876	-1.0414442878	-0.299087
H	 0.8591880926	 1.7247352322	 0.0039962776	 0.301242
H	 0.52176153	-0.4187925811	 0.912078216	 0.087397
H	-1.9136339515	-0.3752230322	 0.9687681694	 0.122798
H	-1.989251861	 0.0598733365	-0.7544230131	 0.103009
H	-0.8396827027	-3.3066674364	-1.5895207179	 0.133397
H	-1.7867586469	-2.0150396525	-2.3321339905	 0.116266
H	 0.7449194363	-1.8126717154	-2.8662899089	 0.11238
H	 2.4441324086	-0.2441286859	-2.548801706	 0.085644
