13
gdb 3657	3.63407	3.39087	1.77832	3.9418	56.56	-0.2104	-0.0001	0.2104	676.7214	0.102362	-340.629609	-340.622833	-340.621889	-340.660373	24.068	
C	 0.0472749461	 1.4981829129	 0.0383893119	-0.500834
C	-0.0717160112	 0.0165154228	 0.0514303498	 0.377954
C	-1.1332917016	-0.8420481719	 0.0095109582	 0.046907
N	-2.5102577321	-0.5699336098	 0.0020444799	-0.609414
C	-0.5194948241	-2.1256040107	 0.0747223294	 0.000014
N	 0.786496498	-2.0496634123	 0.1435485543	-0.142857
O	 1.0778159665	-0.697497442	 0.1403038615	-0.213562
H	 0.8906562535	 1.8114261692	-0.5840633107	 0.151647
H	-0.8616813747	 1.9527867016	-0.367435339	 0.125483
H	 0.2047962958	 1.9077858028	 1.0431809478	 0.149067
H	-2.7157789335	 0.3944386817	-0.226870335	 0.243144
H	-3.0220045099	-1.1713317689	-0.6319158239	 0.249148
H	-0.9956461728	-3.0965850254	 0.0700180059	 0.123302
