21
gdb 114745	2.54619	1.49712	1.20556	1.1691	77.68	-0.2406	0.0725	0.3132	1127.7407	0.183522	-424.212878	-424.204172	-424.203227	-424.246032	33.805	
C	-0.2265407146	 0.5501404509	 0.5686170221	-0.25024
O	 0.7571323234	-0.3633176661	 0.1168868108	-0.254254
C	 0.8667653279	-0.447253496	-1.303555096	 0.046413
C	 2.3362656057	-0.680320469	-1.7051274751	-0.236871
C	 2.5015572305	-2.1909098338	-1.8276837116	-0.034296
C	 2.0025161159	-3.0303512169	-0.6799756791	-0.301558
C	 1.1271417199	-2.8133246807	-1.8959094789	-0.060917
C	 0.0899246305	-1.7019099266	-1.8291062319	 0.121884
O	-1.0618174143	-1.9958247642	-1.0631826656	-0.434283
H	 0.0002572301	 1.5746254146	 0.2372488545	 0.107801
H	-1.2284326873	 0.2778220498	 0.2152651164	 0.126192
H	-0.2090439295	 0.5240091251	 1.6614775725	 0.124022
H	 0.4709401425	 0.4754963564	-1.7437794572	 0.069967
H	 2.528265745	-0.20946377	-2.6761576654	 0.099536
H	 3.0081940007	-0.219610802	-0.9744789377	 0.109699
H	 3.3176117752	-2.5709831145	-2.432137881	 0.079482
H	 2.4324346125	-4.0195062107	-0.5652953156	 0.107086
H	 1.7534142918	-2.536372701	 0.2525113628	 0.129115
H	 0.9169361301	-3.6624158483	-2.5362307766	 0.082308
H	-0.2795138476	-1.4965272959	-2.840281856	 0.085275
H	-0.7504163086	-2.106597761	-0.1566524913	 0.28364
