20
gdb 65104	2.9915	1.4445	1.18005	2.4372	78.55	-0.2327	0.0747	0.3075	1113.9367	0.170555	-403.084947	-403.076558	-403.075613	-403.117814	32.726	
C	-0.0602055416	 1.5331110142	-0.0192900532	-0.489864
C	-0.0233954471	 0.0217002879	-0.0444734929	 0.306922
C	 1.178890647	-0.6813202593	-0.5230082267	-0.229003
O	 0.9127569356	-0.576205837	 0.8758182082	-0.273083
C	-1.3360372267	-0.6871044769	-0.1145329632	 0.323592
C	-2.5473609374	-0.1518358207	-0.7722330749	-0.292863
N	-2.5518440303	-0.2396422483	 0.6989165401	-0.169248
C	-2.8102922183	-1.6903931117	 1.010953163	-0.151154
C	-1.5385763271	-2.1574767844	 0.2576138005	-0.325558
H	 0.9316802404	 1.9205897513	 0.2231296293	 0.128652
H	-0.3647657252	 1.940313559	-0.9886054204	 0.120997
H	-0.7698931463	 1.8787115165	 0.7379402263	 0.151553
H	 1.0943795933	-1.6841724916	-0.9406386358	 0.109862
H	 2.0272951091	-0.1016756282	-0.8858444506	 0.112493
H	-2.5305597739	 0.8709938945	-1.1336654001	 0.119876
H	-3.1850363466	-0.8223833399	-1.3468930423	 0.106468
H	-2.7683252874	-1.8516732883	 2.0893371986	 0.116958
H	-3.7741826177	-2.0471444386	 0.632626665	 0.102979
H	-1.6610372408	-2.8596815491	-0.5721133924	 0.097018
H	-0.759819809	-2.5189347995	 0.9291046114	 0.133402
