17
gdb 17081	6.96862	1.06552	1.01011	2.0896	74.64	-0.2281	0.0297	0.2578	1193.6168	0.142649	-363.842231	-363.834688	-363.833744	-363.87478	27.655	
C	-0.0348765763	 1.4337609777	 0.034615162	-0.269209
C	 1.3572856127	 0.8637042138	 0.015958677	-0.26917
C	 0.1644203095	-0.0647740342	 0.035601723	 0.045208
N	-0.0985462394	-0.747127695	 1.2613755778	-0.326028
C	-0.5714438212	-1.9043975029	 1.2426172641	 0.460753
C	-0.9725331121	-2.9192399925	 2.2908344729	-0.377029
C	-1.3418430834	-3.7848673685	 1.0682534327	-0.075388
O	-0.9176424779	-2.7179305405	 0.1688049284	-0.265755
H	-0.3851617062	 1.873494171	 0.9608463179	 0.119701
H	-0.4252996048	 1.8915215185	-0.8674445052	 0.110351
H	 1.9357771938	 0.9246766195	-0.8990905001	 0.110359
H	 1.9365058983	 0.9228318905	 0.929728196	 0.119698
H	-0.0642625103	-0.5931412349	-0.8867619866	 0.098116
H	-0.1534060839	-3.2893348513	 2.9099301052	 0.137285
H	-1.8026174991	-2.6156447864	 2.9311548921	 0.137291
H	-0.7438986166	-4.686727479	 0.9151903743	 0.12191
H	-2.4033449931	-4.008908806	 0.9365872585	 0.121908
