21
gdb 105898	2.0865	1.74928	1.16921	1.992	81.79	-0.2267	0.0751	0.3018	1150.8993	0.181238	-387.006334	-386.997631	-386.996686	-387.03957	33.601	
C	-0.1170399656	 1.5273620286	 0.0327705224	-0.38013
C	 0.0609232646	 0.0046881856	-0.024688015	-0.32699
C	 0.803339076	-0.4618934112	-1.2471298397	 0.328923
C	 2.2482597563	-0.1581925462	-1.7332455825	-0.071705
C	 3.4226311539	-0.6256046621	-0.8844619019	-0.417379
C	 1.7008065318	-1.0964763218	-2.8341684616	-0.106382
C	 0.8513118957	-1.9232255182	-1.82060668	 0.025159
O	-0.3964750353	-1.7967766572	-2.5672424761	-0.335227
C	 0.2658809313	-0.5053214885	-2.7198197339	 0.042496
H	 0.8495143425	 2.0420704706	 0.0454548056	 0.117687
H	-0.6758900038	 1.8917786688	-0.8355363277	 0.118475
H	-0.6652245302	 1.8253197009	 0.9314500569	 0.115316
H	 0.5895758276	-0.3397334074	 0.8738464188	 0.09963
H	-0.9193153597	-0.4883742533	-0.0173629332	 0.115141
H	 2.3974692969	 0.8757466876	-2.067760261	 0.067049
H	 3.2902590513	-1.6588398308	-0.5451524168	 0.11356
H	 4.3605260566	-0.5802084877	-1.4486965009	 0.118071
H	 3.5447633687	 0.0026304839	 0.0048711455	 0.117508
H	 2.1796119481	-1.4705448315	-3.7394740748	 0.07809
H	 1.0608707807	-2.8712407876	-1.3257502952	 0.090978
H	-0.2211410275	 0.2676798276	-3.3147762587	 0.08973
