20
gdb 81531	3.22445	1.31821	1.09588	3.6978	80.56	-0.2322	-0.0261	0.2061	1168.5678	0.169368	-403.06871	-403.059707	-403.058763	-403.102379	33.869	
C	-0.081787968	 1.6343956036	 0.4507794279	-0.449501
C	 0.0679626881	 0.1452168878	 0.1950937836	 0.099125
C	 0.8132873859	-0.4522997487	-1.0271391365	-0.141811
C	 2.0962067092	-0.0105907358	-0.2934221775	-0.189693
N	 1.2559969543	-0.6081110697	 0.8604783976	-0.183081
C	 0.9285461405	-1.7433606662	-0.1417247257	 0.284647
C	-0.2842087386	-2.6335131449	 0.1586980311	-0.497303
C	 2.0693271021	-2.7007152345	-0.4427520379	 0.085692
O	 3.0787851947	-2.8400646271	 0.1959300297	-0.240882
H	 0.7657625688	 2.2441535945	 0.1339419432	 0.124275
H	-0.9691562435	 2.0023662492	-0.0755122959	 0.121428
H	-0.2378698254	 1.8051420787	 1.5211885292	 0.136466
H	-0.8811415707	-0.3277319256	 0.4477439495	 0.072446
H	 0.5619483733	-0.3850639788	-2.0929177988	 0.064969
H	 3.026218769	-0.5426852813	-0.4797631724	 0.128233
H	 2.288268513	 1.0544610707	-0.1852826407	 0.102904
H	-1.2446053189	-2.157925685	-0.0427226563	 0.13273
H	-0.2458660234	-3.5437518043	-0.4495262447	 0.124521
H	-0.259747349	-2.9371086305	 1.2100551861	 0.151345
H	 1.8637040185	-3.3379099622	-1.3374146017	 0.073487
