17
gdb 66416	2.38521	1.30216	1.15764	3.399	75.2	-0.2511	-0.0368	0.2143	1144.4951	0.133815	-421.830149	-421.821461	-421.820517	-421.863799	31.688	
C	 0.0088457043	 1.5884886196	 0.0195280667	-0.497271
C	 0.0712290139	 0.0883220043	 0.0077443848	 0.187557
C	 0.5634981408	-0.9474913862	-1.0278064679	-0.117569
C	 1.1867056623	-1.8339774854	 0.0594349642	-0.366659
C	 0.6984617817	-0.7699391887	 1.0800615626	 0.350691
O	 0.9347454236	-0.5743530659	 2.2377408158	-0.303971
C	-0.9142505705	-0.7616390161	-0.8205227254	-0.151102
C	-1.8337196384	-1.7623705077	-0.2124716928	 0.148591
O	-2.9614027579	-1.9397799847	-0.6014633203	-0.258431
H	 0.9682138313	 2.0134315684	 0.3307998607	 0.138535
H	-0.2382285967	 1.9825989535	-0.9705461735	 0.129364
H	-0.7540025513	 1.9393756995	 0.7217122222	 0.147009
H	 1.010575061	-0.7366840687	-1.9908569389	 0.116388
H	 0.8374341359	-2.8639892692	 0.1580140171	 0.130391
H	 2.2806000553	-1.8332580867	 0.0335621518	 0.140102
H	-1.4049129903	-0.1797574263	-1.5966999733	 0.118436
H	-1.4299108651	-2.3364241396	 0.6487814961	 0.08794
