19
gdb 37994	3.55188	1.59203	1.26543	0.3958	88.49	-0.1999	-0.0107	0.1892	1018.7772	0.16282	-348.761928	-348.755276	-348.754332	-348.792642	28.261	
C	 0.0851349188	 1.5525002781	 0.0900955322	-0.28182
C	 1.3805770541	 0.7585126205	-0.0309732266	-0.061594
C	 2.022858087	 0.4540212015	 1.2844262134	-0.261571
C	 1.2171886517	-0.3251915644	 2.0204986023	 0.324876
C	 0.9925489366	-0.6559013891	 3.417948446	-0.18391
C	-0.3109089297	-0.9407226409	 3.5993167889	-0.072275
C	-1.1170031572	-0.7973282732	 2.3171359098	-0.299483
C	-0.0012761975	-0.801100265	 1.2410428361	-0.044864
C	 0.0202249213	 0.0525351945	-0.0146337227	-0.082077
H	-0.117126042	 2.0352752682	 1.040500211	 0.110827
H	-0.2439011286	 2.1096399076	-0.7814968281	 0.106704
H	 1.9684272099	 0.8626125493	-0.9367224552	 0.082981
H	 2.9354930223	 0.9331087201	 1.6198242933	 0.08968
H	 1.7426100357	-0.6125147865	 4.198380873	 0.098466
H	-0.7675811983	-1.1800234845	 4.5535703262	 0.095419
H	-1.8621932166	-1.5878604228	 2.1823270056	 0.101054
H	-1.6621383897	 0.1582334409	 2.3190242974	 0.111909
H	 0.1648512607	-1.8499641318	 0.9537332132	 0.084562
H	-0.3789224285	-0.3624887524	-0.932649106	 0.081118
