18
gdb 14142	4.39452	1.54638	1.33858	1.8951	74.49	-0.2369	0.0139	0.2508	975.7916	0.153758	-347.807124	-347.7994	-347.798456	-347.839791	28.983	
C	-0.0988155511	 1.5524046592	 0.0041994518	-0.420541
C	-0.0877711356	 0.0500009629	 0.1240687708	-0.002608
O	 1.1321343081	-0.6234497854	-0.2025946386	-0.305274
C	 0.6651605158	-0.6791109635	 1.1620900517	 0.417845
C	 1.521041206	-0.0244910404	 2.2562094587	-0.313952
C	 1.5179311943	-1.0297578756	 3.4414008695	-0.270898
C	 0.7138239302	-2.2002049748	 2.9281582471	-0.072543
C	 0.2518782252	-2.0033544598	 1.694343626	-0.13642
H	 0.8060674999	 1.9920623663	 0.4299558738	 0.126554
H	-0.1579009362	 1.8495718915	-1.0482768818	 0.128329
H	-0.969629949	 1.9725550222	 0.5196967059	 0.119647
H	-0.9775298288	-0.4413793563	-0.278990494	 0.079755
H	 2.5285814296	 0.1427422918	 1.8675006829	 0.123257
H	 1.1239207654	 0.9492322756	 2.5548685272	 0.107621
H	 2.52957217	-1.3339976283	 3.7362636247	 0.112055
H	 1.0597126021	-0.5977656326	 4.3397746791	 0.110298
H	 0.5426518263	-3.0893296401	 3.5251162203	 0.097946
H	-0.3446216623	-2.6943047925	 1.1105472148	 0.09893
