17
gdb 47377	2.91884	1.24631	0.92051	3.7635	75.69	-0.2348	0.0236	0.2584	1229.8123	0.137468	-418.00019	-417.991892	-417.990947	-418.033324	31.502	
O	-0.0204221896	-0.0805821283	 0.0893967106	-0.372146
C	-0.0328441461	 1.1344593462	 0.0574808873	 0.417476
C	-1.3393335738	 1.9220533699	 0.1016499071	-0.276602
N	-1.1393577037	 3.3221694237	 0.4627905088	-0.311617
C	-0.1375222527	 3.947508044	-0.3851018691	-0.172189
C	 1.2227358657	 3.3297757319	-0.0223007942	-0.123472
N	 1.1107169216	 1.871331455	-0.0804305602	-0.317794
C	 2.2880220089	 3.7973847167	-0.9072260064	 0.315827
C	 3.1698227631	 4.1853628596	-1.6247850468	-0.440921
H	-1.8092324081	 1.7843755379	-0.8901669575	 0.113727
H	-1.9826873843	 1.4307283496	 0.8351891252	 0.137366
H	-2.0168571989	 3.8263089952	 0.4115092603	 0.229675
H	-0.3142285476	 3.8048208357	-1.4662465361	 0.100058
H	-0.1003468962	 5.0210228149	-0.1854723952	 0.119899
H	 1.4571746451	 3.6429485145	 1.0060664459	 0.122632
H	 1.9643155885	 1.3312824238	-0.091030699	 0.252788
H	 3.949844688	 4.5280306197	-2.2593139907	 0.205291
