15
gdb 44859	3.40253	1.67636	1.49502	2.1313	62.94	-0.2435	-0.03	0.2135	879.9315	0.114108	-457.753815	-457.74761	-457.746666	-457.784394	25.248	
O	 0.0131197265	 0.0256767978	 0.0720466244	-0.307724
C	-0.0142377361	 1.2231004949	 0.0275433705	 0.425673
C	-1.2532305619	 2.1521794229	 0.0047213168	-0.348711
C	-0.5532346457	 3.5264230045	 0.0489699415	 0.014924
O	 0.6155656317	 3.2880484456	-0.7533749331	-0.24112
C	 1.1761159491	 2.2129746628	-0.0017914102	-0.09445
C	 1.2105976758	 2.7821496772	 1.4299535652	 0.020235
O	 1.3645129689	 4.1994631132	 1.471118588	-0.230486
C	 0.0418626196	 3.6700633735	 1.4594967623	 0.032332
H	-1.808376065	 2.0126502286	-0.9269252845	 0.14455
H	-1.9196891256	 1.9312804627	 0.8429858238	 0.132331
H	-1.1022177452	 4.375824131	-0.3539903163	 0.101946
H	 2.0995666701	 1.850774575	-0.4470910645	 0.111458
H	 1.5787980405	 2.206451856	 2.2718249578	 0.124634
H	-0.5781395328	 3.8437089545	 2.3331582184	 0.11441
