16
gdb 126102	6.87318	0.6574	0.6045	5.2628	86.24	-0.2369	-0.0274	0.2095	1793.9947	0.125424	-396.912948	-396.904391	-396.903447	-396.947913	30.047	
C	 0.0721975123	 1.5414271227	 0.0090621811	-0.367536
C	-0.0045832133	 0.0032078984	 0.0028957701	-0.328811
C	-1.3733889512	-0.4969741817	 0.0128218083	 0.153439
C	-2.5162114937	-0.8862671486	 0.0209917067	 0.004438
C	-3.844356674	-1.3491300568	 0.0303347336	 0.248981
C	-5.0742633587	-0.7128655001	 0.0423824843	-0.220717
N	-6.0586057837	-1.6474485636	 0.0474199981	-0.172717
N	-5.5229975916	-2.8363660665	 0.0393546064	-0.10993
N	-4.1913659611	-2.6682923887	 0.0291059322	-0.284927
H	 1.1164725301	 1.8658279788	 0.0012103474	 0.12201
H	-0.4262334803	 1.9591633596	-0.869450977	 0.13437
H	-0.4104902868	 1.9513049609	 0.899981878	 0.13437
H	 0.5164704254	-0.3888516165	-0.8802247507	 0.137855
H	 0.5320143911	-0.3966720823	 0.8731070359	 0.137843
H	-5.28465232	 0.3436193095	 0.0474368055	 0.127689
H	-3.5815506044	-3.4708038751	 0.0216586401	 0.283644
