13
gdb 4608	5.70973	1.63264	1.2714	3.3692	67.49	-0.2002	-0.0657	0.1345	886.6245	0.097088	-394.794407	-394.787627	-394.786683	-394.825308	25.671	
N	 0.0615466088	 1.4363646584	 0.1033518779	-0.574104
C	-0.0418995358	 0.052196994	-0.0465480755	 0.275744
C	-1.1984525712	-0.6382522456	-0.1040853204	-0.029899
O	-1.2235054822	-1.9891816829	-0.3369730598	-0.223468
C	-0.0488568043	-2.6780301524	-0.5125761131	 0.360252
N	-0.0052925291	-3.9286972735	-0.7384106242	-0.532796
C	 1.1633009188	-1.8641360153	-0.4133228165	-0.015364
N	 1.1796409245	-0.5979091565	-0.1999135834	-0.261992
H	 0.9517478109	 1.6970053386	 0.5061471759	 0.255905
H	-0.7096902254	 1.8710385035	 0.5898822976	 0.248357
H	-2.1921738629	-0.2285211337	 0.0113210146	 0.126648
H	-0.9447751946	-4.3268920437	-0.7712645837	 0.224956
H	 2.1028176225	-2.3981512109	-0.5304703594	 0.145762
