17
gdb 110894	2.90372	1.52953	1.20834	2.7849	68.52	-0.2218	-0.0294	0.1924	1053.0302	0.135529	-458.929648	-458.921728	-458.920783	-458.962355	29.503	
C	-0.1126841248	 1.3459554704	-0.0665962067	-0.248159
O	 0.154659642	-0.042334617	 0.0515386858	-0.252843
C	 0.7203608175	-0.6073378972	-1.097809579	 0.055062
C	 1.0532896692	-2.0889819672	-0.8740777521	 0.031468
C	 1.3192615043	-2.6289564068	-2.2975890799	-0.256495
C	-0.2105206342	-2.3951964942	-2.3542789883	-0.03125
O	-0.2752861736	-2.7151805614	-0.9263880695	-0.290246
C	-0.2999975794	-0.8650181641	-2.2590185408	 0.411645
O	-0.9938422954	-0.0857974914	-2.850631864	-0.325283
H	 0.8109033284	 1.912161043	-0.2649056782	 0.10347
H	-0.8321085151	 1.5555562414	-0.8655579506	 0.142484
H	-0.5268335686	 1.6670703845	 0.8914864889	 0.130194
H	 1.582352919	-0.0189507463	-1.4528151113	 0.08202
H	 1.6388068451	-2.3567644333	 0.0034391186	 0.100658
H	 1.9751392939	-2.0722945488	-2.9728016195	 0.112299
H	 1.5584026474	-3.6926179801	-2.2917940903	 0.130012
H	-0.9105637857	-2.9336022516	-2.9895584228	 0.104964
