21
gdb 112706	2.35889	1.28548	1.10131	3.6188	74.56	-0.2397	0.0594	0.2991	1223.4642	0.182143	-461.36802	-461.358486	-461.357542	-461.402403	35.813	
C	 0.0617163757	 1.4114882288	-0.4192182279	-0.401977
C	 0.0308685063	-0.057464243	-0.0341576844	 0.149971
O	 0.4825201399	-0.848694644	-1.1380806274	-0.30741
C	 1.156464479	-2.0319178217	-0.676398774	 0.121127
C	 2.5583936821	-2.0221408386	-1.28648083	-0.064166
O	 2.4976067968	-1.8846664945	-2.6909098468	-0.426747
C	 1.1343961262	-1.9636841874	 0.8621692667	-0.3008
C	 0.9191824289	-0.4681990179	 1.1487810689	 0.096763
O	 2.1274195859	 0.278275108	 1.0909938012	-0.42621
H	 1.0853706391	 1.7304869063	-0.6205833976	 0.141109
H	-0.5471959664	 1.5739681064	-1.3125389589	 0.121287
H	-0.3437991791	 2.0263434188	 0.390271768	 0.113016
H	-1.0031520414	-0.3504848995	 0.2137077297	 0.067046
H	 0.6093190162	-2.9041951853	-1.0562604319	 0.078161
H	 3.1361992047	-1.2093887687	-0.8207236065	 0.092504
H	 3.0653952304	-2.9713694099	-1.0767974213	 0.095162
H	 1.9176586462	-1.128860446	-2.8469387439	 0.288614
H	 0.3006349393	-2.5451878519	 1.2673953297	 0.108632
H	 2.0550588087	-2.3429587502	 1.3169389551	 0.098764
H	 0.4052986077	-0.2980901783	 2.1049401275	 0.068902
H	 2.7087274736	-0.0400428411	 1.7882234936	 0.286252
