15
gdb 48745	4.50599	1.24158	1.16006	3.5294	66.27	-0.258	-0.0532	0.2048	1040.1929	0.11136	-457.685874	-457.678689	-457.677745	-457.717787	26.993	
O	-0.1988362195	 0.2916414366	-0.8380879651	-0.247416
C	 0.0238858517	 1.069096518	 0.0541019655	 0.051342
C	 1.2517198281	 1.8911211373	 0.1690285131	 0.303243
O	 2.0864368271	 2.0730619432	-0.9708007342	-0.233597
C	 2.6839070215	 1.4323966206	 0.1332524761	-0.040327
C	 3.063470195	 2.5166444967	 1.1892715761	 0.093305
O	 3.5286884595	 3.7606227455	 0.6591094821	-0.280109
C	 2.1814150356	 4.3079920866	 0.6375973581	-0.084279
C	 1.5948939851	 2.9941188822	 1.2034462561	-0.195988
H	-0.6860612484	 1.2154129589	 0.8991396645	 0.07996
H	 3.0833793042	 0.4358528094	-0.0245631746	 0.12858
H	 3.6125138225	 2.1609693042	 2.0641370252	 0.093012
H	 2.0981623022	 5.1659075417	 1.3134113951	 0.108573
H	 1.867506524	 4.5866574817	-0.3717450814	 0.125696
H	 0.9928053316	 3.0160824275	 2.1096675535	 0.098003
