16
gdb 42791	2.5202	1.68817	1.42712	4.4744	69.51	-0.246	-0.0257	0.2203	957.6107	0.126843	-437.931683	-437.924547	-437.923603	-437.963341	27.709	
O	 0.0183095911	 0.0316053672	 0.0020732232	-0.312088
C	-0.0117512351	 1.2250405046	-0.017309519	 0.434208
C	-1.1216922996	 2.2889885169	 0.0668672391	-0.151608
C	-0.0582317211	 3.1585824692	 0.8064593898	-0.248585
C	 1.0396825262	 2.3477322162	 0.0439374012	-0.246972
C	 1.1589910982	 2.9292958073	-1.3733386436	 0.407072
O	 2.214469857	 3.1659928324	-1.9166075474	-0.368028
N	-0.0622297942	 3.1668935657	-1.9525992143	-0.308173
C	-1.3502640467	 2.8525574307	-1.3447063192	-0.171416
H	-2.0644256604	 2.0355971105	 0.5522778552	 0.099986
H	-0.0859303781	 4.2332567011	 0.6165346257	 0.121194
H	-0.0384962926	 2.9647246164	 1.8799200664	 0.125653
H	 2.0264633499	 2.1723063716	 0.4651079301	 0.113288
H	-0.0347508439	 3.5733610821	-2.8755762601	 0.255422
H	-1.8922128147	 2.1130824554	-1.9481680622	 0.130413
H	-1.9705469961	 3.7567723429	-1.2874634247	 0.119633
