21
gdb 121047	4.18742	0.7963	0.69878	2.5009	80.09	-0.2366	-0.0163	0.2203	1639.8301	0.181391	-424.259921	-424.250432	-424.249487	-424.295149	34.644	
C	-0.0372934868	 1.4903582896	 0.0851463973	-0.384495
C	-0.0387691204	-0.0096666474	-0.1557865825	-0.041981
O	-1.3335204802	-0.5066604397	 0.133163713	-0.253876
C	-1.4639440547	-1.9041200284	 0.0205859468	 0.136263
C	-2.8228174985	-2.331921017	 0.6038714857	-0.247457
C	-3.0839639324	-3.718311358	 0.0014522097	-0.322607
C	-2.3639003253	-3.7048294843	-1.353477253	 0.398915
O	-2.4632429973	-4.5424040041	-2.2112005056	-0.310412
C	-1.4903902244	-2.4476979135	-1.4215125391	-0.344512
H	 0.950758472	 1.9095064081	-0.1269901134	 0.115913
H	-0.7692658562	 1.9829443006	-0.5611684083	 0.127386
H	-0.2946524726	 1.7123622541	 1.12461795	 0.126976
H	 0.2372027249	-0.2300172917	-1.1991633947	 0.09093
H	 0.7068614866	-0.5067870027	 0.4874253327	 0.086939
H	-0.6500867454	-2.3984097618	 0.5791596518	 0.068061
H	-2.8258885821	-2.3146961587	 1.6956269462	 0.108575
H	-3.5735557187	-1.6120212066	 0.2593558251	 0.117751
H	-2.6263229404	-4.5146415388	 0.6033323017	 0.132482
H	-4.137798628	-3.9803208407	-0.1180882286	 0.13197
H	-2.0009434923	-1.717855476	-2.0649722509	 0.137596
H	-0.5201323179	-2.666556623	-1.871735784	 0.125585
