18
gdb 64396	2.2256	1.55331	1.14868	3.4014	71.53	-0.2669	0.0269	0.2938	1106.5916	0.147289	-439.101496	-439.092635	-439.091691	-439.13538	33.077	
C	-0.0875934328	 1.5753417968	-0.1449876127	-0.455368
C	 0.0112698631	 0.0572042533	-0.0225134149	 0.353772
O	-1.2829044277	-0.5274546641	 0.1014442525	-0.467433
C	 0.8059088543	-0.5937697367	-1.1824367618	-0.113567
O	 1.411733884	-1.7545735035	-0.6471842976	-0.234899
C	 1.9137680435	-1.3688279424	 0.6134838328	-0.103226
C	 0.7957365126	-0.4796285811	 1.2308418389	-0.188284
C	 1.3125366305	 0.5383668618	 2.1322377355	 0.272307
N	 1.7441811163	 1.3398953531	 2.8448928962	-0.339065
H	 0.8975343328	 2.0488569797	-0.1433843216	 0.139543
H	-0.5855418792	 1.8422938777	-1.0850510492	 0.110947
H	-0.6691453686	 1.9891488024	 0.6822139271	 0.145946
H	-1.8324413702	-0.1946281524	-0.616495379	 0.282567
H	 0.155419923	-0.8920664464	-2.0082029997	 0.110431
H	 1.5702439392	 0.1055482752	-1.5605664763	 0.091622
H	 2.1164818799	-2.2667865233	 1.1993120445	 0.132232
H	 2.8445676925	-0.7891466266	 0.5136006689	 0.110137
H	 0.0877904466	-1.1043442732	 1.7807035265	 0.152338
