17
gdb 19709	5.2989	1.80894	1.62555	1.1662	67.65	-0.232	0.0746	0.3066	819.9476	0.14452	-363.797665	-363.791409	-363.790465	-363.827662	25.567	
O	-0.0061912521	 1.4509102751	-0.1059061736	-0.438062
C	 0.0221414616	 0.0518629232	-0.0084280984	 0.137734
C	-0.0515356333	-0.6204374219	 1.383775632	-0.08342
C	-1.5223081433	-0.1245432372	 1.5576967331	-0.002104
C	-2.2763436024	-1.2116674852	 2.3136389107	-0.265265
C	-1.6012762104	-2.4388638393	 1.6410255302	-0.157566
N	-0.6410019074	-1.8409659602	 0.6799393102	-0.137914
C	-1.3498854171	-0.6228438216	 0.0862765652	-0.055748
H	 0.8979026682	 1.7742277347	-0.0496080893	 0.287746
H	 0.7219434063	-0.4147940413	-0.7099244738	 0.080745
H	 0.7236290374	-0.7284946133	 2.1469064397	 0.06988
H	-1.7338742646	 0.9235590518	 1.7651914012	 0.081305
H	-2.1063616366	-1.1653930508	 3.3939750481	 0.098828
H	-3.3567010564	-1.1675189854	 2.1435781861	 0.100134
H	-1.0545144057	-3.071119604	 2.3466584955	 0.103385
H	-2.3053366957	-3.0740624883	 1.0955495334	 0.104225
H	-2.1126004786	-0.7307312864	-0.6880624104	 0.076099
