15
gdb 73776	2.42094	1.72844	1.01501	4.5282	74.3	-0.2339	-0.0618	0.172	1102.8971	0.112629	-454.025601	-454.016882	-454.015937	-454.059351	31.364	
C	 0.022748893	 1.5467246192	 0.0015632932	-0.52952
C	-0.0330198985	 0.0532791875	-0.007473994	 0.045923
C	-1.101100104	-0.7847092266	-0.0236937642	 0.214463
N	-2.4302064276	-0.56806044	-0.0592804244	-0.604727
C	-0.5972505287	-2.1789593661	-0.0230136242	 0.39393
N	-1.3408254714	-3.1999498795	-0.0159041313	-0.546797
O	 0.7628352895	-2.147477225	-0.0205200285	-0.242042
C	 1.1648911668	-0.7795197466	-0.0069898811	 0.381624
O	 2.3258170705	-0.4955909618	 0.003121095	-0.33181
H	 1.0650156083	 1.8726135038	 0.0248125683	 0.161561
H	-0.4476143006	 1.9788361468	-0.8899477738	 0.132915
H	-0.4828261769	 1.9710525907	 0.8778178638	 0.128028
H	-2.8127441584	 0.3458940915	 0.1063386081	 0.269916
H	-3.0302367448	-1.3707561939	 0.0498192463	 0.284022
H	-0.7955722575	-4.06253437	-0.0103275734	 0.242512
