16
gdb 46647	2.4336	1.55811	1.41283	2.2104	74.54	-0.2424	-0.0308	0.2116	995.9984	0.123992	-400.710649	-400.702892	-400.701948	-400.742997	29.847	
O	 0.077321735	 0.0190625271	 0.1853440058	-0.314536
C	-0.025964179	 1.1981058666	-0.0302013034	 0.426929
C	-1.2994422416	 1.9544832099	-0.4275939576	-0.352811
C	-0.8025686298	 3.3207201496	-0.937860206	-0.16619
N	 0.6479219242	 3.4649391457	-0.6118471818	-0.119581
C	 0.9510023343	 3.417438962	 0.8279892551	-0.197877
C	-0.0493788045	 3.551077641	 1.8496175644	 0.352336
C	-0.8612754281	 3.7238870702	 2.7203985049	-0.454533
C	 1.1040275529	 2.1908055573	-0.0385523605	-0.172535
H	-1.8342795245	 1.3812514276	-1.1883594373	 0.137048
H	-1.9492691984	 2.0282130695	 0.4486570596	 0.149497
H	-0.876898959	 3.3859017306	-2.0260950206	 0.122678
H	-1.3492806223	 4.164100745	-0.5104905114	 0.127954
H	 1.8834338665	 3.9252668022	 1.0657702348	 0.132587
H	-1.5754297196	 3.8633773089	 3.4944439727	 0.209245
H	 2.1009220239	 1.8320071069	-0.2728198088	 0.11979
