15
gdb 15325	3.17268	1.30096	0.98289	1.437	77.06	-0.2358	0.025	0.2608	1183.5669	0.116536	-325.434897	-325.426093	-325.425148	-325.470222	30.588	
C	 0.1503175493	 1.5208067537	 0.0159239799	-0.500989
C	 0.0867552541	 0.0675471925	 0.0144753867	 0.127575
C	 0.0242220175	-1.1347081372	 0.0268720574	 0.123735
C	-0.0297034405	-2.5676868183	 0.0013890377	-0.260718
N	-0.4924659888	-3.2708420487	 1.2145199895	-0.31666
C	-1.3319319622	-3.3348722364	 0.0022361449	-0.246286
C	-2.6099768056	-2.6834682812	 0.0332970953	 0.389422
C	-3.6911503927	-2.1590817346	 0.0208256172	-0.429548
H	 1.1858873849	 1.8746946951	-0.0360617323	 0.148499
H	-0.3896313841	 1.9438601081	-0.8383968573	 0.150058
H	-0.2961608248	 1.9320358034	 0.9278401183	 0.154246
H	 0.7664293315	-3.043779444	-0.5690526353	 0.110411
H	 0.018309528	-4.1447426227	 1.3174349716	 0.23921
H	-1.313784561	-4.2620367829	-0.5679177584	 0.113643
H	-4.6421570556	-1.6870098467	 0.0229092747	 0.197402
