17
gdb 43293	2.99098	1.79236	1.3729	3.3087	78.9	-0.2323	-0.0528	0.1795	947.8344	0.138274	-384.637919	-384.631456	-384.630511	-384.668554	26.881	
O	 0.0192952866	 0.0427473219	 0.3583143178	-0.323926
C	-0.0017684807	 1.2133635526	 0.0698804224	 0.262825
C	-1.2306420228	 2.0887211687	-0.0769056048	-0.150578
C	-0.949826428	 3.3029349867	-0.5872713271	-0.156682
C	 0.4999466315	 3.3543734139	-1.0039334864	-0.013824
C	 1.8030979928	 3.9568224975	-0.3603500843	-0.094621
C	 1.4080997854	 3.2767994994	 0.9629815574	-0.234129
C	 1.1114773155	 2.2124602388	-0.1689016075	 0.204533
C	 2.5025239888	 2.595521178	-0.7597248892	-0.312335
H	-2.2100364243	 1.7190180594	 0.2040674597	 0.118927
H	-1.6867186307	 4.0744499238	-0.7887354399	 0.11188
H	 0.5785146441	 3.2304422514	-2.091522463	 0.090312
H	 2.215226488	 4.9581319669	-0.4968296285	 0.078328
H	 2.2196856256	 3.0158231527	 1.6454744859	 0.102267
H	 0.542788439	 3.6740507219	 1.4942701443	 0.105651
H	 2.6469445151	 2.4050565321	-1.8255476475	 0.104726
H	 3.3852242539	 2.3250419643	-0.1767917793	 0.106647
