17
gdb 109366	2.62939	1.49748	0.99609	2.0439	72.73	-0.2296	-0.0409	0.1887	1171.7718	0.137417	-455.190833	-455.182321	-455.181377	-455.224243	30.845	
C	 0.0022821019	 1.4183211465	 0.0861635582	-0.314297
N	 0.1817045145	-0.0142523482	 0.0036437341	-0.327906
C	 0.6797750936	-0.6056998285	-1.1103268679	 0.238768
N	 1.130772425	 0.0574325114	-2.1127829771	-0.327122
C	 1.6717457907	-0.7350862023	-3.2053861023	-0.16625
C	 2.2633812804	-2.04758208	-2.7278358464	-0.092962
O	 1.2967368905	-2.7991213302	-1.9587054862	-0.227217
C	 0.5894756689	-2.1223313273	-1.0456672351	 0.410565
O	-0.1195275615	-2.6918004481	-0.2548432244	-0.348895
H	 0.9439272252	 1.9227906989	-0.1475225697	 0.147673
H	-0.751259521	 1.7836033866	-0.6240820702	 0.131042
H	-0.3034698944	 1.6809279652	 1.1006276466	 0.125674
H	-0.3347564244	-0.6284611495	 0.6139955152	 0.266293
H	 0.888763884	-0.9245915726	-3.9550182417	 0.117103
H	 2.4536633642	-0.1587757856	-3.713715478	 0.116511
H	 2.5527803442	-2.7051931613	-3.5500971143	 0.128534
H	 3.1403257683	-1.8670241649	-2.0940574407	 0.122486
