20
gdb 121657	6.12354	0.60747	0.5823	1.7901	78.14	-0.2567	-0.0255	0.2312	1928.9569	0.169246	-440.265168	-440.255058	-440.254114	-440.301771	34.733	
C	 0.1138927873	 1.4286994444	 0.1067499721	-0.229029
O	 0.2586034466	 0.028505727	 0.1245164532	-0.235698
C	 0.5596482765	-0.5042416618	-1.1465377	-0.054254
C	 0.6940445916	-2.0117634032	-0.9953513989	-0.325836
C	 1.0337778487	-2.7189740816	-2.2893305092	 0.379455
O	 1.2672893007	-2.1205665232	-3.3221082635	-0.339544
C	 1.0732408994	-4.2157233886	-2.250637028	-0.101891
C	 0.3322698988	-4.9216407518	-3.3476803573	-0.216522
N	 1.7871069326	-4.8993130776	-3.3388261602	-0.303062
H	 1.0357040388	 1.9306271094	-0.2273052509	 0.106133
H	-0.7068485962	 1.7463808943	-0.5557758273	 0.105307
H	-0.1123476805	 1.7475960606	 1.12708056	 0.127065
H	-0.2326469785	-0.2626544957	-1.8728895873	 0.099438
H	 1.4932368992	-0.0771030921	-1.5437786363	 0.104722
H	 1.4722048186	-2.2468818698	-0.2563453238	 0.140306
H	-0.2307647225	-2.4394934904	-0.5862104178	 0.135627
H	 1.1413140496	-4.6839714419	-1.2731582383	 0.100243
H	-0.1245846243	-5.8834145967	-3.1333468586	 0.127441
H	-0.1939687475	-4.2947814052	-4.0620956279	 0.131774
H	 2.1010195112	-4.1693481062	-3.9804074701	 0.248325
