18
gdb 78019	2.80653	1.30522	1.05971	4.2262	75.39	-0.216	-0.0264	0.1896	1167.287	0.145855	-439.037379	-439.028457	-439.027513	-439.070827	32.919	
C	-0.2748254607	 1.4845242947	 0.0301616682	-0.330406
N	 0.1439192097	 0.0930540211	 0.0253150959	-0.063748
C	 1.2379736957	-0.3549701609	-0.8743303274	-0.242301
C	 1.9172831939	-1.079793449	 0.2885603334	 0.18524
C	 2.4044928247	-2.4638226172	 0.2590285109	 0.062899
O	 2.4071300838	-3.1641695261	-0.7258109983	-0.267866
C	 2.2229566521	-0.1094990724	 1.3954935107	 0.036763
O	 2.7809895205	 1.1216079901	 1.0473823753	-0.417571
C	 0.7843582681	-0.4687633701	 1.1976095486	-0.122071
H	 0.554071235	 2.2002244436	 0.1424462141	 0.102519
H	-0.7962166015	 1.7068977514	-0.9068024473	 0.126953
H	-0.9858597837	 1.6407753592	 0.8485119346	 0.119933
H	 0.8862692106	-1.0347344706	-1.6540243583	 0.130933
H	 1.8357662369	 0.4499279881	-1.3154124256	 0.116815
H	 2.780580892	-2.8424842712	 1.2375578855	 0.065919
H	 2.6733536159	-0.5922374515	 2.2670808281	 0.098731
H	 2.5048684523	 1.7711184771	 1.7028000178	 0.292908
H	 0.1971739048	-0.9573042864	 1.9712914638	 0.10435
