17
gdb 84627	2.78542	1.60784	1.40819	4.3403	73.97	-0.2105	-0.0195	0.1909	987.0067	0.137461	-418.001425	-417.99383	-417.992886	-418.03353	28.992	
C	-0.0848261521	 1.3735006814	 0.0515389817	-0.341317
N	 0.3573553185	-0.0090347931	 0.0214970373	-0.036232
C	 0.1727804916	-0.7901701227	-1.0980996922	 0.064975
N	 0.0682886682	-2.0669999887	-1.0932437719	-0.270688
C	 0.0206171571	-2.6761396156	 0.2572983521	-0.109242
C	-0.8906281514	-1.8086978794	 1.1882369777	-0.262082
C	 0.3057454777	-0.7981512395	 1.2610278768	-0.130618
C	 1.1786458346	-2.0647893117	 1.0496532485	 0.451716
O	 2.2337403142	-2.4300480949	 1.47493426	-0.316403
H	 0.543161009	 1.9545676773	 0.7337074433	 0.138198
H	 0.0112460906	 1.8020460967	-0.9494059001	 0.140742
H	-1.1329985412	 1.4766163081	 0.3711700485	 0.123307
H	 0.1479015228	-0.2505318294	-2.044416144	 0.120008
H	-0.1126474748	-3.7543084101	 0.1901989093	 0.093627
H	-1.8152931903	-1.4407129909	 0.7399668199	 0.114784
H	-1.0815045834	-2.2882521224	 2.149850277	 0.122922
H	 0.4701244888	-0.1684331548	 2.1343771562	 0.096302
