19
gdb 119316	2.43806	1.16752	0.93824	2.9144	72.69	-0.2499	-0.0404	0.2095	1321.5474	0.156112	-460.135598	-460.1259	-460.124955	-460.171119	33.866	
C	-1.9282072439	 1.6352612924	-1.3248396192	-0.384976
C	-2.02265664	 0.1204679158	-1.3516364375	-0.069128
O	-1.5650542484	-0.373808214	-0.0945059816	-0.293294
C	-1.5721855159	-1.7710514266	 0.0200312525	 0.251174
C	-1.4339637757	-2.2262623881	 1.4967763165	-0.11596
O	-2.647778238	-2.9871289294	 1.4236778276	-0.266551
C	-2.9273829613	-2.5166618701	 0.0888468527	-0.123684
C	-0.5227090368	-2.3980855228	-0.8847062552	 0.096312
O	-0.612073902	-3.4837247339	-1.3955570922	-0.23938
H	-2.2799061115	 2.0535763181	-2.2722957143	 0.122342
H	-2.5408713157	 2.0420209756	-0.5155975801	 0.132922
H	-0.8940544026	 1.952930833	-1.1659409847	 0.13074
H	-3.0602944357	-0.2012945902	-1.5256281969	 0.102322
H	-1.4136858207	-0.2913342716	-2.1717857191	 0.101579
H	-0.5658954543	-2.8456231631	 1.7502761963	 0.114092
H	-1.5011660237	-1.3733748125	 2.1830194831	 0.11802
H	-3.8008445863	-1.8548401847	 0.0574156951	 0.104068
H	-3.0386057587	-3.3409405754	-0.6214357477	 0.128681
H	 0.3797438514	-1.7563888325	-1.0096500755	 0.090721
