15
gdb 12653	2.92904	2.09448	1.42662	3.5086	61.32	-0.2175	-0.0924	0.1251	873.9281	0.118643	-399.818397	-399.810768	-399.809824	-399.850681	27.622	
C	 0.1921145	 1.5075069323	-0.1487662399	-0.377272
C	-0.1046514053	 0.0146081869	 0.0512904637	-0.111536
N	 0.3306100796	-0.795375966	-1.112752517	-0.305779
C	 1.7202310801	-1.230490088	-0.8666906845	-0.299303
C	 1.8590654497	-1.3584683832	 0.6445672587	 0.309393
O	 2.6871669465	-1.9451592743	 1.2857442167	-0.273573
C	 0.6653320454	-0.5508933223	 1.2422908523	 0.311782
O	 0.4407093168	-0.4203002994	 2.4149603112	-0.284306
H	 1.2608109137	 1.6859192442	-0.3066544705	 0.122696
H	-0.3443908331	 1.8746271739	-1.0268731396	 0.134681
H	-0.1200457376	 2.0754274468	 0.7319280683	 0.139334
H	-1.1776239572	-0.1190980128	 0.2152873676	 0.112346
H	-0.2592357099	-1.6178107705	-1.1780131754	 0.233248
H	 1.9484398606	-2.1703804948	-1.373689395	 0.144322
H	 2.4309776706	-0.4802172326	-1.2402454966	 0.143966
