19
gdb 97612	2.16111	0.80071	0.61257	4.3942	82.89	-0.2642	0.0049	0.2691	1838.2986	0.155798	-423.029123	-423.018285	-423.017341	-423.067906	36.433	
C	-0.322586555	 1.5669853767	-0.1363628578	-0.367513
C	-0.2728652506	 0.0844296884	 0.275775776	-0.315962
C	-1.5652262606	-0.5845222397	 0.1740578791	 0.037699
C	-2.642284549	-1.1170880759	 0.0868243232	 0.122159
C	-3.9449519886	-1.7694889761	-0.0108222926	-0.072457
C	-3.8438833551	-3.2863241978	-0.1570193359	-0.388424
O	-4.736810516	-1.5298270518	 1.1835131396	-0.179438
C	-5.294841393	-0.3109594655	 1.3066690424	 0.177473
O	-5.9430511935	 0.0064680481	 2.2584034635	-0.274838
H	 0.6682241167	 2.0202611106	-0.0410179643	 0.119872
H	-0.6513630627	 1.6719471349	-1.173756562	 0.129058
H	-1.0184677114	 2.123111555	 0.4972740558	 0.133248
H	 0.4564774853	-0.4487315751	-0.347261111	 0.134988
H	 0.0931481392	-0.0008014664	 1.3066966279	 0.13912
H	-4.4951504316	-1.3594800039	-0.8691192573	 0.114181
H	-3.3285156698	-3.7123701011	 0.7065040905	 0.144983
H	-4.8445051218	-3.7203159502	-0.2236388615	 0.132137
H	-3.2822684627	-3.5356720176	-1.060396508	 0.131968
H	-5.0971287098	 0.3475542374	 0.4390788924	 0.081745
