18
gdb 69382	3.53519	1.16601	1.00863	5.7014	83.42	-0.2019	-0.0257	0.1761	1210.6969	0.147528	-401.966638	-401.958159	-401.957215	-401.999529	32.148	
C	 0.0097574598	 1.5436048342	 0.0073212562	-0.472997
C	 0.0539804012	 0.0381900883	 0.0295503844	 0.347145
C	-0.8559671807	-0.7860841973	 0.9088933347	-0.329358
C	 0.6447813291	-0.83790112	 1.1406311038	-0.18993
C	 1.3933018304	-1.9127464467	 0.4245193819	 0.175188
C	 2.2305360444	-2.9133623301	 1.0305198875	 0.05418
O	 2.4398174037	-3.02522122	 2.2257699853	-0.314712
C	 1.211303148	-1.7340426196	-0.9156612119	-0.09524
N	 0.5075399513	-0.6024086966	-1.1885944692	-0.319539
H	 0.9773349607	 1.9642656102	-0.2846391782	 0.128507
H	-0.7488364442	 1.910456549	-0.6953857326	 0.117233
H	-0.2487132207	 1.9299038799	 0.9966221545	 0.131739
H	-1.4386961877	-0.2361675028	 1.6394672097	 0.116505
H	-1.3458196862	-1.6600577649	 0.4927570689	 0.110799
H	 1.0500356663	-0.423775391	 2.0559805636	 0.109474
H	 2.7036036445	-3.6122875726	 0.3005454072	 0.041304
H	 1.5682196872	-2.360644102	-1.7235426598	 0.136669
H	 0.1158326229	-0.3914691779	-2.0908605961	 0.253032
