19
gdb 89478	2.64097	1.67162	1.32308	1.1598	69.76	-0.2451	0.0723	0.3174	1022.9823	0.160089	-460.174312	-460.166383	-460.165439	-460.206348	31.465	
C	-0.0105427645	 1.461625502	 0.065323268	-0.488492
C	-0.0147377698	-0.043472531	-0.0344496546	 0.353635
C	 0.8114641175	-0.6718896672	-1.1790141363	-0.105694
O	 1.0741815913	-1.9899502344	-0.6745803392	-0.278638
C	 0.5223960156	-1.9768207222	 0.6449457184	 0.121798
O	 0.6584684959	-0.652661217	 1.092874001	-0.266164
C	-1.00656021	-2.1689663089	 0.5060365964	 0.117642
O	-1.6621059903	-2.4044543313	 1.7393184612	-0.432833
C	-1.391051895	-0.7555897373	 0.003342977	-0.278173
H	 1.0131566541	 1.8439448971	 0.1096289584	 0.130839
H	-0.5071455079	 1.9029105573	-0.8044666179	 0.123828
H	-0.5418646889	 1.78654256	 0.964036874	 0.134868
H	 0.2636427716	-0.7301608655	-2.1257932438	 0.100619
H	 1.7565816919	-0.1388435849	-1.3382530718	 0.101004
H	 1.0613797636	-2.6761584107	 1.2857364165	 0.083135
H	-1.2244449638	-2.9573527172	-0.2246584045	 0.074629
H	-1.4464196663	-3.2967899595	 2.0293741699	 0.282799
H	-2.0439586249	-0.2885166399	 0.743691458	 0.122017
H	-1.8961110702	-0.7602836194	-0.9649402408	 0.103181
