19
gdb 32427	2.9251	1.23241	0.93255	1.0122	79.54	-0.1857	0.034	0.2197	1286.3281	0.160176	-419.23459	-419.225208	-419.224264	-419.268455	35.215	
C	 0.0908018161	 1.5476495576	 0.1534731813	-0.371105
C	-0.1142888997	 0.0404709874	-0.0816279305	-0.312038
C	 0.6616015354	-0.4847316934	-1.2523621902	 0.229298
C	 0.1759292102	-0.9336404526	-2.4414368008	-0.129175
O	 1.1707057318	-1.3033872777	-3.2853116055	-0.178207
C	 2.3572978208	-1.1022898674	-2.6048910165	 0.227542
N	 3.5804844962	-1.3917934547	-3.2124186765	-0.60251
C	 2.0957567228	-0.5984263785	-1.3659349952	 0.100514
N	 3.0420354907	-0.1892438197	-0.4128826585	-0.615068
H	 1.150259025	 1.7762011738	 0.2997404584	 0.137145
H	-0.2576926626	 2.1231546901	-0.709596676	 0.117572
H	-0.4616918219	 1.8853559927	 1.0362399455	 0.104869
H	 0.1697350748	-0.5048764381	 0.8297274399	 0.094156
H	-1.1793721048	-0.1687084512	-0.2339151805	 0.101486
H	-0.8295525512	-1.0497213622	-2.8144538571	 0.124406
H	 3.6312171634	-2.3485559559	-3.54888386	 0.242362
H	 3.7913616435	-0.7771910217	-3.9937085338	 0.243512
H	 3.9666769266	-0.5170484594	-0.6703394851	 0.246022
H	 2.819487773	-0.5130816292	 0.5212062211	 0.239219
