23
gdb 121817	2.75926	0.74392	0.6787	1.2941	82.75	-0.2477	-0.0184	0.2292	1752.5812	0.202025	-425.438926	-425.427495	-425.426551	-425.476121	40.571	
C	 0.2153011276	 1.6654131485	 0.2542804462	-0.423129
C	 0.08685226	 0.1346600795	 0.0958314971	 0.147885
C	 0.8835172883	-0.5658904366	 1.2180492605	-0.423155
C	-1.3820281297	-0.3295539074	 0.0395271641	-0.197579
C	-2.2235362762	-0.0423353734	 1.2873204012	-0.198526
C	-3.6566463381	-0.5377790594	 1.1348916621	-0.070552
O	-4.3546061966	-0.2288012434	 2.3331156152	-0.423501
C	 0.781046986	-0.2238356194	-1.2155533066	 0.154671
O	 0.2752189321	-0.7813812618	-2.154081527	-0.258347
H	 1.2591510284	 1.9852203943	 0.161020386	 0.116663
H	-0.3697077871	 2.1949831794	-0.5046073299	 0.124775
H	-0.1374729989	 1.9827874667	 1.2393441794	 0.129651
H	 0.5295189873	-0.2447683055	 2.2014588208	 0.12967
H	 0.7831846238	-1.6544289252	 1.1579887886	 0.12479
H	 1.9496322722	-0.3203978886	 1.1570017651	 0.116677
H	-1.852548891	 0.1365580175	-0.8348199348	 0.104295
H	-1.3904250843	-1.4065976506	-0.1679598265	 0.104296
H	-1.7932537481	-0.5236220336	 2.1729559236	 0.10665
H	-2.2595745245	 1.0321212012	 1.5003284896	 0.10666
H	-4.1272441467	-0.0536664745	 0.2634368783	 0.085846
H	-3.6568408122	-1.6231914651	 0.9421722071	 0.085845
H	-5.2602403776	-0.5393859768	 2.2426070518	 0.285245
H	 1.8546184252	 0.0837485143	-1.245867392	 0.071169
