15
gdb 67321	3.24955	1.4763	1.23981	4.9003	70.51	-0.2707	0.0047	0.2754	998.2204	0.112681	-416.718101	-416.710822	-416.709877	-416.749762	28.11	
O	-0.0690541644	 1.3798834215	-0.0340247988	-0.452677
C	 0.0248372996	 0.0111913762	-0.0306706486	 0.357397
C	 0.401157414	-0.9870278691	 1.1192884317	-0.073148
C	-1.0292265239	-1.0373487238	 1.6643351909	-0.268849
C	-1.1738487626	-0.9546115614	 0.1413216982	-0.040384
N	 0.0296666546	-1.9218090647	-0.0579736885	-0.149677
C	 0.6747115304	-0.9474021903	-1.0490566996	-0.210311
C	 0.1572702792	-0.9980755906	-2.4075391844	 0.295056
N	-0.2601394869	-1.0141969849	-3.4855110728	-0.321574
H	 0.8126306408	 1.7641327005	 0.0344205777	 0.293452
H	 1.3607489829	-1.103616135	 1.625499866	 0.09301
H	-1.3347819913	-1.9789218441	 2.1255746118	 0.12083
H	-1.3679394046	-0.1712060754	 2.2347396977	 0.121321
H	-2.0539533372	-1.0386622433	-0.4948246991	 0.116363
H	 1.7673452095	-1.0153891357	-1.0516608421	 0.119191
