21
gdb 36338	5.01237	0.79518	0.75832	0.9238	89.64	-0.2519	0.0579	0.3097	1559.9804	0.181277	-349.896877	-349.887554	-349.886609	-349.931598	35.248	
C	-0.0114803934	-1.1215611728	-0.849647103	-0.450127
C	 0.0040772872	-0.0494272198	-0.3063928221	 0.313243
C	 0.0493522344	 1.2508306024	 0.3566549755	-0.382931
C	 1.4220966764	 1.9071380152	 0.2946920311	-0.068634
C	 1.8243643708	 2.7158377085	-0.9165692453	-0.340122
C	 1.5511008893	 3.3982287545	 0.3961361774	 0.362385
C	 0.4581844958	 4.4515453397	 0.6451802991	-0.289078
C	 1.5717797668	 5.415715343	 1.1519029581	-0.207997
C	 2.5659003538	 4.2180105078	 1.2066416369	-0.293963
H	-0.0335420259	-2.0669759913	-1.3319194536	 0.192295
H	-0.6929146464	 1.9180894307	-0.0998166942	 0.127982
H	-0.2581662278	 1.1320953245	 1.4046323097	 0.128273
H	 2.2103541836	 1.3231074204	 0.7635086938	 0.089478
H	 2.8509680801	 2.6485344144	-1.2630488369	 0.109107
H	 1.0925226783	 2.8297601699	-1.7117650213	 0.110366
H	-0.122622383	 4.7810619492	-0.2206522584	 0.09878
H	-0.239113047	 4.1628933461	 1.4391237997	 0.099221
H	 1.8538535339	 6.1530187086	 0.3965691682	 0.105779
H	 1.3784531405	 5.9379174658	 2.0911754621	 0.098249
H	 2.7069795887	 3.8330684642	 2.2221018316	 0.099142
H	 3.5500326339	 4.3713253189	 0.7551736716	 0.098553
