19
gdb 10954	4.91911	1.33775	1.21754	2.6488	71.37	-0.2365	0.075	0.3115	1048.4871	0.165303	-365.016753	-365.008553	-365.007609	-365.049149	31.109	
C	 0.2610721442	 1.4592603407	 0.5057477284	-0.489246
C	-0.0417504198	 0.0165775436	 0.2336049286	 0.372678
C	-0.9348257447	-0.8155164759	 1.0581014616	-0.29179
N	 0.5181405055	-1.1218960255	 1.0843552	-0.202548
C	 0.8397571048	-1.8548445451	-0.2038738781	 0.058486
C	 0.3074826286	-3.2736357468	-0.2815068637	-0.070784
O	 0.8343774125	-4.0628281832	 0.7698942246	-0.423277
C	 0.2643476211	-0.7132287288	-1.0807807525	-0.352982
H	 1.2712315105	 1.7217760353	 0.1733479017	 0.123023
H	-0.4460872308	 2.1099203674	-0.0225086759	 0.122909
H	 0.188009538	 1.6758181301	 1.5753623459	 0.130072
H	-1.2782737856	-0.4042228168	 2.0025831742	 0.119452
H	-1.6334710259	-1.5063952899	 0.5924746073	 0.112306
H	 1.9304833849	-1.8981062014	-0.2694785548	 0.093937
H	-0.7947615864	-3.2845902723	-0.2766238819	 0.08173
H	 0.6255974423	-3.7389524471	-1.2218975722	 0.107532
H	 0.7613359548	-3.5346266483	 1.5740561058	 0.295386
H	-0.60231387	-0.941349525	-1.7095133192	 0.102386
H	 1.0220688361	-0.2236880109	-1.6955085497	 0.110729
