19
gdb 115325	2.719	1.28095	0.99515	2.4744	71.14	-0.2479	-0.0415	0.2064	1214.3022	0.159648	-460.188165	-460.17935	-460.178406	-460.222202	33.116	
O	-0.1372937779	 1.5349331264	-0.2597816111	-0.425549
C	 0.000192159	 0.1318462951	-0.2601631422	-0.076771
C	-1.3349693255	-0.5797533589	 0.00005379	-0.112012
C	-1.3300230092	-2.1201933954	-0.0191485441	-0.245337
C	-2.5638552877	-2.5149709024	 0.8244132076	-0.23081
C	-2.600921531	-1.496031031	 1.9630491836	 0.045461
O	-1.7827641175	-1.9639084339	 3.0309992021	-0.434695
C	-1.9038499909	-0.2508616531	 1.3751058832	 0.385684
O	-1.7455054595	 0.7810803792	 1.9910695166	-0.353143
H	-0.5290569274	 1.7639749033	 0.5943220949	 0.294855
H	 0.3853744552	-0.1522112042	-1.2453689538	 0.108672
H	 0.736165301	-0.2092111004	 0.487585436	 0.089597
H	-2.0651997343	-0.2033819464	-0.732998757	 0.114896
H	-1.3608366703	-2.5300894234	-1.0309906093	 0.108221
H	-0.4186683063	-2.4914161078	 0.4629652539	 0.1214
H	-3.4756790498	-2.4197428617	 0.2244160764	 0.106299
H	-2.5187711688	-3.5360516328	 1.2088073139	 0.122122
H	-3.6149518681	-1.2603180209	 2.3132019213	 0.085699
H	-1.6414150508	-1.2172862418	 3.6263559279	 0.29541
