19
gdb 73321	3.09408	1.95005	1.43387	1.4126	79.28	-0.2357	0.0831	0.3188	944.2697	0.160431	-385.803782	-385.796916	-385.795972	-385.834474	28.981	
C	 0.0334611089	 1.5920801835	-0.1716877423	-0.4986
C	 0.0489338656	 0.1073201321	 0.0601310682	 0.453666
O	 0.541082106	-0.5665709616	-1.1383555128	-0.329023
C	 0.5228083468	-1.9817134687	-0.8285854873	-0.191744
C	-0.0093992771	-1.8825844719	 0.5833958239	 0.267839
C	-0.476153019	-2.4472332031	 1.9417579477	-0.352169
C	-0.6281793793	-0.8949279147	 2.0644045576	-0.103754
C	 0.675699339	-0.6381154877	 1.2506197193	-0.118661
C	-1.106495304	-0.7602602376	 0.5874559364	-0.118668
H	 1.039682375	 1.9574199089	-0.3989636955	 0.126819
H	-0.6160730284	 1.8438605163	-1.0156776805	 0.126825
H	-0.3335151803	 2.1121151152	 0.7178268689	 0.1184
H	-0.1370344058	-2.508458324	-1.5275811308	 0.102679
H	 1.5356025565	-2.3938186255	-0.9051706857	 0.102678
H	-1.3986277475	-3.0360014271	 1.9422119259	 0.099662
H	 0.2855794973	-2.9205709227	 2.5689124621	 0.099663
H	-0.9870346963	-0.3304782434	 2.9248341012	 0.074679
H	 1.7015670378	-0.622497588	 1.6222666343	 0.069854
H	-2.119241135	-0.88436331	 0.2005274394	 0.069855
