21
gdb 70819	2.30442	1.65291	1.4836	1.204	83.21	-0.2477	0.0792	0.3269	1052.4496	0.18094	-387.033285	-387.024358	-387.023414	-387.065885	35.38	
C	 0.0007117357	 1.459994157	-0.0247572342	-0.518619
C	 0.0357976528	-0.0421352684	-0.0571822408	 0.319552
C	 0.5935692339	-0.9594374385	-1.1731557816	-0.385052
C	 0.0648886747	-1.9191486182	-0.0919493151	 0.375381
O	-0.010858425	-3.3006384034	-0.1058836005	-0.47975
C	 0.5355674382	-0.9935584186	 1.0878081749	-0.15415
C	-0.8496054724	-1.0456553881	 1.7582606679	-0.326125
C	-1.1708388823	-1.0244554493	 0.2455268486	 0.280256
C	-2.5122589032	-1.0510463335	-0.4347869749	-0.525749
H	 1.0104523989	 1.8803121182	-0.0923257639	 0.118846
H	-0.580905479	 1.8606718934	-0.8627022723	 0.119241
H	-0.4518107474	 1.8285705305	 0.9024877533	 0.120365
H	 0.0685789001	-0.9510709448	-2.1345645856	 0.090837
H	 1.6788658691	-0.9317933856	-1.3271892855	 0.080074
H	 0.8827891393	-3.6556310118	-0.1629109993	 0.282139
H	 1.5294347528	-0.973978674	 1.5401256571	 0.05935
H	-1.0998688387	-1.96602713	 2.2941270179	 0.096995
H	-1.1536869311	-0.1693716586	 2.3406936324	 0.084222
H	-3.1263126782	-0.1950174987	-0.1331561659	 0.115975
H	-2.4090267736	-1.0220999992	-1.5253745041	 0.118069
H	-3.0611324746	-1.9634939885	-0.1776876784	 0.128145
