17
gdb 90755	2.64196	1.61112	1.361	3.4926	66.8	-0.2662	0.0016	0.2678	986.3727	0.137512	-458.99184	-458.984311	-458.983367	-459.024289	28.889	
O	 0.3314116932	 1.2704882865	-0.393582292	-0.42486
C	 0.0900693481	-0.0728760431	-0.0518037031	 0.126624
C	 0.2582000133	-0.46562645	 1.4462717867	-0.269053
C	-1.2788943056	-0.7042498731	 1.5430098475	-0.175272
C	-1.4149194175	-0.5276400776	 0.0116857246	-0.078033
C	-2.4523827999	 0.5769193169	-0.1633833553	-0.113083
O	-2.5214222971	 1.2622142839	 1.1043537485	-0.232155
C	-2.0010981663	 0.5062556175	 2.1190094452	 0.419731
O	-2.0911908039	 0.8369123393	 3.2649874012	-0.336937
H	-0.0876614778	 1.8426686798	 0.2599956748	 0.29252
H	 0.6961570658	-0.6607688067	-0.7441869695	 0.09867
H	 0.8398669685	-1.3786713236	 1.5900882205	 0.117441
H	 0.6665094458	 0.3109028499	 2.0988235694	 0.12428
H	-1.6127646561	-1.6193287089	 2.0317404094	 0.107849
H	-1.6377563867	-1.4150774828	-0.5808837633	 0.085904
H	-2.1659039845	 1.3086079447	-0.9220917161	 0.136351
H	-3.4470076392	 0.1829866373	-0.3970164983	 0.120022
