17
gdb 3156	3.73164	2.68411	1.86398	1.7835	64.01	-0.2548	0.0774	0.3322	737.3761	0.148019	-309.691591	-309.684615	-309.683671	-309.722307	26.427	
C	-0.5239868698	 1.3657370578	 0.0043390809	-0.417791
C	 0.0936009275	-0.0232397736	-0.0206858282	-0.034259
C	 1.4448659682	-0.2536765812	-0.7693985377	-0.234455
C	 1.9195582731	-1.1746212527	 0.3945202743	-0.315788
C	 0.7873610569	-0.578152795	 1.2317609441	 0.456144
C	 0.8543357804	 0.0005250037	 2.5752403251	-0.264828
O	 0.1385962676	-1.2171609814	 2.3133778768	-0.274995
H	 0.202517081	 2.1155157165	 0.336581799	 0.112296
H	-0.8747459835	 1.6587550546	-0.9910616874	 0.117119
H	-1.3839017386	 1.404877599	 0.6821120803	 0.122847
H	-0.6451460974	-0.7592244577	-0.3603941406	 0.084994
H	 1.3896802768	-0.6994507511	-1.7639590864	 0.102204
H	 2.0328450869	 0.6667078806	-0.8283566892	 0.102746
H	 1.7416448514	-2.2335993288	 0.1849864434	 0.114924
H	 2.9418508691	-1.0532180596	 0.7599263979	 0.103969
H	 1.7627433466	-0.1105116719	 3.1669156821	 0.111512
H	 0.2337712539	 0.8570159207	 2.8356947453	 0.11336
