18
gdb 40579	4.44455	1.26988	1.21246	2.3637	74.08	-0.2372	0.0868	0.324	1060.6845	0.148855	-401.8455	-401.838479	-401.837535	-401.877244	27.756	
C	 0.1398203984	 1.4599934296	 0.0901021489	-0.185646
O	 1.038969317	 0.4309150057	-0.3324510827	-0.224905
C	-0.271449402	 0.0504921973	 0.0930239968	 0.065998
C	-0.3924012867	-0.7742331093	 1.3511464601	-0.055651
C	 0.082934866	-2.2195365408	 1.1540002633	-0.040096
C	 1.4455444062	-1.9012806538	 1.6349184899	-0.024276
C	 0.797335619	-0.6556681917	 2.3492475979	-0.090944
C	 0.3964789814	-1.6586597546	 3.4423484733	-0.160871
N	 0.5736745268	-2.7831432893	 2.4625753188	-0.162943
H	 0.3988314597	 1.9501219224	 1.0271104957	 0.113053
H	-0.2131553717	 2.1235503031	-0.6979832977	 0.116816
H	-0.9181081275	-0.2764319923	-0.7249190156	 0.094247
H	-1.3971056011	-0.6328127438	 1.7730960345	 0.07342
H	-0.2369361085	-2.9405503364	 0.41279048	 0.098767
H	 2.4373513419	-2.1560680585	 1.289714695	 0.100862
H	 1.2605516343	 0.304238708	 2.5648785089	 0.078683
H	 1.1468102858	-1.7703472918	 4.2290852525	 0.108919
H	-0.601644219	-1.5743145537	 3.8894226201	 0.094567
