20
gdb 50587	3.54476	1.21631	1.02107	3.8548	80.01	-0.2369	0.0337	0.2706	1197.0718	0.174097	-403.174377	-403.166493	-403.165549	-403.207135	30.722	
O	-0.0707490744	-0.0549784582	 0.0234691274	-0.346215
C	-0.0038860482	 1.1574421688	 0.0223941987	 0.14701
N	 1.1362230138	 1.8880455277	-0.1129172023	-0.029789
C	 2.4322173617	 1.2322744478	-0.1953894459	-0.197854
C	 3.2469782609	 1.513256477	 1.0748150553	-0.217521
C	 3.2622162127	 2.9878617744	 1.4443144783	-0.00644
C	 3.6274175189	 4.0468515638	 0.4375013794	-0.289884
C	 2.191637244	 3.9040422477	 0.8868275914	-0.030884
C	 1.1417791588	 3.3414400566	-0.0752594391	-0.2
H	-0.8950386263	 1.807907542	 0.1310728941	 0.067925
H	 2.2480728678	 0.1641442837	-0.3152571978	 0.14865
H	 2.9597532285	 1.5905917499	-1.0899223824	 0.105152
H	 2.7971705414	 0.9461672104	 1.8981400531	 0.116591
H	 4.2694977991	 1.1373176738	 0.948480935	 0.102333
H	 3.5680820617	 3.185558145	 2.4675800954	 0.088013
H	 4.1917792018	 4.9088206472	 0.7756917156	 0.112159
H	 3.8678796698	 3.7344311484	-0.5750212069	 0.110701
H	 1.8170521233	 4.6775289013	 1.5488867348	 0.092322
H	 1.3124513986	 3.7380836305	-1.0874610218	 0.109988
H	 0.1439806563	 3.6705354923	 0.2297549477	 0.117744
