19
gdb 88607	2.93109	1.05509	1.00133	0.4898	71.75	-0.2219	0.0592	0.2811	1270.2091	0.157409	-460.105979	-460.096468	-460.095524	-460.141513	35.375	
O	-0.186311687	 1.4293748455	 0.7005695384	-0.415909
C	-0.0172287393	 0.1621817957	 0.1325963435	 0.082261
C	-0.6558281235	-1.0360562601	 0.7771642289	-0.322284
C	-1.2331376797	-0.4552538278	-0.505536429	-0.051027
C	-2.5306055088	 0.29846936	-0.4770458146	-0.113602
C	-3.6557282632	-0.0994782813	-1.4079634957	-0.003461
O	-3.4138923939	-1.2552149182	-2.1740453484	-0.422838
C	-3.8035757915	-0.3291704225	 0.0753266436	 0.087934
O	-3.8069539716	-1.6439730817	 0.5392866841	-0.428321
H	 0.2666043796	 1.4388123326	 1.549544712	 0.289066
H	 0.9366232254	 0.0219515247	-0.3757198048	 0.083017
H	-0.141224699	-1.9904830862	 0.7396829434	 0.106447
H	-1.2325120842	-0.8607017279	 1.6782463276	 0.125422
H	-1.0494667447	-1.0231116928	-1.411175115	 0.104716
H	-2.4297073091	 1.3653526618	-0.3055280542	 0.109322
H	-4.2210281587	 0.677346821	-1.9196763864	 0.08786
H	-4.2684247317	-1.6411771446	-2.3975443056	 0.295664
H	-4.4810972037	 0.2895041752	 0.6546609977	 0.100466
H	-3.4379013454	-2.1828604133	-0.1730428053	 0.285266
