21
gdb 116472	2.48607	1.27058	0.96773	1.0971	74.19	-0.248	0.0573	0.3053	1265.4423	0.183186	-461.359092	-461.34985	-461.348906	-461.392874	35.024	
O	-0.0708252503	 1.426318986	-0.0293645433	-0.427232
C	 0.0214007104	 0.0075464494	 0.0136802367	-0.094258
C	-1.3950254737	-0.5558856482	-0.0051149275	-0.006117
C	-2.153351672	-0.1590792293	-1.2807047318	-0.091842
O	-3.4770300391	-0.6662611793	-1.292447771	-0.243345
C	-3.5111687435	-2.0793651121	-1.2314398581	-0.081688
C	-2.84759124	-2.6100675345	 0.0423641787	-0.231556
C	-1.4076522535	-2.0885670928	 0.1688452522	 0.102159
O	-0.5204738441	-2.7465497016	-0.7376559866	-0.442118
H	 0.8186274599	 1.7832406365	-0.1038933457	 0.287959
H	 0.5888833113	-0.3859969594	-0.8414305311	 0.094326
H	 0.5359050386	-0.3321183418	 0.9270975519	 0.086716
H	-1.9412000771	-0.1230720757	 0.8432346617	 0.089668
H	-2.2292946891	 0.9264162099	-1.3554496434	 0.13092
H	-1.6040763299	-0.5143805693	-2.1738333651	 0.068874
H	-4.5652126945	-2.3674655797	-1.2742747415	 0.111529
H	-3.0238661573	-2.5079022174	-2.1280098634	 0.073942
H	-3.4300796381	-2.2748949959	 0.9081513756	 0.106744
H	-2.8413946158	-3.7052910769	 0.0422123182	 0.102744
H	-1.0106433993	-2.3425213814	 1.1579773787	 0.082863
H	-0.8554599928	-2.6293421265	-1.6324952352	 0.279711
