19
gdb 17568	3.36696	2.32918	1.88274	1.4676	74.31	-0.223	0.0872	0.3103	800.8261	0.167991	-327.87878	-327.872282	-327.871338	-327.908813	27.585	
C	-0.0398931758	 1.5215205534	 0.0434685444	-0.507096
C	 0.0310834423	 0.0118039516	 0.0501867953	 0.343159
C	 0.9131364903	-0.8124544275	-0.96415407	-0.248907
C	 0.71618694	-1.9376010959	 0.1099086314	-0.048739
C	 0.7834642133	-0.7911983376	 1.1540982569	-0.25859
C	-0.7997226491	-2.1763437101	-0.0450110147	-0.031055
N	-1.6390699864	-1.6523318436	 1.0625309558	-0.344967
C	-1.2906757868	-0.783402958	-0.0900365955	-0.074346
H	 0.9588575455	 1.9677539445	 0.0916670617	 0.111966
H	-0.5266270597	 1.8936974577	-0.8661521566	 0.110234
H	-0.6136456819	 1.8913300636	 0.900710248	 0.122092
H	 0.5076051335	-0.9872712177	-1.9663745037	 0.081241
H	 1.9428562332	-0.4491539973	-1.0285484202	 0.090018
H	 1.3685479029	-2.8087860606	 0.1653524772	 0.05859
H	 1.8046890762	-0.4244433205	 1.2803018929	 0.084213
H	 0.2947195463	-0.9335258313	 2.1158452026	 0.120605
H	-1.1778072643	-2.968841988	-0.6807577166	 0.085516
H	-2.5894048961	-1.9933825841	 0.9271123142	 0.22505
H	-2.0686688533	-0.4368276386	-0.7620612532	 0.081016
