18
gdb 7693	4.29496	1.49496	1.39215	0.4414	68.03	-0.223	0.0715	0.2945	968.8272	0.151605	-384.897316	-384.889109	-384.888165	-384.929222	31.498	
C	 0.0490874998	 1.4758700285	-0.0468276902	-0.396505
C	 0.0181308325	-0.0328451361	 0.0885327005	 0.120985
O	 0.9875431601	-0.6620461931	-0.813621458	-0.301854
C	 1.7493910139	-1.1216883024	 0.3027220826	 0.015255
C	 0.7386792076	-0.6009311236	 1.3080887187	-0.172537
C	 0.970119244	-2.0899168137	 1.1556660255	 0.358414
C	-0.0303876923	-3.0708750112	 0.5969742491	-0.463258
O	 1.6975334912	-2.5480337062	 2.2703027987	-0.464938
H	 1.0516867925	 1.8626510143	 0.1574713913	 0.124749
H	-0.2371429467	 1.76847003	-1.0614451343	 0.126684
H	-0.6540469435	 1.9357777452	 0.6565570968	 0.11579
H	-0.9919568362	-0.4178760658	-0.1009333909	 0.079875
H	 2.8322028062	-1.075079363	 0.2529103129	 0.100848
H	 0.881147802	-0.104625369	 2.2588797435	 0.10336
H	-0.4709021568	-2.6988448203	-0.3299653177	 0.141149
H	 0.4663302578	-4.0210707773	 0.36421616	 0.105504
H	-0.8266715515	-3.2754402557	 1.3195585031	 0.123085
H	 2.2363118893	-3.2933195805	 1.9812587885	 0.283394
