19
gdb 56896	3.3799	0.92992	0.77712	3.1173	77.11	-0.2261	0.0074	0.2335	1462.5055	0.158413	-419.18427	-419.174773	-419.173828	-419.219119	34.179	
C	 0.0712588789	 1.5200134595	 0.0770779119	-0.318909
N	-0.0281738017	 0.0792847691	 0.1252045068	-0.063923
C	-1.2959330801	-0.5317278853	 0.5647430283	-0.191507
C	-0.4729284209	-1.631666611	 1.2782334908	-0.003601
C	 0.7209016747	-0.649642552	 1.1649744948	-0.190014
C	-0.9425831343	-2.0661264462	 2.6632873812	-0.036043
O	-2.2107273686	-2.6952221213	 2.6377703132	-0.409023
C	 0.0732171226	-2.9286626884	 3.3078220688	 0.257956
N	 0.8669584991	-3.6234473307	 3.7797809409	-0.316793
H	 1.0917665067	 1.812640518	-0.1913268079	 0.125452
H	-0.6028557589	 1.9122118184	-0.6916250157	 0.124642
H	-0.1840675806	 2.0064339377	 1.0383430751	 0.089798
H	-1.8566748197	 0.0862233367	 1.2875216286	 0.089261
H	-1.9735018175	-0.8300274671	-0.2410706411	 0.109701
H	-0.3294314754	-2.5120696294	 0.645045982	 0.09361
H	 1.6906116593	-1.0476653145	 0.8520421359	 0.118009
H	 0.8598637156	-0.0686564949	 2.0940974281	 0.088317
H	-1.0751645871	-1.1806795224	 3.2952057704	 0.137756
H	-2.138116982	-3.5012062361	 2.113133168	 0.295311
