18
gdb 32698	3.40316	1.0484	0.85286	3.7591	78.68	-0.1722	0.0513	0.2235	1376.1291	0.147639	-435.282427	-435.27307	-435.272126	-435.317368	34.167	
C	 0.3142393062	 1.4311173651	 0.1982808492	-0.358756
C	-0.0212766904	-0.0290639204	-0.1279822747	-0.134903
N	 0.6911931546	-0.4976503587	-1.3068253481	-0.384472
C	 1.7916455712	-1.0977502512	-1.1630730351	 0.505801
N	 2.5985691765	-1.61544615	-2.1566783394	-0.373455
C	 3.6653121257	-2.3255276032	-1.5557253683	-0.200564
C	 3.5518300521	-2.1375307585	-0.2345350093	 0.350727
N	 4.2442986967	-2.5802426777	 0.8817726421	-0.593124
O	 2.4380502075	-1.3730605592	 0.0435115997	-0.237529
H	 1.3697671207	 1.534882834	 0.4696844715	 0.111198
H	 0.1235761819	 2.0709726544	-0.6684572816	 0.119967
H	-0.291790753	 1.7918630209	 1.0365234565	 0.101733
H	 0.180020063	-0.6543446019	 0.7538762016	 0.094446
H	-1.0946352938	-0.1080377935	-0.337882063	 0.093169
H	 2.1823260955	-1.8636474622	-3.038319612	 0.26488
H	 4.432062764	-2.8108701084	-2.1323657989	 0.128297
H	 5.1203240107	-3.0235858887	 0.6389990249	 0.254626
H	 4.4028986511	-1.8404007205	 1.5573214445	 0.25796
