23
gdb 100351	2.49117	1.12476	0.95982	3.0521	82.07	-0.2529	-0.0426	0.2103	1356.6101	0.203355	-425.439777	-425.42905	-425.428106	-425.475104	39.703	
C	-0.216409738	 1.5606796645	 0.127146342	-0.407405
C	 0.0384204168	 0.0542987196	 0.0037345549	-0.191019
C	 0.7326203829	-0.4252849426	-1.2972511008	 0.246765
C	 0.0434093534	 0.1312110857	-2.5538758684	-0.434538
C	 2.218908085	 0.0135409037	-1.3034738249	-0.086266
O	 3.0057010269	-0.6474732037	-0.3326563201	-0.437855
C	 0.6424878196	-1.9877925171	-1.2817200847	-0.309067
C	 1.4855047522	-2.6779152747	-2.3264946522	 0.134033
O	 2.6867525602	-2.8110125611	-2.2373629704	-0.250264
H	 0.7054718175	 2.1450172026	 0.046951582	 0.123618
H	-0.9116558292	 1.925265944	-0.6351172267	 0.116067
H	-0.6564558138	 1.785390602	 1.10368032	 0.117131
H	 0.6626461567	-0.2762259143	 0.8418897118	 0.118262
H	-0.9204996262	-0.471362211	 0.1028728928	 0.086195
H	 0.1616180228	 1.2166972491	-2.6234354796	 0.124865
H	 0.4675995136	-0.2989070475	-3.4679489993	 0.112159
H	-1.0303971129	-0.0860936751	-2.5487821367	 0.114052
H	 2.6372564195	-0.1268251428	-2.3099524954	 0.091386
H	 2.275286292	 1.0853970495	-1.0855642367	 0.104296
H	 3.2303583176	-1.5077475533	-0.7148896167	 0.292691
H	 0.9931229167	-2.3360661638	-0.3048698356	 0.136797
H	-0.4046076628	-2.2853118381	-1.4013155284	 0.104121
H	 0.9553572196	-3.0775289657	-3.2175382469	 0.093977
