14
gdb 131392	3.23862	1.27784	0.9163	1.9498	66.73	-0.2099	0.0069	0.2168	1165.7064	0.102762	-470.04799	-470.040044	-470.0391	-470.080786	29.156	
O	 0.0966902548	 1.3189078179	 0.1293458341	-0.444147
C	 0.0712785025	-0.0308434399	 0.0439472248	 0.33764
N	 0.0692847013	-0.687241591	-1.102162959	-0.322457
N	 0.0409572942	-1.9892762466	-0.726368108	-0.204199
C	 0.0244244021	-2.1635622424	 0.6180164202	-0.088658
C	 0.044019077	-0.8930876335	 1.1627939641	 0.217016
N	 0.0394100091	-0.4787315904	 2.4980290816	-0.419871
C	 0.0141277302	-1.3141256918	 3.5726793009	 0.138018
O	-0.0078652921	-2.5262400296	 3.5087401828	-0.320854
H	 0.109385874	 1.6660543688	-0.7710901755	 0.308144
H	 0.0347032456	-2.6990307147	-1.4364529813	 0.279141
H	 0.0013141888	-3.1269183703	 1.0941112313	 0.171518
H	 0.0563327213	 0.5165735853	 2.6598181765	 0.265995
H	 0.0158566812	-0.7531992818	 4.5259756775	 0.082715
