15
gdb 43477	2.61577	1.84216	1.29019	3.4133	65.85	-0.2535	-0.0284	0.2251	949.4477	0.116027	-453.985698	-453.979002	-453.978058	-454.016864	26.394	
O	 0.0153737731	-0.0489591551	 0.0339620062	-0.344967
C	 0.0421193613	 1.1561196506	 0.0197997307	 0.464967
N	-1.1107948495	 1.9416562783	 0.0163340762	-0.360389
C	-1.0744369094	 3.3356493003	-0.0255376184	 0.464964
O	-2.0679966387	 4.0178254726	-0.0501487631	-0.344968
C	 0.3610387278	 3.85005418	-0.0615774931	-0.127809
C	 1.1564753793	 3.078958656	-1.1505223724	-0.246679
C	 1.2989203778	 2.0192966195	-0.0236001341	-0.127817
N	 1.101643339	 3.0958611886	 1.0189171792	-0.330139
H	-2.0112780441	 1.481184019	 0.0566979326	 0.267873
H	 0.3698528856	 4.9377157557	-0.014949664	 0.104465
H	 0.6640401146	 2.8072370897	-2.0883108378	 0.124866
H	 2.1129968757	 3.5646968205	-1.3574521053	 0.118475
H	 2.1857200287	 1.3931229537	 0.0585702315	 0.104465
H	 2.0004161788	 3.5589946107	 1.1496887419	 0.232694
