19
gdb 116528	3.16974	0.87299	0.73132	3.942	77.1	-0.2459	-0.0629	0.183	1569.8548	0.157069	-456.3663	-456.355839	-456.354895	-456.402347	37.156	
C	-0.1058264918	 1.5957637978	-0.3295604759	-0.371013
C	-0.1408905266	 0.1508884811	 0.1912720831	-0.157659
N	-1.4803903108	-0.4110511054	 0.1264407421	-0.277325
C	-1.8517980345	-1.0110408143	-0.9407419043	 0.274011
N	-1.1550824544	-1.2667395335	-2.0923257679	-0.55537
C	-3.2509016188	-1.5749468413	-0.9629908912	 0.330178
O	-3.6925191488	-2.104530851	-1.9661471723	-0.349246
C	-4.1041496065	-1.4733027065	 0.2845508876	-0.128811
O	-5.3728471389	-2.0246149711	 0.0718750998	-0.426819
H	 0.8944404469	 2.0234014546	-0.2111052083	 0.118996
H	-0.3759043378	 1.6476789493	-1.3896976813	 0.111106
H	-0.8163670928	 2.2151074248	 0.2245166569	 0.135096
H	 0.5947403839	-0.4632187468	-0.3537661437	 0.088526
H	 0.1675668686	 0.1469786357	 1.2421306967	 0.111967
H	-0.3514990021	-0.7127017933	-2.3293069906	 0.264152
H	-1.7029576878	-1.6378743901	-2.8538819809	 0.272471
H	-3.5708331689	-1.9789423954	 1.1034526433	 0.132732
H	-4.1641681763	-0.4160573917	 0.578219358	 0.135324
H	-5.3644583627	-2.360679793	-0.8369997913	 0.291683
