19
gdb 80934	2.78877	1.43473	1.28976	1.813	76.29	-0.2522	0.0713	0.3234	1069.9651	0.158396	-422.951853	-422.943454	-422.94251	-422.984166	33.47	
O	-0.0212210034	 1.4367418197	-0.0981830234	-0.451383
C	 0.017814603	 0.0345078731	 0.0144908095	 0.081351
C	-0.0597536288	-0.6441519008	 1.4250515586	-0.208566
C	-1.5162833409	-0.0989907296	 1.5447585895	-0.295879
C	-1.3768518965	-0.6500834486	 0.0793161407	 0.298815
O	-2.3294726535	-0.7439527216	-0.9123390318	-0.480279
C	-0.6537784484	-1.8555502913	 0.6829056915	 0.423619
C	-0.0676867161	-3.0757329144	 0.0637209122	-0.377886
C	-1.1546968901	-3.1787919047	 1.1355003324	-0.3731
H	 0.8703745963	 1.7763970867	 0.0233446637	 0.286112
H	 0.7337046573	-0.413949177	-0.6849333209	 0.070124
H	 0.7072891639	-0.6551890379	 2.1964395203	 0.07624
H	-2.1862557064	-0.6566307686	 2.2013193465	 0.095137
H	-1.6187226572	 0.980391794	 1.651466219	 0.102792
H	-2.5487937826	 0.1484956699	-1.2024837151	 0.291576
H	-0.3456474762	-3.3214232573	-0.9564334067	 0.120899
H	 0.9392524813	-3.3752655956	 0.3378729741	 0.108619
H	-0.8631245505	-3.5445470592	 2.1151315945	 0.110074
H	-2.1436731713	-3.4930376269	 0.8169905653	 0.121734
