15
gdb 18608	3.27609	2.16233	1.79682	3.0625	66.59	-0.2329	-0.067	0.1659	781.9746	0.119479	-362.650731	-362.643975	-362.643031	-362.681484	25.844	
C	-0.2032497747	 1.5156165123	-0.080171881	-0.320764
N	 0.0496089934	 0.0847833135	 0.0275496367	-0.090267
C	 1.3745507394	-0.5153811679	-0.1703679104	-0.076717
C	 2.5853834331	 0.3650121636	-0.0687633161	-0.063707
C	 2.7180068924	 0.8949288716	 1.1552003181	-0.205231
C	 1.6305733004	 0.3922264239	 2.0454783615	 0.394071
O	 1.4902284796	 0.612682524	 3.2248108846	-0.321943
C	 0.7382578824	-0.4976019372	 1.1820590099	-0.160464
H	 0.6233055105	 2.1659993731	 0.2349863505	 0.114318
H	-0.4454271912	 1.7430663869	-1.1228586744	 0.127128
H	-1.0788087006	 1.7499470577	 0.5318119319	 0.13745
H	 1.3970565813	-1.391037924	-0.811861419	 0.106468
H	 3.2291047414	 0.5665523212	-0.9176551229	 0.123099
H	 3.4624100848	 1.6063447967	 1.4898237494	 0.123235
H	 0.2549333079	-1.3474518654	 1.6536650612	 0.113327
