18
gdb 80496	2.20352	1.46058	1.21477	3.1923	77.9	-0.2604	0.0108	0.2712	1125.2577	0.146807	-401.928455	-401.919709	-401.918765	-401.961583	32.736	
C	 0.1537572701	 1.6322897962	-0.4072325258	-0.429806
C	 0.2457764693	 0.1314054578	-0.2429468909	-0.079546
C	 1.5053205713	-0.6489124382	-0.3708151822	 0.042623
O	 2.6249614981	 0.0590062856	 0.1427794026	-0.295126
C	 2.1098573092	-0.0407580455	 1.5046020015	 0.1048
C	 2.1773414448	 1.2308664526	 2.3208686441	-0.4231
C	 0.7820697091	-0.6225402037	 0.9856021761	 0.075035
C	 0.0257360238	-1.6224163897	 1.6558723629	 0.197699
N	-0.5880366715	-2.4282187385	 2.2178872165	-0.351835
H	 1.1311123823	 2.1005912756	-0.2831958286	 0.144507
H	-0.2034768565	 1.8665013354	-1.415241315	 0.127351
H	-0.5470657531	 2.0759431276	 0.3062404861	 0.130112
H	-0.6030866182	-0.4200659356	-0.6432469612	 0.117845
H	 1.6893392246	-1.4706872115	-1.0536995081	 0.127752
H	 2.6619944918	-0.8403246822	 2.0140187492	 0.106251
H	 1.5894586054	 2.040779644	 1.8885171962	 0.131345
H	 1.8058839577	 1.0318014027	 3.3314730665	 0.136795
H	 3.2182002019	 1.5594936576	 2.4035165401	 0.1373
