18
gdb 65591	3.59975	1.24157	1.2096	2.2554	77.41	-0.2296	0.0324	0.262	1092.322	0.14731	-401.889739	-401.881526	-401.880581	-401.921979	32.684	
O	-0.1238640948	 0.9764015894	-0.5747830962	-0.451742
C	 0.0794313229	-0.3159666469	 0.0132150466	 0.123595
C	-1.2547967418	-1.1105607175	 0.1345686253	-0.256254
C	-1.3730673597	-1.8664606079	-1.1778342055	-0.02742
C	-1.1412887403	-1.1281592219	-2.446577168	-0.248078
N	-0.0583234953	-1.9296400426	-1.8481370682	-0.104476
C	 0.8813642538	-1.1609604334	-1.0240590852	-0.176218
C	 0.7683724715	-0.1735294946	 1.2958606081	 0.269366
C	 1.3228132978	-0.0348158681	 2.3538332015	-0.42086
H	-0.5410003807	 1.536895056	 0.0890419107	 0.283649
H	-1.1932023158	-1.8170515243	 0.9677438272	 0.118864
H	-2.09056304	-0.4325270712	 0.3327319046	 0.107024
H	-1.9633260431	-2.7787234323	-1.1819999831	 0.090362
H	-1.5275771454	-1.5379647913	-3.3756120978	 0.108484
H	-1.0719235053	-0.0467858145	-2.4048353627	 0.140508
H	 1.5069105544	-0.5044685842	-1.6338339938	 0.127566
H	 1.5257242867	-1.8696102225	-0.4967625245	 0.118106
H	 1.820359675	 0.084447758	 3.2846984511	 0.197524
