17
gdb 97484	8.66826	0.43431	0.42682	1.2318	102.32	-0.2245	-0.0126	0.2119	2514.2091	0.134384	-384.620019	-384.610176	-384.609232	-384.657169	33.925	
O	 0.0765399857	 1.2075531977	-0.7200795113	-0.408122
C	-0.0288755308	 0.1070618342	 0.1752211887	-0.246135
C	-1.380406146	-0.4279468803	 0.1475341139	 0.290149
C	-2.4962274225	-0.8981017407	 0.1488201575	-0.19833
C	-3.7490092337	-1.4216688235	 0.1481461792	-0.219152
C	-4.8660810936	-1.8939585383	 0.1402945803	 0.321538
C	-6.185414998	-2.4394855085	 0.1437581938	-0.201776
C	-6.8503638059	-2.8462455553	-1.1662872383	-0.250121
C	-6.4099275972	-3.9063153644	-0.2057650552	-0.250491
H	 0.9809782758	 1.5335650629	-0.6666939619	 0.290419
H	 0.6776545399	-0.6959652413	-0.0940430117	 0.121198
H	 0.2132527041	 0.4077221806	 1.2083850139	 0.121674
H	-6.8493921108	-2.0297240057	 0.8998282596	 0.117428
H	-7.9096259182	-2.6369031526	-1.2623937333	 0.123157
H	-6.2739594053	-2.7058381148	-2.0725877989	 0.133556
H	-5.5322874175	-4.4898175083	-0.4558674535	 0.132246
H	-7.1622407161	-4.4358568518	 0.3675404472	 0.122763
