19
gdb 52861	2.17093	0.89479	0.67236	0.0696	96.02	-0.2178	0.0415	0.2593	1742.5493	0.155866	-348.697198	-348.686251	-348.685306	-348.736839	37.112	
C	-0.0802516877	 1.4607897032	-0.0601920033	-0.501173
C	-0.0359888256	 0.0058804741	-0.0395175511	 0.087421
C	 0.0082487474	-1.1976746602	-0.0277546745	-0.022048
C	 0.0567307083	-2.6401105045	-0.010454217	 0.049966
C	-0.4231045158	-3.3498608871	 1.2645925289	-0.288149
C	-1.2809805669	-3.3933390985	 0.0434487446	-0.288145
C	 1.1363257922	-3.2525802635	-0.7470859175	-0.022047
C	 2.0356771992	-3.7678421018	-1.3605291439	 0.087421
C	 3.1263821199	-4.380409619	-2.1050238478	-0.501173
H	 0.7438836824	 1.869798632	-0.6552585199	 0.149912
H	-1.0157973302	 1.8284443699	-0.4967041791	 0.145294
H	 0.0024640377	 1.8799754529	 0.9489662086	 0.145296
H	 0.1203216934	-4.2432077385	 1.5476248409	 0.129233
H	-0.7221495637	-2.7085681384	 2.0848388346	 0.129231
H	-2.1750065011	-2.7821976879	 0.0167645505	 0.129231
H	-1.3325443026	-4.3168417382	-0.5204418736	 0.129229
H	 2.7524721386	-5.0464134489	-2.8908903056	 0.145294
H	 3.7483839116	-3.6183161828	-2.5876411928	 0.149911
H	 3.7775936027	-4.9714113832	-1.4511114019	 0.145296
