18
gdb 55836	4.44421	0.78171	0.77078	1.7391	73.87	-0.2413	-0.0346	0.2068	1496.782	0.144169	-439.088456	-439.078995	-439.078051	-439.124293	33.208	
C	-0.9856579862	 0.394216886	 0.1887543142	-0.463546
C	 0.4746992801	 0.4225041359	-0.2133163169	 0.373461
O	 1.2719757493	 1.1881139879	 0.2745105996	-0.289671
C	 0.9124874465	-0.5447799587	-1.3206164734	-0.258627
N	 0.242368321	-1.8267705673	-1.2716761378	-0.095594
C	 0.710279596	-2.8176327222	-0.2695798256	-0.294255
C	 0.6563932963	-3.879101581	-1.3786686207	 0.395246
O	 0.7331919369	-5.0678284912	-1.4213403632	-0.272375
C	 0.4417906786	-2.7592218691	-2.408358525	-0.284305
H	-1.6326828187	 0.4120979767	-0.6939348857	 0.138862
H	-1.2126504291	-0.5390653354	 0.7144378828	 0.148353
H	-1.1998050992	 1.242341257	 0.8400146178	 0.139348
H	 0.6486696128	-0.0585118252	-2.270412068	 0.131104
H	 2.0137455449	-0.6149560911	-1.284581373	 0.10683
H	 1.7410086568	-2.6531148457	 0.085186823	 0.129295
H	 0.0556354136	-2.9625645285	 0.596141951	 0.135562
H	-0.4092015805	-2.8564166036	-3.0906020675	 0.136765
H	 1.3551888609	-2.5761864143	-2.9972574217	 0.123546
