15
gdb 46231	2.78871	1.37498	1.09189	3.1571	73.87	-0.2477	-0.0458	0.2018	1112.3641	0.109517	-420.569781	-420.561425	-420.560481	-420.603135	30.757	
O	 0.0188986308	 0.0336294841	-0.1620705892	-0.290689
C	-0.022498561	 1.2144124406	 0.0058847326	 0.338965
C	-1.1189010909	 2.2218558281	 0.4258438153	-0.34386
C	-0.0134440282	 3.3107753376	 0.5946577464	-0.341244
C	 1.0042597293	 2.3459584901	-0.0378379714	 0.352778
O	 2.3797121867	 2.2591235239	 0.2365321588	-0.259863
C	 2.0066966799	 2.6105059637	-1.1048201672	-0.282841
C	 2.2876692146	 1.6696515427	-2.150873576	 0.365326
C	 2.5287753293	 0.911956459	-3.0515236394	-0.408927
H	-1.8326329996	 2.4192838121	-0.3788768383	 0.140348
H	-1.6722515316	 1.94078773	 1.3244355243	 0.140843
H	-0.17362614	 4.2502196482	 0.0638734712	 0.120748
H	 0.2222407	 3.5237561524	 1.6397598515	 0.132859
H	 2.182821123	 3.6579882322	-1.3495731659	 0.125775
H	 2.7351604678	 0.2264052354	-3.8363812526	 0.209781
