17
gdb 126491	2.10471	1.58036	0.96453	3.6215	71.01	-0.2618	-0.0289	0.2329	1224.1908	0.135038	-455.107371	-455.098469	-455.097524	-455.14169	31.361	
C	 0.0311203179	 1.5026259518	-0.2725267075	-0.386338
C	-0.0398400919	 0.0266577947	 0.154940829	-0.295034
C	-1.419852824	-0.5372400942	 0.0514156997	 0.250067
N	-2.1423463388	-0.8909751725	 1.0763130392	-0.141898
O	-3.3359157964	-1.3437405501	 0.5805438267	-0.175305
N	-3.3651956555	-1.2733074275	-0.795591455	-0.190264
C	-2.2023171974	-0.782946118	-1.1251773029	 0.362022
O	-1.7847149865	-0.5434121609	-2.3674911915	-0.259988
C	-2.7160640845	-0.8680965012	-3.4067678994	-0.249648
H	 1.0593220413	 1.8688527475	-0.2049838331	 0.122649
H	-0.3078329251	 1.6270545431	-1.3047894291	 0.135794
H	-0.596795134	 2.1256474375	 0.3708914166	 0.132133
H	 0.63000517	-0.5677093482	-0.4775946645	 0.124346
H	 0.2997788564	-0.0907774369	 1.1875408559	 0.134058
H	-3.6350767758	-0.2852497169	-3.2936562302	 0.148313
H	-2.2174739744	-0.616943831	-4.3426507699	 0.140589
H	-2.9648050313	-1.9331614873	-3.3787827539	 0.148505
