21
gdb 59027	3.0035	1.18211	1.05596	1.7147	84.25	-0.2262	0.0192	0.2455	1251.8309	0.182614	-387.090647	-387.081666	-387.080722	-387.124398	34.56	
C	 0.0381610925	 1.5533769153	 0.0079655372	-0.400307
C	-0.0243049192	 0.0207814264	 0.0373169502	 0.008879
O	 0.6873455362	-0.4946429642	 1.1663125444	-0.432764
C	-1.4341383046	-0.5037805474	-0.0005713938	 0.367101
C	-1.9860981369	-1.2625114085	-0.9534318072	-0.217988
C	-3.4291811759	-1.6141433034	-0.6617011849	-0.267349
C	-3.6577923421	-1.0372650073	 0.7353979455	-0.038075
C	-2.8071960591	-1.5426311663	 1.8698896688	-0.28039
C	-2.3979455536	-0.2816305278	 1.1278378793	-0.159905
H	 1.0804066618	 1.8806413895	 0.0552504167	 0.12258
H	-0.4169950675	 1.9480970801	-0.9059652106	 0.117892
H	-0.4923523715	 1.9861436913	 0.8637938215	 0.108663
H	 0.517049146	-0.3688731942	-0.8317316658	 0.087951
H	 0.1647955256	-0.2985919062	 1.9517667827	 0.282314
H	-1.4639074196	-1.6224476574	-1.8336545245	 0.088281
H	-4.1091333095	-1.1620716115	-1.3968775412	 0.106225
H	-3.6084639345	-2.6964670021	-0.7037649337	 0.109801
H	-4.6343237174	-0.6377250387	 0.981626979	 0.085463
H	-3.2110375145	-1.430425023	 2.8710679249	 0.107738
H	-2.1988650388	-2.4290735812	 1.7204180957	 0.118752
H	-2.4364600673	 0.6711785968	 1.6460148559	 0.085139
