22
gdb 122809	3.72351	0.77259	0.6915	3.1995	81.28	-0.2502	0.0401	0.2902	1730.0692	0.192062	-441.482903	-441.471933	-441.470988	-441.520579	37.841	
C	-0.5252642542	 1.2638429789	-0.6386652428	-0.377217
C	-0.20639297	 0.1802372971	 0.4022904976	-0.225241
C	-1.339977744	-0.7940983947	 0.6028711405	 0.383357
N	-1.977512221	-0.8737529842	 1.6917604782	-0.52597
O	-1.5266581293	-1.5154917728	-0.5523616924	-0.253041
C	-2.7217059401	-2.2655837975	-0.7427096727	-0.111063
C	-2.6491402852	-3.6991403261	-0.2387419498	-0.057441
O	-2.8633944979	-3.7274956919	 1.1540301793	-0.221323
C	-2.7205513364	-5.0114244743	 1.7186256752	-0.232139
H	 0.3247536559	 1.94136005	-0.7617571254	 0.11353
H	-0.7500663322	 0.8168159135	-1.6104863396	 0.124913
H	-1.3893782463	 1.8598134669	-0.3284752589	 0.123987
H	 0.6778472305	-0.3833926133	 0.0808731491	 0.110762
H	 0.0129190704	 0.6262208374	 1.3739294906	 0.123419
H	-2.6655746447	-1.6261865399	 1.6925120935	 0.233665
H	-3.5761797293	-1.7541275153	-0.2828033241	 0.121725
H	-2.8728098933	-2.286021401	-1.8263541921	 0.117518
H	-3.4200163315	-4.2962519245	-0.7564282702	 0.090573
H	-1.6670310685	-4.1271995468	-0.4962740616	 0.102662
H	-2.9043852077	-4.9174620034	 2.790853798	 0.137189
H	-3.4438588233	-5.7234711652	 1.2917952591	 0.107624
H	-1.7074130321	-5.4116704429	 1.5626069985	 0.112509
