12
gdb 21805	6.32359	1.17958	1.08154	1.5579	56.64	-0.2737	-0.0649	0.2087	1015.456	0.082934	-414.623819	-414.616887	-414.615943	-414.656874	23.327	
O	-0.3878182255	 0.9633651423	 1.0301444798	-0.219319
C	 0.0584670719	 1.1705107355	-0.0645606145	 0.15462
C	 1.4669126051	 1.7064330872	-0.3244410148	-0.382745
C	 1.4504183242	 2.8822979117	-1.2479920166	 0.305173
N	 1.6803110966	 2.7705085868	-2.531271338	-0.134285
O	 1.5452003206	 4.0249621711	-3.0498269725	-0.142042
N	 1.2269226077	 4.9336891164	-2.0814265155	-0.051162
C	 1.161735038	 4.2515522413	-0.9730810181	-0.099452
H	-0.5288986416	 0.9743973241	-0.9880766439	 0.103406
H	 1.926154438	 1.9523744603	 0.6357550076	 0.144678
H	 2.0418011674	 0.9010015977	-0.7966337534	 0.161198
H	 0.9240442276	 4.7309310756	-0.03589971	 0.159929
