23
gdb 90027	2.81047	1.23553	1.02589	1.3827	85.98	-0.234	0.0812	0.3152	1296.2933	0.204979	-388.281797	-388.272433	-388.271489	-388.316044	36.053	
C	 0.4992353485	 1.4970196157	-0.4741995046	-0.400085
C	 0.0065346015	 0.1033772223	-0.1427490614	 0.159662
C	 0.2669723164	-1.0317114796	-1.155870105	-0.37442
C	 1.0112600427	-1.7139246314	 0.012509753	 0.451758
C	 0.5316705872	-3.0918468697	 0.5268013706	-0.294813
C	 1.7951338761	-3.7192106379	-0.1207065946	-0.239995
C	 2.4379241639	-2.3030667349	-0.1398372277	-0.007172
C	 3.3392109212	-1.8854500824	-1.2896043406	-0.428406
O	 0.8337112883	-0.5572575713	 0.8476207997	-0.334731
H	 1.5312067267	 1.4669617923	-0.838021427	 0.117843
H	-0.1309856917	 1.9529574733	-1.2459831943	 0.113563
H	 0.4674204722	 2.1359842326	 0.4141132213	 0.125892
H	-1.0363419436	 0.1442776293	 0.2016977056	 0.071942
H	-0.6106786296	-1.5566765681	-1.5375973034	 0.103783
H	 0.9034979677	-0.7364174366	-1.9932163544	 0.105759
H	 0.5784988282	-3.118441208	 1.6192376549	 0.111329
H	-0.4510961535	-3.4449686015	 0.2032622816	 0.091728
H	 2.3143366383	-4.5029822838	 0.4344348864	 0.098241
H	 1.5968310954	-4.0830095011	-1.1339573175	 0.097994
H	 2.9464653185	-2.1280897878	 0.8162123586	 0.083995
H	 2.8685166552	-2.0760949787	-2.2606700468	 0.111761
H	 3.5832330333	-0.8182738523	-1.2367746902	 0.1188
H	 4.2832589374	-2.4407132305	-1.2690501343	 0.11557
