20
gdb 59188	2.58141	1.30428	1.22065	1.9924	80.81	-0.2458	0.0043	0.2502	1165.2573	0.169505	-403.096857	-403.087961	-403.087017	-403.130544	33.798	
C	-1.6046850824	-0.434699204	-0.0745239814	-0.386773
C	-0.1327358044	-0.0160300727	-0.0580236862	 0.048563
C	 0.0199671192	 1.5056717957	-0.0006525088	-0.386772
N	 0.5000359842	-0.5917440016	 1.1476638963	-0.093333
C	 2.0232735421	-0.6324130659	 1.2334751706	-0.144673
C	 1.8230175873	-1.7432191365	 2.2967183871	-0.224084
C	 0.8055614452	-2.0867343273	 1.1781219877	-0.144674
C	 1.9327186755	-1.7538322786	 0.1622861945	 0.419017
O	 2.3302913841	-2.0454802244	-0.9212774609	-0.32043
H	-2.1085015756	-0.101893627	 0.8384466194	 0.123233
H	-2.1160589566	 0.0069678688	-0.9349811677	 0.117498
H	-1.7121401345	-1.5212948088	-0.146731945	 0.116037
H	 0.3428406806	-0.3789712887	-0.9840238316	 0.089237
H	-0.430459222	 1.9022399141	 0.914746906	 0.123233
H	 1.0724841808	 1.8044689447	-0.0201216385	 0.116037
H	-0.4724686333	 1.9699612883	-0.8602466354	 0.117498
H	 2.6291595833	 0.2691714503	 1.2908312802	 0.100878
H	 2.645860388	-2.4386481305	 2.4663815879	 0.112317
H	 1.3520390659	-1.3837154659	 3.2123460675	 0.116312
H	 0.0235058526	-2.84277569	 1.1723866083	 0.100878
