20
gdb 7691	3.98451	1.44136	1.37162	1.2704	75.22	-0.24	0.0767	0.3167	1020.0438	0.175889	-348.976933	-348.968547	-348.967602	-349.008916	32.89	
C	-0.0285395777	 1.5059895785	 0.0005144484	-0.404998
C	 0.0221740376	-0.0168382117	 0.034412351	 0.014421
C	 1.1043365371	-0.6413915457	-0.9143738524	-0.265084
C	 1.8423104612	-1.2006009938	 0.3056005487	-0.119564
C	 0.7781225742	-0.5911520394	 1.2423395568	-0.08387
C	 0.959480476	-2.0766209265	 1.1633018067	 0.404182
C	-0.0622198821	-3.0616963273	 0.6416861481	-0.462769
O	 1.6143927708	-2.5325967003	 2.3282507374	-0.475488
H	 0.9682190872	 1.9350732497	 0.1534255551	 0.115385
H	-0.4062000042	 1.8643810909	-0.9634191448	 0.111114
H	-0.6838834958	 1.8981297621	 0.7862215641	 0.113481
H	-0.9902256313	-0.4156100781	-0.0997533422	 0.06532
H	 0.7633569627	-1.366348719	-1.6611574439	 0.090364
H	 1.6749837598	 0.1362164419	-1.4294853425	 0.101309
H	 2.9177179164	-1.2323591949	 0.4393883001	 0.078847
H	 0.9186705125	-0.0876630957	 2.1922001343	 0.087372
H	-0.596032699	-2.6905102802	-0.2356812689	 0.122497
H	 0.4250959032	-4.0024616155	 0.3555088559	 0.103709
H	-0.7967263075	-3.2881937167	 1.4211278993	 0.125374
H	 2.156445199	-3.2896399983	 2.0796839688	 0.2784
