19
gdb 96765	2.28533	1.39596	0.92096	3.6247	82.27	-0.2468	-0.0216	0.2251	1290.4483	0.158239	-419.228084	-419.218494	-419.21755	-419.262994	33.911	
C	 0.1274713539	 1.3462531167	 0.5429333834	-0.367791
N	-0.0904981408	-0.0801251448	 0.3831731733	-0.309859
C	-1.1961733279	-0.6107754315	 0.1468844969	 0.418593
C	-1.5785963897	-2.0802901891	-0.0188660269	-0.098974
C	-1.2608750301	-2.9894147728	 1.1611298093	-0.400016
C	-3.0496848457	-1.5983773885	-0.1884198423	-0.196434
N	-2.5704223947	-0.2085714554	-0.0474920176	-0.135445
C	-3.3128344668	 0.9379270412	-0.1228642238	 0.150902
O	-2.915827954	 2.0760455005	-0.0164451711	-0.300435
H	 0.8908347203	 1.6616231586	-0.1777044583	 0.12541
H	-0.7693686867	 1.9586553488	 0.4153992123	 0.165366
H	 0.5517413101	 1.5210131798	 1.5386713143	 0.124815
H	-1.1720171709	-2.4955603174	-0.9454941608	 0.106707
H	-1.69276285	-2.5976181108	 2.087927181	 0.122179
H	-1.6534178283	-3.998339473	 0.9994635591	 0.118938
H	-0.1785308998	-3.0577731064	 1.2992165637	 0.144459
H	-3.5108853605	-1.8071151628	-1.1573809144	 0.123237
H	-3.7235476159	-1.9062310988	 0.6169436971	 0.121715
H	-4.3787140724	 0.6934335458	-0.3048316952	 0.086633
