17
gdb 1925	4.60054	2.74164	2.39843	1.7581	63.42	-0.2348	0.0844	0.3193	648.2453	0.149988	-309.702237	-309.696182	-309.695238	-309.731606	24.498	
C	-0.0323753292	 1.524954668	 0.0240378856	-0.501842
C	 0.033764781	 0.0168553479	 0.0277359657	 0.291214
C	 0.9626158069	-0.8151472292	-0.9234211111	-0.263833
C	 0.6164338339	-1.9198743169	 0.1021031151	 0.109947
C	 0.6668010444	-0.8229439706	 1.1912176953	-0.263834
O	-0.7915869565	-2.1286568718	-0.09563272	-0.279895
C	-1.2749082336	-0.7693856309	-0.1582305708	-0.098411
H	 0.9596227402	 1.966041256	 0.1644339999	 0.118173
H	-0.4340245104	 1.9011876642	-0.9239993226	 0.118788
H	-0.6791360122	 1.8947390442	 0.8281572019	 0.118787
H	 0.6428192855	-0.9727972958	-1.9568724293	 0.095914
H	 2.0035639886	-0.48850111	-0.8799325582	 0.096328
H	 1.1250590016	-2.8800298379	 0.1697143392	 0.077048
H	 1.6793931921	-0.4970463312	 1.4374077711	 0.096329
H	 0.075853231	-0.9877414653	 2.0960757037	 0.095914
H	-2.0041480671	-0.5883097378	 0.6415608124	 0.094686
H	-1.7568774762	-0.5817917928	-1.1260936679	 0.094686
