15
gdb 52065	2.7474	1.11375	0.90403	4.7394	67.55	-0.2674	-0.0084	0.2589	1263.1777	0.111477	-453.950494	-453.941584	-453.94064	-453.985584	30.778	
O	-0.043236568	 0.6937304026	 0.960316188	-0.31118
C	 0.0983918619	 1.3568204341	-0.0421612344	 0.166069
N	 1.2894502378	 1.5639714998	-0.678048134	-0.278702
C	 2.5335938666	 1.014305811	-0.1865006434	-0.22974
C	 3.5775979502	 2.0936072707	 0.0340579976	 0.21959
C	 5.0016851578	 1.8400406115	-0.2587685256	-0.204562
O	 4.1972556141	 2.5956963909	-1.1600724336	-0.25338
C	 3.2428165586	 3.1161421648	 1.0116573911	 0.280522
N	 2.9676997599	 3.917177327	 1.7972994596	-0.320336
H	-0.735687478	 1.8682009765	-0.5585424831	 0.089637
H	 1.3051043135	 2.1206293785	-1.5184028405	 0.26355
H	 2.3006599013	 0.5007809612	 0.7498819325	 0.170541
H	 2.9512355551	 0.2858567745	-0.8913621194	 0.124887
H	 5.7623220237	 2.4023128849	 0.2773940019	 0.148168
H	 5.2922440756	 0.8486294721	-0.6018489766	 0.134936
