17
gdb 38570	2.76266	2.4302	1.85159	1.9171	69.21	-0.2216	0.0757	0.2974	799.1168	0.139352	-421.799686	-421.793966	-421.793022	-421.829516	24.794	
C	-0.0087316863	 1.5327037872	 0.1699162102	-0.245725
C	 1.5239757162	 1.522646207	-0.0271384235	 0.092713
O	 2.2348657444	 1.3895048598	 1.2002863331	-0.26507
C	 2.544452576	 0.0451750285	 1.4385353539	 0.056173
C	 1.4653659162	-1.0244557121	 1.4461833547	 0.056173
O	 0.1221354794	-0.7047114384	 1.2152606172	-0.26507
C	-0.0135344517	-0.0013907041	-0.0162413457	 0.092713
C	 1.4285524008	 0.0769492392	-0.6362214419	-0.102298
C	 2.3158886643	-0.8121641571	 0.212291636	-0.168037
H	-0.3769510616	 1.9110072121	 1.1249931517	 0.115491
H	-0.5173330712	 2.0398945469	-0.6562472352	 0.097316
H	 1.9723132142	 2.3376291875	-0.6015687404	 0.078588
H	 3.4051516614	-0.0716820486	 2.0882700184	 0.103284
H	 1.579307613	-1.8815264435	 2.1012105882	 0.103284
H	-0.8365069611	-0.446577168	-0.5816608409	 0.078588
H	 1.5203180191	-0.0233425685	-1.7152498897	 0.077894
H	 3.0156422388	-1.5211226061	-0.2098165961	 0.093982
