15
gdb 129644	2.40927	1.91725	1.07094	1.1217	77.34	-0.1923	-0.0437	0.1487	1044.7155	0.115609	-446.297558	-446.289733	-446.288789	-446.329468	30.618	
N	-0.061006406	 1.3672249222	 0.1714716344	-0.58027
C	-0.0644926903	-0.0259657271	 0.0760888962	 0.312324
C	-1.2361282168	-0.7311166765	-0.0090091682	 0.23295
N	-2.4816174854	-0.1461332961	-0.0606864093	-0.603596
C	-1.1651148888	-2.1723048997	-0.0849458823	 0.379968
N	-2.2296905259	-2.8909864969	-0.1690684547	-0.588475
N	 0.1521106926	-2.6213226675	-0.0363713083	-0.319715
N	 1.2859200701	-1.8906952485	 0.0818965841	-0.077051
N	 1.1728740975	-0.6256714548	 0.1264746385	-0.26757
H	 0.8799600122	 1.7339282409	 0.0997845262	 0.257594
H	-0.6780181731	 1.8145209104	-0.4968904582	 0.253647
H	-2.5891435222	 0.68798961	 0.5006623637	 0.255676
H	-3.2218809932	-0.8290197701	 0.0551421958	 0.274803
H	-2.0300657001	-3.8895771947	-0.1958085128	 0.202458
H	 0.3344712894	-3.6142467815	-0.0593334251	 0.267257
