18
gdb 64940	3.74835	0.70793	0.62977	4.0562	86.37	-0.2473	0.0193	0.2666	1763.7886	0.146105	-364.789636	-364.779901	-364.778956	-364.826332	34.541	
C	-0.0389243318	 1.5144667012	-0.0002728223	-0.45732
C	 0.015822693	-0.0063521559	 0.0017267483	 0.176932
C	 1.3621829032	-0.6819454368	-0.2205332953	-0.286862
C	 0.7401621252	-0.7025545929	 1.1459144667	-0.28688
C	-1.1485683236	-0.6587255988	-0.5381517025	 0.054641
C	-2.1318403369	-1.183474855	-0.9934831521	 0.069895
C	-3.3220687316	-1.8269395558	-1.5447360861	-0.475934
C	-3.2317045986	-3.2937229556	-1.5434129522	 0.279278
N	-3.1718852669	-4.4467735052	-1.5474418083	-0.303092
H	 0.8799024117	 1.9298896734	 0.4243152635	 0.116945
H	-0.1494016105	 1.9015472327	-1.0180196639	 0.127647
H	-0.8833239884	 1.8772350364	 0.5940609982	 0.127619
H	 1.3741644266	-1.6030532705	-0.7906072343	 0.130612
H	 2.2120215591	-0.0303285615	-0.3931413458	 0.119098
H	 1.1607694461	-0.0652359887	 1.9163298708	 0.119085
H	 0.3286211649	-1.6377019047	 1.5060548655	 0.130497
H	-4.2178131399	-1.5423127759	-0.9769624036	 0.1789
H	-3.4994011514	-1.4994687264	-2.5777152265	 0.178939
