15
gdb 24779	4.058	1.42173	1.06717	7.7111	75.93	-0.2275	-0.0275	0.2	1061.3961	0.115379	-416.849075	-416.842165	-416.84122	-416.880727	26.22	
O	 0.0135054553	-0.031196917	 0.0027539209	-0.360897
C	 0.0101055803	 1.1825251978	 0.0090382358	 0.34967
C	-1.2504065174	 1.9626716229	 0.0306419184	-0.22857
C	-1.2653973082	 3.3152929754	 0.0375115651	-0.017767
N	-0.0430917455	 3.9270104708	 0.0232302973	-0.067032
C	 0.6292470526	 5.2356625764	 0.02113901	-0.182035
C	 1.9834493432	 4.4376155127	-0.001670705	-0.363606
C	 1.1087686313	 3.1901544718	 0.003785667	 0.438339
N	 1.2349596555	 1.9202003671	-0.0041754405	-0.403532
H	-2.1728912995	 1.3969133025	 0.0407998496	 0.120784
H	-2.155193668	 3.9336482067	 0.0530379279	 0.140392
H	 0.4200497615	 5.8360305945	-0.8681413179	 0.137668
H	 0.4445837804	 5.82624756	 0.922327059	 0.137675
H	 2.5863759385	 4.5734939908	-0.9007861282	 0.14945
H	 2.6109038101	 4.5640901177	 0.8818986504	 0.149459
