15
gdb 45035	2.44546	1.77763	1.14681	4.0716	66.86	-0.2566	-0.0305	0.2261	1018.4059	0.115313	-453.999283	-453.992152	-453.991208	-454.031185	27.303	
O	-0.0613152829	 0.0084059862	 0.4056097791	-0.338381
C	-0.0820518317	 1.1913771579	 0.16228464	 0.41641
C	-1.3704607051	 1.9513016729	-0.1228317178	-0.333766
C	-1.2841836392	 3.4468752711	 0.0614086272	-0.042814
N	-0.6761899173	 3.8894592907	 1.3140584416	-0.325687
C	 0.0507379691	 4.1060329434	 0.0365918827	-0.163522
C	 1.2867855722	 3.2809291904	-0.1254097963	 0.475636
O	 2.3748325375	 3.7494414106	-0.3692332646	-0.348385
N	 1.1033067402	 1.9120602436	 0.0409894698	-0.373214
H	-1.6413342628	 1.721189197	-1.161364986	 0.143895
H	-2.1469118643	 1.5158764716	 0.5114814064	 0.150918
H	-2.1181527269	 4.0191782031	-0.3376924657	 0.104948
H	-1.0768605168	 4.7713094691	 1.6227720819	 0.248365
H	 0.1545546468	 5.1160242383	-0.3435246847	 0.118932
H	 1.9505838211	 1.3585452639	 0.0871842065	 0.266664
