20
gdb 78859	2.78951	1.75247	1.35381	1.6433	82.23	-0.2298	0.0893	0.3191	1018.5306	0.171589	-365.928077	-365.920484	-365.919539	-365.959647	31.133	
C	 0.0305308215	 1.5971992874	-0.0656717586	-0.419526
C	 0.1002201829	 0.0819393959	-0.097969833	 0.092118
C	 0.7389274483	-0.7059978388	-1.2688802571	-0.212591
C	 1.2445238999	-1.6841182815	-0.1326649817	-0.033805
C	 2.3562095586	-0.725250457	 0.0679443007	-0.148276
N	 1.06701393	-0.5843080746	 0.8497632059	-0.169355
C	 2.1752895916	-0.1668155235	-1.3244932765	 0.435152
C	 3.1438994364	-0.3830877284	-2.4458473392	-0.35681
C	 2.762642002	 1.0233382728	-2.015618622	-0.340419
H	 1.0047681513	 2.0551463178	-0.2466781322	 0.130347
H	-0.6703022835	 1.9670021007	-0.8226561261	 0.110995
H	-0.3260187083	 1.9308890125	 0.9142730379	 0.1241
H	-0.8821719331	-0.3420521917	 0.1382928455	 0.076862
H	 0.1969149405	-0.9536180681	-2.180934549	 0.067216
H	 1.1181139865	-2.7366524406	 0.0834843055	 0.096103
H	 3.2617599355	-0.8269949804	 0.6520990465	 0.094458
H	 4.1423622267	-0.734601377	-2.2048524697	 0.113171
H	 2.7640225428	-0.7458504745	-3.3958469872	 0.112509
H	 2.129429523	 1.6016660706	-2.6810024686	 0.113642
H	 3.5067646875	 1.6133370585	-1.4892254511	 0.114107
