17
gdb 37998	3.34585	1.86326	1.53512	1.9016	77.48	-0.2326	-0.019	0.2136	884.8167	0.138111	-384.58722	-384.58103	-384.580086	-384.617411	26.404	
C	-0.0905940537	 1.3469975985	 0.2274293835	-0.277187
C	 1.3987563186	 1.5092945943	-0.2102840949	-0.077298
C	 2.3694610957	 0.2835259464	-0.2153946749	-0.044136
C	 2.4594205345	-1.0780120262	 0.456998483	 0.058506
O	 1.9050182769	-1.4102393838	 1.7261057914	-0.256794
C	 1.2591822131	-1.9362130826	 0.5319911033	-0.032639
C	 0.0015172234	-1.157502457	 0.3554957422	-0.152327
C	 0.0572093128	-0.0398813425	-0.3772832095	 0.158989
C	 1.2624388065	 0.39123986	-1.2153185848	-0.162569
H	-0.3621835938	 1.4038078298	 1.2849225071	 0.109767
H	-0.6786518881	 2.0640630541	-0.3566288611	 0.109162
H	 1.8566225565	 2.4805333563	-0.3737605191	 0.095156
H	 3.3446718762	 0.6321371515	-0.5525859411	 0.085044
H	 3.4236091469	-1.5554868671	 0.2769947941	 0.089167
H	 1.3295986714	-3.0158270347	 0.4248514017	 0.099036
H	-0.7171416292	-1.229683237	 1.1698291734	 0.10308
H	 1.3476146022	 0.3950506799	-2.2943712641	 0.095041
