23
gdb 68406	2.14093	1.79255	1.52104	1.5368	84.08	-0.2381	0.0795	0.3176	1058.7159	0.205227	-388.289573	-388.280584	-388.27964	-388.322144	36.445	
C	-0.0912076581	 1.5113886694	-0.0156202271	-0.508864
C	 0.0283317704	 0.0122564514	-0.0248056361	 0.396968
C	 0.4423733071	-0.7986863447	-1.2809949496	-0.283646
C	-0.444590795	-1.8181000236	-0.5465454792	 0.081037
C	 0.3753537443	-2.1866238688	 0.7029224052	-0.273993
C	 0.7410837831	-0.7280721644	 1.1645137549	 0.310771
C	 2.2503484964	-0.4699427494	 1.243747694	-0.458817
C	 0.0810083584	-0.380808631	 2.5049349299	-0.45023
O	-1.2588979132	-0.7032646669	-0.066728412	-0.335921
H	 0.9002028391	 1.9755257941	-0.0368968984	 0.122348
H	-0.6515353332	 1.857159534	-0.8883902717	 0.125773
H	-0.6111127356	 1.858500379	 0.8822934588	 0.130922
H	-0.0395137609	-0.4078988949	-2.1784386197	 0.104108
H	 1.4937060856	-1.0308132475	-1.464774774	 0.091319
H	-1.0133193695	-2.5962214537	-1.0559435574	 0.073436
H	-0.2292505015	-2.7177229063	 1.4421334429	 0.101094
H	 1.2530400148	-2.7969546879	 0.4687310526	 0.092046
H	 2.7675883209	-0.7117339443	 0.310722888	 0.110837
H	 2.4617802431	 0.5787646905	 1.4820327863	 0.112029
H	 2.7011709115	-1.0783549402	 2.0354559781	 0.115779
H	 0.4424890023	-1.0487512919	 3.2945774584	 0.106781
H	 0.3119802314	 0.6446101767	 2.8149313749	 0.105166
H	-1.0041032114	-0.4875832395	 2.4364120812	 0.131055
