18
gdb 72002	2.7216	1.6409	1.18861	3.2376	77.45	-0.2467	-0.0311	0.2156	1057.8853	0.147246	-401.909346	-401.901352	-401.900408	-401.941773	30.582	
C	-0.1003642855	 1.4910577721	-0.0026369889	-0.504986
C	 0.0835517408	 0.0036336611	-0.0507846156	 0.29553
C	-0.0270028635	-0.8866109842	-1.2820860313	-0.283618
C	-0.249347346	-2.0123519828	-0.2570889726	-0.004712
C	 1.0965506772	-2.1932902466	 0.4633386229	-0.295169
C	 0.8162506965	-0.8062150457	 1.0091224376	 0.207763
C	 1.3675617533	-0.2344651351	 2.2500139337	 0.053938
O	 2.3453131242	-0.6794250297	 2.8034343957	-0.262103
N	-0.6939985975	-0.9400332531	 0.7985340276	-0.228287
H	 0.7780541594	 2.0078088203	-0.4037684489	 0.131824
H	-0.9695075337	 1.7812885614	-0.6018985416	 0.130896
H	-0.2685242882	 1.843394376	 1.0181438893	 0.136819
H	-0.9413752039	-0.6493220453	-1.8330603116	 0.114814
H	 0.8166598071	-0.9677208728	-1.9746542177	 0.103463
H	-0.9105143286	-2.8517519632	-0.4594916831	 0.092141
H	 1.0459068246	-2.9330838114	 1.2649859876	 0.126425
H	 1.9899290617	-2.362456342	-0.1442465332	 0.107013
H	 0.813879662	 0.6366042811	 2.6616978602	 0.078248
