17
gdb 65546	2.95485	1.54399	1.32316	2.6643	73.3	-0.2404	0.0288	0.2692	999.0026	0.13511	-421.760603	-421.752704	-421.75176	-421.792612	31.385	
O	-0.0717501017	 1.3707159127	 0.0180917336	-0.472506
C	 0.0080960266	-0.0456211681	 0.0207287707	 0.272331
C	 0.4511426585	-0.64678652	 1.4109911376	-0.295864
C	-0.8842339072	-1.3323845648	 1.7615892176	 0.081626
C	-1.2711501797	-2.0764152466	 0.4632054468	-0.243693
C	-1.4478579368	-0.6024706417	 0.0466976553	 0.045417
O	-1.8563546821	-0.2988196262	 1.4073414711	-0.293023
C	 0.7951312032	-0.5252128687	-1.1124497151	 0.268076
C	 1.4564504472	-0.8890175265	-2.0491868891	-0.479312
H	 0.8105240414	 1.7151092073	-0.155782814	 0.28327
H	 1.2954133435	-1.3355582235	 1.3404625219	 0.109539
H	 0.6850903781	 0.1647594823	 2.1022184122	 0.118711
H	-1.0171956993	-1.7469183105	 2.7604508389	 0.084191
H	-0.5300757791	-2.6944130544	-0.0477845046	 0.109646
H	-2.2321310423	-2.5827932312	 0.5524766054	 0.116759
H	-2.1217213272	-0.2439667523	-0.7293880702	 0.09525
H	 2.0331385369	-1.2139605278	-2.8799617981	 0.199583
