14
gdb 25791	4.1957	1.1147	0.88072	1.2457	68.12	-0.2122	-0.0258	0.1864	1211.0768	0.102721	-470.088748	-470.080646	-470.079702	-470.121523	29.981	
N	-0.0889549149	 1.3088543788	-0.0347302917	-0.537986
C	-0.0019671419	-0.04363618	 0.010594886	 0.342902
O	 1.0429846104	-0.6773757455	 0.0564764704	-0.395996
C	-1.307337643	-0.7324959906	-0.0021760696	 0.277932
N	-2.5245619242	-0.1993651635	-0.0510764689	-0.416634
C	-3.372672215	-1.2595931306	-0.0399962332	 0.344159
O	-4.7128022524	-1.1105625871	-0.0797917567	-0.435472
C	-2.6834082187	-2.4551865795	 0.0156037859	-0.189266
N	-1.361300517	-2.0817528438	 0.0386810896	-0.262306
H	 0.7550220648	 1.8548196249	-0.0321747037	 0.265331
H	-0.9902192099	 1.7547811181	-0.0735392374	 0.276611
H	-4.8835572109	-0.1617125179	-0.1144540149	 0.302666
H	-3.009749273	-3.4793462714	 0.0391953094	 0.142992
H	-0.5375778442	-2.6616663019	 0.0785572946	 0.285069
