15
gdb 12480	3.47577	2.16734	1.59401	4.1636	58.67	-0.2567	0.0361	0.2929	804.4485	0.120592	-436.930975	-436.924097	-436.923153	-436.962476	25.333	
N	 0.1181006326	 0.9295247347	 0.7526765962	-0.534999
C	-0.0551915674	 0.0385709364	-0.1200202975	 0.46963
O	-1.2728471823	-0.5341833133	-0.256051793	-0.218328
C	-1.4405331857	-1.4534797122	-1.3298552698	-0.101509
C	-0.7220850736	-2.7798763816	-1.0357056753	-0.083743
O	 0.5095997333	-2.5792302087	-0.3538349428	-0.21404
C	 1.3872473324	-1.6933468614	-0.9526031925	-0.003294
O	 0.8739235638	-0.3547830495	-1.0536064708	-0.273575
H	 1.0854527823	 1.2434803426	 0.7287437993	 0.228495
H	-2.5170905556	-1.6223111857	-1.4093277341	 0.127884
H	-1.0875059856	-1.0094788978	-2.264621723	 0.127269
H	-1.3141094199	-3.3987831132	-0.3579473762	 0.132917
H	-0.5699957111	-3.3343859908	-1.9741313354	 0.104306
H	 2.2830345417	-1.6871957012	-0.3230173948	 0.128921
H	 1.6432057453	-1.9715023883	-1.9848234703	 0.110065
