16
gdb 57579	3.22486	0.77258	0.72549	4.0886	85.21	-0.2723	-0.0648	0.2076	1567.1378	0.120998	-400.750938	-400.740974	-400.740029	-400.786472	34.499	
C	 0.0119714013	 1.618774383	-0.0238550702	-0.405715
C	 0.0048439974	 0.0801550858	-0.0685853631	-0.065121
C	 0.6428161435	-0.5286700787	 1.2104455037	-0.415653
C	-1.4450727121	-0.4564846629	-0.1361089682	 0.160535
O	-2.4186950571	 0.2310986889	-0.0125826359	-0.229513
C	 0.7013568896	-0.4182488398	-1.2487105924	 0.195136
C	 1.2524396709	-0.848139225	-2.2355004853	-0.062006
C	 1.8857335949	-1.3270966311	-3.3460509129	 0.210185
N	 2.4250491487	-1.7366158516	-4.2900332573	-0.332143
H	 1.0354868992	 1.9911367739	 0.0614661853	 0.130036
H	-0.4419041584	 2.0375099876	-0.9240755991	 0.144471
H	-0.5674524475	 1.9597189889	 0.836793064	 0.140723
H	 0.1195406419	-0.1545043334	 2.0949202859	 0.140886
H	 0.5868967751	-1.6206734485	 1.2024401633	 0.138968
H	 1.6947658661	-0.2408611179	 1.2755426163	 0.14617
H	-1.5103551836	-1.5559311792	-0.2835901239	 0.103041
