18
gdb 94228	3.22296	1.0858	0.9858	2.0794	71.97	-0.2655	0.0199	0.2854	1233.6494	0.146489	-439.089984	-439.080863	-439.079918	-439.123925	34.166	
O	 0.3908075008	 0.9126064829	-0.6839576556	-0.432647
C	 0.1418032027	-0.1919958448	 0.1272376946	 0.133079
C	 0.0484110836	-0.0531740029	 1.6743222727	-0.26672
C	-1.1197511195	-1.0794692642	 1.647129995	-0.274692
C	-1.307245993	-0.767761893	 0.1368670366	 0.355266
O	-2.161488395	 0.3421645336	-0.0798672777	-0.491059
C	-1.6377357942	-1.9050756531	-0.8435315933	-0.401536
C	-3.0226601091	-2.3442230039	-0.6872678815	 0.244028
N	-4.1292441346	-2.6332643348	-0.5175252791	-0.308239
H	-0.3919832699	 1.4755782383	-0.6249637899	 0.295556
H	 0.8639654417	-0.9674702119	-0.1486595169	 0.088645
H	 0.9369358401	-0.3024674633	 2.2563644743	 0.106399
H	-0.2989303981	 0.9441034873	 1.9528890027	 0.114762
H	-0.7823955334	-2.1057653021	 1.8159968811	 0.108429
H	-1.9828945936	-0.882329968	 2.2859676772	 0.112649
H	-3.0614581628	 0.0987346073	 0.167066664	 0.300505
H	-1.4901150875	-1.5447915621	-1.8677077976	 0.166076
H	-0.9663238783	-2.7555642652	-0.6867857866	 0.149498
