19
gdb 91825	3.42043	1.30156	1.08891	1.8784	77.64	-0.23	0.0024	0.2324	1155.1809	0.158528	-423.0106	-423.002223	-423.001279	-423.04318	33.123	
C	 0.2138502206	 1.5514713076	-0.0660644198	-0.39517
C	-0.0305230352	 0.047992419	 0.008696221	 0.09132
O	 0.5361020399	-0.5082999114	-1.1786735821	-0.269876
C	 0.6109866073	-1.9042118614	-1.2203159153	 0.012256
C	 1.9862121543	-2.5206337933	-1.0775999645	-0.332284
C	 0.9818572711	-2.6387004085	 0.0400022761	 0.34445
O	 0.494382608	-3.9416500681	 0.2324913263	-0.45906
C	 1.0651764435	-1.7989628925	 1.2617562384	-0.184999
C	 0.5575766285	-0.5680633823	 1.2618018813	-0.064092
H	 1.2870024258	 1.7623277659	-0.0464933065	 0.127606
H	-0.2009867655	 1.9529051315	-0.9939993795	 0.12656
H	-0.2600149514	 2.0598142546	 0.7790691537	 0.113493
H	-1.1216482307	-0.1309146084	 0.0088056113	 0.076366
H	-0.0957999528	-2.3797688387	-1.8981367826	 0.092422
H	 2.1932262115	-3.4283681712	-1.6335589496	 0.121401
H	 2.8159827002	-1.8361766756	-0.9475901289	 0.123859
H	-0.3908982368	-3.8689697935	 0.6080486411	 0.27914
H	 1.5042128102	-2.2456331107	 2.1499931218	 0.099369
H	 0.5558961714	 0.0448004971	 2.1592026578	 0.097239
