18
gdb 92079	2.85173	1.50015	1.10621	2.5538	71.3	-0.2364	-0.0313	0.2051	1090.9062	0.148495	-439.077796	-439.069884	-439.06894	-439.111068	30.492	
O	 0.2091578343	 1.3042046128	 0.4160048589	-0.436858
C	 0.0290030878	-0.0409465602	 0.0874394352	 0.049817
C	-1.4616463492	-0.3792410459	-0.1164053799	-0.194541
N	-1.6497593652	-1.8213873924	-0.3089375097	-0.092924
C	-2.0218022402	-2.2759367838	-1.6455101319	-0.24115
C	-0.6508094821	-2.5318346384	-1.1306786681	-0.01933
C	 0.5667303746	-1.8093997123	-1.7068331838	-0.343446
C	 0.7399050146	-0.3867116613	-1.2080149837	 0.365292
O	 1.3819396033	 0.4549643812	-1.798425712	-0.337308
H	 0.7858301515	 1.6619541232	-0.2789440798	 0.293637
H	 0.4169220844	-0.6981741429	 0.8841920409	 0.100875
H	-2.0171574984	-0.0610922026	 0.7706204976	 0.127919
H	-1.838147713	 0.2123216008	-0.9634868487	 0.104343
H	-2.7558140966	-3.0761822018	-1.6908869705	 0.120399
H	-2.1277973993	-1.5208885296	-2.4246828043	 0.113124
H	-0.4378681155	-3.5291381473	-0.7534876465	 0.101849
H	 1.4730971931	-2.3444973661	-1.3942834909	 0.14689
H	 0.584649166	-1.7999488835	-2.8010851028	 0.141411
