22
gdb 101457	3.32812	0.98095	0.80939	1.4654	82.76	-0.2456	0.0234	0.269	1469.5127	0.19464	-404.37258	-404.362999	-404.362055	-404.407543	35.102	
C	-0.1256259178	 1.5762771638	-0.0308909402	-0.390478
C	-0.0661047114	 0.0463200679	-0.0913358471	-0.174432
C	 0.7663843157	-0.5182095258	-1.2594071972	 0.028319
C	 2.2454596144	-0.1220115488	-1.1633740133	-0.398509
C	 0.6190329077	-2.0503352655	-1.327942086	 0.018832
C	-0.8270000502	-2.5478183075	-1.6117256092	-0.125797
O	-0.6830367687	-3.4584905902	-2.729586825	-0.223428
C	 0.6171441005	-3.365483866	-3.0928276303	 0.115617
N	 1.4140527152	-2.6424004671	-2.4270847409	-0.276504
H	 0.8591179204	 2.0175648869	 0.1468187999	 0.122653
H	-0.5130724861	 1.9938131919	-0.9671129508	 0.114551
H	-0.7845262341	 1.9081348317	 0.7775536781	 0.1125
H	 0.3419515845	-0.3426020993	 0.852232546	 0.094626
H	-1.0929464655	-0.3362097111	-0.1553297191	 0.093493
H	 0.3597003011	-0.1149262174	-2.1993596086	 0.069222
H	 2.8161719347	-0.5754139983	-1.975629236	 0.141755
H	 2.3735831428	 0.9626364171	-1.2133770449	 0.109415
H	 2.6784036674	-0.4664192393	-0.2159161695	 0.106845
H	 0.9951802636	-2.4685721245	-0.3838216604	 0.084315
H	-1.2839088549	-3.0953846382	-0.7849460451	 0.122212
H	-1.5014437623	-1.742211663	-1.9220047091	 0.114642
H	 0.879038113	-3.9539319474	-3.9656429112	 0.14015
