18
gdb 33146	3.00532	1.2636	0.94747	3.1319	75.12	-0.1755	0.0526	0.228	1222.5755	0.148827	-439.115883	-439.107197	-439.106253	-439.14925	33.215	
O	 0.0682023797	 0.317004836	 1.1837448535	-0.410962
C	-0.0711544313	 0.1960757083	-0.2387760562	-0.0741
C	-1.377605394	-0.5404209191	-0.5357837748	-0.332485
C	-1.373762614	-2.0056659743	-0.2034335532	 0.15402
C	-1.5639732654	-3.0424556484	-1.0957827697	-0.16929
N	-1.5463864053	-4.2193687263	-0.4049233439	-0.242835
C	-1.3323628011	-3.9736092572	 0.9365990401	-0.169833
C	-1.2248435631	-2.6099367046	 1.0883101244	 0.221023
O	-1.0396926953	-1.9770138626	 2.2764956946	-0.462672
H	 0.9812817718	 0.5344328556	 1.3921962426	 0.296813
H	-0.0928701369	 1.1991559037	-0.6888197128	 0.093326
H	 0.7765772655	-0.3572912464	-0.6636245535	 0.101723
H	-2.1758534195	-0.014919727	 0.007080053	 0.117193
H	-1.5957406936	-0.4144596572	-1.6023687771	 0.102401
H	-1.7259608423	-3.019926433	-2.1622662681	 0.108561
H	-1.657353372	-5.130356961	-0.8104335537	 0.257627
H	-1.2774836498	-4.7668830063	 1.662381845	 0.112378
H	-0.6749903835	-1.0969375801	 2.0801086797	 0.297113
