18
gdb 89553	5.76084	0.9	0.89219	4.5007	73.77	-0.2282	0.0095	0.2376	1341.6485	0.146797	-439.08561	-439.077328	-439.076384	-439.118739	31.001	
C	 0.2000875611	 1.556815159	 0.0704395908	-0.323867
N	 0.0033413425	 0.1260385206	 0.0960905135	-0.06586
C	-1.3171274888	-0.4020257969	 0.4893748209	-0.2268
C	-0.6020782651	-1.5131435268	 1.2754902634	 0.426975
C	 0.673145587	-0.6639320065	 1.1470262272	-0.226802
C	-1.1124907946	-2.1859215028	 2.5522799867	-0.506171
C	-1.0081803831	-3.4678651204	 1.725827871	 0.441931
O	-1.206061898	-4.6307915569	 1.8618098159	-0.314773
O	-0.5522751224	-2.8168944956	 0.6055678358	-0.268552
H	 1.2455707298	 1.7831550455	-0.1625436005	 0.127415
H	-0.4210525657	 2.0024555398	-0.713228421	 0.127415
H	-0.0523800892	 2.0486269218	 1.0303708529	 0.089283
H	-1.8834248464	 0.2669923297	 1.1596033799	 0.090117
H	-1.9608069062	-0.7186794524	-0.33746453	 0.124117
H	 1.5833494542	-1.1850608907	 0.8336426644	 0.124118
H	 0.8753654989	-0.0960471175	 2.0712017899	 0.090117
H	-0.4463620172	-2.1497294401	 3.4165493592	 0.145672
H	-2.127555867	-1.9284464298	 2.8610698302	 0.145665
