13
gdb 28667	5.78625	1.02109	0.86792	3.8646	76.28	-0.2567	-0.0511	0.2056	1211.0242	0.09221	-415.69681	-415.689886	-415.688942	-415.728338	26.171	
O	 0.0730899901	 1.3334675816	 0.0867504744	-0.403172
C	 0.0628259261	-0.0071631506	 0.0574567013	 0.451408
N	 0.0970507924	-0.5938952432	-1.1362086334	-0.35792
C	 0.087250415	-1.9240621626	-1.1769286533	-0.051368
C	 0.0430164219	-2.7269243053	-0.0328042326	 0.114216
C	 0.0073829007	-2.0841434479	 1.2181752448	-0.141305
C	 0.0171467189	-0.7068730044	 1.2720510433	-0.199925
C	 0.0346689283	-4.1482441853	-0.1411361959	 0.204591
N	 0.0278983961	-5.3030134256	-0.2294875909	-0.331131
H	 0.1057810205	 1.6277474722	-0.835214505	 0.307142
H	 0.1156953182	-2.3817227945	-2.1613894662	 0.14112
H	-0.0273479664	-2.6737826134	 2.1269270521	 0.137738
H	-0.0090146718	-0.1647183511	 2.2084489013	 0.128605
