25
gdb 96582	2.09862	1.40886	0.97728	1.2059	88.51	-0.2396	0.0794	0.3189	1339.5036	0.23122	-389.494215	-389.484911	-389.483966	-389.527856	36.7	
C	 0.1741518615	 1.662305703	 0.0131832386	-0.408874
C	 0.0416315337	 0.1313121594	 0.0165033869	 0.041067
C	 0.6775715173	-0.4364185127	-1.2734455958	-0.18591
C	 1.0001212098	-1.9364573053	-1.3296420507	-0.208212
C	-0.1673914392	-2.9282641061	-1.2196984308	-0.187868
C	-0.9729403848	-2.9467586653	 0.097376082	-0.201942
C	-0.1771758437	-2.7635632231	 1.4071099333	-0.066678
O	-0.2018298117	-1.4501709624	 1.9379408402	-0.246974
C	 0.6080650688	-0.4579008099	 1.3339949876	-0.085816
H	 1.2239090855	 1.9664057542	 0.1088739523	 0.112691
H	-0.2062968277	 2.0905946887	-0.9201926037	 0.111124
H	-0.3812070091	 2.11280681	 0.8421636032	 0.113317
H	-1.0275211221	-0.1050896253	 0.024819061	 0.08429
H	 0.0297292211	-0.1736025745	-2.1206930371	 0.091376
H	 1.620272726	 0.101882229	-1.4469516974	 0.089434
H	 1.50410117	-2.127176014	-2.2854447272	 0.091409
H	 1.7483821849	-2.1749151419	-0.5644827427	 0.095363
H	-0.8632402611	-2.7652404984	-2.053122437	 0.093027
H	 0.2513027655	-3.9306401314	-1.3775290183	 0.094274
H	-1.7579094638	-2.184231022	 0.0922423576	 0.111222
H	-1.4980837104	-3.9080602464	 0.1483670923	 0.091422
H	-0.6354734985	-3.3749887267	 2.1910574896	 0.103083
H	 0.860678119	-3.1162191119	 1.2932770017	 0.085726
H	 1.6363094934	-0.8276268578	 1.1922451882	 0.084897
H	 0.6599176756	 0.3377672408	 2.0848797663	 0.098552
