17
gdb 68348	2.98252	1.58973	1.23323	3.7622	76.94	-0.2457	-0.0736	0.1722	1016.6059	0.13652	-421.813329	-421.806009	-421.805065	-421.844996	29.404	
O	 0.0058399223	 1.4256532761	 0.0118255451	-0.492978
C	-0.0136363352	 0.0478535905	 0.0114952931	 0.340455
C	 0.3412991939	-0.8068696588	 1.2803130048	-0.262757
C	-0.3738786871	-1.9251955742	 0.4354209996	-0.088948
C	-1.3453910981	-0.7829069102	-0.0414104692	-0.262787
C	 0.5625187318	-2.0049288589	-0.760936038	-0.167136
C	 0.8068385968	-0.7117844454	-1.0494267391	 0.194063
C	 1.6207955052	-0.1086729591	-2.0777802206	 0.033411
O	 1.7431906097	 1.1002869829	-2.2125507715	-0.306999
H	 0.5809115672	 1.7085677469	-0.7178002808	 0.299204
H	 1.3969579601	-0.9490296154	 1.5229216566	 0.098548
H	-0.2321986107	-0.5130206487	 2.1633431509	 0.109791
H	-0.7371141573	-2.8467761661	 0.8822527823	 0.079071
H	-2.0605021116	-0.487038017	 0.7306446831	 0.109785
H	-1.8356731937	-0.9031132533	-1.0102539332	 0.098545
H	 0.9326626268	-2.8971316736	-1.2495468977	 0.127069
H	 2.1457248	-0.8087792459	-2.7599839152	 0.091663
