21
gdb 59679	2.07809	1.44916	0.94877	4.4523	82.83	-0.2478	0.0152	0.263	1290.0118	0.182587	-383.265723	-383.256044	-383.2551	-383.300416	35.651	
C	-0.1350224819	 1.5339841669	 0.0734665655	-0.396884
C	-0.0156529804	 0.0047390997	-0.0196142061	 0.022605
C	 0.5844447585	-0.3915762901	-1.3775003438	-0.405879
C	 0.826187744	-0.542613935	 1.139120342	 0.004585
C	 0.2822356675	-0.3154657836	 2.5793467268	-0.191928
N	-0.1493552715	-1.7286288165	 2.6321248305	-0.297433
C	 0.7072910323	-2.0756099025	 1.4827586079	-0.149291
C	 0.0888249082	-3.0045757605	 0.5330315579	 0.31571
N	-0.3878061569	-3.7553707473	-0.2057492701	-0.340175
H	 0.852814421	 2.007483127	 0.0194998443	 0.11194
H	-0.7318278394	 1.9217018988	-0.7578918951	 0.118933
H	-0.6122791645	 1.8593936825	 1.0022471508	 0.115522
H	-1.0229771482	-0.4256914483	 0.0584844784	 0.097596
H	 1.5838879778	 0.0443886992	-1.4982030931	 0.10724
H	 0.6680012372	-1.474268883	-1.4943263426	 0.140556
H	-0.0390707149	-0.0187973966	-2.1961478424	 0.116671
H	 1.865878431	-0.2312726889	 1.0056073609	 0.082484
H	 1.0751283399	-0.0490341089	 3.2910451138	 0.096781
H	-0.5415567714	 0.3955268874	 2.6940364917	 0.113406
H	 0.0457094267	-2.2355057027	 3.4877822507	 0.228285
H	 1.6911663252	-2.4867433676	 1.7508156021	 0.109276
