15
gdb 131611	4.23314	0.92626	0.8882	1.818	63.21	-0.2664	-0.0545	0.2119	1287.8802	0.111948	-491.045343	-491.037088	-491.036144	-491.079174	29.725	
O	 0.1116130042	 1.4050685531	-0.0571781462	-0.419202
C	 0.0685846427	 0.0140056893	 0.14857084	-0.065627
C	-1.3760012471	-0.4997102391	 0.019036734	-0.029502
O	-1.9144198374	-0.0621213983	-1.2282189588	-0.437657
C	-1.4663023965	-1.9856706021	 0.1590252769	 0.269498
C	-1.8999467353	-2.8091152981	 1.1477620257	-0.062289
O	-1.7449604896	-4.0735822771	 0.7605741581	-0.157383
N	-1.189972431	-4.0270570116	-0.5505170592	 0.005662
N	-1.0409296823	-2.8172862542	-0.8585499929	-0.189705
H	-0.4338978979	 1.5681721042	-0.8379957355	 0.288919
H	 0.7029019362	-0.5333447026	-0.5697875801	 0.096334
H	 0.4540042587	-0.1871960322	 1.1539765471	 0.111265
H	-1.9856586457	-0.017225548	 0.7896592325	 0.108386
H	-1.5783787699	-0.6572403879	-1.910800421	 0.30197
H	-2.3217811091	-2.6400478553	 2.1247999594	 0.179331
