20
gdb 90082	3.56046	1.47686	1.28441	2.0899	80.18	-0.2098	0.0906	0.3003	1055.1009	0.172209	-403.073204	-403.065885	-403.064941	-403.10451	30.235	
C	 0.1105622869	 1.5659613162	 0.0553546312	-0.321222
N	 0.0515688964	 0.1212465915	 0.0303953817	-0.090322
C	 0.9418113484	-0.5966084411	-0.9399477156	-0.297726
C	 1.0798233802	-1.6874730855	 0.1246539274	 0.394088
C	 1.8821243571	-2.7189293701	 0.9272548085	-0.330547
C	 0.4240670013	-2.8797610776	 1.4971540631	 0.06524
C	 0.0206222581	-1.5420684871	 2.2055086076	-0.268064
C	 0.6830710087	-0.6189415841	 1.1530046807	 0.049366
O	-0.0588133148	-2.5975514833	 0.1562527492	-0.3049
H	 1.135121341	 1.9617815731	 0.2009964434	 0.08493
H	-0.2776844682	 1.9716509619	-0.8848686338	 0.120734
H	-0.5177054596	 1.9449703551	 0.8683167633	 0.122077
H	 0.4711729372	-0.8781604492	-1.885772486	 0.117941
H	 1.8874891056	-0.0652481455	-1.1308987885	 0.093087
H	 2.1667715535	-3.6102236826	 0.3671304744	 0.114747
H	 2.6905197576	-2.3642278564	 1.5723068567	 0.096822
H	 0.0721641751	-3.824480656	 1.9129172486	 0.082846
H	-1.0679072068	-1.4701474047	 2.2457947994	 0.12157
H	 0.43109233	-1.4104220381	 3.2103142942	 0.093
H	 1.5428485124	-0.0665328464	 1.5636490645	 0.056332
