15
gdb 77198	3.73859	1.05417	0.88575	2.7261	70.72	-0.3105	-0.0399	0.2706	1246.6995	0.111882	-416.807609	-416.798931	-416.797987	-416.841952	30.301	
C	-0.2720240565	 1.4145386869	-0.1197307245	-0.425778
C	-0.06148847	-0.0739699374	 0.0844417664	-0.075038
C	 1.2007196818	-0.7219369492	-0.5552819617	 0.001076
O	 1.627794965	-1.2558458228	 0.7175790251	-0.277308
C	 0.5540002503	-0.5955539049	 1.4219430304	-0.017093
C	 1.043537749	 0.4226277072	 2.354374656	 0.291109
N	 1.4128947433	 1.2378652292	 3.0852271255	-0.313942
C	 0.9733250996	-1.7605995939	-1.5583712079	 0.277236
N	 0.7705207548	-2.5661385729	-2.3613955999	-0.306531
H	 0.6235681708	 1.9877224377	 0.1362284286	 0.148874
H	-0.5277996603	 1.6190900802	-1.1638598511	 0.139673
H	-1.0933120998	 1.7789105018	 0.5042115784	 0.145044
H	-0.9643755507	-0.6358042265	-0.1590019102	 0.127183
H	 1.924516598	 0.0042976611	-0.9446675782	 0.140239
H	-0.0630865754	-1.3135857265	 1.9716073729	 0.145257
