17
gdb 27175	2.93985	1.4117	1.00807	1.239	75.87	-0.1929	0.0338	0.2267	1147.3724	0.137969	-418.005906	-417.997769	-417.996825	-418.038822	31.031	
O	 0.5705960983	 1.2584697968	-0.0126819214	-0.447254
C	 0.2460211786	-0.0669758156	-0.0201673784	 0.261795
C	-0.0018500174	-0.8772644049	-1.1153187045	 0.155588
N	-0.3137707159	-2.1296203803	-0.6021191958	-0.29946
C	-0.2434393229	-2.112463713	 0.7600082866	-0.080553
C	 0.1030671225	-0.8406959297	 1.1600179473	-0.22594
C	-0.0061936192	-0.5966022077	-2.5604111655	-0.158196
C	 1.0207753862	 0.3083078143	-3.1535172031	-0.251819
N	 1.0713407956	-1.1303787282	-3.4404864152	-0.312296
H	 0.4567337021	 1.6007878686	-0.9051542127	 0.292575
H	-0.5301267586	-2.9331459522	-1.1652671202	 0.263976
H	-0.4428959666	-2.999083726	 1.3400444529	 0.119595
H	 0.2326985265	-0.4911159432	 2.1715710512	 0.101778
H	-0.9729192501	-0.6270440989	-3.0626300865	 0.101893
H	 0.7556868061	 0.9358254782	-3.9995812912	 0.122594
H	 1.7789221357	 0.7259141589	-2.4963432538	 0.123376
H	 1.7846664991	-1.5505811572	-2.8475606297	 0.232348
