21
gdb 122918	3.34168	0.66871	0.63484	1.3591	83.27	-0.2483	0.041	0.2893	1869.9377	0.177975	-424.165755	-424.154592	-424.153647	-424.203749	38.69	
C	-0.0040972235	 1.4188145299	-0.064217348	-0.224397
O	-0.0791141279	 0.0147305818	-0.0460962715	-0.225621
C	 0.6605353467	-0.5582326952	 1.0061064918	-0.060216
C	 0.596364637	-2.0680751119	 0.8952876058	-0.066091
O	 1.4140747592	-2.4778442158	-0.1810767679	-0.252977
C	 1.4245139735	-3.8830701167	-0.4084247842	-0.035996
C	 0.2247018832	-4.3319206127	-1.258013086	-0.390725
C	 2.6899304339	-4.2258978929	-1.0598639962	 0.324136
C	 3.7124617389	-4.5376829763	-1.6074606405	-0.445735
H	 1.0311730194	 1.7716437167	-0.1949319668	 0.106397
H	-0.604640589	 1.7678749287	-0.9077290035	 0.127169
H	-0.4019199303	 1.8637919411	 0.8626722165	 0.099619
H	 1.714220334	-0.2372467666	 0.9685997388	 0.099785
H	 0.2505478153	-0.2508021789	 1.9842094235	 0.081917
H	 0.9494912433	-2.5156287279	 1.8395972798	 0.087017
H	-0.4522211797	-2.3675948503	 0.7501062072	 0.100896
H	 1.3885497624	-4.4061627409	 0.5625729472	 0.092483
H	 0.2644031458	-5.4108385167	-1.4314268335	 0.125477
H	-0.715274362	-4.0982061669	-0.7508963202	 0.119937
H	 0.2425794954	-3.8176936417	-2.2216074677	 0.1399
H	 4.6228149245	-4.8040477367	-2.0849562645	 0.197026
