16
gdb 32273	2.99407	1.48303	1.04029	1.3012	76.1	-0.2201	-0.0364	0.1837	1103.2035	0.127164	-434.119812	-434.112103	-434.111159	-434.151949	29.788	
N	 0.0795360519	 1.357515373	-0.0788789851	-0.570752
C	 0.0651051496	-0.0132469844	-0.0538360563	 0.330855
N	-1.1200661976	-0.6284433999	-0.0300425442	-0.316089
C	-1.1017134926	-1.9627011738	 0.0275914466	-0.016894
C	 0.0773403162	-2.6921061297	 0.0442370158	-0.057446
N	 1.2692258624	-2.0782082969	 0.0237352029	-0.29081
C	 1.2805183081	-0.7535906136	-0.0096762309	 0.233879
C	 2.6169026117	-0.0529752806	 0.0204715104	-0.181224
O	 2.770090085	 0.9164259314	-1.0240349388	-0.414661
H	 0.8929571842	 1.7799455226	-0.5051614624	 0.269164
H	-0.8119441151	 1.7827346166	-0.2839522055	 0.253371
H	-2.0676659895	-2.4612060392	 0.0551547098	 0.110693
H	 0.0756760495	-3.776915074	 0.0757829559	 0.106386
H	 2.7249572247	 0.5208108091	 0.9484301307	 0.129245
H	 3.4068755193	-0.8117772065	-0.0100804623	 0.122963
H	 2.723097352	 0.4461168258	-1.8636901866	 0.291321
