23
gdb 104673	1.91191	1.69737	1.10947	1.8626	85.03	-0.2333	0.0833	0.3166	1225.0312	0.204715	-388.222279	-388.21286	-388.211916	-388.256556	36.251	
C	 0.7426732905	-0.8926388795	 1.4213956123	-0.377204
C	 0.1075970516	-0.1668622584	 0.2265314348	-0.283779
C	-1.3362018258	-0.6128048267	-0.0598128978	 0.377203
C	-2.3451002312	 0.0984101105	 0.8554448597	-0.255538
C	-2.62155918	 1.5554769924	 0.4611250862	-0.384579
C	-1.8018234164	-0.8346438062	-1.5432087071	-0.003114
C	-0.8849797565	-2.0756815828	-1.6762535468	-0.240744
C	-1.6347610531	-2.1333120701	-0.3270098395	-0.004921
O	-2.8672967205	-1.7404132039	-1.0516257171	-0.314246
H	 1.7416205034	-0.4986924794	 1.6321383103	 0.11408
H	 0.144293348	-0.7776967195	 2.330763433	 0.121974
H	 0.8435616514	-1.9657894076	 1.2262826313	 0.117443
H	 0.1053904146	 0.9113989618	 0.4225783973	 0.099825
H	 0.7471582736	-0.2999366906	-0.6502250363	 0.097419
H	-3.2859998667	-0.4541915887	 0.8410012403	 0.119327
H	-1.9698903856	 0.0672117234	 1.886017682	 0.088497
H	-1.7137512812	 2.1680189042	 0.4574898466	 0.113108
H	-3.065789096	 1.6143104007	-0.5379326413	 0.11898
H	-3.3240488825	 2.0180268981	 1.1613516603	 0.11318
H	-2.0839442664	-0.101610039	-2.3010883971	 0.088412
H	-1.2338560087	-2.8039250288	-2.4085312501	 0.107217
H	 0.1983315972	-1.9560922994	-1.6885415767	 0.098816
H	-1.7193578998	-2.9569782805	 0.3842357055	 0.088643
