18
gdb 113997	4.1308	0.64424	0.60393	3.1644	73.42	-0.2769	0.0306	0.3076	1794.0575	0.146356	-439.072853	-439.063188	-439.062244	-439.108945	33.642	
O	-0.0727677094	 1.2496733581	-0.8133375402	-0.414093
C	 0.0348339507	 0.2048467485	 0.1374727228	-0.087941
C	-1.2906682051	-0.493610941	 0.315199384	 0.031339
O	-1.6821827894	-1.3760777673	-0.7530314042	-0.271271
C	-1.4792200764	-1.9343979882	 0.5507318962	 0.049786
C	-0.3757117646	-2.9560416349	 0.6935581425	-0.232954
C	-0.7588567622	-4.2603165515	-0.0401557165	-0.329623
C	 0.2688935169	-5.2905750818	 0.0798430552	 0.255884
N	 1.0934330507	-6.0928492185	 0.1878926584	-0.301169
H	-0.359057418	 0.8491344739	-1.6420246131	 0.294394
H	 0.8179153561	-0.5123736484	-0.1422322843	 0.096983
H	 0.3320622723	 0.6775995099	 1.0799907014	 0.119589
H	-2.0925202778	 0.1719985294	 0.6396593377	 0.105224
H	-2.4118229301	-2.2230198458	 1.0428117287	 0.09762
H	 0.5643099885	-2.5807823818	 0.285017234	 0.13133
H	-0.2111190265	-3.1658205005	 1.7561383694	 0.129822
H	-1.7007334739	-4.6584789682	 0.3551991754	 0.153667
H	-0.9261405118	-4.043771372	-1.1006325774	 0.171413
