17
gdb 44463	3.98382	1.3635	1.23255	1.6857	72.24	-0.2441	-0.0293	0.2148	1014.9823	0.136268	-421.760751	-421.753941	-421.752997	-421.791927	28.093	
O	 0.0782789427	 0.0159525247	-0.2338733386	-0.287889
C	-0.0109434165	 1.1949226499	-0.0461193514	 0.404847
C	-1.3606881668	 1.999907798	 0.0003164566	-0.396626
C	-0.8734141138	 3.4423256952	-0.0568192805	-0.006654
C	-0.7706728582	 4.5951220223	 0.9908645737	 0.000462
C	-0.1813926665	 3.6346694293	 2.0306088435	-0.272098
C	 0.4878007838	 3.3768619854	 0.6479281511	 0.43689
C	 1.2172036915	 2.1547685252	 0.1899154021	-0.476176
O	 0.6299472303	 4.8415555271	 0.4879723493	-0.369151
H	-1.9961474069	 1.6942478192	-0.8335578663	 0.13472
H	-1.8804948691	 1.7156002084	 0.9209645087	 0.139823
H	-0.7916874422	 3.8218924254	-1.0778242782	 0.092281
H	-1.3881019213	 5.4836897693	 1.1239743813	 0.098814
H	 0.4710202684	 4.0995968556	 2.7696877046	 0.113436
H	-0.8249975388	 2.8657880564	 2.4630238634	 0.101665
H	 1.927231519	 1.7013282596	 0.8839669369	 0.137314
H	 1.7154023747	 2.3073424691	-0.7749423462	 0.148341
