20
gdb 111645	2.556	1.34642	1.24573	1.8085	79.35	-0.2224	0.0223	0.2447	1127.2435	0.172287	-403.117935	-403.109465	-403.108521	-403.151147	32.417	
O	 0.4548985715	 1.0264460658	-0.1651670117	-0.42364
C	 0.2111957449	-0.3348116821	-0.5043777879	-0.090475
C	-1.2475967364	-0.7033197623	-0.348152113	-0.038429
C	-1.7341886802	-2.1126425366	-0.2755013737	-0.047632
C	-0.7889674433	-3.307433898	-0.3121650146	-0.283042
C	 0.0330433489	-3.4829919932	 0.9328780897	-0.065044
C	-0.0479916577	-2.6713565373	 1.9823305603	-0.039335
C	-0.9716696368	-1.4878462466	 2.0554818248	-0.209187
N	-1.8285015996	-1.2297533252	 0.8965266987	-0.118394
H	 0.164916118	 1.1608679714	 0.7424760305	 0.284676
H	 0.4913923298	-0.4209156067	-1.5605764194	 0.112059
H	 0.8612945436	-1.0127927806	 0.0629353966	 0.102528
H	-1.8971036346	 0.0270960017	-0.8314764853	 0.0931
H	-2.7044259062	-2.3151341586	-0.726160112	 0.090952
H	-1.3846225297	-4.2165237709	-0.4690549642	 0.116497
H	-0.1298938017	-3.2472955576	-1.1899948803	 0.116999
H	 0.7079858484	-4.3346891019	 0.9512654503	 0.09149
H	 0.5520790167	-2.8570629424	 2.8700872435	 0.088793
H	-1.6359721748	-1.6224027877	 2.9216882195	 0.121118
H	-0.3914762408	-0.5807715012	 2.2830986882	 0.096966
