21
gdb 74844	2.22798	1.70494	1.31685	1.3342	83.92	-0.2229	0.0221	0.245	1091.4887	0.181385	-387.095677	-387.086542	-387.085598	-387.128657	35.947	
C	 0.0833753257	 1.4886051012	-0.0139862994	-0.508211
C	 0.019056717	-0.0070158931	-0.0359644058	 0.284775
C	-0.1028014493	-0.7928406374	-1.1113859565	-0.189298
C	-0.0750077776	-2.2417874992	-0.768876855	-0.079896
C	 1.2247510677	-2.7254893017	-0.1513892384	-0.296831
C	 0.0919496867	-2.2789445968	 0.7340732974	-0.04535
C	 0.0622022444	-0.8398476541	 1.2519379347	 0.277539
C	 1.2276491221	-0.4900545924	 2.184333381	-0.439926
O	-1.1752468666	-0.7186406899	 1.9748266048	-0.473759
H	 1.0459712383	 1.8553077882	 0.3647360958	 0.125792
H	-0.0616725696	 1.9060245492	-1.0140196983	 0.126275
H	-0.692930879	 1.912365338	 0.6368856841	 0.115419
H	-0.1766878185	-0.4327312213	-2.13274029	 0.088334
H	-0.7007591092	-2.9460165745	-1.3054149282	 0.086151
H	 1.4310515178	-3.7911631953	-0.1747122081	 0.108071
H	 2.1002996276	-2.0943839898	-0.2643033488	 0.108026
H	-0.417217602	-3.0137919397	 1.3454136205	 0.093084
H	 2.1938506077	-0.6091884286	 1.6866401945	 0.119275
H	 1.1574370337	 0.5495670954	 2.527101612	 0.102863
H	 1.2052109316	-1.1384303162	 3.0648647664	 0.123893
H	-1.1885285683	 0.1481997882	 2.3938108173	 0.273773
