21
gdb 96303	2.07729	1.46667	0.95339	2.3457	78.35	-0.2374	-0.0151	0.2223	1263.4367	0.183421	-424.260187	-424.251286	-424.250342	-424.294218	34.179	
O	 0.012643243	 1.4299516728	-0.0076762626	-0.437958
C	 0.0099695514	 0.0035322598	-0.0140503618	 0.123134
C	-1.4379032797	-0.4185322533	 0.2617588179	-0.187131
C	-1.5936482281	-1.8228575808	 0.8598831033	-0.203129
C	-1.1998502239	-2.9932492789	-0.0505656418	-0.197633
C	 0.2724018115	-2.9871520107	-0.5272089175	-0.2862
C	 0.4944371837	-1.9998623574	-1.662026318	 0.372173
O	 0.6073885151	-2.3817746916	-2.8047283806	-0.308084
C	 0.5635274332	-0.5032864882	-1.3529883433	-0.327397
H	 0.893443254	 1.7311509844	-0.2537394611	 0.279662
H	 0.6418492082	-0.3676289497	 0.8107260465	 0.064028
H	-1.8458554559	 0.3131688733	 0.9665221542	 0.114371
H	-2.0271015121	-0.3240624195	-0.6601084402	 0.100324
H	-1.0045427859	-1.8797015276	 1.7858449171	 0.09772
H	-2.639475833	-1.957950007	 1.1591283172	 0.101397
H	-1.3744962183	-3.9292814864	 0.4911754456	 0.105713
H	-1.8555528203	-3.0237082855	-0.9301289913	 0.112197
H	 0.9313502516	-2.7569455314	 0.3198442873	 0.103355
H	 0.5409183049	-3.9727351057	-0.9151186098	 0.11895
H	 0.055835914	 0.0209973517	-2.1695611514	 0.13769
H	 1.6269938666	-0.2307149483	-1.4320921695	 0.11682
