17
gdb 100236	2.5035	1.22817	1.00378	2.0655	76.4	-0.252	0.021	0.273	1218.3497	0.130808	-421.743531	-421.733023	-421.732079	-421.77914	37.989	
O	 0.833258683	 0.4132038157	 0.671453578	-0.421398
C	-0.0629721917	 0.4311896109	-0.4098797623	-0.051191
C	-1.3689888021	-0.3294308513	-0.091751484	 0.082821
O	-0.9427208951	-1.6725948147	 0.1355241352	-0.446458
C	-2.1039251972	 0.2542865529	 1.1605714948	-0.412402
C	-1.5401069936	-0.1535009191	 2.440842627	 0.329694
C	-1.1443026355	-0.5208154288	 3.5146426629	-0.466791
C	-2.2710713851	-0.2484695879	-1.2480624105	 0.323015
C	-3.0096514784	-0.1660822132	-2.1928733963	-0.433974
H	 0.8877879714	-0.5046035032	 0.9653486979	 0.294718
H	-0.2940705796	 1.4771721643	-0.6306906179	 0.114865
H	 0.3666925097	-0.023065363	-1.315201749	 0.105583
H	-1.6401443169	-2.1481774396	 0.5995358297	 0.291824
H	-2.1186731326	 1.3463255407	 1.0741798469	 0.150395
H	-3.1514416	-0.0681905958	 1.1178469249	 0.139476
H	-0.7683225431	-0.8215631503	 4.4611064252	 0.198812
H	-3.6572885133	-0.1035249676	-3.0327507726	 0.20101
