19
gdb 86508	6.63095	0.57718	0.56183	4.137	90.26	-0.2606	-0.0567	0.2039	1967.0826	0.157548	-385.864118	-385.854367	-385.853423	-385.901534	33.905	
C	-0.3151902351	 1.4126739602	-0.061576037	-0.394974
C	-0.0251001181	-0.0752653998	 0.1133274123	 0.02222
C	 1.0697831793	-0.6311162354	-0.8440816934	-0.234314
C	 2.1066818213	-0.534883717	 0.3280690826	-0.158971
C	 0.9025323674	-0.4110176126	 1.3177822135	-0.233635
C	 3.0452343244	-1.6191389457	 0.4950866207	 0.084353
C	 3.8031523197	-2.550838892	 0.6410996519	 0.042757
C	 4.7302937216	-3.6408657636	 0.7807543416	 0.0163
O	 4.6699654113	-4.492848819	 1.6389119793	-0.232626
H	 0.6061550993	 2.0069301275	-0.0511999712	 0.115193
H	-0.8226731556	 1.6060468851	-1.012758278	 0.11853
H	-0.9570948257	 1.7850059216	 0.7439726356	 0.119488
H	-0.9634628238	-0.6356973057	 0.0964197131	 0.076645
H	 0.890118593	-1.6695087175	-1.1296959432	 0.117175
H	 1.2989554088	-0.0493733757	-1.740081776	 0.107951
H	 2.6549259378	 0.4108790622	 0.2676591912	 0.112924
H	 0.9973447754	 0.3423697806	 2.1035762359	 0.10724
H	 0.6668851197	-1.3737887148	 1.7756928448	 0.119234
H	 5.5370547692	-3.6492667383	 0.0188863863	 0.094509
