18
gdb 114405	3.17826	1.14466	1.1216	4.3274	72.34	-0.2397	0.0093	0.249	1187.2411	0.147825	-439.081364	-439.073102	-439.072158	-439.114576	30.95	
C	-0.0321330412	 1.4964590569	-0.1902263223	-0.379701
C	 0.0111889871	 0.0104287161	 0.1830053884	-0.208144
C	-1.3548182014	-0.6405567238	 0.1023450491	 0.145612
O	-1.9456398018	-0.5877589457	-1.2297889136	-0.309669
C	-2.2170379014	-2.0036008622	-1.2243522699	-0.037593
C	-1.5005912429	-2.1848019879	 0.1390455185	-0.074888
N	-0.480782021	-2.9560743606	-0.5662084443	-0.32375
C	-1.0268716595	-2.8032731399	-1.8342286711	 0.417497
O	-0.6538752348	-3.1310808308	-2.9242515793	-0.346433
H	 0.9676447302	 1.9383479186	-0.155628074	 0.115857
H	-0.4280005243	 1.6230606724	-1.2014115658	 0.144551
H	-0.6729467846	 2.0603858	 0.4962535842	 0.11509
H	 0.6994688232	-0.5195120418	-0.484678989	 0.10482
H	 0.3904999416	-0.1147301201	 1.2062520613	 0.097952
H	-2.0488546024	-0.1739823246	 0.8165399407	 0.081543
H	-3.2469981852	-2.2642434821	-1.4681629623	 0.107066
H	-1.9237111754	-2.6576430803	 1.023993342	 0.098496
H	 0.4699094939	-3.1769313941	-0.3025844625	 0.251694
