17
gdb 84064	2.58593	1.54675	0.97983	4.1768	80.73	-0.2155	-0.0769	0.1386	1185.227	0.135695	-418.055562	-418.0463	-418.045356	-418.09058	32.206	
C	 0.0043651226	 1.4713762755	 0.1136808373	-0.348144
N	 0.0173606445	 0.0289418827	-0.0000425736	-0.084961
C	-1.087418355	-0.8062913319	 0.0383946189	-0.097675
C	-0.7922896633	-2.1328538817	-0.0020937937	 0.115322
C	-1.7228906684	-3.3014933835	 0.002675825	-0.494834
C	 0.6634756756	-2.216240497	-0.0652550557	 0.257505
O	 1.4069536782	-3.1746098921	-0.1223129539	-0.33884
C	 1.1609227891	-0.7563707775	-0.0476002237	 0.282295
N	 2.3507605551	-0.3201457221	-0.0659600424	-0.520048
H	 0.997543085	 1.8340257655	-0.1546303043	 0.176527
H	-0.7326976398	 1.9036694643	-0.5702061938	 0.133692
H	-0.2237975961	 1.7997720271	 1.1351051644	 0.134691
H	-2.0705831082	-0.3534253171	 0.0889691064	 0.138727
H	-1.5997766081	-3.9105588631	-0.8998783611	 0.139951
H	-1.5254967893	-3.96135627	 0.8548387523	 0.140085
H	-2.7670654488	-2.9803241933	 0.0561062528	 0.118756
H	 2.980329367	-1.1270705857	-0.1079552148	 0.246952
