23
gdb 88105	3.21367	1.19694	1.02982	0.2296	91.02	-0.2345	0.0341	0.2686	1278.4652	0.207343	-351.167561	-351.158824	-351.15788	-351.200552	34.802	
C	-0.1417242916	 1.5287743468	-0.1042998729	-0.414353
C	 0.0143632495	 0.0291600705	 0.029660938	-0.058109
C	 1.3462620732	-0.6522494344	-0.1963609664	-0.331039
C	 0.7183421282	-0.6490063356	 1.1817278594	 0.377848
C	 1.3995556533	 0.1393304082	 2.2884693696	-0.288349
C	 2.5364116632	-0.6846639615	 2.9175300631	-0.243453
C	 2.1143703968	-2.1030791171	 3.1986106935	-0.047181
C	 1.0314964827	-2.6635866809	 2.6619971098	-0.048555
C	 0.1184459238	-1.9516800163	 1.6959575146	-0.320867
H	 0.7536282168	 2.0676154198	 0.2177760925	 0.115294
H	-0.3268722797	 1.8042861138	-1.1486152917	 0.115533
H	-0.9845428033	 1.90021239	 0.4899981108	 0.114483
H	-0.8468144114	-0.5238461276	-0.3422282591	 0.075357
H	 1.3752039563	-1.580204471	-0.7586052658	 0.103648
H	 2.2108145897	-0.0136187146	-0.3574989475	 0.101005
H	 1.791920647	 1.0908122232	 1.9184405357	 0.089931
H	 0.6621292067	 0.382030645	 3.0658361727	 0.095364
H	 3.4100626862	-0.6872534	 2.2488574713	 0.107165
H	 2.8776301469	-0.2058771547	 3.8442680991	 0.09646
H	 2.7402070617	-2.6797502659	 3.8760414202	 0.07968
H	 0.7674744205	-3.6869497314	 2.9193908734	 0.079579
H	-0.8473836569	-1.7523698764	 2.1880284087	 0.102923
H	-0.1190354096	-2.6142139602	 0.853144761	 0.097638
