19
gdb 122801	4.53588	0.52995	0.48009	1.6095	73.71	-0.2514	-0.0946	0.1568	2168.5719	0.155418	-460.178092	-460.167388	-460.166444	-460.21578	35.914	
O	-0.2197641442	 1.4534024266	 0.3445972713	-0.421045
C	-0.048221121	 0.0810939461	 0.0264568859	-0.074437
C	-1.3979899319	-0.6074058224	 0.1817406812	-0.173076
C	-1.3387811595	-2.1035390505	-0.1358664425	-0.190234
C	-2.6949826332	-2.7891604106	 0.0207610243	-0.307387
C	-2.6668761319	-4.2661225085	-0.2851063592	 0.280196
O	-1.6871903077	-4.8891439158	-0.6254940929	-0.275646
C	-3.9906962328	-5.035231491	-0.1520165796	 0.094405
O	-5.0285511525	-4.525645204	 0.1782982458	-0.218429
H	 0.6290708394	 1.8941206982	 0.2460896035	 0.286275
H	 0.3173356328	-0.0477263703	-1.0057147216	 0.085855
H	 0.6898277571	-0.3949615912	 0.6930134514	 0.085849
H	-1.7513834494	-0.4494928622	 1.2082746226	 0.106868
H	-2.1200827418	-0.106681299	-0.475097378	 0.106819
H	-0.9755289545	-2.2592637504	-1.1586537505	 0.112315
H	-0.6098398494	-2.6002096017	 0.5154606586	 0.112358
H	-3.0974548252	-2.6689556217	 1.0364136851	 0.141011
H	-3.4593782151	-2.3321749531	-0.6233309777	 0.141
H	-3.8842918893	-6.1141743587	-0.3941760977	 0.107304
