19
gdb 58160	3.26852	0.7174	0.62086	3.0065	84.4	-0.2704	-0.066	0.2044	1788.1317	0.155238	-423.005535	-422.994612	-422.993668	-423.042855	37.566	
C	 0.0478654255	 1.5089722583	-0.1466545867	-0.393487
C	 0.0196907741	-0.0176806794	-0.0096073251	 0.017376
C	 0.854572227	-0.4895660722	 1.1866548727	-0.397258
C	-1.4505144155	-0.509987828	 0.0932330163	-0.040591
O	-2.2678953656	-0.019036764	-0.9627978615	-0.415349
C	-1.5266973368	-1.9709957447	 0.1722917605	 0.077765
C	-1.5876232741	-3.1785287352	 0.1561434208	 0.037797
C	-1.6599083109	-4.6168069919	 0.1850578643	 0.023491
O	-1.9437422984	-5.3065267363	-0.767238978	-0.228655
H	 1.0720438961	 1.8585233123	-0.3081688131	 0.11302
H	-0.5719067916	 1.8424086524	-0.9809382005	 0.131644
H	-0.3283072625	 1.9882485844	 0.7650921052	 0.114609
H	 0.4372326056	-0.4615630839	-0.9244720295	 0.079407
H	 0.8768939911	-1.5796353175	 1.2643457055	 0.126155
H	 1.8856213436	-0.1355029922	 1.0944821887	 0.120845
H	 0.4516566606	-0.0909960803	 2.1254717384	 0.117544
H	-1.8862278634	-0.0836942167	 1.0068874009	 0.123969
H	-2.0397468683	-0.5063390332	-1.7628600466	 0.289593
H	-1.4284872464	-5.0613981718	 1.1743113278	 0.102126
