20
gdb 39312	2.61077	1.86643	1.38186	0.7333	77.24	-0.2199	0.0779	0.2978	989.8104	0.174121	-403.106536	-403.099323	-403.098378	-403.138443	29.207	
C	 0.0943147516	 1.4392247975	-0.3948568987	-0.26225
C	 1.315095901	 0.6614867415	-0.059020923	 0.013358
C	 2.0407163	 0.850372801	 1.2607589139	-0.24535
C	 1.9315004019	-0.4414989001	 2.0852695039	-0.214093
C	 0.4737802977	-0.7588865991	 2.3726666531	 0.134646
O	-0.1298742976	 0.2215785034	 3.2540205787	-0.294894
C	-1.1581339684	 0.5335286987	 2.2953159722	-0.089219
C	-0.5545641094	-0.4303667379	 1.2452034756	-0.037858
N	-0.0135662674	 0.0270756002	-0.0356161986	-0.106731
H	-0.2148818521	 2.2006711504	 0.3179778948	 0.1113
H	-0.1602640453	 1.6677952738	-1.4270515164	 0.113847
H	 1.9392547563	 0.2992557666	-0.8752023795	 0.086875
H	 3.087374939	 1.1101539465	 1.0779169797	 0.100354
H	 1.6024274117	 1.6697516052	 1.8397033338	 0.11498
H	 2.3846474733	-1.281616788	 1.5435687947	 0.100563
H	 2.4599719505	-0.3447741782	 3.0400460569	 0.109532
H	 0.3639857848	-1.7688865681	 2.786613905	 0.071997
H	-2.1537669577	 0.2387100247	 2.6502619264	 0.100701
H	-1.1786233543	 1.600462768	 2.0468235854	 0.101262
H	-1.2235020658	-1.2648602159	 1.021980272	 0.090981
