20
gdb 70619	2.37135	1.86746	1.30057	1.2732	78.21	-0.2323	0.0756	0.3079	1039.9068	0.171824	-403.123555	-403.115454	-403.11451	-403.155771	32.286	
C	-0.4575812174	 1.3466666689	 0.0904577553	-0.509611
C	-0.011357486	-0.0885991254	 0.025757509	 0.248973
N	-0.3369147873	-1.0385989145	 1.1223820658	-0.383772
C	 1.0746828071	-0.6768610164	 0.8562191803	-0.075575
C	 1.8148729174	-1.7421206765	 0.0663639442	-0.219576
C	 0.8517980137	-2.0802572346	-1.100025828	-0.30686
C	 0.0232797097	-0.8140065901	-1.3002285964	 0.431594
C	-0.9566003931	-0.6371019706	-2.3722704349	-0.258435
O	 0.3239167035	 0.0050761278	-2.4427054744	-0.283016
H	 0.0386580597	 1.935395604	-0.6852890495	 0.146476
H	-1.5398196649	 1.4343581559	-0.0622111221	 0.121733
H	-0.2225219923	 1.7844663697	 1.0657857379	 0.112632
H	-0.6704667735	-0.5000508903	 1.9193350151	 0.226536
H	 1.6047982406	-0.074828412	 1.5880081773	 0.083584
H	 2.7536943296	-1.3214046334	-0.3111561798	 0.10647
H	 2.0605718113	-2.6207688787	 0.67021151	 0.103806
H	 1.369813703	-2.3533367298	-2.0216434065	 0.109455
H	 0.192135008	-2.9036406417	-0.8163319956	 0.124347
H	-1.1152520426	-1.4394361594	-3.092288061	 0.112124
H	-1.8067025364	 0.0301173371	-2.2355720369	 0.109116
