15
gdb 21145	3.39647	2.01086	1.28331	3.5561	65.67	-0.2143	0.0052	0.2195	923.69	0.118405	-395.96585	-395.957563	-395.956619	-396.000047	27.613	
C	 0.0351813057	 1.3882376932	 0.0079923228	-0.320597
N	 0.027436398	-0.0677509702	 0.0028279349	-0.399996
C	-1.0903831401	-0.6509184615	 0.009174499	 0.543329
O	-2.3478695683	-0.1020631084	 0.0206715353	-0.260407
N	-3.3275874285	-1.1429502127	 0.0240809656	-0.143627
C	-2.6325482034	-2.2290825791	 0.0144253399	 0.059971
N	-1.2866792238	-2.0280073614	 0.0060451361	-0.126793
C	-0.2080939127	-2.9914331677	-0.0070354497	-0.330363
H	 1.0707673046	 1.736443948	-0.001149265	 0.118302
H	-0.4741834986	 1.8098268248	-0.8693282767	 0.121063
H	-0.4562086259	 1.8032383815	 0.8986093967	 0.121056
H	-3.0846357814	-3.2101637629	 0.0140682759	 0.162663
H	-0.6288175857	-3.9982504852	-0.0015147204	 0.137708
H	 0.4081230013	-2.8561866241	-0.900262127	 0.158639
H	 0.4292692687	-2.8552486342	 0.8709944626	 0.159053
