17
gdb 66914	2.64455	1.76762	1.29018	4.4823	72.67	-0.2319	0.0092	0.2411	1003.417	0.134655	-421.798401	-421.790288	-421.789344	-421.830582	31.441	
C	-0.0174743328	 1.4942708921	 0.0277724848	-0.509307
C	-0.020267598	-0.0023268111	-0.0314701863	 0.210074
C	-0.9296587911	-0.902534839	 0.8155197345	-0.109568
C	-1.0643073482	-2.2605818625	 0.1160838636	-0.313397
C	 0.4448525696	-2.1176241302	-0.2142995049	 0.268516
O	 1.2679643296	-3.1742933417	-0.4987412788	-0.459631
C	 0.5495636935	-1.0309345756	 0.9753344007	-0.21113
C	 0.5054898126	-0.8772264592	-1.1302409623	 0.354724
O	 1.0289619194	-0.6545123569	-2.1856584859	-0.34091
H	 0.9362954056	 1.8935318705	-0.3302388962	 0.141129
H	-0.8106225003	 1.9132654277	-0.6003915815	 0.134846
H	-0.1767973067	 1.8517030115	 1.0499904985	 0.122099
H	-1.6324995211	-0.443116152	 1.4992145384	 0.100888
H	-1.2398651886	-3.0571030891	 0.8483941557	 0.098453
H	-1.7558470629	-2.3667423257	-0.727110924	 0.109823
H	 1.0304705521	-3.9189991993	 0.0639824815	 0.289138
H	 1.2566033673	-0.8613186695	 1.7729408624	 0.114251
