19
gdb 75643	2.80477	1.58758	1.26558	2.6971	81.29	-0.2379	-0.0212	0.2167	1053.5221	0.158951	-385.796144	-385.788384	-385.78744	-385.828224	30.749	
C	 0.1095893677	 1.6163745461	 0.1080741277	-0.412616
C	 0.0913500753	 0.1006349231	 0.0264950634	-0.200356
C	 1.1696182855	-0.6310591574	-0.8872773975	 0.327523
O	 1.7053832191	-0.3236245847	-1.9062290022	-0.288371
C	 1.2191635773	-1.8282943823	 0.1253924754	-0.124561
C	 2.0169332242	-2.0910658266	 1.4510477483	-0.080088
C	 2.1645431376	-0.5595293337	 1.5851495112	-0.251063
C	 0.682414461	-0.7975308934	 1.1374982064	 0.279792
C	 0.6245815098	-1.9463155953	 2.1997977427	-0.311067
H	 1.0695646314	 1.9776125116	 0.4898063421	 0.124735
H	-0.0384581215	 2.0502127225	-0.8859749115	 0.134387
H	-0.6816591761	 1.9908096523	 0.7650284339	 0.121043
H	-0.8946280797	-0.268924624	-0.2856214219	 0.104334
H	 0.5156969426	-2.6114799574	-0.1803021669	 0.089903
H	 2.7742787682	-2.8529939431	 1.6480485305	 0.080339
H	 2.3053972058	-0.1575749867	 2.5916193584	 0.09303
H	 2.8309641533	-0.0734926607	 0.8673740917	 0.112216
H	-0.1093490899	-2.7368018234	 2.0243645289	 0.101403
H	 0.6735839384	-1.6666468472	 3.2561244195	 0.099417
