18
gdb 37170	3.48002	1.72696	1.59949	3.1156	74.08	-0.2284	0.066	0.2944	896.5369	0.150887	-401.825718	-401.819618	-401.818673	-401.855725	26.804	
C	 0.0269521345	 1.5531950665	 0.1167522579	-0.305476
C	 1.3492283222	 0.8452198106	-0.0963489689	-0.046239
C	 0.0432107293	 0.0443044438	 0.0547470989	-0.164201
C	 0.1068036875	-0.5880802391	-1.3284077156	 0.266368
C	-0.6689814071	-1.1753795038	-2.5038192839	-0.168067
O	 0.1526830446	-0.3732892854	-3.4078681828	-0.295288
C	 0.5659575998	 0.4954317689	-2.322188263	 0.121876
C	 1.8615451431	 0.3395012548	-1.5058931256	-0.079904
N	 1.5466104462	-1.1183984376	-1.4314919841	-0.328782
H	-0.1064974171	 1.979133784	 1.1076865514	 0.114476
H	-0.4520858043	 2.1367283567	-0.6588152896	 0.121565
H	 2.0840393468	 0.8788070567	 0.7007169963	 0.096391
H	-0.1727668534	-0.5459613275	 0.9382647792	 0.093279
H	-0.5506547132	-2.2467270637	-2.6826778459	 0.117623
H	-1.7245374629	-0.8807596815	-2.5654610978	 0.101568
H	 0.1320872504	 1.4862486905	-2.4415044957	 0.081793
H	 2.866774586	 0.6477779313	-1.8010710536	 0.070744
H	 1.8461311575	-1.5114760354	-0.5381608472	 0.202274
