16
gdb 47248	2.52784	1.76805	1.14576	3.5358	76.16	-0.2207	-0.0331	0.1875	1039.9772	0.127062	-434.077709	-434.070007	-434.069063	-434.110418	29.291	
N	-0.132647376	 0.8008227801	 1.0971273477	-0.505371
C	-0.0218401506	-0.0725536592	 0.1754171116	 0.272453
N	-1.1537184358	-0.3306984213	-0.5936306269	-0.319843
C	-1.4322990975	-1.3237589568	-1.5137690543	 0.037924
C	-0.7879002681	-2.4913468165	-1.6055672323	-0.125631
C	 0.2845093083	-2.8314397201	-0.6248406566	-0.170222
O	 1.4195107931	-1.9373249383	-0.7038692927	-0.241549
C	 1.3194391192	-0.694525797	-0.1857354372	 0.335825
N	 2.3454520456	 0.0216753592	 0.0219987577	-0.502506
H	 0.7864069065	 0.9708449913	 1.5036945971	 0.245584
H	-1.8906413017	 0.3262943165	-0.3783840867	 0.26229
H	-2.2503387663	-1.0721185208	-2.1813868854	 0.119806
H	-1.0326057766	-3.1806901168	-2.4025396803	 0.104323
H	-0.0992016472	-2.8099576032	 0.4049044602	 0.128878
H	 0.7054673419	-3.8204312499	-0.8078554373	 0.129303
H	 3.1891449351	-0.4986228471	-0.2256055348	 0.228738
