21
gdb 59258	2.44733	1.24416	1.06191	1.1249	78.43	-0.2402	0.0693	0.3095	1251.6712	0.181043	-424.19034	-424.180782	-424.179838	-424.224596	36.535	
C	 0.0557820224	 1.4180211814	-0.2167352147	-0.400279
C	 0.0616442539	-0.072658707	 0.1242307667	 0.108871
O	 0.6630267622	-0.3126635269	 1.4008480164	-0.437233
C	-1.3257447174	-0.6797864291	 0.0643560553	-0.090081
C	-2.0278321203	-1.2232973772	-1.169475705	-0.140564
C	-1.0460652265	-1.9543236752	-2.0954716847	-0.226161
C	-0.6615901401	-2.9101719492	-0.9179909655	-0.302656
C	-1.6398451291	-2.1461910842	-0.0152752895	 0.379423
O	-2.4865361943	-2.7658591622	 0.8887113461	-0.463507
H	 1.0658474442	 1.830971303	-0.1463088421	 0.121093
H	-0.3247580538	 1.5868285455	-1.2290800923	 0.12239
H	-0.5905798722	 1.972292816	 0.4760775131	 0.103473
H	 0.7233040181	-0.5903392815	-0.5771310463	 0.088727
H	 0.1588889238	 0.1841053603	 2.0549208773	 0.271903
H	-2.0391564643	-0.1737795763	 0.7175218521	 0.074847
H	-3.0057331802	-0.8561713197	-1.4570065017	 0.088891
H	-1.5507516581	-2.4821589212	-2.9071996373	 0.10557
H	-0.2395276271	-1.3536730617	-2.5267638958	 0.098457
H	-1.0081678944	-3.9303922767	-1.0953114704	 0.109508
H	 0.3862737873	-2.9407080949	-0.603321485	 0.101935
H	-2.0428488742	-2.7869071132	 1.7439583232	 0.285395
