15
gdb 66067	2.39769	1.39383	1.08911	5.5653	67.18	-0.2631	-0.0665	0.1965	1109.7943	0.111353	-453.929279	-453.920726	-453.919781	-453.963008	30.752	
O	 0.0121802808	 1.4607428153	-0.034422685	-0.448702
C	 0.0262312498	 0.0816620379	 0.022829502	 0.320971
C	 0.1031066858	-0.4956026143	 1.4680595414	-0.219075
N	-1.3390804177	-0.8133109566	 1.4285758398	-0.294856
C	-1.4018655979	-0.6276150515	-0.0308244867	-0.230759
C	-2.5082625615	 0.1879296045	-0.5229555076	 0.336202
N	-3.382197432	 0.8180947758	-0.9396730361	-0.317167
C	 1.0025846325	-0.4873823364	-0.9836645119	 0.110451
O	 1.6003686854	 0.2225619843	-1.7523142669	-0.255896
H	 0.522886011	 1.7080461012	-0.8226492254	 0.302371
H	 0.7738884294	-1.3612806144	 1.5564412981	 0.10352
H	 0.3756030717	 0.2547578182	 2.2147103582	 0.142273
H	-1.612256617	-1.730845405	 1.7589046713	 0.234747
H	-1.3710621174	-1.5573515762	-0.6175995104	 0.111559
H	 1.1271558471	-1.5895302428	-0.9819737208	 0.104361
