16
gdb 126023	3.11904	1.58447	1.12308	4.5992	70.12	-0.2205	0.0056	0.226	1051.6925	0.12599	-437.871471	-437.864082	-437.863138	-437.904433	27.547	
C	 0.0699060175	 1.6091783662	-0.0669646103	-0.392776
C	-0.0357020476	 0.0828013659	 0.0517252552	-0.176642
C	 0.7387493349	-0.6699985569	-1.1041517488	-0.10111
O	 1.7619453387	-1.5491500913	-0.5119358379	-0.272654
C	 1.6080317814	-1.3743607867	 0.797317055	 0.510837
C	 0.6572373389	-0.5199777284	 1.2434958063	 0.08284
C	 0.8126474364	-0.6214299208	 2.6432950049	-0.118904
N	 1.7714274708	-1.4612319421	 2.987914375	-0.162446
O	 2.3021921498	-1.9631088293	 1.7458674743	-0.235762
H	 1.1159209975	 1.9303874141	-0.0374546821	 0.126511
H	-0.3741094218	 1.9623419647	-1.0039779363	 0.11828
H	-0.4568662992	 2.098756604	 0.7575857353	 0.126168
H	-1.0952557365	-0.1966396051	 0.0086043351	 0.097113
H	 0.0855520334	-1.3083031267	-1.7022167668	 0.134215
H	 1.2644728894	 0.0253133744	-1.7633223141	 0.131629
H	 0.2777859463	-0.127642892	 3.4435937752	 0.132702
