20
gdb 81028	2.43329	1.74201	1.33577	1.6446	74.12	-0.2317	0.0743	0.3061	1031.3297	0.172394	-440.260156	-440.252015	-440.251071	-440.292252	32.485	
C	-0.0084773021	 1.54252624	 0.036065739	-0.46531
C	-0.0542261582	 0.0300613527	 0.0008549771	 0.233115
C	 0.8243162592	-0.5840962764	-1.0983749847	-0.107285
O	 0.5263583362	-1.9576121587	-1.3193733679	-0.261164
C	 0.1452241923	-2.6818307265	-0.15606463	-0.084619
C	-0.6353737264	-1.7909208585	 0.8067800378	-0.061223
N	 0.2102937234	-0.6663390255	 1.3066906614	-0.372651
C	-1.4301628344	-0.7199605838	 0.009856134	 0.166836
O	-2.4427223119	-0.0802632896	 0.741512494	-0.4607
H	 1.0036174846	 1.8994820584	 0.2580954896	 0.115346
H	-0.3143242539	 1.9664157918	-0.9260888061	 0.121127
H	-0.6806998899	 1.9266333684	 0.8065819421	 0.122131
H	 0.6617803283	-0.0874300007	-2.0615582238	 0.109562
H	 1.8861083219	-0.4491064204	-0.8250883438	 0.085031
H	-0.4627294058	-3.5224341555	-0.509402234	 0.112614
H	 1.0285263088	-3.0976065221	 0.359850632	 0.086909
H	-1.1626126814	-2.3618161857	 1.5776639792	 0.073021
H	 1.187801045	-0.9090893607	 1.468875606	 0.203758
H	-1.8520449247	-1.0093584187	-0.9529150501	 0.094809
H	-2.0684198609	 0.1231324513	 1.6081067784	 0.288694
