18
gdb 57722	3.71598	0.88556	0.8722	3.4875	76.94	-0.2573	0.0244	0.2817	1392.9232	0.143679	-439.042412	-439.032089	-439.031144	-439.077855	37.144	
C	-0.1953163297	 1.5908559628	-0.0737982623	-0.425888
C	-0.2452800047	 0.0554228601	-0.0416174648	 0.128995
O	 0.0271793214	-0.436320424	 1.2722057543	-0.443803
C	-1.6603422561	-0.4679979096	-0.3727483146	-0.090192
O	-2.6503416712	 0.1222175134	 0.4509619214	-0.188548
C	-2.9170834546	-0.4812001774	 1.6327500928	 0.133923
N	-3.7016458282	 0.0744711432	 2.4485819234	-0.448458
C	 0.6969053715	-0.5193955138	-1.0144156969	 0.33686
C	 1.4667247637	-0.9923294509	-1.8073327581	-0.47917
H	 0.803626403	 1.9399914941	 0.2055076456	 0.115719
H	-0.4126919654	 1.9662406126	-1.0775351282	 0.130373
H	-0.9300423123	 1.9929583641	 0.6258676478	 0.156094
H	 0.8753469679	-0.0785869537	 1.5556076918	 0.288104
H	-1.9136353231	-0.2062685698	-1.4020182771	 0.129679
H	-1.6618678268	-1.5596926086	-0.2741140204	 0.123839
H	-2.4086171987	-1.4440469265	 1.7552613086	 0.100622
H	-3.8203022103	-0.5174625068	 3.2681330184	 0.227882
H	 2.1506363935	-1.4104190093	-2.5046286718	 0.20397
