17
gdb 52575	1.77378	0.93227	0.64109	0.893	91.4	-0.2451	0.0393	0.2844	1775.2904	0.13108	-347.461178	-347.44989	-347.448946	-347.501331	37.3	
C	-0.0123097734	 1.5158979152	 0.0690453906	-0.498504
C	-0.0104947066	 0.0616804402	 0.0084619246	 0.071363
C	-0.0127885036	-1.1391452976	-0.0473826978	 0.115925
C	-0.0051204267	-2.6112716986	-0.0989118227	-0.546561
C	-1.3707170256	-3.1600198943	-0.0170464241	 0.354386
C	-2.4771042648	-3.6167672036	 0.0685642756	-0.448178
C	 0.707242882	-3.1156960418	-1.2854908039	 0.115926
C	 1.2993766375	-3.534575268	-2.2441487243	 0.071352
C	 2.010617638	-4.0382372778	-3.4098647107	-0.498504
H	 1.0082579289	 1.9139170933	 0.0683487055	 0.150152
H	-0.538452865	 1.9472390074	-0.7893821557	 0.151862
H	-0.5083162997	 1.8739986694	 0.9777289177	 0.15076
H	 0.5382489951	-2.9702774026	 0.7902019378	 0.158289
H	-3.4586738768	-4.0162471022	 0.1352858446	 0.198956
H	 2.0453961766	-5.1331139485	-3.410314104	 0.150757
H	 1.5241584743	-3.7202907589	-4.3383295244	 0.151863
H	 3.0430075899	-3.6726968616	-3.4328101387	 0.150156
