17
gdb 36585	2.96697	0.92892	0.77033	1.6942	80.89	-0.2586	0.0191	0.2777	1463.4353	0.132061	-384.598115	-384.58856	-384.587616	-384.633065	34.93	
C	 0.0489993866	-1.2307931407	-0.0453715047	-0.438623
C	 0.0458549407	-0.0335927044	-0.1523927936	 0.291718
C	 0.0747490709	 1.4182448938	-0.2662504197	-0.35205
C	 1.3812653598	 2.0273880078	 0.284908875	-0.276469
C	 1.4007694624	 3.5399084404	 0.1534591788	 0.204609
C	 2.6445095599	 4.2365176998	-0.2364094631	-0.216873
O	 1.6088060583	 4.0260135584	-1.1894182229	-0.263503
C	 0.4089880585	 4.259286783	 0.9210769819	 0.315757
C	-0.4240596062	 4.8234275077	 1.5789718484	-0.443139
H	 0.0364901808	-2.2888423479	 0.0416555634	 0.194259
H	-0.035787129	 1.7129504757	-1.3167616336	 0.147877
H	-0.7797611595	 1.8501551031	 0.2686709588	 0.144061
H	 1.501341157	 1.7523734926	 1.3378782952	 0.123468
H	 2.2339634852	 1.6180034694	-0.2640611262	 0.12048
H	 2.7954272006	 5.2688042309	 0.0731829556	 0.125386
H	 3.5502081155	 3.6491994114	-0.3836518097	 0.119389
H	-1.1578630715	 5.3334792188	 2.1534036764	 0.203652
