16
gdb 30084	2.4742	1.84759	1.06487	6.0411	77.93	-0.1963	-0.022	0.1743	1075.7047	0.125854	-434.112351	-434.104096	-434.103152	-434.145541	30.586	
C	 0.0239719334	 1.4530608665	 0.0082854474	-0.358287
N	-0.0279312859	-0.0049677657	-0.0090540111	-0.146696
C	-0.1606351244	-0.6506242073	-1.238697384	-0.029332
C	-0.2130892161	-1.9847120782	-1.3116930011	-0.073539
N	-0.13507756	-2.7404579225	-0.1533793254	-0.389834
C	-0.002221229	-2.203906516	 1.1198110135	 0.26893
N	 0.0731816953	-2.8598224328	 2.2119517724	-0.490725
C	 0.0576066333	-0.6839158399	 1.1992128388	 0.407497
O	 0.1726076037	-0.112156103	 2.2614013733	-0.34946
H	 0.8806521352	 1.8114558136	-0.5720824571	 0.134008
H	-0.8935293553	 1.8724959058	-0.4175962076	 0.133949
H	 0.1252389004	 1.7694293667	 1.0444396718	 0.180591
H	-0.2171710336	-0.016184535	-2.1103078286	 0.128409
H	-0.315265459	-2.5208903586	-2.2430122704	 0.133732
H	-0.1760059824	-3.7454243694	-0.2229075843	 0.25005
H	 0.0232899044	-3.8676088842	 2.0447115723	 0.200707
