23
gdb 104176	2.83663	1.08156	1.03083	1.6132	81.04	-0.255	0.0677	0.3228	1323.8322	0.205315	-425.445645	-425.435837	-425.434893	-425.480155	38.067	
C	 0.1138303236	 1.5149571196	-0.0405508995	-0.409522
C	-0.0223413181	-0.0107383066	-0.0050024283	-0.225434
C	-1.4689819322	-0.5260747019	-0.0140127669	 0.409898
O	-2.1793718517	-0.0567403979	 1.1455638607	-0.488712
C	-2.2700221719	-0.1739138635	-1.2900191991	-0.240582
C	-3.3731076763	-1.2397218583	-1.3145949505	-0.23496
C	-2.6071587456	-2.5273979926	-0.9653345901	 0.118178
O	-1.8890842448	-3.0293277834	-2.0956176868	-0.443867
C	-1.5519830798	-2.0739592504	 0.0631954637	-0.233616
H	 1.1666902459	 1.8116285476	-0.0283043516	 0.118336
H	-0.3387634514	 1.9428801351	-0.9412680991	 0.118412
H	-0.3583786106	 1.9812727283	 0.8316887855	 0.108865
H	 0.5026364776	-0.4469827805	-0.8634520714	 0.10038
H	 0.4682929337	-0.3981002591	 0.8960639809	 0.100697
H	-2.2680086012	 0.8990324412	 1.0697628591	 0.273849
H	-2.6499441751	 0.8524394122	-1.2756196745	 0.079675
H	-1.6304421898	-0.2843805074	-2.1721457379	 0.105225
H	-4.1094620414	-1.0284034565	-0.532034241	 0.107523
H	-3.9040074526	-1.3124648496	-2.269772935	 0.07763
H	-3.2667476242	-3.3088965535	-0.564244427	 0.058259
H	-2.5323569898	-3.2474199369	-2.7778400181	 0.277672
H	-0.5977482858	-2.5480955368	-0.1771363749	 0.109524
H	-1.8280235186	-2.356056719	 1.0811998516	 0.112571
