17
gdb 70054	3.72394	1.10991	0.95492	3.3086	78.2	-0.2464	-0.0558	0.1906	1217.9321	0.135381	-421.835395	-421.827378	-421.826434	-421.867872	30.919	
O	-0.0631421678	 1.3905860019	 0.0123551713	-0.466008
C	 0.0013464853	 0.0000406971	 0.0488004958	 0.394473
C	-0.3600298589	-0.785179094	-1.1767439198	-0.336492
C	-1.2955994442	-0.7945722643	 0.0392890759	-0.127151
C	-1.0803199223	-1.9083159998	 0.9881414923	-0.148778
C	 0.1542793444	-1.8772362127	 1.5274965406	 0.217741
C	 0.9346105086	-0.6628378401	 1.0667850797	-0.396799
C	 0.6733344006	-2.867245829	 2.4657442195	 0.073216
O	 1.7856137744	-2.8364668329	 2.9486260174	-0.27872
H	 0.6692146137	 1.7119822231	-0.5250137302	 0.286629
H	-0.7109389585	-0.205591576	-2.0239798583	 0.121173
H	 0.1786260289	-1.6953461349	-1.4202320087	 0.119122
H	-2.2628886565	-0.3182268018	-0.0646895834	 0.108601
H	-1.8277296005	-2.6649798921	 1.20437141	 0.114184
H	 1.9088305862	-0.933097726	 0.6455852623	 0.123322
H	 1.1278164583	 0.0206698576	 1.9021584823	 0.13139
H	-0.0439951717	-3.6793250861	 2.7230284834	 0.064097
