17
gdb 77016	2.3568	1.27842	0.99312	3.1526	79.1	-0.2538	0.0095	0.2633	1232.0026	0.133643	-380.813274	-380.803829	-380.802885	-380.847998	33.984	
C	-0.1624758136	 1.460738673	 0.6584669944	-0.426196
C	 0.0806386655	 0.0240467645	 0.2538396819	 0.003905
C	 0.386011846	-0.3709961228	-1.172133786	-0.171767
C	 0.5137190158	 0.666991293	-2.1651042874	 0.297154
N	 0.623707897	 1.4971891558	-2.9637329711	-0.341681
N	 1.3844471149	-0.5161744763	-0.1032756911	-0.093223
C	 2.5709577507	 0.3501468698	-0.1033749883	-0.332441
C	 3.6586462861	-0.2657266612	-0.8557019957	 0.325889
C	 4.5563842105	-0.7580372695	-1.4826693642	-0.421846
H	 0.1954488557	 1.6352630027	 1.6785082941	 0.133264
H	 0.3183471852	 2.1793220086	-0.0075427818	 0.149338
H	-1.2372135471	 1.6659547391	 0.6452870562	 0.137584
H	-0.5189803574	-0.6956283979	 0.8097934619	 0.112064
H	 0.0062319032	-1.3084601932	-1.5691858293	 0.138876
H	 2.3841073722	 1.3556446961	-0.5075490031	 0.143093
H	 2.8689749071	 0.4751840742	 0.9443717335	 0.14289
H	 5.3505776283	-1.1913775061	-2.0388044239	 0.2031
