21
gdb 114513	2.66108	1.23859	0.99495	2.5693	78.07	-0.2376	0.0632	0.3007	1258.0705	0.182246	-424.183623	-424.174548	-424.173604	-424.217894	34.136	
C	-0.6769023426	 1.3479531136	-0.3321173671	-0.411871
C	 0.0811541211	 0.0357344316	-0.2984250439	 0.1593
O	 1.4191116955	 0.1372723898	-0.856139563	-0.311329
C	 1.983279452	-0.5959566502	 0.2470930782	 0.12927
C	 2.5788557914	 0.3237323927	 1.3399262802	-0.257343
C	 1.2575977534	 0.1709008454	 2.1587229455	 0.013906
C	 0.608992202	 1.3983677796	 2.783791718	-0.090331
O	 1.3918107858	 1.9196739183	 3.8496011099	-0.418454
C	 0.6163788331	-0.6429382287	 0.9896490549	-0.162023
H	-0.1047265801	 2.1603881801	 0.1187346324	 0.12965
H	-0.8838737529	 1.6244964248	-1.3711276959	 0.126469
H	-1.6354720985	 1.2543437896	 0.1894261777	 0.116479
H	-0.4908324179	-0.7112882821	-0.8708758234	 0.075668
H	 2.5519973588	-1.4724430331	-0.074822403	 0.073345
H	 3.478065907	-0.044448416	 1.8391595696	 0.099033
H	 2.7693252288	 1.3311318322	 0.9623839131	 0.114096
H	 1.4265335055	-0.5473450639	 2.9731916827	 0.066519
H	 0.5318817997	 2.2172166633	 2.0653210464	 0.112714
H	-0.4147968719	 1.1572885882	 3.1156984062	 0.08399
H	 1.4656295245	 1.2353050755	 4.5228104157	 0.279243
H	 0.1008577855	-1.5605703508	 1.2735367458	 0.07167
