18
gdb 105966	3.86303	1.21627	1.18134	2.3775	75.23	-0.2164	0.0622	0.2786	1122.0531	0.146391	-401.827553	-401.81937	-401.818425	-401.860314	31.427	
C	-0.1231143947	 1.4245742896	 0.0124482385	-0.523324
C	 0.0619970436	-0.0530196101	 0.0053137008	 0.361652
C	 0.2328381047	-1.0457311806	-1.0909735763	-0.106588
C	 0.8706635254	-2.0645081827	-0.1189270181	-0.161238
C	 0.7011102011	-1.0448263497	 1.0212394127	-0.2509
C	-0.404880874	-2.0091356233	 0.6822984612	 0.389816
C	-1.2128458446	-3.001687377	 1.4419353399	-0.206887
O	-1.9330340866	-3.8648547707	 0.5768559031	-0.414486
N	-1.0543636416	-1.0258768431	-0.2988235641	-0.271143
H	 0.8403379992	 1.9439592844	-0.0374628322	 0.124885
H	-0.7245426798	 1.7295889572	-0.8496382621	 0.135319
H	-0.6417104355	 1.7523414406	 0.9203691056	 0.128234
H	 0.2446007351	-0.9340364003	-2.1690937869	 0.09553
H	 1.6045637555	-2.8498823568	-0.229239676	 0.099206
H	 1.2867632721	-0.9203857821	 1.9215945214	 0.096553
H	-0.5568504569	-3.632770636	 2.0520312662	 0.113262
H	-1.8926529825	-2.4692528927	 2.1275195776	 0.095511
H	-2.4189486005	-3.2971914067	-0.0330509615	 0.294599
