15
gdb 24333	3.83715	1.56994	1.12364	2.0767	72.87	-0.2021	0.0109	0.213	1001.8367	0.116443	-416.841334	-416.834567	-416.833622	-416.872718	26.381	
C	 0.0274118708	 1.5135493816	-0.0285945416	-0.281935
N	 1.3770552251	 2.0864290573	 0.0202894253	-0.25988
C	 2.3828170113	 1.3365133754	 0.2255729734	 0.079639
N	 2.3958701314	-0.0361874841	 0.4246214824	-0.43976
C	 1.2099652776	-0.7294543906	 0.2211452105	 0.243803
C	 0.8944130084	-2.050977467	 0.1823035671	-0.122325
O	-0.443950426	-2.184587376	-0.0696279904	-0.154712
C	-0.9596598584	-0.931488905	-0.1872781999	-0.116356
C	 0.0044091386	 0.0083665502	-0.0162338486	 0.171308
H	-0.5352995816	 1.9212815915	 0.8238425257	 0.123414
H	-0.472346961	 1.9100923011	-0.9217769305	 0.122428
H	 3.3745530692	 1.7865440171	 0.273633587	 0.112231
H	 3.2782053485	-0.5190482013	 0.418267153	 0.253338
H	 1.4527301237	-2.9637099129	 0.2975542933	 0.130833
H	-2.0170851878	-0.8802799774	-0.3888655566	 0.137973
