16
gdb 127003	6.91283	0.80883	0.73074	1.8908	69.45	-0.2266	0.0213	0.2479	1505.8713	0.123494	-475.019164	-475.01061	-475.009666	-475.053183	30.861	
C	 0.0142119435	 1.4583998792	-0.0195778342	-0.391061
C	 0.0003177784	-0.0567883868	-0.0076954839	-0.058983
O	 0.7159021611	-0.4824927355	 1.1731720841	-0.275845
C	 0.8298818605	-1.782778304	 1.3900726826	 0.580846
C	 1.445730689	-2.4460807639	 2.4115808839	-0.518881
C	 1.2128351563	-3.7993999574	 2.0634650858	 0.500633
O	 1.6321997111	-4.8578449597	 2.7735028586	-0.418069
N	 0.5296952951	-3.9571213949	 0.9516067594	-0.283917
O	 0.2798984837	-2.6313656099	 0.5121104888	-0.23085
H	 1.0390320565	 1.8374381228	-0.0527495393	 0.135983
H	-0.5194380612	 1.8229404889	-0.9022166558	 0.128163
H	-0.4756902437	 1.8587434814	 0.8718948087	 0.135981
H	-1.0192841736	-0.4543816695	 0.0309028742	 0.129526
H	 0.4917144002	-0.4753882955	-0.8922807128	 0.129479
H	 1.9699477495	-2.042237491	 3.257986055	 0.126965
H	 1.3362297436	-5.6527455841	 2.3090283751	 0.31003
