19
gdb 49727	2.93383	1.20706	1.13838	3.5688	82.07	-0.2313	-0.0188	0.2125	1167.5771	0.160885	-385.900914	-385.893008	-385.892064	-385.933623	30.578	
O	 0.0180764126	-0.0919726686	 0.3530794169	-0.277101
C	 0.0184972169	 1.0702091629	 0.0180852438	 0.156088
C	 1.2372543861	 1.9054740944	-0.0337976399	-0.131525
C	 1.498935158	 2.9231694474	-1.1528080682	-0.05821
C	 0.4945686909	 3.1835568683	-2.2800877341	-0.237636
C	-0.2852584813	 4.4980056916	-2.0745736585	-0.249382
C	-0.7766747431	 4.6516035077	-0.6550827058	-0.052327
C	-0.1197258436	 4.1400778986	 0.387507648	-0.076673
C	 1.1712286271	 3.4231743706	 0.2158419019	-0.08969
H	-0.9266873995	 1.5835319694	-0.2556757559	 0.076518
H	 2.1125082567	 1.3920294295	 0.3501104723	 0.104893
H	 2.5424992497	 2.9678061659	-1.446359032	 0.099053
H	 1.0282677998	 3.2140116262	-3.2347470109	 0.105337
H	-0.220867787	 2.3606471011	-2.3631538619	 0.115534
H	 0.353134873	 5.3564338276	-2.3301634154	 0.115745
H	-1.1282189558	 4.5386055458	-2.7727840658	 0.106611
H	-1.6944726682	 5.2112241285	-0.4958141367	 0.094194
H	-0.4979566338	 4.2665983879	 1.3985265747	 0.094532
H	 1.9874555617	 3.7923488652	 0.8316708274	 0.104041
