18
gdb 35990	5.84152	0.57639	0.54957	4.27	86.69	-0.2623	0.0186	0.2809	1980.8324	0.147545	-364.788213	-364.778952	-364.778008	-364.825448	32.51	
N	 0.0518421437	-1.3891715185	 0.4459645394	-0.302644
C	 0.0116021875	-0.238677179	 0.3575563286	 0.27981
C	-0.0578887417	 1.2252529552	 0.2459117778	-0.475317
C	 1.2496463218	 1.849767006	 0.0617375468	 0.095295
C	 2.3287572519	 2.3630500415	-0.084371662	 0.079039
C	 3.6146800691	 2.9985428399	-0.2822760028	-0.146162
C	 4.1991721651	 3.1092755899	-1.7292651348	-0.214954
C	 4.7239473635	 4.5230287682	-1.3656722713	-0.216856
C	 3.7194314295	 4.5568014074	-0.1841108107	-0.215661
H	-0.7268221033	 1.4701088141	-0.5895204958	 0.178892
H	-0.5470490041	 1.6113914136	 1.1498588422	 0.179859
H	 4.3582056835	 2.5396686574	 0.3786089701	 0.106875
H	 4.9207549543	 2.3476008536	-2.0308643702	 0.108623
H	 3.395760226	 3.1496787924	-2.4688076713	 0.113108
H	 5.759908031	 4.4937894825	-1.0162450197	 0.107655
H	 4.635678034	 5.3033435607	-2.1237888078	 0.103814
H	 2.7738107109	 5.0262839991	-0.4661278478	 0.112109
H	 4.0511096575	 4.9717117261	 0.7698037193	 0.106516
