17
gdb 120132	3.46088	0.91227	0.84421	3.2185	68.42	-0.2708	-0.0047	0.2662	1377.8306	0.135231	-458.948764	-458.940277	-458.939333	-458.982929	30.886	
O	 0.0733322131	 1.3458936123	 0.0116390289	-0.414405
C	-0.0715764249	-0.046006857	 0.2262123958	-0.054077
C	-1.4142574542	-0.5822522921	-0.285465683	-0.247316
C	-1.5111073617	-2.0869684957	-0.1534342797	-0.043645
C	-1.9227340813	-2.8059200112	 1.0809068228	 0.080917
O	-2.90608856	-2.0242174415	 1.8137162601	-0.264315
C	-3.8100241256	-2.1690522744	 0.7604812937	 0.465991
O	-4.9458479376	-1.827728576	 0.7390232028	-0.319862
C	-2.8290914345	-2.8913300952	-0.1245749	-0.307916
H	-0.5863579983	 1.7984392241	 0.5471564983	 0.28587
H	 0.7541919691	-0.5168694799	-0.3195198271	 0.109847
H	 0.0512949633	-0.3085907802	 1.2886811957	 0.09816
H	-2.226502966	-0.1049932411	 0.2731105318	 0.118445
H	-1.5326881794	-0.2954404528	-1.3359933914	 0.118936
H	-0.755760704	-2.6357804925	-0.7162450242	 0.111258
H	-1.3967827417	-3.5711847054	 1.6339952913	 0.131384
H	-3.0506416062	-3.6931605114	-0.8132663957	 0.130728
