20
gdb 118894	3.11224	1.00455	0.90874	2.555	74.73	-0.2318	0.0682	0.3001	1347.1563	0.170103	-440.225811	-440.21663	-440.215686	-440.259812	34.998	
O	 0.1092204165	 1.4541750829	-0.079008836	-0.42053
C	 0.0640540024	 0.0512327077	 0.1360399333	-0.057616
C	-1.3282395237	-0.535820757	-0.1071590997	-0.283248
C	-1.3798037791	-2.0546379522	 0.0064099216	 0.427556
O	-0.5142024483	-2.6884208817	-0.9261356415	-0.485317
C	-1.1221029647	-2.7245073768	 1.4051444043	-0.263496
C	-2.5145606766	-3.3544756222	 1.3218353718	-0.040821
N	-3.4723566126	-2.2230329187	 1.2322184905	-0.340167
C	-2.7816051868	-2.7095548974	 0.0122861063	-0.128338
H	-0.4968968228	 1.8645252871	 0.5460882296	 0.279595
H	 0.7798378186	-0.3836823814	-0.5668077494	 0.115459
H	 0.4110554702	-0.2085814358	 1.1487989145	 0.089727
H	-2.0476371203	-0.1163541368	 0.6054958661	 0.11434
H	-1.6623477735	-0.2351386217	-1.1111077161	 0.086196
H	-0.7362549479	-2.3578586536	-1.8043065791	 0.275551
H	-0.3094700399	-3.4469826419	 1.3194571557	 0.121435
H	-0.9567607742	-2.0595711334	 2.2559009147	 0.100284
H	-2.8319284605	-4.3176295533	 1.7011010639	 0.093503
H	-4.4116371532	-2.6203594426	 1.2201457773	 0.229637
H	-3.3357223437	-3.0623372313	-0.8503489179	 0.086251
