22
gdb 7593	2.57754	1.63738	1.38727	1.3567	78.08	-0.2545	0.072	0.3264	1063.478	0.197897	-350.200165	-350.190187	-350.189243	-350.234365	37.158	
C	 0.0947817608	 1.4690553503	-0.2739444251	-0.412796
C	 0.0046579054	-0.0013966253	 0.1445661969	 0.070788
O	 0.6037884625	-0.2071416546	 1.425618928	-0.44109
C	-1.412862973	-0.5664648237	 0.0884836799	 0.369311
C	-2.4276598214	 0.1292679294	 0.9798562714	-0.485058
C	-1.9011576054	-1.1034624416	-1.2408435912	-0.341415
C	-1.5968090837	-2.0577907636	-0.108088417	-0.032677
C	-0.4582860459	-3.0532116974	-0.1848652803	-0.411335
H	 1.1389864603	 1.7934145961	-0.2724058538	 0.120971
H	-0.3177807984	 1.6202602822	-1.2764419198	 0.119274
H	-0.4586859281	 2.1165575432	 0.4157103367	 0.108375
H	 0.6332082056	-0.5818040942	-0.5375516437	 0.080667
H	 0.1768634782	 0.3899032225	 2.0488369811	 0.276431
H	-2.5715597067	 1.1792431601	 0.7026330747	 0.116197
H	-3.4031242213	-0.36148193	 0.9130351845	 0.117131
H	-2.123685478	 0.0946876501	 2.033363047	 0.107511
H	-2.9339689244	-0.9274173126	-1.5244704329	 0.102993
H	-1.2074605262	-1.0881089517	-2.0771214949	 0.103526
H	-2.4731832593	-2.4564739668	 0.3988010059	 0.076802
H	 0.366701584	-2.6959832825	-0.8070061004	 0.115817
H	-0.0521543863	-3.2691745126	 0.8086473815	 0.127988
H	-0.8061148986	-3.995574457	-0.6223413486	 0.110588
