18
gdb 55051	3.9285	0.88352	0.78752	2.9937	79.73	-0.2467	0.0055	0.2522	1460.5087	0.144514	-401.918299	-401.908459	-401.907515	-401.953996	34.804	
C	-0.6076960288	 1.5481678457	-0.3597537712	-0.47631
C	-0.0896418974	 0.1542682066	-0.0605891715	 0.37597
O	 1.03857086	-0.2120880432	-0.312523439	-0.344363
N	-0.9953680826	-0.6609856408	 0.6100510952	-0.084282
C	-2.3327758022	-1.0480170691	 0.2068402055	-0.254925
C	-1.2340623936	-2.0616914139	 0.3757933847	 0.005167
C	-0.6308691995	-2.755376603	-0.8397961316	-0.383879
C	-1.2975233595	-4.0223324759	-1.116702292	 0.293116
C	-1.8602757608	-5.0641979371	-1.3212343308	-0.428063
H	 0.2309455593	 2.1896641112	-0.629746352	 0.149089
H	-1.3122861902	 1.5166010982	-1.1984208238	 0.138499
H	-1.1404777262	 1.9620615199	 0.5004328704	 0.143436
H	-3.1121412243	-0.9493237448	 0.9579269738	 0.128925
H	-2.645534264	-0.8230809474	-0.8112930582	 0.127406
H	-1.2480257188	-2.6741508984	 1.2749901709	 0.115966
H	-0.6964554003	-2.0948542275	-1.7123683687	 0.133532
H	 0.4395216548	-2.9121267654	-0.6664956664	 0.163421
H	-2.3482607258	-5.9872415753	-1.5142171252	 0.197296
