17
gdb 124933	2.2663	1.84541	1.03015	5.646	79.38	-0.2207	-0.0321	0.1886	1122.2269	0.136382	-418.051895	-418.043057	-418.042113	-418.086982	31.635	
C	 0.0587145978	 1.5259395244	-0.0290935765	-0.493827
C	-0.0263189641	 0.0247812836	-0.0147902856	 0.333681
C	-1.1998759766	-0.6759020112	 0.0070834107	 0.068395
C	-2.5460918592	-0.0082523647	 0.0191842544	-0.509339
C	-1.144958337	-2.1355112071	 0.0190755949	 0.301389
O	-2.1314287395	-2.8684998965	 0.0392876061	-0.398547
C	 0.2216454067	-2.673897199	 0.0061211541	-0.080681
N	 1.3153987475	-1.9748293321	-0.0147000643	-0.187487
N	 1.1661113422	-0.6437272307	-0.0247274803	-0.291787
H	 1.0951238265	 1.8750003995	-0.0499766998	 0.125295
H	-0.4539711389	 1.935705136	-0.9048393296	 0.156987
H	-0.4235616299	 1.9508870457	 0.8566875686	 0.156996
H	-2.7045271431	 0.6160402862	-0.8682983779	 0.123949
H	-3.3129517493	-0.7845158854	 0.0391640501	 0.164196
H	-2.6787038589	 0.6365267233	 0.8961404133	 0.123794
H	 0.3420719319	-3.7528654019	 0.0143804639	 0.134915
H	 2.0348743238	-0.1338796801	-0.0408880019	 0.272069
