19
gdb 13371	5.90655	1.10061	0.96741	2.8855	75.38	-0.2406	0.0317	0.2724	1252.6849	0.166158	-365.090107	-365.081764	-365.08082	-365.124296	29.975	
C	-0.3908470847	 1.5474919888	-0.0509789426	-0.372399
C	 0.4738726181	 0.3066466234	 0.1524522879	-0.115191
N	 1.1421108961	-0.0584341045	-1.0943760111	-0.34085
C	 2.0234198806	-0.9562677121	-1.0646100442	 0.443256
C	 2.8119515315	-1.4786685749	-2.2469390083	-0.314355
C	 4.0277748302	-2.1369819018	-1.5797241577	-0.230281
C	 3.4386140017	-2.5778221444	-0.2329026014	-0.075118
O	 2.4187198288	-1.6151024828	 0.0740416609	-0.249026
H	 0.2216535696	 2.3972467878	-0.3679192204	 0.115243
H	-1.141416597	 1.3705400213	-0.8271984537	 0.117353
H	-0.9067506461	 1.8205384629	 0.8754177798	 0.100642
H	 1.209102889	 0.4813156581	 0.9509894841	 0.099913
H	-0.1496291457	-0.5307772462	 0.4981078681	 0.099716
H	 2.2069072133	-2.2196339736	-2.7832902132	 0.127403
H	 3.0504796208	-0.6778054536	-2.9466460515	 0.134437
H	 4.4459904965	-2.9715338582	-2.1458484936	 0.111283
H	 4.821841731	-1.4009984216	-1.4200879403	 0.118822
H	 2.9796512759	-3.5731205106	-0.2964556653	 0.110077
H	 4.1587861703	-2.5791529681	 0.5887613926	 0.119073
