17
gdb 32536	2.6116	1.33785	0.89475	0.0562	71.81	-0.2062	0.0336	0.2399	1279.2218	0.135165	-458.954347	-458.945565	-458.94462	-458.988103	31.762	
C	 0.0506960392	 1.3326471123	 0.0060178129	-0.250351
O	 0.024702977	-0.083009369	 0.0033043677	-0.256597
C	-1.2110933733	-0.6268821877	 0.011270475	 0.21211
C	-2.4462427109	-0.050536185	 0.0216863465	-0.139253
O	-3.4128277028	-1.0138975136	 0.0267379686	-0.159639
C	-2.7837680925	-2.2249310263	 0.0193473228	-0.139253
C	-1.432019006	-2.0501223747	 0.0097487605	 0.212108
O	-0.4192432629	-2.943008925	 0.0002467683	-0.256596
C	-0.8236217561	-4.2999324724	 0.0000175004	-0.250351
H	 1.1005276225	 1.6276909654	-0.0012328465	 0.137095
H	-0.4509683175	 1.7389923549	-0.882980989	 0.121742
H	-0.4376104975	 1.7353241151	 0.9040745223	 0.12174
H	-2.7898143599	 0.9686219595	 0.0265385698	 0.133335
H	-3.4201336382	-3.0919837391	 0.0222123072	 0.133335
H	-1.4112976459	-4.5374979875	 0.8974004503	 0.12174
H	-1.4245761676	-4.5332380473	-0.8896591298	 0.121742
H	 0.0873704125	-4.8993299598	-0.0081922769	 0.137094
