15
gdb 52354	11.72035	0.44084	0.43662	3.1649	85.97	-0.256	-0.0263	0.2297	2318.2699	0.109517	-420.592371	-420.582716	-420.581772	-420.628585	32.779	
O	 0.215306105	 0.022255857	-0.3128334614	-0.265449
C	 0.2058627971	 1.2142897841	-0.2942903988	 0.170041
O	 0.9130478294	 1.9351141947	 0.6011981723	-0.168943
C	 0.8629205698	 3.3590378106	 0.5108177811	-0.083407
C	 2.2185405185	 3.8911651056	 0.0165386734	-0.38066
C	 2.2456524188	 5.3433704181	-0.0256641593	 0.360159
C	 2.2373378072	 6.5530043265	-0.0511125842	-0.23911
C	 2.2332857793	 7.9134215497	-0.081722521	 0.290883
C	 2.2285407328	 9.120423998	-0.1086672086	-0.540586
H	-0.3771232169	 1.8506034284	-0.9893220266	 0.081943
H	 0.0575445169	 3.6763738077	-0.1620495389	 0.127647
H	 0.6445962195	 3.7396987123	 1.5113007162	 0.143708
H	 3.0060663493	 3.5121974233	 0.6791252924	 0.159682
H	 2.4238956585	 3.4788787855	-0.9796945643	 0.148006
H	 2.2262311248	 10.1819566786	-0.1325140923	 0.196085
