19
gdb 29787	2.45295	1.50855	0.95018	3.3278	80.54	-0.1743	0.0458	0.2201	1233.0646	0.159066	-419.235812	-419.225912	-419.224968	-419.27039	36.034	
C	-0.0749024174	 1.4490379109	 0.0396838995	-0.334901
N	 0.0502439836	 0.009742198	 0.0141458855	-0.050429
C	 0.0436377332	-0.7499186982	-1.1490083535	-0.228887
C	 0.0607901604	-2.0686087771	-0.7720396807	 0.313846
O	 0.0823300991	-3.1659992534	-1.5714948299	-0.455568
C	 0.0677455561	-2.1185978242	 0.6494575206	-0.024891
N	 0.1021649774	-3.3704648043	 1.3356874477	-0.632537
C	 0.0554865494	-0.8127632149	 1.1141205903	 0.268043
C	 0.0447287028	-0.3032236881	 2.5160706881	-0.507272
H	 0.5572334758	 1.87750003	 0.8225266658	 0.134067
H	 0.2535937396	 1.8528341732	-0.9204291374	 0.139663
H	-1.1089755025	 1.7737148798	 0.2150852574	 0.129974
H	 0.0350789131	-0.2840668014	-2.1196531786	 0.110756
H	 0.1001126328	-3.9147719017	-0.9562087835	 0.289171
H	-0.7087677656	-3.5145977746	 1.9282953353	 0.238145
H	 0.9270712477	-3.4761048047	 1.9169705897	 0.238271
H	 0.9166699078	 0.3221294981	 2.7477778704	 0.127303
H	-0.8488437689	 0.2910864972	 2.7466003999	 0.126584
H	 0.0600044158	-1.1515388747	 3.2058445734	 0.118665
