16
gdb 45349	2.40535	1.7835	1.17109	4.2376	69.75	-0.2323	-0.0498	0.1825	1023.0638	0.124732	-437.904327	-437.89683	-437.895886	-437.936931	28.536	
O	 0.0366232452	 0.1073915908	-0.6975605427	-0.2776
C	 0.0159060376	 1.1747165665	-0.1642650473	 0.403307
C	-1.0612037823	 2.0044898068	 0.5453184229	-0.347074
C	-0.0709910502	 3.2107796965	 0.5658029425	-0.019294
N	 0.3214073996	 3.6754133862	 1.9037787564	-0.294765
C	 1.3938809697	 2.7985785672	 2.3790140072	-0.293
C	 2.0277872868	 2.1130188722	 1.1532023287	 0.390389
O	 3.0739452233	 1.5254137981	 1.1300289973	-0.291889
C	 1.0636364322	 2.3104130513	-0.0250126616	-0.279919
H	-1.9800312153	 2.1380775443	-0.0317941756	 0.139849
H	-1.3306725474	 1.6309578398	 1.5387750631	 0.141993
H	-0.3972747411	 4.0493192715	-0.0483190645	 0.091801
H	 0.6742397629	 4.6225318604	 1.8324597253	 0.230257
H	 2.1470296819	 3.3373526149	 2.9579369104	 0.140769
H	 1.0016123673	 2.003533696	 3.0303551811	 0.142974
H	 1.6064197498	 2.5657968976	-0.9360194034	 0.122203
