24
gdb 113947	3.40539	0.78393	0.70474	1.1147	91.15	-0.2199	0.0868	0.3067	1732.4541	0.216955	-368.370422	-368.360457	-368.359513	-368.406085	37.247	
C	-0.7686974316	 1.558099072	 0.4554933626	-0.371023
C	-0.3829091395	 0.0914750249	 0.6388749011	-0.118195
N	-1.4615606365	-0.7691758073	 0.1657212823	-0.077305
C	-1.4363409612	-1.1779146958	-1.2351104489	-0.270674
C	-1.217607558	-2.1793072721	-0.1524824245	 0.029131
C	 0.1203759852	-2.8735856516	 0.0271648896	-0.251174
C	 0.3446729441	-3.3707816931	 1.4426460929	 0.043304
C	-0.2142305447	-4.7032702235	 1.877479354	-0.254766
C	 1.2754410348	-4.5251181514	 1.7089870264	-0.278556
H	 0.0126524655	 2.2168635963	 0.84711867	 0.107979
H	-0.9104310607	 1.793244205	-0.604569479	 0.117023
H	-1.7053100206	 1.7753110185	 0.9763366011	 0.125751
H	 0.5778384466	-0.096481711	 0.1309038429	 0.081191
H	-0.2280242722	-0.1199397898	 1.7040983459	 0.101532
H	-2.3792306716	-1.1257161182	-1.7740900152	 0.109328
H	-0.5630650454	-0.9001385539	-1.827232651	 0.099851
H	-2.0618612633	-2.8112910535	 0.1238669479	 0.087467
H	 0.1532329779	-3.7304575992	-0.6596840609	 0.095302
H	 0.9419137365	-2.2148834061	-0.2759880005	 0.098313
H	 0.3336948897	-2.5893164862	 2.197893899	 0.086064
H	-0.612838237	-4.7982744341	 2.881370231	 0.111638
H	-0.7380660615	-5.2985012442	 1.136038816	 0.109021
H	 1.748862317	-5.0005850213	 0.8557114239	 0.108538
H	 1.8953427668	-4.4962297445	 2.5983088933	 0.110262
