18
gdb 27174	2.94739	1.30393	0.9741	1.2916	80.84	-0.1732	0.0461	0.2194	1217.3046	0.148297	-401.964882	-401.956176	-401.955232	-401.998893	32.67	
O	 0.3165757437	 1.3861869021	-0.0660185569	-0.455125
C	 0.1446272202	 0.0285503066	 0.0016848179	 0.234948
C	-0.0854480994	-0.7554932131	-1.11001103	 0.240873
N	-0.2043223081	-2.0533503309	-0.6443789433	-0.32709
C	-0.0545653394	-2.0918317374	 0.7152216953	-0.080245
C	 0.1652019685	-0.8048923613	 1.1536755753	-0.277093
C	-0.1936255158	-0.3602676044	-2.5232691807	-0.07689
C	 0.3296612396	-1.2281272129	-3.6512595592	-0.27518
C	-1.1547093809	-1.0338932648	-3.4833470744	-0.275302
H	 0.4610979612	 1.7181259881	 0.8239258459	 0.293959
H	-0.3765170936	-2.8545575642	-1.2245449595	 0.256709
H	-0.1156320288	-3.0207648758	 1.2580035926	 0.114547
H	 0.3222839916	-0.4956285342	 2.1763795838	 0.084975
H	-0.0683220841	 0.7088925681	-2.6525921554	 0.103856
H	 0.8253280596	-0.742138719	-4.4844598816	 0.115687
H	 0.7555004813	-2.1917144015	-3.3891540777	 0.102872
H	-1.743153851	-1.8647969403	-3.1066715731	 0.102805
H	-1.6811194945	-0.4141469851	-4.200913109	 0.115695
