21
gdb 59373	4.44348	0.81524	0.72959	5.1372	83.87	-0.246	0.0183	0.2643	1575.3479	0.182373	-383.269392	-383.259671	-383.258727	-383.304238	35.817	
C	-1.3317563287	-0.4822494176	-0.4888164049	-0.390872
C	 0.0555013778	-0.0230193468	-0.0173771421	 0.01156
C	 0.2912813689	 1.4475367811	-0.3905032004	-0.395783
C	 0.2083748041	-0.2407826154	 1.4943943402	 0.072317
C	 0.3332189052	-1.7212246504	 1.9516745397	-0.271862
C	 1.8486889446	-1.4294379069	 2.1559649251	-0.109694
N	 1.556685151	 0.0160072453	 2.0732830052	-0.322224
C	 2.4636943095	-1.8674682301	 3.4111520726	 0.289355
N	 2.9463112665	-2.2327790717	 4.3957617138	-0.324292
H	-2.1205465275	 0.1040303555	-0.0029467574	 0.119757
H	-1.440169776	-0.3502343218	-1.5697450731	 0.11807
H	-1.5143436489	-1.5373481852	-0.262847631	 0.116359
H	 0.8148511883	-0.635565493	-0.5268775398	 0.069035
H	-0.4473626416	 2.0949830411	 0.0961168435	 0.122152
H	 1.2852726937	 1.7992000997	-0.0949901339	 0.110198
H	 0.2024718853	 1.5939216881	-1.4714828246	 0.119088
H	-0.5704481594	 0.3344189704	 2.011693991	 0.079617
H	-0.1849421781	-1.9394835792	 2.8851352291	 0.133533
H	 0.0994264051	-2.4899110129	 1.2148821109	 0.118422
H	 2.4547842149	-1.8257503333	 1.3303491652	 0.112106
H	 2.1991739252	 0.5545688732	 1.5026930909	 0.223158
