17
gdb 91010	4.37717	1.40914	1.2425	1.2389	67.33	-0.2428	0.0633	0.3061	1011.1392	0.136406	-458.894878	-458.887978	-458.887034	-458.925988	27.84	
C	 0.0814234882	 1.5454585851	 0.0106296652	-0.406358
C	 0.0760819236	 0.0355313194	 0.0046494984	 0.223584
O	 0.7389003163	-0.4259846493	-1.1593706606	-0.278087
C	 1.0602909717	-1.7874404941	-1.0639268026	 0.118177
C	 0.3253348895	-2.6711662753	-0.0026045327	-0.054293
O	 1.4928800733	-3.5596568062	 0.0094300851	-0.305234
C	 2.0864808885	-2.2118448513	 0.0225629973	-0.011165
C	 1.0317622895	-1.7958231508	 1.0847162456	 0.118181
O	 0.7077821506	-0.4351387676	 1.1822427664	-0.278089
H	 1.1117877023	 1.9083627815	 0.0256324157	 0.136338
H	-0.4180211772	 1.9220256982	-0.8848738263	 0.131237
H	-0.4414879779	 1.915039252	 0.895586131	 0.13124
H	-0.9531226018	-0.3656587234	-0.0105910579	 0.072291
H	 1.1939264864	-2.2168407428	-2.0570441924	 0.102361
H	-0.658001563	-3.1408345827	-0.0174948823	 0.100061
H	 3.1720151477	-2.1238591706	 0.0373147417	 0.097394
H	 1.1390515921	-2.2329957821	 2.0776388284	 0.102362
