21
gdb 58352	1.84201	1.31391	0.93567	0.7724	75.4	-0.2473	-0.0313	0.216	1349.5646	0.177935	-461.368281	-461.35701	-461.356066	-461.405961	39.898	
C	 0.1279066689	 1.5699028535	 0.111569686	-0.423741
C	 0.0419990014	 0.0443606988	 0.0979255902	 0.118989
O	 0.715446603	-0.5148659252	 1.2209204296	-0.427525
C	-1.4144140041	-0.475351647	 0.0217182188	-0.096151
C	-2.1547971294	 0.1215861543	-1.1551410837	 0.138369
O	-3.2709773053	 0.5773883262	-1.1107716372	-0.260122
C	-1.4280389315	-2.0297587772	-0.0773986951	 0.122283
C	-2.8117203832	-2.6301540436	 0.1522583092	-0.431508
O	-0.8584671208	-2.4659481895	-1.3122514206	-0.440616
H	 1.1707799286	 1.8847003462	 0.2026510266	 0.130359
H	-0.2855897392	 2.0082287551	-0.8028253828	 0.127092
H	-0.4346715053	 1.985310969	 0.9574347035	 0.114316
H	 0.5818427009	-0.3503146773	-0.7697789466	 0.113624
H	 0.358595694	-0.0989304263	 2.0140790369	 0.278305
H	-1.9549816462	-0.1792600209	 0.9300248865	 0.078709
H	-1.5948156501	 0.0909417368	-2.1180095168	 0.082649
H	-0.7379694415	-2.3854832476	 0.6934673684	 0.111765
H	-3.5406923723	-2.2503178624	-0.5735146538	 0.126979
H	-2.7635689094	-3.7191310915	 0.0621186637	 0.126773
H	-3.1869006911	-2.3828426421	 1.149951026	 0.12529
H	-1.5594593774	-2.5076893894	-1.9710563187	 0.284163
