17
gdb 5320	4.39183	1.5115	1.217	1.1935	69.03	-0.2391	0.0074	0.2465	1004.4381	0.142876	-363.904058	-363.896356	-363.895412	-363.936357	28.396	
C	 0.4383045967	 1.5908664619	-0.2645265152	-0.397977
C	 0.0419972228	 0.1466889405	 0.0649990624	-0.075206
C	 0.2201584632	-0.781682553	-1.1504750288	-0.383531
C	 0.7900030979	-0.3859636785	 1.2517313176	 0.264268
C	 1.7974887977	 0.1574546332	 1.9793038233	-0.123467
O	 2.149598518	-0.7275606192	 2.9650663756	-0.143739
C	 1.3200282553	-1.7754953388	 2.7747574368	 0.069884
N	 0.4976751939	-1.6433665421	 1.78897406	-0.307279
H	 1.4955160637	 1.6541034572	-0.5469191869	 0.116331
H	-0.1506598404	 1.9668542392	-1.1061513907	 0.115785
H	 0.2735929309	 2.2582002703	 0.5873597653	 0.116254
H	-1.0240356859	 0.1341292507	 0.3314318823	 0.095158
H	 1.2632003319	-0.7846200303	-1.4860170733	 0.112752
H	-0.057511296	-1.8073445584	-0.8964755653	 0.137908
H	-0.4046369703	-0.4471475426	-1.984851259	 0.108303
H	 2.3454398386	 1.0824497855	 1.9530313682	 0.145401
H	 1.4231823419	-2.6060168157	 3.4557161178	 0.149157
