19
gdb 69951	3.64281	1.45432	1.27387	3.1236	73.77	-0.2371	0.0654	0.3025	1041.613	0.160235	-423.004601	-422.997089	-422.996145	-423.036272	29.911	
C	 0.2007527511	 1.4709849414	-0.1629282405	-0.483917
C	-0.1443566695	 0.0326714133	 0.1128029427	 0.410249
C	-1.5801762563	-0.4623585701	-0.0437348589	-0.306933
C	-1.6527206761	-1.7804392588	 0.7473045439	-0.079891
C	-1.1853093663	-3.112145856	 0.1130452444	-0.076966
O	-0.0949974319	-3.2353665671	 1.0569254883	-0.288931
C	-0.3556195232	-1.9211725719	 1.5881358199	 0.105201
C	 0.5751272254	-0.8384785345	 1.0691060336	-0.048617
O	 0.8017372789	-0.9456121958	-0.3428277557	-0.281872
H	 1.2661319636	 1.6486752012	 0.0022248982	 0.132676
H	-0.029258225	 1.7304117512	-1.2023200403	 0.129088
H	-0.3737492719	 2.1418650611	 0.4844752103	 0.121527
H	-2.2726468204	 0.279117674	 0.3709918738	 0.102242
H	-1.8379388267	-0.5879812824	-1.1016595957	 0.112384
H	-2.5834042434	-1.8807641389	 1.3064922056	 0.083241
H	-1.8826638657	-3.9537669512	 0.1967901776	 0.096145
H	-0.8234652947	-3.0301629407	-0.9172255425	 0.111269
H	-0.4177749004	-1.9234825635	 2.6821955242	 0.07207
H	 1.4274717527	-0.4964575715	 1.6520390212	 0.091035
