16
gdb 4458	3.45027	1.84381	1.22131	1.6848	68.94	-0.1935	0.0377	0.2312	978.8623	0.1307	-379.97672	-379.968525	-379.96758	-380.008978	29.895	
C	 0.1754363722	 1.4839436649	 0.0121353375	-0.496726
C	-0.0423181313	 0.0176820447	-0.0211346722	 0.248429
C	-1.1102422048	-0.8121924172	 0.0319977954	 0.180457
C	-2.5614685031	-0.4905149061	 0.14843178	-0.494196
N	-0.6745125446	-2.1440911135	-0.0342164313	-0.384079
C	 0.6122348725	-2.0431035552	-0.1312831082	 0.435001
N	 1.5299214743	-3.0523830745	-0.3008254507	-0.589215
O	 1.0948670172	-0.7833223105	-0.1303732378	-0.218578
H	 0.7985483707	 1.7858451353	 0.8628384682	 0.132482
H	 0.6691046245	 1.8445426602	-0.8984074638	 0.134893
H	-0.7843570975	 1.9982833227	 0.1000579672	 0.136081
H	-3.118335469	-0.8852028036	-0.7085985394	 0.135157
H	-2.9913702484	-0.9467035211	 1.047030649	 0.133578
H	-2.7304810548	 0.5881396086	 0.1982235092	 0.117442
H	 1.1665428397	-3.9543493913	-0.0301149437	 0.268215
H	 2.4428522823	-2.8577700735	 0.0842180306	 0.261057
