19
gdb 32664	1.88398	1.70211	1.02254	2.4867	78.07	-0.2221	0.0183	0.2405	1204.7767	0.160831	-419.243926	-419.234955	-419.234011	-419.278047	32.744	
C	-0.1547887	 1.2775324366	-0.1294354537	-0.376256
C	-0.2112453756	-0.2025560858	 0.2567457697	-0.173386
N	 0.6510547731	-0.5325047599	 1.3872119189	-0.037856
C	 1.9456290163	-0.9533079809	 1.3218437572	 0.000629
N	 2.4770937963	-1.1483533001	 2.5088655008	-0.276817
C	 1.4743467955	-0.8393071834	 3.3930715471	-0.167328
C	 0.3320270769	-0.4508497542	 2.7341313521	 0.233325
C	-1.0116008304	-0.057449324	 3.2438331981	-0.197248
O	-2.0602280162	-0.9336311979	 2.8198625976	-0.40883
H	 0.863005755	 1.5731035882	-0.4003792438	 0.130442
H	-0.8084523358	 1.4657851896	-0.9866147819	 0.125081
H	-0.4847267415	 1.9155836931	 0.6953456368	 0.132537
H	-1.2280740897	-0.4988955117	 0.5242979939	 0.15049
H	 0.1034636787	-0.824388482	-0.5870456542	 0.120655
H	 2.4411699985	-1.1104351526	 0.3740326166	 0.123662
H	 1.6210097529	-0.9101353886	 4.461377516	 0.106915
H	-0.9577805259	 0.002657032	 4.3399160795	 0.111626
H	-1.3152685391	 0.9319512311	 2.8834553042	 0.11802
H	-1.796883489	-1.8273983895	 3.066106675	 0.284337
