17
gdb 49188	3.51872	1.32601	1.22933	2.4568	75.47	-0.2497	-0.0657	0.1839	1046.3196	0.13798	-421.837692	-421.830698	-421.829754	-421.869294	27.496	
O	-0.0409818189	-0.0123459916	 0.1092172871	-0.272697
C	 0.0090895493	 1.1959977964	 0.0289490002	 0.046245
C	 1.2483070218	 1.9647521203	-0.0609992498	 0.263484
C	 1.3702705798	 3.3069420186	-0.05558173	-0.164591
C	 2.8641261688	 3.590144223	-0.0275568332	 0.065344
C	 3.3979982322	 2.4439801093	-0.9015741031	-0.233348
C	 2.6531994853	 1.3848229615	-0.0450998651	-0.161268
C	 3.2300883277	 1.771045398	 1.3472629349	-0.078052
O	 3.3206536062	 3.2043653711	 1.2987573277	-0.275983
H	-0.9176491581	 1.8117567299	 0.0079633656	 0.071716
H	 0.5769010959	 4.0386498186	 0.0392751897	 0.120077
H	 3.1961429881	 4.6088111983	-0.2167734848	 0.08406
H	 3.0483783146	 2.4781938769	-1.9345646285	 0.110263
H	 4.4877010024	 2.3637566353	-0.8678792651	 0.109295
H	 2.7422888322	 0.3334730108	-0.3083900436	 0.096998
H	 2.5826364375	 1.4641483364	 2.1751822846	 0.111948
H	 4.2305131151	 1.3484335472	 1.4991291633	 0.106508
