20
gdb 78641	3.08003	1.60445	1.21687	0.7081	87.07	-0.2043	-0.0328	0.1714	1085.023	0.170086	-365.902707	-365.894562	-365.893618	-365.934637	32.773	
C	-0.6050726545	 1.2864012973	 0.1994835374	-0.389921
C	 0.1784311931	-0.0124596808	 0.1643964758	 0.05053
N	 0.9378963072	-0.0960286746	-1.1803441365	-0.190965
C	 2.179654903	 0.3941178539	-0.5211173316	-0.127548
C	 1.5777232737	-0.1003715252	 0.7955787245	 0.003628
C	 1.9788052911	-1.3616749368	 1.0766592377	-0.128603
C	 2.6857784882	-1.937317508	-0.1364910477	-0.30947
C	 2.283850835	-0.8988103115	-1.2084387493	 0.333654
C	 2.7739172105	-1.0662150844	-2.6230280522	-0.468914
H	 0.0414636798	 2.1453272647	-0.0002561927	 0.121479
H	-1.4031727109	 1.2728561654	-0.5491161831	 0.123357
H	-1.0587547398	 1.4184780779	 1.1868883822	 0.11879
H	-0.4741348938	-0.8684797875	 0.3660079957	 0.079703
H	 2.6460877053	 1.3443615544	-0.759575561	 0.088263
H	 1.367022989	-2.0157371232	 1.6931378078	 0.092839
H	 3.7837769352	-2.0104693548	-0.1230374395	 0.113522
H	 2.307648415	-2.9505814634	-0.3204747754	 0.113026
H	 2.3303909668	-1.9531109054	-3.0884782129	 0.124573
H	 2.5202490327	-0.1993113003	-3.2359589966	 0.134456
H	 3.8625715034	-1.1942168375	-2.6307912426	 0.117602
