24
gdb 102574	2.23011	1.13004	0.86339	2.2083	86.44	-0.2207	0.0816	0.3023	1475.7901	0.214695	-405.503159	-405.492054	-405.49111	-405.540057	39.634	
C	-2.6687636311	 1.2353079949	-1.8384551087	-0.391392
C	-1.8889657512	-0.0130526258	-1.409738478	-0.198955
C	-0.6488833301	-0.3457150673	-2.2773224891	 0.114193
O	 0.5771023373	 0.1028645933	-1.7050550087	-0.248609
C	 0.75198647	 1.4989933981	-1.6602158919	-0.234255
C	-0.4959011296	-1.8450101186	-2.430225845	 0.007937
C	-1.0919764695	-2.5534863047	-3.6002989282	-0.263361
N	 0.353235855	-2.469399654	-3.4372472984	-0.085298
C	 1.1067190155	-1.6440157743	-4.3700015514	-0.30879
H	-2.0571505404	 2.1412796103	-1.8011020886	 0.11801
H	-3.0382283946	 1.1310971978	-2.8646989219	 0.116129
H	-3.5369518391	 1.3948282867	-1.1911499054	 0.115705
H	-1.5499621203	 0.077842586	-0.3710869192	 0.111033
H	-2.5683189883	-0.8727841659	-1.434584084	 0.106145
H	-0.7715441302	 0.1244717935	-3.2665186248	 0.059382
H	 1.7875394553	 1.6827764886	-1.3612867867	 0.125572
H	 0.5807009733	 1.9650972914	-2.6438232051	 0.100513
H	 0.0912339191	 1.9861028188	-0.9288111749	 0.107954
H	-0.4682539345	-2.361161326	-1.4704265192	 0.091497
H	-1.535979745	-3.5399907554	-3.492280238	 0.111922
H	-1.5543226116	-1.9326171054	-4.3689432253	 0.099708
H	 0.5385024295	-0.8059972301	-4.8037428225	 0.094208
H	 1.9816564515	-1.235189723	-3.8579264008	 0.13361
H	 1.447954359	-2.276105709	-5.1961583841	 0.117144
