21
gdb 54112	2.50303	1.55792	1.17899	2.6001	83.13	-0.2288	-0.0089	0.2198	1143.5541	0.181344	-387.083301	-387.074171	-387.073227	-387.11786	34.982	
C	-0.0224705769	 1.5152105067	-0.0692317328	-0.487329
C	 0.0997191154	 0.0018989819	-0.1921608471	 0.313
O	 1.1835150139	-0.5010371289	-0.4066105176	-0.315095
C	-1.1719264844	-0.8018616359	-0.0838464474	 0.241385
C	-2.3076114675	-0.159470154	 0.7061398709	-0.477977
C	-1.6785693522	-1.5857250378	-1.2974196308	-0.089424
C	-0.5533289942	-2.2394813782	-2.1115861195	-0.239781
C	-0.1161608128	-3.0325123522	-0.8383876141	-0.228087
C	-1.2176966292	-2.3181748951	-0.0418081555	-0.096382
H	 0.9496549779	 1.9628463991	-0.2781692221	 0.138352
H	-0.7697714308	 1.9074954877	-0.767410426	 0.136922
H	-0.3448568644	 1.8017254054	 0.9374422683	 0.139423
H	-2.6226058853	 0.7967061213	 0.277845919	 0.120462
H	-3.1817201599	-0.8171975699	 0.7120833617	 0.121137
H	-2.0221449881	 0.0156877387	 1.7492060328	 0.122905
H	-2.6840841473	-1.3921642905	-1.6558985021	 0.084249
H	-0.9432475556	-2.8881528436	-2.8990337719	 0.100166
H	 0.1914262783	-1.5669343855	-2.5424709515	 0.112902
H	-0.3402493339	-4.0979444871	-0.9358458185	 0.093059
H	 0.9078333096	-2.8994926159	-0.4971663388	 0.127538
H	-1.8248092126	-2.7853214963	 0.7264191431	 0.082577
