19
gdb 90163	3.36672	1.43121	1.28212	2.3238	74.43	-0.2332	0.0689	0.3021	1035.9673	0.160805	-422.983715	-422.976122	-422.975177	-423.015411	30.511	
O	-0.070341569	 1.4327735823	-0.1217716521	-0.43127
C	 0.000020787	 0.0334515271	 0.0352904618	 0.049772
C	 0.2715476992	-0.5579503344	 1.4652148815	-0.336744
C	-1.084810699	-1.2804418328	 1.3835257548	 0.219533
C	-2.2066688559	-0.3047446108	 1.1979956865	-0.363464
C	-1.3651451073	-0.6546466678	 0.0035054349	 0.236314
C	-1.8279190161	-1.7881365658	-0.8772263004	-0.164305
O	-2.1885686587	-2.8409722157	 0.0339558896	-0.261005
C	-1.3763238405	-2.7519768807	 1.2141452105	-0.154202
H	 0.8157781415	 1.7927427237	-0.0105729505	 0.28378
H	 0.6756260909	-0.4163482857	-0.7060926313	 0.070728
H	 1.1307111606	-1.2329337861	 1.4926108004	 0.101364
H	 0.3649208182	 0.1750573146	 2.272343966	 0.100637
H	-3.2067983615	-0.7243982892	 1.193619851	 0.128804
H	-2.1253964273	 0.689151626	 1.6250765055	 0.123822
H	-2.7186834729	-1.5921087014	-1.4823186482	 0.110978
H	-1.0131997155	-2.1016263184	-1.5503704317	 0.08785
H	-0.4318987622	-3.3089571244	 1.0970664654	 0.08716
H	-1.9540220815	-3.2208073306	 2.0173457763	 0.110248
