16
gdb 34205	4.03504	1.43984	1.27162	4.8668	72.86	-0.2664	-0.0016	0.2648	984.1114	0.125807	-400.710569	-400.70384	-400.702896	-400.741587	26.941	
N	 0.1293493228	-1.1529456921	 0.0908401154	-0.337175
C	 0.0610334772	-0.0001506673	 0.0400162368	 0.208871
C	-0.0737967362	 1.441746912	-0.0350661862	 0.327079
C	-1.1248161129	 2.1638709629	 0.8509793716	-0.271331
C	-1.3136975627	 3.2218324992	-0.2693206773	-0.063924
C	-0.1160351217	 4.2069642306	-0.3761312577	-0.241429
C	 0.7259191551	 3.0850303008	-1.0235990753	 0.105045
O	 1.1927307444	 2.1330931788	-0.0314805217	-0.332329
C	-0.5671093503	 2.2605697351	-1.2726048428	-0.143009
H	-2.0196218592	 1.5450118708	 0.9624799947	 0.125732
H	-0.7745678546	 2.4912669957	 1.8324400677	 0.120184
H	-2.3172396939	 3.6117327868	-0.4282538205	 0.085169
H	-0.3269564846	 4.9952863472	-1.1059271084	 0.111477
H	 0.2752569067	 4.6539656943	 0.5412114614	 0.112666
H	 1.5039716732	 3.3237935039	-1.7491297067	 0.093842
H	-0.9312684532	 1.8523063312	-2.2102254409	 0.099131
