19
gdb 116688	5.19603	0.78194	0.76112	3.7065	81.77	-0.2314	0.0085	0.2399	1553.5634	0.159119	-419.117755	-419.109021	-419.108077	-419.152539	31.55	
C	 0.2394638534	 1.2453757178	 0.264624783	-0.251751
O	-0.2877433312	 0.0379235184	-0.2758123181	-0.191267
C	 0.5427103946	-0.6594895865	-1.0672540843	 0.104004
N	 0.1706482685	-1.7424847015	-1.5945313209	-0.334896
C	 1.0987176315	-2.4266143325	-2.4189270993	 0.346003
C	 2.5696626991	-2.1206042187	-2.8467321781	-0.22286
N	 2.2863249253	-3.4451248872	-3.5642853033	-0.141367
C	 1.6146476764	-3.8755533063	-2.2498448192	-0.200412
C	 0.9172271888	-2.8317492113	-3.9012010796	-0.20041
H	 1.114216063	 1.0528511152	 0.8971364662	 0.130417
H	 0.5128797926	 1.9529184277	-0.527180515	 0.130415
H	-0.553669939	 1.6795500346	 0.8738469029	 0.150236
H	 1.537429386	-0.2076429197	-1.201878572	 0.083683
H	 2.7500499132	-1.2870471867	-3.5318683491	 0.097119
H	 3.3580705806	-2.1970501446	-2.0921876467	 0.097121
H	 2.3232976412	-4.0766613515	-1.4415081901	 0.096943
H	 0.8977603801	-4.6914937507	-2.3699235889	 0.105038
H	 0.1506076569	-3.5732565836	-4.1390373928	 0.105039
H	 0.9649087391	-2.0436076527	-4.6579022849	 0.096943
