19
gdb 98455	2.98676	1.16777	0.98291	3.9686	72.06	-0.2609	-0.0267	0.2343	1249.5371	0.156903	-460.1638	-460.154326	-460.153381	-460.198948	35.031	
O	 0.0888217045	 1.4215369518	-0.0050104721	-0.427893
C	 0.0571626751	 0.0259398754	-0.0581046634	-0.132637
C	-1.3714849674	-0.489125741	-0.0060991032	 0.329943
O	-2.2897833654	 0.3057927545	 0.0378033953	-0.343889
C	-1.6114983751	-1.989072913	 0.0229753001	 0.294989
O	-0.3975189785	-2.6104748187	-0.3257024327	-0.481066
C	-2.3045282584	-2.411327195	 1.3661738841	-0.266944
C	-3.6701155677	-2.3977039442	 0.6313474446	-0.205766
C	-2.9169966805	-2.4047736346	-0.7247508186	-0.260589
H	-0.8416889971	 1.6957918695	 0.0245346031	 0.291685
H	 0.5234174372	-0.3620845535	-0.976707484	 0.131423
H	 0.6198222433	-0.4267969572	 0.7730552506	 0.123134
H	-0.501690856	-3.5610834194	-0.2213749316	 0.283438
H	-1.9848595811	-3.4228209132	 1.63861012	 0.097081
H	-2.1721265006	-1.7569436652	 2.2303631771	 0.116557
H	-4.3438607794	-3.2326075784	 0.8310847247	 0.10124
H	-4.2017062156	-1.4588150964	 0.7866639666	 0.134242
H	-3.2697540897	-1.7307266012	-1.5067848527	 0.119774
H	-2.8031483176	-3.41146177	-1.1388783378	 0.095278
