21
gdb 40166	2.99353	1.56186	1.37643	1.3705	81.55	-0.2345	0.0887	0.3232	1036.2319	0.185118	-387.062111	-387.054806	-387.053862	-387.093438	30.742	
C	-0.3579530411	 1.4043134162	 0.062060067	-0.31029
C	 1.1219049106	 1.109226184	-0.0410626229	-0.336898
C	 0.1277027824	-0.0196515364	-0.0284149141	 0.375903
C	 0.0985014463	-0.9287381351	 1.2022475578	-0.149157
O	-0.8069847524	-2.0227781395	 1.0658027211	-0.276653
C	-0.9349435956	-2.4937545398	-0.270629594	 0.136115
C	 0.3566493124	-2.2720880632	-1.108273077	-0.268546
C	-0.1694616509	-0.8149436678	-1.2915499738	-0.099742
C	-1.6039024454	-1.408306869	-1.1540349266	-0.231725
H	-0.7417496382	 1.7588592387	 1.0133939103	 0.110806
H	-0.8533514583	 1.8327354937	-0.8037840468	 0.110545
H	 1.6277692573	 1.3377269669	-0.9737392187	 0.111103
H	 1.7342042274	 1.2625715394	 0.8428668651	 0.109736
H	 1.1110076936	-1.319759124	 1.3849838661	 0.094781
H	-0.2049517562	-0.381246231	 2.1002280122	 0.103934
H	-1.3763633287	-3.4899274568	-0.2048659817	 0.073118
H	 1.3278897807	-2.4355640156	-0.6356722212	 0.1008
H	 0.3096369605	-2.8368316716	-2.0423331729	 0.1009
H	 0.0914150469	-0.2631809798	-2.1983857517	 0.054666
H	-1.9739499297	-1.8186823108	-2.0977239416	 0.091831
H	-2.3716855913	-0.7922490485	-0.6804120667	 0.098772
