17
gdb 37003	4.02177	1.99102	1.57876	0.1046	80.17	-0.2156	-0.0047	0.2109	843.4035	0.138476	-347.4802	-347.474535	-347.47359	-347.509641	25.705	
C	-0.0695202198	 1.5268452138	-0.0438255632	-0.091267
C	 1.2201740762	 1.8942587243	-0.0237940054	-0.256
C	 1.9569861355	 0.579190364	 0.0562241836	 0.357695
C	 3.3769384534	 0.0708066846	 0.1193198058	-0.256
C	 3.2277632031	-1.2608670722	 0.174972439	-0.091266
C	 1.7161354181	-1.4950409877	 0.1427037098	-0.129869
C	 1.103727719	-0.3545634817	 1.017835367	-0.033692
C	-0.0504542546	-0.0014650443	 0.0254786514	-0.129869
C	 1.1570419642	-0.4392336913	-0.8644056456	-0.033692
H	-0.9485509908	 2.1544485156	-0.0969683515	 0.101124
H	 1.6494651468	 2.8854724152	-0.0562093524	 0.104575
H	 4.2842295051	 0.65789153	 0.1186211937	 0.104575
H	 3.99271574	-2.0231812049	 0.2309181849	 0.101124
H	 1.3268739875	-2.5123302346	 0.1774397535	 0.058813
H	 1.0893816694	-0.2856942542	 2.1114909956	 0.067467
H	-0.9901090583	-0.5534198947	 0.023691264	 0.058813
H	 1.2046767056	-0.4687934017	-1.9588865003	 0.067468
