19
gdb 32898	4.50687	0.85321	0.72724	2.6546	79.9	-0.2127	0.0366	0.2493	1574.3091	0.159398	-419.231911	-419.222411	-419.221467	-419.267558	32.79	
C	-0.0230648511	 1.413786628	-0.045661801	-0.220386
O	-0.026497349	 0.0085206152	-0.0055990991	-0.233871
C	 0.639808373	-0.5707878722	-1.1064640131	-0.163163
C	 0.5846132015	-2.0582158846	-0.9773602594	 0.245433
C	 0.0023220648	-2.8012856007	 0.0155584189	-0.192055
N	 0.2262148676	-4.1196576478	-0.3265870562	 0.018914
C	-0.1988379183	-5.2891651413	 0.4133924068	-0.336989
C	 0.9248196149	-4.1014125434	-1.4963331269	-0.006348
N	 1.1595579438	-2.8797586919	-1.9193765571	-0.334245
H	 1.0005338319	 1.8213763997	-0.0306508665	 0.104122
H	-0.5297773186	 1.7990486756	-0.9450651194	 0.104122
H	-0.5570394147	 1.7688187144	 0.8392928933	 0.123694
H	 0.1731805138	-0.2545673687	-2.0558459693	 0.101226
H	 1.6898297263	-0.232187968	-1.1496606312	 0.101225
H	-0.533527498	-2.5204865326	 0.9055721213	 0.133888
H	-1.2891116077	-5.3205414432	 0.5045110608	 0.144259
H	 0.1314039127	-6.1843901629	-0.1171025891	 0.144026
H	 0.2377163274	-5.2980681122	 1.4170481588	 0.144256
H	 1.2318409895	-5.0136567236	-1.9876740119	 0.121892
