19
gdb 71946	2.71526	1.91159	1.44044	1.3573	73.57	-0.2407	0.0643	0.305	948.5604	0.160704	-423.000878	-422.993558	-422.992613	-423.032343	29.841	
O	-0.0131696017	 1.3933171658	 0.0362367324	-0.489048
C	 0.0273631031	-0.013885342	 0.0004907776	 0.385087
C	 0.2270644997	-0.6536243045	-1.4132804625	-0.30193
C	-1.1336378287	-1.3959566807	-1.2920336412	-0.027272
C	-1.0637930592	-2.7643540614	-0.5717564027	-0.242184
C	-1.0215046462	-2.033866417	 0.8006831425	 0.110444
O	 0.2973788621	-1.9446726406	 1.3446599591	-0.275386
C	 0.8277496374	-0.6420122691	 1.1462874634	-0.133713
C	-1.3595685428	-0.6929881872	 0.0943572502	-0.111945
H	 0.8588732531	 1.725150885	-0.2048589502	 0.278356
H	 0.2014202041	 0.1246510645	-2.1801994963	 0.104224
H	 1.1165600977	-1.2747362542	-1.5571107189	 0.095441
H	-1.8151636754	-1.3018871155	-2.1367086706	 0.069632
H	-1.9924161771	-3.3295598712	-0.6951206299	 0.098986
H	-0.2137395742	-3.41739606	-0.7869261843	 0.099488
H	-1.702272759	-2.4061107783	 1.5709752091	 0.078129
H	 1.8993657917	-0.7364660766	 0.9304379093	 0.094627
H	 0.7049717605	-0.0182830649	 2.0451940863	 0.094489
H	-2.224376665	-0.1019911319	 0.3882520866	 0.072575
