19
gdb 65316	3.73109	1.02956	0.93296	1.9471	83.23	-0.24	0.0459	0.2859	1299.9934	0.156792	-385.825035	-385.81577	-385.814826	-385.858881	34.939	
C	-0.1047597702	 1.793198779	 0.2002653982	-0.468005
C	-0.0642938425	 0.2974759883	-0.0346908279	 0.295421
C	 1.2172453839	-0.3577850816	-0.4571711654	-0.336593
C	 0.6893316501	-0.6021608472	 0.9512432516	-0.239005
C	 1.3591348866	-0.0602156433	 2.0951434891	 0.319099
C	 1.9159137335	 0.3894333408	 3.0629101036	-0.443482
C	-1.351863156	-0.2659905269	-0.5655639844	 0.00513
C	-1.5671020289	-0.5408387216	-1.9932111969	-0.174862
O	-1.3287878071	-1.6031468853	-1.0633049474	-0.235236
H	 0.8123039309	 2.1402591425	 0.68080466	 0.136336
H	-0.225793752	 2.331414323	-0.7462874437	 0.117903
H	-0.9423669296	 2.0668744073	 0.8521117336	 0.122011
H	 1.1606087479	-1.1996947551	-1.1373270991	 0.132685
H	 2.0962191886	 0.2688032841	-0.5548403446	 0.120314
H	 0.2428441859	-1.5808560182	 1.1014389876	 0.125508
H	 2.4104467016	 0.7793900496	 3.9174587998	 0.192392
H	-2.2303788773	-0.0361574771	 0.0411939145	 0.095868
H	-2.5722522813	-0.5051494168	-2.409620618	 0.117897
H	-0.7587476639	-0.3534153316	-2.6979418504	 0.116616
