21
gdb 66365	2.22779	1.38276	1.31445	2.7946	81.93	-0.2647	0.0333	0.298	1141.3296	0.185434	-383.309346	-383.300644	-383.2997	-383.342148	34.329	
N	-0.0536767949	 1.4710091488	 0.0690236088	-0.531067
C	 0.0132540701	 0.0075725425	-0.0207659236	 0.103408
C	 0.7765107129	-0.5349331893	 1.2098448895	-0.19933
C	 0.7486282677	-2.0656236137	 1.2961016811	-0.213729
C	-0.6897510097	-2.6028810346	 1.2771436938	-0.183062
C	-1.4589839738	-2.0901874303	 0.051027718	-0.213732
C	-1.4253708227	-0.5594242188	-0.0320760001	-0.199324
C	 0.7163449576	-0.4180566812	-1.2589996397	 0.258398
N	 1.2696423078	-0.7057132535	-2.2337705526	-0.35904
H	 0.8848942351	 1.8622255451	 0.0537728937	 0.237157
H	-0.5325314989	 1.8464283963	-0.7458108144	 0.237155
H	 1.8087859271	-0.1674365524	 1.1894325929	 0.102232
H	 0.2933066847	-0.091003654	 2.0878152336	 0.114138
H	 1.3100177783	-2.4894228291	 0.4539094439	 0.119771
H	 1.2649137232	-2.3855901796	 2.2073082007	 0.099082
H	-0.6842023036	-3.6979534055	 1.2889352372	 0.097494
H	-1.2087100656	-2.2818090933	 2.1909562516	 0.095239
H	-1.0215563718	-2.5154080195	-0.8610554628	 0.119764
H	-2.5003334459	-2.4274472505	 0.0837628509	 0.099085
H	-1.9342265178	-0.1157520734	 0.8314069361	 0.114133
H	-1.9479594895	-0.2092153741	-0.9294717285	 0.102227
