19
gdb 57260	2.12748	1.61185	1.23591	5.0457	74.66	-0.2591	0.0282	0.2874	1103.1389	0.156815	-419.193471	-419.183475	-419.18253	-419.228061	37.015	
C	-0.2804169715	 1.5077688236	-0.1971181603	-0.41105
C	 0.0188620995	 0.0069826478	-0.0047824182	 0.002851
N	 0.734676177	-0.1730614605	 1.2649842717	-0.522695
C	-1.2770720987	-0.6946585872	 0.1330024482	 0.325398
N	-2.2829632596	-1.2479486913	 0.2598669223	-0.354777
C	 0.7770354178	-0.5520050851	-1.2392470612	 0.396949
C	 2.1667874306	 0.0063812211	-1.4735509548	-0.480165
C	 0.4403493949	-1.8767632412	-1.7868493077	-0.243692
O	-0.024602301	-0.6733139104	-2.4142444444	-0.267214
H	 0.651373684	 2.0799724555	-0.2157681803	 0.11975
H	-0.8106807759	 1.6690028965	-1.1375645364	 0.155961
H	-0.8900516062	 1.8722233377	 0.6313827138	 0.149416
H	 1.0186654283	-1.1411791529	 1.3826637773	 0.240057
H	 1.5739310527	 0.3973213136	 1.2709328862	 0.237741
H	 2.8378457241	-0.220499458	-0.6397494298	 0.118783
H	 2.5869061125	-0.4357211393	-2.3793450866	 0.139242
H	 2.1458952864	 1.0912230884	-1.6118154534	 0.134916
H	 1.2007070085	-2.4232702294	-2.3429916445	 0.114594
H	-0.3346832437	-2.4853946288	-1.3279819518	 0.143935
