19
gdb 100619	2.10309	1.21195	0.81027	1.5348	83.59	-0.2549	0.0327	0.2876	1423.7912	0.154565	-385.816739	-385.806004	-385.80506	-385.85256	39.05	
C	 0.0279415585	 1.5825606193	 0.0954685912	-0.386587
C	 0.0185152954	 0.0542238712	 0.012466529	-0.199573
C	 0.7038773363	-0.4716694056	-1.2520783429	 0.137788
O	 2.0565656721	-0.0653529214	-1.3310254319	-0.415605
C	 0.5970567467	-2.0335833045	-1.3693991765	-0.406951
C	-0.7981353913	-2.480804916	-1.4125196337	 0.335591
C	-1.9478726744	-2.8268005074	-1.4516211963	-0.446672
C	 1.3405655177	-2.5323505349	-2.5294379847	 0.344733
C	 1.9422282908	-2.9438055728	-3.4832936263	-0.434391
H	 1.0481354159	 1.9703235986	 0.0337120187	 0.126593
H	-0.5443282829	 2.0227415751	-0.7282343197	 0.119753
H	-0.4171002284	 1.9275017165	 1.0332980767	 0.112503
H	 0.5321548429	-0.3723947792	 0.8879807563	 0.083306
H	-1.0080073537	-0.3237457454	 0.0452853949	 0.12106
H	 0.2260155585	-0.0447563352	-2.1403667684	 0.10873
H	 2.5049598492	-0.3536984734	-0.5274249543	 0.280046
H	 1.0607777314	-2.4475534361	-0.4594776464	 0.122701
H	-2.9609953539	-3.1430181032	-1.4902936407	 0.200323
H	 2.4768647992	-3.3031072654	-4.3274213151	 0.19665
