21
gdb 63961	3.4743	1.18453	1.13853	1.5711	84.97	-0.236	0.0063	0.2423	1198.5534	0.182347	-387.062592	-387.054084	-387.05314	-387.095165	33.793	
C	-0.0850340901	 1.5613803723	 0.0174468617	-0.431091
C	-0.0047200076	 0.0280691582	 0.0100950662	 0.276995
C	-1.4275025455	-0.5651561016	 0.0239926907	-0.41634
C	 0.8258922066	-0.4996006531	-1.2258677163	-0.293764
C	 1.4924856206	-1.7688523471	-0.682280466	 0.106302
O	 2.9549432031	-1.9550705588	-0.6937460322	-0.309135
C	 2.9719762807	-2.0966772139	 0.761246306	-0.156036
C	 1.5834001202	-1.5109581802	 0.7861839795	 0.175282
C	 0.8475008997	-0.4833573302	 1.187285523	-0.232596
H	 0.9120010708	 2.0109168896	 0.0659388587	 0.115039
H	-0.576091857	 1.9274525923	-0.8911742333	 0.114828
H	-0.6628845614	 1.924752889	 0.8748090327	 0.111016
H	-2.0154753247	-0.1986586344	-0.8251900725	 0.110443
H	-1.4036569326	-1.6582082851	-0.0237688496	 0.115574
H	-1.9567203222	-0.2853876529	 0.9413944884	 0.112189
H	 0.207506833	-0.6558916434	-2.1150701489	 0.091854
H	 1.6074071632	 0.226620494	-1.4715348522	 0.11208
H	 1.01440045	-2.6986923652	-1.0168869506	 0.078033
H	 3.060166699	-3.1518949891	 1.0525028359	 0.105833
H	 3.7707925893	-1.5166873835	 1.2352504673	 0.118608
H	 0.884286755	 0.0300492633	 2.1419556013	 0.094886
