19
gdb 91230	3.25058	1.27981	1.10307	1.7813	75.29	-0.2386	-0.0268	0.2117	1153.7003	0.159092	-423.048854	-423.040714	-423.039769	-423.081901	31.282	
C	-0.33624046	 1.3945380081	-0.0295425086	-0.402591
C	 0.1614739819	-0.0291194383	-0.2025981699	 0.129645
C	 1.2609221912	-0.2260459949	-1.2642008751	-0.241878
C	 2.0146360763	-1.4593479262	-0.7497083779	-0.173711
C	 1.651021851	-1.5197509477	 0.7729370265	 0.100245
C	 1.0054409802	-2.930339137	 0.5849768956	-0.374077
C	 1.2875416607	-2.8104538895	-0.9221167642	 0.394405
O	 1.0325421001	-3.487233242	-1.8755935135	-0.297844
O	 0.7516261612	-0.4621198476	 1.0300471638	-0.270129
H	 0.4957035906	 2.06171827	 0.2160179188	 0.122986
H	-0.8100484095	 1.7478585664	-0.9504984211	 0.118764
H	-1.0713022211	 1.4494577707	 0.7779421918	 0.128681
H	-0.692414667	-0.6837940571	-0.4458902385	 0.076301
H	 0.8538869809	-0.3663787901	-2.2686242835	 0.123211
H	 1.9292050295	 0.6413539249	-1.2797924292	 0.108367
H	 3.0689214842	-1.4837276336	-1.0329204619	 0.100401
H	 2.4564561484	-1.4686774716	 1.5066401954	 0.087409
H	 1.5649755853	-3.7472588178	 1.052284602	 0.132669
H	-0.0463143441	-3.0184750168	 0.8714965096	 0.137148
