20
gdb 93517	2.78672	1.29002	1.00153	3.4413	75.48	-0.2367	0.032	0.2687	1212.952	0.17215	-440.336334	-440.327323	-440.326379	-440.369975	34.354	
C	-0.0828765389	 1.5587526351	-0.0381814473	-0.38512
C	 0.0226100314	 0.0298210269	 0.0483480351	 0.025146
N	 0.6576670398	-0.5413880363	-1.1379296325	-0.312687
C	 1.9628778989	-0.9215247576	-1.3079506923	 0.392941
O	 2.4073696307	-1.2038867597	-2.4055063556	-0.379425
C	 2.8050652763	-1.0444276635	-0.0410788204	-0.31471
C	 2.2759140642	-0.2491803823	 1.1570996437	-0.25392
C	 0.7694584864	-0.4676423612	 1.2985565912	 0.127786
O	 0.2070162296	 0.2102557744	 2.4098193784	-0.438416
H	 0.9038020586	 2.0267639004	-0.1021804747	 0.120697
H	-0.6436157321	 1.8430861613	-0.9343244838	 0.110422
H	-0.6009505731	 1.953296754	 0.8378216558	 0.141167
H	-0.996123936	-0.3734230775	 0.1034319799	 0.093979
H	 0.1554851888	-0.4612190069	-2.011622137	 0.243046
H	 2.8366096291	-2.1146312652	 0.2007492237	 0.131026
H	 3.826098532	-0.7612868737	-0.3059006682	 0.132373
H	 2.7865334992	-0.5648963883	 2.0753500035	 0.09062
H	 2.4790278201	 0.8204197607	 1.0370216142	 0.11602
H	 0.585009983	-1.5519685861	 1.379378794	 0.073264
H	 0.6688175817	-0.0825150443	 3.2014624423	 0.285794
