17
gdb 17176	4.04347	1.84113	1.59022	0.9705	67.82	-0.2351	0.0615	0.2966	862.998	0.141826	-363.751221	-363.744168	-363.743224	-363.782563	27.208	
C	-0.0467427649	 1.5455737982	-0.0432851684	-0.382004
C	-0.0782698575	 0.0124896291	-0.0392104814	-0.33329
C	-1.467162787	-0.5359619424	 0.0200825037	 0.517864
O	-2.4221488482	-0.2256199496	-1.0487143214	-0.360967
C	-3.1898869083	-1.0660548539	-0.1444027529	 0.072625
C	-1.9894268793	-1.9959457666	 0.2223672436	-0.135892
N	-2.0986544487	-1.8070347451	 1.7062626729	-0.350069
C	-2.5468930053	-0.4864683966	 1.1551594035	-0.122049
H	 0.9796647997	 1.9131036709	-0.1292582474	 0.114112
H	-0.6254996921	 1.9416798483	-0.8820866129	 0.138775
H	-0.4732162753	 1.950469258	 0.8800879527	 0.118953
H	 0.4100291331	-0.3786894841	-0.9401117613	 0.113304
H	 0.4696656797	-0.3878169198	 0.8219759139	 0.125467
H	-4.2273044004	-1.2958406716	-0.391822622	 0.093034
H	-1.6513945502	-2.9177118412	-0.2527874246	 0.088594
H	-2.9011295437	-2.3275916315	 2.0690103563	 0.212246
H	-2.8637753317	 0.3557018177	 1.7713037259	 0.089299
