20
gdb 12780	3.47653	1.47433	1.26049	1.1726	74.66	-0.2429	0.0803	0.3232	1060.0998	0.176426	-348.976984	-348.96854	-348.967596	-349.009583	32.309	
C	 0.0196720887	 1.5801136796	-0.0678723352	-0.377563
C	 0.0179787307	 0.0639200559	 0.1554017234	-0.202365
C	-1.3668116757	-0.560070498	 0.0103023677	-0.020847
C	-2.0452173108	-0.6566685861	-1.4050348158	-0.249915
C	-2.262752221	-2.158608933	-1.1838986452	-0.102405
C	-0.922700431	-2.8362135043	-0.9957479412	-0.34478
C	-1.5373445519	-2.0808064092	 0.1503438466	 0.378889
O	-1.8885696478	-2.7029124073	 1.3383762745	-0.463571
H	 1.0244145307	 1.9998417875	 0.042880348	 0.110161
H	-0.3378006606	 1.8336212848	-1.0718434531	 0.118045
H	-0.6343688021	 2.0851662186	 0.6516909484	 0.114035
H	 0.7132024304	-0.4101655411	-0.5492278126	 0.091574
H	 0.4033256914	-0.1567163721	 1.1603559693	 0.089755
H	-2.0616156101	-0.0751610967	 0.7054180647	 0.076652
H	-2.967398224	-0.0769665145	-1.4788674331	 0.10318
H	-1.4027828787	-0.4025631347	-2.2557618627	 0.091997
H	-3.1491325553	-2.7208202533	-1.4494345297	 0.091113
H	-0.977815553	-3.9145309245	-0.8821318874	 0.110067
H	-0.0397290444	-2.4809983736	-1.522904881	 0.101712
H	-1.0857188154	-3.0267316679	 1.7603605645	 0.284265
