19
gdb 26496	3.54909	1.27948	1.02238	3.2791	82.18	-0.2069	0.0357	0.2427	1187.3613	0.161115	-382.104976	-382.096812	-382.095867	-382.137706	31.867	
C	 0.0666066627	 1.5147540112	-0.1048466313	-0.479637
C	 0.0163585765	 0.0022127762	-0.0276687143	 0.255387
C	 1.3206156435	-0.766106746	-0.1479355862	-0.294562
C	 0.6313858469	-0.6751050654	 1.1843913617	-0.294589
C	-1.1929094141	-0.6246555574	-0.6102956642	 0.271019
C	-2.2694223484	-0.0169420472	-1.2091808874	-0.217859
N	-3.1172971044	-1.0429677969	-1.5778933413	-0.240705
C	-2.5288279217	-2.2071991534	-1.1930516481	 0.011136
N	-1.3733764639	-1.9953146742	-0.6096523047	-0.323966
H	 0.9877212282	 1.8958180679	 0.34537009	 0.110936
H	 0.0355307114	 1.8627807618	-1.1441706392	 0.113508
H	-0.7769043849	 1.9698596428	 0.4277668119	 0.113516
H	 1.2813687713	-1.7173760012	-0.6651516301	 0.127813
H	 2.2271633815	-0.1901857715	-0.3035467154	 0.10104
H	 1.0618644743	-0.036402937	 1.9488943284	 0.10104
H	 0.1351605527	-1.5660141517	 1.5505207389	 0.127831
H	-2.5099159111	 1.0138426561	-1.4044679674	 0.125649
H	-4.0044585471	-0.9433101815	-2.0409214017	 0.264591
H	-2.9859416332	-3.1706494126	-1.3637805198	 0.127851
