19
gdb 97284	1.9899	1.06824	0.70111	0.5579	90.51	-0.2297	-0.0114	0.2183	1622.146	0.158141	-415.394222	-415.38403	-415.383086	-415.429707	35.334	
C	-0.0879499074	 1.2405094518	-0.5748863291	-0.313654
N	-0.0110863505	-0.1381641416	-0.1380937148	-0.236868
C	 0.4163460046	-0.98824559	-0.970641531	 0.117093
N	 0.5325925582	-2.3507597481	-0.6555349852	-0.154822
C	 0.1700652646	-2.8101580956	 0.6158449668	 0.095341
N	 0.262032359	-4.0360421521	 0.9358819129	-0.465623
C	 1.012841884	-3.2539509227	-1.61605271	 0.116047
N	 1.3519099494	-2.8841728811	-2.7766818666	-0.235182
C	 1.8334494148	-3.9042919602	-3.685153438	-0.314027
H	 0.5235495392	 1.8679966017	 0.0837016547	 0.129891
H	 0.2444358133	 1.3960374359	-1.6129554498	 0.105324
H	-1.1205128485	 1.5966691257	-0.48337317	 0.129892
H	 0.7352111241	-0.7806354173	-1.9944920998	 0.13804
H	-0.1808226727	-1.9885911993	 1.2403857354	 0.144646
H	-0.047159229	-4.1688084393	 1.8963293185	 0.234569
H	 1.04898448	-4.2756196241	-1.2316962455	 0.143824
H	 1.2033575262	-3.922708176	-4.5818513943	 0.129749
H	 2.8475143418	-3.6511343929	-4.0153034593	 0.129746
H	 1.850106809	-4.9150856348	-3.2489903949	 0.106013
