14
gdb 9128	7.55282	0.76052	0.69699	3.4632	66.38	-0.2727	-0.033	0.2397	1546.6848	0.104374	-419.660168	-419.650855	-419.649911	-419.695788	29.999	
C	-0.0488681451	 1.33915584	 0.0705867327	-0.241351
O	 0.0213995765	-0.0903141324	-0.0269630348	-0.219336
C	 0.6479944106	-0.5514151846	-1.1268905113	 0.260268
O	 1.1255899434	 0.1490413845	-1.9849343858	-0.354051
C	 0.6696895626	-1.9940061939	-1.1381590993	-0.068597
C	 0.7221173354	-3.1951579264	-1.2081807781	 0.273345
C	 0.7612566326	-4.6497372597	-1.2492830616	-0.228304
O	 1.4270621645	-5.0813805264	-2.4242129175	-0.402419
H	 0.9537331918	 1.7734445788	 0.0943115062	 0.144583
H	-0.5928281952	 1.7571011176	-0.7801792889	 0.144594
H	-0.5773604494	 1.5433805833	 1.0014401524	 0.135804
H	 1.2673273034	-5.0086096071	-0.3378806119	 0.130098
H	-0.2742692768	-5.0256196628	-1.2052502483	 0.130083
H	 1.4336786557	-6.044031721	-2.4158928837	 0.295282
