14
gdb 127683	2.58329	1.86862	1.09177	3.7351	68.94	-0.2443	-0.053	0.1913	1025.7931	0.101343	-470.021348	-470.013398	-470.012453	-470.054665	28.214	
C	-0.0225503612	 1.422385523	-0.0333519239	-0.330046
N	-0.0261114683	-0.0334253125	 0.0050633201	-0.096931
N	-0.0764583834	-0.6398549056	-1.2279353432	-0.244889
C	-0.0819718347	-1.908483054	-1.2570092154	 0.132924
O	-0.0432455076	-2.7476142621	-0.1936372383	-0.224382
C	 0.0087754377	-2.2156687846	 1.0883088363	 0.294016
N	 0.0461016164	-2.9514589548	 2.1063730302	-0.459945
C	 0.0186587494	-0.7059520319	 1.2083232861	 0.398727
O	 0.0626009431	-0.1516223675	 2.2827333704	-0.339697
H	 0.8474084941	 1.7761257886	-0.5931002685	 0.145216
H	-0.9310133543	 1.7822796874	-0.5237077762	 0.145218
H	 0.018740999	 1.7809474099	 0.9930209676	 0.177215
H	-0.1207292524	-2.4350406658	-2.2008505425	 0.162689
H	 0.0323557322	-3.9384706201	 1.8423530374	 0.239885
