15
gdb 29422	5.74045	0.97615	0.83513	1.9899	74.34	-0.1879	0.0007	0.1886	1309.6331	0.114575	-450.153274	-450.14499	-450.144046	-450.186758	30.307	
N	 0.137507951	 1.4340521981	 0.1312684381	-0.599364
C	-0.0237544992	 0.0562191098	 0.0470965856	 0.27322
C	-1.1456194582	-0.7089233725	 0.0333329285	-0.134463
O	-0.7338479474	-2.0410268905	 0.0187883995	-0.15313
C	 0.5937300106	-1.9666014143	 0.0210428354	 0.54131
N	 1.3615084087	-3.107747793	 0.0111771422	-0.394726
C	 0.9853019118	-4.4369705058	-0.0338215041	 0.076007
N	-0.2186073184	-4.8375952308	-0.0784934222	-0.427605
N	 1.0964362045	-0.7640832037	 0.0359387598	-0.409453
H	 1.0278142888	 1.7276736975	-0.2476139797	 0.252953
H	-0.6216519547	 1.9628921251	-0.2744013583	 0.247564
H	-2.2057074525	-0.5383283677	 0.0397442674	 0.131257
H	 2.34772443	-2.904948285	 0.0346110939	 0.272454
H	 1.8749085277	-5.0781264424	-0.0247933306	 0.09619
H	-0.2420487528	-5.8546870348	-0.1043247553	 0.227787
