17
gdb 2044	4.21553	2.90709	2.1646	1.8593	64.1	-0.2346	0.0917	0.3264	674.4208	0.147654	-309.649998	-309.64326	-309.642316	-309.680057	26.489	
C	-0.1470424868	 1.5760313385	 0.0052140655	-0.478325
C	-0.0126209449	 0.0542438668	 0.0103669573	 0.36103
C	-1.375170808	-0.5960585461	-0.2195698341	-0.459845
C	 1.2017322366	-0.6373646394	-0.7046048735	 0.014188
C	 2.1800665243	-0.1018753433	 0.3671920362	-0.235866
C	 0.9132159841	-0.6568094717	 1.0598326469	 0.014197
O	 0.9977827954	-1.8283408326	 0.1548324797	-0.311752
H	 0.7896927807	 2.1119447505	 0.1634957577	 0.116347
H	-0.5636897172	 1.9120130349	-0.9510569809	 0.120667
H	-0.8464871935	 1.8929235356	 0.7870690066	 0.120674
H	-1.797005918	-0.2727737502	-1.1782311646	 0.109212
H	-1.2983293599	-1.6828237231	-0.2187435399	 0.139994
H	-2.0815914864	-0.291557784	 0.5612885264	 0.109207
H	 1.3681481075	-0.8137835855	-1.7689786964	 0.087451
H	 3.064368929	-0.7240238808	 0.5049290542	 0.108226
H	 2.40774742	 0.9625553056	 0.4161678069	 0.097142
H	 0.732586037	-0.8566098151	 2.117737962	 0.087451
