18
gdb 13791	3.18841	1.67466	1.21761	3.2353	69.28	-0.2431	0.0425	0.2856	1022.2296	0.153877	-381.140463	-381.131876	-381.130932	-381.173544	31.673	
C	-0.2998903335	 1.4281708186	-0.3744021158	-0.386366
C	-0.0783120566	-0.0768277523	-0.1846298335	-0.19191
C	 0.8676815519	-0.6699758138	-1.2079579447	 0.027909
C	 0.8721829872	-2.1416879902	-1.4976391986	-0.277036
N	 0.417140177	-1.1810572394	-2.4926266475	-0.116699
C	-0.8964671946	-1.1020312791	-2.9678959586	 0.407589
N	-1.3551554704	-2.2970445782	-3.4848948453	-0.53175
O	-1.5595937377	-0.0843595968	-2.9662163525	-0.374928
H	 0.6494718928	 1.9737495968	-0.3284179197	 0.105486
H	-0.7659087667	 1.6176072317	-1.3430533053	 0.161369
H	-0.9488576085	 1.8265629926	 0.4114587178	 0.107365
H	 0.3476001793	-0.2706715708	 0.8088678685	 0.097288
H	-1.0373080621	-0.6042292821	-0.2253582593	 0.10963
H	 1.8258309351	-0.1548939122	-1.2786746863	 0.095857
H	 1.8004730293	-2.662093007	-1.7213183012	 0.117857
H	 0.1142464948	-2.7455477084	-1.0025753866	 0.128054
H	-0.6740799899	-2.9841727898	-3.7667769505	 0.258106
H	-2.1612610873	-2.2066215397	-4.0834078907	 0.26218
