18
gdb 71109	2.54745	2.00933	1.56338	2.4637	73.89	-0.2375	-0.0203	0.2172	917.9558	0.149705	-401.96461	-401.957431	-401.956487	-401.995894	28.875	
C	-0.0272830986	 1.5104466297	 0.0368298385	-0.484214
C	 0.0484112381	 0.0022664309	 0.0233333798	 0.129773
C	 0.6919918543	-0.7216663244	-1.1897381278	-0.272684
C	 0.4733806569	-2.1498062073	-0.6894219537	-0.032164
C	-0.8040016326	-2.1822766475	 0.1024560954	-0.165852
N	 0.5240093098	-2.1676682572	 0.7786428328	-0.12377
C	 0.7516720152	-0.7433961111	 1.1751609336	-0.191248
C	-1.2980686996	-0.7629733864	 0.0713256961	 0.436571
O	-2.417440077	-0.3279737364	 0.0713939842	-0.341918
H	 0.9690606542	 1.9600449221	-0.024076028	 0.114982
H	-0.6207335984	 1.878638114	-0.8054605072	 0.131357
H	-0.5071308986	 1.867968046	 0.9530829487	 0.129421
H	 0.1716823307	-0.5163239331	-2.1302697346	 0.116531
H	 1.7521668795	-0.4767328505	-1.3132378333	 0.109087
H	 0.8436887241	-3.0245433856	-1.2104677651	 0.105484
H	-1.4433113299	-3.0464222833	 0.2215762114	 0.111119
H	 1.8271011391	-0.548902006	 1.2319260555	 0.110365
H	 0.3023266028	-0.5557776437	 2.1552944236	 0.117157
