17
gdb 29132	2.96536	1.44275	0.98225	2.1302	82.5	-0.2199	-0.0573	0.1626	1187.8696	0.13562	-418.04693	-418.038443	-418.037498	-418.079973	31.702	
C	-0.2670831293	 1.5079668332	 0.0517146553	-0.468303
C	 0.004060403	 0.0357793329	-0.0320461203	 0.236941
C	 0.1731866251	-0.6153053722	-1.1932694445	-0.018703
O	 0.4188491455	-1.9520277807	-1.2509912272	-0.221924
C	 0.5013412104	-2.6846185025	-0.0864568336	 0.33307
N	 0.729093044	-3.9339300619	-0.0980120216	-0.523543
C	 0.307887696	-1.9224463218	 1.1643652315	 0.272902
C	 0.3911340898	-2.6895133289	 2.4474223372	-0.457743
N	 0.0764837718	-0.6537020751	 1.1789611363	-0.339914
H	 0.5131576597	 2.0105863746	 0.6334020249	 0.138666
H	-0.3093696032	 1.9653526452	-0.9401848494	 0.120557
H	-1.2178676568	 1.6956031481	 0.562103007	 0.138699
H	 0.1351451784	-0.1698924723	-2.1788772352	 0.13388
H	 0.8331047734	-4.2758457216	-1.0544580819	 0.225044
H	 1.365687239	-3.1804689857	 2.5363182257	 0.148627
H	 0.2316742198	-2.013933561	 3.288244594	 0.133128
H	-0.3529277365	-3.4925659502	 2.4612224319	 0.148615
