19
gdb 117247	4.2796	0.74909	0.70311	1.9778	73.94	-0.2426	-0.0234	0.2192	1621.0215	0.157098	-460.161339	-460.15166	-460.150716	-460.196813	35.052	
O	-0.1285486374	 1.4162333872	 0.0656086333	-0.424072
C	 0.0330210824	 0.0061594198	 0.0209044008	-0.078396
C	-1.3621509823	-0.5999026157	 0.0006590687	-0.291891
C	-1.3673086855	-2.1127615872	-0.0568225583	 0.406829
O	-0.3209860915	-2.7523892122	-0.0955878967	-0.380687
C	-2.680153732	-2.7848074449	-0.0285068272	-0.1938
C	-2.8252488448	-4.1144672276	-0.784952991	-0.324427
C	-2.7276196417	-4.1604951247	 0.6927072443	 0.157954
O	-1.622121569	-4.6505041562	 1.3519550706	-0.418071
H	 0.7457488212	 1.8158237932	 0.0837337344	 0.28848
H	 0.5874507324	-0.3135771789	-0.8726805258	 0.103129
H	 0.585858503	-0.3697896153	 0.8933546036	 0.103881
H	-1.925055723	-0.2784525228	 0.8871418197	 0.137348
H	-1.9275168459	-0.2112260478	-0.8570220243	 0.135924
H	-3.5536152404	-2.1466408919	 0.0416411738	 0.095505
H	-3.7799280962	-4.2969520015	-1.2656045964	 0.123156
H	-1.949757917	-4.4230446432	-1.3469252379	 0.13713
H	-3.6326824617	-4.3456897849	 1.2622313884	 0.117139
H	-0.8398085705	-4.2932056955	 0.8956037501	 0.30487
