21
gdb 104018	2.97796	1.50947	1.33323	0.7672	78.03	-0.2454	0.0945	0.34	1069.5156	0.182483	-424.205954	-424.19753	-424.196586	-424.238525	33.404	
C	 0.1307141033	 1.3113926326	 0.1056374277	-0.258774
O	-0.010086789	-0.084776622	-0.0915328642	-0.289523
C	 0.6258077053	-0.6179168259	-1.2307628719	 0.52684
C	 0.029386134	-0.0557593213	-2.5171404039	-0.456179
O	 2.0501130049	-0.3655482527	-1.1958997511	-0.329469
C	 2.5890938012	-1.6846114392	-0.9633281008	 0.103321
C	 1.8345256694	-2.5425956146	-2.0062018936	-0.240154
C	 0.6371990725	-2.1540866652	-1.0809170231	-0.115204
C	 1.6478241978	-2.2906641315	 0.1038102198	-0.236615
H	 1.1822628074	 1.6149074625	 0.0557396212	 0.128642
H	-0.4469734439	 1.8965322091	-0.622953004	 0.105718
H	-0.2583866073	 1.5232493034	 1.1043480956	 0.122729
H	 0.3277280106	 0.9867073626	-2.6537843655	 0.129117
H	 0.3754477346	-0.6128672015	-3.3892064079	 0.121118
H	-1.0623782085	-0.1071076126	-2.4750002046	 0.122396
H	 3.6728180723	-1.6261794291	-0.8750388507	 0.077585
H	 1.8472941144	-2.1988049079	-3.0421171713	 0.09975
H	 2.0702550208	-3.606753428	-1.950194072	 0.10185
H	-0.3288610335	-2.6553683646	-1.1048409375	 0.076373
H	 1.8806354619	-3.331346673	 0.3352449923	 0.095932
H	 1.4573225319	-1.709196671	 1.0040527753	 0.114547
