18
gdb 37525	3.65545	1.95518	1.71759	1.4964	73.18	-0.2248	0.0948	0.3196	838.2573	0.152303	-401.90077	-401.895091	-401.894147	-401.930494	24.823	
C	-0.099717369	 1.5414607452	 0.0396829365	-0.251708
C	 1.4281479263	 1.4697813168	 0.0239838137	 0.001231
C	 1.9236449849	 0.5237675349	 1.1643472637	-0.111217
C	 2.4378994701	-0.4108078022	 0.0462998161	-0.00334
C	 2.1454035941	-1.8393416761	 0.467030679	-0.099369
O	 1.0724311096	-1.7094268619	 1.4099461084	-0.283334
C	 0.6529967676	-0.3535357821	 1.3569999844	 0.131971
C	 0.0538680085	 0.0114608746	-0.01557659	-0.034976
N	 1.3616194272	 0.200821105	-0.8320659015	-0.167559
H	-0.6081033316	 1.9785650969	 0.9030297668	 0.098222
H	-0.4899193869	 1.9588279044	-0.8908152225	 0.116606
H	 2.0781024608	 2.2801726287	-0.3073487836	 0.078296
H	 2.4968939753	 0.8273607477	 2.039787737	 0.067859
H	 3.4253084041	-0.2238718591	-0.3771018532	 0.081404
H	 1.8369127885	-2.4533079285	-0.3901254644	 0.108882
H	 2.9988529903	-2.3239545926	 0.9568109064	 0.104434
H	 0.0182700275	-0.1585002891	 2.2217338702	 0.082358
H	-0.7009511172	-0.6544855225	-0.4311912871	 0.080241
