21
gdb 78516	2.30919	1.75773	1.15996	1.3507	83.46	-0.2503	0.0824	0.3327	1129.1596	0.181145	-387.025481	-387.016627	-387.015683	-387.058185	35.027	
C	-0.3179303053	 1.5644996228	-0.2146190933	-0.441014
C	-0.0381861903	 0.0719284391	-0.1274457645	 0.011963
C	 1.1834678243	-0.5776075693	-0.8227286463	-0.177048
C	 2.1827883627	-0.2473432988	 0.3510506574	 0.34855
C	 3.091574989	 0.941154068	 0.5182452737	-0.522034
C	 2.6332132101	-1.7253873837	 0.4875345103	-0.368698
C	 1.1347505896	-1.7970186275	 0.1765947831	 0.408856
O	 0.2999985262	-2.8977309207	 0.1125400206	-0.477551
C	 0.7867442061	-0.5432431467	 1.0310796029	-0.139406
H	 0.5682254844	 2.1765591794	-0.0320344954	 0.116257
H	-0.7029372501	 1.8278907101	-1.2065581058	 0.113078
H	-1.0788719674	 1.8579217587	 0.5177237228	 0.114634
H	-0.9624395982	-0.4884603307	-0.312850245	 0.07442
H	 1.438193597	-0.6229676598	-1.8850284438	 0.056492
H	 2.5755295964	 1.8948020592	 0.384338233	 0.12644
H	 3.5411790639	 0.9434102997	 1.5179061682	 0.120048
H	 3.9114638261	 0.9018871024	-0.208419033	 0.118597
H	 3.3238364657	-2.0958067	-0.2797205348	 0.079861
H	 2.9486696124	-2.0518024735	 1.4847766918	 0.090052
H	 0.5903539111	-3.4574212616	-0.6157303851	 0.282203
H	 0.5866131763	-0.5455384072	 2.1049705033	 0.064299
