23
gdb 85847	2.33652	1.31887	1.06361	1.465	88.22	-0.2317	0.029	0.2607	1290.6888	0.203833	-388.320466	-388.310245	-388.309301	-388.354857	39.136	
C	-0.0402353677	 1.5937488335	-0.0178931167	-0.396765
C	 0.0253003892	 0.06245083	 0.0130941215	-0.013392
C	 0.8127287777	-0.5580424459	-1.1667835893	-0.259074
C	 1.5339185538	-1.8017810467	-0.6021759013	 0.306216
C	 0.7814783784	-3.1078028271	-0.8957150488	-0.450506
O	 2.8392651296	-1.8550656541	-1.1917268871	-0.474051
C	 1.585094807	-1.5001667557	 0.8964736838	 0.295936
C	 2.4725289135	-2.279876886	 1.8145447889	-0.515624
C	 0.7563762789	-0.5042755423	 1.2095665375	-0.182389
H	 0.9658856278	 2.0267617712	 0.000117741	 0.11707
H	-0.5441682719	 1.9482788304	-0.9234486719	 0.111561
H	-0.5907823764	 1.9851326025	 0.8445564915	 0.108834
H	-1.0094954204	-0.3146700451	 0.0073649458	 0.073059
H	 0.1864782028	-0.7898681023	-2.0330750049	 0.088801
H	 1.5890866964	 0.1404772794	-1.4948374745	 0.112052
H	 0.7666913969	-3.2959164067	-1.9739460804	 0.121766
H	 1.2605691759	-3.9643314338	-0.4053828502	 0.104471
H	-0.250553285	-3.0579978051	-0.5351769518	 0.123039
H	 3.2025971078	-2.732876558	-1.0358704867	 0.274244
H	 3.5173434467	-2.2113419012	 1.4882280447	 0.129415
H	 2.4123656246	-1.9106584559	 2.8416154767	 0.124735
H	 2.2122869752	-3.3466141868	 1.8272849479	 0.120252
H	 0.5936670691	-0.1282891042	 2.2161565741	 0.080349
