17
gdb 30153	3.70956	1.24722	1.0579	3.5701	73.35	-0.2301	0.019	0.249	1131.1191	0.137441	-418.013041	-418.005145	-418.004201	-418.046037	29.705	
O	-0.0556238119	 1.1458039349	 1.2882043779	-0.420992
C	 0.0362949731	 0.1050717721	 0.3725041167	 0.142379
C	-0.5836365801	-1.2422887259	 0.6214383092	-0.351652
C	-1.151667951	-0.3338288192	-0.4572885108	-0.054687
N	-2.4091388976	 0.3060420001	-0.2084842209	-0.000382
C	-3.6014804538	-0.2952692426	 0.1510581234	-0.124573
C	-4.5284871114	 0.710510438	 0.1825925393	-0.091043
N	-3.9510878929	 1.9152126424	-0.1506449322	-0.268892
C	-2.6898861994	 1.638609262	-0.3838088817	-0.012049
H	-0.979662595	 1.2637020376	 1.5381100346	 0.297316
H	 0.9960704758	 0.1369670173	-0.1315895901	 0.120165
H	-0.0597465891	-2.1391999283	 0.3110455741	 0.127659
H	-1.1747969443	-1.3491622106	 1.5248082697	 0.131677
H	-0.982061308	-0.6053025915	-1.4952784926	 0.118862
H	-3.658915145	-1.353972431	 0.3404633337	 0.131489
H	-5.5767440136	 0.6394493206	 0.4303280375	 0.111557
H	-1.9241276459	 2.3402431839	-0.6795570878	 0.143165
