16
gdb 132573	3.09517	1.33744	0.94011	2.9195	77.72	-0.2108	-0.015	0.1958	1187.2351	0.124496	-442.099103	-442.09087	-442.089926	-442.131908	31.104	
C	-0.0504462597	 1.5202884539	 0.0007388713	-0.485531
C	-0.0033492357	 0.0170595941	-0.0027772147	 0.18449
N	-0.0270202114	-0.6346265685	-1.1690621297	-0.30423
C	 0.0132063907	-1.9640652906	-1.1850125582	-0.06837
C	 0.0830995241	-2.7615229364	-0.0332499424	 0.290474
N	 0.1871899816	-4.1476374746	-0.1143583387	-0.593077
C	 0.1056726948	-2.0929213797	 1.1957144992	-0.287142
C	 0.0618208283	-0.7130870908	 1.1847683445	 0.241443
F	 0.0801051941	-0.0521478135	 2.350212977	-0.078937
H	 0.8360799499	 1.9492178992	 0.4810592855	 0.131487
H	-0.1022465401	 1.8769272835	-1.0288382869	 0.137679
H	-0.9209840507	 1.8945739679	 0.5509370083	 0.130492
H	-0.0084859696	-2.4380883351	-2.165084173	 0.092432
H	-0.1560665467	-4.5467215238	-0.9760272067	 0.252453
H	-0.1549168767	-4.6527102821	 0.6899734856	 0.250941
H	 0.160514447	-2.6247555035	 2.1394376689	 0.105397
