19
gdb 122596	3.80798	0.77871	0.67961	3.4117	72.85	-0.2531	-0.0016	0.2515	1670.1995	0.157758	-460.177834	-460.168267	-460.167323	-460.213748	33.154	
C	-0.2234736588	 1.4814569652	-0.1126923136	-0.384532
C	 0.1502944119	 0.0008717918	-0.0048739484	-0.18586
C	 0.6858150944	-0.5526952063	-1.3162050125	-0.056417
O	 1.0187975182	-1.9273475366	-1.120241084	-0.254089
C	 1.5298283085	-2.5439022817	-2.257230213	-0.046235
C	 1.7901702252	-4.0499385154	-2.1036078062	-0.112375
O	 0.8619874087	-4.3352957766	-3.201465799	-0.237189
C	 0.5149232732	-3.0133846795	-3.3302087475	 0.429646
O	-0.3119643484	-2.5387076907	-4.0397266216	-0.319924
H	 0.6430982603	 2.0942378169	-0.3843553218	 0.117759
H	-0.9957932726	 1.6435446994	-0.8722494402	 0.12338
H	-0.609606381	 1.8569481475	 0.8389624281	 0.120734
H	 0.9086321307	-0.1461117055	 0.7727619846	 0.107115
H	-0.7228260943	-0.5910751219	 0.2918769282	 0.112777
H	-0.0612991496	-0.4587104513	-2.1162420787	 0.124524
H	 1.5849050022	 0.001303313	-1.6347605552	 0.090167
H	 2.3660936198	-1.9792096	-2.6968109123	 0.10199
H	 2.792700674	-4.411129869	-2.3364164516	 0.128778
H	 1.4230717375	-4.4636889792	-1.1631453053	 0.139751
