22
gdb 110879	2.29344	1.39751	1.16847	1.3393	81.23	-0.2138	0.0686	0.2824	1198.8407	0.195268	-404.328543	-404.31951	-404.318565	-404.362346	34.726	
C	-1.289225336	 0.6084173725	 0.243769265	-0.377841
C	 0.0939903904	 0.0542571182	-0.1239261664	-0.234278
C	 0.8021370253	-0.5009421193	 1.0942953316	 0.020531
C	 0.7446513182	-1.9179893565	 1.5513669461	-0.050275
C	 0.2596925757	-3.0124447162	 0.6106145706	-0.243278
C	 1.2415912677	-3.0270751966	-0.5842774241	 0.096554
O	 0.5156598931	-2.7141365986	-1.7729986674	-0.41472
C	 2.3430429236	-1.9886096419	-0.2139457418	-0.193492
N	 2.0190530911	-1.3393231501	 1.0671093415	-0.13226
H	-1.2175974476	 1.3817925113	 1.0167010684	 0.113103
H	-1.7790164009	 1.0526788291	-0.6279856952	 0.111694
H	-1.9414170749	-0.1828201952	 0.6283304603	 0.118238
H	-0.0062023058	-0.697677664	-0.9093263428	 0.132329
H	 0.7076689014	 0.8642573014	-0.5422229086	 0.094337
H	 0.8752316027	 0.2386390931	 1.8934251336	 0.081757
H	 0.6928978359	-2.126512703	 2.6175993428	 0.082411
H	 0.2637037591	-3.9738776015	 1.1311143607	 0.10606
H	-0.7555358315	-2.8509278771	 0.2365820833	 0.125195
H	 1.6915242984	-4.0224673055	-0.7014497041	 0.076663
H	 1.1372747175	-2.7074338002	-2.5078455842	 0.28304
H	 3.309244006	-2.4887592703	-0.0853835961	 0.102435
H	 2.4600759709	-1.2501833395	-1.0157157033	 0.1018
