19
gdb 85546	2.1878	1.74059	1.22769	3.0513	74.29	-0.2402	-0.0172	0.223	1065.2308	0.160291	-423.040987	-423.032781	-423.031837	-423.074072	31.8	
O	 0.3016070886	 1.2135794521	-0.4690344239	-0.425512
C	 0.0492417252	-0.1099551583	-0.0205215157	 0.095445
C	 0.7811116477	-0.4115664695	 1.3201215031	-0.312375
C	-0.0917876586	-0.3019410214	 2.555975762	 0.357423
O	 0.1640468707	 0.4223661154	 3.4899222534	-0.314094
C	-1.3265645904	-1.1948854173	 2.5182199703	-0.306981
C	-2.1295926837	-0.9698365404	 1.2455039411	-0.035075
C	-2.3913762034	 0.4498160397	 0.8168149784	-0.308155
C	-1.4438427302	-0.420418022	 0.0135778351	-0.045922
H	-0.2926565275	 1.8044571495	 0.0062388171	 0.282154
H	 0.5116215302	-0.7391324777	-0.7875023133	 0.094638
H	 1.1419988491	-1.4483511001	 1.2823589117	 0.115923
H	 1.6439554947	 0.2497062174	 1.4135075011	 0.130258
H	-0.9853426433	-2.2386863613	 2.5580793761	 0.11674
H	-1.9284180712	-1.0027754786	 3.4106201705	 0.122381
H	-2.9250561087	-1.6895758534	 1.0783719647	 0.092807
H	-3.34606259	 0.7043222712	 0.3714914187	 0.11925
H	-1.9805082561	 1.2349763524	 1.4475692774	 0.124931
H	-1.8403830333	-0.7535186778	-0.9401701776	 0.096163
