20
gdb 59818	6.01927	0.53307	0.51743	2.6937	88.72	-0.2525	0.0142	0.2667	2164.6248	0.166389	-403.109166	-403.099138	-403.098194	-403.144659	36.056	
N	-0.2079779091	 0.	-0.0306452425	-0.20651
C	-0.0374625526	 0.	 1.4170875829	 0.056895
H	 1.0346826466	 0.	 1.6880999973	 0.054084
C	-0.6799056463	-1.2669841291	 1.993842944	-0.367789
C	-0.6799056463	 1.2669841291	 1.993842944	-0.367789
H	-1.742524614	-1.3037626712	 1.7350711744	 0.126979
H	-1.742524614	 1.3037626712	 1.7350711744	 0.126979
H	-0.5848033537	-1.2861612618	 3.0843253642	 0.107709
H	-0.5848033537	 1.2861612618	 3.0843253642	 0.107709
H	-0.2028017703	-2.1647771434	 1.5898679345	 0.1112
H	-0.2028017703	 2.1647771434	 1.5898679345	 0.1112
C	 0.825439777	 0.	-0.7434812056	 0.134115
H	 1.8574787064	 0.	-0.3565141309	 0.073987
O	 0.7320720464	 0.	-2.0929356445	-0.207296
C	 1.9852232068	 0.	-2.7828158766	-0.228519
H	 2.5715046216	-0.8865107002	-2.5012402397	 0.138747
H	 2.5715046216	 0.8865107002	-2.5012402397	 0.138747
C	 1.7469538243	 0.	-4.2167792133	 0.286092
C	 1.5859949416	 0.	-5.4060708661	-0.404572
H	 1.4341804307	 0.	-6.4573285687	 0.208031
