19
gdb 59592	2.66233	1.39447	1.13273	2.8991	77.14	-0.2419	-0.0491	0.1928	1144.6684	0.159173	-423.066588	-423.057831	-423.056887	-423.100255	33.079	
C	 0.0220537336	 1.5614653246	-0.2674220843	-0.423485
C	 0.0416837939	 0.0681022487	 0.0622831266	 0.125279
O	 0.7888526655	-0.2065842104	 1.243868945	-0.445186
C	-1.368619664	-0.5478618844	 0.1654595261	-0.113643
C	-1.4131125704	-2.0899599968	 0.1267208544	-0.297289
C	-2.3944815318	-2.4632464618	 1.2067800008	-0.046995
C	-2.7677541814	-1.4182510694	 1.9558372117	-0.166831
C	-2.0827086812	-0.1958626245	 1.4877371444	 0.378192
O	-2.043576688	 0.8779781102	 2.0534094839	-0.356654
H	 1.0453922938	 1.9454967004	-0.3009264912	 0.118897
H	-0.4457795949	 1.7407155039	-1.2415611197	 0.108462
H	-0.5433152792	 2.1126857727	 0.4884186245	 0.147496
H	 0.5814751005	-0.4623582142	-0.7320446745	 0.086451
H	 0.4137361783	 0.3430887654	 1.943050196	 0.291074
H	-1.9933240772	-0.1474702572	-0.6437491763	 0.102729
H	-1.700182577	-2.493821334	-0.8502720825	 0.114063
H	-0.4261874262	-2.5079313384	 0.3657176299	 0.142613
H	-2.7199343684	-3.4874292518	 1.3577546551	 0.117935
H	-3.419817506	-1.426664903	 2.81957869	 0.116896
