18
gdb 75963	2.12834	1.93466	1.05599	2.5765	75.04	-0.2322	-0.0127	0.2195	1111.0873	0.150501	-435.308969	-435.300594	-435.29965	-435.342245	31.196	
C	-0.049593884	 1.4526338421	 0.1345043474	-0.338277
N	-0.008548057	-0.0088279738	 0.0332638385	-0.134556
C	-1.2314024764	-0.6879487084	-0.0180350184	 0.344135
N	-2.30662144	-0.0041962869	 0.0355161169	-0.509932
C	-1.1484376348	-2.202165275	-0.1645826946	-0.271087
N	 0.0351791084	-2.8080508727	 0.4271870521	-0.284902
C	 1.231155826	-2.1612493812	-0.0913051245	-0.288222
C	 1.2347371752	-0.6330568096	-0.0531616348	 0.39983
O	 2.2726358654	-0.0062813222	-0.0960497229	-0.358488
H	 0.9778287077	 1.8072601473	 0.1618728234	 0.160871
H	-0.5792653408	 1.8710733749	-0.7241215564	 0.144254
H	-0.5898402024	 1.7463147173	 1.0366549526	 0.143385
H	-3.118257572	-0.6199316425	-0.0015072074	 0.219737
H	-2.0497794103	-2.6418844605	 0.2707888468	 0.123839
H	-1.1577934029	-2.4467300176	-1.2363329786	 0.136207
H	 0.0016928011	-2.6958655162	 1.4361396451	 0.22972
H	 2.1164642344	-2.4926687686	 0.4552096776	 0.14333
H	 1.3761449126	-2.4628662964	-1.1382225629	 0.140155
