24
gdb 7457	2.81139	1.34244	1.13986	1.477	81.16	-0.2591	0.067	0.3261	1222.0303	0.220836	-351.419634	-351.408941	-351.407996	-351.454454	39.778	
C	-0.0780285492	 1.5978461135	 0.084548306	-0.386747
C	 0.0194122728	 0.0657680175	 0.0251810354	 0.005282
C	 0.8280210812	-0.466687465	 1.2170156731	-0.398142
C	-1.3929101836	-0.5554939718	-0.0673407191	 0.147227
O	-2.1044774413	-0.0257359465	-1.1894311833	-0.44006
C	-1.4520493045	-2.1018680026	-0.0553695977	 0.02357
C	-2.9117371961	-2.5728810998	 0.0120568374	-0.390572
C	-0.7290513449	-2.7380666225	-1.2523980584	-0.406445
H	 0.91504667	 2.0557543199	 0.033154035	 0.10386
H	-0.6856157236	 1.9849159108	-0.7357818538	 0.123632
H	-0.5440451889	 1.9192107847	 1.0240322063	 0.109834
H	 0.5589414531	-0.2005591127	-0.8968177123	 0.062027
H	 0.284860982	-0.3155717367	 2.1577727451	 0.114446
H	 1.0545775568	-1.5325461987	 1.1284608897	 0.116607
H	 1.7804744917	 0.0666793469	 1.3002986365	 0.111362
H	-1.9666119802	-0.2010847856	 0.8005720774	 0.077275
H	-1.5877752418	-0.2164940365	-1.9796765783	 0.277478
H	-0.9504995151	-2.4364862629	 0.860850742	 0.074661
H	-3.4711937897	-2.2139292625	-0.8563545808	 0.12666
H	-2.9716694404	-3.6658179513	 0.0356710025	 0.102534
H	-3.4100595147	-2.1897951982	 0.9091187046	 0.107289
H	-1.1869042025	-2.4336636569	-2.2012800626	 0.107035
H	 0.3326575591	-2.474730243	-1.288384364	 0.114865
H	-0.7955158704	-3.82940941	-1.2049272908	 0.11632
