15
gdb 56405	4.11267	0.66707	0.60507	2.9229	76.68	-0.273	-0.0094	0.2636	1764.3493	0.111571	-416.743472	-416.734128	-416.733184	-416.780122	31.918	
N	-0.4706431372	 1.1571470689	 0.2285673437	-0.484435
C	 0.0436532696	-0.179879746	-0.091242884	-0.303774
C	 0.9345029184	-0.2004180492	-1.2815925921	 0.2745
N	 1.5996027345	-0.1581083108	-2.2258481389	-0.319349
C	 0.7315748083	-0.7707259386	 1.0575516508	 0.161555
C	 1.292580434	-1.2584349637	 2.0032978605	 0.105326
C	 1.9856784516	-1.8475962864	 3.1173785088	-0.118205
C	 1.623464152	-1.5198132333	 4.5114792647	-0.158541
O	 1.2503507147	-2.7657742443	 3.9399365489	-0.209012
H	 0.3060526237	 1.7737344014	 0.449820088	 0.249256
H	-0.9334983656	 1.5441457083	-0.5894874083	 0.248774
H	-0.8224661796	-0.8097932975	-0.3364616915	 0.168223
H	 3.0109045693	-2.1554857118	 2.9164983311	 0.128076
H	 2.3955816862	-1.561297914	 5.2783887501	 0.126207
H	 0.8085135099	-0.8221657631	 4.6932357083	 0.1314
