22
gdb 118521	3.19592	0.77745	0.6587	3.4796	83.87	-0.2611	0.031	0.2922	1745.3799	0.191627	-404.364217	-404.352985	-404.35204	-404.402064	38.573	
C	-0.0495025048	 1.5165840544	 0.0218701649	-0.382496
C	-0.0080332579	-0.0131013434	-0.013065892	-0.178276
C	 0.7154649021	-0.560539636	-1.2470555923	-0.172637
C	 0.8006961997	-2.0897503593	-1.2671249042	 0.104835
C	 1.4621750689	-2.5686406918	-2.5851040125	-0.344212
C	 1.4570439649	-4.0185798829	-2.7599132468	 0.267199
N	 1.437611473	-5.165737057	-2.9012655044	-0.316115
O	 1.5667367567	-2.50348755	-0.1515241207	-0.250435
C	 1.1193997896	-3.6777127328	 0.505730998	-0.255468
H	 0.961057965	 1.9396721667	 0.0339761733	 0.117055
H	-0.566914896	 1.9231443806	-0.8545014511	 0.112958
H	-0.5714214175	 1.8784369091	 0.9129380265	 0.115197
H	 0.4934276653	-0.394719603	 0.8821886608	 0.116597
H	-1.0323323909	-0.4087274471	 0.0107152731	 0.09259
H	 0.2080870961	-0.2199903685	-2.1589375264	 0.093244
H	 1.7370700159	-0.1593345491	-1.2843168731	 0.106131
H	-0.2135706724	-2.5125728613	-1.2072465054	 0.085024
H	 0.9478492048	-2.1195146115	-3.4420834146	 0.147907
H	 2.4984133053	-2.2140077976	-2.6008035197	 0.158656
H	 1.7763942639	-3.8219286077	 1.3667915632	 0.130472
H	 0.0860783603	-3.5657621085	 0.8650428227	 0.108698
H	 1.1769465481	-4.5635932633	-0.1370016092	 0.143076
