17
gdb 13120	3.50334	1.55206	1.14257	3.4811	65.56	-0.2513	0.0295	0.2808	1031.6218	0.141953	-401.004741	-400.996311	-400.995367	-401.038222	29.499	
C	 0.3918556076	 0.7716849697	 0.4542949583	-0.257083
O	-0.2715940871	 0.3721584904	-0.7345371217	-0.234886
C	 0.4849333177	-0.4584393892	-1.578164566	-0.086812
C	 0.4946094801	-1.9314391431	-1.151919961	-0.156408
C	 1.1932286978	-2.9269772105	-2.1297619624	-0.182936
N	 2.0919970457	-3.2762762306	-1.0286827447	-0.315513
C	 1.5507952536	-2.4097294761	-0.1144279814	 0.425764
O	 1.827920146	-2.1562634532	 1.0293888399	-0.361905
H	 0.6498652422	-0.0792854075	 1.0949811438	 0.152714
H	 1.3154879376	 1.3253240302	 0.2234161838	 0.099879
H	-0.2932327275	 1.4381098748	 0.9839268125	 0.12066
H	 0.0123455587	-0.3934673021	-2.5658422618	 0.109085
H	 1.5189659033	-0.087809281	-1.6816512081	 0.090177
H	-0.5194669582	-2.2314374871	-0.8748588553	 0.113684
H	 0.5693569961	-3.7527124949	-2.4847993247	 0.117606
H	 1.6940463389	-2.4539857215	-2.9821089279	 0.11345
H	 2.8729932377	-3.9120255283	-0.9662937631	 0.252523
