17
gdb 105860	2.134	1.65001	1.28833	3.4503	70.9	-0.2297	0.016	0.2457	1059.4693	0.134907	-455.08174	-455.072923	-455.071979	-455.115312	32.494	
C	 0.0990438002	 1.371220717	-0.1202785059	-0.268333
O	-0.1391431482	-0.0262101212	 0.0555026346	-0.277268
C	 0.5237188095	-0.5460055292	 1.130513567	 0.326031
C	 1.9528090073	-1.0518687094	 1.0507847633	 0.012942
O	 2.9199194695	-0.6077826637	 1.9524583573	-0.416414
C	 0.8582388865	-2.0114512219	 1.4427665824	-0.169229
N	 0.4352934267	-1.8008377264	 2.836326158	-0.345831
C	 0.1314045485	-0.4264984208	 2.5807163019	 0.329232
N	-0.3458489831	 0.5218127129	 3.2580417074	-0.549966
H	 1.1633021147	 1.5686336002	-0.307519789	 0.114898
H	-0.4847790479	 1.6777110424	-0.9901605153	 0.12759
H	-0.2225221894	 1.9357152302	 0.7611426617	 0.154252
H	 2.2795176987	-1.1484533376	 0.0136152559	 0.102953
H	 3.6186448808	-1.270396135	 1.9926405711	 0.290572
H	 0.5839715977	-2.9125884739	 0.9087353692	 0.117808
H	 1.1207380786	-1.9904681054	 3.5620109452	 0.232183
H	-0.5067751203	 0.2444701119	 4.2286831651	 0.218582
