18
gdb 113367	2.27858	1.12099	0.85442	1.2356	69.78	-0.2646	-0.0427	0.2218	1355.1886	0.146223	-476.192137	-476.182402	-476.181458	-476.227518	34.431	
O	-0.18667296	 1.3019553907	-0.5904328633	-0.412984
C	-0.0475404891	 0.1229296878	 0.182552737	-0.076874
C	-1.34691083	-0.6508952015	 0.1945820284	-0.066807
N	-1.6489287737	-1.4375003449	-1.0009654238	-0.38141
C	-1.4527769226	-2.1502997679	 0.2789286042	 0.170708
C	-0.2859683522	-3.1093034138	 0.3431499007	-0.144434
O	-0.5819658389	-4.2873944617	-0.3884488505	-0.417251
C	-2.7142681435	-2.6467376963	 0.9214824484	 0.113771
O	-3.8125183399	-2.2528739562	 0.6082919635	-0.269871
H	-0.416700827	 1.0219778304	-1.483934106	 0.292866
H	 0.77334397	-0.5040997835	-0.189224898	 0.096509
H	 0.2068756671	 0.4486843058	 1.1963513188	 0.118318
H	-2.1812026038	-0.1082373767	 0.6362771673	 0.11498
H	-2.6554131571	-1.4059398733	-1.1717916159	 0.251499
H	 0.6337691532	-2.6316146172	-0.0140760413	 0.103145
H	-0.1159063285	-3.428158647	 1.3779595985	 0.116231
H	-0.7604640349	-4.0095918511	-1.2947788959	 0.294838
H	-2.5760787993	-3.4075786834	 1.7167078977	 0.096767
