19
gdb 112218	2.01014	1.37735	0.92699	2.8457	82.57	-0.2396	-0.0247	0.2149	1308.4954	0.156433	-385.869429	-385.859884	-385.85894	-385.90424	35.173	
C	 0.0395738905	 1.5373390067	-0.2287735748	-0.388179
C	-0.0200933228	 0.0085752695	-0.2900700154	-0.179485
C	-1.3675932566	-0.5523442183	 0.1578272694	-0.010526
C	-2.522490371	-0.3662791248	-0.8772041858	-0.359603
C	-2.3892265995	-1.8507066197	-1.2357456186	 0.398085
O	-2.734858694	-2.5252568065	-2.1556666516	-0.280284
C	-1.5112618307	-2.1217449133	 0.0243120603	-0.321657
C	-0.3508488106	-2.9727598128	-0.0815619876	 0.329874
C	 0.620208337	-3.673402355	-0.1926011219	-0.438788
H	 1.016860961	 1.9050413873	-0.5552765195	 0.118941
H	-0.7184670943	 1.9982302672	-0.8713790467	 0.117482
H	-0.1292435461	 1.8992773658	 0.7915737871	 0.116497
H	 0.1954970141	-0.3331116786	-1.3110958687	 0.106283
H	 0.7676394591	-0.4203016115	 0.3394846957	 0.11292
H	-1.6073395243	-0.1935873168	 1.1617513495	 0.079863
H	-3.4962289754	-0.1454471655	-0.4282728844	 0.13314
H	-2.3545830967	 0.3320235437	-1.7012168949	 0.134369
H	-2.1851672732	-2.4915118506	 0.8090048385	 0.131961
H	 1.4726942435	-4.2987944369	-0.2911930304	 0.199106
