20
gdb 88556	3.03026	1.30607	1.16785	1.9345	78.94	-0.2374	0.0782	0.3155	1153.6976	0.170803	-403.08284	-403.074379	-403.073435	-403.11631	32.33	
C	-0.9010185967	 1.2311489124	 0.2140859831	-0.43403
C	-0.081289363	-0.0221282362	 0.0518655095	 0.090813
O	 1.2935894495	 0.1216355724	-0.3259253289	-0.263912
C	 1.0040893436	-0.4673038608	 0.9486026679	-0.091969
C	 1.5136816385	 0.2325822711	 2.1575643617	 0.349971
C	 0.7989112955	 0.2722051297	 3.4506094238	-0.281111
N	 1.0049107613	 1.5469429834	 2.7358318868	-0.16098
C	 2.4368455672	 1.9277249103	 3.0066695686	-0.152317
C	 2.9795204469	 0.6381706405	 2.3392614116	-0.309517
H	-0.3886867453	 1.9636144089	 0.8368879738	 0.163753
H	-1.1086066631	 1.6631558788	-0.770986338	 0.12007
H	-1.863741553	 0.9900703389	 0.6788329218	 0.113469
H	-0.5866500942	-0.8217606499	-0.4965296166	 0.08373
H	 1.2017765572	-1.543481364	 0.9781895035	 0.087796
H	-0.2407023507	-0.041285353	 3.4598543135	 0.121327
H	 1.3367013781	 0.0957983279	 4.3809256742	 0.108351
H	 2.6876969219	 2.8430860351	 2.4685250477	 0.117858
H	 2.649728218	 2.0684215394	 4.0714378719	 0.104629
H	 3.6076243545	-0.032287321	 2.9330248848	 0.100681
H	 3.4679423739	 0.838082096	 1.3845182696	 0.131385
