19
gdb 113017	2.31838	1.46309	1.07338	2.9747	78.14	-0.2335	-0.0306	0.2029	1187.0782	0.157587	-423.039909	-423.030894	-423.029949	-423.074367	32.721	
C	-0.1244279769	 1.479066692	-0.3709823136	-0.383339
C	-0.115590807	-0.0504089776	-0.3373081775	-0.173358
C	-1.4421674593	-0.6333698549	 0.1676143636	 0.071024
O	-2.5342197111	-0.2389401496	-0.6826494421	-0.256069
C	-3.0697051083	-1.3553892196	-1.3521904397	-0.021917
C	-2.7651394179	-1.3409548754	-2.8537016862	 0.15261
O	-1.965545782	-0.61980193	-3.3841952239	-0.232271
C	-2.4216052736	-2.5602537336	-0.7021282909	-0.126146
C	-1.4983634286	-2.1378527586	 0.1534921075	-0.081449
H	 0.8274358489	 1.8686306724	-0.7434924772	 0.110591
H	-0.9215550217	 1.8352685022	-1.0280558242	 0.143446
H	-0.2917034173	 1.8991650139	 0.6275777024	 0.10685
H	 0.0700240319	-0.4460744653	-1.3413956606	 0.116849
H	 0.6892009556	-0.4157545996	 0.3142595241	 0.087441
H	-1.6483904549	-0.2303680063	 1.1718488471	 0.083832
H	-4.1684693845	-1.3642749043	-1.2454793763	 0.099472
H	-3.3545267679	-2.0921628452	-3.4319706932	 0.071546
H	-2.6780517361	-3.5823427576	-0.9472374537	 0.116602
H	-0.8480112693	-2.7562098132	 0.7591162442	 0.114287
