16
gdb 68716	2.44127	1.65404	1.35441	4.9425	73.51	-0.2753	0.0119	0.2872	997.1355	0.123816	-400.709607	-400.701813	-400.700869	-400.741807	29.706	
C	-0.0328667709	 1.525523262	 0.0841824954	-0.490926
C	-0.0215790531	 0.0275878225	 0.0036228402	 0.253335
C	 1.1726731722	-0.8009057056	-0.3680387778	-0.369267
C	 0.5975385971	-0.9792970061	 1.0303113351	 0.149434
C	 1.3328859343	-0.6705874314	 2.2118255598	 0.205357
N	 1.9311250671	-0.421240696	 3.1711024338	-0.351481
C	-0.6780014432	-1.7987846056	 0.9499376589	-0.059555
O	-1.7937265836	-0.9726774392	 1.2898036471	-0.230159
C	-1.2536986792	-0.86399903	-0.0317068512	-0.037276
H	 0.9360653099	 1.9103473575	 0.415238177	 0.139269
H	-0.2521550263	 1.9661506777	-0.8947798632	 0.131148
H	-0.7943778049	 1.8640674516	 0.7924667851	 0.148128
H	 1.0864059821	-1.6251059799	-1.0703734312	 0.126625
H	 2.120140014	-0.272635919	-0.4129824666	 0.144086
H	-0.7923770348	-2.870300228	 1.0555178895	 0.122849
H	-1.9211244607	-1.0579292704	-0.8626737121	 0.118432
