19
gdb 67627	2.41648	1.88382	1.58743	1.1667	78.11	-0.2134	0.0795	0.2929	958.5695	0.159747	-385.847738	-385.840152	-385.839208	-385.87918	31.135	
C	-0.134168398	 1.5052347508	-0.0209905429	-0.518217
C	-0.0042640474	 0.0134749875	-0.0297084948	 0.290897
C	 0.8785223118	-0.833337194	-0.9891791883	-0.132299
C	 1.1335681944	-2.1366775608	-0.2541424179	-0.071781
C	 0.9315236367	-1.9523418365	 1.2402789558	-0.237561
C	-0.1618040907	-0.9023207825	 1.1928189976	-0.206869
C	-1.0397878775	-1.0804362912	-0.0359821579	 0.34534
O	-2.4120166598	-0.9499981238	-0.0716323937	-0.470493
C	-0.1680470728	-1.9299048194	-1.0059904918	-0.167966
H	 0.7909001613	 1.9867253622	 0.3186502567	 0.115942
H	-0.3628273731	 1.8918450637	-1.0207480541	 0.121157
H	-0.941555785	 1.8214142707	 0.6466092463	 0.125513
H	 1.4839532855	-0.4536111757	-1.8015433889	 0.082818
H	 1.8676146671	-2.8316635867	-0.6467801252	 0.082025
H	 0.6072574584	-2.875406551	 1.7361243033	 0.092039
H	 1.8401338545	-1.5951583295	 1.738783485	 0.097524
H	-0.6109113218	-0.4804537743	 2.0850645991	 0.08189
H	-2.7998252271	-1.6710992619	 0.4376567016	 0.282999
H	-0.5198294867	-2.5312244876	-1.83323533	 0.087041
