21
gdb 103101	1.83074	1.46095	1.10612	0.8464	85.48	-0.2294	0.0498	0.2792	1250.8411	0.179026	-387.051855	-387.041296	-387.040352	-387.086852	39.467	
C	-0.23311325	 1.554402284	-0.0696353607	-0.402375
C	 0.128759451	 0.0720075615	 0.0930405183	-0.236775
C	 0.7345953453	-0.5290591938	-1.1599139938	 0.393109
O	 1.9185098318	 0.0902157685	-1.5918694525	-0.468272
C	 0.7206412332	-1.9955803664	-1.4415741535	-0.065707
C	 0.1306303604	-3.0327942901	-0.5152003305	-0.421786
C	-0.1661195874	-1.0625847934	-2.2879472308	-0.317644
C	-1.5913999392	-1.0788435706	-2.1677189273	 0.351937
C	-2.7920192883	-1.0877084097	-2.0696671275	-0.474717
H	 0.6505538206	 2.1651386011	-0.2863126575	 0.108498
H	-0.9580675681	 1.6938457284	-0.8778346105	 0.131793
H	-0.6749950304	 1.9486892587	 0.8498214116	 0.118507
H	 0.8476670697	-0.0470957774	 0.9129529734	 0.1041
H	-0.7699560706	-0.4858609375	 0.367399575	 0.114031
H	 1.7061834001	 0.9960723197	-1.8424823121	 0.282904
H	 1.6068908775	-2.3209551079	-1.9790723768	 0.103333
H	-0.828584768	-2.7162760566	-0.100054106	 0.13216
H	-0.0433013402	-3.9686364229	-1.0561254525	 0.123388
H	 0.8114039461	-3.2477106366	 0.31540201	 0.120662
H	 0.2116521988	-0.8606234483	-3.2859860757	 0.110344
H	-3.8505316724	-1.0933596206	-1.9897182704	 0.19251
