18
gdb 102045	2.07808	1.27534	0.86319	4.9477	71.22	-0.2414	-0.0189	0.2225	1353.5307	0.143895	-476.207568	-476.197103	-476.196159	-476.244558	35.168	
C	-0.8417331128	 0.8851902123	-0.0359011662	-0.23752
O	 0.1419877258	-0.0909417195	 0.2571545769	-0.255038
C	 0.8459360685	-0.594055781	-0.8659242665	-0.054333
C	 2.2742803257	-0.8614579081	-0.3828300118	 0.180798
O	 3.2538667288	-0.5383777847	-0.9968545485	-0.250374
C	 0.2166998179	-1.8804782679	-1.3753081338	 0.427129
N	 0.840250904	-2.9777754919	-1.2715212327	-0.529329
O	-1.0169668902	-1.6387135237	-1.8834716266	-0.230447
C	-1.7731998302	-2.7577541264	-2.3331677214	-0.271623
H	-0.4084653471	 1.7387946402	-0.5775328289	 0.113895
H	-1.6643069542	 0.4702676662	-0.6293236333	 0.123863
H	-1.2283508185	 1.2354543793	 0.9240652306	 0.131556
H	 0.8873260339	 0.143720012	-1.6784753007	 0.103851
H	 2.317237031	-1.3387994531	 0.6162492987	 0.100138
H	 0.3299553897	-3.7799139478	-1.6374233703	 0.224248
H	-1.2703651993	-3.2677246193	-3.1631492844	 0.137395
H	-1.9470530345	-3.4707056389	-1.5190255332	 0.138512
H	-2.7270687686	-2.3589534375	-2.678666338	 0.147279
