23
gdb 97580	3.07284	0.66664	0.63177	1.3167	92.03	-0.2354	0.0566	0.292	1956.6762	0.20252	-388.274361	-388.262607	-388.261663	-388.313043	41.492	
C	 0.0544037981	 1.5739942883	-0.2989958891	-0.362698
C	 0.0008045433	 0.1186177611	 0.2005663977	-0.313847
C	-1.3449707313	-0.4462181867	 0.1781805054	 0.094601
C	-2.4656752629	-0.8881054893	 0.1551416643	 0.049975
C	-3.8210002314	-1.438053483	 0.1378575199	-0.162339
C	-3.7921871256	-2.9479641927	-0.1759012924	-0.407919
C	-4.5640991704	-1.1091495507	 1.4685384851	 0.147344
C	-6.0720268645	-1.3558850042	 1.3871634983	-0.421346
O	-3.9871054906	-1.7794111424	 2.5799271299	-0.429546
H	 1.0797786926	 1.954394033	-0.2619490345	 0.111359
H	-0.3023244471	 1.6441700963	-1.3303108916	 0.124764
H	-0.575373567	 2.2195551895	 0.3192636437	 0.126599
H	 0.6682266049	-0.5018182462	-0.4117245283	 0.124092
H	 0.3990396194	 0.0684551857	 1.2222636602	 0.128715
H	-4.3836369541	-0.9360411647	-0.6624779616	 0.095958
H	-4.8020805305	-3.3614783274	-0.2576221411	 0.111576
H	-3.2768841609	-3.1281029292	-1.1221791285	 0.129165
H	-3.2474756361	-3.4908392394	 0.6022443819	 0.123923
H	-4.3941134833	-0.046561366	 1.6721500576	 0.096668
H	-6.3000567566	-2.41242604	 1.2041482393	 0.111054
H	-6.5432780013	-1.0699362055	 2.3312632344	 0.125842
H	-6.5282663878	-0.7716289392	 0.5814912836	 0.116947
H	-4.2343894169	-2.7085599873	 2.5272508157	 0.279114
