16
gdb 47204	2.68847	1.76086	1.17058	0.9921	71.79	-0.241	-0.0325	0.2085	1018.9776	0.124882	-437.901323	-437.893644	-437.8927	-437.934346	28.649	
O	-0.0193490541	 0.0830412976	-0.5126987425	-0.327724
C	 0.0051293295	 1.2149001216	-0.0810119834	 0.297887
C	-1.2921625192	 1.860824742	 0.397919752	-0.177474
O	-1.1539284474	 3.0713193726	 1.1475832689	-0.228018
C	 0.0235151318	 3.7350241696	 1.0686647931	 0.103392
N	 1.1194864513	 3.3700934234	 0.5563824376	-0.325349
C	 1.2184536153	 2.0652807384	-0.0179011835	 0.232658
C	 2.5517970014	 1.3393421273	 0.1765731206	-0.280386
C	 2.2269520436	 1.8979445387	-1.1592957352	-0.283125
H	-1.908539208	 2.0651594522	-0.4882598896	 0.148252
H	-1.83360363	 1.1442316108	 1.020803105	 0.153831
H	-0.0690309724	 4.705175523	 1.550298264	 0.132515
H	 3.2660739206	 1.8644542538	 0.7985613313	 0.135538
H	 2.4840917084	 0.2662300271	 0.3112910749	 0.141902
H	 1.9393661336	 1.2095379996	-1.945046621	 0.140552
H	 2.7115340755	 2.8155293223	-1.4695320821	 0.13555
