19
gdb 104232	2.16817	1.46866	1.07722	3.4641	75.07	-0.2315	0.023	0.2545	1193.6771	0.158481	-456.326347	-456.316674	-456.31573	-456.361048	35.137	
C	 0.018728235	 1.2722488153	 0.3355992772	-0.344055
N	-0.0988960662	-0.1777221065	 0.4146091553	-0.352599
C	-1.1571295089	-0.7196338906	-0.0217481773	 0.390733
N	-2.3516364093	-0.3146782832	-0.595422385	-0.359775
C	-2.9721863746	-1.653563855	-0.5187028929	-0.21691
C	-1.6095544497	-2.1891895224	 0.0092747851	 0.288024
O	-0.984035561	-3.0633924362	-0.8909592797	-0.47481
C	-1.5205940649	-2.7326687757	 1.4339408459	-0.124114
O	-0.1461582271	-2.8637769861	 1.7595144712	-0.434364
H	 1.0759183599	 1.5509643087	 0.3205744226	 0.129407
H	-0.4554479697	 1.6943989063	-0.5626716615	 0.10777
H	-0.4329833706	 1.7545370311	 1.2138794684	 0.117749
H	-2.8164384797	 0.5748997557	-0.494855749	 0.24741
H	-3.8034426574	-1.7298556656	 0.1910070414	 0.110177
H	-3.262989879	-2.064186875	-1.4882533657	 0.127791
H	-0.1854303742	-3.366898073	-0.4359884439	 0.290114
H	-2.0530559573	-2.0746963985	 2.1374059405	 0.0884
H	-1.9631219807	-3.7330674988	 1.489727874	 0.111999
H	 0.2415402254	-1.9785576203	 1.6412944334	 0.297054
