19
gdb 58021	1.90631	1.52533	0.91224	1.887	76.5	-0.269	0.0008	0.2697	1289.6063	0.157629	-419.265725	-419.255452	-419.254508	-419.301794	37.028	
C	 0.0253506635	 1.4882948882	-0.145663661	-0.415152
C	 0.042563412	-0.0216068384	 0.1247629894	 0.043351
C	 0.7792816329	-0.3275553517	 1.4365298564	-0.404564
C	-1.3929925723	-0.6208605971	 0.1661478858	-0.257686
C	-2.2942347835	-0.0450915459	-0.8342087956	 0.268785
N	-3.0322387221	 0.3697007531	-1.6224812189	-0.34063
C	-1.3985078198	-2.1760108653	 0.0330303377	 0.415621
N	-2.634267539	-2.7259459657	-0.1115139434	-0.520966
O	-0.3824096118	-2.8316820984	 0.1090513613	-0.343317
H	 1.0494515008	 1.8728027119	-0.1614062824	 0.119745
H	-0.4419332043	 1.7322834011	-1.1032681553	 0.139633
H	-0.5170892592	 2.0269265577	 0.6404550904	 0.11639
H	 0.5691015673	-0.5247606759	-0.6930828187	 0.107239
H	 0.8224216439	-1.4000361941	 1.6268209372	 0.15063
H	 1.8033849567	 0.0547396504	 1.3874254878	 0.116786
H	 0.2848110143	 0.1654966073	 2.2829006452	 0.106754
H	-1.8344054146	-0.3944349722	 1.1476934782	 0.148581
H	-3.4263381698	-2.1675004615	-0.3848518628	 0.278743
H	-2.6755497548	-3.7187161036	-0.2803613413	 0.270056
