14
gdb 44922	3.21854	1.51512	1.48881	1.009	61.94	-0.2567	-0.043	0.2136	913.1026	0.102584	-473.84776	-473.841242	-473.840298	-473.878834	25.516	
N	-0.0502515129	 1.2620597544	 0.0009409266	-0.546354
C	-0.0148856654	 0.0068925036	-0.0059236882	 0.450869
O	 1.1036193875	-0.7997064913	-0.009998636	-0.256316
C	 0.5765496857	-2.1502919207	-0.0134536479	 0.047108
O	-0.6186010794	-2.0605179019	-0.7372404471	-0.2405
C	-1.1814840255	-0.9642026604	 0.0308156244	-0.042877
C	-1.235845099	-1.562561575	 1.4537194603	-0.357186
C	 0.0643228692	-2.3914001024	 1.4285139171	 0.438155
O	 0.5542566892	-3.0635430104	 2.2883077325	-0.299694
H	 0.8894807206	 1.6619824476	 0.0053228834	 0.236644
H	 1.2953152127	-2.8436888676	-0.4406903635	 0.128854
H	-2.1078607719	-0.6112975098	-0.4100679383	 0.130226
H	-1.2388135118	-0.8284847927	 2.2615014464	 0.158551
H	-2.0980105189	-2.2248709033	 1.5674724403	 0.152519
