12
gdb 35985	9.38735	0.45469	0.43483	5.7184	101.88	-0.2703	-0.0781	0.1922	2287.2462	0.07567	-361.141103	-361.132165	-361.13122	-361.17581	30.737	
C	-0.1057453333	-1.2273794908	-0.0033695774	-0.42188
C	-0.0474773327	-0.0291294114	 0.0026994867	 0.309384
C	 0.0146241628	 1.4326576075	 0.0096718754	-0.530105
C	 1.3798081218	 1.9499604551	-0.0006136724	 0.292341
C	 2.5098337436	 2.3850208963	-0.0090856513	-0.239028
C	 3.7705922377	 2.8709900091	-0.0185260855	-0.194892
C	 4.9043014078	 3.3096656347	-0.0270059575	 0.455238
C	 6.171569111	 3.8008751331	-0.0364796012	 0.079861
N	 7.2562332205	 4.2220306195	-0.0445805205	-0.325428
H	-0.1555851229	-2.288485795	-0.0091152433	 0.213311
H	-0.5264179349	 1.8330922402	-0.8593740049	 0.180605
H	-0.5097741015	 1.8240054119	 0.8929414319	 0.180593
