17
gdb 19865	3.79791	2.23687	1.96615	0.9378	65.76	-0.2356	0.0715	0.3071	750.972	0.145114	-363.810646	-363.804429	-363.803485	-363.841002	24.667	
C	 0.1421321523	 1.5512344202	 0.1753145508	-0.24999
C	 1.3425053889	 0.7128860131	 0.0094660172	-0.047632
C	 1.6931559144	-0.0783433494	 1.2785651291	 0.098739
O	 1.9311527646	 0.6034187038	 2.4886944039	-0.266587
C	 0.7116075943	 0.7776698751	 3.2174422673	-0.079729
C	-0.3687250366	-0.1382098101	 2.5820749817	-0.262933
C	 0.2494197316	-0.6092376113	 1.2607619459	 0.000983
N	-0.064522158	 0.1096638966	-0.0402693925	-0.147836
H	-0.0994673047	 2.0123732316	 1.1266930175	 0.118047
H	-0.1626822538	 2.138840154	-0.6857338698	 0.124289
H	 1.9630483255	 0.7604659115	-0.8796607673	 0.093107
H	 2.4927756732	-0.8061947599	 1.1207732765	 0.086788
H	 0.9092318394	 0.5198540689	 4.263791648	 0.104805
H	 0.4117196259	 1.8337363085	 3.1924387426	 0.104137
H	-0.5688665639	-1.0004293116	 3.2231954369	 0.114156
H	-1.3167160056	 0.3857274532	 2.4325594831	 0.119744
H	 0.1302561324	-1.6791650145	 1.0921770792	 0.089912
