19
gdb 92720	2.28658	1.61369	1.05203	2.9866	79.29	-0.2391	-0.0138	0.2253	1169.222	0.159416	-419.263491	-419.254467	-419.253523	-419.29738	32.981	
C	 0.1093338458	 1.5824131092	 0.0339370044	-0.394681
C	 0.0004963508	 0.0569747049	 0.0327384004	-0.002912
C	 0.7775296216	-0.6124801193	-1.1353311565	-0.187907
N	 1.9493825983	-1.2675212359	-0.5472023542	-0.283321
C	 1.8419937594	-1.2237261323	 0.7229660134	 0.375669
C	 2.8343211671	-1.8192078417	 1.6656890767	-0.464645
N	 0.6882606491	-0.5482113285	 1.1929403532	-0.110313
C	 0.2133935213	-0.472723565	 2.4757621312	 0.143545
O	 0.7332320233	-0.9435647801	 3.4632877458	-0.323397
H	 1.1590744522	 1.8924044041	 0.0173103201	 0.134818
H	-0.384405981	 1.9932280312	-0.8525670168	 0.126841
H	-0.3641020121	 2.0205059776	 0.9180776823	 0.123578
H	-1.0526590125	-0.240027941	 0.0397878941	 0.09874
H	 0.1725064817	-1.3605331087	-1.6611351142	 0.117855
H	 1.0925096182	 0.1258834236	-1.8802769343	 0.116168
H	 3.6450458372	-2.2524811604	 1.0793419534	 0.139678
H	 3.2257822717	-1.0625712182	 2.350581226	 0.149079
H	 2.3673908842	-2.5841693264	 2.2902478178	 0.158071
H	-0.7427669665	 0.0851951467	 2.5146662473	 0.083135
