17
gdb 85733	1.90892	1.56443	0.96725	5.0487	74.55	-0.2467	-0.0483	0.1984	1217.4878	0.134494	-417.997693	-417.988579	-417.987635	-418.032435	31.849	
C	-0.2440981657	 1.5818775003	-0.0490867099	-0.334254
N	-0.1703109256	 0.1381277988	 0.0253313194	-0.069687
C	-1.3106309226	-0.6123047612	 0.5702638552	-0.168748
C	-0.303898839	-1.6091492031	 1.2209412137	-0.208334
C	-0.1024096668	-2.8414571499	 0.4749683226	 0.292578
N	 0.0472335002	-3.8259233742	-0.1122999336	-0.32046
C	 0.7641762332	-0.4803312559	 0.9741879983	-0.059439
C	 2.1093513006	-0.8806171783	 0.3921516745	 0.155232
O	 3.1387325229	-0.841149153	 1.0124197595	-0.235985
H	 0.712276085	 1.9835644231	-0.3978994503	 0.136687
H	-1.0133633738	 1.8722329002	-0.7712993382	 0.135214
H	-0.4839075401	 2.0527929728	 0.9216925166	 0.102832
H	-1.8738304538	-0.065968982	 1.3430982603	 0.102798
H	-2.005095007	-1.0131382314	-0.1727702876	 0.133386
H	-0.4756068471	-1.8441994764	 2.2714249471	 0.141842
H	 0.9320839993	 0.090179344	 1.9006415313	 0.08993
H	 2.05874326	-1.215094764	-0.6657125687	 0.106408
