12
gdb 127810	3.76908	1.77385	1.21549	5.429	61.91	-0.2847	-0.069	0.2157	914.7512	0.079347	-461.078532	-461.071918	-461.070973	-461.110129	23.452	
C	 0.0656296733	 1.4458773268	-0.0648017019	-0.343451
N	 0.0049770737	 0.0018821792	 0.0569985313	-0.131815
N	-0.1561993237	-0.7981345065	-1.039089774	-0.084878
N	-0.1818394304	-2.0339603001	-0.694617387	-0.109018
N	-0.033683339	-2.0356648846	 0.6569073812	 0.104173
N	 0.0326284748	-2.9253761536	 1.6777742654	-0.141461
N	 0.1865760798	-2.1744888432	 2.7309820225	-0.080409
N	 0.2260046483	-0.8323487747	 2.4631510761	-0.347541
C	 0.0844435592	-0.7903104969	 1.1521792983	 0.604919
H	 1.0238757503	 1.8139425901	 0.3091434334	 0.173565
H	-0.037357428	 1.684931516	-1.1227073458	 0.182366
H	-0.7477903681	 1.9047002775	 0.5021161906	 0.17355
