20
gdb 14264	2.91592	2.46574	1.74648	0.3265	78.85	-0.2291	0.0231	0.2522	841.911	0.180922	-311.867371	-311.860721	-311.859777	-311.897701	27.692	
C	 0.0357672088	 1.5736610301	-0.2186433768	-0.214326
C	 1.5359065241	 1.4770165034	 0.1788308437	 0.01059
C	 1.1856680728	 0.1557145814	 0.9239007169	-0.23453
C	-0.0831054155	 0.0337631446	 0.023275525	-0.039598
C	 0.1249127804	-0.7623149335	-1.2378797098	-0.060991
C	 1.2313114798	-0.7802482745	-1.9844015965	-0.053007
C	 2.538050017	-0.073720855	-1.6996340481	-0.253112
C	 2.486659992	 1.3142078478	-1.0217671456	-0.204612
H	-0.5400487674	 2.1436227632	 0.5169089496	 0.090258
H	-0.2010857595	 1.9371237057	-1.222061033	 0.091157
H	 1.8999987732	 2.293844812	 0.8089608266	 0.059957
H	 1.9047385833	-0.6660289311	 0.897390237	 0.096341
H	 0.9104087069	 0.3460220166	 1.9651135407	 0.092356
H	-0.9932441139	-0.2986812359	 0.5283711847	 0.058336
H	-0.7265586545	-1.349448431	-1.5751565978	 0.078877
H	 1.2292357306	-1.4009380855	-2.8782688654	 0.081833
H	 3.1615812872	-0.7424293977	-1.0880584438	 0.114056
H	 3.090200427	 0.0341406832	-2.6404588086	 0.097252
H	 2.2199501668	 2.0708342705	-1.7709150004	 0.097685
H	 3.5087258608	 1.5532663056	-0.7033219183	 0.091479
