17
gdb 90550	4.2811	1.11391	1.01891	2.1796	69.56	-0.2467	-0.0357	0.211	1181.7954	0.134073	-458.923892	-458.915676	-458.914732	-458.957264	29.913	
C	 0.4135212856	 1.5382882308	-0.1309978902	-0.407604
C	 0.055624394	 0.0789839783	 0.0210919047	 0.130574
O	 0.8793484866	-0.8175610428	-0.7986276347	-0.314382
C	 1.2047631704	-1.6334472149	 0.3278400791	 0.046482
C	 2.4895819016	-1.1654067518	 1.0701210065	 0.003152
O	 1.7287538668	-0.2298679298	 1.8542963969	-0.280704
C	 0.4817431258	-0.681032573	 1.2962674646	 0.047204
C	 3.1502246308	-2.2511030392	 1.8891994491	 0.135078
O	 2.9675469911	-2.4398591646	 3.0615228314	-0.227989
H	 1.4306910169	 1.725331227	 0.2196014927	 0.138463
H	 0.3358635294	 1.8348103974	-1.1811593388	 0.130959
H	-0.2761509674	 2.1585382717	 0.4512119516	 0.124023
H	-1.0027864841	-0.0986441667	-0.2145534936	 0.084834
H	 1.0283086289	-2.6986448724	 0.1701994348	 0.100853
H	 3.2259740967	-0.6867314991	 0.4113133112	 0.110515
H	-0.2580988247	-0.9303100717	 2.057183076	 0.101292
H	 3.8152735117	-2.9090279194	 1.2803677486	 0.07725
