21
gdb 110992	2.57153	1.51924	1.1918	0.9564	83.98	-0.2233	0.0175	0.2408	1141.331	0.182054	-387.052779	-387.044081	-387.043137	-387.085844	33.899	
C	 0.2122273716	 1.3684313321	 0.1095887952	-0.243145
O	-0.2339452207	 0.0755897763	-0.2394413367	-0.259714
C	 0.5344305706	-0.5368141122	-1.2341582291	 0.15832
C	 1.8226372985	-1.340644361	-0.7674632388	-0.131002
C	 0.8170258925	-2.4255734903	-0.2656842938	-0.250198
C	 0.0314541929	-1.9957268472	-1.5577031047	 0.27013
C	-1.4305413659	-2.3038571669	-1.7745369333	-0.5174
C	 1.0658023479	-2.343598123	-2.6348643752	-0.131843
C	 2.225699858	-1.9177189929	-2.1208281129	-0.095392
H	 1.2200317368	 1.3521676687	 0.5491799698	 0.109713
H	 0.2274877461	 2.0384615326	-0.7636140368	 0.107661
H	-0.4880627189	 1.7652911823	 0.8483322974	 0.127479
H	 0.6786971863	 0.1351821144	-2.0931749221	 0.055771
H	 2.5882546504	-0.9046895503	-0.1264089233	 0.057859
H	 1.1774040885	-3.4563534364	-0.2233134543	 0.085425
H	 0.301831223	-2.1411853902	 0.6543327888	 0.104783
H	-2.0368437435	-1.8789068874	-0.9695803651	 0.129989
H	-1.7889088975	-1.8848497728	-2.7218825328	 0.11267
H	-1.6058659406	-3.3850708463	-1.8007188186	 0.115168
H	 0.8505259041	-2.7905246752	-3.5959832765	 0.096024
H	 3.21669901	-1.9171024845	-2.5528623872	 0.097701
