18
gdb 49434	3.77237	1.25782	1.14301	2.5337	75.95	-0.2472	-0.0245	0.2227	1097.3446	0.149352	-401.919752	-401.91257	-401.911626	-401.951713	28.07	
O	-0.0298084091	-0.0390817582	-0.0511323809	-0.259976
C	 0.050966503	 1.1624520346	-0.0889559606	 0.155403
C	 1.3370717286	 1.9391108119	-0.0945385279	-0.113056
C	 1.3725913961	 2.9599356621	-1.2564098788	-0.05398
C	 1.0075204163	 4.0867710428	-0.3416306019	-0.060592
C	 1.2735531994	 3.1729584081	 0.8861481717	-0.072977
C	 2.6919641435	 3.5418597408	 1.3261890488	-0.229811
C	 3.3810024006	 3.8321647646	-0.0332019216	-0.160659
N	 2.2955503057	 4.0729789403	-1.0137268114	-0.096424
H	-0.8645746277	 1.7994259966	-0.1235587903	 0.072469
H	 2.1771715698	 1.2467899596	 0.0123807909	 0.086166
H	 1.0911487316	 2.7554548711	-2.283490599	 0.104737
H	 0.3245046047	 4.9205703394	-0.4453863102	 0.099053
H	 0.5289164257	 3.116716434	 1.6799311377	 0.084066
H	 2.6755154951	 4.4354175556	 1.959603371	 0.106611
H	 3.1795220299	 2.739314582	 1.8870982076	 0.110577
H	 4.011753787	 4.7239441456	 0.0047731811	 0.113409
H	 4.0042136597	 3.0005805289	-0.3747138064	 0.114985
