21
gdb 122379	4.01631	0.82615	0.79147	1.2773	79.26	-0.2263	0.0711	0.2974	1562.5011	0.181364	-424.168546	-424.159227	-424.158282	-424.203895	33.783	
C	 0.1839702089	 1.0768883354	 0.4354902851	-0.38279
C	-0.2264781312	-0.1059088739	-0.4451419289	-0.183357
C	-1.4548801265	-0.8263234431	 0.0905849015	-0.037037
O	-1.7599223823	-1.9061879339	-0.7848974114	-0.252878
C	-2.8663790034	-2.6416279561	-0.394533224	 0.105808
C	-2.8678077669	-4.1322695573	-0.5799121004	-0.195447
C	-1.4954270113	-4.6710590358	-0.1818396382	-0.079651
O	-1.5496043162	-4.000050766	 1.1074197603	-0.283063
C	-2.8616087175	-3.5244847888	 0.821756719	 0.041714
H	 1.0721427753	 1.5748647014	 0.036097389	 0.116519
H	-0.6147189668	 1.8243216423	 0.4990824112	 0.114784
H	 0.4156342725	 0.7524956422	 1.4559440375	 0.118797
H	-0.4360936935	 0.2338200158	-1.4659740044	 0.104081
H	 0.5942484537	-0.8286533328	-0.5176672401	 0.108577
H	-1.269083818	-1.2129051153	 1.1027107659	 0.107473
H	-2.3109192422	-0.1333070566	 0.1488649247	 0.080297
H	-3.8331078908	-2.1694313223	-0.5888682922	 0.086231
H	-3.6255335611	-4.6699481451	-1.1337351051	 0.100741
H	-1.477808577	-5.7568165523	-0.0419407045	 0.107513
H	-0.6411577859	-4.3453269929	-0.7822231454	 0.1194
H	-3.5838594599	-3.5060939549	 1.6310411806	 0.102288
