16
gdb 34177	4.50138	1.47314	1.31732	2.1216	78.16	-0.2286	0.0321	0.2606	961.467	0.125117	-363.517928	-363.511298	-363.510354	-363.548627	27.636	
C	 0.0653933345	-1.123659588	-0.021863117	-0.340451
C	 0.0233218727	 0.0778901275	-0.0116875689	 0.136882
C	-0.0677901471	 1.5050411069	 0.0006741889	 0.199109
C	-1.1162267105	 2.2375911687	-0.8193128297	-0.308335
C	-0.6877719692	 3.6543243849	-0.514964781	-0.092997
C	-0.1109093309	 3.7585448491	 0.8919756662	-0.116255
C	 0.8017252351	 3.685595104	-0.3048503596	-0.020905
N	 1.2409020476	 2.2757621364	 0.0282668254	-0.189332
C	 0.3197877562	 2.3194185569	 1.1990642322	-0.096189
H	 0.1152883541	-2.1840903932	-0.0315247933	 0.183751
H	-1.0419707482	 1.9911910558	-1.8829343806	 0.120485
H	-2.1274245079	 2.0043194442	-0.4719152316	 0.118008
H	-1.1821290636	 4.5167947932	-0.9437260785	 0.098141
H	-0.311571371	 4.556038018	 1.5924226888	 0.099706
H	 1.5042875057	 4.3812379789	-0.7426100913	 0.104252
H	 0.5932974427	 1.8982255667	 2.15898199	 0.104129
