21
gdb 97982	5.52784	0.4358	0.42014	0.7243	95.55	-0.2423	0.0446	0.2868	2613.2112	0.179427	-349.906546	-349.895319	-349.894374	-349.945881	38.877	
C	 0.5340861577	 1.2777160171	-0.4056430682	-0.363194
C	-0.3475909405	 0.2453361447	 0.3205111313	-0.313932
C	 0.3008865362	-0.3419991797	 1.4888911553	 0.14723
C	 0.8545386817	-0.8053163842	 2.4534290316	-0.01462
C	 1.5208869388	-1.4022007134	 3.6054602582	-0.357057
C	 1.9591716392	-2.8588940314	 3.3588397023	-0.163322
C	 2.6599392193	-3.4633860409	 4.5913546143	-0.353915
C	 3.0845049058	-4.8419239969	 4.3831114581	 0.284425
C	 3.4244927055	-5.9778539124	 4.1859544642	-0.429753
H	 1.4635812281	 0.8184325428	-0.7530076497	 0.126773
H	 0.0073404438	 1.688787239	-1.2721554262	 0.112668
H	 0.7958024956	 2.1029636535	 0.2622335393	 0.126725
H	-1.2894893315	 0.719572066	 0.6255708745	 0.126463
H	-0.6278031344	-0.5521962097	-0.3798631031	 0.127025
H	 2.3995100092	-0.8005012168	 3.8766408031	 0.1247
H	 0.8536488387	-1.3670744174	 4.4778846646	 0.124786
H	 1.085930423	-3.4655914995	 3.100414502	 0.121488
H	 2.634268993	-2.8977754302	 2.4985134077	 0.121066
H	 3.5313015011	-2.8488709987	 4.8550225878	 0.129591
H	 1.9845629595	-3.4160209575	 5.4562417834	 0.129684
H	 3.7288450001	-6.9815942044	 4.0220286595	 0.19317
