18
gdb 114980	2.3158	1.63086	1.13829	3.0775	76.75	-0.2463	-0.03	0.2163	1115.7303	0.148341	-439.104456	-439.096041	-439.095097	-439.137848	31.177	
C	 0.5642288706	 1.0888899893	-0.3094827466	-0.242023
O	 0.5779930339	-0.2839376105	 0.0477942231	-0.23453
C	 0.3744800496	-0.5248172705	 1.4049173359	 0.195257
C	 0.2306172334	-2.0317705498	 1.5943937075	-0.297105
C	 1.5721224237	-2.7048006086	 1.5723890791	-0.080127
C	 2.6876129108	-2.0223392108	 1.8321939764	-0.077993
C	 2.6572359122	-0.6030953565	 2.1904367738	 0.377842
N	 3.7115324235	 0.0098292628	 2.5473349019	-0.520747
O	 1.4338933995	 0.0252545704	 2.1983583071	-0.27497
H	 1.3860973871	 1.6383675647	 0.1620760158	 0.130256
H	 0.674724021	 1.1324373533	-1.39449202	 0.132958
H	-0.387153814	 1.5628688563	-0.0254807034	 0.108937
H	-0.5120672007	 0.0172174656	 1.7626015582	 0.079328
H	-0.2798526375	-2.2341117071	 2.5451751864	 0.127309
H	-0.4170873918	-2.4133195605	 0.7994954956	 0.130841
H	 1.6094433329	-3.7674175473	 1.3527270403	 0.108055
H	 3.6715227084	-2.4742795227	 1.8289107325	 0.1187
H	 3.4878780774	 0.9811305718	 2.7750112163	 0.218013
