18
gdb 69335	3.1545	1.27306	1.09185	5.4745	76.64	-0.2672	0.029	0.2962	1160.7029	0.145765	-401.936886	-401.928023	-401.927078	-401.970057	33.375	
C	 0.0823710345	 1.5499757681	-0.0321539786	-0.502496
C	-0.0795895995	 0.0735323223	 0.1148355333	 0.424429
C	-1.36746574	-0.7635243975	 0.0174088532	-0.341124
C	-0.7174240681	-1.8052266964	 1.0158992565	 0.128712
C	-1.4001403617	-1.8393049648	 2.3877760474	-0.452581
C	-0.531713448	-3.1528874298	 0.485313507	 0.256711
N	-0.3946873225	-4.2275682149	 0.0819560096	-0.342245
C	 0.5571361182	-0.9199781507	 0.998406124	-0.076498
O	 0.978144041	-0.7817390566	-0.353074412	-0.270464
H	 1.0977119568	 1.8505286403	 0.2385703433	 0.141408
H	-0.0991971945	 1.8565751732	-1.0682248395	 0.139826
H	-0.6272462927	 2.0854163891	 0.6064227592	 0.128181
H	-2.2483726246	-0.2889617096	 0.4556854464	 0.116751
H	-1.5997102436	-1.1327215882	-0.9827435627	 0.131841
H	-2.4004843504	-2.2740939876	 2.3139945779	 0.143031
H	-0.8199755652	-2.4345415602	 3.0987185007	 0.140517
H	-1.4918479097	-0.8228944526	 2.7830257456	 0.124107
H	 1.3043167	-0.8361261541	 1.7805180286	 0.109896
