14
gdb 46337	4.38377	0.75234	0.67752	2.3091	86.02	-0.2511	-0.0267	0.2244	1581.5205	0.099724	-399.485616	-399.477223	-399.476279	-399.519459	30.335	
N	 0.0441932414	 1.2261918758	-0.2683228707	-0.530942
C	 0.0305380235	 0.0034987055	-0.0166910934	 0.450087
O	 1.0381860605	-0.8736974329	 0.3180815829	-0.245497
C	 0.1060704775	-1.9838906525	 0.4701259831	-0.087974
C	-1.0695194255	-1.0659886983	 0.0257449766	-0.369426
C	-2.173679932	-0.8745192158	 0.9342420073	 0.499184
C	-3.0981177068	-0.727350538	 1.7007203357	-0.315408
C	-4.1343331633	-0.560104302	 2.5655979242	 0.309983
C	-5.0547091062	-0.41424245	 3.3332912792	-0.559157
H	 0.9847412747	 1.6179821521	-0.2015190891	 0.23675
H	 0.354276376	-2.8058966044	-0.2039235286	 0.130977
H	 0.0608794004	-2.3232819439	 1.5061659994	 0.139024
H	-1.4281574554	-1.3012093044	-0.9816587275	 0.146438
H	-5.8637791648	-0.2816038913	 4.0080797708	 0.195962
