14
gdb 124020	3.81806	1.67675	1.1736	7.6679	69.61	-0.2066	-0.0071	0.1995	954.1588	0.105735	-429.053231	-429.04666	-429.045716	-429.084434	24.947	
C	-0.0053833335	 1.5251222786	 0.197544884	-0.285512
N	 1.3210800824	 1.9740349511	-0.2357986712	-0.299827
C	 2.3387647355	 1.1610456533	-0.6667808908	 0.087484
N	 2.326358441	-0.1206876161	-0.7712906638	-0.340407
C	 1.1115389035	-0.6708400706	-0.3862818405	 0.306222
C	 0.0218107159	 0.0413623614	 0.0617160533	 0.308891
N	-0.9084669457	-0.9029363144	 0.3117205045	-0.295997
N	-0.4245691978	-2.1416539751	 0.0342558204	-0.117798
N	 0.7978199522	-1.998626235	-0.387967089	-0.264669
H	-0.201577831	 1.8436157552	 1.2349527807	 0.123969
H	-0.7914848958	 1.9846754281	-0.4245475653	 0.123975
H	 1.4994862312	 2.9637338062	-0.2153028717	 0.255587
H	 3.2393038362	 1.7081918325	-0.9402492635	 0.121072
H	-1.8515334641	-0.8144222252	 0.6548750329	 0.27701
