19
gdb 31245	2.38694	1.33058	0.90729	1.4873	80.3	-0.1923	0.0236	0.2159	1322.6634	0.158526	-423.047739	-423.03842	-423.037476	-423.082853	33.419	
C	 0.2599087535	 1.5621200008	-0.2467275378	-0.369375
C	-0.0894312762	 0.1007246384	 0.087165856	-0.296298
C	 0.5683728165	-0.4071048555	 1.3197120959	 0.252039
C	 0.0886766313	-0.8117178288	 2.5338566741	 0.229251
O	-1.2337468222	-0.824490399	 2.8483860693	-0.267606
C	-1.561456681	-1.2884269154	 4.1430804416	-0.247537
C	 1.2183065605	-1.1893498564	 3.3364014876	-0.316207
C	 2.3046766427	-0.9826697083	 2.545767336	-0.008973
O	 1.9358926299	-0.512945891	 1.3315350532	-0.182879
H	 1.3389603721	 1.6822377977	-0.3794826847	 0.126836
H	-0.2340030259	 1.8779960905	-1.1709459995	 0.109249
H	-0.0565723682	 2.2326374007	 0.5579898044	 0.120045
H	-1.169306424	-0.0047441887	 0.2316103546	 0.122674
H	 0.1773115814	-0.5375283594	-0.7661371586	 0.111323
H	-2.6484422132	-1.2343794922	 4.2259019906	 0.133395
H	-1.2407686409	-2.3280330976	 4.2938767514	 0.120363
H	-1.1101741124	-0.6612507543	 4.9236960543	 0.120222
H	 1.2222538289	-1.5603182066	 4.3480632428	 0.112411
H	 3.3624800774	-1.119241815	 2.6985888487	 0.131066
