18
gdb 56697	2.74876	1.31688	1.00949	1.7103	84.07	-0.2458	0.0282	0.274	1197.9592	0.144706	-364.715828	-364.706236	-364.705292	-364.749922	36.197	
C	-0.1398923458	 1.6228106184	 0.4482713908	-0.390183
C	-0.0747948536	 0.1235236835	 0.0823538323	-0.237162
C	 0.8129534314	-0.5855046719	 1.0015058376	 0.305897
C	 1.5360382463	-1.1427954064	 1.7849583985	-0.463475
C	-1.4872506046	-0.5056887903	 0.0393837513	 0.091689
C	-1.6745410155	-1.9599388886	 0.3211318753	-0.274606
N	-2.1228881386	-0.9592005487	 1.2981434111	-0.336986
C	-2.3720517475	 0.1304536857	-0.9078357825	 0.308171
C	-3.0754042042	 0.6554841266	-1.7296186353	-0.41314
H	 0.8600848681	 2.0622196196	 0.4273751776	 0.125845
H	-0.7765368386	 2.153063856	-0.2631784318	 0.138707
H	-0.5532205887	 1.7566728375	 1.4518253714	 0.130618
H	 0.3390340078	 0.0383249811	-0.9312352326	 0.123077
H	 2.1900450844	-1.6366649968	 2.4608935663	 0.203057
H	-2.4722942419	-2.4907266354	-0.1885820486	 0.12729
H	-0.7857044064	-2.5424884887	 0.5433141358	 0.129265
H	-1.4293054061	-0.8969029311	 2.0432286232	 0.238142
H	-3.7146883466	 1.1150173895	-2.4422682005	 0.19379
