17
gdb 18384	3.45932	2.23286	1.52141	2.3534	67.71	-0.2367	0.0223	0.2591	834.4953	0.14537	-363.850842	-363.844264	-363.84332	-363.881369	25.957	
C	-0.082680401	 1.4979501013	 0.0305466627	-0.316717
C	 1.2977820447	 0.8810322109	 0.0538147431	-0.014896
C	 2.0745669587	 0.7991684414	 1.3385143315	-0.100647
O	 2.7372857908	-0.4719762973	 1.4920746752	-0.230303
C	 1.9998810376	-1.6116819409	 1.584811651	 0.143635
N	 0.7710955137	-1.8751001159	 1.4682521522	-0.266533
C	-0.2576992906	-0.8887041329	 1.1337514917	-0.193246
C	 0.077343198	 0.0006856971	-0.0530435189	-0.006825
H	-0.4689950369	 1.9172830206	 0.9545444595	 0.114793
H	-0.3805295499	 2.0403929582	-0.8596700043	 0.117953
H	 1.9054061237	 0.9918692224	-0.8390004439	 0.094221
H	 2.8850820112	 1.5318979431	 1.3694694822	 0.118143
H	 1.4355949413	 0.9776756611	 2.2095464301	 0.111793
H	 2.6907866301	-2.4256644301	 1.8090400597	 0.11821
H	-1.1749255523	-1.4457288619	 0.9147641594	 0.109279
H	-0.4913347466	-0.2822970572	 2.0179424015	 0.105823
H	-0.0954399826	-0.45498834	-1.0231652427	 0.095316
