19
gdb 124740	2.42944	1.46981	0.955	2.7823	77.65	-0.2252	0.0239	0.2491	1230.0018	0.159963	-419.234766	-419.225542	-419.224597	-419.269194	34.004	
C	 0.3320553712	 1.2618456207	-0.4038642742	-0.408238
C	 0.0322790248	-0.0980725464	 0.2258215143	 0.011046
O	 0.3279405656	-0.0970072198	 1.6259374017	-0.430096
C	-1.3835048176	-0.572811935	-0.0002645419	 0.268066
C	-2.2575758799	-0.5679959304	-1.081096872	 0.089415
C	-2.0704519207	-0.0210083026	-2.4659298697	-0.513627
C	-3.4050055443	-1.2323787021	-0.5889196465	-0.067858
N	-3.2723697856	-1.6211119739	 0.6764788386	-0.240591
N	-2.0372319384	-1.2102761323	 1.0045215432	-0.234419
H	 1.3581211991	 1.5560035149	-0.1672502267	 0.127702
H	 0.2204880448	 1.2316899335	-1.4902589184	 0.133268
H	-0.3533319592	 2.0259793968	-0.0189077867	 0.117196
H	 0.7293458093	-0.8380932295	-0.1893396628	 0.113529
H	-0.1018657345	 0.6767334489	 2.0092997792	 0.282884
H	-1.1438529316	-0.3749963652	-2.9318908043	 0.12391
H	-2.8960117691	-0.3376770803	-3.1097949231	 0.126137
H	-2.0472322234	 1.0746648208	-2.4880777926	 0.12706
H	-4.3238926971	-1.4369745661	-1.1211823439	 0.104349
H	-1.6546399034	-1.3934343422	 1.917321236	 0.270267
