18
gdb 112133	3.26876	1.11353	0.86228	4.8488	75.26	-0.2559	-0.0665	0.1894	1331.3517	0.147082	-439.124951	-439.116172	-439.115228	-439.159118	32.138	
C	 0.0764397166	 1.4954498117	 0.1690644043	-0.389305
C	-0.0139119344	-0.0219498856	-0.0111831732	-0.189051
C	-1.4407154098	-0.5490490568	-0.0104086287	 0.117794
C	-1.5887721631	-2.0650024785	-0.1805971226	-0.368872
C	-2.7123688374	-2.4307184482	 0.7801724776	 0.328341
O	-3.3502820004	-3.4445898503	 0.8211519515	-0.271893
C	-2.8673024586	-1.2358445213	 1.7083521938	 0.309335
N	-3.6180309974	-1.2088942376	 2.722781285	-0.500023
O	-2.052590436	-0.2390394342	 1.2785394485	-0.252189
H	 1.1188070922	 1.8258563872	 0.1696712671	 0.120245
H	-0.440484724	 2.0212759886	-0.6410908934	 0.118365
H	-0.3794945517	 1.8022883297	 1.1137381755	 0.139163
H	 0.4486000839	-0.3195268157	-0.9607300883	 0.108271
H	 0.5418884122	-0.5338051959	 0.7844156804	 0.109289
H	-2.0324799606	-0.0212215819	-0.7698879104	 0.098085
H	-1.8097506307	-2.3823730878	-1.2007575032	 0.145864
H	-0.6805933182	-2.5874598585	 0.1458573986	 0.145866
H	-3.5547981326	-0.3054416651	 3.1977603875	 0.230714
