21
gdb 87251	4.47115	0.67817	0.65415	2.1074	81.26	-0.2481	-0.0208	0.2273	1759.9405	0.178994	-424.224729	-424.214219	-424.213274	-424.261135	37.614	
C	-0.0722390723	 1.5113770604	-0.1491514744	-0.402428
C	 0.0516777746	 0.010371748	-0.0173792925	-0.04184
C	 1.412471667	-0.6618833614	-0.0997259735	-0.357399
C	 0.6594438662	-0.6187117818	 1.2085854817	 0.403739
O	 1.1099875561	 0.2799042467	 2.1932118769	-0.468863
C	 0.048173431	-1.8863741521	 1.7781757677	-0.249695
C	 1.0459280905	-2.7017150623	 2.6227030157	-0.284282
C	 0.3901040465	-3.8980807437	 3.269022646	 0.15829
O	 0.7467982148	-5.0403640738	 3.1359595392	-0.238207
H	 0.7335795574	 2.0154248935	 0.3884906824	 0.127353
H	-0.0338057745	 1.8156574562	-1.2005432197	 0.113962
H	-1.0205740738	 1.8663947109	 0.2683565791	 0.118383
H	-0.7683419501	-0.5516235963	-0.4583458069	 0.085418
H	 1.505634485	-1.6074796145	-0.6238490469	 0.112465
H	 2.2741000959	-0.0075626496	-0.1918319485	 0.110054
H	 2.0173676102	 0.0501878925	 2.4171868222	 0.28626
H	-0.8134654111	-1.6106488372	 2.3998219713	 0.110636
H	-0.332219952	-2.5048982881	 0.9575311327	 0.109322
H	 1.8960486265	-3.0455223881	 2.0261333678	 0.11959
H	 1.4203175482	-2.0566544448	 3.4306101881	 0.115863
H	-0.4934172161	-3.6454655143	 3.9024795816	 0.071379
