14
gdb 84344	3.10018	1.31833	1.01684	4.4613	67.54	-0.2773	-0.0554	0.2219	1110.5236	0.10019	-436.711305	-436.703241	-436.702297	-436.744486	29.206	
O	 0.4592742046	 1.3441513144	-0.2321177873	-0.432189
C	 0.1536644733	 0.0008514466	 0.0387187653	 0.015288
C	 0.7202378932	-0.5118543438	 1.3352284142	-0.092079
C	-0.1606310717	-1.2280198521	 2.0339387313	-0.071846
C	-1.5185657406	-1.3049397936	 1.3544793123	-0.320713
C	-2.6645713654	-1.0853335884	 2.2305094991	 0.295872
N	-3.5610257514	-0.9166847973	 2.9390082426	-0.309729
C	-1.353567149	-0.2207191261	 0.2520739908	 0.359883
O	-2.2165689037	 0.415119377	-0.2801126883	-0.286755
H	-0.3065018014	 1.7168038639	-0.690344053	 0.301473
H	 0.4742639145	-0.6492313249	-0.7986381352	 0.107636
H	 1.7483198243	-0.3283741818	 1.6211346947	 0.132284
H	 0.0247657447	-1.7240557591	 2.9779028393	 0.136453
H	-1.6604187715	-2.2737575847	 0.8514514741	 0.164423
