17
gdb 32096	2.87121	1.28708	0.94445	1.9322	78.99	-0.2408	-0.0429	0.1979	1238.7993	0.137602	-418.077091	-418.069035	-418.068091	-418.110328	30.166	
C	 0.0207022915	 1.5136449963	-0.1629814146	-0.370524
C	-0.0162549591	 0.0007761317	 0.1080024202	-0.271431
C	-1.4129469991	-0.5611833177	 0.0497552458	 0.311394
C	-1.8257509258	-1.4409887697	-0.9481818085	-0.08467
N	-3.0724471673	-1.9269985656	-1.0040266464	-0.224518
C	-3.9175955989	-1.538352754	-0.0622483787	-0.078282
C	-3.5043555511	-0.6519318694	 0.9457240909	 0.393876
O	-4.3865281842	-0.2776603617	 1.8914209349	-0.412922
N	-2.2746460059	-0.1692863309	 1.0041912207	-0.390636
H	 1.0397709929	 1.8994460502	-0.0673452766	 0.116247
H	-0.3361188056	 1.7415398745	-1.1724043945	 0.1204
H	-0.6176261652	 2.043445928	 0.549144612	 0.133602
H	 0.6160142222	-0.5272969916	-0.6131486366	 0.107003
H	 0.3952461541	-0.1966634434	 1.1046731704	 0.119221
H	-1.1363244799	-1.7652262592	-1.7220842422	 0.107602
H	-4.9344613695	-1.9179940121	-0.0827760192	 0.123966
H	-3.9129562591	 0.3242747349	 2.4829139023	 0.299672
