19
gdb 66174	3.51037	0.78513	0.73049	3.1833	72.7	-0.2503	-0.0208	0.2296	1559.8697	0.156415	-460.144757	-460.135125	-460.134181	-460.180519	34.076	
O	-0.1391585886	 1.4397139335	 0.2489891561	-0.47244
C	 0.0337858963	 0.0587125122	 0.0499607182	 0.335139
C	-1.355750898	-0.5678067736	-0.003517518	-0.229223
C	-2.2332325296	 0.0078645957	-1.1279722558	-0.28253
C	-3.6549901879	-0.4939318458	-1.0436905193	 0.157691
O	-4.2529665552	-1.0376178936	-1.935801119	-0.237676
C	 1.0044658379	-0.4053391068	-1.0706979071	-0.128228
O	 1.6862044183	-1.2830474685	-0.1552277813	-0.26756
C	 1.0239367333	-0.6921976188	 0.9793748209	-0.131474
H	 0.7250258953	 1.8645580565	 0.2447504114	 0.284657
H	-1.2449782353	-1.6509458819	-0.1241108832	 0.123893
H	-1.8408851956	-0.3978809225	 0.9661311714	 0.112135
H	-2.255188782	 1.0999264351	-1.0188780078	 0.14228
H	-1.8386683364	-0.2312492478	-2.1197618716	 0.119087
H	-4.1402908554	-0.3200192085	-0.0534131511	 0.070513
H	 0.5853104242	-0.94274079	-1.9282815439	 0.113443
H	 1.6568890277	 0.4020072879	-1.4376784589	 0.090052
H	 1.6838604092	-0.0142145106	 1.5413567237	 0.090487
H	 0.6135547815	-1.4441645424	 1.6627715952	 0.109754
