18
gdb 128270	6.36407	0.87027	0.77705	2.7693	76.83	-0.1855	0.0541	0.2396	1478.8657	0.149433	-431.469542	-431.460011	-431.459067	-431.504038	33.643	
C	 0.0070748558	 1.338197004	 0.2128179025	-0.341018
N	-0.0265458886	-0.055510151	-0.1890844872	-0.38419
C	-1.1723472496	-0.7925317015	-0.035689643	 0.470529
N	-1.2277592127	-2.1140064735	-0.0105768936	-0.431394
C	-2.5735559857	-2.349830537	 0.1019228291	 0.436778
N	-3.0541440295	-3.6323199917	 0.2092485571	-0.372905
C	-4.469911981	-3.8726089784	 0.0009952267	-0.314619
N	-3.3513571981	-1.27967034	 0.1432991413	-0.327245
N	-2.4083371418	-0.2654129721	 0.076793335	-0.276852
H	 1.0185254766	 1.7225354761	 0.0697547693	 0.139919
H	-0.6565082546	 1.9342715564	-0.4247366391	 0.131579
H	-0.2845401383	 1.4997518715	 1.2615245693	 0.125787
H	 0.7981847424	-0.5984334184	 0.0164754206	 0.257928
H	-2.4242588234	-4.3128115818	-0.186955051	 0.243277
H	-4.6796582885	-4.9307908103	 0.1747209001	 0.114827
H	-5.0460476217	-3.2818873346	 0.7176485007	 0.147424
H	-4.8158495997	-3.5997916047	-1.007240538	 0.113048
H	-2.7100730715	 0.6906277569	 0.0299315201	 0.267127
