23
gdb 59368	2.82864	1.17223	1.06324	1.448	87.29	-0.2424	0.016	0.2584	1291.1211	0.205859	-388.311037	-388.3014	-388.300456	-388.345212	37.133	
C	 0.2455647344	 1.3888090071	 0.1921480613	-0.404895
C	-0.0453611825	-0.1142000887	 0.1912640748	 0.12858
O	 0.4110250608	-0.7245794984	 1.3948795843	-0.433257
C	-1.5329604332	-0.4475988534	-0.0840648502	-0.037926
C	-1.8045907778	-1.9773646712	-0.2019165127	-0.252118
C	-2.6239619899	-2.3998851346	 1.0556404052	-0.004439
C	-1.8545267415	-3.3188481898	 2.019323491	-0.40157
C	-2.9944974124	-1.0719407466	 1.6742364741	-0.069004
C	-2.4367888623	-0.0308259286	 1.0570209012	-0.109931
H	 1.3079970765	 1.5623711064	 0.3827330851	 0.123042
H	-0.0137362319	 1.8436080737	-0.7700036978	 0.110682
H	-0.3236764462	 1.9044865032	 0.9736448991	 0.109486
H	 0.5517049234	-0.5846949557	-0.5997514423	 0.084865
H	-0.2046648099	-0.4665282437	 2.0921963486	 0.275988
H	-1.8068924896	 0.0703316374	-1.0126001375	 0.070823
H	-2.3750959154	-2.1845030905	-1.1113000786	 0.094853
H	-0.869947958	-2.5401470713	-0.2710552569	 0.107317
H	-3.5378513088	-2.9279993638	 0.7512807589	 0.074444
H	-0.8907733458	-2.8723422177	 2.2810554178	 0.132063
H	-2.4199612585	-3.4950918556	 2.9410574772	 0.104618
H	-1.660965148	-4.291762983	 1.5552976395	 0.111553
H	-3.6547659853	-1.0048477259	 2.534028391	 0.090744
H	-2.5836543579	 1.0067064506	 1.3390082168	 0.094082
