14
gdb 17234	5.07681	1.78469	1.58244	2.5122	62.59	-0.2442	-0.0284	0.2158	793.3759	0.106748	-382.477115	-382.470769	-382.469825	-382.50773	24.024	
O	-0.3254614683	 0.5817884256	-0.8242965264	-0.278898
C	 0.1504514929	 1.0542847688	 0.1860487114	 0.022313
C	 1.3180797998	 1.9341954249	 0.1986540598	 0.203297
C	 1.9026718532	 2.8701281533	 1.2548657871	-0.311359
C	 2.8389504367	 3.3531999191	 0.1167869972	 0.063688
O	 3.689035172	 2.190899422	-0.1327401435	-0.283469
C	 2.5585241426	 1.5948514534	-0.730507944	 0.088751
C	 1.8044401846	 2.8351100112	-0.9514862968	-0.173418
H	-0.2773992506	 0.8222048787	 1.1873357303	 0.073255
H	 1.187228714	 3.644718132	 1.5426970303	 0.116079
H	 2.3962550132	 2.4504647644	 2.1360717686	 0.11398
H	 3.3792165381	 4.295967864	 0.1375741507	 0.102107
H	 2.6354237208	 0.6587739205	-1.2654898988	 0.138967
H	 1.255932211	 3.255575792	-1.7819344257	 0.124707
