17
gdb 54083	2.51268	1.16704	0.84803	5.2763	73.94	-0.2473	-0.031	0.2162	1329.0545	0.133766	-455.185248	-455.175643	-455.174698	-455.220563	33.439	
C	 0.0934220666	 1.5452700014	 0.0778428332	-0.510471
C	 0.0462569371	 0.0276064008	 0.0864574642	 0.426192
O	 0.0679885292	-0.5998878208	 1.123085408	-0.337094
N	-0.02377646	-0.633042112	-1.1473060724	-0.111039
C	-0.0627889478	-2.0930953562	-1.1618703926	-0.263358
C	-1.3905987049	-2.6385253049	-1.6722206182	 0.181967
O	-1.5418079728	-3.7782171048	-2.0157853286	-0.238993
C	-0.0455539747	 0.0124131205	-2.3758700806	 0.07834
N	-0.1394702429	-0.6571002733	-3.4528574991	-0.452815
H	 0.9784966569	 1.9205013041	-0.4447683728	 0.150922
H	-0.7907761912	 1.9785855044	-0.3989529568	 0.150019
H	 0.131784723	 1.8682999091	 1.1173167617	 0.159432
H	 0.7415572564	-2.4923817502	-1.7832648931	 0.156616
H	 0.0737669979	-2.4211601561	-0.128651905	 0.17519
H	-2.229089839	-1.9059548127	-1.656494393	 0.07971
H	 0.0239567495	 1.0981452912	-2.3108101699	 0.118663
H	-0.1430856834	-0.0418155004	-4.2631282249	 0.236719
