18
gdb 50230	2.95231	1.55204	1.34522	2.4532	74.63	-0.2299	-0.0269	0.203	998.0003	0.148178	-401.877795	-401.870397	-401.869453	-401.909792	28.991	
O	-0.7369096942	 0.8174082779	-0.9070529529	-0.252748
C	 0.143123845	 0.8973776508	-0.0852427326	 0.152658
C	 1.2009791853	 1.9634914355	-0.0529293921	-0.095154
C	 1.1502836214	 3.1736565591	-1.03208435	-0.286975
C	 1.3285173331	 4.1411891263	 0.1780174437	-0.030343
C	 0.0697236907	 4.6688265854	 0.887198253	-0.026113
C	-1.0457147914	 3.7117539854	 0.8882181245	-0.265718
N	 0.0447844307	 3.48878399	 1.8662438633	-0.156373
C	 1.2792596305	 2.9562931556	 1.1651916089	-0.003445
H	 0.230794866	 0.1454671341	 0.7323101502	 0.083656
H	 2.1629351398	 1.4360447352	-0.1039706233	 0.104451
H	 1.9767101009	 3.1963678552	-1.7448474522	 0.108693
H	 0.2142555491	 3.267486727	-1.5857899153	 0.127678
H	 2.1734550037	 4.8270485383	 0.153138008	 0.079776
H	-0.0423677039	 5.687864997	 1.2448975828	 0.097367
H	-1.9576730063	 4.0254118786	 1.3882865666	 0.125123
H	-1.2122533464	 3.0279844118	 0.0651644368	 0.149754
H	 2.0535634062	 2.7600717767	 1.9062008306	 0.087714
