16
gdb 124907	3.62819	1.3216	1.20815	5.3369	71.19	-0.2548	0.0061	0.2609	1051.8646	0.124752	-434.0244	-434.01658	-434.015635	-434.056694	29.382	
C	-0.2005830506	 1.5664761627	 0.0552253662	-0.450858
C	-0.0574472835	 0.0518348247	 0.0143759985	 0.203843
O	-1.2903109103	-0.6066987528	 0.1742856915	-0.441053
C	 0.6832547884	-0.543892116	-1.2513869673	-0.194986
N	 1.7102959325	-1.0006427344	-0.2936248402	 0.08612
N	 2.8911400475	-1.5953855963	-0.0834638319	-0.178028
N	 3.0664234827	-1.5141144083	 1.2184471105	-0.179263
C	 2.0196114147	-0.8667507644	 1.8210152184	-0.23048
C	 1.1320203495	-0.5317275071	 0.8201144076	 0.282553
H	 0.7546964176	 2.062213251	-0.1371749547	 0.137674
H	-0.9319241276	 1.8940568269	-0.6894634321	 0.135442
H	-0.5480268166	 1.8871232844	 1.0439316458	 0.12407
H	-1.6903643476	-0.3094980916	 0.9989874706	 0.288148
H	 0.1403626217	-1.3577046387	-1.7329060362	 0.153237
H	 1.0524717393	 0.178241573	-1.9817413194	 0.141314
H	 2.0016446524	-0.7120939333	 2.8863949927	 0.122267
