21
gdb 111213	2.95123	1.0424	0.89386	1.6937	79.74	-0.2371	0.0751	0.3122	1412.2521	0.180895	-424.146283	-424.136978	-424.136034	-424.180874	34.309	
C	-0.1441903042	 1.5745005263	 0.1668804102	-0.378354
C	 0.1338890444	 0.0798358127	-0.032586347	-0.22116
C	 0.8386960669	-0.5477047952	 1.1579685098	 0.038398
C	 0.0102255358	-0.9387707979	 2.4164941242	-0.015449
O	-0.6013824551	-2.0530440814	 1.6605814471	-0.311563
C	 0.8386704768	-2.0958050573	 1.3121055109	-0.037641
C	 1.1315682616	-1.9554056845	 2.8204328683	 0.158009
O	 2.4044137907	-1.5395224948	 3.1966619024	-0.246013
C	 2.5134233494	-1.25088166	 4.5766286326	-0.240279
H	 0.7818513696	 2.1335115816	 0.3424137966	 0.112573
H	-0.6317155477	 2.0062428854	-0.7125187815	 0.11367
H	-0.8012467394	 1.7453843771	 1.0265993573	 0.114535
H	-0.8011197986	-0.4577756249	-0.2156177757	 0.115777
H	 0.760154281	-0.0569356764	-0.9238554426	 0.093562
H	 1.7989002406	-0.0748082812	 1.3812583779	 0.086771
H	-0.6544730438	-0.3363445229	 3.0371145316	 0.087419
H	 1.1651157557	-2.8683586231	 0.6147923514	 0.09154
H	 0.7556522767	-2.7887499769	 3.4268296513	 0.082807
H	 1.8758230602	-0.4041940845	 4.8697705191	 0.111174
H	 2.2392820123	-2.1206192879	 5.1920998932	 0.112524
H	 3.556533497	-0.992875644	 4.7714595429	 0.131701
