24
gdb 101839	2.94299	0.76924	0.66943	2.4734	87.27	-0.2437	0.0775	0.3212	1798.4492	0.215771	-405.520156	-405.509331	-405.508387	-405.557293	38.878	
C	 0.1533462559	 1.4181821306	-0.2982043363	-0.385755
C	 0.1690429903	-0.0912866659	-0.0490854943	-0.172782
C	 0.7178208871	-0.475868998	 1.3263330644	 0.162543
C	 0.6246421002	-1.9830351603	 1.5808457254	-0.405949
O	 2.0655040642	-0.0152069504	 1.373602874	-0.258563
C	 2.6287733264	 0.0941065986	 2.6634596264	-0.08541
C	 3.9374323472	 0.828887371	 2.5554962577	 0.020886
C	 5.038225659	 0.5019703808	 3.495403904	-0.247976
N	 5.1401644769	 0.1346276035	 2.0743578022	-0.30504
H	 1.159801255	 1.8322520921	-0.2021794601	 0.133366
H	-0.2194456606	 1.6484414423	-1.3007925011	 0.109018
H	-0.4930607351	 1.9316198903	 0.4229843315	 0.106663
H	-0.843867457	-0.5012600423	-0.1411874434	 0.091712
H	 0.7813066766	-0.5903592885	-0.810615863	 0.104151
H	 0.1368416823	 0.0550748532	 2.1018626242	 0.059057
H	 1.0053119579	-2.2533052607	 2.5701091865	 0.113534
H	-0.4167262871	-2.3158307479	 1.5261747012	 0.115387
H	 1.2025401175	-2.5306636529	 0.8292750366	 0.122324
H	 1.9435459528	 0.6397684965	 3.3352425939	 0.089523
H	 2.8028153501	-0.8982295323	 3.113568912	 0.076941
H	 3.8487510479	 1.8478454725	 2.1850692915	 0.097127
H	 5.7245206585	 1.2786577219	 3.8199494392	 0.119972
H	 4.865790414	-0.2813731681	 4.2300869031	 0.108353
H	 4.9366617098	-0.8550375962	 1.9525991145	 0.230917
