22
gdb 113899	2.84296	0.91775	0.7987	3.448	83.81	-0.2215	-0.0133	0.2082	1559.0595	0.191057	-404.341563	-404.330929	-404.329985	-404.379111	37.631	
C	-0.3942847829	 1.8733074128	-0.7477498171	-0.372598
C	-0.0779773488	 0.553533186	-0.0478610669	-0.12125
N	-1.2752434666	-0.2755453382	 0.0218240732	-0.062149
C	-1.5206112055	-1.2453400314	-1.0364543863	-0.276566
C	-1.1850898434	-1.692795914	 0.3487824751	 0.035999
C	 0.1179694658	-2.4143832949	 0.6231455829	-0.344611
C	 0.6424187228	-2.2303793691	 2.0462473939	 0.384561
C	 1.8073707286	-3.1192902071	 2.4464465709	-0.47327
O	 0.1617855694	-1.4230407809	 2.807277428	-0.284901
H	 0.4882590659	 2.5201911958	-0.7711969162	 0.107992
H	-0.7159977816	 1.7013106224	-1.7803661879	 0.114478
H	-1.1998290888	 2.3979680269	-0.2268873871	 0.128564
H	 0.7583402038	 0.0589651446	-0.5732113188	 0.069336
H	 0.2487449509	 0.7372605601	 0.9812069198	 0.122195
H	-2.5378396731	-1.304265848	-1.415813752	 0.112454
H	-0.7482349634	-1.3806032716	-1.7954612369	 0.097698
H	-1.9975698602	-2.0253280938	 0.9927274809	 0.095828
H	-0.0079824885	-3.4897868698	 0.435299196	 0.120225
H	 0.9124816152	-2.1005039407	-0.0651376982	 0.125456
H	 1.4853971478	-4.1669187665	 2.4732804201	 0.141172
H	 2.6171442793	-3.0562469395	 1.7111853453	 0.135154
H	 2.1749425031	-2.8289404828	 3.4312100212	 0.144232
