15
gdb 127371	2.51078	1.87893	1.08193	2.9191	72.79	-0.2404	-0.0456	0.1948	1046.1304	0.113812	-450.107781	-450.099807	-450.098863	-450.14068	29.064	
C	-0.4240634098	 1.3779626632	 0.0129360612	-0.333499
N	-0.0352652462	-0.0278664134	 0.0020138678	-0.118974
C	 0.0293398556	-0.7449209445	-1.1600260213	 0.138199
N	 0.3525658843	-1.9752116247	-1.3155646712	-0.153949
O	 0.6839337337	-2.6748448717	-0.1273878312	-0.285839
C	 0.6609104574	-2.0837118587	 1.1009897529	 0.37187
N	 0.958471092	-2.7226026475	 2.1513793213	-0.514577
C	 0.273302031	-0.6399158296	 1.2094823607	 0.315483
N	 0.2170335632	 0.0145681958	 2.2966994311	-0.525565
H	 0.3782846599	 1.9857239838	 0.4381391595	 0.162166
H	-0.6297769515	 1.6957441073	-1.0098901745	 0.134429
H	-1.3133143778	 1.5164314153	 0.632622914	 0.162142
H	-0.2231082241	-0.2142341596	-2.0714840008	 0.153314
H	 1.2020233678	-3.690359752	 1.9372202782	 0.23987
H	 0.4780717445	-0.6099745538	 3.0612820024	 0.254931
