8
gdb 168	10.04746	9.93509	4.99548	5.498	35.27	-0.2551	0.0164	0.2715	266.6747	0.059116	-242.196351	-242.192733	-242.191789	-242.222534	12.36	
N	-0.0299544928	 1.3607382465	 0.0102308187	-0.244792
C	 1.2824196837	 1.7387270422	-0.0006093537	 0.041393
N	 2.0599683386	 0.6880935414	-0.0143307277	-0.204332
N	 1.242911389	-0.428155788	-0.0123399748	-0.204332
C	 0.0064162276	-0.0045215628	 0.002322676	 0.041394
H	-0.8419327908	 1.9550995245	 0.0215825599	 0.277962
H	 1.6045208591	 2.768172602	 0.0019438861	 0.146354
H	-0.8775034644	-0.6227210859	 0.0076822381	 0.146354
