19
gdb 72946	2.66802	1.72992	1.44638	2.3647	73.64	-0.2434	0.0555	0.2989	977.7277	0.159946	-422.964556	-422.957032	-422.956088	-422.996457	30.349	
O	-0.3824620441	 1.2863888034	-0.2479965053	-0.473866
C	 0.0118007336	-0.0231971095	 0.0148643555	 0.36098
C	-1.1769033056	-0.9690513498	 0.2359871641	-0.122773
O	-0.5803906834	-1.5154149741	 1.4394451183	-0.286636
C	 0.5331507886	-0.6018251401	 1.3733095601	 0.027148
C	 1.8027670468	-1.1553030338	 0.6553703648	-0.040465
C	 1.7063144014	-2.5896570618	 0.0637648463	-0.231678
C	 1.2921961212	-1.9943290368	-1.3198778627	-0.241054
C	 1.2917708545	-0.5683316404	-0.7050201826	-0.109821
H	 0.4032883531	 1.821282291	-0.4014773155	 0.281916
H	-2.095489348	-0.4139211638	 0.4598543788	 0.113204
H	-1.3859544725	-1.7377653297	-0.5149930882	 0.105577
H	 0.6692472787	-0.0357620496	 2.299305567	 0.07468
H	 2.7543769691	-0.8568816915	 1.0979772717	 0.063095
H	 2.6544501687	-3.1307833555	 0.0499218915	 0.097834
H	 0.9502839026	-3.2094544694	 0.5479284603	 0.123123
H	 2.0693080201	-2.1108416757	-2.0794171544	 0.101276
H	 0.3514440732	-2.3460777112	-1.7506763403	 0.102233
H	 1.8339192522	 0.2080723384	-1.2531736092	 0.055228
