19
gdb 81091	1.94518	1.585	1.17941	3.3689	77.3	-0.2415	-0.0288	0.2127	1141.8963	0.157794	-422.980176	-422.97125	-422.970306	-423.013853	33.463	
C	-0.1817326528	 1.5649117344	-0.0939842721	-0.445547
C	 0.0173685136	 0.0579184069	-0.0182424827	-0.01636
C	 1.2132524949	-0.656647025	-0.7397383071	-0.124784
C	 2.1500805382	-0.1329748459	 0.388882124	-0.274396
C	 0.8730022974	-0.6041524932	 1.1277323109	 0.206019
C	 0.6077637478	-0.5992283882	 2.588648159	 0.021425
O	 1.4135843953	-0.2739163603	 3.4274978769	-0.250902
C	 0.9572708463	-1.8835685825	 0.1836462533	 0.142912
O	-0.1133133633	-2.753497785	-0.0012038038	-0.441064
H	 0.736560672	 2.1346266012	 0.0621916054	 0.129726
H	-0.579904875	 1.8408198086	-1.0766441085	 0.12336
H	-0.9079521379	 1.89458044	 0.6565450168	 0.126009
H	-0.9569591165	-0.4214789733	-0.1726589566	 0.046955
H	 1.4194744821	-0.6722458942	-1.8113522899	 0.07804
H	 3.057848211	-0.7107475842	 0.5767930223	 0.106995
H	 2.3599172373	 0.9339464118	 0.4066088762	 0.111438
H	-0.4132784591	-0.9416435981	 2.8764765625	 0.070611
H	 1.8276280299	-2.5109001725	 0.3881260088	 0.098992
H	-0.8578008111	-2.2823646902	-0.3883608555	 0.290571
