22
gdb 87769	3.64854	1.05332	1.04439	1.614	87.96	-0.2159	0.0826	0.2985	1311.3077	0.193599	-367.161933	-367.152862	-367.151917	-367.19524	35.571	
C	-0.1423085869	 1.4835005708	-0.0202751676	-0.404703
C	-0.0131672302	-0.0220426595	 0.0420728688	-0.045157
C	 1.3268370148	-0.6908536227	-0.196538673	-0.375294
C	 0.7104952936	-0.6884104066	 1.1727737095	 0.421637
C	 1.3232604163	-0.071717673	 2.4561791441	-0.362067
C	 0.8815131755	-1.3446179281	 3.2092921252	 0.356309
C	 1.5877211275	-1.9894237436	 4.3604915383	-0.504057
N	-0.5955520646	-1.4034416551	 3.05599947	-0.374268
C	 0.2886582789	-1.9082203131	 1.9627754555	-0.21749
H	 0.7539783473	 1.974088678	 0.373650806	 0.112681
H	-0.2817083789	 1.8284384905	-1.0510747205	 0.112537
H	-0.9969390742	 1.8320719132	 0.5696977654	 0.122782
H	-0.878979613	-0.5628583797	-0.3338220475	 0.080569
H	 1.3523545189	-1.6237792254	-0.7518683808	 0.104932
H	 2.1891039755	-0.0513107907	-0.3650680778	 0.104388
H	 2.4107440423	 0.0319502419	 2.3988120121	 0.098061
H	 0.8806571876	 0.859280166	 2.8208815037	 0.102409
H	 1.4615741027	-1.4056750273	 5.2804809814	 0.126881
H	 1.1985858505	-2.9964730559	 4.5484712524	 0.114927
H	 2.6623717071	-2.0756292987	 4.1665907742	 0.123557
H	-0.9070804673	-2.2245792553	 3.5778042841	 0.217293
H	 0.2167501468	-2.9347730959	 1.6199970563	 0.084072
