17
gdb 15671	3.15771	1.98865	1.35672	2.1843	64.99	-0.2553	0.0215	0.2768	928.0273	0.142304	-401.01246	-401.004481	-401.003537	-401.045035	28.622	
C	-0.0437427093	 1.4490223652	 0.0870355876	-0.245088
O	 0.0963005457	 0.0415038152	-0.0241857042	-0.222597
C	 0.6432706305	-0.5646761184	 1.0919585319	 0.192181
O	-0.2816919952	-0.4947982646	 2.210736451	-0.234703
C	-0.767894095	-1.7575523017	 2.3489736222	 0.105573
N	-0.2618174167	-2.7025445061	 1.6784182778	-0.266712
C	 0.8181128909	-2.0926234613	 0.8733303545	-0.008067
C	 0.7759060003	-2.5533500974	-0.5802489837	-0.383284
H	 0.9243247645	 1.9272049428	 0.2970723972	 0.111056
H	-0.4187906755	 1.8070290975	-0.873510509	 0.133718
H	-0.7513009478	 1.7184258677	 0.8790792862	 0.132054
H	 1.5519768846	-0.0406333813	 1.4157154019	 0.078616
H	-1.5782507927	-1.8507053908	 3.0636989264	 0.138331
H	 1.7715410076	-2.4017284518	 1.3202142219	 0.093769
H	-0.1662243404	-2.2668669994	-1.0504222482	 0.13537
H	 1.5948552018	-2.1118880522	-1.1550442401	 0.114605
H	 0.8696120868	-3.6414302434	-0.6142673034	 0.125178
