21
gdb 68410	2.44748	1.87098	1.42269	1.6196	82.05	-0.2204	0.0843	0.3046	1016.7358	0.183012	-387.060481	-387.052621	-387.051677	-387.092182	32.662	
C	 0.0274104729	 1.5467795004	 0.0372590918	-0.510963
C	 0.0341355499	 0.0382505268	 0.0323089285	 0.210059
C	 0.8558067924	-0.8171742878	-0.9966952198	-0.271889
C	 0.5676090857	-1.9146952272	 0.0544837143	 0.099559
C	 0.7395704676	-0.8246812982	 1.1384061629	-0.271887
O	-0.8594415206	-2.0809680004	-0.0237882832	-0.322121
C	-1.2913460198	-0.7165611621	-0.0425008688	 0.485712
C	-2.5650693959	-0.3656893587	 0.6537223041	-0.356082
C	-2.4821007193	-0.3603336831	-0.8703966582	-0.356083
H	 1.0472199586	 1.9397331206	 0.0940236456	 0.118931
H	-0.4316579777	 1.9474941776	-0.8734654605	 0.121977
H	-0.5277293079	 1.9412508726	 0.8957154081	 0.121978
H	 0.4404345943	-0.9609556819	-1.9968522509	 0.100122
H	 1.9057096586	-0.520293101	-1.0425085923	 0.094048
H	 1.049340748	-2.890374306	 0.0772787289	 0.078418
H	 1.7781811201	-0.5285298934	 1.3000078315	 0.094048
H	 0.2181286072	-0.9753115096	 2.0865255444	 0.100122
H	-3.1079566272	-1.1800789571	 1.1204599728	 0.122028
H	-2.643175924	 0.5873146533	 1.1670885637	 0.109997
H	-2.5043898063	 0.5962711991	-1.3825219598	 0.109997
H	-2.9707986763	-1.1712309838	-1.3989994832	 0.122029
