19
gdb 18274	4.14334	1.50639	1.25227	1.6879	70.67	-0.2325	0.0786	0.3111	1001.1522	0.167726	-365.045329	-365.037727	-365.036782	-365.077231	29.26	
O	-0.064842253	 1.4150146682	-0.0516621232	-0.425339
C	 0.002654244	-0.0034001657	 0.0308004592	-0.091458
C	-1.4193150138	-0.5448682846	 0.0128719907	 0.043958
C	-2.1985301866	-0.2095254174	-1.2865435579	-0.214854
C	-3.2281684833	-1.3510108418	-1.4667348219	-0.216914
C	-2.5774483531	-2.544675939	-0.7918742651	-0.026909
N	-1.1599270581	-2.7316266537	-1.1789192005	-0.340017
C	-1.4978769188	-2.0615447305	 0.101138556	-0.062422
H	 0.8318761446	 1.7541111023	-0.1232084489	 0.284799
H	 0.5572780971	-0.4313446426	-0.8178149603	 0.100606
H	 0.5126000357	-0.3198165883	 0.9562694047	 0.074272
H	-1.9521591042	-0.1297985144	 0.8792800492	 0.075183
H	-2.662322774	 0.777270301	-1.2440872839	 0.103427
H	-1.5024118073	-0.2065748112	-2.1288622357	 0.115087
H	-4.1675308116	-1.1222240806	-0.9484037342	 0.095468
H	-3.4689435194	-1.5325179722	-2.5191516073	 0.099962
H	-3.1672269971	-3.4225848764	-0.5465439796	 0.079977
H	-0.8904632702	-3.6929557075	-0.9855826669	 0.227013
H	-1.2560547009	-2.5644424557	 1.0328457556	 0.078161
