19
gdb 72549	2.3702	1.98946	1.48857	3.6858	75.6	-0.2332	0.0316	0.2648	963.9827	0.162089	-419.225735	-419.218223	-419.217279	-419.257227	30.561	
C	 0.0030300112	 1.4978239776	 0.0719305518	-0.484416
C	 0.0051864474	-0.0087201789	-0.0194160963	 0.198416
C	 0.6379262108	-0.7199600944	-1.2442342169	-0.269718
C	 0.2676184664	-2.0970559357	-0.6828596896	 0.077517
C	 0.9139126521	-2.069094503	 0.7121344078	-0.177738
N	 0.6812225135	-0.6637941545	 1.1431825489	-0.323767
O	-1.1660678635	-1.963921542	-0.4733893557	-0.26632
C	-1.3708843126	-0.666213294	-0.0628564091	 0.464962
N	-2.4812677795	-0.1417586994	 0.212498432	-0.572822
H	 1.0267120543	 1.8881954497	 0.0869030574	 0.104423
H	-0.5212201583	 1.9347636867	-0.7811357263	 0.132251
H	-0.5108869375	 1.8157916936	 0.9818836537	 0.151301
H	 0.1442750232	-0.5067264202	-2.1956081152	 0.115439
H	 1.7143737121	-0.5488892303	-1.3290415592	 0.098529
H	 0.4432113755	-2.9855986483	-1.2859925792	 0.090696
H	 0.4161075127	-2.777150444	 1.3819523948	 0.119923
H	 1.9783241043	-2.3254564928	 0.6668611613	 0.100551
H	 1.5664661088	-0.1933834699	 1.3007770327	 0.21897
H	-3.2397760008	-0.8184529	 0.107503787	 0.221801
