19
gdb 69687	3.1321	1.21224	1.15359	3.116	80.35	-0.2162	-0.0244	0.1917	1161.2101	0.157607	-385.82206	-385.813674	-385.81273	-385.855462	32.261	
C	 0.2320431057	 1.444442572	 0.4727383857	-0.494411
C	 0.1312935177	-0.0428118895	 0.2993519871	 0.367246
C	-0.7865159174	-0.9245486219	 1.0912566507	-0.3656
C	 0.7017026436	-1.1775637459	 1.1436983417	-0.109024
C	 1.3063990769	-1.8391894436	-0.126468821	-0.097731
C	 0.3273835456	-2.1905221585	-1.2069177872	-0.112428
C	-0.993318437	-2.9058537063	-1.0949917876	 0.103857
O	-1.8404580433	-2.8713108336	-1.9519727386	-0.256808
C	 0.6925447354	-0.7332379658	-0.9764114838	-0.132888
H	 1.2328105309	 1.8112496028	 0.2160199505	 0.118863
H	-0.4872020911	 1.9683733255	-0.1690533704	 0.125399
H	 0.0257190948	 1.7324415542	 1.5083697599	 0.119261
H	-1.1727532252	-0.4581231217	 1.9943036458	 0.114565
H	-1.502100007	-1.5984210449	 0.6338071889	 0.123572
H	 1.2531051881	-1.111186434	 2.0730563521	 0.091766
H	 2.3287179046	-2.1957904132	-0.1436517643	 0.093427
H	 0.8302732825	-2.5341615622	-2.1121729665	 0.123596
H	-1.1169346301	-3.5421577012	-0.1905992854	 0.091169
H	 1.1592714252	-0.1617504021	-1.7693405376	 0.096167
