17
gdb 29446	3.09707	1.65446	1.09292	3.4279	81.13	-0.1892	0.0096	0.1987	1076.6522	0.1387	-380.920427	-380.912995	-380.912051	-380.952116	28.973	
C	-0.0188041035	 1.5101397108	 0.0562252941	-0.499927
C	-0.0066495895	 0.0164694701	 0.0218125282	 0.224221
C	-0.0259765901	-0.7938484151	-1.0595305981	-0.194154
C	-0.0034685363	-2.2756882241	-0.6779676553	-0.418158
C	 0.0318747434	-2.1585159991	 0.8103216455	 0.290376
C	 0.0300294553	-0.8485739202	 1.2078145837	 0.230453
N	 0.0623793864	-0.729544578	 2.5748109471	-0.35267
C	 0.0838800422	-1.9773201986	 2.9988071782	-0.020595
N	 0.0665469651	-2.8921312988	 1.9654535552	-0.378402
H	 0.8700268875	 1.8963250031	 0.5686142081	 0.135242
H	-0.0503592615	 1.9346687906	-0.9505741784	 0.117674
H	-0.8844533866	 1.8809037598	 0.6173097172	 0.135274
H	-0.0542415951	-0.4694753513	-2.0919200929	 0.088553
H	-0.8889006363	-2.8030133015	-1.0574737866	 0.126788
H	 0.8716380365	-2.7873165058	-1.100487409	 0.126797
H	 0.1119612995	-2.2947373109	 4.0306447118	 0.124485
H	 0.0776722331	-3.893101841	 2.0655929411	 0.264044
