16
gdb 61722	7.1341	0.61965	0.57265	2.6106	72.54	-0.2409	-0.0244	0.2165	1795.7326	0.122355	-471.248754	-471.239032	-471.238088	-471.285208	33.161	
N	-0.3588055133	 0.1471472157	 0.7857827638	-0.569396
C	-0.5752239733	-0.7509173793	-0.2124513968	 0.497542
N	 0.5686444564	-1.4571450934	-0.6455072239	-0.351261
C	 1.8250950832	-1.4589029666	-0.1163635828	 0.177226
O	 2.2021730215	-0.8113768497	 0.8419041836	-0.327777
N	-1.6587146524	-1.0193974224	-0.8356799324	-0.358954
C	-2.8549270186	-0.3105752482	-0.4552631677	-0.247006
C	-4.0211297521	-0.7310762411	-1.3412434144	 0.154681
O	-5.1544125502	-0.3642683456	-1.1783676752	-0.24709
H	 0.5407282389	 0.1253590013	 1.2507065	 0.288865
H	-1.1557355945	 0.5251017713	 1.2664439261	 0.265813
H	 0.3712483117	-2.0613210855	-1.4301469487	 0.270837
H	 2.4959361657	-2.1378417546	-0.6719693369	 0.106254
H	-3.161884555	-0.4933214101	 0.5896639127	 0.122697
H	-2.7558933693	 0.7854799146	-0.553068205	 0.128914
H	-3.7249848086	-1.4147916364	-2.1673704124	 0.088654
