15
gdb 13862	4.13691	1.64009	1.30262	2.7161	56.61	-0.2434	0.0257	0.269	906.7968	0.119918	-436.965428	-436.957811	-436.956867	-436.998503	26.98	
N	 0.5467974821	 0.0217713877	 0.7572375834	-0.517035
C	-0.173460537	 0.3963816065	-0.3275871112	 0.355925
O	 0.1584862037	 1.2519248163	-1.1263789695	-0.369059
C	-1.4933711875	-0.3582142237	-0.5077539766	 0.004098
C	-1.5792535135	-1.047584974	-1.8964232942	-0.118903
O	-2.1069375768	-2.332851484	-1.5956355358	-0.228014
C	-1.6187859532	-2.631388932	-0.3212816068	 0.017149
O	-1.6788612617	-1.4243874373	 0.4263534456	-0.270397
H	 1.404092774	 0.504295072	 0.9686458428	 0.264123
H	 0.1689740043	-0.660586507	 1.3925453589	 0.271719
H	-2.3048364232	 0.3634282077	-0.3674396445	 0.122697
H	-2.2582528381	-0.5473535956	-2.5869930318	 0.134214
H	-0.5861084254	-1.1181444895	-2.3592263603	 0.120074
H	-2.2616029806	-3.3790715647	 0.1502214414	 0.126791
H	-0.5749820571	-2.9927301423	-0.3686122714	 0.086617
