15
gdb 131451	3.33913	1.36535	1.04169	0.9963	67.74	-0.2356	-0.01	0.2256	1093.3046	0.114311	-453.907897	-453.900485	-453.899541	-453.940191	27.97	
O	-1.0949921152	 0.853564698	 0.3998016112	-0.425146
C	-0.3665309374	-0.2563856561	 0.1759242123	 0.368906
N	 0.020910148	-0.6010740409	-1.0246410598	-0.243053
O	 0.7260446677	-1.7912439502	-0.8453405712	-0.175556
C	 0.7197624608	-2.1008507498	 0.4611987901	-0.00193
C	 0.0491606057	-1.1722322573	 1.1939655019	 0.103996
C	-0.1965397783	-1.135706762	 2.6471189209	-0.118021
C	-0.2465881699	 0.1514551056	 3.3976125675	-0.247529
N	-1.4734335545	-0.6304894362	 3.1953085033	-0.325568
H	-1.2538553739	 1.2824634277	-0.4521316733	 0.317119
H	 1.2332256062	-3.0111399933	 0.7311185595	 0.156935
H	 0.1747275732	-2.0111338842	 3.1740856335	 0.094204
H	 0.117130557	 0.1831836947	 4.4208711462	 0.122183
H	-0.118495696	 1.0699789884	 2.8333069923	 0.128585
H	-2.0175118332	-0.2072028545	 2.4467633554	 0.244876
