19
gdb 14153	4.08125	1.56352	1.37211	1.9889	71.55	-0.2296	0.085	0.3146	970.3036	0.166269	-365.032146	-365.024422	-365.023478	-365.064395	29.243	
C	-0.1592138537	 1.428001958	-0.1375281056	-0.315471
N	 0.0614536729	 0.0019825344	 0.0345975394	-0.1169
C	 1.4267867122	-0.4896122688	-0.1313020482	-0.30398
C	 0.7782900367	-0.4901690296	 1.208466868	 0.322997
C	 1.2701449734	 0.378412286	 2.373714985	-0.31467
C	 0.649972042	-0.3330525074	 3.5867344265	-0.077838
O	 0.6053891604	-1.7064241992	 3.2282898337	-0.245176
C	 0.2052664851	-1.7536886878	 1.8676297402	-0.135142
H	 0.6960668714	 2.0589746137	 0.1557075891	 0.100285
H	-0.3741160226	 1.6248525114	-1.1926721593	 0.125541
H	-1.0313412054	 1.73896422	 0.4474364814	 0.121673
H	 1.5399657589	-1.4126009903	-0.6964810034	 0.111986
H	 2.2138301777	 0.246116909	-0.3027509139	 0.102748
H	 2.3620214989	 0.354873951	 2.4376763957	 0.113963
H	 0.9605943766	 1.4233671775	 2.2955442535	 0.106239
H	 1.2376233956	-0.2420489176	 4.5033636521	 0.10888
H	-0.3649631718	 0.0511370292	 3.7843225924	 0.088681
H	-0.8918441215	-1.7427598364	 1.7709614071	 0.097692
H	 0.5835644231	-2.6842925231	 1.4355236265	 0.108494
