20
gdb 63021	2.18067	1.81203	1.43382	1.6985	77.96	-0.2249	-0.0223	0.2026	1028.8144	0.170128	-403.159613	-403.150934	-403.14999	-403.192405	33.838	
C	 0.0687240478	 1.5934277977	-0.0012913649	-0.415416
C	 0.0400790618	 0.0663249248	-0.0060378492	 0.166433
C	-1.4114120561	-0.4508133816	 0.0096480304	-0.411612
N	 0.7060317096	-0.5170274113	-1.1903127364	-0.114441
C	 2.1628063162	-0.3408871597	-1.2354354113	-0.258718
C	 1.5976641814	-1.6182219696	-0.7334983529	-0.023078
C	 1.5299119757	-1.7732334317	 0.7700881668	-0.346402
C	 0.7564769729	-0.5289534737	 1.2280215861	 0.36724
O	 0.7011130525	-0.0966563599	 2.3493361887	-0.32266
H	 1.0885664788	 1.979318964	-0.0835449653	 0.116514
H	-0.5155992032	 1.9881775901	-0.8371272861	 0.121852
H	-0.3536764209	 1.9628684601	 0.9365430243	 0.137672
H	-1.9303505386	-0.1006379548	-0.8867573607	 0.129396
H	-1.4428290095	-1.544801651	 0.0086035152	 0.115921
H	-1.9382994589	-0.0888096051	 0.8967801672	 0.129732
H	 2.5814680149	-0.2791450853	-2.2354528947	 0.121907
H	 2.6403824755	 0.3175442421	-0.5104475448	 0.116448
H	 1.612725407	-2.5059895673	-1.3580586818	 0.096114
H	 0.9641963912	-2.6653372596	 1.06542007	 0.136068
H	 2.5007645319	-1.8256696385	 1.2694374196	 0.13703
