16
gdb 9079	4.91706	0.91484	0.79712	2.7718	68.34	-0.2588	-0.0307	0.2281	1367.4051	0.125562	-383.696987	-383.687548	-383.686603	-383.732371	32.045	
C	-0.1526291796	 1.4843695924	-0.0498833122	-0.398603
C	 0.0252719727	-0.0398921387	 0.0213495274	-0.034633
O	 0.675590155	-0.5601002954	-1.1375185215	-0.258393
C	-0.1316315675	-0.6409591105	-2.2853300995	-0.148393
C	 0.60434441	-1.4863076433	-3.313301542	 0.141806
O	 0.2348583248	-1.6202009301	-4.4488429625	-0.237099
C	 0.8198439743	-0.4275689171	 1.1859297684	 0.316035
C	 1.455931534	-0.7186076697	 2.1619152523	-0.431085
H	 0.8211391862	 1.9674525252	-0.1608339955	 0.14026
H	-0.7871365336	 1.762064475	-0.8960476926	 0.121663
H	-0.624298122	 1.8502953786	 0.8657942674	 0.134377
H	-0.969411834	-0.5099529672	 0.1071490139	 0.100004
H	-1.0991169847	-1.1283333496	-2.0704426365	 0.122009
H	-0.3547495412	 0.3399228285	-2.7311207988	 0.127482
H	 1.5156591313	-1.9802107995	-2.9115541068	 0.101923
H	 2.0209300442	-0.9867655085	 3.0204465086	 0.202648
