18
gdb 44945	2.58181	1.8157	1.60355	3.3418	71.9	-0.2515	0.0136	0.2651	927.268	0.151553	-439.108353	-439.10157	-439.100625	-439.139315	27.816	
N	-0.0511104232	 1.2807954646	-0.1336509171	-0.554219
C	-0.0163343225	 0.0241782329	-0.0411104645	 0.401854
O	 1.1207594324	-0.7444412457	-0.0258535097	-0.258574
C	 0.7300751849	-2.1426731901	 0.0882152314	 0.086171
C	-0.6420978245	-2.1688476266	-0.5975877956	-0.247441
C	-1.2165352346	-0.9138543588	 0.0696374026	 0.046725
O	-1.5382906337	-1.2058254142	 1.4279868436	-0.274783
C	-0.4022314462	-1.5076931282	 2.2357920737	-0.072359
C	 0.5662433842	-2.5036845345	 1.5696356507	-0.231288
H	 0.8956187666	 1.6641147966	-0.1884741298	 0.222429
H	 1.5076080913	-2.7284593039	-0.4037924775	 0.090948
H	-0.5441954429	-2.0404964907	-1.6797144636	 0.114944
H	-1.2285900813	-3.0628488296	-0.3816375227	 0.11447
H	-2.1115524235	-0.4908460783	-0.3824407998	 0.109037
H	 0.1383667035	-0.5809388595	 2.4739366783	 0.116375
H	-0.7991444811	-1.9090390004	 3.1712654965	 0.113964
H	 0.1842669432	-3.52829253	 1.6386505647	 0.109718
H	 1.5304689276	-2.4712870635	 2.0871879586	 0.112027
