17
gdb 111191	2.75445	1.25302	0.99992	4.6871	73.72	-0.2628	-0.004	0.2588	1189.1823	0.137157	-417.92271	-417.914743	-417.913799	-417.95567	30.043	
O	-0.0024973426	 1.4512593942	 0.5397173363	-0.413157
C	 0.1451444644	 0.1182028502	 0.0854003634	-0.121746
C	-1.2152304903	-0.550246858	 0.0120435827	 0.047879
C	-1.4775921491	-2.0784205581	 0.0311562843	-0.096341
C	-1.0849598286	-2.0208927491	 1.5212283728	-0.188446
N	-1.9508698654	-0.7499028723	 1.3738001629	-0.171189
C	-2.8844431411	-1.6889582141	 0.5690733009	-0.10372
C	-3.8690175648	-1.060164903	-0.3005933646	 0.289241
N	-4.6756980271	-0.602575389	-0.9905521762	-0.325084
H	-0.537081919	 1.4182583866	 1.3420892023	 0.298116
H	 0.5659144189	 0.1760635911	-0.9246684211	 0.120403
H	 0.8662394195	-0.4378480295	 0.7002420197	 0.09397
H	-1.8368829321	 0.027333894	-0.6776747705	 0.118046
H	-1.242786132	-2.8339402702	-0.7241841434	 0.090743
H	-1.52217366	-2.7618202951	 2.1950358452	 0.114848
H	-0.0488403958	-1.824304352	 1.7861106634	 0.120727
H	-3.3813568149	-2.4215778357	 1.2099356818	 0.12571
