21
gdb 39097	3.25398	1.65043	1.40129	1.5251	80.76	-0.2287	0.0788	0.3075	1003.5101	0.186423	-387.072641	-387.065735	-387.064791	-387.103646	29.421	
C	-0.108170853	 1.5784876314	 0.1320859536	-0.291001
C	 1.4317014078	 1.4037275574	 0.0096506183	-0.111601
C	 1.671764144	 0.5450453742	 1.2755415237	-0.084877
O	 0.558924683	-0.3937680124	 1.1985222465	-0.350741
C	-0.0339804791	 0.0251927239	-0.0267955078	 0.508709
C	-1.0901539451	-0.7826353355	-0.7274674887	-0.341332
C	-0.9882202686	-0.232519956	-2.1850594972	-0.203073
C	 0.4420644621	 0.4119651961	-2.3598893462	-0.278155
C	 1.1463768474	 0.2483282231	-1.0004627426	-0.001037
H	-0.5123843661	 1.9492741268	 1.0772519723	 0.094243
H	-0.5608460147	 2.1022510048	-0.7087648825	 0.103879
H	 2.1250226272	 2.2272963041	-0.1650503884	 0.066388
H	 2.6191477919	-0.0063823239	 1.2591087844	 0.09958
H	 1.608303953	 1.1227312594	 2.2045278477	 0.100015
H	-0.8191258348	-1.8436029943	-0.6826837698	 0.109122
H	-2.0955670193	-0.6760897352	-0.3107217469	 0.102158
H	-1.1656679191	-1.0235355343	-2.9181834292	 0.102129
H	-1.7614500061	 0.5228098687	-2.3534869653	 0.104454
H	 1.0084562878	-0.0979223878	-3.1428548017	 0.101672
H	 0.3559463979	 1.455629164	-2.6751363397	 0.103798
H	 1.8934590739	-0.5513795945	-1.0188426203	 0.065671
