19
gdb 81153	2.57931	1.61962	1.2277	0.9761	81.75	-0.2509	0.0381	0.289	1065.1649	0.160045	-385.848102	-385.84007	-385.839126	-385.880174	32.565	
O	 0.0655642517	 1.3925585053	 0.086400421	-0.449222
C	 0.0330497435	-0.0088234922	 0.0477860271	 0.128109
C	 0.1331984259	-0.6501658846	 1.4555050148	-0.060699
C	-1.3756793275	-0.3151179837	 1.6231577975	-0.27088
C	-1.4143665949	-0.6349867959	 0.0883921255	 0.253333
C	-1.0758127147	-2.1434257312	 0.0666497416	-0.281046
C	 0.0971047195	-2.1487111976	 1.1057641579	-0.231624
C	-2.4305152783	-0.1202731792	-0.7888062726	 0.050248
C	-3.23988927	 0.3624403755	-1.5387491302	-0.377202
H	-0.4562274325	 1.7167111111	-0.6576923719	 0.287461
H	 0.6989819651	-0.4071836388	-0.7323716641	 0.060367
H	 0.8810214046	-0.3073101125	 2.1693509288	 0.072106
H	-1.9777430438	-0.9493924632	 2.2791656932	 0.091469
H	-1.5533609942	 0.7391164822	 1.8236041045	 0.122482
H	-1.9275179937	-2.7534580138	 0.3766295579	 0.109191
H	-0.7658187873	-2.4753837578	-0.9277380467	 0.107146
H	 1.0371149052	-2.49933872	 0.6701822298	 0.101508
H	-0.1213189563	-2.768639579	 1.9789947539	 0.103406
H	-3.9716736722	 0.7677431454	-2.1928269979	 0.183847
