17
gdb 63120	2.25023	1.71227	1.22475	0.5606	76.85	-0.2264	0.0121	0.2385	1060.1447	0.132662	-421.74314	-421.734175	-421.733231	-421.776239	34.105	
C	 0.004928236	 1.5688798794	 0.0186375966	-0.459594
C	 0.0404685314	 0.0625169207	-0.0691303715	 0.306051
O	-1.1035833854	-0.5890701215	 0.4073375769	-0.459623
C	 0.627297802	-0.7277273193	-1.21498589	-0.226078
C	 1.9183115911	-0.0964611244	-1.7066260417	-0.115397
O	 2.4569667757	-0.0280423421	-0.3556636814	-0.322263
C	 1.3187339356	-0.735397878	 0.1563788286	 0.23336
C	 1.4744976491	-1.7079622146	 1.1767357885	 0.243544
C	 1.5844737811	-2.4988065279	 2.0779599114	-0.42465
H	 0.9628860825	 2.0083527182	-0.2652409658	 0.140681
H	-0.7828645306	 1.9713038108	-0.625739024	 0.126716
H	-0.2111465133	 1.874529801	 1.0482648058	 0.117588
H	-1.0308241243	-0.6606193825	 1.3669369947	 0.289799
H	 0.0593156457	-1.5122302768	-1.6950481808	 0.121273
H	 2.5243440889	-0.7688558961	-2.3232100303	 0.121313
H	 1.8587755061	 0.8896052891	-2.1798978147	 0.110637
H	 1.6951547583	-3.2141051957	 2.8550554875	 0.196643
