18
gdb 44942	2.64562	1.77402	1.59618	2.0015	71.25	-0.2643	0.0223	0.2866	928.2038	0.151902	-439.118739	-439.112007	-439.111063	-439.14967	27.639	
N	-0.05853716	 1.2846008371	-0.1299063086	-0.558359
C	-0.0350032368	 0.0269786215	-0.0546920252	 0.42367
O	 1.1089898242	-0.7427380879	-0.0248026467	-0.256113
C	 0.7256607488	-2.1311484948	 0.0637921031	 0.206547
C	-0.6374299733	-2.1591975167	-0.6338848782	-0.256257
C	-1.2275553617	-0.906967801	 0.035318114	-0.104935
C	-1.4965988673	-1.2624641117	 1.5178995896	-0.238458
C	-0.1911864552	-1.6968652402	 2.2071249816	-0.076975
O	 0.6274062942	-2.5497643921	 1.3960425145	-0.259666
H	 0.8913289168	 1.6606756243	-0.1654556901	 0.223805
H	 1.5201363256	-2.721714873	-0.3923944078	 0.101027
H	-0.5225018511	-2.035168291	-1.7143686393	 0.115352
H	-1.1839042174	-3.0803788327	-0.4264300871	 0.113574
H	-2.1053125989	-0.4797659071	-0.4471820214	 0.099719
H	-1.9113964056	-0.403770351	 2.0547415187	 0.122051
H	-2.2373987531	-2.0686955699	 1.5513207716	 0.108723
H	 0.3899931906	-0.8084227025	 2.4849631032	 0.121172
H	-0.39289413	-2.2629678012	 3.1192120981	 0.115122
