10
gdb 3874	7.72859	2.25869	1.74946	4.386	44.51	-0.2382	0.0135	0.2517	640.5731	0.068317	-392.642251	-392.636486	-392.635542	-392.671509	21.411	
N	-0.0386749154	 1.3084854124	 0.1538537083	-0.588495
C	-0.0474842625	-0.0409665386	 0.0362274728	 0.524046
N	-1.0892369516	-0.8274533922	-0.0392479397	-0.429107
C	-0.4792971285	-2.0546603637	-0.077842832	 0.450317
O	-1.1818433755	-3.1847624471	-0.1562540973	-0.401874
N	 0.8280489946	-2.0718949252	-0.036508442	-0.221764
O	 1.1251162208	-0.6725673963	 0.0417554217	-0.21211
H	 0.8204112169	 1.7803703099	-0.0782625694	 0.279957
H	-0.8907915169	 1.7778861063	-0.1051015728	 0.282254
H	-2.1132722618	-2.9338666255	-0.1672310195	 0.316777
