19
gdb 120204	3.84309	0.8974	0.82026	0.8393	73.09	-0.2396	0.0623	0.3018	1450.412	0.15747	-460.067656	-460.058659	-460.057714	-460.101982	32.919	
C	 0.1024217773	 1.3916830322	-0.0568882706	-0.221933
O	 0.158071068	-0.0136946267	-0.0585062914	-0.239479
C	 0.5244251458	-0.5481610697	 1.2000910372	-0.104744
C	 0.5442659212	-2.0539624414	 1.0703463782	 0.007498
C	 1.757793709	-2.718445723	 0.3671227776	-0.004278
O	 2.6107718187	-2.3809063156	 1.5287339526	-0.314115
C	 1.3450790491	-2.8832043937	 2.1120528928	-0.003832
C	 1.4347362324	-4.0560852252	 1.1106355194	 0.119865
O	 0.2611753524	-4.7732219547	 0.861134915	-0.425138
H	 1.0757996414	 1.840397694	 0.1980586914	 0.104062
H	-0.1805611173	 1.7106652547	-1.063255057	 0.124205
H	-0.6449385688	 1.7713440559	 0.6586199126	 0.101194
H	 1.5130453285	-0.1800401602	 1.5088785459	 0.105677
H	-0.2056230387	-0.2437792547	 1.970614948	 0.081037
H	-0.4298473602	-2.4613579268	 0.7952266902	 0.099214
H	 2.1680256884	-2.5398075727	-0.626757746	 0.095541
H	 1.2654012179	-2.9069933339	 3.1995165954	 0.094299
H	 2.3168453291	-4.6869545349	 1.2626172158	 0.087842
H	 0.429268816	-5.3917769138	 0.1435667629	 0.293086
