18
gdb 15225	2.28114	1.94228	1.33894	1.7529	73.98	-0.2481	0.0399	0.288	993.9873	0.152035	-347.755797	-347.746815	-347.745871	-347.78925	33.062	
C	-0.1154992549	 1.5588136014	 0.1639858524	-0.414256
C	-0.0119300117	 0.063186753	-0.0398231126	-0.03511
C	 0.5552814108	-0.5812564654	-1.2768063944	-0.050595
C	 1.1390198988	 0.2008070618	-2.4350347893	-0.08458
O	 2.2222602391	-0.4836238058	-3.0435985624	-0.424421
C	 1.3278418848	-0.6692815417	 0.0424633744	-0.218109
C	 2.5625131325	 0.0450006367	 0.1864952399	 0.327848
C	 3.6136404869	 0.6259298188	 0.2831111238	-0.480014
H	 0.7836560474	 2.0843569212	-0.1636635472	 0.135535
H	-0.9717532858	 1.9703258547	-0.3810427976	 0.120432
H	-0.2557663189	 1.7860634132	 1.2259027625	 0.123043
H	-0.8270466511	-0.4920731818	 0.4174274837	 0.094529
H	 0.0976386436	-1.5186339654	-1.5809422287	 0.097888
H	 0.3805578232	 0.3217755404	-3.2159958191	 0.109014
H	 1.4384782178	 1.2066383503	-2.1143466709	 0.096299
H	 2.9293133338	-0.5142421609	-2.3884651114	 0.287803
H	 1.3137739979	-1.635211851	 0.5386214707	 0.114406
H	 4.534366446	 1.1434977805	 0.3928039362	 0.200287
