20
gdb 58212	2.20501	1.0865	1.05496	3.8002	75.17	-0.2667	0.0298	0.2965	1318.8192	0.168149	-440.304211	-440.293494	-440.29255	-440.339883	38.679	
C	 0.0040297501	 1.5333329037	 0.4262257657	-0.411881
C	-0.0100158339	 0.0133586292	 0.3041688791	 0.089974
O	 0.4617391532	-0.6216781931	 1.4907085481	-0.425368
C	-1.4092552861	-0.5260356339	-0.0625894506	 0.103114
O	-1.9312144883	 0.0827277087	-1.228385538	-0.432069
C	-1.429034406	-2.0774676291	-0.165938103	-0.133607
C	-2.8641350003	-2.632943023	-0.2023303451	-0.406343
C	-0.688536605	-2.4736065424	-1.368245807	 0.256888
N	-0.1200892442	-2.7255826448	-2.3437642842	-0.336339
H	 1.0136836849	 1.8858424981	 0.6519553558	 0.127605
H	-0.3426568032	 2.0005050905	-0.4977076131	 0.138905
H	-0.6655154435	 1.8611687978	 1.2326360291	 0.107035
H	 0.6932450483	-0.2966736153	-0.480329159	 0.10709
H	 0.0472804531	-0.1843552675	 2.2428511724	 0.282372
H	-2.1035004675	-0.2517291598	 0.7428785977	 0.083698
H	-1.3874883767	-0.1920667638	-1.978501414	 0.297435
H	-0.8899257476	-2.4676640841	 0.703186527	 0.144049
H	-2.8660924625	-3.7160009452	-0.3447409648	 0.13503
H	-3.3678991135	-2.4078663815	 0.7420092253	 0.123884
H	-3.4279899312	-2.1695565244	-1.0150250114	 0.148529
