21
gdb 70445	2.60241	1.46993	1.2341	2.3917	82.72	-0.2091	0.0722	0.2813	1124.9799	0.183023	-383.191879	-383.18328	-383.182336	-383.225285	33.385	
C	 0.6000033481	 1.492314144	-0.3799976532	-0.511477
C	 0.3382314907	 0.02457595	-0.2194609772	 0.303562
N	-0.973267367	-0.4804796636	 0.2710132431	-0.36505
C	 0.2677799836	-0.8190892128	 1.0103751944	-0.101276
C	 0.8614734253	-2.038200082	 0.3039080653	-0.244868
C	 1.0437752437	-1.1470226248	-0.9706735666	 0.016146
N	 0.6402184	-1.7098753475	-2.2401118942	-0.092684
C	-0.7639052088	-1.6846873426	-2.6444516068	-0.22074
C	 0.2368248042	-0.8033077261	-3.3096844322	-0.230782
H	 1.668078607	 1.6860970403	-0.5273119506	 0.126095
H	 0.0651513784	 1.9119743431	-1.2402127317	 0.128235
H	 0.2795387949	 2.0474100604	 0.5097677032	 0.115349
H	-1.413557473	 0.2967333969	 0.7646774753	 0.221611
H	 0.3856971355	-0.5227890589	 2.0458173177	 0.090544
H	 1.8061444433	-2.39700701	 0.7162810864	 0.101521
H	 0.1660349073	-2.8725079653	 0.1896475014	 0.113109
H	 2.1010842538	-0.8739071297	-1.0691620387	 0.081091
H	-1.1071605102	-2.5840818457	-3.1497330515	 0.107417
H	-1.4804474153	-1.2244839453	-1.9738671715	 0.14544
H	 0.1818314644	 0.261369827	-3.0914005468	 0.106488
H	 0.616222974	-1.0416166674	-4.3000855756	 0.11027
