18
gdb 70459	2.79347	1.25125	1.01156	3.0739	75.42	-0.2495	0.0264	0.2758	1198.9591	0.146684	-401.925712	-401.917039	-401.916094	-401.959487	32.15	
C	 0.3020376178	 1.3391288624	-0.6262186729	-0.498124
C	 0.1357471464	-0.083086518	-0.1780189684	 0.256611
C	-1.0635075106	-0.6065899009	 0.5967213471	-0.352625
C	 0.3108713296	-0.7747944722	 1.1578415156	 0.065151
O	 0.9487420807	-1.920404867	 0.5726171911	-0.306945
C	 0.9319123205	-1.2731092298	-0.7225968475	 0.089896
C	 0.3507288173	-2.1825060529	-1.8118362073	-0.362868
C	 0.3585546051	-1.5250720682	-3.1153520009	 0.258149
N	 0.3725600717	-0.9751339152	-4.1316606441	-0.308225
H	 1.360360346	 1.6038077291	-0.7268033849	 0.125643
H	-0.1770967539	 1.5058841086	-1.597384844	 0.143465
H	-0.1503417493	 2.0318263122	 0.090073222	 0.123208
H	-1.6621350551	 0.1783989513	 1.0493125806	 0.12088
H	-1.6266404197	-1.4817623234	 0.283971769	 0.115094
H	 0.6637649189	-0.4395749479	 2.1258821409	 0.11125
H	 1.9498515877	-0.9713682963	-1.0011187593	 0.1013
H	 0.943565903	-3.102575778	-1.8654648583	 0.163514
H	-0.6731818862	-2.4724675638	-1.5578025588	 0.154627
