18
gdb 51577	3.72968	0.96304	0.85595	4.4034	74.89	-0.2334	0.035	0.2684	1354.732	0.147499	-439.068811	-439.060144	-439.0592	-439.103216	31.603	
O	-0.1455773737	 0.2259529538	-0.0555678456	-0.330825
C	 0.081029672	 1.4170274016	-0.1193993908	 0.151575
N	 1.3152470203	 1.9848291064	-0.1330872264	-0.287643
C	 2.5167177053	 1.2104172259	-0.0514792478	 0.054634
C	 3.7593209677	 1.6678886816	-0.7663240217	-0.340539
C	 3.7027964099	 1.7118956336	 0.7465386101	-0.071954
C	 3.6252585863	 3.0236632101	 1.4624431748	 0.058759
C	 4.466179841	 4.1759165886	 1.1070273865	-0.175389
O	 3.0862302965	 4.1309886133	 0.7253788601	-0.245732
H	-0.7173911412	 2.1826843915	-0.1787364206	 0.073264
H	 1.3993203422	 2.9896847428	-0.1605866967	 0.270767
H	 2.2861316061	 0.1533943888	-0.0213449848	 0.139088
H	 4.3909788714	 0.9286593096	-1.245652327	 0.122337
H	 3.6965886926	 2.6204894044	-1.2821286635	 0.12825
H	 4.2650576708	 0.9574631186	 1.2905415923	 0.100499
H	 3.2587531577	 2.9688735217	 2.4883748232	 0.105603
H	 4.709354397	 4.9249623912	 1.8580624939	 0.124233
H	 5.1760735082	 4.0787904865	 0.2880921239	 0.123073
