19
gdb 65610	3.19546	1.30104	1.18849	1.5541	81.17	-0.2414	0.0426	0.2841	1119.1976	0.158053	-385.822847	-385.814268	-385.813323	-385.855869	33.137	
C	 0.1628256204	 1.4552567043	 0.0316499428	-0.449539
C	 0.023089308	-0.0673621762	-0.0230844589	 0.10571
C	 1.0159076092	-0.8360615011	-0.9842231752	-0.290903
C	 1.5370318093	-1.6906847009	 0.2006737949	-0.063165
C	 2.7177105406	-1.0639170181	 0.9562556934	-0.086339
O	 1.8269270867	-0.2217793625	 1.7314204946	-0.289158
C	 0.6638109279	-0.8600358698	 1.1778554582	 0.086593
C	-1.3557847259	-0.479675012	-0.2306043235	 0.295662
C	-2.4931735881	-0.8416028771	-0.3831169384	-0.47153
H	 1.1849873138	 1.7244556066	 0.3069367999	 0.130111
H	-0.0768990036	 1.8956619176	-0.940814513	 0.120656
H	-0.5168350544	 1.8824787496	 0.7747773912	 0.126206
H	 0.5083344418	-1.40114616	-1.7661964858	 0.117588
H	 1.7711916768	-0.1932148276	-1.445466689	 0.102477
H	 1.4976523775	-2.7739560559	 0.1053763012	 0.083115
H	 3.2670436571	-1.7552699686	 1.6077587952	 0.104655
H	 3.4337582617	-0.4813056689	 0.3632640587	 0.102297
H	-0.0130570607	-1.2468126241	 1.9431069523	 0.081927
H	-3.4997630582	-1.1487811954	-0.5241452786	 0.193637
