21
gdb 104489	2.58775	1.3725	1.0814	3.1986	83.63	-0.2465	-0.0154	0.2311	1199.7717	0.182037	-387.078334	-387.069393	-387.068449	-387.111815	34.114	
C	-0.5045308453	 1.3570156419	 0.0983208675	-0.384096
C	 0.2145505755	 0.0171430455	-0.1087617972	-0.276182
C	 0.8061846217	-0.5436687369	 1.1723866489	 0.250529
C	 2.0180996462	 0.1637857643	 1.6704223989	 0.126551
O	 2.5562715761	 1.0935022035	 1.119364037	-0.283006
C	-0.0117217987	-1.1068473578	 2.3313834751	-0.098203
C	-1.2565252502	-1.8471707536	 1.8194122586	-0.246573
C	-0.3250850024	-2.8066507165	 1.0115959122	-0.247748
C	 0.8896483076	-2.0294843705	 1.5322323487	-0.109615
H	 0.1885355095	 2.113249608	 0.4741491418	 0.140896
H	-0.92379844	 1.7213063975	-0.8445967377	 0.110209
H	-1.3269490622	 1.2602763951	 0.8153802882	 0.111107
H	-0.4745967378	-0.7037872922	-0.5572895605	 0.096617
H	 1.0322053829	 0.1531812147	-0.8247896262	 0.114066
H	 2.4233830743	-0.2439836893	 2.6271042677	 0.066449
H	 0.1180404093	-0.7274944642	 3.3387347431	 0.093462
H	-1.7855212249	-2.3666449514	 2.6209253034	 0.1118
H	-1.9798527905	-1.2535515966	 1.2543184813	 0.109263
H	-0.3511356731	-3.8252167063	 1.4047298489	 0.111425
H	-0.4572231963	-2.8524158395	-0.072760542	 0.108424
H	 1.8376309783	-2.4733359257	 1.8145705323	 0.094627
