19
gdb 31772	2.94622	1.29045	0.97193	2.8719	78.74	-0.1899	0.0457	0.2356	1241.9068	0.159204	-419.249591	-419.23992	-419.238976	-419.284655	34.445	
C	 0.0671263046	 1.4888145838	 0.1566878404	-0.375656
C	-0.0456995976	-0.0301666406	-0.0683148356	-0.292544
C	 0.6621411889	-0.5175432415	-1.2915723456	 0.326692
N	 0.0835495042	-0.8150086566	-2.4307735948	-0.302845
C	 1.0919300908	-1.1850702998	-3.2990020704	-0.233213
C	 2.2939706025	-1.1060052094	-2.653122536	 0.321163
O	 3.5862299767	-1.3476983901	-2.993794912	-0.443129
N	 2.0345400358	-0.6840102516	-1.3708975282	-0.089722
C	 3.0389365447	-0.4631645922	-0.3494071377	-0.343556
H	 1.1061229343	 1.8017058184	 0.3041758217	 0.111721
H	-0.3259636411	 2.0324404951	-0.7070690846	 0.133669
H	-0.5006480183	 1.79286661	 1.0417469509	 0.11332
H	 0.3124888212	-0.5611357806	 0.8235810584	 0.099441
H	-1.0962658847	-0.3044280047	-0.1956035246	 0.132358
H	 0.8937474667	-1.4870746073	-4.3159585282	 0.094321
H	 3.5999166356	-1.7105022947	-3.8845849441	 0.310595
H	 3.4126353479	 0.5667237388	-0.3629253352	 0.140083
H	 2.6154083342	-0.6701750719	 0.6350741767	 0.141889
H	 3.8792037736	-1.1378377352	-0.5216261011	 0.155411
