16
gdb 42450	3.4263	0.95894	0.90905	2.1773	71.86	-0.2618	0.0225	0.2843	1333.4374	0.122349	-437.849518	-437.840448	-437.839504	-437.884873	31.76	
O	 0.2175733662	 0.3630874533	-0.7987574723	-0.385279
C	 0.01533929	 1.1443962843	 0.0964044856	 0.482418
O	 0.9580887095	 1.6010077596	 0.9597730806	-0.24626
C	 2.2934487814	 1.1219183228	 0.7187767456	-0.212841
C	 3.0335053988	 2.0027722128	-0.1760598444	 0.325824
C	 3.6550337102	 2.7292080786	-0.9029359854	-0.463645
N	-1.2238231518	 1.6513519875	 0.4549337196	-0.121504
C	-1.5281150395	 3.071926399	 0.4728798798	-0.222848
C	-2.1437244029	 2.1557909531	-0.5417289315	-0.216759
H	 2.7671104143	 1.0874054012	 1.7035419208	 0.144392
H	 2.2433258706	 0.1114712318	 0.3046421715	 0.165366
H	 4.2044821048	 3.3636522692	-1.553840955	 0.206912
H	-2.1082444449	 3.4166993872	 1.3236083884	 0.130898
H	-0.7538172239	 3.7545759101	 0.1344983216	 0.140203
H	-1.7831337068	 2.2117635536	-1.5649506383	 0.142453
H	-3.1753719861	 1.836188316	-0.4304367967	 0.13067
