21
gdb 82876	2.75522	1.71973	1.37144	1.6282	81.94	-0.2352	0.0925	0.3277	1040.7782	0.183371	-387.059765	-387.051911	-387.050966	-387.091508	32.095	
C	-0.0989432706	 1.6000796073	-0.080547279	-0.430984
C	 0.0430504337	 0.089579276	 0.0002462434	 0.027156
C	 1.2065995617	-0.6219303966	-0.7447024816	 0.019852
O	 2.3623162268	 0.0720996289	-0.2541356473	-0.268664
C	 2.2461623502	-0.3444418303	 1.1181477508	 0.071273
C	 2.4773281307	-1.8643732724	 1.0077191066	-0.292847
C	 1.1121797879	-1.825055021	 0.2978052112	 0.329669
C	 0.2798545749	-3.0409681397	-0.0154447465	-0.512554
C	 0.6831223049	-0.6079739075	 1.2132357596	-0.126
H	 0.8692200991	 2.0866610148	 0.0582180619	 0.131489
H	-0.4958958982	 1.9075452553	-1.0546759844	 0.11068
H	-0.7862407542	 1.9707742957	 0.6878350278	 0.109653
H	-0.9046483554	-0.4105305378	-0.227577482	 0.071625
H	 1.2538807209	-0.7496807265	-1.826242181	 0.068916
H	 2.8051777062	 0.3161299561	 1.7783636172	 0.076269
H	 3.3702564937	-2.1906004116	 0.4670743846	 0.096276
H	 2.3946075734	-2.3780810592	 1.9704211647	 0.094799
H	 0.1121185274	-3.6479017698	 0.8809286744	 0.118165
H	-0.7006155653	-2.773500013	-0.424229314	 0.118938
H	 0.7813759171	-3.6753026539	-0.7560987779	 0.121213
H	 0.221697305	-0.7123280248	 2.1947265213	 0.065079
