18
gdb 104831	2.07232	1.46479	1.19261	5.0419	67.87	-0.254	0.0004	0.2544	1133.4027	0.146932	-476.22176	-476.212466	-476.211522	-476.256134	33.366	
C	-1.5308042942	-0.8812538897	 0.1894061551	-0.335148
N	-0.3045225044	-0.0860734177	 0.2279894425	-0.3484
C	 0.634133008	-0.4007277108	 1.2859693808	 0.049841
C	 0.1194959634	 0.1718619811	 2.6196646172	-0.069958
O	-0.2270757589	 1.5238548747	 2.489414215	-0.414686
C	 1.2783666581	-1.8105383625	 1.4184470466	-0.125116
O	 2.6018214923	-1.2301484607	 1.1917007784	-0.243937
C	 2.0804700605	 0.0179549196	 0.9562215822	 0.434068
O	 2.6529222051	 0.990480349	 0.5881628725	-0.320069
H	-2.1286740224	-0.6947998332	 1.0860699195	 0.143096
H	-2.1250230571	-0.5695889585	-0.6730740762	 0.136629
H	-1.3603346511	-1.9671988656	 0.1146953346	 0.109801
H	 0.153849097	-0.0841969107	-0.6751200757	 0.241363
H	-0.7337914317	-0.4431772889	 2.9564402175	 0.087949
H	 0.8987727182	 0.0845270261	 3.3852043708	 0.116117
H	-0.5403330545	 1.6232691198	 1.5779800101	 0.290907
H	 1.2261426226	-2.2899613347	 2.3986275568	 0.125065
H	 1.0292977089	-2.5212057772	 0.6269033922	 0.122475
