19
gdb 103989	2.70684	1.333	1.20005	4.0613	71.3	-0.2415	0.0555	0.297	1122.4485	0.156641	-460.120064	-460.110796	-460.109852	-460.153562	35.222	
C	-0.1898987281	 1.5242089508	 0.0902262499	-0.522981
C	 0.1197257419	 0.0633139062	 0.0159142362	 0.39263
O	-0.7258540157	-0.836313618	 0.7419882865	-0.288563
C	 0.6853770605	-0.9071651495	 0.9768316875	-0.04471
C	 1.2549249257	-1.7969394004	-0.1294651332	-0.319197
C	 0.7082464754	-0.7335889302	-1.168585497	 0.37218
O	-0.246767766	-1.1549407578	-2.1053590871	-0.490997
C	 1.8348126706	 0.007854857	-1.8796714943	-0.150123
O	 2.3752787311	-0.9092508325	-2.8278459227	-0.434546
H	 0.6641507233	 2.1322860253	-0.2259919669	 0.120085
H	-1.038318161	 1.7694942022	-0.5578253751	 0.141416
H	-0.452577791	 1.7994311258	 1.1149210135	 0.135133
H	 1.0309452139	-0.7576354803	 1.9935425439	 0.099089
H	 2.3425966685	-1.8931057577	-0.142307256	 0.10587
H	 0.7853855329	-2.7796729914	-0.1950798687	 0.114474
H	 0.2551799577	-1.4985523492	-2.8562272062	 0.284869
H	 1.4196373598	 0.8922101437	-2.3842342805	 0.098093
H	 2.5985819558	 0.3426858514	-1.162398031	 0.091936
H	 2.9340267148	-0.4250489755	-3.4419667589	 0.295342
