20
gdb 20067	5.05457	1.24404	1.06989	1.7164	74.66	-0.2378	0.0861	0.3239	1136.9242	0.178662	-348.995879	-348.987919	-348.986975	-349.029377	29.282	
C	-0.1859921534	 1.4448847446	-0.0933229852	-0.273974
C	 1.2535790767	 1.0693481901	 0.155080516	-0.274077
C	 0.2029241461	-0.0073163122	 0.0298866973	 0.017311
C	-0.215073987	-0.8202336233	 1.2304587958	-0.000055
C	-1.5965104782	-1.4931427737	 1.1213761706	-0.243681
C	-1.4987289828	-2.6168997664	 2.160188184	-0.067351
O	-0.1125559836	-2.9475980114	 2.2810555092	-0.264034
C	 0.6714790492	-2.0437146105	 1.5117341709	-0.070835
H	-0.7403442674	 1.8918519417	 0.7256346849	 0.110066
H	-0.4587207482	 1.8253529624	-1.0713736805	 0.111538
H	 1.9663973003	 1.1926752541	-0.6525958563	 0.112021
H	 1.6635713574	 1.2647044994	 1.1406856567	 0.111332
H	 0.2153490156	-0.5729342875	-0.8997366294	 0.080264
H	-0.2071858699	-0.174157597	 2.118891518	 0.070055
H	-2.4276750783	-0.8095767839	 1.3104972569	 0.102959
H	-1.7260193727	-1.9072107985	 0.1144869348	 0.101778
H	-1.8746622648	-2.2898340338	 3.1404960006	 0.093208
H	-2.0596523695	-3.5134864711	 1.8702747362	 0.098564
H	 0.9818432533	-2.5154450358	 0.5643609129	 0.082137
H	 1.5773829874	-1.7989361373	 2.0763174866	 0.102774
