23
gdb 101620	3.35241	0.69724	0.66625	1.2363	88.46	-0.257	0.0564	0.3135	1785.1048	0.202305	-388.259749	-388.248285	-388.247341	-388.296777	41.464	
C	-0.0751492908	 1.5433510662	 0.1437988798	-0.395591
C	-0.0627163827	 0.0142949324	 0.0152679133	 0.027586
C	-1.4910789023	-0.5334166202	-0.0475017646	-0.084183
O	-2.1536726692	-0.1990405634	 1.1641499157	-0.424248
C	 0.7262453711	-0.4825022652	-1.2082634311	-0.187539
C	 2.2317200328	-0.1137927988	-1.2328487501	-0.174808
C	 3.0184807924	-0.7202451487	-0.0531723043	-0.387026
C	 2.8203819182	-0.5281032022	-2.5064254465	 0.321086
C	 3.2954561407	-0.8908163729	-3.5498965408	-0.46232
H	 0.9208242028	 1.9459304374	 0.3504745382	 0.111515
H	-0.438414273	 2.0090740672	-0.7808837657	 0.107505
H	-0.7373120338	 1.845125803	 0.9580831448	 0.13497
H	 0.3806903332	-0.4073680823	 0.9265107606	 0.08657
H	-2.0137857963	-0.1026564976	-0.9181514029	 0.083019
H	-1.4610175899	-1.6255516425	-0.1899536152	 0.083244
H	-3.0716616044	-0.4748754235	 1.0922088039	 0.286741
H	 0.6463273657	-1.5748744615	-1.2775399511	 0.100285
H	 0.2638889212	-0.0822515564	-2.119352051	 0.103223
H	 2.3181423962	 0.978955735	-1.1712117431	 0.10894
H	 2.928252221	-1.8110495622	-0.0507418604	 0.123848
H	 4.0795183984	-0.4697048658	-0.1301875336	 0.12543
H	 2.6473835571	-0.3414606322	 0.9029029183	 0.120938
H	 3.7197776417	-1.1986714257	-4.4731166244	 0.190817
