15
gdb 85225	2.71468	1.23562	0.95982	4.2834	63.51	-0.2649	-0.05	0.2149	1190.1713	0.109666	-494.912504	-494.903677	-494.902732	-494.947023	30.779	
O	-0.070134161	 1.4431780863	 0.0193095161	-0.429242
C	 0.0829219161	 0.0491538514	 0.0967980704	 0.080159
C	 0.0951137511	-0.364075229	 1.5948316314	-0.346311
C	-1.4184344442	-0.5990029704	 1.4650463315	 0.371837
O	-2.3536296733	-0.5937196473	 2.2067985206	-0.284756
C	-1.2866459666	-0.6751101294	-0.077099579	-0.007845
O	-2.1900072468	 0.0103080273	-0.9205335759	-0.217208
C	-3.5182821049	-0.2663906404	-0.7973831307	 0.169368
O	-4.331178483	 0.2802706256	-1.4751324725	-0.260409
H	-0.6379657451	 1.6365178821	-0.7372154036	 0.30443
H	 0.9021822179	-0.3203275718	-0.5290686067	 0.086728
H	 0.6421694498	-1.2907761032	 1.7927977691	 0.138515
H	 0.4079641005	 0.4109774722	 2.2953788343	 0.157432
H	-1.1532118432	-1.7174905111	-0.3954609459	 0.121031
H	-3.7304938674	-1.0224860122	-0.024850119	 0.116271
