17
gdb 14923	4.58227	1.39743	1.14188	3.3137	68.53	-0.2677	0.0356	0.3034	1017.3095	0.144705	-363.889837	-363.882659	-363.881715	-363.921274	27.21	
N	 0.0007667125	-1.1813937782	-0.0340582984	-0.321899
C	-0.0051136746	-0.0257438443	-0.0112099852	 0.262269
C	-0.0050336591	 1.4365566623	 0.0302929124	-0.149462
C	-0.7413177584	 1.9727093223	 1.2796123026	-0.204187
C	-0.6413408872	 3.4997014091	 1.3169073193	-0.086232
O	 0.7031435664	 3.9428167361	 1.2917267321	-0.238323
C	 1.3773975294	 3.5337562325	 0.1158553695	-0.086228
C	 1.4303831613	 2.0093408143	-0.0123926314	-0.204189
H	-0.542319625	 1.7852957058	-0.8629384173	 0.122872
H	-1.7905509182	 1.6613976761	 1.2700721113	 0.117926
H	-0.2778535226	 1.554446375	 2.1792645607	 0.127157
H	-1.1989628773	 3.931308137	 0.4669181633	 0.089576
H	-1.0788582692	 3.892517539	 2.2385943409	 0.118031
H	 0.8856851688	 3.9664585695	-0.7733558643	 0.089576
H	 2.3860589478	 3.9509862266	 0.1771196521	 0.11803
H	 2.0102508244	 1.593083135	 0.818031035	 0.127157
H	 1.930113091	 1.7241490419	-0.9434293827	 0.117925
