20
gdb 112774	2.26763	1.24542	0.9035	1.5622	82.79	-0.2268	0.0307	0.2575	1348.6448	0.168493	-403.085665	-403.075779	-403.074834	-403.120663	36.386	
C	-0.0102505533	 1.5328596882	-0.1041114136	-0.385841
C	 0.0064260198	 0.0117051608	 0.0260854734	-0.123541
N	-1.3320064943	-0.5297487528	 0.1629750395	-0.070842
C	-2.084742518	-0.3183361483	 1.4165406403	-0.218078
C	-2.695484775	-1.7330846361	 1.2507863453	 0.136547
O	-3.9628701291	-1.7910000835	 0.6624597361	-0.426297
C	-1.4822168276	-1.9997689045	 0.2865924984	-0.24189
C	-1.7090785693	-2.7280134268	-0.9476718158	 0.342671
C	-1.9221768278	-3.3251748703	-1.9694157763	-0.42572
H	 1.0059204369	 1.919948214	-0.2246004803	 0.115837
H	-0.6058635799	 1.8385798675	-0.9689876807	 0.1266
H	-0.4411498222	 2.0016386818	 0.7869442811	 0.120256
H	 0.4518860699	-0.4350362716	-0.8708529246	 0.11114
H	 0.6463605178	-0.2828862155	 0.8825021874	 0.073077
H	-1.4410469771	-0.2457487635	 2.3098759782	 0.08505
H	-2.786807646	 0.520920134	 1.4067220852	 0.108537
H	-2.7347365415	-2.3583400664	 2.1430190553	 0.098933
H	-3.9063582536	-1.374096532	-0.2057041694	 0.29107
H	-0.6519154043	-2.4602292161	 0.8506563453	 0.084086
H	-2.1040029255	-3.8568871091	-2.8705986147	 0.198404
