18
gdb 109417	2.33156	1.52773	1.11016	3.2463	72.88	-0.2331	-0.0167	0.2163	1150.5418	0.145584	-439.056039	-439.046901	-439.045957	-439.090084	32.916	
C	-0.3204844706	 1.324030018	 0.088964022	-0.24879
O	 0.2730433839	 0.0623570785	-0.1807185798	-0.249557
C	 0.7917647414	-0.5540599137	 0.9602775708	-0.057677
C	-0.1666661993	-1.2629366807	 1.9547385042	 0.377627
O	-1.077997459	-0.9327955045	 2.6485603821	-0.304597
N	 0.4916882819	-2.5504228445	 1.8472614448	-0.215486
C	 0.354088151	-2.8953738746	 0.3902444419	-0.279673
C	 1.4049401304	-1.9370621839	 0.7529054221	 0.308466
C	 2.8736858068	-2.2254612574	 0.7020904771	-0.498394
H	 0.4170739809	 2.0298254414	 0.5002602836	 0.110224
H	-0.6900315171	 1.7092569806	-0.8633677851	 0.132533
H	-1.1540183537	 1.2353024269	 0.795945342	 0.141628
H	 1.4722203056	 0.1172525083	 1.5108015698	 0.094204
H	 0.6504916685	-3.9197903979	 0.1893896839	 0.13764
H	-0.5341291248	-2.5646874217	-0.1396759558	 0.144964
H	 3.2889414576	-1.9123954619	-0.2621804314	 0.138312
H	 3.4109041928	-1.6911828757	 1.4920870337	 0.131107
H	 3.0637561838	-3.295368247	 0.8225401341	 0.13747
