16
gdb 105571	1.9849	1.60937	1.31354	3.0091	70.37	-0.2527	-0.0572	0.1955	1065.3919	0.121895	-437.886294	-437.877163	-437.876219	-437.920603	32.081	
C	 0.1124637083	 1.5623602862	-0.005695754	-0.275891
O	 0.1305453876	 0.1367762404	 0.1030696014	-0.276553
C	 0.5686454727	-0.5399884876	-1.033234339	 0.193875
C	 0.3810974955	-2.0888148274	-0.9388330117	-0.290355
C	-0.3302296939	-2.1246240881	-2.3234933725	-0.335983
C	-0.4390896918	-0.6005852833	-2.2555038038	 0.350764
O	-1.1298317173	 0.2268788994	-2.763914913	-0.274369
C	 1.9207444002	-0.1532715375	-1.4648698862	 0.227627
N	 2.9743255022	 0.1511322769	-1.8323315636	-0.33248
H	 1.1219770646	 1.9582246887	-0.1724551414	 0.138798
H	-0.5464017786	 1.8880861685	-0.816423236	 0.149998
H	-0.2665142086	 1.9295420717	 0.9491208415	 0.13977
H	 1.2961890721	-2.6699319242	-0.8392047272	 0.138064
H	-0.2933557393	-2.3065294211	-0.1096959383	 0.143518
H	 0.3290646208	-2.4371374878	-3.1394919948	 0.156457
H	-1.2732648045	-2.6679377049	-2.4069892414	 0.146759
