21
gdb 122395	4.85752	0.62175	0.58525	4.1394	80.19	-0.2727	0.0134	0.286	1938.7085	0.181531	-424.269259	-424.259544	-424.2586	-424.3051	34.816	
C	-0.0833881251	 1.6530085491	-0.0445903967	-0.38098
C	 0.1758467053	 0.1501448144	 0.0885494212	-0.167668
C	 0.6662551363	-0.4905643521	-1.2140458244	-0.163577
C	 0.9243669627	-1.9960147406	-1.0854266926	-0.207896
C	 1.3864236301	-2.6348287491	-2.3787236605	 0.13384
C	 1.3808254328	-4.1716310694	-2.4818398031	-0.441622
C	 0.3118904072	-3.9357271264	-3.5496179814	 0.449801
O	-0.3644253481	-4.5828707865	-4.281488387	-0.316019
O	 0.3481527747	-2.5701590847	-3.4290384853	-0.250643
H	 0.8273192338	 2.187838273	-0.3363087825	 0.114415
H	-0.8436588875	 1.856767534	-0.8065223187	 0.118687
H	-0.4337212205	 2.0824565313	 0.8990019897	 0.113409
H	 0.9148766408	-0.0268192182	 0.8815654948	 0.093675
H	-0.7439842976	-0.3533215875	 0.414207602	 0.098648
H	-0.0715475433	-0.3253446673	-2.0085782667	 0.120079
H	 1.5881117581	 0.0095719284	-1.5423899035	 0.093427
H	 1.6925051252	-2.1844422394	-0.3227322561	 0.104709
H	 0.0125374607	-2.5049325887	-0.7461393031	 0.104952
H	 2.2961940261	-2.1609219318	-2.7597119483	 0.097557
H	 2.2909880116	-4.6433665256	-2.8552888955	 0.143525
H	 1.0240368766	-4.7070267731	-1.5997199423	 0.141682
