20
gdb 22113	2.90056	0.86934	0.7801	1.9159	74.77	-0.2554	-0.0024	0.253	1538.4221	0.167794	-477.374273	-477.363502	-477.362558	-477.410807	38.666	
C	 0.1205389219	 1.5822594912	 0.058041039	-0.39599
C	-0.0529326892	 0.0632015773	 0.0290519827	 0.14327
O	 0.3863798888	-0.4930637037	-1.2038226384	-0.427546
C	 0.6465497134	-0.6098784973	 1.2288403093	-0.32529
C	 0.6184285514	-2.1112936705	 1.1514857383	 0.367997
C	-0.7044387977	-2.8570048146	 1.2089530816	-0.14139
O	-0.756649987	-3.800874462	 2.2611523468	-0.421341
N	 1.753346643	-2.6877032027	 1.0345475725	-0.183655
O	 1.6146509277	-4.0946822589	 0.9376746841	-0.413174
H	 1.1830237151	 1.8513775702	 0.0245035805	 0.11086
H	-0.3732611849	 2.0324057815	-0.8068999411	 0.127359
H	-0.307479488	 2.0145462793	 0.9686629247	 0.115738
H	-1.1247443852	-0.1681778252	 0.0622688561	 0.095229
H	 1.3504150542	-0.4841447365	-1.2084744652	 0.282097
H	 1.6919097145	-0.2826846577	 1.2711040222	 0.110356
H	 0.1608739873	-0.278479985	 2.1560393682	 0.118588
H	-1.5200586068	-2.1506995499	 1.3863530075	 0.108379
H	-0.8800401028	-3.3221085574	 0.2261961242	 0.121325
H	-0.0188618784	-4.4038772742	 2.1074588702	 0.296497
H	 2.5300671027	-4.3895718239	 0.9014394669	 0.310691
