18
gdb 89836	3.2584	1.25805	1.00633	3.7886	73.15	-0.2446	0.0231	0.2676	1183.3671	0.148345	-439.114668	-439.106482	-439.105538	-439.147395	31.935	
O	 0.0922318443	 1.3664744701	 0.2501335823	-0.442718
C	 0.0104855914	-0.0195891351	 0.0528485941	 0.040866
C	-1.4223500602	-0.5618815418	-0.0356561503	-0.307311
C	-1.2741713786	-1.7729444648	-0.9595729015	 0.380262
C	-1.5247121508	-3.1886282669	-0.5038051958	-0.311986
C	-2.4316333082	-2.5313013195	-1.5293919634	-0.329898
N	-0.1236903087	-1.4572320742	-1.7757499163	-0.372154
C	 0.6095646104	-0.4150789052	-1.3048732508	 0.382278
O	 1.547559917	 0.1480546101	-1.8334794669	-0.400364
H	 0.8463498205	 1.6557518995	-0.2855965905	 0.293158
H	 0.5736298893	-0.563760991	 0.8311542175	 0.091706
H	-1.857901381	-0.8225564441	 0.9303375523	 0.112946
H	-2.0464919763	 0.2046727566	-0.5077158816	 0.1238
H	-0.8475140295	-3.9606036854	-0.8535287613	 0.118119
H	-1.9089813834	-3.3468121972	 0.4983480236	 0.122533
H	-3.430975079	-2.2360948804	-1.2268761668	 0.12668
H	-2.3647574031	-2.8743980172	-2.5571541985	 0.116956
H	 0.0726810561	-1.8909198234	-2.6643486761	 0.255125
