23
gdb 118094	3.12161	0.87722	0.7639	1.6919	82.19	-0.26	0.0852	0.3452	1604.138	0.203345	-425.417495	-425.406942	-425.405997	-425.45333	39.053	
C	 0.1721072147	 1.5635285898	-0.1464789817	-0.383883
C	 0.0529502317	 0.0421951226	-0.0281943221	-0.163639
C	 0.7206807764	-0.5125793237	 1.2344440936	-0.19028
C	 0.6361141434	-2.045257133	 1.3300635851	 0.043101
O	 1.166639134	-2.6589798209	 0.1660320293	-0.434631
C	 1.3388715855	-2.6017230353	 2.5765752717	 0.393344
C	 1.0080195359	-1.9770000347	 3.9125225435	-0.473874
C	 1.8533647429	-3.9768708011	 2.5287274422	-0.22925
O	 2.7399782807	-2.8567021756	 2.3489235712	-0.291773
H	 1.2215494335	 1.8774431549	-0.1799656018	 0.113198
H	-0.3128918533	 1.9307602392	-1.0563722944	 0.111698
H	-0.2948208001	 2.0696620278	 0.7062880159	 0.109473
H	-1.0074353229	-0.2448465071	-0.0291153956	 0.090181
H	 0.4987671286	-0.4416769019	-0.9025865735	 0.114557
H	 1.779547088	-0.2173832213	 1.2570064602	 0.097004
H	 0.2533845975	-0.0638214386	 2.1197701665	 0.093081
H	-0.4211837813	-2.3415915108	 1.3711866017	 0.087574
H	 2.1271173025	-2.6452221041	 0.2870403175	 0.287611
H	-0.0717137543	-2.0097136585	 4.0960329194	 0.12414
H	 1.510669021	-2.5131989747	 4.720983564	 0.126654
H	 1.3251134409	-0.9313260587	 3.9513757667	 0.135529
H	 1.9942550715	-4.5248389459	 3.4588865445	 0.112172
H	 1.6921383932	-4.5802799087	 1.6399205662	 0.128013
