19
gdb 103433	2.34588	1.51559	1.28703	0.7481	70.07	-0.2414	0.0596	0.301	1081.5729	0.1571	-460.11846	-460.109388	-460.108444	-460.151815	34.769	
C	 0.0983549056	 1.5594940619	 0.0080258951	-0.41269
C	 0.0269329592	 0.0288637458	-0.0659316189	-0.225311
C	-1.3929608922	-0.5184392393	 0.0150157201	 0.326856
O	-2.2084637548	-0.116296243	-1.0707821943	-0.489163
C	-1.5606817352	-2.0385390192	 0.1596391701	 0.003571
O	-0.9761923744	-2.4090065497	 1.4160872642	-0.267558
C	-2.3296827475	-1.9093229646	 1.4041087084	-0.02598
C	-2.1776111751	-0.3832510829	 1.4071909979	 0.052023
O	-1.5366756922	 0.1735691933	 2.5223472315	-0.429086
H	 1.1365165692	 1.9010452767	-0.0356552432	 0.119286
H	-0.423439779	 2.0323648348	-0.8326640988	 0.10371
H	-0.3415929461	 1.9230427134	 0.94041969	 0.143636
H	 0.4734807082	-0.3246680948	-1.0036345199	 0.103005
H	 0.6134485162	-0.4090508959	 0.7478303715	 0.103745
H	-2.2451687549	 0.8460453355	-1.0767873049	 0.28391
H	-1.6080377283	-2.7863384142	-0.6229504194	 0.111642
H	-3.0918585881	-2.5438956254	 1.841012947	 0.109466
H	-3.1153596691	 0.1541327099	 1.2480285563	 0.095226
H	-0.8250811216	-0.4361566924	 2.7557583875	 0.293713
