21
gdb 78375	2.84434	1.41455	1.207	1.6388	81.86	-0.2392	0.0716	0.3108	1144.0708	0.182592	-387.034903	-387.026619	-387.025674	-387.067296	32.946	
C	 0.1605896802	 1.5943635816	 0.4170653509	-0.42727
C	 0.1826516262	 0.0877602152	 0.2612931052	-0.006602
C	 1.519815312	-0.568961483	 0.1185836777	-0.076735
C	 0.717819485	-0.70176001	 1.4334529018	-0.090002
C	 0.674228562	-2.2419382739	 1.2751641759	-0.108501
C	-0.4584067378	-2.9365228416	 0.4853956103	 0.140858
C	-1.9199963505	-2.56359316	 0.6279957621	-0.415959
O	 0.1620861179	-2.5352300081	-0.778079132	-0.323731
C	 1.3627209503	-2.0900735935	-0.0894773898	 0.100493
H	 1.0105216324	 1.9475813552	 1.0110931219	 0.113729
H	 0.2075809484	 2.0901555449	-0.5583655545	 0.120806
H	-0.7556650472	 1.9259022658	 0.9174586138	 0.118022
H	-0.6267154239	-0.3160263968	-0.3352956733	 0.102237
H	 2.4230485828	-0.0051101835	-0.0852716333	 0.079164
H	 0.8988789144	-0.2053758727	 2.3800777194	 0.083464
H	 1.1348702182	-2.7875210188	 2.0980615846	 0.073799
H	-0.3599778187	-4.0283636342	 0.5864242318	 0.071703
H	-2.4902815326	-2.9548310211	-0.2209267918	 0.127949
H	-2.3243787704	-3.0161249554	 1.5401991152	 0.115485
H	-2.0772199355	-1.485386062	 0.6850720495	 0.126417
H	 2.2533844571	-2.6464408781	-0.3909836558	 0.074675
