22
gdb 113822	4.14854	0.78662	0.71288	1.7283	84.4	-0.2475	0.0708	0.3183	1678.8922	0.192885	-404.308581	-404.298528	-404.297584	-404.344642	36.51	
C	 0.1664757653	 1.5639320802	 0.1119741743	-0.378395
C	-0.2918692561	 0.1233937916	-0.1422754885	-0.183089
C	 0.4360904073	-0.5000534874	-1.3122080886	 0.008831
N	 1.7801589594	-1.0428706839	-1.059821948	-0.345947
C	 0.7021853734	-1.9582703153	-1.4825405302	-0.076914
C	 0.2962080615	-2.9870684372	-0.4795409587	 0.079539
O	-0.8957364269	-3.7341865136	-0.761508988	-0.269139
C	 0.3486554613	-4.4415679281	-0.7148996976	 0.072729
C	 0.8248724817	-5.1021903336	-1.9831807959	-0.421599
H	 1.2391480028	 1.5925694652	 0.3274939869	 0.127858
H	-0.0176952417	 2.1999209047	-0.7613990458	 0.109761
H	-0.3632482895	 2.0049459787	 0.9616391226	 0.112295
H	-0.1232496191	-0.4766693497	 0.7566472304	 0.105428
H	-1.3703945064	 0.0996923512	-0.3426578784	 0.103587
H	 0.3013006413	 0.0436875212	-2.2485258429	 0.079698
H	 2.40878679	-0.8518826422	-1.8343976669	 0.23258
H	 0.7140452207	-2.3101021871	-2.5111840296	 0.082318
H	 0.3846808972	-2.6556002858	 0.5548732056	 0.093182
H	 0.457051904	-5.0636938164	 0.1768695202	 0.087295
H	 0.6843147303	-4.4617608757	-2.8561967003	 0.126352
H	 1.8867049677	-5.3591188677	-1.9031597296	 0.123966
H	 0.2682801755	-6.0293802094	-2.155281491	 0.129664
