19
gdb 82166	2.82643	1.64731	1.29906	3.4449	74.02	-0.2214	0.0639	0.2852	1026.9691	0.160838	-419.156028	-419.148172	-419.147228	-419.187883	31.734	
C	-0.0531136265	 1.5281452708	 0.0364170404	-0.507397
C	 0.1127168081	 0.0322685092	-0.0241287524	 0.354658
N	-0.5553253136	-0.8384636005	 0.9680026942	-0.363789
C	 0.9210140947	-0.7629394345	 0.936899386	-0.131857
C	 1.5490538245	-1.9770233851	 0.2275357627	 0.134601
O	 1.11939972	-3.2099798287	 0.7563540661	-0.439445
C	 1.1754054893	-1.7925719957	-1.2567288884	-0.076114
N	-0.2650573588	-2.0001657829	-1.4971550761	-0.328164
C	 0.2678231671	-0.6266681774	-1.3930356115	-0.099457
H	 0.7182384188	 2.0360024805	-0.5535236426	 0.12515
H	-1.0288551132	 1.8350907593	-0.3579908638	 0.128738
H	 0.0240005728	 1.8906194884	 1.0666157274	 0.117018
H	-0.9017997424	-0.2644905132	 1.7342914465	 0.225651
H	 1.439373644	-0.3099275385	 1.7769471594	 0.08191
H	 2.6377379024	-1.9504823029	 0.3405711762	 0.080211
H	 0.1577633828	-3.1966785451	 0.6478894595	 0.30053
H	 1.8847268481	-2.0828495448	-2.0252344407	 0.085355
H	-0.4116092941	-2.2298300552	-2.4773927285	 0.231491
H	 0.2651748661	 0.0096806763	-2.2724655145	 0.08091
