21
gdb 102172	2.27192	1.1013	0.80007	1.6407	81.37	-0.2402	0.0544	0.2947	1467.1565	0.177916	-424.181655	-424.170386	-424.169442	-424.218667	40.109	
C	-0.9725570593	 1.0396697119	 0.2610915221	-0.239937
O	 0.2603002971	 0.3967666856	 0.0020819192	-0.250424
C	 0.7917202889	-0.374713363	 1.0596472698	 0.098776
C	 0.1111470035	-1.7605700517	 1.193720583	-0.361487
C	-1.1538086075	-1.7617312402	 1.9167863684	 0.284868
C	-2.1822071181	-1.7675111331	 2.540763499	-0.450071
C	 2.2971576167	-0.5408858859	 0.7586918973	 0.118128
C	 3.0097895363	 0.800483724	 0.6157989631	-0.415207
O	 2.9184095228	-1.3640040707	 1.7416848255	-0.427285
H	-0.9216605903	 1.6535391937	 1.1731058876	 0.104763
H	-1.172219235	 1.6916377115	-0.5933029699	 0.12253
H	-1.7983224681	 0.3278411256	 0.37180666	 0.130546
H	 0.6847728105	 0.1682019551	 2.0154528138	 0.063248
H	-0.0274621836	-2.1610026512	 0.1817338453	 0.132752
H	 0.8193315488	-2.4202341877	 1.7067906031	 0.153372
H	-3.0943484847	-1.7767414159	 3.0839155891	 0.192944
H	 2.3885503913	-1.102954484	-0.1788400187	 0.098732
H	 4.0673076416	 0.6414504303	 0.3888779253	 0.121929
H	 2.5549629098	 1.3959206996	-0.1773456983	 0.140379
H	 2.94163032	 1.3745438889	 1.5495811671	 0.101187
H	 3.0038088992	-0.8437634929	 2.548719118	 0.280258
