17
gdb 79428	2.26441	2.03641	1.23761	1.6532	73.94	-0.2244	-0.0486	0.1757	1003.5968	0.1349	-417.885222	-417.877419	-417.876474	-417.917637	29.69	
C	-0.7737279575	 1.492064116	-0.1797533063	-0.355584
N	-0.4777318483	 0.0670366851	-0.0278552485	-0.107089
C	-1.1853927742	-0.6559908288	 1.0633018296	-0.087896
C	-0.0175513426	-1.6856982076	 1.1893422532	-0.031664
N	 0.1736525629	-1.5650469829	 2.6658725865	-0.379507
C	-0.2365619005	-0.1842464126	 2.2558099762	 0.235358
C	-0.3108016424	 0.904219187	 3.2749410658	 0.022674
O	-0.8372104135	 1.9792124434	 3.1232115665	-0.243079
C	 0.6146439223	-0.3001803317	 0.9028435782	-0.044035
H	 0.021419392	 1.9558653002	-0.7726233297	 0.118926
H	-1.7074897653	 1.5972337475	-0.7415954524	 0.120409
H	-0.875136282	 2.0319035019	 0.7721616412	 0.142645
H	-2.2655396818	-0.8161185253	 1.0863919088	 0.092368
H	 0.1250092241	-2.6074452742	 0.6277968821	 0.100588
H	-0.5951675435	-2.029193056	 3.1574314834	 0.214161
H	 0.1893377475	 0.6323422328	 4.2311164229	 0.098953
H	 1.6638197826	-0.038840195	 0.7630450324	 0.102776
