17
gdb 41085	3.33628	1.83127	1.64337	2.3749	71.41	-0.2469	0.0424	0.2892	863.4757	0.137219	-421.684012	-421.677867	-421.676923	-421.714137	26.359	
C	 0.03670205	 1.6053503547	-0.2106536994	-0.176241
O	 1.4864385416	 1.4061434718	 0.0583530729	-0.368677
C	 1.0890056382	 0.2065630899	 0.7513983061	 0.430835
C	 0.8671059049	 0.2307968847	 2.3444366973	 0.00229
C	-0.6070597783	-0.1898465385	 2.4230669011	-0.210027
C	-0.5489312415	-0.9785376637	 1.1112694572	-0.141473
C	-0.1849256635	 0.0753632656	 0.0253369602	-0.055344
C	 1.1318636847	-1.3082800562	 1.161695081	-0.041191
O	 1.545333534	-1.0525788127	 2.4770554327	-0.260886
H	-0.3941716115	 2.2842590396	 0.5324819439	 0.114691
H	-0.1300460195	 1.9822056475	-1.2220937779	 0.120854
H	 1.2776209528	 1.0085471904	 2.9855258035	 0.092563
H	-0.794620592	-0.7967251704	 3.3114562931	 0.113443
H	-1.3197409977	 0.6378257606	 2.3839525007	 0.105131
H	-1.2703195421	-1.769955052	 0.9170800145	 0.077714
H	 0.0069804222	-0.4334331844	-0.923524024	 0.096326
H	 1.5366133877	-2.193422917	 0.6728773072	 0.099992
