21
gdb 108595	2.48452	1.32073	1.17322	2.5447	77.73	-0.2472	0.065	0.3122	1174.7405	0.183541	-424.21822	-424.209234	-424.20829	-424.25165	34.595	
O	 0.0963746754	 1.3693772933	-0.1709965337	-0.416376
C	-0.0087188162	-0.0135343993	 0.1408208593	-0.146819
C	-1.433286308	-0.5096453161	 0.1182374509	 0.267938
C	-2.4246310763	 0.1207638604	 1.0950852888	-0.248601
C	-3.5668455395	-0.9043493146	 1.2863632509	-0.213494
C	-2.9607969679	-2.2819683783	 0.9224907123	-0.225358
C	-1.7844646872	-1.9902911455	-0.0007124479	-0.149774
C	-1.9860273015	-1.0569218664	-1.172773855	 0.037812
O	-3.250290419	-0.6465350753	-1.6134332847	-0.418979
H	-0.3516784549	 1.5073194111	-1.0126012833	 0.283281
H	 0.6124672437	-0.623732262	-0.5356967907	 0.077598
H	 0.4127326224	-0.1168505038	 1.1478378747	 0.105575
H	-1.8960851891	 0.3004525237	 2.0392470765	 0.097207
H	-2.7954020241	 1.0903254458	 0.7516551269	 0.10785
H	-3.9658434378	-0.8888306796	 2.3045533678	 0.090182
H	-4.3862728098	-0.6694449784	 0.6065429361	 0.113839
H	-2.5822587154	-2.792272506	 1.8156710095	 0.101864
H	-3.7029817263	-2.9507458616	 0.4710897258	 0.08983
H	-1.0073980336	-2.7433575619	-0.0952248161	 0.078031
H	-1.2569190645	-1.1668491275	-1.9786790655	 0.079078
H	-3.6807889304	-1.4019225781	-2.0275925727	 0.289316
