14
gdb 27087	3.37576	1.4474	1.01304	1.7322	67.42	-0.1882	0.0007	0.1889	1072.2861	0.103499	-470.075119	-470.0678	-470.066856	-470.107421	27.562	
O	 1.4306831756	 0.4031860496	-0.5583873546	-0.442118
C	 0.4874663553	-0.4915696403	-0.2643611131	 0.325793
C	-0.3843642803	-1.270209279	-0.9950667172	 0.219618
N	-0.5643758259	-1.3711406762	-2.3874678635	-0.38215
C	 0.1029251244	-0.7035018537	-3.3428744225	 0.149787
O	 0.9965437047	 0.1203113439	-3.1544783206	-0.370632
N	-1.1662752343	-2.0399110518	-0.1698086232	-0.319501
C	-0.7870369664	-1.7445985186	 1.0488858715	 0.001066
N	 0.2148939439	-0.8091730347	 1.0443631401	-0.297896
H	 1.4386608826	 0.4573243259	-1.5487996998	 0.331783
H	-1.2814010415	-2.0263942606	-2.6638471833	 0.26986
H	-0.2323932982	-0.9675018409	-4.3580252685	 0.10458
H	-1.1868483479	-2.1616224096	 1.9592214973	 0.1345
H	 0.6882668381	-0.4054218939	 1.8354861873	 0.27531
