15
gdb 55605	2.6321	1.2006	0.83017	4.5956	67.29	-0.2458	-0.0298	0.216	1291.6413	0.113161	-487.332632	-487.323583	-487.322639	-487.367552	32.13	
N	-0.1095283877	 1.3463806823	-0.0915642884	-0.568274
C	 0.2291490587	 0.0023999026	-0.0365403762	 0.471119
O	 1.3607542272	-0.3943514711	 0.0787537644	-0.336231
N	-0.9239632212	-0.8002655975	-0.0681183539	-0.415102
C	-0.9669305687	-2.1784092639	-0.1005844019	 0.483422
N	 0.0344429751	-2.9355479811	-0.2797951927	-0.500746
N	-2.2989122216	-2.6772490129	 0.0742866513	-0.376402
C	-3.4795992894	-2.0070703161	 0.2343634179	 0.18373
O	-3.628358753	-0.8003274509	 0.2636008579	-0.326466
H	 0.6881615768	 1.9466912169	-0.2318950981	 0.264971
H	-0.9412375431	 1.6204514437	-0.5919307429	 0.256933
H	-1.8269580131	-0.353843327	 0.0657465007	 0.281333
H	-0.2268790636	-3.919349279	-0.2675925693	 0.211132
H	-2.3609054	-3.6841343489	 0.0572405682	 0.260321
H	-4.3282638664	-2.7061531172	 0.3379395429	 0.110261
