19
gdb 84807	2.76709	1.48969	1.15895	1.7259	74.65	-0.2477	0.0153	0.263	1102.4015	0.16102	-419.193239	-419.184918	-419.183974	-419.226994	30.964	
C	 0.2125318597	 1.5435025679	-0.2034296729	-0.394369
C	 0.0372291645	 0.0410133784	 0.020666166	 0.005641
N	 0.5363898684	-0.7214099746	-1.1449677938	-0.260362
C	 1.3969824415	-1.5315720718	-0.6998244545	 0.10687
O	 1.675479399	-1.5686614567	 0.6296987736	-0.2387
C	 0.8047877839	-0.5786422522	 1.2439481652	 0.047905
C	 1.6308806492	 0.3652862721	 2.0919560768	-0.000691
C	 2.8266315988	-0.1119891336	 2.8247734174	-0.25251
N	 2.9679335697	 0.798804045	 1.6695116513	-0.315368
H	 1.2680075122	 1.8202586709	-0.2622594327	 0.139909
H	-0.2722948919	 1.8246897089	-1.1414795323	 0.130193
H	-0.2473285543	 2.1187699738	 0.6059827363	 0.114657
H	-1.0334113845	-0.170453433	 0.1195614982	 0.092528
H	 1.9708332383	-2.2366411943	-1.2915395197	 0.14319
H	 0.112384955	-1.124870433	 1.8944272324	 0.099781
H	 1.0362100772	 1.15693014	 2.5434265108	 0.099612
H	 3.0826088869	 0.3234043962	 3.7862512833	 0.11896
H	 3.1165768163	-1.1498153743	 2.6928345139	 0.126405
H	 3.2512035701	 0.2434955703	 0.8644853207	 0.236349
