14
gdb 26742	3.38284	1.29981	0.94376	2.8314	67.04	-0.217	-0.0452	0.1718	1139.8253	0.102005	-470.052456	-470.044261	-470.043317	-470.085305	29.614	
N	 0.1900706963	 1.4696331291	 0.020366263	-0.616645
C	 0.0080932992	 0.077333788	-0.0127951201	 0.138437
C	-1.0732871215	-0.7569636294	-0.0336406943	 0.317594
O	-2.369977475	-0.3890974172	-0.026359301	-0.433881
N	-0.7040492559	-2.0824777861	-0.064431639	-0.350613
C	 0.604227991	-2.0802254361	-0.0630405836	 0.029336
N	 1.1134367322	-0.8059327655	-0.0323475807	-0.080327
C	 2.4667332112	-0.4575754474	-0.0224396921	 0.176687
O	 3.357852708	-1.2662651873	-0.0408220769	-0.293034
H	-0.21591027	 1.8905604718	 0.8492535686	 0.255249
H	-0.2124022177	 1.9292161205	-0.7894914027	 0.255232
H	-2.8866654462	-1.2042350398	-0.045952615	 0.306151
H	 1.2523585277	-2.9415455195	-0.0826821611	 0.166545
H	 2.5994907309	 0.6343623089	 0.0033520149	 0.129268
