20
gdb 40170	3.02275	1.57388	1.37083	0.9597	77.55	-0.2362	0.0712	0.3074	1018.39	0.174119	-403.11197	-403.104717	-403.103773	-403.143487	29.8	
C	-0.0659042206	 1.5087867647	 0.0086644807	-0.301756
N	 1.2419744073	 0.8215879586	-0.0516692087	-0.356871
C	-0.0030330136	 0.029961242	-0.0139223054	 0.36428
C	-0.2884498926	-0.7843505059	 1.2495731098	-0.260997
C	-0.2631732429	-2.3164660447	 0.9925980517	-0.235314
C	-0.590763478	-2.5898912055	-0.4809619226	 0.101473
C	 0.4884071277	-1.9987206333	-1.4086712777	-0.251024
C	-0.389983356	-0.738003358	-1.2652815462	-0.011275
O	-1.5371727786	-1.5784983678	-0.9549250874	-0.296048
H	-0.2621334	 2.0269380473	 0.9440363947	 0.116865
H	-0.4275849838	 2.0253426374	-0.8774103091	 0.110297
H	 1.6027731047	 0.8600243327	-1.0040861865	 0.225574
H	 0.4162746351	-0.4968409352	 2.0336567315	 0.11033
H	-1.2906373567	-0.5158403925	 1.5954028836	 0.116667
H	 0.7164564661	-2.7495011478	 1.225351843	 0.103943
H	-0.9910491687	-2.8089966008	 1.64475773	 0.10292
H	-0.9504383032	-3.6044578191	-0.6690306429	 0.077419
H	 1.5189438123	-1.9569688728	-1.0489957735	 0.106647
H	 0.4466962136	-2.4175360211	-2.4154521976	 0.106155
H	-0.5566984821	-0.0961478381	-2.1365023873	 0.070716
