16
gdb 4491	3.66207	1.72961	1.19314	1.0518	69.62	-0.1793	0.0339	0.2132	992.4603	0.131229	-379.950489	-379.942295	-379.941351	-379.982627	30.549	
C	 0.1244681016	 1.4492524547	 0.0418912965	-0.489224
C	-0.0636519993	-0.0257650098	 0.0224946376	 0.367325
C	-1.1684856326	-0.8146667572	-0.0810324095	-0.341827
C	-0.7064452217	-2.1748910371	-0.0555329978	 0.235844
N	-1.4958302717	-3.3330284002	-0.0600332832	-0.612933
C	 0.6500542204	-2.1173144322	 0.0606308045	 0.199998
N	 1.5881674744	-3.147119062	 0.1405368929	-0.606792
O	 1.0542174139	-0.790672934	 0.1219768765	-0.21149
H	 0.7477489471	 1.7879148414	-0.7941857707	 0.132834
H	-0.8442754708	 1.948911194	-0.0308129434	 0.131386
H	 0.6123484718	 1.7809819794	 0.9657599345	 0.134302
H	-2.1905583719	-0.4760782507	-0.1593106188	 0.094874
H	-2.2319813932	-3.3023154742	-0.75466956	 0.23831
H	-0.9213607451	-4.1547266435	-0.210467436	 0.244981
H	 2.0386125553	-3.2087967637	 1.0493602587	 0.241825
H	 2.3168811318	-3.0696326451	-0.5624111416	 0.240586
