21
gdb 109511	1.8872	1.45169	1.05518	3.2922	84.7	-0.2434	0.0161	0.2596	1276.7184	0.180147	-383.269687	-383.259311	-383.258367	-383.304746	37.829	
C	 0.2408910355	 1.5726103671	 0.0429802773	-0.377798
C	-0.1988978137	 0.1153916634	-0.0720127146	-0.13124
N	 0.5583452035	-0.555170624	-1.1314582309	-0.119939
C	 1.8270157058	-1.2285088632	-0.8075268705	-0.221163
C	 2.2853455695	-1.321914532	 0.5557898304	 0.299324
N	 2.6598161409	-1.37627771	 1.6498513314	-0.351258
C	 0.604141107	-2.0077199412	-1.2469859233	 0.298889
C	-0.1156779107	-2.9052845218	-0.2570446769	-0.463814
C	 0.580670757	-2.5125443251	-2.6775269092	-0.437891
H	 1.2870772598	 1.6398809741	 0.3571252929	 0.130882
H	 0.1376711046	 2.0843015809	-0.9177267291	 0.126122
H	-0.3667071483	 2.0956366849	 0.7874039156	 0.117676
H	-0.1039009985	-0.3743186035	 0.9070186239	 0.111934
H	-1.2543815856	 0.0611023926	-0.3615285367	 0.108085
H	 2.631026214	-1.0566147876	-1.5194024445	 0.127497
H	 0.0247533392	-2.6001228896	 0.7803888573	 0.146703
H	-1.1894547071	-2.9166390524	-0.4737506942	 0.126586
H	 0.2513908397	-3.9317790866	-0.3529926795	 0.13159
H	 1.072135187	-3.4878828632	-2.7567758867	 0.122982
H	-0.4537801304	-2.627824092	-3.0197133679	 0.124817
H	 1.0799089106	-1.8072135807	-3.3455017647	 0.130016
