20
gdb 97885	3.69409	0.63402	0.55019	4.	86.72	-0.2363	0.0382	0.2744	2033.1496	0.168922	-403.166085	-403.154984	-403.154039	-403.204603	37.533	
C	-0.3043977281	 1.1347480739	-0.0181076938	-0.363854
C	-0.5764318679	-0.1138889311	-0.8774145992	-0.317777
C	 0.5899141466	-0.5378242762	-1.6475292769	 0.114738
C	 1.5747464531	-0.8493900985	-2.2703181385	 0.019895
C	 2.7499936998	-1.253039356	-3.0303131655	-0.488742
C	 2.7522905513	-2.6832408878	-3.612352849	 0.433487
O	 3.7121887475	-3.0764165212	-4.249723769	-0.380092
N	 1.6423543798	-3.4192819904	-3.3605148139	-0.311946
C	 1.4839652877	-4.7777972778	-3.8359182352	-0.334356
H	 0.5001197239	 0.9458789053	 0.6975407093	 0.130636
H	-0.0072034186	 1.9798537767	-0.6446928504	 0.131084
H	-1.2032310692	 1.4162767421	 0.5381649394	 0.117088
H	-0.9063146367	-0.9369986542	-0.2305489855	 0.128466
H	-1.4120567296	 0.0865577004	-1.5601480559	 0.130549
H	 2.9126451107	-0.5816337506	-3.8815409842	 0.159381
H	 3.6553253374	-1.1768288762	-2.4169903521	 0.159566
H	 0.909893571	-2.9853898846	-2.8202799576	 0.251934
H	 1.3637945679	-5.480235871	-3.0034156924	 0.125008
H	 0.6155323256	-4.8697090551	-4.4978796444	 0.12505
H	 2.3856846779	-5.0360325677	-4.3927448852	 0.169888
