14
gdb 28111	5.33996	1.31215	1.06027	2.2506	71.68	-0.2096	-0.0138	0.1958	1065.0252	0.102837	-436.719522	-436.712699	-436.711754	-436.750849	25.752	
C	 0.080571066	 1.443233488	 0.0527247036	-0.489841
C	-0.0813800854	-0.0318405073	 0.0036720856	 0.36921
C	-1.1716259792	-0.8288884565	-0.2501189192	-0.459652
C	-0.6548167699	-2.1496636767	-0.1441137954	 0.29737
C	 0.6651701275	-2.0587258209	 0.1558233868	 0.309969
O	 1.0629870085	-0.7728688544	 0.256798567	-0.22465
N	 1.2560338987	-3.2825248048	 0.279485214	-0.351226
C	 0.2520757731	-4.0801524955	 0.0452560611	 0.036811
O	-0.9560941449	-3.4761666062	-0.2235073799	-0.201056
H	 0.8137912493	 1.7907890205	-0.6839170939	 0.145257
H	-0.8753312683	 1.9267663513	-0.1597264949	 0.138687
H	 0.4236061004	 1.7764056359	 1.0388196098	 0.145256
H	-2.1669841063	-0.4818649747	-0.4727959813	 0.129144
H	 0.2517618905	-5.1576451986	 0.0361588168	 0.154721
