17
gdb 15414	3.63649	1.12761	0.95018	3.7472	66.56	-0.2515	0.0019	0.2533	1210.5954	0.140985	-400.982872	-400.974198	-400.973253	-401.016793	30.2	
O	-0.1942316418	 1.2754039284	-0.3053785984	-0.416491
C	-0.0969222152	-0.1367058724	-0.2482222737	-0.071614
C	-1.4923786118	-0.6752392774	 0.0573098795	-0.201464
C	-1.526856469	-2.1725319035	 0.2639326052	-0.015815
C	-2.7915387207	-2.9503678369	 0.0245454286	-0.251512
N	-1.6592082067	-3.0942467431	-0.8575700632	-0.060892
C	-1.6747299373	-2.7911055176	-2.2055801643	 0.13655
O	-2.5960458455	-3.0111655341	-2.9538383019	-0.289481
H	 0.6714149708	 1.6313702699	-0.5256379208	 0.290169
H	 0.2682524114	-0.5537005658	-1.2003968376	 0.093154
H	 0.60480535	-0.4608782168	 0.5382136751	 0.089513
H	-1.851433123	-0.184557365	 0.9701007439	 0.122218
H	-2.1758261451	-0.3874761095	-0.7495946857	 0.122587
H	-0.8633965418	-2.5403812782	 1.0466047442	 0.102676
H	-3.0258917614	-3.8086660352	 0.6479621691	 0.128819
H	-3.6516315846	-2.4130848014	-0.3677637907	 0.13909
H	-0.7013333084	-2.3885192415	-2.5465791694	 0.082492
