17
gdb 56123	3.63212	0.72758	0.6378	2.4749	70.96	-0.2546	-0.0968	0.1577	1703.6149	0.130854	-459.006157	-458.995855	-458.99491	-459.043965	34.196	
C	 0.2015744202	 1.4394777465	 0.0473163402	-0.474776
C	 0.0154731283	-0.0654695994	 0.0410010022	 0.384476
O	-0.1578786636	-0.6961124121	 1.0587676142	-0.292379
C	 0.0399097568	-0.7359084201	-1.3285407035	-0.31806
C	 0.1515341053	-2.2543238258	-1.2502046587	-0.30947
C	-0.4364365563	-2.9642100729	-2.4419120954	 0.281006
O	-1.1493563244	-2.4567743774	-3.2783478492	-0.28101
C	-0.1116711955	-4.4584012027	-2.5958418437	 0.094732
O	 0.6548895089	-5.051040285	-1.8843142555	-0.214509
H	 1.2321473356	 1.6828941173	-0.2374798725	 0.144835
H	-0.4520959396	 1.9180833829	-0.6896139008	 0.139628
H	 0.0008980555	 1.8365882587	 1.0428333712	 0.146204
H	-0.8897956384	-0.4615983611	-1.8458628637	 0.152533
H	 0.8411228845	-0.2994436137	-1.9361426903	 0.123157
H	 1.1808600867	-2.5990638862	-1.1073066616	 0.145333
H	-0.377378144	-2.6106429833	-0.3543308406	 0.169012
H	-0.6500124198	-4.9268532359	-3.4466925323	 0.109289
