25
gdb 118074	3.36906	0.71234	0.61582	0.6237	86.46	-0.2485	0.0796	0.3281	1875.4403	0.225707	-426.617021	-426.605065	-426.604121	-426.654755	42.415	
C	-0.1530842708	 1.3536546106	-0.0087342346	-0.237281
O	 0.0244903839	-0.0417618439	-0.0017004448	-0.246955
C	 0.7058365069	-0.5576917055	 1.1412624784	 0.145686
C	-0.2600627067	-0.6784138174	 2.3239743796	-0.411809
C	 1.3344725439	-1.896503629	 0.7012615436	 0.013424
C	 2.3104523675	-1.6662682238	-0.4634331673	-0.405477
C	 1.997176038	-2.6294273801	 1.8803014597	-0.181013
C	 2.6055707139	-3.9803501072	 1.5192738915	-0.085611
O	 3.0058099234	-4.6018443024	 2.7337129992	-0.422989
H	 0.807982504	 1.887386097	 0.0615875789	 0.1024
H	-0.6294467408	 1.6127774655	-0.9580543767	 0.124645
H	-0.7997767829	 1.707042252	 0.8082919404	 0.104282
H	 1.5212619084	 0.1366969399	 1.4120975363	 0.058383
H	-1.0137827924	-1.4478003834	 2.1269549338	 0.120426
H	 0.2641390416	-0.9315748955	 3.2487366803	 0.123045
H	-0.7798745869	 0.2684958859	 2.4948191495	 0.113422
H	 0.5026056442	-2.5151334716	 0.3338020762	 0.077702
H	 2.6315977678	-2.6092291828	-0.914662626	 0.109428
H	 1.8351132658	-1.0644919856	-1.239671103	 0.130109
H	 3.2095360655	-1.1386090935	-0.1210734395	 0.104722
H	 2.7815108614	-2.0003834335	 2.3225648051	 0.097727
H	 1.2648754939	-2.8178944484	 2.6711938883	 0.109918
H	 1.8578019302	-4.5926121834	 0.9871725144	 0.083194
H	 3.464064999	-3.8540090212	 0.8437346505	 0.088584
H	 3.4426581212	-5.4302799927	 2.5161785564	 0.284036
