20
gdb 12115	3.08079	1.89356	1.46632	1.3061	74.59	-0.2417	0.0745	0.3162	945.3304	0.175867	-348.975963	-348.967555	-348.966611	-349.008411	33.365	
C	 0.0352761527	 1.4953655056	-0.1241251263	-0.485063
C	-0.0503060415	-0.0150799823	 0.0002953203	 0.321008
C	 1.047925412	-0.8059738174	-0.6791294139	-0.314568
C	 1.0129757815	-0.7005145461	 0.8271703291	-0.289852
C	-1.4401128994	-0.6203322492	 0.0432122865	 0.334889
O	-1.4584615603	-2.0292898746	 0.0474111077	-0.459104
C	-2.5209087771	-0.0314384384	 0.9020225641	-0.295684
C	-2.6287076532	 0.0452024517	-0.6100185068	-0.332103
H	 1.0795749632	 1.8185953251	-0.0853773661	 0.115539
H	-0.3810845786	 1.8505301187	-1.0728776841	 0.118315
H	-0.4915430299	 2.0059512895	 0.6893604473	 0.119088
H	 0.8155514717	-1.7724099824	-1.1113073226	 0.094889
H	 1.8032078922	-0.2490890684	-1.2236311556	 0.105574
H	 1.7537188069	-0.0813013673	 1.3218797091	 0.102709
H	 0.7210370996	-1.5902521483	 1.3720879317	 0.125074
H	-1.3176677943	-2.3255970463	-0.8581136363	 0.282269
H	-3.1596077542	-0.7416072189	 1.4135962417	 0.121763
H	-2.3205061385	 0.8810272305	 1.4511215317	 0.113423
H	-2.5076837932	 1.0108518471	-1.0863617391	 0.112291
H	-3.3477610493	-0.6100344187	-1.0895719685	 0.109544
