14
gdb 3653	3.58098	3.30023	1.75487	3.368	59.65	-0.2418	-0.0025	0.2393	704.9581	0.113164	-324.58767	-324.580652	-324.579708	-324.619193	24.301	
C	 0.0768309562	 1.5047311097	 0.0143352383	-0.493041
C	-0.0613613748	 0.0251646008	-0.0576139463	 0.351408
C	-1.1260709936	-0.8266362088	 0.0051891117	 0.072288
C	-2.580964177	-0.5215650495	 0.1769992742	-0.512971
C	-0.5114436719	-2.1055459196	-0.1346450036	-0.027223
N	 0.7876062819	-2.0344873342	-0.2679194629	-0.143827
O	 1.0804496256	-0.6747608899	-0.2193540546	-0.212469
H	 0.7160503478	 1.7990365485	 0.8533292565	 0.150747
H	 0.5307831158	 1.9015733616	-0.8997640514	 0.150747
H	-0.9001702462	 1.973890796	 0.1450129179	 0.138067
H	-3.1722352745	-0.8878451931	-0.6696076546	 0.136328
H	-2.9868153889	-0.9893035075	 1.0808893747	 0.136332
H	-2.7560818938	 0.5544724505	 0.2579122688	 0.128135
H	-0.9857644765	-3.0779585344	-0.1413277588	 0.125478
