20
gdb 115223	4.0761	0.95514	0.81522	3.7182	76.4	-0.2379	0.0298	0.2678	1409.7995	0.172182	-440.323846	-440.314773	-440.313829	-440.358198	33.251	
C	-0.1764579802	 1.371865182	 0.0244541433	-0.243628
O	 0.0942057598	-0.0125257763	 0.0634391776	-0.242884
C	 0.7262474088	-0.5296252918	-1.0893571415	 0.131693
C	 1.319405833	-1.8890359495	-0.7381442572	-0.235571
C	 2.0648128526	-2.4710729003	-1.9438021589	-0.321173
C	 1.31367692	-2.385831529	-3.2697164841	 0.399535
O	 1.6115048284	-3.0739717297	-4.2279849181	-0.377205
N	 0.3260934958	-1.4384879061	-3.3461357548	-0.311221
C	-0.2718757394	-0.6987885983	-2.2455791849	-0.176611
H	 0.7333158729	 1.9560184769	-0.1828335601	 0.108749
H	-0.9351605049	 1.6364801931	-0.7263082068	 0.108809
H	-0.5564687921	 1.6503641311	 1.010208682	 0.132762
H	 1.534895184	 0.1489860726	-1.4113499737	 0.071358
H	 1.9877985075	-1.7869840743	 0.1216979432	 0.109604
H	 0.5025316734	-2.5532012002	-0.4303874514	 0.112721
H	 3.0123467468	-1.9382182872	-2.0966216503	 0.131564
H	 2.3276145906	-3.5203624818	-1.7922511926	 0.133315
H	-0.1501284395	-1.4296440356	-4.2369582456	 0.245429
H	-1.1606287575	-1.2097683436	-1.845358296	 0.114645
H	-0.5977810602	 0.2767543779	-2.6211365302	 0.108109
