18
gdb 109196	5.06553	0.81424	0.7295	4.749	79.09	-0.2461	0.014	0.2601	1501.0425	0.147988	-401.973844	-401.964891	-401.963947	-402.008114	32.35	
O	-0.0017786749	 1.396154745	 0.0819088052	-0.412611
C	-0.0233312958	-0.0163438441	 0.0162869309	-0.177899
C	-1.4368975437	-0.4969394311	-0.0315347103	 0.309631
C	-2.5413205912	 0.2486167439	-0.0133864078	-0.15698
C	-3.7999072762	-0.5816851398	-0.0164747227	-0.269902
C	-3.2683525287	-1.9924894174	-0.4182200145	-0.138678
C	-1.7545437174	-1.9765808645	-0.0486664246	-0.322717
C	-4.0094531637	-3.0997832136	 0.1760684161	 0.262946
N	-4.5943234616	-3.9750504956	 0.6541019444	-0.329002
H	 0.9154807648	 1.68231926	 0.1062066937	 0.292775
H	 0.5150640719	-0.3881741772	-0.8741555661	 0.097961
H	 0.4815872978	-0.4706232332	 0.8880482424	 0.099915
H	-2.5479441844	 1.3291539429	 0.0429198701	 0.117279
H	-4.2695672545	-0.6013850602	 0.9755551022	 0.129995
H	-4.5623655135	-0.2266760232	-0.7169260866	 0.1205
H	-3.3497383108	-2.0864156761	-1.5063037257	 0.130259
H	-1.1580138613	-2.5482951446	-0.7678721451	 0.116887
H	-1.5791273269	-2.4303097111	 0.9357183084	 0.129641
