19
gdb 39532	3.93241	1.47687	1.24861	0.2782	85.98	-0.2058	0.0186	0.2244	1039.0535	0.16215	-348.764184	-348.757419	-348.756475	-348.79487	28.701	
C	-0.0596350778	 1.4885357885	-0.0131352915	-0.299687
C	 1.3706003411	 1.9901460844	 0.0791065019	-0.077173
C	 2.2583173997	 0.9916673463	 0.0607215988	-0.19768
C	 1.5904463202	-0.3338433752	 0.0212931501	 0.361419
C	 2.0784442182	-1.6207312105	-0.5358087585	-0.19768
C	 1.5305498034	-2.6671802066	 0.0887678236	-0.077172
C	 0.621292557	-2.2437431633	 1.2287883432	-0.299687
C	 0.6504147699	-0.7150681788	 1.1756332077	-0.088826
C	 0.0843448771	-0.0343550611	-0.03750796	-0.088826
H	-0.6687863906	 1.8403876864	 0.8304857544	 0.108561
H	-0.5546509805	 1.8564040803	-0.9215875733	 0.107211
H	 1.612364186	 3.0420182945	 0.1799546103	 0.091876
H	 3.3352780233	 1.1057107189	 0.1138475806	 0.092277
H	 2.760621042	-1.6759941483	-1.3767921764	 0.092277
H	 1.6744812719	-3.7061644873	-0.1848210987	 0.091876
H	-0.3926283724	-2.6498297345	 1.1120855817	 0.108561
H	 0.990055595	-2.6158301676	 2.19378477	 0.107211
H	 0.6971101508	-0.1551344716	 2.1041892677	 0.082732
H	-0.5456294052	-0.6137779342	-0.7048339324	 0.082732
