23
gdb 102049	1.90071	1.32169	0.97135	3.8699	82.13	-0.2401	-0.0163	0.2237	1346.4507	0.201715	-425.434864	-425.423619	-425.422675	-425.470911	41.199	
C	 0.0221258539	 1.5204636166	 0.1347108812	-0.41773
C	 0.0035037704	-0.0146974184	-0.0020060193	 0.237161
C	 0.6023874955	-0.6414885432	 1.2746380691	-0.419855
C	-1.4614194788	-0.4703359453	-0.146916195	-0.410587
C	 0.7929422849	-0.4502693127	-1.2882527347	-0.057647
C	 2.1838772215	 0.1642975198	-1.4430502791	-0.125311
O	 2.709786048	-0.3557111926	-2.658694276	-0.419004
C	 0.9356991305	-1.9661511989	-1.3559863167	 0.174126
O	 0.1044724192	-2.7160783769	-1.7997875338	-0.267078
H	 1.0179157851	 1.9064225489	 0.3729219778	 0.111715
H	-0.3212201682	 2.0073420638	-0.7844744599	 0.114828
H	-0.6480930263	 1.8292370532	 0.9441908607	 0.113038
H	 0.0615348787	-0.2814610113	 2.155996177	 0.116163
H	 0.5228570214	-1.7333990062	 1.2684643824	 0.12411
H	 1.6570124208	-0.3798168961	 1.4091425401	 0.110704
H	-1.944140172	 0.0296381033	-0.9934311995	 0.111623
H	-1.5384657148	-1.5470785063	-0.3128394811	 0.140736
H	-2.025594572	-0.2189147488	 0.7576034092	 0.1051
H	 0.1950917473	-0.1539846194	-2.1581286583	 0.102384
H	 2.1263195384	 1.2594074184	-1.4744161446	 0.099328
H	 2.8222306816	-0.1118308417	-0.5884555549	 0.091197
H	 3.6188806238	-0.0565165909	-2.7530020687	 0.290605
H	 1.886329321	-2.3612197351	-0.9298230759	 0.074391
