16
gdb 12639	3.37283	1.91497	1.27688	2.96	67.82	-0.2447	-0.0495	0.1951	936.2174	0.130154	-383.781981	-383.774133	-383.773188	-383.81426	28.714	
C	-0.1082486356	 1.5130424656	 0.0510636349	-0.495591
C	-0.0336508303	 0.0230548981	-0.0244173605	 0.211131
C	-0.075291474	-0.7853996939	-1.097735355	-0.150048
C	 0.1085150962	-2.2496268861	-0.7761858	-0.29138
C	 0.0092393641	-2.2859103407	 0.7582544673	 0.060118
O	 0.9437102783	-3.1288564538	 1.3822229262	-0.439507
C	 0.201594835	-0.8202075499	 1.1683647593	 0.288688
O	 0.5465805818	-0.4757119672	 2.2791912456	-0.350326
H	 0.7664161978	 1.909270744	 0.5776743675	 0.149192
H	-0.1597957102	 1.9683571821	-0.9409597387	 0.124476
H	-0.9854875518	 1.8321905016	 0.625171014	 0.140977
H	-0.2038146878	-0.437960001	-2.1186089051	 0.111011
H	-0.6273163684	-2.8843494174	-1.2801757678	 0.116837
H	 1.1007587704	-2.6007785112	-1.084339172	 0.139252
H	-1.0226553962	-2.5614428099	 1.0413697309	 0.093374
H	 1.1567445607	-2.6998434203	 2.2238551036	 0.291797
