18
gdb 79270	2.6506	1.57092	1.28731	1.1302	75.73	-0.2412	-0.0378	0.2034	1036.3219	0.147136	-401.889885	-401.881935	-401.880991	-401.922631	30.302	
C	-0.0584860508	 1.575302073	 0.0088994002	-0.421858
C	 0.0921514577	 0.0670140828	 0.0661677504	 0.043165
N	 1.1020510075	-0.5653589849	-0.8457770333	-0.156447
C	 2.3788254198	-0.6315819356	-0.0341112319	-0.040216
C	 2.1681372117	-0.0316154436	 1.3555579673	-0.297221
C	 0.7546067068	-0.6528254852	 1.2825253006	 0.195263
C	-0.0258470864	-1.0119346532	 2.4962137307	 0.029814
O	 0.3033994859	-0.7494659073	 3.6273991887	-0.245394
C	 1.3111031246	-1.6362261689	 0.1604744965	-0.101968
H	 0.8845420411	 2.0966558317	 0.187069775	 0.12822
H	-0.4182477762	 1.8675248263	-0.982774067	 0.133991
H	-0.787781302	 1.918821631	 0.7503864691	 0.124472
H	-0.8656890258	-0.4138027563	-0.1631113357	 0.087529
H	 3.292690607	-0.7212861764	-0.6057217521	 0.106683
H	 2.7784663294	-0.5519511557	 2.0967354689	 0.125461
H	 2.2545145089	 1.047363372	 1.5039502663	 0.107135
H	-0.9763108129	-1.5569049046	 2.2892461166	 0.073386
H	 1.2212023638	-2.6979415952	-0.0274893704	 0.107986
