18
gdb 73922	2.67009	1.42479	1.01159	5.4315	83.48	-0.2084	-0.0271	0.1814	1168.9191	0.148823	-401.972542	-401.964413	-401.963469	-402.005027	31.661	
N	 0.1083183529	 1.3457308514	 0.1813832451	-0.598825
C	 0.0192964456	-0.0094546718	 0.0603628909	 0.296816
C	-1.0975858132	-0.8019941868	 0.00786624	 0.126961
C	-0.7246462286	-2.2718854097	 0.0681511599	-0.317577
C	 0.8004353574	-2.2712598008	-0.0168449025	-0.040871
C	 1.4343744972	-1.6646483953	-1.2319498964	-0.279577
C	 1.2638702701	-0.8205261925	 0.0232594729	-0.130253
C	-2.4573028135	-0.3487843895	-0.0951177099	 0.049358
O	-3.4385984978	-1.0717018106	-0.1408812123	-0.308875
H	 0.9494050165	 1.7921735908	-0.1463137687	 0.261871
H	-0.7292711913	 1.8982413595	 0.0911593026	 0.264427
H	-1.0666247993	-2.7285029969	 1.0052710138	 0.113736
H	-1.1892850074	-2.8473540849	-0.7402788276	 0.120082
H	 1.3582128154	-3.0283540282	 0.5209793526	 0.092908
H	 2.4461772661	-1.9726135957	-1.473477152	 0.116265
H	 0.8118087972	-1.4289889666	-2.0891525918	 0.12187
H	 2.1400129116	-0.4837038069	 0.5667090987	 0.094785
H	-2.5883201388	 0.7619014945	-0.1400929853	 0.016899
