25
gdb 123189	9.80325	0.37928	0.37098	0.8702	97.15	-0.2571	0.0593	0.3164	2947.757	0.226434	-352.340037	-352.328347	-352.327402	-352.378132	41.46	
C	-0.0472617748	 1.6120359425	 0.0594940617	-0.379373
C	-0.0083287777	 0.0820016297	 0.0190187652	-0.163662
C	 0.6987135643	-0.4718350567	-1.2226949548	-0.158701
C	 0.741551509	-2.0028114414	-1.270027748	-0.184462
C	 1.4486666547	-2.55606891	-2.5119126136	-0.179369
C	 1.48814991	-4.0863180292	-2.5533152244	-0.17403
C	 2.2024820918	-4.6280048591	-3.8082544436	-0.356106
C	 2.2465491647	-6.0843129176	-3.8592594182	 0.293621
C	 2.2691985656	-7.286159983	-3.8767943108	-0.438739
H	 0.9639907705	 2.0341136072	 0.0577160347	 0.112774
H	-0.574463058	 2.0179501265	-0.8111827988	 0.112774
H	-0.557761198	 1.9762490263	 0.9565976263	 0.110535
H	 0.4939008479	-0.29593781	 0.9195175426	 0.093788
H	-1.0326695145	-0.3119794753	 0.057430869	 0.093789
H	 0.1967421543	-0.0937900501	-2.1245445751	 0.090535
H	 1.7240685042	-0.0777218785	-1.2620413334	 0.090534
H	 1.2437012918	-2.3804690777	-0.3684707392	 0.093451
H	-0.2836495382	-2.3965399288	-1.2309653663	 0.093451
H	 0.946630759	-2.1797785459	-3.4143962181	 0.093196
H	 2.4746223006	-2.1636975877	-2.5515428712	 0.093196
H	 1.9961525864	-4.4721924217	-1.6615072828	 0.107916
H	 0.4684055802	-4.48826433	-2.5241995767	 0.107915
H	 1.6995025571	-4.2468841345	-4.7070537351	 0.127716
H	 3.2257142113	-4.2308678841	-3.8452228986	 0.127719
H	 2.2950635379	-8.3470601609	-3.9027595906	 0.191533
