15
gdb 123378	3.90334	1.00465	0.94946	1.8513	71.99	-0.2123	0.0161	0.2284	1248.7087	0.114371	-412.969908	-412.961765	-412.96082	-413.00365	29.68	
C	 0.253808197	-0.2284909551	-1.1700761888	-0.46474
C	 0.1209957866	 0.5188028177	-0.238153051	 0.3177
C	-0.0004291444	 1.4110787724	 0.9194271501	-0.317795
N	 1.1994098403	 2.1866463176	 1.2167989173	-0.364924
C	 1.4943760566	 3.2839024213	 0.4356422032	 0.447312
N	 0.5862501636	 3.9447390089	-0.2717478955	-0.303017
N	 1.337411683	 4.9599682461	-0.7921883644	-0.186069
C	 2.6132431237	 4.8505170507	-0.3918630846	 0.02572
N	 2.7609347631	 3.7985971538	 0.3907574469	-0.335339
H	 0.362174265	-0.8797730484	-2.0017629238	 0.198839
H	-0.8193419475	 2.1184232985	 0.7600648404	 0.169889
H	-0.2540599428	 0.8233274505	 1.8086029525	 0.135862
H	 2.0224053205	 1.6358026704	 1.4164816498	 0.251811
H	 0.9076523453	 5.6377698987	-1.3980619203	 0.27975
H	 3.3893563	 5.5413868271	-0.6855807419	 0.145001
