14
gdb 31480	3.95794	1.02576	0.81878	2.5294	73.45	-0.2401	-0.0261	0.214	1312.0026	0.099752	-436.67894	-436.670435	-436.669491	-436.714117	29.902	
O	 0.2322208367	 0.9769433526	-0.8178279548	-0.418804
C	-0.086919027	 0.2078539643	 0.3120305637	-0.144103
C	-1.4124483108	-0.4638416593	 0.1454505027	 0.372528
N	-2.1740374715	-0.380850516	-0.8934312653	-0.379027
C	-3.2876100206	-1.1745725829	-0.5812339865	 0.114894
C	-3.101557008	-1.6903997002	 0.6639284765	-0.124401
O	-1.9030030801	-1.241449087	 1.1390344097	-0.167446
C	-4.3790568111	-1.3608737486	-1.4587704697	 0.234001
C	-5.3110795548	-1.5231695852	-2.2018770738	-0.407061
H	-0.4881094312	 0.8619368633	-1.4525024441	 0.306059
H	 0.6824762238	-0.55958333	 0.4918991552	 0.125496
H	-0.1153209792	 0.8390130527	 1.2137023158	 0.126531
H	-3.6732580512	-2.3377515364	 1.304993436	 0.164028
H	-6.131749745	-1.6634988973	-2.8611712255	 0.197306
