19
gdb 86283	2.04987	1.52497	1.27718	3.4253	76.36	-0.2428	0.0222	0.265	1114.0871	0.157594	-419.195668	-419.185989	-419.185045	-419.229748	35.553	
C	-0.0228194686	 1.4717760602	-0.1336334281	-0.342341
N	-0.0596425771	 0.0404907212	 0.094179966	-0.099491
C	-1.3197426358	-0.6073156332	 0.5043517919	-0.224042
C	-0.4852310884	-1.6528966838	 1.2804834603	 0.127113
O	-0.2222144688	-2.8449204523	 0.5989394406	-0.428681
C	 0.6838075527	-0.5800810593	 1.2197645881	 0.089001
C	 2.0969723622	-1.0513384877	 0.9004393826	-0.437599
C	 0.6711347168	 0.247171847	 2.4408006538	 0.259521
N	 0.6316672649	 0.922358029	 3.3795791452	-0.348127
H	 0.9993919339	 1.7851672377	-0.3672986942	 0.129771
H	-0.6513186017	 1.7094408214	-0.9976155656	 0.128085
H	-0.3779131282	 2.0588362148	 0.7293212958	 0.124703
H	-1.9421366421	 0.0086054831	 1.1721245788	 0.1114
H	-1.9367611508	-0.9823918211	-0.3194457699	 0.106895
H	-0.8213132131	-1.9231241786	 2.2806375982	 0.114557
H	-0.0596821024	-2.6299384534	-0.3269969157	 0.293316
H	 2.0713933163	-1.7561244325	 0.0679060215	 0.119988
H	 2.7308920005	-0.2035501207	 0.624833292	 0.134802
H	 2.5445692397	-1.5468743719	 1.7662520587	 0.14113
