16
gdb 6959	2.62962	2.36275	1.72652	2.7516	60.06	-0.2691	0.0051	0.2741	823.1507	0.129416	-420.925609	-420.917683	-420.916739	-420.957708	28.735	
C	 0.0146930968	 1.4950778938	-0.0313451477	-0.420455
C	-0.0516178349	-0.0385926867	-0.0046693669	 0.197261
C	-1.4838567348	-0.5577309725	-0.0405332345	-0.418782
O	 0.6838841337	-0.6115673078	-1.0947060632	-0.279562
C	 1.9700289086	-0.9065640837	-0.6234951745	 0.016299
O	 1.8733856208	-1.1064734128	 0.786892259	-0.225756
C	 0.7028452123	-0.5692961593	 1.2205266024	 0.427722
O	 0.3718779426	-0.5363107118	 2.3683233497	-0.34429
H	 1.0496515706	 1.8503837136	-0.0357752108	 0.125275
H	-0.4825333626	 1.8690372657	-0.9302912077	 0.131269
H	-0.4831981139	 1.9078276633	 0.8500122885	 0.144389
H	-2.006374083	-0.1640421577	-0.9165608763	 0.126899
H	-1.4941447539	-1.6492218263	-0.0890361194	 0.131309
H	-2.0111806611	-0.2413102367	 0.8626387208	 0.143993
H	 2.3264399377	-1.8286305985	-1.0907204647	 0.134079
H	 2.6814945912	-0.0868109026	-0.8071085445	 0.110348
