21
gdb 106169	2.65612	1.51235	1.34814	1.7518	81.14	-0.2214	0.0824	0.3039	1085.8371	0.184006	-387.066966	-387.058946	-387.058002	-387.099582	31.629	
C	 0.1085070113	 1.521135729	-0.1436144473	-0.375991
C	-0.004917572	 0.0075938276	 0.0875146933	-0.321306
C	-1.4210329051	-0.4911999005	 0.0620659032	 0.328727
C	-2.0315266929	-1.8955941189	-0.0933732951	-0.173286
C	-2.9515804115	-1.6665519674	 1.1040230485	-0.230809
C	-2.5919901629	-0.146960883	 1.0407720923	-0.124767
C	-3.5854765524	 0.5840646393	 0.1406465093	-0.081448
O	-3.5158562958	-0.1197274526	-1.1080123635	-0.273037
C	-2.2771222234	-0.7994641557	-1.1163196392	 0.067119
H	 1.1530692911	 1.846298492	-0.1165789711	 0.112185
H	-0.3099529826	 1.8029940283	-1.1151878262	 0.122941
H	-0.4328643414	 2.0812952671	 0.6264211943	 0.116993
H	 0.5714404733	-0.5255452557	-0.6793275801	 0.099468
H	 0.4611113308	-0.2510746286	 1.0481016298	 0.097152
H	-1.5371031382	-2.824057865	-0.3602814088	 0.077908
H	-4.0098025213	-1.9263980377	 0.98854822	 0.096973
H	-2.5613923999	-2.1374168034	 2.0096283784	 0.099922
H	-2.3625581047	 0.3554119308	 1.9805743492	 0.070917
H	-4.618283104	 0.5363105161	 0.5022337784	 0.104508
H	-3.3077380547	 1.6407585654	 0.0006042114	 0.089342
H	-1.8547814636	-0.9127507572	-2.1083742069	 0.096486
