21
gdb 101377	3.51444	0.96522	0.85856	2.6906	78.04	-0.2498	0.06	0.3098	1397.9748	0.182656	-424.185603	-424.176579	-424.175635	-424.219585	34.644	
O	 0.1117801271	 1.4348650028	-0.1356964485	-0.425975
C	 0.0594455157	 0.0447774086	 0.099036276	-0.06056
C	-1.3786037879	-0.4721817374	-0.0032312084	 0.083503
O	-1.9378192114	-0.0300630803	-1.2493711506	-0.442888
C	-1.49237546	-1.9807455031	 0.1547303676	-0.011203
C	-1.2061210818	-2.6409579264	 1.5513864953	-0.267345
C	-2.5897284871	-3.3023024786	 1.4997211378	-0.037976
C	-3.6551891946	-2.2497307148	 1.4057999951	-0.27434
C	-2.8914717927	-2.6171265485	 0.1639679879	-0.057182
H	-0.5123656858	 1.5894744417	-0.8575020839	 0.283885
H	 0.6912810762	-0.5099702775	-0.6206013036	 0.06668
H	 0.4672085927	-0.1393897758	 1.0990413013	 0.108566
H	-1.9805128642	 0.0385282262	 0.7567995822	 0.093941
H	-1.5511181231	-0.5699175847	-1.949355625	 0.279586
H	-0.8643456082	-2.4600716053	-0.6078084241	 0.064213
H	-0.3731062168	-3.3455151865	 1.5148608438	 0.106547
H	-1.043031526	-1.9551988587	 2.3904416528	 0.09932
H	-2.8086633023	-4.3164608177	 1.8099552915	 0.086558
H	-4.6764587474	-2.6158529594	 1.4330637745	 0.1129
H	-3.5228040077	-1.2836954604	 1.8873624035	 0.108347
H	-3.3953018148	-3.015350704	-0.7082073952	 0.08342
