24
gdb 97369	3.32081	0.74617	0.64534	2.8097	91.49	-0.243	0.0301	0.2731	1852.3009	0.213881	-405.559626	-405.548104	-405.54716	-405.59688	41.124	
C	-0.0222204762	 1.3884921571	-0.0451969683	-0.31384
N	 0.0506358182	-0.056935262	-0.0537261278	-0.213524
C	-1.0351046696	-0.689187611	 0.0132503469	 0.130321
O	-1.0528982131	-2.0341002978	 0.0497350751	-0.214948
C	-2.3377149819	-2.6796170106	-0.0371007049	 0.128219
C	-2.7064556997	-2.8484689999	-1.5098228167	-0.403151
C	-2.2226368613	-3.9950848544	 0.750664403	 0.031475
C	-1.8200870209	-3.7295340097	 2.2079613456	-0.400139
C	-3.5213329856	-4.8117661017	 0.6872389005	-0.401593
H	 0.4578517233	 1.7877254313	-0.9461932093	 0.125361
H	-1.0496178447	 1.7872000692	 0.0031708108	 0.092512
H	 0.5367835679	 1.7823318834	 0.8117355005	 0.125854
H	-2.031035157	-0.2185363223	 0.0656047797	 0.069582
H	-3.0840469731	-2.0382384575	 0.4578454745	 0.076804
H	-1.9958109245	-3.5152534333	-2.0081224265	 0.130988
H	-3.7128091026	-3.2589527142	-1.6238421738	 0.122986
H	-2.6787543735	-1.8815900376	-2.0211446788	 0.120772
H	-1.4219331286	-4.5762440515	 0.2733624664	 0.087352
H	-2.598487657	-3.1597233579	 2.7307571787	 0.106008
H	-1.6844149013	-4.6722250335	 2.7471465719	 0.110835
H	-0.888140977	-3.1641072174	 2.2647710132	 0.139609
H	-3.4300150693	-5.7127884711	 1.3012518847	 0.117893
H	-4.3703132731	-4.2358292829	 1.0756486321	 0.112806
H	-3.7666838294	-5.1299377347	-0.3293135573	 0.117819
