19
gdb 15988	3.66739	1.4964	1.20902	1.9354	71.78	-0.2427	0.0648	0.3075	1055.212	0.165293	-365.017068	-365.008851	-365.007907	-365.049927	30.35	
C	 0.2033226066	 1.5532769186	 0.0941897951	-0.383102
C	-0.0089977223	 0.0370366467	 0.0384563664	-0.189747
C	 0.5018564702	-0.5660472554	-1.2591815586	 0.079739
O	 1.9358927013	-0.4079101757	-1.420875317	-0.300944
C	 2.140298122	-1.827275299	-1.611362531	-0.12647
C	 0.6594320812	-2.0857480204	-1.3710087768	 0.270165
C	-0.0425054281	-3.158793233	-0.6407292051	-0.303106
N	-0.1536647669	-3.0351268676	-2.1115728635	-0.360052
H	 1.2639036814	 1.7918367729	-0.0231351971	 0.140586
H	-0.3461019104	 2.0601809848	-0.7068571282	 0.113556
H	-0.13815252	 1.9656541938	 1.0480463724	 0.111816
H	 0.5044475057	-0.4480921832	 0.876794826	 0.101048
H	-1.0773171974	-0.2000417115	 0.1361449835	 0.090687
H	-0.0297900391	-0.1247651575	-2.1183857288	 0.07054
H	 2.4833594805	-2.067237154	-2.6253696925	 0.11005
H	 2.8420479634	-2.2433585276	-0.8784194743	 0.105206
H	 0.5028931904	-4.0345356638	-0.2983757399	 0.122304
H	-0.896137423	-2.8881161626	-0.0241283872	 0.115946
H	-1.0467623355	-2.6169468156	-2.3645335134	 0.231778
