24
gdb 6837	2.95029	1.40002	1.24686	0.0838	85.13	-0.2751	0.0811	0.3562	1166.8771	0.222531	-314.277387	-314.267825	-314.266881	-314.310941	36.658	
C	 0.0687591845	 1.6177301565	 0.0505989627	-0.379907
C	-0.0958611489	 0.0952259327	-0.0268635794	-0.203925
C	 0.6707811603	-0.5201750083	-1.1917992824	 0.040281
C	 2.2236283523	-0.537884946	-1.1696657608	-0.23726
C	 2.1824147072	-1.9264053502	-1.8583178461	-0.253166
C	 0.6875450743	-2.0761281545	-1.4286079518	 0.318778
C	 0.5562168168	-2.89630419	-0.1411800713	-0.434043
C	-0.2769898319	-2.5949768072	-2.4912720204	-0.451967
H	 1.1212284163	 1.8966603026	 0.170380638	 0.117755
H	-0.2985292812	 2.1021502102	-0.8611427535	 0.112141
H	-0.4845286301	 2.0369152186	 0.8968792113	 0.108954
H	 0.2385537042	-0.3529469804	 0.916857437	 0.091843
H	-1.1625031186	-0.15014792	-0.1208864701	 0.091309
H	 0.3357329258	-0.0422225179	-2.1222084778	 0.059074
H	 2.7483252192	 0.2675262208	-1.6890441025	 0.091817
H	 2.6148095532	-0.5966404938	-0.1485870698	 0.095731
H	 2.2854529232	-1.8468790846	-2.9448228581	 0.092108
H	 2.8789206151	-2.6901846751	-1.5003265638	 0.088475
H	 1.2558220256	-2.5654310332	 0.6331031817	 0.11052
H	-0.4554050506	-2.8343299141	 0.2750005502	 0.110464
H	 0.7669657528	-3.9527843115	-0.3434790256	 0.107706
H	-0.0870210059	-3.6509303368	-2.718794906	 0.108638
H	-1.3185252098	-2.5139029149	-2.1569116873	 0.108995
H	-0.181101504	-2.0300642331	-3.4248039542	 0.10568
