15
gdb 127332	4.35821	1.1136	0.89196	5.1441	69.58	-0.2436	-0.0205	0.2231	1242.8464	0.114236	-450.187655	-450.179164	-450.178219	-450.221492	29.751	
C	 0.0154311021	 1.4277438518	 0.0100250773	-0.321042
N	-0.005338292	-0.020740381	-0.0234983691	 0.061826
C	-0.1629367839	-0.8519888624	-1.076341134	 0.001481
N	-0.120809643	-2.106341234	-0.6759767498	-0.333476
C	 0.0702597075	-1.9866029694	 0.6722642092	 0.273888
N	 0.1457859063	-0.7364912798	 1.1082894705	-0.28741
C	 0.185484197	-3.1676782537	 1.5855060182	 0.335265
N	 0.0778018589	-4.3481983411	 0.9173997702	-0.536541
O	 0.3553513144	-3.0660795042	 2.783435634	-0.354068
H	 0.9729128744	 1.7774682752	 0.4022534662	 0.164557
H	-0.1231993291	 1.8043964286	-1.0046747574	 0.145961
H	-0.7887755667	 1.7969611653	 0.6502257993	 0.164565
H	-0.3012552019	-0.5001407088	-2.0878473924	 0.149616
H	-0.0616132252	-4.358548179	-0.0790738114	 0.274244
H	 0.1425848813	-5.2053779176	 1.438616629	 0.261135
