17
gdb 100625	2.12657	1.22223	0.81316	5.0111	75.15	-0.2666	0.0047	0.2712	1354.9226	0.134443	-417.96844	-417.958565	-417.957621	-418.003479	35.67	
N	-0.091079667	 1.3836889141	 0.1658594452	-0.523241
C	-0.0660693052	-0.0646365987	 0.0196200033	-0.006517
C	-1.5127196921	-0.5710807959	 0.1037082613	-0.054674
O	-2.1134618463	-0.150333707	 1.3026688165	-0.419976
C	 0.6437039637	-0.5496486973	-1.2992682458	-0.349926
C	 1.986165482	 0.0179118822	-1.4190332335	 0.312325
C	 3.0785944924	 0.5121716271	-1.4831177722	-0.411176
C	 0.6895446879	-2.0178401264	-1.3715722047	 0.30275
N	 0.7022365593	-3.1723813667	-1.4072074318	-0.322841
H	 0.8459270841	 1.7565435043	 0.2764337262	 0.249641
H	-0.4950534153	 1.8252464171	-0.6567966965	 0.234435
H	 0.4936677536	-0.4733518996	 0.8668106393	 0.122532
H	-2.0671868373	-0.20703028	-0.7828454704	 0.07623
H	-1.5407794067	-1.6640935149	 0.0810779329	 0.137566
H	-1.8224819942	 0.7642451868	 1.427378153	 0.289392
H	 0.0334669376	-0.2026322787	-2.1461344119	 0.149936
H	 4.0520710234	 0.9317208435	-1.5571937207	 0.213543
