14
gdb 15132	10.03805	0.67222	0.65883	2.0856	69.35	-0.2548	-0.0344	0.2204	1610.8646	0.104301	-382.489311	-382.480841	-382.479897	-382.524784	27.93	
O	-0.2617418842	 0.0760786116	 0.3649078036	-0.227269
C	 0.3690861984	 0.7434380877	-0.4074918171	 0.171053
C	 1.1164886439	 2.0195855823	-0.0067815161	-0.418351
C	 1.0491345554	 3.0490535869	-1.0316980735	 0.070975
C	 0.9693462427	 3.8711755441	-1.9085477037	 0.099099
C	 0.8538388069	 4.8515731987	-2.953721553	-0.113978
C	 1.6655321518	 6.0855743776	-2.9541013028	-0.158506
O	 1.9762462427	 5.0164263311	-3.8365551605	-0.2132
H	 0.4708389546	 0.4721484671	-1.4802400624	 0.099209
H	 0.7210009135	 2.3608797101	 0.9555162226	 0.158377
H	 2.1651821152	 1.7308285939	 0.1631842113	 0.162338
H	-0.1098799793	 4.8827138166	-3.4608533766	 0.121041
H	 1.2609724938	 6.9833714854	-3.4196566328	 0.122821
H	 2.3737512848	 6.2487892167	-2.1442232393	 0.12639
