18
gdb 72833	2.64905	1.55676	1.30048	4.0843	72.8	-0.2529	0.0263	0.2792	1035.1552	0.148713	-439.090885	-439.082927	-439.081982	-439.123413	30.784	
O	-0.0402329339	 1.3965290434	-0.0117344142	-0.478154
C	 0.0045960437	-0.0077828027	-0.0009233761	 0.373172
C	 0.3485126444	-0.7566554007	-1.3164146883	-0.305418
C	-0.8410834905	-1.7144719448	-1.0271022133	-0.239491
C	-1.3729119106	-0.698550846	 0.0416026236	-0.112941
C	-1.5555940009	-1.1968159878	 1.4438475	 0.407164
N	-2.6242387755	-1.6370093112	 1.9512021378	-0.549522
O	-0.3602424585	-1.1062494619	 2.1118157177	-0.244543
C	 0.6790926846	-0.5884700714	 1.2698412686	-0.137705
H	 0.8558720184	 1.7328043633	-0.123920337	 0.279938
H	 0.1492561793	-0.1129645569	-2.176429192	 0.114843
H	 1.34720612	-1.1908056368	-1.4138425917	 0.097814
H	-1.517479389	-1.9194277365	-1.8566653468	 0.12043
H	-0.5372576056	-2.6655887571	-0.5840855105	 0.11843
H	-2.2096077408	-0.0959798615	-0.3058535367	 0.113766
H	-2.4705853526	-1.9211129608	 2.9205455638	 0.220319
H	 1.3808313768	-1.3991576934	 1.0409246711	 0.108006
H	 1.2059863906	 0.1940493431	 1.8234270338	 0.113891
