15
gdb 96922	2.81654	1.34689	1.09611	4.4546	73.16	-0.2698	-0.011	0.2587	1120.6518	0.111919	-416.778816	-416.770645	-416.769701	-416.812171	29.282	
C	 0.0048543332	 1.378881272	 0.1098064831	-0.343683
N	 0.1721890732	-0.064467043	 0.0163776276	-0.329542
C	 0.6019050512	-0.7031031723	 0.9923147782	 0.497196
O	 1.0300783631	-0.2658431141	 2.2697445072	-0.273705
C	 1.4593101028	-1.5997985978	 2.5764558303	 0.083083
C	 0.2865916806	-2.5397225769	 2.608164593	-0.22152
C	-1.0343417089	-2.1240646327	 2.9990890769	 0.317987
N	-2.0972815938	-1.8037415728	 3.3207364419	-0.329112
C	 0.9386159454	-2.134082882	 1.2688271442	-0.24777
H	 0.5575012127	 1.8513369644	-0.7085307166	 0.134493
H	-1.053613239	 1.617409279	-0.0358212478	 0.144251
H	 0.3368045284	 1.8062808454	 1.0621319503	 0.135196
H	 2.3893638596	-1.7282240723	 3.1126953197	 0.141691
H	 0.5392667983	-3.5565166214	 2.8971569086	 0.151856
H	 1.3125291433	-2.8697047155	 0.5725029234	 0.139579
