22
gdb 7270	3.75192	1.11137	0.917	0.7805	84.39	-0.2574	0.056	0.3134	1324.0763	0.1973	-313.049303	-313.039047	-313.038103	-313.084353	37.81	
C	-0.1123353232	 1.5337140389	-0.0414132004	-0.403509
C	 0.0253900467	 0.0022817141	-0.0260524395	 0.050684
C	 0.7298191665	-0.4515412794	-1.3159761535	-0.399958
C	 0.7382975803	-0.5036233833	 1.2546658712	 0.050104
C	 0.0886297213	 0.0263239673	 2.5415485985	-0.409296
C	 0.7905367047	-2.0553771214	 1.2942718067	-0.372667
C	 1.5571192609	-2.589883162	 2.4138256709	 0.303099
C	 2.2036701344	-3.0183767059	 3.3327898478	-0.443975
H	 0.869724263	 2.016390178	 0.0360832088	 0.112093
H	-0.56889762	 1.8666584042	-0.9790983719	 0.109492
H	-0.7338760678	 1.9049714282	 0.7764642453	 0.116969
H	-0.989695271	-0.4240139633	-0.0257207525	 0.06858
H	 1.7707724276	-0.10661176	-1.334553368	 0.114168
H	 0.7353538667	-1.5374096576	-1.4404288384	 0.115039
H	 0.2287720216	-0.0303884954	-2.1934892036	 0.111174
H	 1.7771326439	-0.1456427755	 1.2221747178	 0.07925
H	 0.554018845	-0.4282802601	 3.4198567976	 0.130498
H	 0.1907794479	 1.1097063724	 2.6345680303	 0.115643
H	-0.9816132853	-0.2143613125	 2.5672262747	 0.108139
H	-0.2365546996	-2.4448116073	 1.3370587316	 0.123781
H	 1.2245321756	-2.4423902843	 0.3670326575	 0.129192
H	 2.7699556011	-3.4063250753	 4.1426459491	 0.191502
