16
gdb 23464	3.23952	1.36227	1.04936	1.7993	73.82	-0.2387	-0.0103	0.2284	1108.1694	0.124771	-437.836359	-437.828827	-437.827883	-437.868525	29.237	
O	-0.0302859343	 1.309489257	-0.2517998913	-0.391676
N	 0.0337655686	-0.0875261398	-0.1863211609	-0.205425
C	-1.106074643	-0.6131260059	 0.0625650283	 0.388338
C	-2.3943255117	 0.1460617714	 0.2786614185	-0.372184
C	-3.3836604632	-0.5767947303	 1.1543221049	-0.078195
C	-3.3126737135	-1.8765731939	 1.440061543	-0.052627
C	-2.2444070655	-2.7334143199	 0.8707262994	-0.008876
O	-2.1491907815	-2.7657560108	-0.5688676032	-0.257325
C	-1.1174541688	-2.0919091567	 0.1616213348	-0.029087
H	 0.8900251062	 1.5481939711	-0.4070654624	 0.310199
H	-2.157940942	 1.1303426626	 0.6943429725	 0.145571
H	-2.8520073936	 0.3515049404	-0.701046768	 0.150577
H	-4.1974770744	 0.0234733349	 1.5518491423	 0.103031
H	-4.0502114445	-2.3473040681	 2.0823165814	 0.095891
H	-2.0724061009	-3.6996470226	 1.3408297611	 0.09922
H	-0.138990698	-2.5662376993	 0.1382927097	 0.102568
