19
gdb 99549	2.17936	1.2674	0.85271	3.2199	82.28	-0.2524	0.0247	0.277	1368.12	0.156943	-382.040013	-382.029483	-382.028539	-382.075779	37.417	
C	-0.2419855557	 1.4681334966	 0.0703378276	-0.334031
N	 0.1057289177	 0.0520119612	-0.0399683268	-0.272309
C	 0.7574301862	-0.5035512469	 1.1383503513	-0.106267
C	-0.1437446571	-0.5182654952	 2.3161021122	 0.274245
N	-0.9187366021	-0.4892523555	 3.1738069713	-0.331246
C	 1.3132446233	-1.9292855596	 0.8411725316	-0.179672
C	 2.3223391113	-1.895087777	-0.3221926828	-0.392799
C	 1.9089516961	-2.5105143322	 2.0409045537	 0.323604
C	 2.4291065638	-2.9721425972	 3.0206552962	-0.450681
H	 0.6752818801	 2.058554167	 0.1674015568	 0.130318
H	-0.7448818999	 1.7806835463	-0.8482969087	 0.12997
H	-0.89470153	 1.704390137	 0.9247896065	 0.129143
H	-0.7282283912	-0.4898974143	-0.2460729621	 0.23106
H	 1.6092267309	 0.1415515443	 1.3861355294	 0.135337
H	 0.4558828513	-2.5498636301	 0.5446516379	 0.116855
H	 1.8653097629	-1.4416191136	-1.2026639883	 0.137606
H	 3.2049795678	-1.3108082295	-0.0447807238	 0.126487
H	 2.6505720884	-2.909000909	-0.5621056172	 0.129115
H	 2.8687602262	-3.3862480924	 3.8942672151	 0.203268
