22
gdb 9847	3.21598	1.28935	1.2378	1.4954	77.96	-0.2581	0.0706	0.3287	1153.9356	0.198444	-350.199406	-350.189677	-350.188733	-350.233476	36.385	
C	-0.0565332626	 1.6080773434	-0.1576162093	-0.381123
C	-0.1174065441	 0.0783707729	-0.1618889422	-0.195929
C	 0.84893919	-0.5541450311	-1.1740404834	 0.062208
O	 2.2024125483	-0.1915060235	-0.8963647947	-0.439897
C	 0.6846282963	-2.0658482599	-1.3130031016	 0.392439
C	 0.9597199061	-2.8908082783	-0.0688611704	-0.487894
C	-0.3872959245	-2.5465000617	-2.2628046121	-0.305231
C	 1.0697295413	-2.661327065	-2.6439599784	-0.311098
H	 0.9631273265	 1.9521866839	 0.0349675737	 0.126371
H	-0.3651229019	 2.0157750893	-1.1267868664	 0.113051
H	-0.7149423852	 2.0307739112	 0.6072920863	 0.106943
H	 0.1150870919	-0.3022749609	 0.842479737	 0.086911
H	-1.1349695411	-0.2621566265	-0.3885802907	 0.100019
H	 0.6522452823	-0.1084078868	-2.1580102558	 0.075955
H	 2.4059702806	-0.4841426413	-0.0015427778	 0.276469
H	 0.2661096784	-2.6551640195	 0.7457628804	 0.118538
H	 0.8616482016	-3.9592352757	-0.2831740182	 0.117574
H	 1.9812463617	-2.7314876875	 0.2978874563	 0.109221
H	-0.9261137569	-3.4534865368	-2.0089895412	 0.106497
H	-0.991894911	-1.8050292654	-2.7758057069	 0.107647
H	 1.4550991821	-1.9943860336	-3.4077580766	 0.115123
H	 1.5195091303	-3.6486596273	-2.6512707578	 0.106206
