19
gdb 83488	2.80209	1.49255	1.43331	3.6619	74.46	-0.2272	-0.0186	0.2085	1019.7836	0.160808	-423.055828	-423.048189	-423.047245	-423.087724	30.236	
C	-0.1055958359	 1.534497579	 0.0198173815	-0.432889
C	 0.0499560008	 0.0169355115	 0.0143909692	 0.005333
C	 1.0452895399	-0.5950509656	-1.0168191342	-0.063977
C	 2.3793026368	-0.0944402457	-0.4459774637	-0.078744
O	 2.1836152574	-0.1522176215	 0.9817384876	-0.281539
C	 0.8220642567	-0.5791234126	 1.20187303	-0.010642
C	 0.8203259119	-2.0776156499	 0.8533745043	 0.440035
O	 0.7483034097	-3.0182963431	 1.5959365463	-0.325546
C	 0.9523743055	-2.1000259048	-0.6853788737	-0.345207
H	 0.8339581441	 2.0366009573	 0.2628918499	 0.138347
H	-0.4451887939	 1.895782958	-0.9567115187	 0.117311
H	-0.8467488771	 1.8426827284	 0.7638140118	 0.123273
H	-0.933163857	-0.4588539815	-0.084659677	 0.082341
H	 0.8739529524	-0.3355727278	-2.0622384846	 0.075429
H	 3.2247893259	-0.7343570463	-0.7235999666	 0.106588
H	 2.61312447	 0.934998805	-0.7424282357	 0.10272
H	 0.5291043516	-0.3270050102	 2.2194864306	 0.089273
H	 0.058440873	-2.565273606	-1.1150456281	 0.128871
H	 1.8180318581	-2.6891741242	-1.001838179	 0.129022
