20
gdb 31639	3.42053	1.01628	0.8344	1.142	83.9	-0.1763	0.0616	0.2379	1435.3739	0.170153	-403.187819	-403.177786	-403.176842	-403.223379	36.025	
C	 0.0901621595	 1.5379254151	-0.1950881527	-0.359769
C	-0.0170380523	 0.0360718308	 0.119696702	-0.292448
C	-1.4252884437	-0.4831939308	 0.090010137	 0.303837
C	-2.1497542217	-0.9379443348	 1.1624765034	-0.222509
N	-3.4058145279	-1.329208773	 0.7213263535	-0.043677
C	-4.493064698	-1.8095298806	 1.5461630617	-0.336561
C	-3.4690446849	-1.105277441	-0.6242535344	 0.385148
O	-4.6323282388	-1.4157583465	-1.2585229152	-0.443926
C	-2.2738902409	-0.5877366818	-1.0622520001	-0.426199
H	 1.1324902085	 1.8733950468	-0.1713186569	 0.102678
H	-0.3130937233	 1.7623194562	-1.1878313242	 0.113886
H	-0.4768122253	 2.1284256483	 0.5315191506	 0.114951
H	 0.6021755657	-0.5207645219	-0.5965700172	 0.096949
H	 0.4148075662	-0.1578989469	 1.1086436005	 0.093193
H	-1.8866232907	-1.0300057939	 2.2043134879	 0.106197
H	-5.1097391928	-0.9883156519	 1.9312085196	 0.133327
H	-5.1302240075	-2.4741320245	 0.9603409076	 0.152029
H	-4.0849954114	-2.3672547921	 2.3924079914	 0.134743
H	-4.5037845286	-1.2746506193	-2.2008644238	 0.306503
H	-2.0264189021	-0.3277733283	-2.0807553406	 0.081647
