20
gdb 87836	2.95039	1.34212	1.13989	2.434	79.47	-0.2301	0.0834	0.3135	1168.8599	0.169183	-403.092475	-403.08354	-403.082596	-403.125772	34.01	
C	-0.0155215134	 1.5535657653	-0.0643101325	-0.417548
C	-0.0700013119	 0.0555402406	 0.0841203484	-0.037094
O	 1.1807875792	-0.6532302084	-0.0512133923	-0.295957
C	 0.5396443966	-0.653376736	 1.2120513823	 0.389907
C	 1.2701987005	-0.2106375515	 2.4818076961	-0.26029
N	 0.9579284885	-1.5255066992	 3.1540041374	-0.165695
C	-0.5162852534	-1.6067576138	 3.1813839521	-0.285303
C	 0.1698532972	-1.944626773	 1.9135677706	 0.240173
C	 0.2393928417	-3.3072861569	 1.2959553521	-0.493032
H	 0.8176863014	 1.9726019393	 0.5058586136	 0.128052
H	 0.113501136	 1.8331900513	-1.1150305581	 0.13217
H	-0.9467920645	 2.0071475003	 0.2921491328	 0.122627
H	-0.9001601351	-0.4359806047	-0.4274154789	 0.088635
H	 2.3461997073	-0.1132784539	 2.3221871541	 0.127864
H	 0.8948156557	 0.665926315	 3.0210041016	 0.105114
H	-0.8856635369	-2.4299961332	 3.7861552107	 0.121515
H	-1.0951587309	-0.6883034357	 3.2667978236	 0.106724
H	-0.6513774596	-3.50812381	 0.6895382837	 0.122062
H	 1.1151285706	-3.3922541194	 0.6463458098	 0.139315
H	 0.302109261	-4.0747486961	 2.0724674229	 0.130761
