16
gdb 123493	5.06978	0.91689	0.87883	3.8334	70.57	-0.2553	-0.0416	0.2137	1316.6864	0.124876	-433.989745	-433.9821	-433.981155	-434.023364	27.637	
C	-0.1391307818	 1.6250957267	 0.0374807541	-0.276678
N	-0.2717128715	 0.2303600238	-0.3729192961	-0.075022
C	-0.2113510988	-0.7608695759	 0.700735574	-0.217757
C	-1.5037870407	-0.4373323105	 0.0361658355	-0.218876
C	 1.3041015176	 2.0236559731	 0.0355345398	 0.34762
N	 1.8549059412	 2.6996884326	 1.0076841253	-0.153872
O	 3.1618876746	 2.8801208994	 0.6480325115	-0.148963
N	 3.4290187585	 2.2997501936	-0.5607099602	-0.061971
C	 2.3035881111	 1.7708619316	-0.9490218237	-0.094015
H	-0.6884886878	 2.2401739945	-0.6862917903	 0.13149
H	-0.5626299119	 1.8343074157	 1.0329236392	 0.117449
H	 0.3164698357	-1.6791214532	 0.4626133093	 0.125853
H	-0.0677859474	-0.4004621217	 1.7175634442	 0.124817
H	-2.2281039022	 0.1376608234	 0.6104031631	 0.117047
H	-1.9355093481	-1.1147508293	-0.6944066119	 0.125353
H	 2.2230920814	 1.2323995161	-1.8795519938	 0.157525
