22
gdb 113221	3.1713	0.97008	0.84034	2.4069	82.87	-0.2448	0.0755	0.3202	1470.4918	0.192569	-404.305967	-404.295959	-404.295015	-404.341468	36.752	
C	-0.5009065991	 1.4295533013	-0.6324317903	-0.373895
C	-0.2001114801	 0.2103843703	 0.2474636586	-0.193066
C	-1.3438389114	-0.7796761922	 0.2456089419	-0.030049
N	-1.45613332	-1.6840073323	-0.909644109	-0.369552
C	-1.2127188007	-2.2612865302	 0.418151182	 0.287157
C	 0.1237274191	-2.9552066493	 0.5995163238	-0.467482
C	-2.3359666527	-2.9706485385	 1.126741726	 0.038354
C	-3.7613215446	-2.8008983995	 0.8279354985	-0.204579
O	-3.0630877595	-3.9651146343	 0.3868066549	-0.236844
H	 0.3325665194	 2.1383760802	-0.6259958602	 0.111808
H	-0.6769923046	 1.1199299684	-1.6671524744	 0.130847
H	-1.3933772122	 1.9616496059	-0.2839596285	 0.109288
H	 0.7119591913	-0.2779759088	-0.1071532797	 0.105268
H	-0.0095021583	 0.5316387694	 1.2798077021	 0.09528
H	-2.2772014291	-0.3633116411	 0.6283541779	 0.072401
H	-2.4185219001	-1.8224690878	-1.2058412546	 0.231765
H	 0.9061321134	-2.4665055789	 0.0180135116	 0.130813
H	 0.4237712433	-2.9646663844	 1.653539185	 0.112727
H	 0.0534492723	-3.9938973891	 0.2591474163	 0.133242
H	-2.0813411924	-3.2922769045	 2.138580824	 0.091705
H	-4.4953225491	-2.9595839088	 1.6173051371	 0.117633
H	-4.0866321949	-2.1207301958	 0.0410850869	 0.107179
