19
gdb 64710	3.89117	1.10766	1.04562	1.9534	80.75	-0.2353	0.0498	0.2852	1212.9613	0.156615	-385.816792	-385.807908	-385.806964	-385.850096	34.397	
C	-0.0182629566	 1.6358311425	 0.1489923763	-0.44056
C	 0.0385721632	 0.1195147513	 0.1132120512	 0.401863
C	-1.3284878095	-0.5192283214	-0.2062711624	-0.392769
C	-1.9142607138	-0.0717078365	-1.4628299549	 0.312526
C	-2.3998428326	 0.3020117516	-2.4966133467	-0.441539
O	 1.0367691082	-0.3795429394	-0.8385776701	-0.32665
C	 1.6224278211	-1.1950238447	 0.176698279	 0.106869
C	 2.2160059182	-0.3574620819	 1.2621774073	-0.320105
C	 0.7272203892	-0.640689504	 1.2578122258	-0.165165
H	 0.9523334041	 2.0599517259	 0.413323493	 0.119554
H	-0.3123899514	 2.0233583092	-0.8300101672	 0.143814
H	-0.756307847	 1.9716866753	 0.8853053799	 0.116116
H	-1.1992588666	-1.6074632239	-0.2236772718	 0.132732
H	-2.0148894005	-0.2966961494	 0.6225353288	 0.125084
H	-2.825682968	 0.6251607994	-3.4139385946	 0.194504
H	 1.9240592439	-2.2017672472	-0.0877352919	 0.103864
H	 2.7649610322	-0.901102073	 2.0254029892	 0.115826
H	 2.6086429605	 0.627773977	 1.0296400919	 0.118336
H	 0.2148343755	-1.1310820908	 2.0754526674	 0.095698
