17
gdb 73606	2.3194	1.66891	1.32353	5.1999	72.72	-0.2603	0.0286	0.2889	1018.2547	0.13767	-418.004087	-417.99606	-417.995116	-418.036484	30.543	
N	-0.0710326111	 1.4004122874	 0.0673319289	-0.58498
C	-0.0166891983	-0.0259022082	-0.0458127212	 0.255845
C	 0.9062279347	-0.7309364532	-1.0375671865	-0.142008
O	 0.378871005	-2.0344459687	-1.219023696	-0.243676
C	-1.02947194	-2.0008640377	-0.9978429688	-0.103521
C	-1.2646880134	-0.8683563316	-0.0199044919	-0.103115
C	-0.3668181203	-0.8151027658	 1.2100347569	-0.21622
C	 0.4002026998	-1.9395407207	 1.6703748764	 0.31604
N	 1.0129504858	-2.8268700769	 2.0895536129	-0.354059
H	 0.8134149975	 1.7694768606	 0.4048433597	 0.240948
H	-0.2453614254	 1.8254467032	-0.8393222976	 0.235941
H	 0.9084517139	-0.1540897845	-1.9789446265	 0.088246
H	 1.9402157401	-0.8380220056	-0.693309762	 0.124482
H	-1.5790774099	-1.7991512058	-1.9311590341	 0.101064
H	-1.3222175575	-2.9877075591	-0.6273608379	 0.131346
H	-2.2454663094	-0.4172337992	 0.0637446286	 0.112603
H	-0.7502302214	-0.1896481544	 2.0092756991	 0.141064
