21
gdb 76663	2.79342	1.01719	0.89768	3.7567	79.53	-0.2293	-0.0019	0.2275	1397.4267	0.179739	-424.231523	-424.22106	-424.220116	-424.267724	37.621	
C	-0.1248764458	 1.454195479	-0.1790808368	-0.416172
C	 0.2067986565	-0.0218100062	-0.1291094856	-0.078389
C	 1.6349876226	-0.495916922	 0.0510698392	 0.06698
O	 2.6425666343	 0.441915938	 0.3213856454	-0.412111
C	 0.6340735161	-0.7233152864	 1.1519112325	-0.034305
C	 0.7491976345	-0.0032698967	 2.4877515971	-0.311133
C	 1.6493393657	-0.8174928394	 3.4226614997	 0.388519
C	 3.0673083173	-0.3166107323	 3.6030330756	-0.486796
O	 1.2386532329	-1.822887412	 3.9558992324	-0.312665
H	 0.6182828025	 2.0534306948	 0.3515210047	 0.12735
H	-0.1544297084	 1.8070360177	-1.2161567966	 0.113178
H	-1.1050122833	 1.6584358957	 0.2645392298	 0.123005
H	-0.3983037671	-0.6331549843	-0.7944223879	 0.087146
H	 1.971401054	-1.359941537	-0.5210147394	 0.088121
H	 2.8761132014	 0.881982737	-0.5026839584	 0.292459
H	 0.2905919529	-1.7476235901	 1.2635845884	 0.105847
H	 1.144535713	 1.0047901522	 2.3544551742	 0.11087
H	-0.2412225488	 0.0616366533	 2.9504576666	 0.118385
H	 3.0495006996	 0.6385672507	 4.142867908	 0.134251
H	 3.6572156139	-1.0403158175	 4.1670417738	 0.131849
H	 3.5186543663	-0.1162113845	 2.6258436473	 0.16361
