15
gdb 15503	2.9712	2.053	1.45022	2.2022	62.4	-0.2624	-0.0367	0.2257	863.2148	0.119687	-399.830242	-399.822972	-399.822028	-399.862504	25.949	
N	 0.0926336707	 1.3471403309	-0.0771460772	-0.538364
C	 0.0054586569	 0.0897608678	-0.1518700049	 0.399214
O	 1.0490323938	-0.7768343245	-0.2363567723	-0.233045
C	 0.5877837835	-2.143071656	-0.1920508496	-0.089824
C	-0.901775392	-2.097774421	-0.5640637881	-0.249689
C	-1.3038731771	-0.6874792344	-0.127647089	-0.185845
C	-1.8866216214	-0.6150964366	 1.2832838992	 0.145229
O	-2.1031165108	-1.5750969561	 1.9749174699	-0.235095
H	 1.0696289279	 1.644843754	-0.076242886	 0.22748
H	 1.2004807191	-2.7206841303	-0.8868560803	 0.125317
H	 0.7411144547	-2.5279469512	 0.8219846018	 0.131197
H	-1.0363589448	-2.2192891008	-1.6414334598	 0.117584
H	-1.4763897664	-2.8643178217	-0.0421759561	 0.138401
H	-2.0176667344	-0.1906978629	-0.7917780284	 0.131319
H	-2.0879866395	 0.4194221528	 1.6286477907	 0.11612
