20
gdb 2336	5.22346	1.39639	1.22988	1.2192	71.85	-0.2198	0.0846	0.3043	1048.1442	0.182492	-291.01475	-291.006271	-291.005326	-291.047664	30.688	
C	 0.0071683643	 1.5621738436	-0.0310303935	-0.380732
C	-0.1245744309	 0.0568953001	 0.2131347891	-0.160471
C	 0.9942795251	-0.5066700308	 1.1010228951	-0.199573
C	 0.9252402703	-2.0116157837	 1.2663894385	 0.028519
C	 1.5337940752	-2.6993592169	 2.4417007002	-0.265486
N	 0.0875818426	-2.698772844	 2.2551649322	-0.077743
C	-0.7114819633	-1.9384751736	 3.2029155858	-0.312196
H	 0.956313867	 1.8012291832	-0.5238800409	 0.113744
H	-0.8012317614	 1.9364840646	-0.6667102824	 0.112551
H	-0.0241787937	 2.1215035213	 0.9107994691	 0.113274
H	-1.0972522697	-0.1598577822	 0.6715771859	 0.102292
H	-0.119511637	-0.4739280895	-0.7478690465	 0.097604
H	 1.9666178038	-0.2611778909	 0.6514697991	 0.09833
H	 0.9830029507	-0.0075380025	 2.0763498163	 0.094725
H	 0.9460381232	-2.5445020911	 0.3146550023	 0.083886
H	 2.0343502236	-3.6592455417	 2.33888905	 0.109826
H	 1.9442982934	-2.0583979694	 3.2229528368	 0.099615
H	-0.2290644988	-1.0291728129	 3.5956194027	 0.098035
H	-1.6583241923	-1.6496287616	 2.7346811209	 0.121415
H	-0.942638552	-2.5835471622	 4.0570908491	 0.122386
