16
gdb 67912	2.46075	1.85512	1.34909	4.7006	68.17	-0.2241	-0.0171	0.2069	954.4094	0.123321	-437.822653	-437.815221	-437.814277	-437.854298	29.696	
O	-0.0845207889	 1.4110403586	-0.0718199364	-0.4785
C	 0.0202011405	 0.0256931724	 0.0073164222	 0.430372
C	-1.3395040842	-0.7133039212	-0.0285638618	-0.394514
C	-0.9047829161	-1.5109969698	 1.2199816882	 0.444057
O	-1.435321037	-2.3418229532	 1.894734535	-0.304347
C	 0.4448840887	-0.7562770538	 1.3159064406	-0.260612
C	 1.6204990864	-1.366235643	 0.5134299526	-0.045643
N	 1.0370436931	-2.1029749597	-0.6333734545	-0.332159
C	 1.226011449	-0.6357171221	-0.7227654113	-0.148825
H	 0.7820674391	 1.7962517973	 0.1006814573	 0.282793
H	-2.1608235906	-0.0263633034	 0.2008931436	 0.137105
H	-1.5828277697	-1.3065985203	-0.9106667868	 0.138398
H	 0.6983499372	-0.2516141783	 2.2487871289	 0.09302
H	 2.596753291	-1.6294851054	 0.9003061753	 0.104059
H	 1.803296541	-2.5458506071	-1.1392215079	 0.237518
H	 1.8197271206	-0.1932017011	-1.5154216051	 0.097278
