20
gdb 106265	2.86758	1.27155	1.10053	3.3086	80.52	-0.2386	0.0051	0.2437	1217.6068	0.169331	-403.109767	-403.100415	-403.099471	-403.143829	34.75	
C	-0.0275476916	 1.5391818354	-0.0007341658	-0.383773
C	-0.031771853	 0.0066972168	 0.071480346	-0.32548
C	-1.4159514541	-0.5645158691	-0.0264005926	 0.200857
C	-1.9004602984	-2.0522825858	 0.0240095171	-0.330476
C	-3.2194340008	-1.2059137657	-0.0031239031	 0.179293
C	-4.6453693852	-1.6401760784	 0.1336978065	-0.517173
N	-2.5533301058	-0.1960071729	 0.9442473306	-0.383808
C	-2.5064960229	-0.396427303	-1.1058883278	 0.467001
O	-2.6811895556	 0.0518502348	-2.1939680075	-0.332448
H	 0.989437335	 1.9304541823	 0.0923316391	 0.111341
H	-0.4407328357	 1.8830506767	-0.9534715509	 0.140094
H	-0.6370194012	 1.9660802931	 0.800480758	 0.135557
H	 0.5681780325	-0.4133622396	-0.7455404687	 0.114122
H	 0.4383597052	-0.3326446805	 1.0037365713	 0.101857
H	-1.6724235206	-2.7209782489	-0.8131997742	 0.108999
H	-1.7174700317	-2.5334314526	 0.9906630446	 0.102516
H	-4.8064511393	-2.2073065975	 1.0564393334	 0.123738
H	-5.3062723627	-0.7686599779	 0.1453851554	 0.14473
H	-4.9314096753	-2.2760446318	-0.7099407796	 0.136275
H	-2.3643395787	-0.6931637054	 1.8228763681	 0.206778
