21
gdb 90970	3.60997	1.30698	1.21805	2.1735	82.08	-0.2298	0.0717	0.3014	1119.4359	0.183735	-387.011353	-387.00368	-387.002736	-387.043624	31.576	
C	-0.172550585	 1.5470603165	 0.025616224	-0.40169
C	 0.0305671951	 0.0316787342	 0.0185449681	 0.065351
C	 0.7198663239	-0.4877593279	-1.3132237314	-0.30767
C	 1.50592343	-1.6981788523	-0.8119280408	 0.000674
C	 3.0308387387	-2.0186111442	-0.667937998	-0.000921
C	 3.2920921515	-0.6214589844	-0.0922877266	-0.272401
C	 1.9981182675	-1.2137985492	 0.5433069368	 0.456859
C	 0.8849436924	-0.4917210732	 1.2532927297	-0.39298
O	 2.7385613817	-2.4938237558	 0.728377114	-0.374516
H	 0.7893119664	 2.0727800712	-0.0004526408	 0.115159
H	-0.7524975519	 1.872050022	-0.8450100945	 0.115362
H	-0.7069603314	 1.8757899795	 0.9230963312	 0.116502
H	-0.9538392082	-0.4441725907	 0.0827436063	 0.082765
H	-0.0289636547	-0.731160485	-2.0713572103	 0.098921
H	 1.3568393552	 0.2965254696	-1.732128217	 0.103808
H	 0.8976136286	-2.6032953809	-0.735783529	 0.080013
H	 3.6764853208	-2.6674208718	-1.2608896151	 0.090027
H	 4.1428332697	-0.5582651543	 0.5867680647	 0.104855
H	 3.2129334621	 0.2460518836	-0.750065075	 0.096662
H	 1.2272342317	 0.3279134169	 1.8916058178	 0.104731
H	 0.297679516	-1.178957044	 1.8689223261	 0.118486
