20
gdb 41429	3.60498	1.84669	1.46265	1.6335	81.45	-0.2221	0.0926	0.3148	938.2524	0.17535	-365.9674	-365.961126	-365.960182	-365.997601	27.343	
C	-0.0387188367	 1.5565155694	-0.029867992	-0.238239
C	 1.492530226	 1.9019695	-0.0212041285	-0.349161
C	 2.0489271457	 0.4921584251	 0.0352821734	 0.390702
C	 3.4468095757	-0.0865442273	 0.0742584023	-0.367744
C	 3.0236293642	-1.5975402425	 0.1210198035	-0.156752
N	 1.5325610449	-1.57942602	 0.100249474	-0.146303
C	 1.1493311702	-0.3949411926	 0.9634836374	-0.051974
C	-0.0011381893	 0.0203389841	 0.0239773015	-0.03767
C	 1.1738676342	-0.4580252075	-0.8530858407	-0.051973
H	-0.5647646838	 1.9833525342	 0.8300135545	 0.100781
H	-0.5410149883	 1.9222201626	-0.9311260448	 0.100781
H	 1.803278071	 2.4458606228	-0.9190127625	 0.100293
H	 1.7794819879	 2.5071598864	 0.8447299668	 0.100293
H	 4.0399261607	 0.161156321	-0.8118589271	 0.098531
H	 4.0160471937	 0.2225810769	 0.9567295172	 0.098531
H	 3.3903943631	-2.1651780566	-0.7393583794	 0.102504
H	 3.3665153823	-2.1037852271	 1.0282827267	 0.102504
H	 1.164423336	-0.4464839909	 2.0558333457	 0.066429
H	-0.9397425887	-0.533101897	 0.0305204485	 0.072038
H	 1.2183785814	-0.585193361	-1.9384241465	 0.066429
