21
gdb 110581	3.05258	1.26151	1.04073	2.0101	82.3	-0.2273	0.0796	0.307	1240.0614	0.181165	-387.00661	-386.997931	-386.996987	-387.039842	33.599	
C	 0.0305038304	 1.6076847399	-0.1263106451	-0.37712
C	 0.0134913363	 0.1120653811	 0.2098126577	-0.20296
C	-1.3803318348	-0.5007620557	 0.131635532	-0.066776
C	-1.9943416229	-0.813368161	-1.2553107894	-0.101863
C	-1.2242877346	-2.1638656582	-1.3806269126	 0.042293
O	-2.4116052297	-2.9605654389	-1.6725070408	-0.33545
C	-2.8488760416	-1.9812651255	-0.6826342147	 0.039721
C	-1.5283742614	-2.0452570504	 0.1568913708	 0.300631
C	-1.1842906688	-3.0416756509	 1.2259687514	-0.532226
H	 1.0399432268	 2.022948509	-0.0474610654	 0.112524
H	-0.3266313045	 1.7898669481	-1.1455395285	 0.11778
H	-0.6159712921	 2.1716714983	 0.5552557517	 0.114947
H	 0.6914259859	-0.4239539648	-0.4674254467	 0.092507
H	 0.4142940232	-0.036704357	 1.2212851244	 0.096542
H	-2.0669829755	 0.0209745373	 0.8120887205	 0.06108
H	-2.274094832	-0.1475703901	-2.0716419217	 0.079042
H	-0.2994755652	-2.4077514771	-1.90290599	 0.091527
H	-3.888499269	-1.9926210903	-0.3539038129	 0.089733
H	-1.4300768506	-4.0531391394	 0.8857269766	 0.136195
H	-0.1168656637	-3.0138760285	 1.4704579264	 0.121773
H	-1.7429809762	-2.8451625558	 2.1476268063	 0.120098
