20
gdb 78967	3.02726	1.94696	1.71225	1.8487	79.27	-0.2243	0.0888	0.3131	897.6983	0.17508	-365.987336	-365.980956	-365.980012	-366.017614	27.795	
C	-0.1380992353	 1.5666937583	 0.0376743088	-0.424221
C	 0.0006508011	 0.0473747241	 0.0042661635	 0.042127
C	 0.9385332067	-0.5004900592	-1.0929023337	-0.077686
C	 2.3331665723	-0.010534865	-0.6702934231	-0.040828
C	 2.2716482752	-0.2888591379	 0.7891742611	-0.047551
C	 0.7980876021	-0.5950765549	 1.1757098631	-0.064204
C	 0.7025179445	-2.0930342487	 0.7998172423	-0.222612
C	 1.4069098854	-1.9089548005	-0.5435362247	 0.001459
N	 2.7629510712	-1.3454383263	-0.1591712603	-0.154325
H	 0.8372517173	 2.0560563334	 0.1243955389	 0.122298
H	-0.6194489181	 1.9385433236	-0.8732724056	 0.113016
H	-0.7483972995	 1.8858101894	 0.8890976551	 0.112758
H	-0.9960220914	-0.4066884562	-0.0627113739	 0.064219
H	 0.6304475453	-0.4113968998	-2.1327488828	 0.065458
H	 3.0107601425	 0.6724992797	-1.1711451891	 0.086067
H	 3.0051564768	 0.086546048	 1.4911909785	 0.090482
H	 0.5074107009	-0.3098792175	 2.1863994607	 0.059969
H	 1.2761358851	-2.7510812323	 1.4585611897	 0.106216
H	-0.3278895618	-2.4536914094	 0.7301658252	 0.094342
H	 1.4767183998	-2.7512922186	-1.2292743536	 0.073013
