9
gdb 133450	3.20014	1.4771	1.01062	3.0188	49.04	-0.3112	-0.123	0.1882	985.073	0.039952	-573.854764	-573.848115	-573.847171	-573.886607	23.66	
F	 0.0861327733	 0.0268455154	 0.0024707094	-0.014419
C	-0.0075625923	 1.3363296885	 0.0104359105	 0.227398
N	-1.1658544962	 1.8697328673	 0.0278335821	-0.077809
O	-1.2048215367	 3.2385030916	 0.0358344304	-0.248297
C	-0.0403857868	 4.0469156918	 0.0257285177	 0.503356
O	-0.2036816768	 5.2228241335	 0.0340708229	-0.292992
N	 1.1953576422	 3.3993751705	 0.0067903408	-0.360002
C	 1.2035140934	 2.1324672924	-0.0002541065	 0.270021
F	 2.3356260397	 1.475162659	-0.0177596274	-0.007256
