16
gdb 89673	2.89061	1.32923	1.09862	5.6573	71.89	-0.247	-0.0033	0.2437	1121.6829	0.122045	-437.851686	-437.842889	-437.841945	-437.885112	32.255	
C	-0.0862011619	 1.5226178192	-0.0484489575	-0.422527
C	 0.1188984372	 0.0266790826	 0.0169199288	 0.098738
O	 1.2304285667	-0.4562587259	-0.8101585025	-0.330784
C	 1.7532341983	-1.2175072423	 0.2728199958	 0.292714
C	 2.1791658762	-0.2981271078	 1.4016743022	-0.410709
C	 0.7237069733	-0.6374886701	 1.2554209652	 0.259587
O	-0.0488268511	-1.2326097395	 2.2167038847	-0.441465
C	 2.2560775527	-2.5303832179	 0.0529889958	 0.218134
N	 2.6614605402	-3.6032984725	-0.1033437454	-0.351579
H	 0.8044911357	 2.0667834138	 0.2766085742	 0.124427
H	-0.3191167261	 1.8274519104	-1.0730931423	 0.141697
H	-0.9280943111	 1.8098966596	 0.5900145102	 0.131262
H	-0.7909662415	-0.5123363295	-0.2739070048	 0.110482
H	 2.668282712	-0.8082373433	 2.2270315881	 0.14253
H	 2.579451899	 0.6802939542	 1.1512896808	 0.134656
H	 0.2378338003	-0.934938981	 3.0860003666	 0.302836
