18
gdb 34816	4.94651	1.11903	1.0349	1.6934	84.67	-0.2348	0.0266	0.2614	1182.1403	0.147047	-364.673424	-364.665667	-364.664722	-364.705291	31.27	
C	-0.0632084122	-1.2348116719	-0.1593509649	-0.442435
C	-0.0273380763	-0.0382122211	-0.0436443242	 0.349766
C	-0.0346351459	 1.403712504	 0.0729872301	-0.167622
C	 0.0196149212	 2.1012581684	 1.4669751977	-0.158159
C	 1.4943216661	 1.6410988892	 1.4999553021	-0.184786
N	 1.3488759128	 2.1336697582	 0.0400696774	-0.191804
C	 0.5724015838	 3.2813380337	 0.6710613083	 0.473233
C	 0.0003033878	 4.4511311892	-0.0386478048	-0.378641
C	 1.1144802209	 4.6189260566	 1.0018183954	-0.394776
H	-0.0860395586	-2.2917403721	-0.2609806413	 0.195981
H	-0.727789993	 1.8481406141	-0.6461379037	 0.104448
H	-0.7379972819	 2.0875445286	 2.2570623467	 0.075319
H	 2.1982910281	 2.2388230169	 2.0813613861	 0.107167
H	 1.6974418128	 0.572409377	 1.5768564968	 0.120078
H	 0.2693482232	 4.5968519431	-1.0797630569	 0.128409
H	-0.9966882047	 4.7906449075	 0.2238182164	 0.11775
H	 0.8574433348	 5.0701881707	 1.9549263015	 0.11771
H	 2.1027305513	 4.8730756679	 0.6326156472	 0.128362
