22
gdb 104004	2.46318	1.39542	1.26933	2.057	82.55	-0.2205	0.0807	0.3012	1165.3708	0.192288	-404.299646	-404.289953	-404.289009	-404.333492	37.059	
C	-0.0149067204	 1.3265849426	 0.141555449	-0.247288
O	-0.152357293	-0.0456226735	-0.1490092999	-0.283985
C	 0.6374763937	-0.5354885216	-1.2076674363	 0.399825
C	 0.2345755931	 0.0626714442	-2.556518634	-0.457627
C	 2.2093890891	-0.5535125918	-1.0126413339	-0.293328
C	 2.1462360059	-2.0760813672	-1.1322598911	-0.104915
N	 1.3192820574	-2.5130806292	 0.0188326588	-0.365907
C	 0.6574809284	-2.0790454657	-1.2364810075	 0.298652
C	-0.3016625183	-2.9771395219	-1.9566931876	-0.520559
H	 1.0356653516	 1.6113415466	 0.2999517371	 0.105764
H	-0.432626025	 1.9735092592	-0.6438478711	 0.101973
H	-0.5667720922	 1.5096315987	 1.0670828046	 0.126453
H	 0.4816011938	 1.1273171081	-2.6073510439	 0.117318
H	 0.7626055865	-0.4355029525	-3.3752053523	 0.117386
H	-0.8424023561	-0.048079892	-2.7181045666	 0.121166
H	 2.7452648024	-0.0481554272	-1.8191852381	 0.094644
H	 2.5670620245	-0.2024612696	-0.0424876688	 0.109066
H	 2.8708764597	-2.7409626733	-1.5871072996	 0.087594
H	 1.3028866752	-3.5337117539	 0.0079752195	 0.21943
H	-1.2611739413	-3.029349829	-1.4295613189	 0.13634
H	-0.4982966335	-2.6274776404	-2.9750240926	 0.123785
H	 0.0983089985	-3.9949045907	-2.026188427	 0.114215
