25
gdb 57355	2.32334	1.31907	1.24293	1.2991	87.72	-0.2563	0.0636	0.3199	1230.9997	0.226588	-389.491528	-389.480947	-389.480003	-389.525993	41.473	
C	-1.4925001174	-0.2614681976	-0.3794186885	-0.438919
C	-0.0239944562	-0.0027258129	-0.0098331648	 0.2682
C	 0.1966895481	 1.4768290646	 0.3244622161	-0.405507
O	 0.2685219735	-0.6850011272	 1.2208415403	-0.461433
C	 0.9483890738	-0.4868988568	-1.1236033519	 0.375467
C	 0.743907393	 0.2351298951	-2.4606136469	-0.466701
C	 2.4595291594	-0.5177559288	-0.7207195	-0.262833
C	 2.5778025519	-1.9375306086	-1.3339850025	-0.217697
C	 1.0294050945	-2.0364346185	-1.3466114329	-0.272288
H	-1.8186159215	 0.3476960112	-1.2263874328	 0.119096
H	-1.6532560042	-1.3133381961	-0.6445672152	 0.108203
H	-2.1310554688	-0.0243691664	 0.4765073354	 0.119904
H	-0.4179374345	 1.7498099947	 1.186465914	 0.118463
H	 1.2426314665	 1.6623209427	 0.584236316	 0.123172
H	-0.0748623146	 2.1248115577	-0.5119483766	 0.112646
H	-0.0483457148	-1.5901695429	 1.1420911736	 0.275051
H	 0.9064316428	 1.3134262002	-2.3703916826	 0.115523
H	 1.4548909064	-0.1372135057	-3.2056586534	 0.112993
H	-0.2608781578	 0.0737690101	-2.8639513958	 0.112337
H	 3.0956444193	 0.2651936004	-1.1427463626	 0.085774
H	 2.5759868807	-0.5311602237	 0.3642527412	 0.115673
H	 3.0027732789	-1.9301480883	-2.3409722187	 0.100884
H	 3.1133466878	-2.6860536715	-0.7457076803	 0.095955
H	 0.6558042213	-2.6155426578	-0.4968245253	 0.074129
H	 0.5561246917	-2.4240305837	-2.2532025359	 0.091909
