15
gdb 66513	3.24963	1.94561	1.70581	2.7804	70.16	-0.2156	-0.0323	0.1833	819.7394	0.113467	-416.672896	-416.666655	-416.665711	-416.70303	26.143	
O	-0.1174087237	 1.3194835309	-0.0821903646	-0.446423
C	 0.052695698	-0.0282455474	-0.0063931908	 0.357227
C	-1.0199728424	-1.0639662637	 0.0694141113	-0.084881
C	-0.3658634154	-1.0385670027	-1.2636894065	-0.192994
C	 0.645790996	-2.0362634514	-0.8286158125	 0.180827
N	 1.9142361474	-2.0029788673	-0.9591165186	-0.252568
C	 2.33417356	-1.5079832484	 0.388637236	-0.188007
C	 0.9991177407	-0.8913463717	 0.9056319168	-0.091741
N	 0.056512242	-2.0133463932	 0.5433012307	-0.150675
H	 0.6451700174	 1.7103283789	-0.5262781729	 0.301713
H	-2.0435163361	-1.0660575054	 0.4162564748	 0.118373
H	-0.6517166551	-0.6062105246	-2.2131819577	 0.118642
H	 2.6613850041	-2.2862061453	 1.0933170276	 0.121761
H	 3.1614330879	-0.8046127515	 0.2523706756	 0.113056
H	 0.9793604792	-0.5743248971	 1.9522883707	 0.095691
