15
gdb 69918	2.85694	1.77651	1.42469	3.034	64.44	-0.2481	-0.0118	0.2363	910.7653	0.112463	-457.714381	-457.707416	-457.706471	-457.745551	27.897	
O	-0.2036095319	 1.3561303869	 0.0946336695	-0.462223
C	-0.0549194718	-0.0194896902	 0.0107295673	 0.379174
C	-0.4028390607	-0.8105979249	-1.2207297206	-0.356504
C	-1.2571051631	-0.9598188862	 0.0232058992	-0.119147
C	-0.7734845394	-1.9637799908	 1.0733604019	-0.060122
O	 0.6416569171	-2.1411532881	 0.7440404059	-0.280884
C	 0.8224261631	-0.7281472271	 1.0583421456	-0.129355
C	-0.228740974	-1.0039899149	 2.1849929928	 0.453258
O	-0.4063494399	-0.7648028172	 3.3317602866	-0.300973
H	 0.5100410661	 1.7694103287	-0.40393117	 0.291751
H	-0.8692427046	-0.2230123634	-2.0040361103	 0.1238
H	 0.2270045682	-1.6255746051	-1.5542981102	 0.13363
H	-2.2743859047	-0.5914242048	 0.0450831824	 0.117254
H	-1.3126919729	-2.8891027714	 1.2629412745	 0.1074
H	 1.8532578385	-0.4217653316	 1.2245554555	 0.10294
