20
gdb 57367	2.10116	1.57251	1.20674	4.7813	79.07	-0.2781	0.0397	0.3177	1136.9901	0.168276	-403.155085	-403.145057	-403.144113	-403.189831	37.739	
C	 0.2753141641	 1.5312830744	 0.1682561075	-0.436463
C	 0.047212663	 0.0178953105	 0.0314903302	 0.250997
C	 0.4683562453	-0.6959499857	 1.3242671154	-0.436326
O	-1.3328167385	-0.2567254253	-0.2279327973	-0.454175
C	 0.7653139849	-0.5091972915	-1.2254790521	 0.211784
C	 2.2057264745	-1.0012217257	-1.1966478202	-0.308604
C	 1.0937910886	-1.9834131904	-1.4070158085	-0.300884
C	 0.3738017287	 0.1762122333	-2.4370217333	 0.261665
N	 0.0879368363	 0.7243037925	-3.4148512016	-0.363627
H	 1.3348585272	 1.7589040925	 0.3197245016	 0.123417
H	-0.0695263558	 2.056762712	-0.7251648574	 0.154002
H	-0.2746247749	 1.9180578026	 1.0338782989	 0.106978
H	-0.1188948401	-0.2888729972	 2.1537543638	 0.115589
H	 0.263056736	-1.7673919882	 1.2759334009	 0.13049
H	 1.5230144208	-0.5404358782	 1.5682213455	 0.120785
H	-1.8611815696	 0.2685049579	 0.3823070723	 0.281775
H	 2.8331030684	-0.7394061563	-2.0399934945	 0.140494
H	 2.7125419075	-0.9949733447	-0.2394995875	 0.12715
H	 0.8321448956	-2.6523815875	-0.5974250845	 0.132077
H	 0.9517776178	-2.3983142848	-2.397260259	 0.142877
