13
gdb 14657	19.60217	0.55805	0.54628	6.4821	96.27	-0.2644	-0.0712	0.1932	1916.1851	0.094798	-324.30443	-324.296027	-324.295083	-324.337952	28.471	
C	-0.0437472972	 1.5583927075	 0.0543745918	-0.372629
C	 0.0119937405	 0.0192257518	-0.0155333538	-0.350279
C	 0.6878910924	-0.4736586491	-1.2030554076	 0.282262
C	 1.2547102864	-0.870409074	-2.1994262107	-0.266456
C	 1.8856466491	-1.3124072507	-3.3085416844	-0.197358
C	 2.4539150532	-1.7103215705	-4.307641843	 0.445811
C	 3.088847163	-2.1545278474	-5.4237786453	 0.076588
N	 3.6326945568	-2.5351015837	-6.3798001485	-0.329534
H	 0.962541089	 1.9841747527	 0.0649053316	 0.140068
H	-0.5790265784	 1.9678983605	-0.8057412238	 0.140069
H	-0.5616164606	 1.869271337	 0.9655049666	 0.129306
H	 0.5222811632	-0.3767180679	 0.8720874948	 0.151075
H	-1.0051623372	-0.3928572661	 0.0094239423	 0.151078
