18
gdb 75513	2.57636	1.56042	1.05038	5.3754	83.3	-0.2143	-0.0422	0.1721	1144.9432	0.149107	-401.982828	-401.974353	-401.973409	-402.015825	32.	
C	 0.0088927673	 1.5815719457	 0.0156056205	-0.462437
C	 0.0178570032	 0.0765491298	-0.0378299331	 0.216653
C	-1.1131263008	-0.6358043111	 0.0172525898	-0.146953
C	-1.1864565669	-2.1421003914	 0.0497243221	-0.239975
N	-0.5724784286	-2.7576640504	-1.1199838691	-0.273121
C	 0.7693057067	-2.6926805158	-1.309312994	 0.004149
C	 1.6431134692	-1.8003638226	-0.7763151274	-0.191293
C	 1.3993038587	-0.5261470463	-0.1033636163	 0.266438
O	 2.3431222465	 0.1407757081	 0.3094861236	-0.3619
H	 0.6141565023	 1.9273151199	 0.8577426992	 0.151248
H	 0.4669014954	 2.0081762397	-0.8838446332	 0.13164
H	-1.0074945773	 1.9713450606	 0.1113721372	 0.106822
H	-2.0612315902	-0.1065423878	 0.0757155157	 0.091897
H	-0.6937575499	-2.5259665071	 0.9585110479	 0.123032
H	-2.2299244779	-2.4627755399	 0.0814426048	 0.113799
H	-1.0502134243	-3.547673164	-1.5189049561	 0.252947
H	 1.1583030285	-3.4707173543	-1.9621979946	 0.116404
H	 2.6961800582	-1.9788775731	-0.9633828071	 0.100651
