21
gdb 90890	2.37627	1.8961	1.39944	1.1491	80.4	-0.2408	0.0679	0.3087	1018.1867	0.183563	-387.075859	-387.067833	-387.066889	-387.107679	33.049	
C	-0.1666801449	 1.5705722612	 0.0029735024	-0.431937
C	 0.0383534444	 0.057320568	-0.0130779478	 0.010398
C	 0.8797163338	-0.48877406	-1.1970992568	-0.263379
C	 1.6099576682	-1.6981050001	-0.6071834843	-0.041563
C	 2.5823125528	-1.4725625618	 0.5414794682	-0.063446
C	 2.2934308743	-0.1408522683	 1.2350844433	-0.305684
C	 0.7683417008	-0.5237173763	 1.2169828089	 0.405327
O	 0.0716569995	-0.4338418422	 2.4302497423	-0.504772
C	 1.1708280845	-1.9635563862	 0.8054558349	-0.12384
H	 0.787361963	 2.1084634963	 0.0341489392	 0.117678
H	-0.7051662875	 1.9060496082	-0.8891766461	 0.119237
H	-0.7604822643	 1.8835385895	 0.8704130006	 0.102807
H	-0.9462893892	-0.4289598996	-0.0317140506	 0.07472
H	 0.243604708	-0.7794241131	-2.0386137346	 0.098053
H	 1.5802158562	 0.2660729037	-1.5748105995	 0.094802
H	 1.839282969	-2.5440192141	-1.2457249553	 0.081978
H	 3.5109546662	-2.0281917906	 0.6015572001	 0.080287
H	 2.6532588569	-0.1450274441	 2.2670460934	 0.103972
H	 2.6102171386	 0.7855314277	 0.7420743221	 0.081937
H	-0.0323352826	 0.4985393165	 2.6492315084	 0.276246
H	 0.7959623724	-2.8895521746	 1.2192540412	 0.087178
