15
gdb 28974	2.99988	1.51208	1.00593	4.1713	83.94	-0.2205	-0.0409	0.1796	1103.7303	0.115662	-379.762421	-379.754917	-379.753973	-379.79419	29.205	
N	-0.0144895232	 1.3914899196	-0.1309054744	-0.607496
C	-0.0001210094	 0.0186005327	-0.0506141234	 0.271498
C	-1.1939979754	-0.7208249656	-0.0297750116	-0.167731
C	-1.1716714836	-2.1058807159	-0.0035292032	-0.096559
C	 0.0366406671	-2.8091650767	 0.0031154796	-0.133083
C	 1.2256805707	-2.0999540776	-0.0129096346	-0.185085
C	 1.2222249994	-0.6977639871	-0.0361243189	 0.121785
C	 2.4438852869	 0.0350369041	-0.0354657151	 0.205225
N	 3.4069279682	 0.6811875174	-0.0263255148	-0.359529
H	 0.8394892323	 1.8792283418	 0.094221962	 0.272146
H	-0.8552178869	 1.8612477552	 0.1626611277	 0.256783
H	-2.1404073638	-0.189255278	-0.0402170437	 0.093521
H	-2.1115181181	-2.6481254932	 0.0122564197	 0.106539
H	 0.0451916189	-3.892120277	 0.0222192601	 0.10382
H	 2.1794175766	-2.6150654799	-0.0028031894	 0.118166
