19
gdb 39134	3.44256	1.3923	1.25312	1.7866	74.09	-0.2295	0.0686	0.2981	1061.2379	0.160621	-422.99094	-422.98343	-422.982485	-423.023242	29.486	
C	-0.1373768448	 1.4060974685	 0.0434375671	-0.337193
C	 1.2409126319	 0.8168362636	-0.0405233596	 0.120159
O	 2.0198451785	 0.7476198847	 1.1281493579	-0.256043
C	 1.2338326798	 0.1202172791	 2.1329497596	-0.167444
C	 0.1665218165	-0.7474894197	 1.4259697613	 0.437708
C	 0.3088801118	-2.2912515598	 1.4613255745	-0.35386
C	-1.0013788096	-2.2594169801	 2.2676172024	-0.069547
O	-1.0539487214	-0.8185534938	 2.2079202101	-0.318885
C	 0.0562419954	-0.1042368818	 0.0623229405	-0.142759
H	-0.4534086201	 1.9018894994	 0.9544696828	 0.129859
H	-0.551848723	 1.8299607343	-0.8646460629	 0.115532
H	 1.8493497084	 0.9308801662	-0.9295630851	 0.102868
H	 1.9031973996	-0.4532754269	 2.7800708429	 0.108618
H	 0.7066605016	 0.8582613853	 2.7540436902	 0.112564
H	 0.2527134793	-2.7815375408	 0.4877811581	 0.111965
H	 1.1852047973	-2.6610068082	 1.9963629119	 0.112899
H	-1.8696333471	-2.7203682261	 1.7815692699	 0.103517
H	-0.9402640794	-2.6226091505	 3.300342339	 0.10358
H	-0.2998963445	-0.7003049935	-0.7693402805	 0.086462
