15
gdb 9588	3.70476	1.28274	1.19309	3.907	68.17	-0.268	-0.0467	0.2212	1034.0719	0.117252	-362.676713	-362.668528	-362.667584	-362.709469	29.104	
C	-0.0515048365	 1.5542429044	-0.1212821285	-0.463164
C	 0.0171751623	 0.0364956834	-0.0170528339	 0.140587
C	 1.3280588062	-0.687100322	-0.1809011353	-0.319383
C	 0.6802355802	-0.6718468728	 1.1867818369	-0.127039
C	 1.292608152	 0.1173863667	 2.2877002647	 0.159184
O	 1.2168229718	-0.1912653879	 3.4494396945	-0.249644
C	-1.1574123874	-0.6376176975	-0.5192909922	 0.254272
N	-2.1040343508	-1.1622978037	-0.9273377707	-0.332867
H	 0.887191348	 2.0160191754	 0.1904654407	 0.13167
H	-0.2420611929	 1.84641688	-1.1576953093	 0.149094
H	-0.8572695765	 1.9556861272	 0.4992778509	 0.15113
H	 1.3455324671	-1.6290430727	-0.7148191717	 0.154485
H	 2.2031819152	-0.0615748132	-0.3262018988	 0.137803
H	 0.1962555201	-1.5813304696	 1.5234541837	 0.137079
H	 1.8600238011	 1.0199801923	 1.968963029	 0.076792
