21
gdb 113721	3.47956	0.85395	0.74752	1.3259	85.79	-0.2613	0.0332	0.2945	1579.403	0.179771	-387.039114	-387.028639	-387.027695	-387.07507	38.321	
C	-0.067241945	 1.5729913326	-0.4458393589	-0.387154
C	 0.0044706474	 0.1592438019	 0.1424574591	-0.180418
C	-1.3552398401	-0.5100376581	 0.1987990146	 0.000711
C	-1.8902063791	-1.3138441262	-0.9626922293	-0.296916
C	-1.5380722007	-2.0025579826	 0.3353975563	-0.029548
C	-0.3476354989	-2.9444999607	 0.4165568541	-0.079662
O	 0.3333640628	-2.8501417772	 1.6685199548	-0.419614
C	-0.755805237	-4.3264518298	 0.1343081805	 0.304728
C	-1.1171708001	-5.457729888	-0.053449972	-0.441011
H	 0.9215099057	 2.0413167283	-0.4732412907	 0.111231
H	-0.4618433834	 1.5556765152	-1.467290937	 0.116717
H	-0.7237483736	 2.2160568486	 0.1508897313	 0.112958
H	 0.6964658111	-0.4437795045	-0.4563366804	 0.094136
H	 0.4323428791	 0.1948583443	 1.1514125564	 0.110342
H	-2.0984971253	 0.076930381	 0.7350959358	 0.080951
H	-2.9352295365	-1.2295290903	-1.2388210318	 0.111999
H	-1.2231965455	-1.4752296779	-1.8050426206	 0.112243
H	-2.3757865901	-2.3286508483	 0.9472961519	 0.083854
H	 0.4022253853	-2.6444178711	-0.3231806519	 0.114932
H	-0.2459814757	-3.2260938881	 2.3407256237	 0.282253
H	-1.4213625206	-6.4591276691	-0.2340314461	 0.197264
