21
gdb 75381	2.52925	1.71069	1.20513	1.2859	83.22	-0.2364	0.0273	0.2637	1101.7219	0.185071	-387.121951	-387.113903	-387.112959	-387.154666	31.448	
C	 0.3530531388	 1.3670802413	 0.1260423394	-0.496183
C	 0.0588231271	-0.0939132877	 0.0057157664	 0.3253
C	 0.0131038207	-0.8412044821	-1.0977274191	-0.171135
C	-0.2991650884	-2.2911612838	-0.8306447405	-0.272389
C	-0.3913875036	-2.3861297049	 0.7181983791	-0.042229
C	 0.7613128591	-3.1522912342	 1.4069022846	-0.226534
C	 1.7455047211	-2.0333955447	 1.7702974408	-0.083763
O	 0.9211860901	-0.9364100883	 2.1398490114	-0.259625
C	-0.2002105594	-0.9275154167	 1.2446843093	 0.013097
H	 1.1859068112	 1.5292324254	 0.8195463451	 0.139953
H	 0.6077953427	 1.8139784624	-0.8387205448	 0.117583
H	-0.506483487	 1.9118147083	 0.5382943012	 0.122075
H	 0.1768771277	-0.4634254299	-2.1030086028	 0.084945
H	-1.2401797935	-2.5944824898	-1.3076931591	 0.104424
H	 0.4712288946	-2.9567867545	-1.2423242536	 0.100343
H	-1.3572244309	-2.7959997612	 1.0179442194	 0.075005
H	 0.4025850208	-3.6352797225	 2.3209470704	 0.104035
H	 1.2030608679	-3.922292411	 0.7687697447	 0.097295
H	 2.391725243	-2.2664435389	 2.6207437689	 0.105005
H	 2.3832311861	-1.7772086821	 0.9095488206	 0.090283
H	-1.0445386782	-0.5436486953	 1.8297740985	 0.072515
