16
gdb 41078	4.20728	1.88227	1.68609	2.9759	70.73	-0.2288	0.0605	0.2893	814.3839	0.126404	-400.597857	-400.592256	-400.591311	-400.627455	24.292	
C	 0.1391768338	 1.4547529587	-0.2374877115	-0.187193
O	 1.4888966317	 1.3656919761	 0.315295502	-0.300767
C	 1.1512927479	 0.1563169413	 1.057200492	 0.108394
C	 1.5236125315	-1.2241200249	 0.5124626294	-0.074652
C	 0.322818595	-2.1414855203	 0.8893085767	-0.103696
C	-0.20556067	-2.0638624834	-0.5092070044	-0.017623
C	-0.8964773843	-1.2161665581	 0.5034454919	-0.23739
C	-0.058462875	-0.0036008754	 0.1407596582	 0.326168
N	 0.7696845405	-0.9357524743	-0.7943871373	-0.200606
H	-0.4710510327	 2.1768727467	 0.3207112097	 0.1034
H	 0.1428055125	 1.6876879033	-1.3054173184	 0.124407
H	 1.114218282	 0.3265722793	 2.1369051046	 0.078923
H	 2.5241739941	-1.6568640886	 0.47233836	 0.084267
H	 0.2346643956	-2.9267982677	 1.6297144097	 0.096156
H	-0.5421852935	-2.800790162	-1.2275412839	 0.101198
H	-1.861016929	-1.3224054609	 0.9812526713	 0.099013
