11
gdb 25058	5.80421	1.06653	0.90097	1.7217	68.67	-0.2797	-0.1125	0.1672	1145.7152	0.066654	-451.59267	-451.585796	-451.584852	-451.624432	24.851	
O	-0.0431316713	-0.0481313951	 0.0036097281	-0.297306
C	 0.0132693637	 1.1437806795	 0.0093724181	 0.412439
O	-1.186191582	 1.8817167101	 0.0288542874	-0.194855
C	-1.1656428945	 3.2147963341	 0.0356317935	 0.044253
C	-0.0030305064	 3.9149824753	 0.0241886482	 0.127192
N	 1.2236768933	 3.2711659066	 0.0047525648	-0.247109
C	 1.2199811958	 1.9840864029	-0.0020261466	-0.113023
C	-0.0214309259	 5.3438189364	 0.0320004247	 0.237839
N	-0.060839083	 6.5000136393	 0.0386389754	-0.314984
H	-2.1532040215	 3.6606345703	 0.0508651607	 0.181684
H	 2.1654630218	 1.4483203505	-0.0172621944	 0.163869
