20
gdb 80704	2.02594	1.57299	1.40273	1.2459	79.44	-0.2285	-0.0276	0.201	1092.6361	0.168967	-403.116909	-403.107526	-403.106582	-403.151078	34.444	
C	-0.1484387224	 1.5705789143	 0.0399333778	-0.420699
C	 0.0198723688	 0.0793719198	 0.21547139	-0.019689
N	 1.1662043787	-0.7206007847	-0.2844995604	-0.19145
C	 2.4128510013	 0.0695859991	-0.0089943452	-0.189613
C	 2.1530819429	 0.0373639328	 1.5293432647	-0.16603
C	 2.1840231816	 1.2918050095	 2.3589640926	 0.135876
O	 1.2530404397	 1.7285117412	 2.988861713	-0.24931
C	 0.8275217286	-0.6552932606	 1.2151583232	 0.330811
C	 0.313250126	-1.8295539351	 1.9943467359	-0.496517
H	 0.7382227245	 2.1548329021	 0.2861279298	 0.120058
H	-0.4250987364	 1.7951859113	-0.996165369	 0.120762
H	-0.9529313469	 1.9257165838	 0.6909543525	 0.137113
H	-0.8962090423	-0.4576559026	-0.0289929256	 0.095041
H	 3.2893012663	-0.5029962813	-0.3147753824	 0.116814
H	 2.4492238618	 1.0509105835	-0.4912061931	 0.110255
H	 2.8647248815	-0.6592774617	 1.9916456106	 0.107677
H	 3.1714054885	 1.8122078942	 2.3634932541	 0.075345
H	-0.079349522	-1.497959315	 2.9625196188	 0.136108
H	-0.4918426214	-2.3359828155	 1.454762721	 0.12948
H	 1.107290991	-2.5607851651	 2.1833898419	 0.117967
