19
gdb 66367	2.33852	1.39962	1.31275	2.2593	75.21	-0.2616	0.0264	0.288	1092.2484	0.161486	-419.224857	-419.21642	-419.215476	-419.257499	32.721	
N	-0.0567211532	 1.4709622777	 0.0728637284	-0.52997
C	 0.0108909612	 0.0089321498	-0.0172575386	 0.09345
C	 0.7570404384	-0.5446746116	 1.2177081916	-0.216651
C	 0.6290360312	-2.0675540639	 1.3113950859	-0.094758
O	-0.7272083183	-2.4745600678	 1.3293815618	-0.241278
C	-1.4116839456	-2.0903959499	 0.1506994636	-0.094761
C	-1.4223855708	-0.5690753512	-0.0217958403	-0.216649
C	 0.7176911644	-0.4204002214	-1.2514911578	 0.252766
N	 1.2738283467	-0.7088975033	-2.2242386376	-0.351388
H	 0.8815563793	 1.8633724515	 0.0625410258	 0.238974
H	-0.5339472735	 1.8475638953	-0.742540392	 0.238977
H	 1.8132926403	-0.2548568987	 1.1864677856	 0.10781
H	 0.3025405356	-0.0776631555	 2.0968062278	 0.12599
H	 1.1610374474	-2.5457474753	 0.4724859441	 0.111135
H	 1.0735747431	-2.4298111617	 2.2420840349	 0.115701
H	-0.9544785539	-2.5693884236	-0.7307734813	 0.111143
H	-2.4325547866	-2.4690741127	 0.2479032318	 0.115699
H	-1.9535204132	-0.1029632197	 0.813743226	 0.125996
H	-1.9402456625	-0.2968715781	-0.9482737496	 0.107816
