14
gdb 3393	4.40539	2.65708	2.25992	3.9067	57.24	-0.2442	-0.0095	0.2346	638.3639	0.113444	-324.559324	-324.553021	-324.552077	-324.589309	23.592	
C	-0.0007645387	 1.5460084916	 0.0133395628	-0.420586
C	 0.0426536635	 0.0432490798	-0.1328287547	 0.015596
C	 0.6874488588	-0.7128651956	-1.2185104706	-0.042413
C	 1.9573035835	-0.0523161009	-1.7499031125	-0.379224
C	 2.4104727488	-0.0472670991	-0.28058882	 0.400612
O	 3.382689071	 0.3027848937	 0.3110176226	-0.294045
N	 1.2547376363	-0.7760282603	 0.2163617583	-0.195094
H	 0.8541821534	 2.0483521196	-0.4440655938	 0.136163
H	-0.912139345	 1.9341173084	-0.4531210811	 0.129692
H	-0.0215798306	 1.8197514358	 1.0726654615	 0.144158
H	-0.8334694562	-0.4492653093	 0.2842537028	 0.113861
H	 0.2412795373	-1.6021262653	-1.6480278004	 0.112526
H	 2.5768824745	-0.7272035436	-2.3461177776	 0.145355
H	 1.8766866834	 0.9075974851	-2.2652038873	 0.133399
