21
gdb 103196	2.86085	1.5421	1.27201	1.6384	80.4	-0.2271	0.0752	0.3023	1086.609	0.181761	-387.026005	-387.017557	-387.016613	-387.058896	33.484	
C	 0.084722003	 1.5106549858	 0.1747773811	-0.391161
C	-0.0263326053	-0.0070799044	-0.0188588533	-0.236563
C	-1.4564191446	-0.557304117	-0.0132753615	 0.331508
C	-2.3251827361	 0.0103919658	-1.1375563006	-0.454833
C	-1.6111099042	-2.084446946	 0.1114194758	-0.16092
C	-1.5368311017	-2.3688432651	 1.623227399	 0.069232
O	-1.2874822504	-1.1353235154	 2.3004034489	-0.292868
C	-2.2208413394	-0.5363545092	 1.3568607539	 0.029299
C	-2.8290256988	-1.9486236124	 1.0185632019	-0.15074
H	 1.1343071443	 1.8168331955	 0.2213867464	 0.112552
H	-0.3830905001	 2.0696095076	-0.6415886976	 0.113203
H	-0.3888416236	 1.825592075	 1.1111124497	 0.118564
H	 0.4493846571	-0.2919251171	-0.9673264822	 0.084669
H	 0.5318510653	-0.5083049939	 0.7762355046	 0.112571
H	-1.8863389937	-0.2060764376	-2.1178684981	 0.114043
H	-3.3308519281	-0.4211698291	-1.1210500689	 0.11488
H	-2.4268115705	 1.097247202	-1.0548197384	 0.116253
H	-1.414251327	-2.8438249658	-0.6361413277	 0.083763
H	-1.1998898216	-3.2941265097	 2.071175135	 0.109121
H	-2.7232617402	 0.349089831	 1.7430397062	 0.07934
H	-3.8238133345	-2.3698989299	 1.0002163656	 0.098088
