15
gdb 51439	3.15841	1.21139	0.97502	4.4929	68.67	-0.2434	-0.0416	0.2018	1181.4196	0.111679	-453.891461	-453.883309	-453.882365	-453.925351	28.939	
N	-0.0559442329	 1.2402771209	 0.0810692481	-0.435643
C	-0.2049429835	 0.0278839509	-0.2297399649	 0.117277
O	-1.0524383062	-0.742812948	 0.4977461388	-0.194656
C	-1.0721606932	-2.1110609977	 0.1784985172	 0.019927
C	-2.2534084415	-2.9072976673	 0.7209235389	-0.090467
N	-3.4443662261	-2.4112621097	 0.0336848671	-0.309105
C	-2.5917269603	-3.4498459188	-0.6464308958	-0.191405
C	-1.4782736602	-2.6319993087	-1.2527732169	 0.426574
O	-0.9847972094	-2.5169704748	-2.3344415973	-0.305617
H	 0.5943710098	 1.6838851927	-0.5645397353	 0.232102
H	 0.2728932873	-0.5060095665	-1.0588830271	 0.118716
H	-0.1200714767	-2.5971804212	 0.4410359605	 0.114291
H	-2.3024395509	-3.4268230832	 1.6681898056	 0.121634
H	-4.252299084	-2.9108315853	 0.406007065	 0.248857
H	-2.9994281121	-4.4065655032	-0.9434433838	 0.127514
