16
gdb 67918	2.1412	1.76751	1.19162	4.0128	75.93	-0.2469	-0.0171	0.2298	1064.3668	0.121818	-400.700048	-400.691567	-400.690622	-400.732964	32.017	
C	-0.0616053783	 1.5580701582	 0.0826747637	-0.489739
C	 0.0287958465	 0.0672910265	-0.0358358698	 0.3299
C	-0.7636618398	-0.7849730451	-1.0317630786	-0.441671
C	-1.0387940103	-1.7001873488	 0.1703345947	 0.423504
O	-1.684831153	-2.6767725113	 0.3719189536	-0.288036
N	-0.3355709885	-0.8582682987	 1.1372137936	-0.229719
C	 1.0843051378	-0.7398723671	 0.6198342061	-0.268932
C	 1.7610235654	-1.8416699084	-0.0044916748	 0.356903
C	 2.3439849713	-2.7583602755	-0.5196020564	-0.430434
H	 0.4620259776	 2.0425800599	-0.7488138063	 0.135483
H	-1.1055160942	 1.887155487	 0.0631072599	 0.135032
H	 0.3879051741	 1.9038052735	 1.0174580389	 0.13867
H	-1.6797195513	-0.3048721274	-1.3859087232	 0.140364
H	-0.2238746724	-1.2184183602	-1.8757355028	 0.144752
H	 1.6857467427	-0.2048366335	 1.3509372631	 0.133526
H	 2.8542884625	-3.5739669191	-0.9701161918	 0.210398
