16
gdb 12870	2.73084	2.35513	1.81428	0.9019	64.75	-0.2241	0.0074	0.2315	792.6527	0.130359	-383.723363	-383.716171	-383.715227	-383.754167	28.529	
O	 0.0369669485	 1.3741549257	-0.0996338517	-0.425582
C	-0.072741814	-0.0121515854	-0.035931651	 0.050538
C	-0.4520661979	-0.770697399	 1.2375723663	-0.184236
C	-1.134632987	 0.0367385653	 2.2846873326	-0.084138
C	-2.295917661	 0.5419978662	 1.8489096523	-0.100301
C	-2.6096871376	 0.0998695644	 0.4362820185	-0.334259
C	-1.3887931116	-0.733387998	 0.0278508077	 0.328213
O	-1.591497286	-1.8926002722	-0.7219754596	-0.464851
H	-0.386453343	 1.734780286	 0.6909882826	 0.285196
H	 0.6918876091	-0.4918135101	-0.6403941843	 0.107301
H	 0.1209701452	-1.6543935236	 1.494209778	 0.098092
H	-0.7101842943	 0.2015681036	 3.2686065833	 0.10202
H	-2.955670061	 1.1840381104	 2.4215029179	 0.101046
H	-3.5168025579	-0.5157399115	 0.3914665145	 0.120548
H	-2.7626572537	 0.9530846733	-0.2376579273	 0.116085
H	-1.6096574377	-1.6464133252	-1.6534792495	 0.284327
