23
gdb 72460	2.42085	1.80251	1.41138	0.1574	88.98	-0.2325	0.0295	0.262	1055.9735	0.209254	-351.193073	-351.185287	-351.184343	-351.224594	32.961	
C	-0.0438757404	 1.5268230922	 0.0086272995	-0.464291
C	 0.0091905903	-0.0007457311	 0.0140450981	 0.319333
C	 0.8004352919	-0.5777112132	-1.2051262067	-0.231522
C	 1.5951813837	-1.8064645596	-0.6740473397	-0.20744
C	 1.0093687283	-2.0383272855	 0.7423162413	-0.054705
C	 0.7820788041	-0.5921481414	 1.2153512429	-0.239457
C	-0.3293478863	-2.7396319759	 0.6418557821	-0.064481
C	-1.4350661556	-2.0695784074	 0.3180435569	-0.056899
C	-1.423924272	-0.5866206401	 0.0438957732	-0.276044
H	 0.9640244883	 1.9559344979	-0.0109364986	 0.106763
H	-0.5827819532	 1.903008372	-0.8690339091	 0.10871
H	-0.5548886548	 1.9114755548	 0.8986696404	 0.108185
H	 0.121204776	-0.8527993747	-2.0174488404	 0.096161
H	 1.4821245522	 0.1775311526	-1.6088785113	 0.090716
H	 1.4952782333	-2.6847781317	-1.3172177512	 0.093261
H	 2.6638242135	-1.5749234489	-0.6012207515	 0.089672
H	 1.6930122085	-2.6015548376	 1.3837378294	 0.056516
H	 1.7392701047	-0.0738494821	 1.3526093371	 0.081994
H	 0.2227694567	-0.5286758866	 2.1541269611	 0.089343
H	-0.3617161502	-3.8128465815	 0.8112024875	 0.080092
H	-2.3913551822	-2.5824576653	 0.2444876703	 0.080633
H	-2.0267314465	-0.0660225056	 0.8041305933	 0.096123
H	-1.9232004003	-0.3787334514	-0.9135444647	 0.097336
