23
gdb 121640	5.76468	0.5816	0.5585	2.5056	88.35	-0.2404	-0.0064	0.234	2088.9808	0.204104	-388.312797	-388.302274	-388.30133	-388.349661	37.599	
C	 0.0939663315	 1.5435017891	-0.0029035697	-0.379655
C	 0.0086499932	 0.0148671387	-0.0183087076	-0.170285
C	-1.4328177157	-0.5021493055	 0.028004417	-0.155432
C	-1.5226600447	-2.0267244903	 0.0128742358	-0.314828
C	-2.9435440556	-2.5686852328	 0.0577384871	 0.377446
O	-3.9138833745	-1.8391977647	 0.1015196699	-0.334979
C	-3.083344066	-4.0554536955	 0.0450238009	-0.100941
C	-4.2454244371	-4.6544544872	 0.8249587214	-0.247122
C	-4.2992521131	-4.6366430456	-0.6630146687	-0.247125
H	 1.1325429164	 1.8872536188	-0.0366855955	 0.10963
H	-0.4293783566	 1.9765939831	-0.862463077	 0.1156
H	-0.3648798331	 1.9552111948	 0.9027768362	 0.115597
H	 0.5063283199	-0.370901734	-0.9184352999	 0.091599
H	 0.5702396906	-0.3921230249	 0.8335741629	 0.091597
H	-1.937795444	-0.1228907566	 0.9240579157	 0.108577
H	-2.001392725	-0.1018599258	-0.8194809619	 0.108598
H	-1.0353820165	-2.4430666122	-0.8815359708	 0.119117
H	-0.9723813004	-2.4640779133	 0.8594302179	 0.119113
H	-2.1625139628	-4.6267775495	 0.0049008819	 0.084791
H	-4.066790201	-5.5941510668	 1.3347265437	 0.11652
H	-4.8668405697	-3.9415425615	 1.354567832	 0.13783
H	-4.9566539161	-3.911743108	-1.1291008765	 0.137832
H	-4.1588264396	-5.5637037102	-1.206740965	 0.116522
