20
gdb 15765	3.53751	1.08084	0.87101	0.1872	84.12	-0.2392	0.0619	0.3012	1381.2442	0.175225	-311.838715	-311.828991	-311.828047	-311.8746	34.22	
C	 0.1859434511	 1.3954965657	 0.0737396415	-0.4969
C	 0.0631650372	-0.0545246127	 0.0146661179	 0.044023
C	-0.0313039145	-1.2546162791	-0.0271405025	 0.098812
C	-0.1599555808	-2.7123595247	-0.1022678584	-0.180921
C	-1.6407143889	-3.1373296705	-0.1801094993	-0.384683
C	 0.6401511577	-3.2771433425	-1.2718217722	 0.058099
C	 2.1182988843	-3.5183037946	-1.1397668313	-0.26613
C	 1.1657242949	-4.6885996194	-1.2120942164	-0.27949
H	 0.9061799915	 1.7654261645	-0.6647077617	 0.145211
H	-0.7728485216	 1.8870618436	-0.1260365439	 0.144466
H	 0.526785475	 1.7273749211	 1.0609650706	 0.144783
H	 0.2634999366	-3.1397909741	 0.8188632385	 0.092322
H	-1.7204054834	-4.2284236003	-0.1987210861	 0.113794
H	-2.2019232485	-2.7581862505	 0.6780898376	 0.119156
H	-2.1059553098	-2.7422898159	-1.0884766055	 0.120847
H	 0.2938068534	-2.92979961	-2.2416942731	 0.085576
H	 2.7544234507	-3.3149748062	-1.9939402361	 0.110078
H	 2.580186346	-3.3000759828	-0.1823522654	 0.112762
H	 0.9939187047	-5.2561286729	-0.3025740387	 0.108586
H	 1.1474452744	-5.2877363988	-2.1158046655	 0.109607
