21
gdb 26245	3.78967	1.02294	0.86657	1.6589	89.15	-0.1693	0.0535	0.2228	1418.5079	0.182474	-383.300797	-383.290964	-383.29002	-383.335654	36.227	
C	 0.0748980493	 1.2234956247	 0.5528254931	-0.32963
N	-0.0603295938	 0.0805662919	-0.3497874288	-0.1593
C	 1.1929445752	-0.6366973479	-0.51823267	-0.322367
C	-1.1650049057	-0.7490725466	-0.0923801783	 0.336889
C	-1.2763947742	-2.0506598358	 0.3445362624	-0.228327
C	-2.668306322	-2.3715277358	 0.3635048819	-0.223517
C	-3.3710891949	-1.2665347468	-0.0504172299	 0.305798
C	-4.8357627941	-1.0335650324	-0.214426423	-0.503955
N	-2.4409673675	-0.2814349634	-0.3246592449	-0.355575
H	 0.8098652508	 1.9253183534	 0.1452599904	 0.116845
H	-0.8801175781	 1.7454614272	 0.6454769583	 0.116017
H	 0.4000258114	 0.927944192	 1.5657380406	 0.105425
H	 1.5669200474	-1.0836012378	 0.4202862459	 0.10203
H	 1.0613808632	-1.436197386	-1.2507885018	 0.131402
H	 1.9572432034	 0.0555192412	-0.8859496442	 0.115106
H	-0.4606145748	-2.6943566877	 0.6327031994	 0.083948
H	-3.106812765	-3.3120454596	 0.6626274684	 0.083174
H	-5.2039849776	-0.2224878746	 0.427392418	 0.121443
H	-5.1070713456	-0.7772612102	-1.2472084861	 0.120121
H	-5.3851918668	-1.9394759448	 0.0524830401	 0.134757
H	-2.6408621908	 0.602502839	-0.7603360016	 0.249717
