19
gdb 57266	2.21687	1.41858	1.31051	0.289	76.86	-0.2512	0.0355	0.2868	1113.107	0.154638	-422.969849	-422.959679	-422.958735	-423.004109	38.804	
C	 0.1761455627	 1.4502929657	 0.1670440089	-0.419342
C	-0.0150368721	-0.065668676	 0.0126549825	 0.116202
O	 0.5836379618	-0.659332332	 1.1714332699	-0.452888
C	-1.4426457456	-0.40869573	-0.0435184321	 0.32295
C	-2.600677154	-0.7307175429	-0.0522957352	-0.484326
C	 0.6877353194	-0.5691347921	-1.2675437434	 0.405065
O	 0.1618037697	-0.025166423	-2.4478296039	-0.470373
C	 2.1580492213	-0.888855612	-1.2266605843	-0.335022
C	 1.1275891652	-1.9933297961	-1.3797452654	-0.301547
H	 1.2443159963	 1.673629729	 0.2408797813	 0.125525
H	-0.2512843882	 1.9847241921	-0.6844130449	 0.120516
H	-0.3192444735	 1.7948211361	 1.076676268	 0.134083
H	 0.1184764406	-1.4825910089	 1.3506560473	 0.290352
H	-3.6261590089	-1.0066916354	-0.0746347448	 0.199949
H	 0.5262040507	 0.8595317209	-2.5578850613	 0.283767
H	 2.7409116831	-0.6221962598	-2.1015450275	 0.109073
H	 2.6694453738	-0.8117449953	-0.2751156909	 0.129408
H	 0.9739230615	-2.6594029166	-0.5389383983	 0.103199
H	 1.0141568065	-2.4488188638	-2.3561300858	 0.123409
