15
gdb 14897	4.82988	1.53293	1.21225	4.7276	67.1	-0.2656	-0.0004	0.2651	948.3844	0.120155	-362.675375	-362.668399	-362.667455	-362.706632	25.99	
N	-0.0126542999	-1.1443829409	-0.0740300185	-0.314897
C	 0.0122252005	 0.0090280886	-0.0274112068	 0.28166
C	-0.0134121327	 1.4758617445	 0.0475877628	-0.025751
C	-0.7066630314	 1.9719942932	 1.3293304077	-0.255872
C	-0.4814678882	 3.4551610033	 1.4616053532	-0.076618
C	 0.4655084379	 4.0822346564	 0.7687494246	-0.063282
C	 1.4019145259	 3.3483865317	-0.1490330174	-0.11817
O	 1.3246233225	 1.9361877192	-0.0154159131	-0.256258
H	-0.5808723789	 1.8424882034	-0.8242000819	 0.117873
H	-1.7768178774	 1.7406712549	 1.2786092472	 0.126255
H	-0.3081426945	 1.4310735924	 2.1963118551	 0.138874
H	-1.1306032848	 4.0026358	 2.1384176406	 0.10245
H	 0.6000989212	 5.1578536842	 0.8394022056	 0.102421
H	 1.2192191824	 3.6442712029	-1.1977731675	 0.108842
H	 2.4432147775	 3.6046693162	 0.0755475983	 0.132473
