19
gdb 50174	2.96919	1.29023	1.07957	2.6716	82.56	-0.2279	-0.0234	0.2045	1165.5633	0.160035	-385.882075	-385.874144	-385.8732	-385.914997	30.438	
O	-0.0430576854	-0.06468079	-0.3170273914	-0.261529
C	-0.0016065075	 1.1255420308	-0.1294356937	 0.174423
C	 1.2600398673	 1.9363757236	-0.0535446223	-0.129889
C	 1.1239515715	 3.3247562838	-0.8085841371	-0.354398
C	 0.8234192895	 3.9206039371	 0.5456095703	 0.3191
C	-0.0441677905	 4.6314706627	 1.2567314633	-0.236897
C	-0.0492630653	 4.1202921591	 2.6967252414	-0.236553
C	 0.5668998966	 2.6826661121	 2.5851124698	-0.254224
C	 1.4173091888	 2.7671706153	 1.2992828556	-0.043355
H	-0.9377651597	 1.71596779	-0.0005081321	 0.077131
H	 2.1087263951	 1.3084236901	-0.3282566799	 0.091258
H	 2.0896389369	 3.6256978968	-1.2259172788	 0.123435
H	 0.3614131421	 3.4092249685	-1.5877339461	 0.120084
H	-0.7143478437	 5.4049416427	 0.9002098676	 0.096269
H	 0.5488222665	 4.7596923839	 3.3610137219	 0.108587
H	-1.0598633243	 4.1012601551	 3.1186477836	 0.106554
H	 1.1459572082	 2.4031420158	 3.4690337105	 0.101609
H	-0.238293519	 1.9483991498	 2.4823399518	 0.112146
H	 2.488381203	 2.8705584227	 1.5094161755	 0.086249
