10
gdb 21752	5.75672	2.49467	1.74045	2.5034	52.15	-0.2745	-0.0389	0.2356	648.151	0.064496	-409.629847	-409.625034	-409.62409	-409.658798	18.018	
O	-0.072505555	 1.3298725972	 0.0098707228	-0.198552
C	 1.2567809405	 1.6850491206	-0.0009286527	 0.082915
N	 2.1038085821	 0.7073507995	-0.0142767081	-0.209787
N	 1.2693211594	-0.3761611508	-0.0121111083	 0.09575
N	 1.394813319	-1.7209883237	-0.0205587276	-0.257878
C	 0.1043654177	-2.066389354	-0.0099974759	 0.036853
N	-0.8283200564	-1.0514313471	 0.0043179724	-0.384015
C	-0.0231997467	-0.0212675742	 0.002158395	 0.500505
H	 1.4857906781	 2.736883156	 0.0025213147	 0.19006
H	-0.1866233987	-3.1057705735	-0.0127834023	 0.144149
