20
gdb 64077	3.23433	1.19335	1.08412	4.0021	82.95	-0.2238	-0.0485	0.1753	1203.8739	0.170948	-403.17729	-403.168474	-403.16753	-403.210327	34.44	
C	-0.0126206339	 1.5305405786	-0.0137562686	-0.411203
C	-0.0591170368	-0.0081969419	-0.0009771642	 0.211355
C	-1.5337625241	-0.4791562611	 0.1098745708	-0.41507
N	 0.6127916938	-0.4745533963	-1.221445861	-0.328686
C	 0.9452477086	-1.8937177834	-1.2659760826	-0.29079
C	 1.8288570331	-2.2823457452	-0.0852021947	 0.398911
O	 2.6108576045	-3.2087092667	-0.1458368851	-0.330985
C	 1.5967517981	-1.512854624	 1.15154412	-0.194261
C	 0.7066925972	-0.5157540142	 1.196131446	-0.015987
H	 1.0212894383	 1.8788553098	-0.0692853096	 0.132224
H	-0.5506890553	 1.915335943	-0.8871665123	 0.111823
H	-0.4851094409	 1.9490755621	 0.8804683597	 0.113209
H	-2.1224640103	-0.059742497	-0.7137422675	 0.112103
H	-1.6082398348	-1.5694680265	 0.0701078222	 0.124451
H	-1.9899318998	-0.148659353	 1.0486951783	 0.119003
H	 0.0643753746	-0.2147616488	-2.0342729433	 0.217663
H	 0.0725577635	-2.5758013481	-1.2437401278	 0.103069
H	 1.4923454598	-2.1110143001	-2.1869148568	 0.127984
H	 2.1475468596	-1.836456549	 2.0292598934	 0.108054
H	 0.4934515346	-0.0138871081	 2.1376664229	 0.107133
