18
gdb 41242	2.94432	2.11987	1.68893	1.6615	74.45	-0.2252	0.0625	0.2877	855.2982	0.150853	-401.855375	-401.849343	-401.848399	-401.88535	26.455	
C	-0.0255129947	 1.5070277272	-0.1995309982	-0.260111
C	 1.5207046318	 1.5527252512	 0.1110459698	-0.356873
C	 1.2926796343	 0.2467581848	 0.8784060939	 0.309082
N	 1.9453204341	-1.0532433517	 1.1598957847	-0.378689
C	 0.7430599244	-1.3100615566	 1.9750051005	-0.065826
C	-0.6672418246	-0.7579110348	 1.2744436338	 0.000725
O	-0.7413279632	 0.2589503602	 2.3066221769	-0.278801
C	 0.6765334068	 0.163555859	 2.3574995844	 0.065148
C	-0.0052957906	-0.024719743	 0.1111284179	-0.012036
H	-0.6086486371	 2.0630091232	 0.535587928	 0.128634
H	-0.3295568824	 1.7961464783	-1.206405029	 0.100495
H	 2.1167375438	 1.4173083988	-0.7968504171	 0.107659
H	 1.9128537416	 2.4072695237	 0.6687324347	 0.104215
H	 2.0573989759	-1.6401418358	 0.3335708681	 0.212187
H	 0.7100209971	-2.1627989687	 2.6506648722	 0.0894
H	-1.5752062286	-1.3509848897	 1.178207436	 0.076329
H	 1.1719523432	 0.6563102617	 3.1916645024	 0.09252
H	 0.1448904181	-0.6404431477	-0.7797318988	 0.065941
