15
gdb 128223	5.21162	1.04892	0.88027	4.5675	73.89	-0.2162	-0.064	0.1521	1257.4329	0.113744	-450.142497	-450.134494	-450.13355	-450.175349	29.406	
C	 0.0349673104	 1.4352206	 0.1463777661	-0.329154
N	-0.0547856157	 0.0168610815	-0.1263081081	-0.349546
C	-1.2381420629	-0.6743405876	-0.0671659336	 0.40226
C	-2.5084565006	-0.0660612251	-0.1018572974	-0.073511
N	-3.6041279825	-0.8042350833	-0.0897306666	-0.317976
C	-3.4100608888	-2.1262521713	-0.0395740202	 0.475524
O	-4.4945417211	-2.9200351539	-0.0364541517	-0.395634
N	-2.237371039	-2.7511141838	 0.0185768144	-0.232345
N	-1.1423895028	-2.0099290262	 0.0090531628	-0.260221
H	 1.0844565609	 1.7323009881	 0.1094133909	 0.139307
H	-0.4962110625	 2.0160303752	-0.616589101	 0.137093
H	-0.3687396118	 1.7152846752	 1.1313659417	 0.123849
H	 0.7450463075	-0.5547541222	 0.1003481117	 0.253034
H	-2.6326468946	 1.0124398126	-0.1365478699	 0.121896
H	-5.2618459564	-2.3346323492	-0.0754475892	 0.305426
