14
gdb 10788	4.87188	1.62306	1.28456	1.6989	59.78	-0.2539	0.0086	0.2625	892.4977	0.109157	-415.899815	-415.892838	-415.891894	-415.931386	25.539	
N	-0.0497730885	 1.0429736684	-0.8343980069	-0.512211
C	 0.0183837426	 0.0715817013	-0.0295161924	 0.416475
C	-1.2387387384	-0.5795411868	 0.5056561754	-0.261834
N	-1.0419921482	-2.008428356	 0.6894418756	-0.314117
C	 0.0875136786	-2.5046152404	 1.2623785332	 0.390422
O	 0.2369692376	-3.6540010759	 1.6213105901	-0.360076
C	 1.178265256	-1.4485432993	 1.4282000669	-0.203159
O	 1.1972222493	-0.4500996599	 0.4006545133	-0.238817
H	 0.8867313031	 1.3823643358	-1.0630922666	 0.227489
H	-1.5253443526	-0.084251439	 1.4468214356	 0.13647
H	-2.0374773763	-0.399982345	-0.2128324567	 0.161004
H	-1.8285631783	-2.6366477502	 0.617220509	 0.261162
H	 1.0679650562	-0.9714983601	 2.4124631809	 0.137409
H	 2.1468167289	-1.9461170329	 1.3959315325	 0.159783
