18
gdb 92875	2.18843	1.83752	1.21136	5.0205	75.32	-0.2219	-0.0379	0.1839	1049.7112	0.148998	-439.127303	-439.119066	-439.118122	-439.159735	32.121	
C	-0.1383830387	 1.5783124416	 0.0521609331	-0.396718
C	 0.0020428025	 0.0519996998	 0.0118501599	-0.023423
N	 0.7088309629	-0.4121867149	-1.1920172454	-0.290828
C	 2.0656281839	-0.3974168709	-1.2318329261	 0.033817
C	 2.8661921794	-0.260192174	-0.1382888589	-0.23049
C	 2.2608247894	-0.1632044334	 1.1657177125	 0.343999
O	 2.8225527974	 0.1282637787	 2.2146107901	-0.391529
C	 0.7620919172	-0.5181717505	 1.2223276438	 0.039515
O	 0.2098652662	-0.0761436669	 2.4274505119	-0.442254
H	 0.8389547346	 2.0670118923	-0.0031116027	 0.133181
H	-0.7497254025	 1.9335429126	-0.783264999	 0.105605
H	-0.6172974803	 1.8716672829	 0.9882822382	 0.149627
H	-0.9959559069	-0.3981241529	-0.0007015461	 0.100877
H	 0.225245574	-0.305433366	-2.0693255982	 0.2532
H	 2.4939403022	-0.5092428292	-2.2241457932	 0.12666
H	 3.9421583684	-0.2176563754	-0.2401578131	 0.104581
H	 0.7120466291	-1.6207245133	 1.1453527715	 0.091732
H	 0.9886074311	 0.1515206495	 2.9679424516	 0.292447
