18
gdb 77737	2.3166	2.11119	1.41866	1.9427	79.14	-0.2058	-0.0381	0.1677	961.5456	0.146573	-401.825888	-401.817867	-401.816923	-401.857905	31.426	
C	-0.0092103654	 1.4399213733	-0.4849784705	-0.487626
C	-0.073246598	 0.0198809022	 0.0016639679	 0.281454
C	 0.6342841768	-1.2000834649	-0.4488714944	-0.134931
N	 1.1796263545	-0.504771233	 0.7029462447	-0.165147
C	 1.0894423284	-1.4969630218	 1.8159232867	-0.181717
C	-0.1649023962	-2.2920085533	 1.4826837253	-0.104286
C	-0.5053327806	-2.0025730555	 0.2095656474	-0.033577
C	-1.4439053737	-0.8003488371	 0.0907061168	 0.048956
O	-2.3361213654	-0.6154703648	 1.1477766158	-0.414491
H	 1.0118439515	 1.7058322609	-0.7670615596	 0.139766
H	-0.6609667798	 1.5793792842	-1.3554823828	 0.112365
H	-0.337497679	 2.1356338439	 0.2952352821	 0.126353
H	 1.1986306813	-1.4149968018	-1.3488500317	 0.089123
H	 2.048326051	-2.0303744727	 1.8414990571	 0.115646
H	 0.9534120892	-1.0087236117	 2.7878164602	 0.120663
H	-0.9059577777	-2.4918602433	 2.2487666458	 0.117774
H	-1.9423469106	-0.6571942568	-0.880299819	 0.078919
H	-3.0765906864	-0.0862770077	 0.8389047683	 0.290756
