18
gdb 112953	3.19299	1.0289	0.90171	1.3404	67.95	-0.2423	0.0223	0.2645	1305.5843	0.147141	-476.234436	-476.22511	-476.224165	-476.2697	33.705	
N	 0.6725106815	-0.6479890841	-0.1042150643	-0.515353
C	-0.3057715504	 0.2470400319	-0.3904344253	 0.358341
O	-0.1224445999	 1.3936639831	-0.7504914285	-0.368022
C	-1.7209265086	-0.3040648968	-0.248912292	 0.05533
C	-2.476094661	-0.5692774143	-1.570594175	-0.321275
C	-2.5503318433	-2.0285509485	-1.0797249133	 0.127737
C	-1.8262173839	-3.0920463254	-1.8815108039	-0.068384
O	-1.7257210682	-4.3004087731	-1.1535065785	-0.41984
O	-1.7990379354	-1.7017710913	 0.1306578719	-0.335213
H	 1.6333531244	-0.3495675717	-0.1198182743	 0.264461
H	 0.4230007299	-1.5598554732	 0.2393003262	 0.266147
H	-2.2574973278	 0.3330378824	 0.4624537975	 0.115099
H	-3.4302074743	-0.0542193232	-1.6744908161	 0.124492
H	-1.8798779306	-0.4108107248	-2.4712154899	 0.129514
H	-3.5522244647	-2.3819037719	-0.8101241932	 0.093326
H	-2.3859245872	-3.314642006	-2.7971270705	 0.114964
H	-0.8353028445	-2.7090011812	-2.1756977916	 0.088508
H	-1.3421379758	-4.0760811518	-0.2977725492	 0.290167
