19
gdb 94760	2.99513	1.22834	1.19535	4.1147	80.86	-0.2206	0.0358	0.2563	1142.7161	0.161154	-382.071058	-382.062877	-382.061933	-382.103616	31.738	
C	-0.3512120614	 1.4093745433	 0.4639520404	-0.33554
N	 0.1444482125	 0.1096971686	 0.0091779574	-0.05311
C	-0.9278084121	-0.7994074484	-0.436747881	-0.200539
C	-1.3269035817	-1.6817528068	 0.7825467524	-0.293185
C	-0.0500507421	-1.7262531132	 1.6166827124	 0.183981
C	 1.2354916588	-2.0150000564	 0.8439271997	-0.356232
C	 0.8420439886	-0.5903683028	 1.0533218391	-0.006731
C	-0.1227250917	-2.0233654465	 3.0121889361	 0.191252
N	-0.1798229104	-2.2531082404	 4.1462434302	-0.355405
H	 0.4927907946	 2.0245113157	 0.7891946561	 0.128946
H	-0.8345547674	 1.9225107184	-0.371604656	 0.126273
H	-1.0697798208	 1.3481514979	 1.2994347667	 0.108341
H	-1.7678965879	-0.2267192925	-0.8339886583	 0.114662
H	-0.5555918562	-1.4300006472	-1.2500525351	 0.116529
H	-2.1271367245	-1.2212718755	 1.3692923383	 0.125021
H	-1.67025363	-2.6714833091	 0.4695136754	 0.119227
H	 2.0744223053	-2.3740873516	 1.428297342	 0.140871
H	 1.1479115905	-2.4673654563	-0.137494209	 0.129227
H	 1.4409909657	 0.0242787426	 1.7140449833	 0.116411
