19
gdb 38692	2.52637	2.16034	2.07284	0.2938	72.22	-0.2423	0.0856	0.3279	831.6203	0.164813	-423.056921	-423.051136	-423.050192	-423.086637	25.934	
C	-0.0331827601	 1.5469133269	-0.0112606031	-0.215362
C	 1.4808227953	 1.8033144019	 0.0140589626	 0.078553
C	 2.0898030288	 1.2913744676	 1.3427820139	-0.23458
C	 1.7305990113	-0.2068273665	 1.500286859	 0.078554
C	 2.2130251483	-1.0012695713	 0.2776990036	-0.215362
C	 1.3330319084	-0.3105089223	-0.7721897781	 0.067139
O	 1.9225651228	 0.9630198539	-1.0627083444	-0.278204
C	 0.0205560181	 0.0144707238	 0.0391040233	 0.067139
O	 0.3081234038	-0.3655791886	 1.3906567103	-0.278204
H	-0.5893815797	 1.9474085419	 0.8381607708	 0.105697
H	-0.4590083651	 1.9221659743	-0.9460232835	 0.100945
H	 1.7849075875	 2.8261845904	-0.2167526912	 0.076571
H	 3.1772198309	 1.4203134417	 1.3294224607	 0.102801
H	 1.6893774837	 1.8622520272	 2.1871976193	 0.102801
H	 2.0359496482	-0.608882934	 2.468334947	 0.076571
H	 3.2715402088	-0.8900682791	 0.0359325957	 0.105697
H	 1.9680002014	-2.0599006548	 0.4009297731	 0.100945
H	 1.1878932147	-0.851330252	-1.7078742261	 0.07915
H	-0.8785312771	-0.508433181	-0.2884194828	 0.07915
