18
gdb 92422	2.08774	1.83331	1.18659	2.8873	73.56	-0.2221	-0.0454	0.1766	1075.2492	0.146106	-439.03075	-439.022229	-439.021285	-439.06413	31.244	
C	-0.1115557197	 1.5682473782	-0.0178840432	-0.341871
N	 0.0025724823	 0.133343642	 0.1189498489	-0.114403
C	-1.1874190829	-0.6549599496	 0.500303334	-0.195366
C	-0.3128142957	-1.5263210166	 1.4205627702	 0.068077
O	 0.4129959868	-2.5722421376	 0.7750166158	-0.289507
C	 1.5923600956	-1.7372465895	 0.6082030133	-0.101842
C	 0.8512224293	-0.5024084506	 1.151947303	 0.176461
C	 1.4761850974	 0.316046993	 2.2360196767	 0.064619
O	 2.4813818015	-0.004528939	 2.8237274113	-0.256043
H	 0.8814023061	 2.0112491104	-0.1477386296	 0.13038
H	-0.6946036869	 1.7959691722	-0.9170765918	 0.131393
H	-0.6071052474	 2.0718047763	 0.8324343456	 0.098917
H	-1.9257531062	-0.0759347675	 1.0796532738	 0.092417
H	-1.6929139105	-1.1650581958	-0.3262504762	 0.116091
H	-0.6991658512	-1.8115005192	 2.4010858874	 0.098545
H	 2.4114188276	-2.0749863525	 1.2504778723	 0.126731
H	 1.9080688296	-1.6659356827	-0.4359732191	 0.112407
H	 0.9344782545	 1.2499041484	 2.4996540275	 0.082993
