21
gdb 70834	2.38862	1.86065	1.38203	1.3113	82.02	-0.2496	0.0792	0.3288	1031.2312	0.18343	-387.070676	-387.062517	-387.061573	-387.102666	33.061	
C	 0.006033084	 1.4959720092	-0.0472253938	-0.515995
C	 0.0274597209	-0.0085600284	-0.0396518438	 0.330098
C	 0.6252761035	-0.9497614693	-1.1204226889	-0.350498
C	 0.0419885876	-1.877194614	-0.0283191317	 0.394534
O	-0.0410567285	-3.2601331237	-0.0056348322	-0.481189
C	 0.6163700919	-0.933146471	 1.0810867796	-0.110764
C	-0.3334589485	-0.9492311788	 2.2784100182	-0.243985
C	-1.700458855	-0.97350911	 1.5323064587	-0.247071
C	-1.2083774641	-0.9700604811	 0.084742342	-0.073218
H	 1.0220513397	 1.9053397712	-0.0713348633	 0.117956
H	-0.5288271388	 1.8793949833	-0.9230842125	 0.119282
H	-0.4909280904	 1.8913184506	 0.8458095577	 0.11929
H	 0.126309933	-0.959480128	-2.0943226172	 0.087566
H	 1.7148483005	-0.9335900081	-1.2330991772	 0.077797
H	 0.8526701589	-3.6193119214	-0.0107143506	 0.280257
H	 1.695369357	-0.9147401959	 1.2576507016	 0.048865
H	-0.1839019522	-1.8331524158	 2.9060688629	 0.098929
H	-0.2148099091	-0.0687887752	 2.9183110814	 0.092494
H	-2.288181982	-1.8671329949	 1.7614350023	 0.105508
H	-2.322665044	-0.1021571284	 1.7605301487	 0.092215
H	-1.9408102445	-0.9863342105	-0.7255156018	 0.057929
