11
gdb 131250	6.10163	1.07616	0.91481	5.571	68.27	-0.2727	-0.1009	0.1717	1134.9194	0.0672	-447.746614	-447.739846	-447.738902	-447.77811	24.771	
O	 0.0735643296	 1.3212190914	-0.0755927902	-0.393587
C	 0.0629831855	-0.0108528741	-0.0583760397	 0.457583
C	-0.0113264617	-0.7302468048	-1.2673661305	-0.071431
N	-0.0213580123	-2.043924962	-1.2407640302	-0.246445
C	 0.0425023918	-2.599558501	-0.0150602044	 0.271444
N	 0.1137988555	-1.9513899246	 1.1472448417	-0.209053
N	 0.1236948863	-0.6262791204	 1.1164599443	-0.27486
C	 0.0348251515	-4.0374865341	 0.0582604983	 0.302482
N	 0.0281053884	-5.1919829334	 0.1076056331	-0.314185
H	 0.1279831035	 1.6210800195	 0.8456280491	 0.319353
H	-0.0608030481	-0.2210182966	-2.2256119915	 0.158698
