22
gdb 101184	3.43077	1.03895	0.93802	1.4183	83.58	-0.2279	0.0849	0.3128	1364.9826	0.193935	-404.252743	-404.243529	-404.242585	-404.287394	34.372	
C	 0.2754531324	 1.0185135691	-0.8693748633	-0.233357
O	-0.0023905006	-0.2856931883	-0.4181343399	-0.249891
C	-1.3493918986	-0.5010203763	-0.0061658392	 0.062895
C	-2.3220321715	-0.6021711177	-1.1847940539	-0.402506
C	-1.298791845	-1.8142355458	 0.7632273482	 0.102531
C	-0.8934367558	-1.9372885106	 2.2524688973	-0.082851
C	-2.2916970415	-1.3620881854	 2.5622165269	-0.178135
N	-2.6002543574	-2.3445425208	 1.4126802707	-0.168015
C	-1.6446969092	-3.284285255	 2.1761681979	-0.166826
H	 1.3509493063	 1.0703893787	-1.0578388016	 0.126436
H	-0.2520672458	 1.2676467416	-1.801439334	 0.107756
H	 0.0131005759	 1.7762518112	-0.1136676164	 0.101306
H	-1.655462776	 0.3348862084	 0.6404727784	 0.062036
H	-3.3185110873	-0.8654199166	-0.8195004654	 0.140823
H	-2.3938482383	 0.3412726818	-1.7330017345	 0.110991
H	-1.9924742233	-1.3814947211	-1.8793991177	 0.121103
H	-0.8536201443	-2.5640074794	 0.0990037283	 0.076458
H	 0.068936582	-1.7100859762	 2.7225742029	 0.068306
H	-2.7614409816	-1.6506685579	 3.5067003434	 0.098674
H	-2.5068861511	-0.3177692643	 2.3338887699	 0.102473
H	-1.2240786099	-4.0786315376	 1.5534947623	 0.10111
H	-2.0801526092	-3.683404118	 3.0960198599	 0.098682
