23
gdb 65654	3.68727	0.9374	0.83815	1.6072	86.29	-0.2403	0.0818	0.3221	1477.4686	0.205379	-388.264403	-388.254898	-388.253954	-388.299386	35.733	
C	-0.0707307466	 1.5497254696	 0.4016378206	-0.457371
C	-0.0298850929	 0.0620496808	 0.0975058757	 0.385266
C	-1.3237300747	-0.5401006466	-0.4333210164	-0.28725
C	-1.7412863775	-0.0433381794	-1.8098281085	 0.168349
C	-3.0860499928	-0.5448234337	-2.3837991953	-0.298439
C	-3.4299111033	 0.95204959	-2.5052137218	-0.059518
O	-2.2213690169	 1.3286084397	-1.8156512688	-0.289041
C	 1.2667896288	-0.5194923682	-0.4189012829	-0.294061
C	 0.8180756421	-0.8076569015	 0.9953546419	-0.317469
H	 0.8958136767	 1.8944864898	 0.7832141507	 0.100655
H	-0.3222835765	 2.1345518952	-0.4867971385	 0.142366
H	-0.8284357841	 1.7714586327	 1.1626054127	 0.109514
H	-1.2142641661	-1.6311700181	-0.5021797156	 0.090699
H	-2.1459894928	-0.3471780388	 0.26918197	 0.094216
H	-0.9034062708	-0.1516305269	-2.5139319488	 0.072373
H	-3.0386126517	-1.1148876031	-3.312765221	 0.107434
H	-3.6961708401	-1.0878559742	-1.6581459965	 0.108234
H	-3.4501712275	 1.3377152431	-3.5332123617	 0.098581
H	-4.3276256117	 1.2993382014	-1.9808588278	 0.103569
H	 1.2202982001	-1.328724635	-1.1409805384	 0.102695
H	 2.107956185	 0.1503310656	-0.5630482419	 0.1085
H	 1.3544497174	-0.3288536826	 1.8080423736	 0.107062
H	 0.469574376	-1.8095059898	 1.2251358587	 0.103636
