25
gdb 109932	1.99024	1.40193	1.08537	0.9723	89.25	-0.2394	0.0751	0.3145	1318.5796	0.226357	-389.483749	-389.472777	-389.471833	-389.519266	40.737	
C	 0.2240636956	 1.6263934235	 0.4735949051	-0.239952
O	 0.4699239918	 0.2802456918	 0.1347543959	-0.235497
C	 0.7125544116	-0.5529758761	 1.2405827864	 0.109942
C	-0.5062043231	-1.2207119895	 1.9639042293	-0.021721
C	-1.8515734857	-1.1209083186	 1.2505809584	-0.398509
C	 0.2206478554	-2.5928278119	 1.8258183372	-0.282288
C	 1.290779545	-1.9566875793	 0.8776195579	 0.29989
C	 1.1002414804	-2.3379194717	-0.5922165284	-0.433182
C	 2.7445163495	-2.1672902191	 1.298824118	-0.450278
H	 1.0755613673	 2.067415187	 1.0154800829	 0.104266
H	 0.0770474932	 2.1754626579	-0.4600508684	 0.124848
H	-0.6750566107	 1.7444380452	 1.0958954255	 0.107419
H	 1.3640770157	-0.0309558462	 1.9589330177	 0.050663
H	-0.6245400287	-0.8901109948	 3.0005965171	 0.061502
H	-1.7758958645	-1.394985871	 0.1950574421	 0.127307
H	-2.5790321852	-1.7913773434	 1.7214405252	 0.10965
H	-2.2584008359	-0.1053657454	 1.2960202546	 0.111926
H	 0.6417412716	-2.9613724081	 2.765242982	 0.090675
H	-0.3778950088	-3.3939862803	 1.3817123976	 0.092371
H	 0.0676082786	-2.2067933193	-0.9236492053	 0.119693
H	 1.7315123471	-1.7237530675	-1.2413286424	 0.118629
H	 1.3729309409	-3.3889556838	-0.7424256888	 0.103149
H	 3.0445016531	-3.2136454237	 1.1682720903	 0.110461
H	 3.4218136103	-1.5493489069	 0.6977132473	 0.114432
H	 2.8977935754	-1.9067482289	 2.3519269728	 0.104604
