17
gdb 46534	4.18041	1.13546	1.04873	1.9227	69.87	-0.237	0.0521	0.2891	1152.0331	0.137681	-455.138968	-455.131243	-455.130299	-455.171773	29.031	
N	-0.0292129914	 1.3244366628	-0.0656016147	-0.591318
C	 0.0429650537	 0.0727659373	 0.0868992133	 0.45433
N	-0.9541568222	-0.8340352799	-0.239385277	-0.380234
C	-0.71353646	-2.109578761	 0.3796796089	 0.251767
C	-1.5516445326	-2.5542510868	 1.6126147545	-0.121998
O	-1.8590934078	-3.8124816919	 0.9851762402	-0.266343
C	-1.2832426596	-3.3918439642	-0.2658322666	-0.130752
C	 0.8122278071	-2.0273557901	 0.5416087363	-0.139855
O	 1.1061582707	-0.6274382669	 0.5924336692	-0.243926
H	 0.8429023134	 1.767583679	 0.2131140713	 0.225905
H	-1.8881895311	-0.4624103359	-0.3169673344	 0.259791
H	-1.0191973324	-2.678970915	 2.5629114132	 0.111714
H	-2.4487068127	-1.941337817	 1.7790066219	 0.101924
H	-2.0427315209	-3.1985304753	-1.0351080711	 0.108005
H	-0.5545126508	-4.1141632512	-0.6539287919	 0.110678
H	 1.1785539096	-2.4993002974	 1.4557363896	 0.130464
H	 1.319634727	-2.4732160067	-0.3230820328	 0.119848
