18
gdb 36691	5.05677	0.80429	0.76668	1.2775	78.52	-0.2384	0.0274	0.2658	1492.2759	0.146141	-401.844423	-401.835747	-401.834803	-401.878723	31.984	
C	-0.0085058823	-1.1859951006	-0.087737957	-0.412178
C	 0.0614107016	 0.0049430197	 0.0476466265	 0.280475
C	 0.116009707	 1.4486918874	 0.2297473235	-0.218766
O	 1.3205962242	 1.9601242056	-0.3160683294	-0.257688
C	 1.4347906536	 3.3550037082	-0.1667930655	 0.145973
C	 1.8787735524	 3.9503469871	 1.2037689448	-0.205143
N	 3.0765709512	 4.6140031293	 0.5753865819	-0.127595
C	 3.8873134099	 3.5090528442	 0.0396862776	-0.229773
C	 2.7108922856	 3.9348114833	-0.7428001597	-0.068965
H	-0.064555624	-2.2392024628	-0.2119415492	 0.202056
H	-0.7552160258	 1.9190242957	-0.2575828664	 0.121078
H	 0.0436175928	 1.687262938	 1.3038880531	 0.123126
H	 0.534407663	 3.8553484477	-0.5507525299	 0.077277
H	 1.1972537945	 4.7002207553	 1.6097154418	 0.112827
H	 2.1369822723	 3.2249571288	 1.9824458988	 0.109596
H	 4.8586060006	 3.8332427583	-0.320335093	 0.123649
H	 3.880066862	 2.5467348591	 0.5453918833	 0.125672
H	 2.7929325813	 4.4471165257	-1.6950781912	 0.098379
