19
gdb 113050	3.04229	0.91565	0.78021	2.5981	77.72	-0.2499	0.0444	0.2943	1481.5977	0.157464	-422.970689	-422.961226	-422.960282	-423.006055	34.576	
O	-0.1845172468	 1.2221176179	 0.7691349535	-0.419819
C	-0.0507505464	-0.1013332299	 0.2952874279	-0.064871
C	-1.3768636286	-0.6110627049	-0.2411909515	 0.140289
C	-1.5814325206	-2.1323712052	-0.3847246002	-0.348763
C	-2.7076905277	-1.9393769651	 0.6539087072	 0.168165
C	-2.5907428629	-2.7133925007	 1.9688743563	-0.368413
C	-3.6014816953	-2.3309233668	 2.9462676313	 0.300427
C	-4.4483143926	-2.0081162763	 3.7350786607	-0.435311
O	-2.3914400694	-0.5348809102	 0.7970556147	-0.318751
H	-0.9335608918	 1.2101680172	 1.378225053	 0.29619
H	 0.7030000226	-0.0887695451	-0.5006178583	 0.107856
H	 0.3064251182	-0.7812744044	 1.0871833199	 0.078968
H	-1.6804415558	-0.0183965289	-1.1132309774	 0.086012
H	-1.892180983	-2.4886420789	-1.36687854	 0.115882
H	-0.7397135043	-2.7346674149	-0.0314407297	 0.109682
H	-3.7186907573	-2.0632547229	 0.2465831125	 0.091384
H	-2.676776328	-3.7851010189	 1.7419674429	 0.132156
H	-1.5869183137	-2.5568631517	 2.3828455522	 0.13098
H	-5.1906066465	-1.7217255903	 4.438099425	 0.197935
