12
gdb 131982	4.64518	1.15173	0.92381	7.9128	61.03	-0.2583	-0.0765	0.1818	1141.4183	0.079032	-502.057649	-502.050232	-502.049288	-502.090313	26.591	
N	 0.0195615393	 1.3370024857	-0.0054052053	-0.600266
C	-0.0427809877	-0.0322217868	-0.013168618	 0.453899
N	-1.1429899132	-0.759407665	-0.0970675461	-0.339463
C	-0.6536958385	-2.0155984875	 0.018672386	 0.444901
N	 0.6457060366	-2.1498900615	 0.1593425056	-0.237761
N	 1.0344204764	-0.8474694604	 0.1410401536	-0.239175
N	-1.5223135095	-3.1910788108	-0.017323062	 0.362359
O	-2.7191108157	-2.9817930127	-0.132877926	-0.339666
O	-0.9814623215	-4.2823250347	 0.0710154481	-0.345125
H	 0.8252552328	 1.7542325113	-0.4480051388	 0.266421
H	-0.8502228514	 1.7634432458	-0.2920727473	 0.283853
H	 2.0067348625	-0.6184611833	 0.2716300601	 0.290023
