23
gdb 86387	2.41552	1.42847	1.07938	1.4798	85.02	-0.2511	0.0773	0.3285	1229.5881	0.205771	-388.300805	-388.29139	-388.290446	-388.334254	37.01	
C	-0.0226318782	 1.5619351534	-0.0182403449	-0.402885
C	 0.0395809521	 0.0326395395	 0.0103270358	-0.021679
C	 0.7659693332	-0.586820382	-1.2035088401	-0.290405
C	 1.293258852	-1.9594081656	-0.724260533	 0.12149
O	 2.4918397112	-2.3724002029	-1.3702713915	-0.43835
C	 1.524054529	-1.781268221	 0.7620591409	-0.081273
C	 2.2644121131	-0.5374376689	 1.1954439164	-0.332043
C	 0.7544663395	-0.5647455402	 1.2310915737	 0.359444
C	 0.0376544464	-0.5270476174	 2.5600021285	-0.487917
H	 0.983929903	 1.9943235159	-0.0065736982	 0.115432
H	-0.5305462387	 1.9193234124	-0.9204552923	 0.109483
H	-0.567091892	 1.9582497391	 0.8450980934	 0.112466
H	-0.9914667686	-0.3501477122	 0.0296629701	 0.066094
H	 0.1181637454	-0.6663782886	-2.0821718777	 0.087989
H	 1.6256296133	 0.027351556	-1.4944207262	 0.106568
H	 0.5134559471	-2.7260109851	-0.8639989899	 0.059898
H	 2.2908254944	-2.5178010592	-2.3002761212	 0.278111
H	 1.6013412286	-2.6709069867	 1.3779064882	 0.077641
H	 2.7753525652	-0.5854492855	 2.1513175775	 0.104468
H	 2.7888320133	 0.0500600117	 0.4497788334	 0.113324
H	-0.1136548022	 0.5021775965	 2.9061358358	 0.117308
H	-0.9489412252	-1.0017589436	 2.4932202903	 0.111159
H	 0.607991328	-1.0507087756	 3.333772371	 0.113675
