17
gdb 123869	5.09317	1.09504	0.92725	4.2797	77.57	-0.2032	0.0158	0.219	1233.0432	0.137846	-417.982314	-417.974708	-417.973764	-418.015184	27.998	
C	-0.1364147157	 1.5671144843	 0.0121754694	-0.23598
C	 1.3902428487	 1.5151092636	-0.2694603309	-0.170654
N	 1.4032134427	 0.1469879231	 0.2810107962	-0.166193
C	-0.0634100384	 0.0477251824	 0.3257200598	-0.170536
C	 2.2448054028	-0.8509800747	-0.0912857156	 0.524141
C	 2.1439955646	-2.2199720697	-0.0668119472	-0.391239
C	 3.404566991	-2.6318902005	-0.5617008686	 0.049316
N	 4.200422159	-1.6372713994	-0.8662724705	-0.164785
O	 3.4452755503	-0.4777601845	-0.5609849261	-0.228455
H	-0.4002076349	 2.1773496188	 0.8767349648	 0.122718
H	-0.7658647905	 1.8476281431	-0.8316456323	 0.120566
H	 1.6554639829	 1.5521336504	-1.3326182877	 0.122602
H	 2.0216419817	 2.2207454158	 0.2770549522	 0.125666
H	-0.4616348305	-0.2796212752	 1.2911447647	 0.119284
H	-0.4730138334	-0.5946248157	-0.4652428297	 0.112333
H	 1.3152071839	-2.822921911	 0.2602724808	 0.106713
H	 3.7636671857	-3.6414852507	-0.7111771892	 0.124503
