21
gdb 90610	3.30661	1.35811	1.21098	1.2717	82.07	-0.2236	0.0696	0.2932	1121.6694	0.182598	-387.03613	-387.02779	-387.026846	-387.068417	33.678	
C	 0.0368446248	 1.57650863	 0.0348035746	-0.501196
C	 0.031005304	 0.0743733718	 0.0114003267	 0.359211
C	-0.9095439333	-0.7518982538	 0.8423412427	-0.339748
C	 0.5700845521	-0.9472103571	 1.0343514081	-0.096615
C	 1.2308470041	-1.7607428181	-0.096029528	-0.034742
C	 0.4720096205	-2.9246730434	-0.7953961791	 0.107131
O	-0.3712683381	-3.6765133556	 0.0494868011	-0.422169
C	-0.170921259	-1.9019738717	-1.8010611013	-0.303858
C	 0.6558996962	-0.7598508227	-1.1401910492	-0.074431
H	 1.02121371	 1.9807002297	-0.2298619763	 0.112077
H	-0.6908631274	 1.9893312298	-0.6757505188	 0.11603
H	-0.2234434768	 1.9562679289	 1.0286431179	 0.115217
H	-1.3863569849	-0.1965630886	 1.6456387099	 0.100962
H	-1.5258396041	-1.5444545502	 0.4358134561	 0.120594
H	 1.0361929967	-0.7704010083	 1.9971761692	 0.077965
H	 2.3060361388	-1.8926319784	 0.0288109272	 0.061697
H	 1.1810715333	-3.5846167015	-1.315814884	 0.065168
H	-0.7760190243	-4.3737982746	-0.476287969	 0.28243
H	 0.0853713063	-2.0955436595	-2.8461656941	 0.092186
H	-1.2566563276	-1.8048365087	-1.7218323398	 0.101066
H	 1.3223904687	-0.1919228883	-1.7899552339	 0.061028
