19
gdb 113276	2.36739	1.17073	0.90319	2.0875	84.72	-0.2502	-0.0313	0.2189	1353.3871	0.155987	-385.862571	-385.852676	-385.851732	-385.897361	36.168	
C	 0.0625285512	 1.4032172597	-0.3172175227	-0.376585
C	 0.0047473842	-0.0422745727	 0.1955453932	-0.220404
C	-1.4056257955	-0.5893005891	 0.1392554648	-0.014886
C	-1.9723117586	-1.2182827215	-1.0785018614	-0.309176
C	-1.7210988093	-2.1178508068	 0.141155892	 0.017761
C	-0.5845785713	-3.0859842997	 0.0391076956	 0.087648
O	 0.3307091659	-2.9928086378	-0.7434663024	-0.266808
C	-2.8354221581	-2.5606976796	 0.9296426027	 0.224533
C	-3.7541293596	-2.9568767602	 1.5979231139	-0.413509
H	 1.0826241294	 1.7941542096	-0.259310272	 0.11818
H	-0.2629776793	 1.4651423893	-1.3607024783	 0.12175
H	-0.5824769748	 2.0639267546	 0.2724401708	 0.114713
H	 0.6716004356	-0.6749230512	-0.3945176345	 0.138275
H	 0.3651150224	-0.077927538	 1.2311196121	 0.102811
H	-2.1188832893	-0.0492695059	 0.7569927681	 0.109258
H	-3.0092647619	-1.0470697316	-1.3409268359	 0.132862
H	-1.295518153	-1.4085272255	-1.9054004391	 0.145508
H	-0.646378828	-3.9285250721	 0.7586825696	 0.092546
H	-4.5702185901	-3.3008676114	 2.1837305833	 0.195523
