20
gdb 116534	3.80397	0.83187	0.70048	3.8716	82.77	-0.2351	-0.0049	0.2302	1619.3813	0.169746	-436.501501	-436.490943	-436.489999	-436.537712	37.306	
C	-0.1441140185	 1.871098524	-0.4025233669	-0.3721
C	 0.6129869566	 0.6069707019	 0.0005802512	-0.131052
N	 1.1215864587	-0.0742631829	-1.1750702886	-0.303905
C	 2.0024759129	-0.9834712084	-1.0447072994	 0.438769
N	 2.4979559664	-1.5070964562	 0.1454657125	-0.571061
N	 2.5394026939	-1.5696261844	-2.2101446806	-0.14278
C	 2.3379690554	-0.8715796652	-3.4794292509	-0.331783
C	 3.0727230028	-2.843116715	-2.2313421464	 0.148134
O	 3.5112631893	-3.3874762213	-3.2199005042	-0.32776
H	 0.5174884179	 2.5597911924	-0.9361180297	 0.119556
H	-0.9736885046	 1.6195359711	-1.0691346783	 0.126152
H	-0.5451411963	 2.3851156766	 0.4767095407	 0.105092
H	 1.4252214471	 0.8825540383	 0.699058272	 0.078706
H	-0.0648817475	-0.0549410002	 0.5633313549	 0.102659
H	 2.1941239878	-1.009938067	 0.9686695245	 0.26092
H	 3.4858287452	-1.7152313272	 0.1636853831	 0.258619
H	 2.6720098605	 0.1629700162	-3.3872730939	 0.135162
H	 2.918500752	-1.4009900428	-4.2329668411	 0.158036
H	 1.2801392365	-0.8651902823	-3.7517635993	 0.147165
H	 3.0496352039	-3.3287487177	-1.2433391095	 0.101472
