21
gdb 55694	3.21416	1.03369	0.99623	3.3203	79.16	-0.2396	0.0574	0.297	1318.2879	0.182659	-420.444537	-420.434909	-420.433965	-420.478872	36.777	
C	 0.0008857973	 1.6083936455	 0.1280769474	-0.430055
C	-0.0111978139	 0.0828168131	 0.0166190684	 0.376973
C	 1.1085568064	-0.4618136653	-0.9284444311	-0.230237
C	 1.9903432543	-0.7246501494	 0.3214566819	-0.218858
C	 0.7167172685	-0.611024181	 1.203304733	-0.28028
N	-1.3721824299	-0.4036923005	-0.1935250586	-0.406896
C	-2.0225533953	-0.2129831701	-1.3916381676	 0.443956
N	-3.2253108367	-0.9114664249	-1.496017121	-0.56485
O	-1.5873926734	 0.4762932421	-2.2970857684	-0.396335
H	 1.0165503351	 1.9753778251	 0.3073818935	 0.107712
H	-0.3713048641	 2.051225209	-0.7974658101	 0.152613
H	-0.6334704904	 1.9344444362	 0.9589754233	 0.105428
H	 0.7974781386	-1.3900478609	-1.4139263125	 0.099552
H	 1.4835338015	 0.223123569	-1.690424064	 0.109443
H	 2.5332828597	-1.6709016621	 0.3608419836	 0.098949
H	 2.6992376167	 0.0844896052	 0.5135286827	 0.107255
H	 0.7816644617	-0.049920365	 2.1392824027	 0.100546
H	 0.290861169	-1.5976734052	 1.4176335721	 0.089324
H	-1.6293692667	-1.2244496126	 0.332678513	 0.232736
H	-3.7594467386	-1.0354720488	-0.6483242695	 0.245122
H	-3.7791488196	-0.5894410294	-2.2758612586	 0.257903
