20
gdb 81601	3.65718	0.94409	0.89306	4.1704	84.19	-0.3046	0.0391	0.3437	1380.8999	0.171894	-365.977926	-365.96946	-365.968515	-366.011552	32.391	
C	-0.077284706	 1.5467684622	-0.407522044	-0.443675
C	 0.0633214682	 0.0501223872	-0.1669362505	 0.062464
C	 1.2568215912	-0.7768556809	-0.7544205704	-0.062507
C	 2.1635131195	-0.1390363506	 0.3403993573	-0.234398
C	 0.8403177925	-0.5238999356	 1.0669343161	-0.088944
C	 0.9489551667	-1.883459515	 0.3043866433	 0.058072
C	-0.2514460071	-2.8327374304	 0.1801116457	-0.403907
C	-0.0291584399	-3.8489491745	-0.8481713079	 0.263828
N	 0.1650663626	-4.6435429009	-1.6646496436	-0.311385
H	 0.84993949	 2.1075150197	-0.2715355197	 0.1213
H	-0.4284784299	 1.7329092003	-1.4284600792	 0.122311
H	-0.8226562886	 1.9712385039	 0.2741894481	 0.119299
H	-0.9156268247	-0.4094483051	-0.3283042939	 0.059238
H	 1.5020412318	-0.9330752135	-1.8060071162	 0.083375
H	 3.0538124714	-0.7069336365	 0.6228271101	 0.095797
H	 2.3947993323	 0.9209670931	 0.247495105	 0.099263
H	 0.6031725442	-0.3850513193	 2.1238700672	 0.070451
H	 1.8290868277	-2.471780262	 0.5815668894	 0.084455
H	-0.4116167077	-3.3429293136	 1.1376138556	 0.151734
H	-1.1833204244	-2.3106689186	-0.0525741824	 0.153229
