20
gdb 52617	2.68932	0.98476	0.85812	2.8144	84.23	-0.236	0.0351	0.2712	1464.9754	0.168032	-403.096579	-403.085792	-403.084848	-403.133859	38.063	
C	 0.1590939223	 1.4065362209	-0.0068596632	-0.499591
C	 0.0895343571	-0.0475411242	-0.0039635768	 0.025995
C	 0.0404423026	-1.2511736384	 0.011204137	 0.07725
C	-0.0279838321	-2.7198385086	-0.0052148023	 0.134674
C	-1.4889570861	-3.1894562259	-0.1259354236	-0.400696
O	 0.7409844724	-3.2327480138	-1.1050781513	-0.459168
C	 0.6005006043	-3.2861517695	 1.2712381201	 0.02859
C	 1.2289171244	-4.6274851722	 1.2658767112	-0.251637
N	 2.0533433849	-3.4068369138	 1.3885751392	-0.329937
H	 0.9592465715	 1.762366467	-0.6650084742	 0.152101
H	-0.7800165599	 1.8523564415	-0.352139657	 0.149626
H	 0.3625418904	 1.7920023475	 0.9980608185	 0.156114
H	-1.9503109613	-2.7716758571	-1.0252422231	 0.113645
H	-1.5139639447	-4.2803940032	-0.1867786873	 0.126024
H	-2.0741670512	-2.8657878999	 0.7397647406	 0.123352
H	 0.6454010798	-2.6148229962	-1.8360850526	 0.287967
H	 0.1046725786	-2.936315335	 2.1734991151	 0.093291
H	 1.1872717276	-5.2466663733	 2.1575318997	 0.110289
H	 1.257305868	-5.1670281922	 0.3249133611	 0.126038
H	 2.4524199414	-3.2090303935	 0.4722350787	 0.236074
