19
gdb 92482	2.61904	1.71044	1.66822	1.014	69.83	-0.2513	0.0801	0.3314	945.4936	0.161414	-460.167212	-460.159755	-460.158811	-460.199003	29.475	
C	-0.1120719416	 1.5474049272	-0.0109510806	-0.409073
C	 0.0418363115	 0.0340361074	 0.0050595103	 0.154866
O	 0.7706104718	-0.3865011831	-1.1690641473	-0.288824
C	 1.8610438106	-1.2125300188	-0.8246648064	 0.178574
C	 2.832996065	-0.4255518033	 0.0566922996	-0.100847
O	 2.1290607652	 0.0200650044	 1.2248242259	-0.280285
C	 0.8032212201	-0.5050653762	 1.2272767779	 0.032381
C	 0.8708118873	-2.0291770804	 1.12849412	-0.082032
O	 1.4346503045	-2.3750979393	-0.1452480664	-0.270278
H	 0.8541185942	 2.0325991576	 0.1475658996	 0.133667
H	-0.5161260957	 1.8694562559	-0.9742959637	 0.126705
H	-0.7990677229	 1.8719099205	 0.7778951775	 0.110982
H	-0.9505130732	-0.4400595877	-0.0298212954	 0.079835
H	 2.3196908643	-1.5412258263	-1.7588275309	 0.094686
H	 3.6771187022	-1.0616737624	 0.3528345179	 0.107095
H	 3.2157186543	 0.4463400703	-0.4861795283	 0.110135
H	 0.3363002052	-0.1850561747	 2.1619105833	 0.088028
H	 1.4985757227	-2.4333215357	 1.9327620576	 0.106943
H	-0.1283034755	-2.4764635756	 1.2024973594	 0.107442
