18
gdb 10911	3.24143	1.91166	1.5236	2.267	67.02	-0.2512	0.0641	0.3153	892.2542	0.153189	-384.911701	-384.903592	-384.902647	-384.943657	31.13	
C	-0.0750340355	 1.4806187618	-0.0065038451	-0.502432
C	 0.081017705	-0.0145073254	-0.0289971828	 0.314514
C	-0.8056826325	-0.9450193223	 0.767959208	-0.349419
C	 0.6694922964	-0.9728088322	 1.0281026612	-0.106057
C	 1.3561350173	-1.7968287495	-0.0660718665	 0.104875
O	 0.9330718902	-3.1275793159	-0.227666001	-0.446247
C	 0.7790247519	-0.8009770793	-1.1357400148	 0.021762
O	-0.0019453884	-1.4027096653	-2.1576122342	-0.443215
H	 0.8714691763	 1.9834176063	-0.2347314297	 0.120661
H	-0.8146150224	 1.8170817455	-0.7430024619	 0.123078
H	-0.40931997	 1.8275426916	 0.9765863197	 0.121277
H	-1.4106039895	-0.4497870496	 1.5204183215	 0.114298
H	-1.2783798569	-1.8206499641	 0.3302873172	 0.107836
H	 1.0953304032	-0.724491774	 1.9926725538	 0.087473
H	 2.449778505	-1.7474764546	-0.00050078	 0.069763
H	 0.5790895993	-3.1718320299	-1.1280187244	 0.283989
H	 1.5649013717	-0.225514157	-1.6324786569	 0.08687
H	-0.9172725112	-1.4151666063	-1.857657944	 0.290973
