20
gdb 22178	2.44939	1.22247	1.00132	1.4635	79.45	-0.2409	0.0092	0.2502	1265.9205	0.167565	-440.236196	-440.22599	-440.225046	-440.270883	37.933	
C	-0.1077703252	 1.4846996635	 0.0644579706	-0.419704
C	-0.034394628	-0.0481915915	 0.0041652115	 0.192938
C	-1.4092559037	-0.680422067	 0.2116145374	-0.444602
C	 0.7853769575	-0.5682998694	-1.2327093637	 0.093025
O	 0.899171542	 0.3688573163	-2.2750583948	-0.429002
C	 2.0273479538	-0.8139167359	-0.3163797581	-0.376006
C	 1.0995292355	-0.6020085318	 0.8589433025	 0.396173
N	 1.1155773926	-0.8688831857	 2.0958742334	-0.252339
O	 2.3504345468	-1.4320705626	 2.4787870171	-0.393882
H	 0.8726828638	 1.9465708873	-0.0740286029	 0.120387
H	-0.7667783972	 1.8649898452	-0.7212740857	 0.124334
H	-0.5008048209	 1.7972279893	 1.0364590657	 0.11943
H	-2.1089838974	-0.3399818857	-0.5595486722	 0.116721
H	-1.3560474051	-1.772664137	 0.1704708087	 0.112174
H	-1.817112373	-0.4047897	 1.1889139727	 0.128324
H	 0.3698262231	-1.5187714689	-1.595174075	 0.071513
H	 1.429819881	-0.0204171242	-2.9770124221	 0.287365
H	 2.5330607276	-1.7806843176	-0.3736308171	 0.121691
H	 2.7705211417	-0.0156017145	-0.4166826183	 0.126947
H	 2.2135868452	-1.59634163	 3.4179109104	 0.304514
