19
gdb 6506	2.84215	1.81704	1.37763	4.2379	76.54	-0.274	0.0378	0.3118	981.7486	0.163617	-327.945894	-327.936716	-327.935772	-327.978896	33.97	
C	-0.0590592579	 1.5241145551	-0.0284526767	-0.454536
C	-0.0026443949	 0.007037403	-0.0089237379	 0.296276
C	-1.2502909567	-0.6428425799	-0.580238611	-0.456144
C	 1.3158554274	-0.6792498065	-0.2354613055	-0.351363
C	 0.7084467295	-0.6913126614	 1.1662323215	 0.128911
C	 1.3766727038	 0.0872279675	 2.2930731399	-0.461171
C	 0.1501523771	-1.9443620549	 1.6147974407	 0.249738
N	-0.2914777181	-2.9424683123	 2.0006190374	-0.361545
H	 0.8674047076	 1.9913250158	 0.3105315176	 0.118887
H	-0.2441070801	 1.8710451048	-1.0511944223	 0.125833
H	-0.876685459	 1.8965115783	 0.5986317164	 0.125815
H	-1.3837524251	-0.3425290309	-1.6254615439	 0.118141
H	-1.2014685172	-1.7332105492	-0.5440544829	 0.142171
H	-2.1426242574	-0.3312354938	-0.0263104078	 0.125619
H	 1.3281116448	-1.6114143137	-0.7891946259	 0.131896
H	 2.2060916043	-0.0707491344	-0.3591613579	 0.119466
H	 1.8765336056	 0.9808973111	 1.9164737343	 0.124588
H	 0.6470583304	 0.3945805334	 3.0485165279	 0.137236
H	 2.1300695958	-0.5338672221	 2.7865559162	 0.140183
