20
gdb 91410	2.55898	1.72174	1.26698	3.1495	78.59	-0.2245	-0.0095	0.215	1055.2366	0.172967	-403.155523	-403.147591	-403.146647	-403.187976	31.566	
C	 0.2862470241	 1.5939354025	-0.0460796946	-0.379361
C	 0.1162772599	 0.076404811	 0.0061204216	-0.072579
N	 0.6069427089	-0.5660265902	-1.2308820311	-0.307848
C	 1.1697149732	-1.9010227538	-1.0414821658	 0.013644
C	 0.4533903917	-2.7214660188	 0.0777203229	-0.254486
C	 1.3393949478	-1.9173055388	 1.0782350859	-0.117484
C	 2.3816157324	-1.8004574877	-0.083338348	-0.219827
C	 0.7628540958	-0.5325657417	 1.2677209186	 0.417595
O	 0.7813064753	 0.0614784823	 2.3197252921	-0.336802
H	 1.3373703503	 1.8507760061	-0.2034269607	 0.12288
H	-0.292815806	 2.0156101307	-0.8731685986	 0.105662
H	-0.051097243	 2.0421886506	 0.8907554765	 0.134262
H	-0.9574903195	-0.1404821217	 0.1556828786	 0.097792
H	-0.1444581256	-0.6035332867	-1.9100163376	 0.219021
H	 1.3156685153	-2.36345318	-2.019683144	 0.071098
H	-0.6342166889	-2.647843664	 0.1641138603	 0.098173
H	 0.7458956033	-3.7744315295	 0.0636056805	 0.106931
H	 1.6328573762	-2.350575157	 2.0344533976	 0.081478
H	 3.0161497918	-2.6885551272	-0.123957359	 0.108265
H	 2.9948877071	-0.898614576	-0.1463006253	 0.111587
