13
gdb 150	13.16352	3.25269	2.93666	1.7468	45.95	-0.2623	0.0976	0.3599	471.3094	0.113861	-232.328175	-232.322501	-232.321557	-232.356864	19.579	
C	 0.1555256512	 1.4717625365	-0.070392474	-0.374734
C	-0.1921747409	-0.0097229333	 0.1159686867	-0.20353
C	 0.4856364953	-0.6069198749	 1.3249774402	 0.118745
C	 0.9899240539	-1.9846225731	 1.3525597864	-0.1813
O	 1.8854760179	-0.8815179215	 1.2013589486	-0.236503
H	 1.2361756597	 1.5996931468	-0.1828494552	 0.134962
H	-0.3319453512	 1.8838251473	-0.9587180526	 0.113764
H	-0.1647733686	 2.0658908408	 0.7925551276	 0.114804
H	-1.2777432531	-0.1320722476	 0.2248800535	 0.099842
H	 0.1067785056	-0.5797214473	-0.7711069788	 0.103754
H	 0.2159106622	-0.1521927839	 2.2813240242	 0.086909
H	 1.0619355863	-2.5213585012	 2.2978191121	 0.112262
H	 0.8731618418	-2.6150805386	 0.4714341812	 0.111027
