15
gdb 123592	4.23453	1.61867	1.40636	3.2671	70.5	-0.2315	-0.0127	0.2188	899.2605	0.116072	-416.707855	-416.702015	-416.701071	-416.738072	23.987	
C	-0.0251269164	 1.5195064435	-0.0613284547	-0.16858
C	 1.5364400584	 1.3363990588	 0.000104067	-0.199835
C	 1.1331077584	 0.164740407	 0.9698083449	-0.168578
N	-0.1046415997	-0.0150861504	 0.0678134572	-0.233569
C	 0.6091664337	-0.3513433236	-1.1757084196	 0.20748
C	 1.6655172595	 0.4912523175	-1.2552998232	 0.404061
O	 2.3933672127	 0.2900223199	-2.3373439706	-0.237695
N	 1.774100558	-0.7823444898	-3.0509852729	-0.156848
C	 0.7177157372	-1.1402191439	-2.3340683551	-0.166927
H	-0.4503643209	 1.9970722631	 0.8257989187	 0.117758
H	-0.466305243	 1.9195614075	-0.9754718434	 0.1242
H	 2.247610636	 2.1247581345	 0.2370670405	 0.097343
H	 1.7821498358	-0.7104160846	 1.026257841	 0.124197
H	 0.8306533174	 0.4986784715	 1.9662497681	 0.117752
H	 0.1047079128	-1.9481341411	-2.706942868	 0.139242
