19
gdb 121071	3.63591	0.8264	0.79854	2.5529	71.56	-0.2447	-0.0251	0.2196	1481.5673	0.158095	-460.177796	-460.168556	-460.167612	-460.212857	33.256	
O	-0.1889326617	 1.2594477953	-0.5752677188	-0.422553
C	-0.0534756441	-0.0773573671	-0.1174573482	-0.075105
C	-1.4443680614	-0.6973684542	-0.0862986004	-0.185397
C	-1.4391740757	-2.1426947225	 0.4155127727	 0.088921
C	-2.8186869195	-2.8108428488	 0.3506338288	-0.353792
C	-2.7947969679	-3.5334847652	-0.9967928644	 0.372035
O	-3.7256784464	-4.0029331183	-1.5934128316	-0.296477
C	-1.3329158168	-3.5374574131	-1.4509545593	-0.184691
O	-0.5825712997	-2.9823442617	-0.3903276327	-0.265523
H	 0.6907472151	 1.638960909	-0.6563467975	 0.28684
H	 0.5956658321	-0.6703516218	-0.7765161432	 0.104123
H	 0.3880907149	-0.111213788	 0.8929063981	 0.083403
H	-2.0888821556	-0.0962216121	 0.5664534612	 0.110654
H	-1.8806454105	-0.6436914786	-1.0919922347	 0.107572
H	-1.0122770115	-2.177930865	 1.4228376691	 0.089131
H	-2.9348483338	-3.5660686779	 1.1363234977	 0.139321
H	-3.6659480994	-2.1253686448	 0.4136834237	 0.138032
H	-0.984027989	-4.5553650128	-1.6538388269	 0.138296
H	-1.2445968289	-2.9581829427	-2.3837807036	 0.12521
