23
gdb 57563	3.91138	0.64225	0.63336	2.7599	83.68	-0.257	-0.028	0.2291	1874.2749	0.20065	-425.435637	-425.424128	-425.423184	-425.473295	40.417	
C	 0.0206658645	 1.5624916587	-0.0269886184	-0.398731
C	 0.0100087576	 0.0237150591	 0.0082549499	 0.232088
C	 0.6953861889	-0.4780728838	 1.2918777858	-0.398743
C	-1.4390948632	-0.4901951015	-0.0455531611	-0.411804
C	 0.7486631415	-0.5262031246	-1.2204580835	-0.049763
O	 2.0925558235	-0.0787603911	-1.2168914372	-0.25594
C	 2.8427192893	-0.5360319648	-2.3086393296	-0.142155
C	 4.2539641987	 0.0111408678	-2.1814253896	 0.138411
O	 5.1295882165	-0.2109732157	-2.9741628026	-0.237545
H	 1.0439582692	 1.9458579307	-0.0292260894	 0.125687
H	-0.483653798	 1.9401819586	-0.923689281	 0.105085
H	-0.4983724881	 1.9727846939	 0.8454674693	 0.108617
H	 0.1839705425	-0.0916786621	 2.1796145773	 0.108626
H	 0.6780968384	-1.5725102057	 1.3464336459	 0.105088
H	 1.7387085467	-0.155298164	 1.3291248838	 0.125669
H	-1.9517094327	-0.1511114755	-0.9527438493	 0.110692
H	-1.4776332569	-1.5851161398	-0.0254063093	 0.110689
H	-2.0081982276	-0.122306185	 0.8142627181	 0.115636
H	 0.7229885121	-1.6292579799	-1.2147289649	 0.08517
H	 0.2467946856	-0.1916395919	-2.1443643837	 0.085159
H	 2.8932133612	-1.6379971479	-2.3467309597	 0.121288
H	 2.4203410716	-0.2033887015	-3.2726163398	 0.121311
H	 4.4056752086	 0.6429272059	-1.2783853812	 0.095465
