18
gdb 85771	2.96101	1.22053	0.92159	2.2356	75.24	-0.2552	-0.0284	0.2268	1276.5061	0.146047	-439.153061	-439.143511	-439.142567	-439.188344	33.253	
C	-0.1396125277	 1.5686439958	 0.0201225121	-0.404688
C	-0.0032888961	 0.0516298221	-0.0246300668	-0.145605
C	 0.8016911315	-0.5850492059	-1.2004940381	-0.184363
N	 1.7385981928	-1.1230084384	-0.199735329	-0.139952
C	 2.881192484	-1.8959087723	-0.3929500724	 0.381159
C	 3.6198712415	-2.2779793253	 0.8680828959	-0.480503
O	 3.2104468001	-2.2129406225	-1.5142121588	-0.329264
C	 1.072576161	-0.5573265591	 0.8972795212	 0.425213
O	 1.3128497558	-0.567211931	 2.0719065275	-0.355337
H	 0.8240903877	 2.0583349399	-0.1535777718	 0.128026
H	-0.8420783395	 1.9209685984	-0.7411301301	 0.127852
H	-0.5077806458	 1.8882696522	 0.9990932714	 0.142964
H	-0.972173403	-0.4319127082	 0.1317177809	 0.113721
H	 0.2909159105	-1.3613977177	-1.7734638099	 0.132179
H	 1.2712365765	 0.1285526084	-1.8818817521	 0.131127
H	 2.9770740647	-2.8780832834	 1.5189176144	 0.156304
H	 4.5089579752	-2.8444096349	 0.5923874828	 0.142784
H	 3.893604141	-1.3878842981	 1.4409552526	 0.158384
