13
gdb 6644	8.40181	0.74743	0.69369	5.7288	66.07	-0.2636	-0.0589	0.2047	1496.4806	0.092576	-398.607276	-398.59804	-398.597095	-398.644025	29.561	
N	-0.0995008531	 1.3616657596	 0.1459690729	-0.528331
C	 0.1024949972	 0.0390840931	-0.1182232032	 0.432491
O	 1.1882851442	-0.4349730317	-0.3590690423	-0.330915
C	-1.2040951642	-0.7859471794	-0.1296626233	-0.503865
C	-0.9854631895	-2.2170579601	-0.0583525114	 0.14584
C	-0.8324476562	-3.4120219977	 0.0046328934	 0.03042
C	-0.5912748115	-4.8301081629	 0.0728187405	 0.021947
O	-1.447606724	-5.6635319847	 0.2626750401	-0.231583
H	 0.7055472617	 1.9653733476	 0.1808577065	 0.269539
H	-0.9899598062	 1.7306023413	 0.4295538351	 0.263445
H	-1.863014476	-0.4656708345	 0.6875969212	 0.151145
H	-1.7393625668	-0.5442139365	-1.0585485405	 0.173878
H	 0.4718895945	-5.1121427142	-0.0657746089	 0.10599
