18
gdb 127379	3.81363	1.06675	1.05361	1.7453	78.36	-0.2201	0.0161	0.2362	1210.3883	0.149877	-398.113135	-398.105049	-398.104105	-398.14671	30.236	
C	-0.3196660472	 1.4594235828	-0.1847305088	-0.312752
N	-0.1375750602	 0.0309101359	 0.0294380647	-0.084857
C	 1.1760471908	-0.5203107962	-0.2665695503	-0.25764
C	 0.7201512117	-0.4172022102	 1.1505034525	-0.124482
C	 1.3529624995	 0.5107641698	 2.1154148998	 0.223911
C	 0.962699146	 0.7001414641	 3.4306144682	-0.132724
N	 1.8028874814	 1.619704719	 3.9587734953	-0.175821
N	 2.7289478034	 2.0560303818	 3.0854198376	-0.226065
C	 2.4602395292	 1.3853103203	 1.9696504936	-0.09085
H	 0.5727560234	 2.0697675644	 0.020014583	 0.108091
H	-0.6130511341	 1.6178443311	-1.2273696223	 0.121184
H	-1.130814923	 1.8199472394	 0.455929653	 0.120308
H	 1.1938677861	-1.4844153361	-0.7689060667	 0.112651
H	 1.9560074558	 0.1681073331	-0.5903656317	 0.107347
H	 0.3266456398	-1.3207019078	 1.6123487631	 0.087418
H	 0.1698749368	 0.2519276413	 4.0090270102	 0.137223
H	 1.8080001437	 1.9838598873	 4.8963803381	 0.276277
H	 3.0776534169	 1.5406828598	 1.0974148406	 0.11078
