19
gdb 36862	4.63336	0.97729	0.90663	2.0809	75.62	-0.233	0.0698	0.3028	1323.5626	0.158004	-422.943228	-422.934963	-422.934019	-422.977086	31.493	
C	-0.4476730554	 1.2303448742	 0.0538795818	-0.280873
C	 1.0634642391	 1.1124532071	 0.1179060185	-0.293784
C	 0.2279720918	-0.1070313004	-0.0840740892	 0.125411
O	 0.1950633093	-1.0131603878	 0.990691926	-0.284967
C	-0.8608152123	-1.8966777439	 0.951323951	 0.356442
C	-2.2882257458	-1.5530518817	 1.3250501905	-0.346489
C	-1.5428013844	-2.6288172602	 2.0721246527	 0.008826
O	-1.5757924119	-3.8606573217	 1.3446242587	-0.28464
C	-0.8257075839	-3.2586481846	 0.2534013935	-0.137707
H	-0.96243389	 1.429195288	 0.9862579161	 0.12009
H	-0.9050934335	 1.6746629243	-0.8232883176	 0.1153
H	 1.6583892554	 1.476904216	-0.7115793752	 0.116869
H	 1.5246885986	 1.2217717371	 1.0928177715	 0.128533
H	 0.2319878289	-0.5830196167	-1.0632429297	 0.09135
H	-2.3813812766	-0.6162258799	 1.8649184836	 0.118878
H	-3.1282532247	-1.8156106015	 0.6871908798	 0.113872
H	-1.3866517429	-2.6656809176	 3.1433476106	 0.114855
H	-1.3324810207	-3.3679034338	-0.712324705	 0.103495
H	 0.1863998489	-3.6757442869	 0.2025990124	 0.11454
