19
gdb 48153	5.11676	0.73131	0.69932	3.7378	81.05	-0.2323	-0.0678	0.1645	1630.8027	0.158997	-419.207948	-419.198662	-419.197718	-419.243795	33.311	
N	-0.1204478854	 1.4814477391	-0.0483524708	-0.518135
C	 0.0183301162	 0.2145171912	 0.0578764071	 0.287859
N	-1.0279777696	-0.6654413062	 0.0863510774	-0.340836
C	-2.4002613302	-0.270446294	-0.0978304694	 0.095732
C	-3.0975043157	-0.4522105705	-1.4800923996	-0.233477
C	-4.3844052263	-0.8565824529	-0.711014094	-0.210086
C	-3.5019844371	-1.1581235426	 0.5321008124	-0.249748
C	 1.3718320164	-0.4505625718	 0.1982033246	 0.105732
O	 2.402305425	 0.1678592794	 0.216002752	-0.23402
H	 0.8059975237	 1.9083576151	 0.0047764515	 0.233856
H	-0.8142252309	-1.6475536567	 0.0070063796	 0.236659
H	-2.4776997031	 0.766780552	 0.2323362459	 0.128725
H	-3.1331337765	 0.4123221167	-2.1456553813	 0.112892
H	-2.6715315881	-1.3017476867	-2.0241245335	 0.092972
H	-5.0415339375	 0.0001283439	-0.5405337729	 0.112131
H	-4.9795736063	-1.6765145121	-1.1164773629	 0.102419
H	-3.1950195931	-2.2103444014	 0.5525790111	 0.093072
H	-3.8726620446	-0.8849637236	 1.5225061764	 0.107796
H	 1.3621472529	-1.5620242089	 0.2856595565	 0.076458
