16
gdb 57836	3.00758	1.1441	0.91483	2.6602	76.17	-0.2472	-0.0808	0.1664	1279.3915	0.120738	-437.877809	-437.867588	-437.866644	-437.914058	34.512	
C	 0.3089880004	 1.233235982	 0.1403887662	-0.347337
N	 0.1349868203	-0.1880619858	-0.1240380774	-0.110334
C	 0.5223600611	-1.0802105617	 0.9575399605	-0.337685
C	-0.3554043145	-0.5628739573	-1.3325736168	 0.358145
O	-0.6307899274	 0.2061461783	-2.2412904944	-0.369915
C	-0.6675112339	-2.0492667488	-1.5906250122	 0.133709
O	-1.1992197414	-2.7736025375	-0.7764575201	-0.292748
C	-0.3828277469	-2.4766303682	-2.9428750475	 0.293759
C	-0.1047233286	-2.8956731201	-4.0362673037	-0.406845
H	 1.3584618342	 1.4514460731	 0.3707070889	 0.128065
H	 0.0035000634	 1.7914740356	-0.742667644	 0.173647
H	-0.3026297015	 1.5372387462	 0.9984011505	 0.13113
H	-0.1347607901	-0.9420010775	 1.8249202633	 0.13495
H	 0.4643694781	-2.1200856919	 0.6510931149	 0.166878
H	 1.5490581295	-0.8518403789	 1.2680633502	 0.124751
H	 0.1355610673	-3.2538836774	-5.0079255585	 0.21983
