21
gdb 81024	2.19819	1.74949	1.52648	2.3753	77.67	-0.2383	0.068	0.3063	1022.2421	0.183618	-424.218086	-424.209691	-424.208747	-424.250327	33.472	
C	-0.0231432155	 1.5249343785	 0.0764761098	-0.489013
C	-0.0122187021	 0.0100593496	-0.0231893468	 0.260419
C	 0.2637134997	-0.7019759249	-1.3840483389	-0.265645
C	-0.6356645275	-1.8491880958	-0.8433147495	-0.113877
C	 0.1902336931	-2.7254092266	 0.104896075	-0.058102
O	 1.2367011679	-1.9825670123	 0.7144054395	-0.266838
C	 0.9044894671	-0.6371299434	 1.0341862575	-0.098143
C	-1.3605967811	-0.7530337685	-0.012767467	 0.117006
O	-1.8807182337	-1.0484089312	 1.2628335439	-0.434188
H	 0.9708370194	 1.9444577338	-0.1151890742	 0.116112
H	-0.7171417964	 1.9597105042	-0.6507744881	 0.109978
H	-0.3374340762	 1.8522397232	 1.0742233802	 0.124863
H	-0.1956686222	-0.172085821	-2.2226733038	 0.092551
H	 1.3009335609	-0.9470325699	-1.6191833385	 0.110384
H	-1.2214133718	-2.4537536243	-1.5409047458	 0.057847
H	-0.4692272186	-3.1714665996	 0.8651125501	 0.088011
H	 0.6806292488	-3.5372425028	-0.4431755726	 0.099318
H	 1.8592147908	-0.1006297786	 1.0795019453	 0.095829
H	 0.4260548141	-0.572993377	 2.021854024	 0.108232
H	-2.1020926584	-0.2232572416	-0.6282879694	 0.059635
H	-2.7263371383	-1.4946716921	 1.1557705493	 0.285621
