16
gdb 125424	5.7168	0.96042	0.87413	3.9168	72.05	-0.2463	0.0012	0.2475	1316.5769	0.125299	-434.075703	-434.067401	-434.066457	-434.110987	28.941	
C	-0.3911411398	 1.4376279934	 0.1227835774	-0.502836
C	-0.0518527597	-0.0056565494	-0.0348590478	 0.351856
N	-0.1552732467	-0.7271616172	-1.1380003831	-0.348111
C	 0.2513232343	-1.9713082364	-0.7455868289	 0.336175
N	 0.6045921891	-2.0624116842	 0.5277482066	-0.269538
N	 0.4006979892	-0.797391673	 0.9637538982	-0.22771
C	 0.2854588275	-3.1112271342	-1.6868775741	-0.017272
C	 1.1238386663	-4.296906918	-1.4529228082	-0.174
O	-0.2829617999	-4.3512357962	-1.2426412459	-0.228288
H	 0.3568549536	 1.9654867298	 0.7222675104	 0.135961
H	-0.4414396176	 1.8995772838	-0.8638436931	 0.165365
H	-1.3642497693	 1.5676422619	 0.6093128478	 0.150166
H	 0.5858171145	-0.5670532131	 1.9266132812	 0.278313
H	 0.0307188573	-2.83252505	-2.7070553133	 0.106373
H	 1.4971130655	-4.8634143858	-2.3055556569	 0.113258
H	 1.7312227959	-4.3344367313	-0.5508725504	 0.130287
