25
gdb 100830	3.55323	0.71319	0.62822	2.914	90.54	-0.2462	-0.017	0.2292	1847.4257	0.225559	-389.512474	-389.500795	-389.49985	-389.550634	41.519	
C	-0.0582332505	 1.5770867747	 0.1532244629	-0.38995
C	 0.1300169987	 0.0567717772	 0.0921269808	-0.176498
C	 0.7181381664	-0.4683364587	-1.2371959652	 0.052974
C	 2.185746159	-0.0315867423	-1.3748806295	-0.412983
C	 0.5321076519	-2.0073824902	-1.362083917	 0.012523
C	-0.9487600516	-2.4009618791	-1.5083249413	-0.406002
C	 1.331871843	-2.6168922728	-2.5361264547	-0.290717
C	 1.2662067185	-4.1263935106	-2.5552122939	 0.162015
O	 0.9778944705	-4.8029822084	-3.5085637706	-0.246744
H	 0.8882594545	 2.1195975474	 0.0716240235	 0.118909
H	-0.7109874632	 1.9252352654	-0.6551460218	 0.115331
H	-0.5200549267	 1.8717651306	 1.1008054755	 0.113701
H	 0.7821169713	-0.2668712356	 0.9153960851	 0.092497
H	-0.8418891742	-0.4101415722	 0.2774362078	 0.096745
H	 0.1509373663	-0.0069984398	-2.06007879	 0.068581
H	 2.5831365439	-0.2158537472	-2.3761637617	 0.118524
H	 2.2962543669	 1.0387616804	-1.1827918735	 0.11647
H	 2.8234886695	-0.5605660575	-0.6553653834	 0.11136
H	 0.9202727828	-2.4582590111	-0.4351490354	 0.072861
H	-1.3738581935	-1.9655711896	-2.4202467323	 0.121479
H	-1.0664470097	-3.4868062734	-1.5833453333	 0.125403
H	-1.5563865377	-2.069112557	-0.66388515	 0.120786
H	 0.9842280003	-2.237950697	-3.5032446831	 0.115627
H	 2.3950690488	-2.3642230523	-2.4358714877	 0.120004
H	 1.5302831448	-4.601050301	-1.5786947316	 0.067104
