17
gdb 124514	3.58151	1.12336	1.0521	5.3196	75.88	-0.2533	-0.0857	0.1677	1202.2515	0.134591	-414.143159	-414.134513	-414.133569	-414.177395	30.958	
C	-0.0323469806	 1.5916290546	 0.2135058533	-0.400956
C	-0.0293517447	 0.0644261749	 0.0149238989	-0.069489
C	 0.8687286521	-0.639323143	 1.0493223475	-0.400956
C	-1.4319747161	-0.4908785591	 0.0448504548	 0.3738
C	-2.2803899534	-0.4176183433	 1.1550292966	-0.004812
N	-3.4999037787	-0.9238481865	 1.1185390451	-0.164744
N	-3.9066277625	-1.5110549752	-0.0103107362	-0.057491
N	-3.1236757803	-1.5872081304	-1.0576174253	-0.06147
N	-1.8884078768	-1.0867432831	-1.0535043339	-0.242702
H	 0.98709368	 1.9798304801	 0.131747154	 0.130631
H	-0.6478327861	 2.0909348886	-0.5401744458	 0.13508
H	-0.4134546617	 1.8688187228	 1.2024045286	 0.122039
H	 0.3507262951	-0.1575826045	-0.9874134434	 0.113367
H	 0.8917062581	-1.7207899038	 0.8878765531	 0.13508
H	 1.8925603852	-0.2619949544	 0.9716300254	 0.130631
H	 0.5251997061	-0.4551562091	 2.0730744116	 0.122039
H	-1.9822136758	 0.0524692715	 2.0883192257	 0.139956
