16
gdb 61361	3.5468	0.78628	0.77792	3.2553	75.4	-0.2556	-0.0432	0.2124	1503.0505	0.120504	-437.886947	-437.876938	-437.875994	-437.923303	34.41	
C	 0.1974347929	 1.6123028105	 0.2830893525	-0.39836
C	-0.0174567115	 0.1426720286	-0.0714327621	-0.064319
N	 0.6116404965	-0.2400700324	-1.3259806967	-0.33531
C	-0.1015025031	-0.7324295979	-2.386257358	 0.302547
O	-1.299122536	-0.9460427114	-2.357481888	-0.355232
C	 0.7155705321	-0.9824857839	-3.565108955	 0.201085
C	 1.3675015268	-1.1966445393	-4.5520908775	-0.38729
C	 0.4467747883	-0.8062451014	 1.0337091802	 0.151009
O	 0.7330118499	-0.4631145179	 2.1497801364	-0.234582
H	 1.2640604745	 1.8441132146	 0.3681026775	 0.122862
H	-0.2425833737	 2.2573790589	-0.4806320195	 0.130073
H	-0.2614154556	 1.8323825249	 1.2490443064	 0.147186
H	-1.0858417666	-0.0648958656	-0.2219159203	 0.153951
H	 1.5938770719	-0.0537749078	-1.4591252218	 0.260358
H	 1.9310180318	-1.3908993159	-5.4322804566	 0.214585
H	 0.5017332819	-1.8701839941	 0.7113694026	 0.091438
