19
gdb 93398	2.72204	1.31599	0.92722	4.0809	80.24	-0.2345	-0.0461	0.1884	1248.4017	0.159093	-423.069809	-423.060978	-423.060034	-423.10322	33.524	
C	 0.0412670602	 1.528637386	 0.0047974227	-0.501347
C	 0.0516268548	 0.0283180602	-0.0356437109	 0.317405
C	 0.0347077348	-0.657249195	-1.1910846206	-0.259122
C	 0.017891802	-2.1304250875	-1.2726504339	 0.389057
O	 0.0225071177	-2.7115122704	-2.340401659	-0.337368
C	-0.0406486455	-2.8764753421	 0.0551691183	-0.332585
C	 0.6332174337	-2.0988321133	 1.1884831286	-0.222053
C	 0.0583940276	-0.6900023054	 1.3081365052	 0.018449
O	 0.8372739177	-0.0036564686	 2.2837349857	-0.426702
H	 0.939762565	 1.9036450506	 0.5062879928	 0.148811
H	-0.0069506888	 1.957285003	-0.9981412293	 0.135783
H	-0.8209260994	 1.9014294001	 0.5754098986	 0.124792
H	 0.0215271299	-0.1422059482	-2.1479923595	 0.097841
H	-1.1036746907	-3.0333835397	 0.2904607903	 0.12191
H	 0.3989411072	-3.8667717022	-0.0864157385	 0.125886
H	 0.5221312601	-2.6169009227	 2.145326974	 0.108722
H	 1.7081480782	-2.0032825123	 0.996014196	 0.119337
H	-0.989568102	-0.7602636142	 1.6523881442	 0.083346
H	 0.3431464875	 0.7613288316	 2.5923255852	 0.287837
