17
gdb 127864	2.52377	1.59282	0.98843	1.3467	83.88	-0.213	-0.0418	0.1712	1170.3494	0.136519	-414.173392	-414.164757	-414.163813	-414.206804	31.482	
C	 0.0475843429	 1.3948883393	 0.0153796822	-0.327885
N	 0.0206200415	-0.0575581173	 0.0037838825	-0.310872
C	-1.1237010088	-0.6479922891	-0.006466364	 0.190358
C	-2.4504525008	-0.0421085214	-0.0084763518	-0.04863
N	-3.5556335997	-0.7287197689	-0.0194325663	-0.190095
N	-3.4313440523	-2.0500308437	-0.0293078053	-0.100214
N	-2.298264645	-2.7728896633	-0.0290561622	-0.269989
C	-1.1757139235	-2.1156008099	-0.01807603	 0.32944
C	 0.0985069632	-2.8961635335	-0.017732144	-0.46202
H	 1.0869231579	 1.7329191261	 0.0229449092	 0.121449
H	-0.437672246	 1.8347570921	-0.8696216472	 0.11394
H	-0.4460218439	 1.8208444736	 0.9025793627	 0.113954
H	-2.5755105976	 1.0339411455	-0.0005606732	 0.126453
H	-4.2875003651	-2.5783050622	-0.0377179721	 0.290841
H	-0.1108645764	-3.9665485871	-0.0264624107	 0.128892
H	 0.7061702409	-2.6222999852	-0.8862292364	 0.147185
H	 0.6979253326	-2.634852735	 0.8603004666	 0.147193
