17
gdb 77361	2.87904	1.26669	0.93088	1.7091	69.25	-0.256	-0.039	0.217	1203.1818	0.134564	-459.00132	-458.99263	-458.991685	-459.035452	31.414	
O	 0.6702392252	 0.7032708943	 0.7465115819	-0.443159
C	 0.2104584774	-0.3752416965	-0.0091600793	 0.043468
C	-1.3272212009	-0.5523093353	-0.0700580201	-0.113354
C	-1.5257682687	-1.461889745	-1.3029382907	-0.23556
C	-0.4446819401	-1.0239073151	-2.3177657841	-0.340416
C	 0.5683631845	-0.2453644275	-1.4908230041	 0.372122
O	 1.4633748717	 0.4661595878	-1.874105204	-0.324492
C	-1.8849058118	-1.0999152442	 1.2234466697	 0.130217
O	-2.3428382198	-2.207915043	 1.3496466383	-0.24074
H	 1.3351267651	 1.1445774488	 0.194574112	 0.295761
H	 0.6471619855	-1.3283951742	 0.3467169189	 0.106326
H	-1.7524915634	 0.4487267237	-0.227478973	 0.103566
H	-1.3896437481	-2.5020913411	-0.9962657674	 0.134958
H	-2.5368309158	-1.3827704234	-1.705824871	 0.121571
H	 0.0373327217	-1.856934794	-2.8386249472	 0.143399
H	-0.832974342	-0.3555330513	-3.0934644082	 0.144762
H	-1.8204788005	-0.4016152241	 2.0854684082	 0.101571
