23
gdb 57545	3.5737	0.71014	0.6987	1.1657	82.61	-0.2619	0.0639	0.3258	1745.1697	0.202564	-425.412253	-425.40155	-425.400606	-425.448405	39.562	
C	-0.1848675055	 1.5448618073	 0.1455477493	-0.391326
C	 0.022647981	 0.0333776831	 0.0159130851	 0.339128
C	 0.8801461074	-0.4876965963	 1.1775364488	-0.41997
O	-1.2947099295	-0.5309741239	 0.099686115	-0.457111
C	 0.6763414543	-0.353703793	-1.3293311838	-0.195702
C	-0.1241675412	 0.0474462964	-2.5753557909	-0.225538
C	 0.4682499783	-0.5276722335	-3.8373915157	 0.09473
C	 0.4693367942	 0.1959377115	-5.1138451108	-0.181566
O	 1.6599912989	 0.0974238551	-4.3301917679	-0.239365
H	 0.7634053216	 2.0789722696	 0.0348974563	 0.113086
H	-0.8816164579	 1.9093504356	-0.6128371532	 0.124083
H	-0.6055811461	 1.7815014413	 1.1267663761	 0.118267
H	 0.3963193598	-0.2670790183	 2.133378377	 0.120296
H	 1.0168817794	-1.5737119014	 1.1053094195	 0.100933
H	 1.8744197192	-0.0297068712	 1.1769620652	 0.117175
H	-1.200573887	-1.4892985821	 0.1318690982	 0.273397
H	 1.6821305149	 0.0788947184	-1.3862569474	 0.110983
H	 0.8152861869	-1.4452208898	-1.3321823566	 0.07755
H	-1.1577361418	-0.3013787935	-2.465181359	 0.111363
H	-0.1580603051	 1.1375055705	-2.6734774014	 0.102439
H	 0.5034048087	-1.6190710551	-3.8812451263	 0.084918
H	 0.4794596076	-0.3547784035	-6.0537704739	 0.111306
H	 0.0248766919	 1.189378923	-5.1655798036	 0.110923
