20
gdb 62735	2.45273	1.53934	1.24625	2.7404	81.21	-0.2512	0.023	0.2742	1114.6047	0.168957	-403.134157	-403.124744	-403.1238	-403.16768	35.609	
C	 0.0156163262	 1.5350231532	 0.0619399152	-0.462095
C	 0.0543385901	 0.0191868458	 0.0446013509	 0.237182
C	-1.1675332145	-0.6218427808	-0.5926460436	-0.462827
C	 1.3254954792	-0.742629983	-0.162727587	-0.001296
O	 2.4601424508	-0.0070476736	 0.3636931396	-0.276056
C	 1.9213891682	-0.1070107334	 1.6463457213	 0.390623
N	 2.4043673388	 0.2222268018	 2.7554777481	-0.562434
C	 0.6705504338	-0.8048429919	 1.2082537955	 0.138849
C	-0.0158194204	-1.8621221973	 2.0246303638	-0.498451
H	 0.9330923495	 1.9647077572	 0.4661778162	 0.141772
H	-0.1192623277	 1.9235526833	-0.9538905457	 0.116829
H	-0.8245829743	 1.88957574	 0.668560481	 0.121096
H	-1.3339888394	-0.1950620226	-1.5873919671	 0.125147
H	-1.0585430318	-1.7038029476	-0.7107333024	 0.12107
H	-2.0678899495	-0.4379152924	 0.0035449856	 0.128329
H	 1.5333675623	-1.4969350158	-0.9112579496	 0.11607
H	 3.3298842286	 0.6407966171	 2.6471318531	 0.228367
H	-0.4335624865	-1.4188936383	 2.9346365592	 0.142751
H	-0.8323881054	-2.3394586532	 1.4789838276	 0.121974
H	 0.690547542	-2.6389974085	 2.3336737283	 0.133099
