16
gdb 125046	2.32482	1.88882	1.05096	5.984	78.85	-0.206	-0.0446	0.1614	1083.2471	0.1254	-430.23043	-430.221869	-430.220924	-430.263685	31.787	
C	 0.0120174834	 1.5567290627	 0.0105330684	-0.499553
C	-0.033175125	 0.0584209949	 0.0202145561	 0.155393
C	-1.171223152	-0.6797365041	-0.0003853137	 0.34747
N	-2.4828517421	-0.2196343928	 0.0558706316	-0.592236
N	-1.0623835389	-2.0562917854	-0.0289504294	-0.304301
N	 0.1070982427	-2.741093942	-0.00852536	-0.042488
N	 1.1886686856	-2.1024500655	 0.0183975116	-0.263244
C	 1.2254308059	-0.6699263225	 0.0565383551	 0.316211
N	 2.3555427828	-0.0657952587	 0.1090193601	-0.528838
H	 0.8285952175	 1.8869471033	-0.6371858907	 0.162045
H	-0.9202537797	 2.0103299029	-0.3416272909	 0.094778
H	 0.2311003672	 1.9569705233	 1.0075149184	 0.144783
H	-2.5549323933	 0.7867291871	 0.0159717215	 0.263525
H	-3.1045134084	-0.6496392007	-0.6186108602	 0.255981
H	-1.8707925678	-2.6437951362	 0.0992675396	 0.273261
H	 3.100210822	-0.7655467763	 0.1049946325	 0.217212
