19
gdb 70555	2.56775	1.57475	1.16861	2.3236	74.93	-0.2284	-0.0177	0.2107	1092.7486	0.159015	-423.035732	-423.027546	-423.026602	-423.068373	31.999	
C	 0.2315269138	 1.3605128368	-0.2632150485	-0.468344
C	-0.1268753504	-0.0737128611	 0.0655395622	 0.298822
C	-0.8641285951	-0.377676016	 1.3560050516	-0.36091
C	 0.5734705606	-0.7770403073	 1.205217986	 0.063871
O	 0.8237085907	-2.1410338363	 1.0073027821	-0.246262
C	 1.5898362194	-2.3603367074	-0.165345011	-0.173299
C	 0.9236466624	-1.7823666011	-1.4189142452	 0.361669
O	 1.3979629443	-1.9472627391	-2.5162082883	-0.304391
C	-0.350259391	-0.9959912613	-1.1379777674	-0.381102
H	 1.0831500193	 1.410247093	-0.9517197587	 0.126001
H	-0.6101090705	 1.877733785	-0.7380517725	 0.12395
H	 0.498314825	 1.9204132757	 0.6385443379	 0.117877
H	-1.0921239659	 0.4510924309	 2.0179243662	 0.114619
H	-1.5963979053	-1.1777757478	 1.3548195229	 0.12217
H	 1.3424078792	-0.2524894027	 1.7735428914	 0.086737
H	 2.6038058144	-1.9384848236	-0.0797727623	 0.120958
H	 1.6931752641	-3.442732672	-0.2874122062	 0.141491
H	-1.1456020511	-1.7214122322	-0.9297689021	 0.13094
H	-0.631039774	-0.4438665336	-2.0374982081	 0.125201
