17
gdb 79524	3.22259	1.55654	1.29349	2.4157	66.51	-0.2309	0.0504	0.2813	977.9036	0.13685	-458.890243	-458.882999	-458.882055	-458.921966	28.871	
O	 0.0953679944	 1.4000393688	 0.2241166916	-0.441872
C	-0.0067712818	 0.0026278027	 0.0636864542	 0.085285
C	-1.4158005126	-0.5199267684	-0.1854384902	-0.07041
C	-1.3218306502	-1.9374703681	-0.8189061185	 0.030367
O	-2.5342342147	-1.705479198	-1.6150441739	-0.314962
C	-1.7577894195	-0.458560296	-1.7061314831	 0.048943
C	-0.437368521	-1.2588895513	-1.9065081161	-0.03528
C	 0.7052454717	-0.5116868009	-1.2510667283	 0.02685
O	 1.0885000547	 0.5726994047	-2.0918485187	-0.434247
H	 0.0894537868	 1.7696107548	-0.6693572105	 0.28034
H	 0.4312504798	-0.4463000276	 0.9617085291	 0.08546
H	-2.205975646	-0.3171637733	 0.5352675408	 0.086988
H	-1.2030024703	-2.9089316104	-0.3377866401	 0.094112
H	-2.170758847	 0.355343767	-2.3005310995	 0.100047
H	-0.2778178696	-1.7737843809	-2.8519855464	 0.088289
H	 1.5682512467	-1.1542287954	-1.0375862855	 0.075961
H	 1.8952270085	 0.9554566023	-1.7303078146	 0.29413
