17
gdb 33837	4.29009	1.09065	1.00631	3.8368	79.33	-0.2572	0.0145	0.2718	1187.8915	0.137194	-380.82952	-380.821846	-380.820902	-380.861713	29.863	
N	 0.0964594176	-1.141201786	-0.0777497575	-0.349699
C	 0.0597776755	 0.0149381423	-0.0249275938	 0.189657
C	 0.0061860766	 1.4360809662	 0.0555450711	 0.207551
C	 0.2839179562	 2.3298838376	-1.1313606159	-0.322023
C	 1.1901290505	 2.4382537019	 0.0601254688	-0.189701
C	 0.5030671102	 3.2050170057	 1.1691536287	 0.375248
C	 1.1535053709	 3.8622443629	 2.3184216115	-0.313661
N	 0.406383401	 4.651977966	 1.3144683152	-0.360644
C	-0.6963476523	 2.235911115	 1.1740956916	-0.36049
H	 0.7081231141	 1.8302807401	-1.9952390712	 0.141756
H	-0.4215280166	 3.1235037461	-1.361838573	 0.132435
H	 2.246908085	 2.2067856102	 0.0012218237	 0.116471
H	 0.6932133885	 3.8211558333	 3.3020127027	 0.127271
H	 2.2394857817	 3.9197117403	 2.3280802032	 0.11858
H	 1.0507894882	 5.118683753	 0.6798574005	 0.234235
H	-1.6678365284	 2.6600615376	 0.9079325108	 0.121118
H	-0.7833269789	 1.6736773079	 2.1055577836	 0.131896
