21
gdb 83419	2.77178	1.29545	1.11205	1.5566	82.91	-0.2416	0.0817	0.3233	1202.5121	0.182609	-387.040792	-387.032156	-387.031212	-387.074128	33.207	
C	 0.0155539656	 1.6232627406	 0.2210613377	-0.423593
C	 0.0509641715	 0.1123295097	 0.317159269	-0.058926
C	 1.179078172	-0.7688165178	-0.1614249769	-0.126506
C	 2.550830971	-0.1421645073	 0.1154748405	-0.225723
C	 2.1929724792	-0.0612905865	 1.6337494417	-0.308523
C	 0.8186264717	-0.6857561382	 1.3361438656	 0.353449
C	 0.1814916288	-1.7046447582	 2.2101835174	-0.049997
C	-1.0453550984	-1.4396263996	 2.9804834429	-0.179618
O	-1.0811338791	-2.2309397884	 1.7913118591	-0.233062
H	 0.9847053022	 2.0831133811	 0.4316896611	 0.118203
H	-0.2861757072	 1.9391632029	-0.7837050125	 0.118302
H	-0.7069033413	 2.0439081485	 0.9295195483	 0.11412
H	-0.9109353482	-0.358368106	 0.1237525168	 0.103984
H	 0.9946979296	-1.5854969322	-0.8501080902	 0.088004
H	 3.3766650925	-0.8308469046	-0.0747508145	 0.102981
H	 2.7684022732	 0.8011671283	-0.3953635721	 0.097203
H	 2.823630121	-0.719724045	 2.2371863575	 0.101928
H	 2.1879989567	 0.928513314	 2.1013349183	 0.095876
H	 0.8609275777	-2.4640927116	 2.6047224957	 0.085757
H	-1.2358827522	-1.981083919	 3.9061203123	 0.113577
H	-1.5177223663	-0.4617498805	 2.9014980323	 0.112564
