17
gdb 74864	2.30987	1.77156	1.13654	2.1207	79.14	-0.2427	-0.0009	0.2418	1081.017	0.134525	-384.644563	-384.636305	-384.635361	-384.67727	31.644	
C	 0.0737738444	 1.4745099181	 0.0276992857	-0.489035
C	-0.0171456982	-0.013693941	-0.0380717452	 0.311699
C	-0.1643149875	-0.7863523226	-1.1191979998	-0.199407
C	-0.0981776351	-2.2317314741	-0.7618707637	 0.003123
O	 1.1703293248	-2.6145213553	-0.1711187784	-0.248874
C	 0.0863138776	-2.3065270609	 0.6939513994	 0.027991
C	 0.0829166481	-0.8692838193	 1.2384333417	-0.298396
C	 1.2296727626	-0.5499040345	 2.08137174	 0.346789
C	 2.1702636583	-0.2770797458	 2.777790944	-0.470219
H	 1.0322422698	 1.7833327647	 0.4604196291	 0.148476
H	-0.0218972888	 1.9241751812	-0.9636732156	 0.126297
H	-0.7092630146	 1.8916538895	 0.6739391184	 0.126922
H	-0.2745776836	-0.4243426735	-2.1343911844	 0.101356
H	-0.5829007864	-3.004480421	-1.3500671503	 0.099783
H	-0.2714892687	-3.1188142962	 1.3201767107	 0.103169
H	-0.8333530552	-0.7270188343	 1.8325825691	 0.112659
H	 3.0072121325	-0.0487267452	 3.3900441091	 0.197666
