19
gdb 99117	3.41667	0.96686	0.85957	2.1753	72.67	-0.2648	0.0118	0.2765	1409.2649	0.156449	-460.179158	-460.169193	-460.168249	-460.215613	34.868	
C	-0.0993995321	 0.012932266	 1.2967201729	-0.239705
O	-0.1941114292	-1.1394199465	 0.448153506	-0.223114
C	 0.930528835	-1.4536908438	-0.2218647302	 0.456317
O	 1.9571475255	-0.827357563	-0.1278949649	-0.358604
C	 0.7214705965	-2.6958752058	-1.0727375575	-0.398281
C	 1.2355526046	-2.5305674728	-2.4976340593	 0.425808
C	 2.7323557311	-2.4244818692	-2.6869347955	-0.466652
C	 0.3917726052	-3.0260916694	-3.5963197998	-0.225785
O	 0.44608913	-1.630775778	-3.2900903196	-0.272543
H	 0.6723799644	-0.1304505669	 2.0571228755	 0.140371
H	 0.1464582444	 0.9011778523	 0.7098772778	 0.145642
H	-1.0797311708	 0.1196709935	 1.7608184959	 0.133975
H	 1.2583758355	-3.5187985045	-0.5845208803	 0.133309
H	-0.3405047061	-2.9448290131	-1.0780149701	 0.127255
H	 3.225965116	-3.3454517529	-2.35668445	 0.11449
H	 2.9663613597	-2.2631419611	-3.7419836536	 0.121301
H	 3.1319102372	-1.5967072656	-2.0982084152	 0.163137
H	 0.856592785	-3.3158835465	-4.5381615068	 0.113044
H	-0.5565889218	-3.5172255029	-3.3801141453	 0.110034
