12
gdb 23765	3.32077	2.36446	1.38109	3.8306	62.24	-0.2178	-0.0487	0.169	799.7288	0.084458	-422.64868	-422.642516	-422.641571	-422.679067	23.483	
F	 0.0129151324	 0.0255112123	 0.0036480412	-0.047033
C	-0.041898107	 1.3488931973	 0.0110089661	 0.206624
C	-1.2130808533	 2.011134429	 0.0300186896	-0.210708
C	-1.1980574255	 3.4506467045	 0.0370145581	-0.180936
C	-0.0126616849	 4.0782941618	 0.0242555609	 0.07192
O	 1.171086569	 3.4179589629	 0.0050795588	-0.237203
C	 1.2484925276	 2.0285287676	-0.0028814431	 0.306842
N	 2.3603067872	 1.4222830197	-0.020817485	-0.52854
H	-2.1442578409	 1.4575148722	 0.0397292063	 0.1288
H	-2.1160382114	 4.0216698572	 0.0521810456	 0.121473
H	 0.1341148974	 5.150291234	 0.0276450671	 0.140383
H	 3.1343947293	 2.0865346516	-0.0278759857	 0.228378
