23
gdb 66181	2.70579	1.28839	1.17732	0.2336	90.44	-0.2373	0.0259	0.2632	1213.9625	0.206425	-351.157933	-351.148951	-351.148007	-351.191583	35.36	
C	 0.2114261225	 1.4101153905	-0.0909234883	-0.423039
C	-0.0664005371	-0.1039119318	 0.0406073866	 0.261941
C	 0.5850373934	-0.9075938139	-1.1325471287	-0.250339
C	 1.9216619464	-1.4759266204	-0.5923259405	-0.260267
C	 1.7505697062	-1.3762921087	 0.9036130292	-0.078819
C	 0.6835717742	-0.656252079	 1.2416659469	-0.10197
C	-1.5775748694	-0.3248872221	 0.0779950744	-0.001817
C	-2.1975207125	-1.5405529152	 0.7145454756	-0.280817
C	-2.3974530564	-0.1766759703	 1.3342406365	-0.283458
H	 1.2829742882	 1.6056044031	-0.2002522756	 0.110162
H	-0.3022722868	 1.824869764	-0.9659047127	 0.106951
H	-0.1431036325	 1.952618161	 0.7917419908	 0.111953
H	-0.0778298676	-1.7346206456	-1.4042352888	 0.103046
H	 0.7185825394	-0.2917805581	-2.0267133199	 0.090585
H	 2.1075720624	-2.5010028005	-0.9333030836	 0.101566
H	 2.7889136431	-0.8863602988	-0.9214955363	 0.104279
H	 2.455125856	-1.8126056697	 1.6041113964	 0.089047
H	 0.4008503776	-0.4124782585	 2.2605187721	 0.08967
H	-2.0673995145	 0.0239536114	-0.8293741026	 0.076422
H	-3.0401132385	-2.0143279676	 0.2227147174	 0.105206
H	-1.5343978292	-2.2293145071	 1.227531786	 0.114017
H	-1.8853236924	 0.0318597509	 2.2674367489	 0.109123
H	-3.3746766724	 0.2878255563	 1.2588893163	 0.106559
