15
gdb 43568	3.3202	1.36239	1.11474	3.3185	73.15	-0.2396	0.0119	0.2516	1071.5984	0.11276	-416.755911	-416.74814	-416.747196	-416.788269	29.651	
N	-0.0609034624	 1.2033357497	 0.4278411058	-0.552995
C	 0.0075532035	 0.0009341769	 0.0172442063	 0.405565
N	 1.0960353488	-0.7393982556	-0.4195852654	-0.349782
C	 0.7797684538	-2.1026903301	-0.8615534102	-0.181415
C	 1.5606246423	-3.1283812885	-0.1744304029	 0.324971
C	 2.2258827987	-3.9661122401	 0.3715738686	-0.442164
C	-0.7298502872	-2.1945645888	-0.603297855	 0.030265
O	-1.0700962969	-2.0459332102	 0.7635615713	-0.235153
C	-1.1878937867	-0.8955187758	-0.0990323431	-0.024261
H	 0.8554134704	 1.6559496181	 0.4209310423	 0.206355
H	 2.0248574289	-0.5307538303	-0.0895635591	 0.251393
H	 0.9490113547	-2.1978929231	-1.9447431006	 0.117228
H	 2.8012584835	-4.7096938749	 0.8662002414	 0.207188
H	-1.332969164	-2.8769152391	-1.1934425152	 0.117691
H	-2.1809083875	-0.4825697881	-0.228441794	 0.125112
