19
gdb 84042	2.63767	1.54596	1.24954	1.5842	71.06	-0.2318	0.07	0.3018	1056.503	0.160917	-460.128419	-460.120663	-460.119718	-460.16045	30.874	
O	-0.0408494477	 1.4237248449	-0.117849782	-0.423818
C	-0.0412212655	 0.0375240465	 0.0086106546	 0.077262
C	-1.3676563128	-0.7170245959	 0.0898849939	-0.116065
C	-2.6749937392	 0.0496342222	 0.0783092326	-0.114286
O	-3.5891086435	-0.383652747	-0.9250067617	-0.241648
C	-3.3403235396	 0.1572653732	-2.203323779	-0.073612
C	-2.0972113782	-0.395584801	-2.8966936184	-0.080143
O	-0.8821338531	 0.0116978941	-2.2651382403	-0.270194
C	-0.5141428467	-0.7677680359	-1.1640434884	 0.029738
H	-0.2221405263	 1.6089050246	-1.0495899006	 0.296066
H	 0.791967331	-0.3283218033	 0.6016236925	 0.102694
H	-1.3627241303	-1.6281659926	 0.6811250313	 0.090667
H	-3.1905034232	-0.0977805572	 1.0315057721	 0.110078
H	-2.4742367887	 1.1238707242	-0.0300462724	 0.105893
H	-4.2168209138	-0.083303877	-2.8170867254	 0.106524
H	-3.2555321493	 1.2557415032	-2.148832406	 0.09182
H	-2.1465867462	-1.4914632269	-2.9429373976	 0.107287
H	-2.0536728943	-0.0057297548	-3.9201698013	 0.108653
H	-0.0206223426	-1.7031481112	-1.4253573539	 0.093082
