15
gdb 33709	4.09735	1.53484	1.30091	2.097	75.48	-0.231	-0.0152	0.2158	951.721	0.113285	-379.57655	-379.569826	-379.568881	-379.607391	27.334	
C	 0.053522791	-1.111976298	 0.0270541187	-0.346677
C	-0.0116782753	 0.0882686486	 0.0117183011	 0.171778
C	-0.067420766	 1.5164164264	-0.0259868168	 0.193884
N	-1.1796645995	 2.2012845168	 0.6240755206	-0.240409
C	-1.1847033567	 3.363904368	 0.1075226012	-0.007963
N	-0.1439399296	 3.6668478299	-0.8523822347	-0.187932
C	 1.1034144313	 3.7575465395	 0.0581330598	-0.188745
C	 1.310869988	 2.2696513694	-0.1090866321	-0.123432
C	 0.3360256083	 2.290642769	-1.2491015569	-0.072416
H	 0.0982979081	-2.1727140805	 0.0456707482	 0.189242
H	-1.858706662	 4.1567612499	 0.4156988587	 0.129386
H	 1.8670156711	 4.3447785941	-0.4551195067	 0.13116
H	 0.9147768269	 4.172686443	 1.0536323547	 0.122669
H	 2.2216792857	 1.7000699067	 0.0179489658	 0.114567
H	 0.3622698585	 1.9524132071	-2.2772161414	 0.114887
