11
gdb 8993	6.41064	0.93375	0.81921	1.4829	54.07	-0.2888	-0.0848	0.2039	1241.8193	0.06903	-434.563531	-434.555329	-434.554384	-434.598933	25.836	
O	-0.237248188	 0.2190438909	 0.4748896949	-0.220991
C	 0.0537907433	 1.1204020951	-0.2613407658	 0.138787
C	 1.3576979309	 1.8885064608	-0.1217600231	-0.168205
O	 1.3801999704	 2.8883634419	-1.1558156076	-0.227048
C	 2.4660358395	 3.6661026637	-1.1850369342	 0.372264
O	 3.4057851718	 3.6087312315	-0.4429346113	-0.319035
C	 2.3582292551	 4.6345490918	-2.2806542661	 0.260591
N	 2.3232270797	 5.417463679	-3.1285395501	-0.296176
H	-0.5988159343	 1.4605193717	-1.0930156954	 0.114723
H	 1.4210253707	 2.359520945	 0.8644402429	 0.172544
H	 2.2129966609	 1.2132890287	-0.2266924643	 0.172545
