21
gdb 59946	2.73299	0.98672	0.88333	5.8217	79.39	-0.2464	0.0397	0.2861	1414.6875	0.180662	-420.418703	-420.407957	-420.407013	-420.454136	39.796	
C	 0.1655910948	 1.6023923296	 0.0158889457	-0.406526
C	-0.0574814905	 0.0906555796	 0.0576667405	 0.101231
O	 0.3433886696	-0.5184416798	-1.1743276259	-0.428767
C	 0.7409760864	-0.5617426252	 1.1888639672	-0.196297
C	 0.6467810664	-2.1197010091	 1.282370718	 0.076214
C	-0.8140574088	-2.6130024247	 1.2444759968	-0.393711
N	 1.3968325563	-2.843546272	 0.2419603575	-0.536045
C	 1.2332122751	-2.4979257801	 2.5863508492	 0.293398
N	 1.6948372217	-2.7611484498	 3.6124487354	-0.344086
H	 1.2229393681	 1.8302111469	-0.1503454062	 0.130394
H	-0.4144724338	 2.0558703083	-0.7961540898	 0.108991
H	-0.1513718834	 2.0734186722	 0.9515811848	 0.125369
H	-1.1283533558	-0.1002206097	 0.2262848609	 0.078831
H	-0.1516234286	-0.1055989349	-1.8890481829	 0.287574
H	 1.7990159612	-0.2937241489	 1.0848947242	 0.109507
H	 0.3935866932	-0.1239591008	 2.1314939334	 0.117795
H	-1.234098114	-2.4223676285	 0.2537080162	 0.128797
H	-0.8426660157	-3.6883847711	 1.4262682446	 0.144377
H	-1.4276367991	-2.1065023724	 1.9945389657	 0.122829
H	 1.1077646541	-2.4582118679	-0.6536271976	 0.24876
H	 2.3880110729	-2.6365297518	 0.3331447222	 0.231364
