17
gdb 94010	2.03582	1.81418	1.5203	2.1668	63.6	-0.2584	-0.0482	0.2102	966.1062	0.13566	-496.100726	-496.092447	-496.091503	-496.133816	30.841	
O	-0.6064035492	 1.38457911	 0.8005981756	-0.454227
C	-0.1366936651	 0.1556475287	 0.2721424307	 0.076691
C	 0.6255577084	-0.6978567219	 1.2732954559	-0.108086
O	-0.3695095755	-1.4019538189	 2.0263318393	-0.264612
C	-1.5878381583	-1.46621842	 1.3034436179	-0.017397
C	-2.6900351192	-0.7308020356	 2.0695181453	 0.167831
O	-2.4975898564	 0.2976635857	 2.6720855528	-0.261015
C	-1.3389918251	-0.7588729658	-0.0723960437	 0.071649
O	-2.4430813083	-0.0479507413	-0.5687901053	-0.437026
H	-1.0187044406	 1.2059431665	 1.6642490507	 0.306304
H	 0.4557562034	 0.4038743752	-0.6115005901	 0.099574
H	 1.2887732143	-1.4092894671	 0.7592997302	 0.10183
H	 1.222107489	-0.096681746	 1.9646423508	 0.127293
H	-1.8857168446	-2.5144760202	 1.1740056937	 0.090843
H	-3.6981637411	-1.1904365035	 2.0341921638	 0.10594
H	-1.0501174525	-1.5101307059	-0.8145140228	 0.09986
H	-2.3091321491	 0.86592424	-0.2697643548	 0.294548
