20
gdb 89645	4.2203	1.02614	0.95772	2.9039	79.38	-0.2264	0.0763	0.3027	1288.455	0.171756	-403.087959	-403.079669	-403.078725	-403.121172	32.617	
O	-0.1170457455	 1.4846579294	-0.1123052694	-0.438204
C	 0.0184519162	 0.0942930768	-0.0473462598	 0.164002
C	 0.4105744774	-0.5562501555	 1.339607911	-0.334627
C	-0.9279662613	-1.3071412465	 1.3157097037	 0.387511
N	-1.9560874075	-0.2281788836	 1.2284585563	-0.405134
C	-1.28393968	-0.7169632308	-0.0072016455	-0.155438
C	-1.2593035871	-2.6293222216	 1.8977695022	-0.124095
C	-0.1928648119	-3.6596134789	 2.1860986647	-0.27503
C	-0.8867189295	-2.9610188378	 3.326064481	-0.264236
H	-0.8393953557	 1.6948053532	 0.4962490324	 0.289118
H	 0.6966436822	-0.2064390848	-0.8486091084	 0.088204
H	 1.2846324143	-1.2059001347	 1.2553340727	 0.104427
H	 0.5460760338	 0.1466363982	 2.1652693027	 0.10221
H	-2.8727955637	-0.6717307762	 1.2734475947	 0.227477
H	-1.8642563598	-1.1173732506	-0.830682291	 0.088335
H	-2.2124192818	-3.0260590658	 1.5540202193	 0.076745
H	-0.4319146079	-4.6992412429	 1.9927032123	 0.114967
H	 0.8398692881	-3.3977724918	 1.9858620437	 0.118007
H	-0.3222232508	-2.2185960991	 3.8796247515	 0.121489
H	-1.5971719694	-3.5199813771	 3.9245963856	 0.114272
