23
gdb 116296	2.33823	1.14761	0.86237	2.1203	81.31	-0.2394	0.076	0.3154	1427.2417	0.206013	-425.427129	-425.417083	-425.416139	-425.462569	36.585	
C	-0.2116954465	 1.743778798	 0.1247555195	-0.390767
C	-0.0399448061	 0.2267594807	 0.2662637176	-0.203329
C	-1.3246325302	-0.5523897911	-0.0365016391	-0.005867
C	-1.8025448813	-0.4533347711	-1.5086530833	-0.074266
O	-2.3139554616	-1.7308143473	-1.8798946903	-0.263806
C	-2.4432967931	-2.5301154811	-0.7087121708	-0.083439
C	-1.2994250292	-2.0830717693	 0.2078181527	-0.028592
C	 0.0093809427	-2.7705848485	-0.1787325613	-0.08599
O	-0.1485510341	-4.1586707275	 0.0907789217	-0.425019
H	 0.7141743533	 2.2711740652	 0.3738805747	 0.113884
H	-0.4864368959	 2.0247703867	-0.8975047013	 0.122264
H	-0.9973297733	 2.1151235589	 0.7923334185	 0.116242
H	 0.7637981477	-0.1096342117	-0.400870313	 0.099661
H	 0.2893969166	-0.0037344167	 1.2873347976	 0.098461
H	-2.116841817	-0.1456646123	 0.6053844887	 0.07565
H	-2.5779014931	 0.3152219523	-1.631415926	 0.093351
H	-0.9776570378	-0.2047249752	-2.1901003463	 0.094168
H	-3.419432937	-2.3648461597	-0.2240271781	 0.079159
H	-2.3705682897	-3.5797054455	-1.0011260871	 0.121569
H	-1.5080387134	-2.3231280707	 1.2553938894	 0.077773
H	 0.2219442225	-2.5958122027	-1.2446497268	 0.097832
H	 0.8449139606	-2.3548125427	 0.4029526941	 0.084648
H	 0.6348390459	-4.6172019388	-0.225819991	 0.286413
