13
gdb 20349	5.18276	2.13377	1.52568	3.8107	65.55	-0.2463	-0.0308	0.2155	762.3892	0.098357	-361.461789	-361.456347	-361.455403	-361.491162	21.701	
C	-0.0676422156	 1.5333676145	 0.0109314855	-0.422899
C	 1.4155347307	 1.8906517644	-0.0012094616	-0.068647
C	 2.2149838874	 0.8072735933	-0.0147716783	-0.181387
C	 1.3622975791	-0.3761679878	-0.013183164	 0.382785
N	 1.5191555316	-1.6746656585	-0.0217860877	-0.259753
O	 0.2027437674	-2.1680212611	-0.0121367696	-0.179763
C	-0.6756012196	-1.1362543224	 0.0020352881	-0.079219
C	-0.0038415046	 0.0345012072	 0.0020746806	 0.14747
H	-0.5701684295	 1.9428256156	 0.8964561427	 0.138184
H	-0.5868806482	 1.9524991523	-0.8603107481	 0.138184
H	 1.7565894685	 2.9187520817	 0.0012220058	 0.112734
H	 3.2958302609	 0.8019747131	-0.02506301	 0.122134
H	-1.7154676579	-1.4231825223	 0.0103493266	 0.150177
