20
gdb 80501	2.14267	1.46387	1.2127	1.8607	87.24	-0.2257	0.0191	0.2448	1169.5285	0.169223	-365.937576	-365.928212	-365.927267	-365.97116	35.773	
C	-0.1858629984	 1.5220413031	-0.1871012127	-0.431582
C	 0.024117773	 0.0435170951	 0.0514259398	-0.011113
N	 1.2319709864	-0.7195271216	-0.2966347852	-0.186035
C	 2.4242505451	 0.1090151598	 0.1097034912	-0.1937
C	 2.0442785546	 0.0612909439	 1.6122130172	-0.03344
C	 2.014626567	 1.2985008113	 2.5015591439	-0.427741
C	 0.7369731347	-0.6255168363	 1.1779563405	 0.098322
C	 0.1617460611	-1.717515018	 1.8934350415	 0.233022
C	-0.31449433	-2.6150974802	 2.5392469602	-0.405506
H	 0.6620231051	 2.1457033675	 0.0936341524	 0.126331
H	-0.3909304923	 1.694407759	-1.249605738	 0.128756
H	-1.0568675477	 1.867049626	 0.3793827567	 0.130002
H	-0.8456123899	-0.5377551487	-0.2529411025	 0.103957
H	 3.3411064092	-0.429695444	-0.1338101983	 0.113483
H	 2.4650865723	 1.0950483306	-0.3626919381	 0.103818
H	 2.6633064866	-0.6989024848	 2.0971199159	 0.095475
H	 1.4190564247	 2.1117386457	 2.0805200561	 0.119806
H	 1.5920693312	 1.0511890618	 3.4813718568	 0.127734
H	 3.0297027512	 1.6764393224	 2.6654621002	 0.118248
H	-0.735885324	-3.4138766523	 3.0975577424	 0.190165
