20
gdb 15361	5.72221	0.84345	0.79245	2.9466	76.95	-0.2437	-0.0181	0.2256	1467.2542	0.175268	-349.006094	-348.996825	-348.995881	-349.041058	32.787	
C	 0.3782603907	 1.5362112392	 0.1700427757	-0.374186
C	-0.1514196752	 0.1169844783	-0.0695248137	-0.194815
C	 0.4325215857	-0.5116656317	-1.3185946571	 0.007655
C	 1.7595185021	-1.2306390468	-1.2897097982	-0.292524
C	 0.4861714812	-2.0046954788	-1.5600244096	-0.028597
C	-0.0410300669	-3.0257809081	-0.5669828211	-0.299337
C	 0.6541073057	-4.3618874881	-0.7318072101	 0.165366
O	 0.0944603674	-5.417494012	-0.8802989697	-0.240247
H	 1.4669647507	 1.5343008645	 0.2865077361	 0.119134
H	 0.1370862938	 2.1946306174	-0.6716390262	 0.115691
H	-0.0582739949	 1.9752265418	 1.0723814578	 0.112375
H	 0.0736680718	-0.501382616	 0.8071344271	 0.094126
H	-1.2460149027	 0.14391725	-0.1507862175	 0.100517
H	 0.2454246579	 0.0731280863	-2.2170148869	 0.085293
H	 2.4654931417	-1.0818690668	-2.0991323735	 0.114283
H	 2.2260396776	-1.3655518642	-0.3176641181	 0.109264
H	 0.3337512826	-2.301846515	-2.5947472825	 0.09467
H	 0.1523259332	-2.6869452447	 0.459465286	 0.116584
H	-1.1192320696	-3.1837676582	-0.6706001863	 0.120662
H	 1.7670866772	-4.2994453871	-0.7134748622	 0.074083
