17
gdb 127015	3.32108	1.0614	0.81322	4.0601	71.75	-0.2174	0.0125	0.2299	1380.1866	0.13575	-455.127887	-455.119016	-455.118072	-455.161961	32.327	
C	 0.0462148579	 1.5360467787	-0.0842470351	-0.392737
C	 0.024544206	 0.020663982	-0.0308073529	-0.057618
O	 0.708888651	-0.4775719139	-1.1790165188	-0.278985
C	 0.7734227253	-1.8236643127	-1.2738222735	 0.183003
C	 0.3127976656	-2.8374440079	-0.4966132177	-0.050242
O	 0.6377157536	-4.0232079325	-1.0531410685	-0.186593
N	 1.3322295885	-3.795240342	-2.2469597751	-0.225369
C	 1.4157175056	-2.4905694623	-2.366231455	 0.32984
N	 2.0970041686	-1.8653404997	-3.3914927154	-0.593525
H	 1.0748135016	 1.9066976709	-0.0853115181	 0.135693
H	-0.4533148822	 1.8976549442	-0.9872476836	 0.131886
H	-0.4707900576	 1.94903096	 0.7866008488	 0.124883
H	 0.5228167551	-0.3527681689	 0.8756672269	 0.109363
H	-1.0060900549	-0.3637770596	-0.0289987647	 0.107149
H	-0.2317355681	-2.8782668318	 0.4318169151	 0.141856
H	 2.2329802236	-2.4500896869	-4.2043037054	 0.261449
H	 1.7304662504	-0.9533437176	-3.623422917	 0.259948
