16
gdb 16523	3.75723	2.44306	1.8935	2.0771	63.31	-0.2138	0.0777	0.2915	743.0299	0.131021	-383.692946	-383.686612	-383.685667	-383.723007	25.398	
C	 0.0371732673	 1.4516878915	 0.0235312412	-0.48163
C	-0.0313426692	-0.0454729613	-0.0082692641	 0.441644
O	 0.9460014059	-0.6439708997	-0.8378528406	-0.302385
C	 0.4545385535	-1.9268830421	-1.2423487098	-0.080634
C	-0.6773283855	-2.2063385976	-0.2669811637	 0.0546
O	-0.0828312856	-2.2104096185	 1.0707535919	-0.302549
C	-0.4593156435	-0.8424103039	 1.2180924159	 0.026472
C	-1.3206179895	-0.8213090758	-0.0248205078	-0.244068
H	 1.0300514662	 1.7806586841	 0.345186461	 0.136613
H	-0.1583458757	 1.8726064976	-0.967820535	 0.128215
H	-0.70015205	 1.8568800302	 0.7229767623	 0.121673
H	 0.1014256234	-1.8990394227	-2.285312749	 0.091487
H	 1.2618203632	-2.6596301239	-1.1516726511	 0.11969
H	-1.2946972701	-3.0854286336	-0.4544021653	 0.089392
H	-0.6001899035	-0.4532230255	 2.2209312497	 0.103118
H	-2.322425587	-0.4794039188	-0.2481922156	 0.098362
