15
gdb 51942	5.67459	0.4889	0.46977	2.3104	73.25	-0.2647	-0.0411	0.2235	2182.0456	0.108596	-457.754739	-457.744765	-457.743821	-457.793421	31.979	
O	-0.2218663103	 0.4664145311	 0.5152722881	-0.223318
C	 0.2480412605	 1.505914019	 0.144747107	 0.169639
C	 1.4359366165	 1.5977930848	-0.8197374088	-0.415018
C	 1.2987536935	 2.691891634	-1.767788094	 0.028408
C	 1.1353731743	 3.6083436941	-2.531142562	 0.118429
C	 0.9703033492	 4.7169470111	-3.4608391269	-0.24925
O	 1.8139110469	 5.8374873866	-3.1378226495	-0.166
C	 3.0719790629	 5.8075609651	-3.6278650133	 0.18257
O	 3.8728772585	 6.6575377763	-3.3876755219	-0.264121
H	-0.1377250358	 2.4889307625	 0.4901166927	 0.100821
H	 2.3336316237	 1.7542825489	-0.2022645622	 0.166852
H	 1.554025018	 0.6289275899	-1.3153232986	 0.161179
H	 1.1630282013	 4.3877685935	-4.4904930224	 0.14491
H	-0.0498497539	 5.1081699388	-3.4267758922	 0.161497
H	 3.2629846945	 4.9283191946	-4.2736543559	 0.083402
