17
gdb 69981	2.5199	1.90858	1.39056	2.0637	67.25	-0.225	0.0499	0.2749	945.0544	0.135049	-458.889626	-458.881968	-458.881024	-458.921137	31.003	
O	 0.1177487705	 1.393312113	-0.1020792998	-0.456969
C	 0.0177675256	 0.028797704	-0.0051924299	 0.387252
C	-0.3337654205	-0.8023168197	-1.1802240535	-0.341057
C	-1.1962922205	-0.94313427	 0.060657963	-0.163676
C	-0.4462693919	-1.7575188209	 1.1272184983	 0.032979
O	 0.4408373054	-2.819257271	 0.6629950413	-0.295099
C	 1.6143101061	-1.9755723057	 0.7749218644	-0.162453
C	 0.7275842659	-0.7597046241	 1.1237765998	 0.273773
O	 1.0503266585	 0.1185063859	 2.1568445882	-0.488986
H	 0.1789923804	 1.7299416974	 0.8015018836	 0.29683
H	-0.8063866647	-0.2315236091	-1.9735376431	 0.124153
H	 0.2769378272	-1.6324020925	-1.5211921814	 0.128319
H	-2.2654163829	-0.7720233943	 0.0340774071	 0.09132
H	-1.0042727295	-2.0318695386	 2.0259187591	 0.078522
H	 2.2603482473	-2.2945424054	 1.6059869578	 0.090891
H	 2.2022133472	-1.9403920531	-0.1486731311	 0.11307
H	 1.2460088159	-0.3854620059	 2.9537274963	 0.29113
