15
gdb 26457	3.84228	1.08456	0.95596	3.9183	67.75	-0.2276	-0.0303	0.1973	1197.4836	0.113503	-453.987021	-453.979128	-453.978184	-454.020237	28.842	
O	-0.1590026921	 1.4278788521	 0.080171046	-0.429793
C	 0.0047141755	 0.0368992204	 0.0485551597	-0.050017
C	 0.7966232804	-0.3687948942	-1.189632624	 0.132362
O	 1.1545751017	 0.4522142198	-1.9994510819	-0.264698
C	 0.7173748348	-0.4668962699	 1.2731510917	 0.242863
C	 1.3362095616	 0.2736346087	 2.2449206247	-0.172922
N	 1.8433466084	-0.6544093881	 3.1279356861	-0.23367
C	 1.5184653397	-1.8895770902	 2.6552001777	 0.010634
N	 0.8375573935	-1.8137065223	 1.534317749	-0.316998
H	 0.2505607235	 1.7487058105	-0.7402179351	 0.294278
H	-0.9703229008	-0.4780964788	-0.0250017688	 0.109825
H	 1.0274282409	-1.4454972401	-1.2867507341	 0.123256
H	 1.4390335095	 1.3345211539	 2.3875410067	 0.149304
H	 2.3469072874	-0.452257839	 3.9752628934	 0.270919
H	 1.8004154861	-2.7976920527	 3.1665769689	 0.134657
