19
gdb 97768	6.12697	0.53335	0.53095	1.0409	82.39	-0.2462	0.0304	0.2766	2069.5552	0.157937	-422.975687	-422.965793	-422.964849	-423.012488	35.273	
O	-0.0067085456	 1.7033341058	 1.0487988379	-0.402469
C	 0.1336960105	 0.514480007	 0.2816138505	-0.192111
C	-1.1253667479	-0.1995877881	 0.0742577126	 0.104676
C	-2.1900892762	-0.7386588016	-0.1009542509	 0.016348
C	-3.4505910149	-1.4161452752	-0.3187461118	-0.163917
C	-3.9620755643	-1.6277327147	-1.7816937427	-0.270835
C	-4.4918467163	-3.015792192	-1.3360340238	 0.163586
O	-4.4614669317	-4.1009229403	-2.2227796693	-0.430981
C	-3.5203603255	-2.9672678091	-0.1276148862	-0.269347
H	-0.7208140143	 2.2148979435	 0.6545686034	 0.286345
H	 0.5998365217	 0.7232399243	-0.6951708909	 0.114692
H	 0.8387961613	-0.1142368229	 0.8372131861	 0.138153
H	-4.2342184864	-0.9381941159	 0.2791356751	 0.105821
H	-4.6660765754	-0.9012155574	-2.1920708418	 0.108561
H	-3.1161509583	-1.7362619182	-2.4683001572	 0.102815
H	-5.5307882044	-2.9431856366	-0.9993634408	 0.096492
H	-3.5589472736	-4.1994040163	-2.5446026684	 0.277557
H	-2.5594005368	-3.4258895676	-0.3821840916	 0.103937
H	-3.8570492821	-3.3519134148	 0.8368617596	 0.110678
