19
gdb 74536	4.62095	1.44076	1.2817	0.2525	85.44	-0.2068	0.0128	0.2196	1033.5213	0.160282	-348.653566	-348.646678	-348.645734	-348.68439	28.952	
C	-0.0829735452	 1.5133852953	 0.0100284055	-0.501334
C	-0.0175440674	 0.0234317148	 0.0088420239	 0.347415
C	-0.0738699754	-0.8431549223	-1.0184006852	-0.391118
C	 0.0502068365	-2.179299025	-0.3099404647	 0.326518
C	 0.1263844489	-3.720987022	-0.2203604477	-0.353808
C	 0.2411220291	-3.226749802	 1.2639633222	-0.111279
C	 1.0968125479	-1.9964392473	 0.8426133626	-0.016508
C	 0.1385297214	-0.8515689073	 1.2865807415	-0.200821
C	-0.7809772551	-2.0791925212	 1.0153203813	-0.016501
H	 0.8216223152	 1.9545901657	 0.4490362622	 0.12476
H	-0.1945967352	 1.9111007583	-1.0027456558	 0.122834
H	-0.9262557085	 1.877702174	 0.6115345784	 0.124741
H	-0.1800514741	-0.6378332306	-2.0739343192	 0.101891
H	-0.7778299452	-4.2794497902	-0.4833033723	 0.096159
H	 1.0128268271	-4.2005394191	-0.6479975778	 0.096159
H	 0.3504380105	-3.838344113	 2.1594825993	 0.068373
H	 2.1794389045	-1.9583868981	 0.6976699532	 0.066358
H	 0.2046988797	-0.3415480933	 2.2504245975	 0.049802
H	-1.8710215348	-2.1368830068	 1.0701944152	 0.06636
