20
gdb 95028	2.62176	1.84394	1.44673	3.2637	76.85	-0.2308	0.0664	0.2972	973.2953	0.174601	-403.110614	-403.103588	-403.102644	-403.141731	29.757	
O	 0.1859680446	 1.4454110233	-0.0722372978	-0.446289
C	 0.0731417854	 0.0394877224	 0.0053582255	 0.112082
C	 0.6360119595	-0.5359114305	 1.3314026395	-0.216617
C	-0.5251127466	-0.4517935393	 2.3491320063	-0.247612
C	-1.7644945919	-0.8025088691	 1.505389118	-0.0031
C	-2.9402706052	 0.1875195135	 1.3777572071	-0.071748
N	-2.3614949208	 1.5065575362	 1.0316163491	-0.349799
C	-2.5830783915	 0.4926696199	-0.0365555873	-0.059895
C	-1.3909902099	-0.4814451534	 0.0113667005	-0.048384
H	-0.5172442426	 1.8083988285	 0.491046391	 0.293503
H	 0.6335791867	-0.3494073152	-0.85128004	 0.070295
H	 0.9150971284	-1.5868529456	 1.1777432044	 0.086397
H	 1.5340637785	 0.0054335485	 1.641173532	 0.102007
H	-0.3840676256	-1.1183302295	 3.2040963361	 0.090106
H	-0.6105276417	 0.5687464908	 2.7339839185	 0.113628
H	-2.1099468294	-1.8281764628	 1.6498904251	 0.072024
H	-3.9100098592	 0.1359830787	 1.857365677	 0.095366
H	-3.124156932	 2.1788924873	 0.979773179	 0.236906
H	-3.2131323855	 0.7322985227	-0.8838798314	 0.096818
H	-1.5334438012	-1.3299447664	-0.6603552027	 0.074311
