18
gdb 37026	3.03967	1.78612	1.46457	2.0298	75.57	-0.2154	0.0183	0.2336	938.8764	0.150249	-401.925065	-401.918052	-401.917108	-401.956358	28.27	
C	 0.0229351164	 1.3209560048	-0.0424153213	-0.362241
C	 1.4048175979	 0.7209402048	-0.0410975025	 0.221418
C	 1.764839494	 0.2105450555	 1.3642856739	-0.292498
C	 0.4887110783	-0.7074601888	 1.3543672751	-0.283246
C	 0.1725042521	-0.1783810863	-0.0470271141	 0.336059
N	-0.1950870052	-0.9614199435	-1.1707496883	-0.334047
C	 0.4993280593	-0.7412697529	-2.2137311458	 0.105558
O	 1.5225538853	 0.1261482201	-2.4104632931	-0.240851
C	 2.246255107	 0.6918641877	-1.2780373745	-0.164741
H	-0.3462191418	 1.8314788779	 0.8440042139	 0.109475
H	-0.3093810473	 1.7493441275	-0.9820599766	 0.126767
H	 2.6896992356	-0.3712626632	 1.3804615091	 0.105835
H	 1.8208857564	 0.9722598528	 2.1482090848	 0.101161
H	 0.7457106789	-1.7683351851	 1.3499919718	 0.114052
H	-0.2675057839	-0.5297907503	 2.1253088405	 0.098727
H	 0.2880260539	-1.2701491672	-3.1409626917	 0.124299
H	 2.582102638	 1.6707838179	-1.6353438083	 0.118697
H	 3.1323199252	 0.0668251984	-1.112293553	 0.115575
