16
gdb 44874	3.14139	1.57681	1.39136	4.0567	70.45	-0.2542	0.0253	0.2796	960.5907	0.125652	-437.844514	-437.837746	-437.836802	-437.875598	27.216	
N	-0.084449732	 1.1934615915	 0.0699940967	-0.575787
C	-0.0823541001	-0.062898952	 0.0349556074	 0.472335
O	 1.0253987157	-0.8958586376	 0.0273933016	-0.265497
C	 0.4133654099	-2.2181444315	-0.0231508616	-0.024103
C	-0.6850275927	-2.0276773563	-1.0971301638	-0.245113
C	-1.2443754148	-1.0283114344	-0.0154954515	-0.253856
C	-0.7182732172	-2.0770671495	 0.9990593251	 0.530918
C	-1.4115629198	-3.0457368518	 1.834315603	-0.300519
O	-0.6204226723	-1.9678305872	 2.3859662874	-0.279841
H	 0.8700087068	 1.5568187299	 0.1020145943	 0.227201
H	 1.1820191576	-2.9862098649	-0.025577833	 0.103508
H	-0.3618590584	-1.6010753136	-2.0471517913	 0.126835
H	-1.3197502165	-2.9028150115	-1.2406476247	 0.118895
H	-2.2477828202	-0.6154075476	-0.0160415797	 0.107985
H	-2.4852507161	-2.9578123983	 1.99066816	 0.129806
H	-0.9971346998	-4.0421449052	 1.9792484002	 0.127233
