18
gdb 22159	5.19555	0.50627	0.46531	0.8446	85.9	-0.226	-0.0227	0.2033	2266.3737	0.143994	-439.01634	-439.005338	-439.004394	-439.054891	37.089	
C	-0.0314463866	 1.4848424733	-0.0064385108	-0.475428
C	 0.013857818	-0.0235213211	 0.0528216927	 0.198786
N	 0.0670137277	-0.69647831	 1.1507327696	-0.161802
O	 0.0763489249	 0.1591015579	 2.2556967839	-0.394686
C	-0.0019692741	-0.7683867265	-1.1597951149	-0.008689
C	-0.0185711814	-1.3316818139	-2.2272849623	 0.138603
C	-0.0364863981	-2.0560498491	-3.4890204603	-0.336111
C	 0.0157538486	-3.5762411723	-3.2966495328	-0.063626
O	-0.0074071398	-4.1523913111	-4.5909734341	-0.414801
H	 0.8507419448	 1.9067189021	 0.4851880745	 0.149074
H	-0.073497369	 1.8327080775	-1.0382303092	 0.130403
H	-0.9042655099	 1.8561476913	 0.539681601	 0.149076
H	 0.1168290496	-0.4612991141	 2.9913234574	 0.310338
H	-0.9408015346	-1.8086573979	-4.0590743285	 0.141297
H	 0.8133847183	-1.7554082508	-4.114548455	 0.141309
H	 0.9295496927	-3.8431587423	-2.7456942167	 0.10294
H	-0.8437781943	-3.8970402069	-2.6899451856	 0.102949
H	 0.0230645434	-5.1086529861	-4.4964736191	 0.290368
