15
gdb 43813	2.1188	1.68356	1.05161	6.0149	70.89	-0.2652	-0.0541	0.2111	1104.577	0.111684	-416.789938	-416.781808	-416.780864	-416.82404	29.588	
O	 0.0257150372	 0.1310440866	-0.5334009985	-0.259783
C	-0.0042334507	 1.2394886278	-0.1048361436	 0.417658
C	-1.1092334461	 2.1651829541	 0.4255086099	-0.440917
C	-0.0297326333	 3.22994445	 0.6905926145	 0.336968
C	-0.1563224204	 4.6990791475	 0.6043277175	-0.299788
N	 0.1326581394	 4.0295135327	 1.8874544096	-0.333833
C	 1.1048540361	 2.328980758	 0.1258984171	-0.372563
C	 2.1950831466	 1.9689768665	 1.0093310586	 0.313705
N	 3.0521349152	 1.6625142124	 1.7216903779	-0.31968
H	-1.8781978892	 2.4143202414	-0.3119933718	 0.148719
H	-1.5993460426	 1.7641264472	 1.3197029136	 0.153304
H	 0.660614808	 5.297716001	 0.210534609	 0.135775
H	-1.1479237484	 5.1121336305	 0.4352055802	 0.124342
H	-0.698112284	 3.9829886326	 2.4721345677	 0.24185
H	 1.5004371622	 2.6827237218	-0.8330595018	 0.154243
