21
gdb 111859	2.35539	1.5084	1.21171	2.2427	78.86	-0.2223	0.0757	0.298	1155.4511	0.18198	-424.204623	-424.195465	-424.19452	-424.238288	34.23	
C	-0.418480551	 0.9811803216	-0.0866984818	-0.235821
O	 0.4492991791	-0.1254403523	-0.2436609634	-0.23599
C	 0.924360622	-0.6120637992	 0.9692500526	 0.048136
C	 0.1567343587	-1.6617263477	 1.7684884985	-0.186972
C	-0.930883707	-2.444146819	 1.0474668445	-0.244319
C	-0.2387047498	-2.9425657178	-0.2424503016	-0.075528
O	 1.1698584143	-2.8949026884	-0.0049609118	-0.294521
C	 1.4497451645	-2.0205240971	 1.0566235672	 0.38889
C	 2.7615200205	-2.3401593447	 1.7173137533	-0.465436
H	 0.0966110646	 1.8297839261	 0.3886111044	 0.107802
H	-0.7441229002	 1.2801718391	-1.08570012	 0.128285
H	-1.2984236069	 0.7279360242	 0.5212993405	 0.110915
H	 1.4557306086	 0.1333967378	 1.5666049808	 0.080121
H	 0.1004140517	-1.5649288254	 2.8475890122	 0.083406
H	-1.2451967648	-3.2804134659	 1.6803490527	 0.106652
H	-1.8222134868	-1.8533367869	 0.8157257186	 0.104437
H	-0.49830303	-3.9752958871	-0.4967303991	 0.098622
H	-0.4891454654	-2.2953794959	-1.0879125847	 0.113037
H	 3.5821042869	-2.266895736	 0.9961839716	 0.131295
H	 2.9644517554	-1.646442705	 2.5377472073	 0.11435
H	 2.7502854756	-3.3589759604	 2.1177034381	 0.12264
