21
gdb 114795	3.46342	1.2012	1.06021	1.058	83.98	-0.2326	0.0288	0.2614	1226.9459	0.18371	-387.082304	-387.074	-387.073056	-387.115442	32.032	
C	 0.2590431768	 1.8014333849	-0.5433736887	-0.236732
O	-0.3599373306	 0.5471983246	-0.7129229901	-0.239752
C	 0.5194474047	-0.4498333242	-1.1586025066	 0.167069
C	 1.5469110058	-1.059609065	-0.1601333805	-0.277565
C	 1.1342103826	-2.4838945745	-0.6415016229	-0.009328
C	 0.618337571	-3.4506545201	 0.441182209	-0.270681
C	-0.8363704151	-3.0559788255	 0.5719636541	-0.065227
C	-1.2273998339	-2.1941780462	-0.3676230331	-0.052741
C	-0.1227574373	-1.8477473326	-1.3313125532	-0.126132
H	 1.0522925656	 1.7713553359	 0.2188193147	 0.107435
H	 0.7013389312	 2.166924907	-1.484193639	 0.101489
H	-0.5115324345	 2.5052825523	-0.2193040994	 0.125043
H	 1.0189082955	-0.1259162611	-2.0863470015	 0.057091
H	 2.5944654796	-0.7753171058	-0.2832568992	 0.093096
H	 1.2451224352	-0.8784879276	 0.8754664842	 0.107814
H	 1.8630823214	-2.9325373227	-1.3177740359	 0.064346
H	 0.7210670485	-4.5049055488	 0.1479672611	 0.100068
H	 1.1708349739	-3.339053644	 1.3836521922	 0.10089
H	-1.4770975257	-3.4536554491	 1.35223639	 0.088238
H	-2.2255678213	-1.7827013683	-0.4610762417	 0.096977
H	-0.3686609735	-2.1214771994	-2.3629146734	 0.068601
