19
gdb 102987	2.0183	1.37779	1.14074	4.231	77.34	-0.2468	0.0189	0.2657	1200.0347	0.157048	-419.181447	-419.171236	-419.170291	-419.216521	36.436	
C	 1.1034481755	 1.2467994966	-1.0672558164	-0.427612
C	 0.6449142927	-0.0695782616	-0.4755813298	-0.034778
N	 1.4531635519	-0.9110161003	 0.3935921489	-0.11622
C	 2.7987428587	-0.5324921489	 0.8097559246	-0.321487
C	 0.2903355583	-0.2371449323	 0.9857635703	 0.098531
C	 0.4176629728	 0.8953171453	 2.0011590564	-0.135334
O	 0.7782767744	 0.4185318583	 3.2828678567	-0.416486
C	-0.7908959283	-1.1413281173	 1.3426223063	 0.262094
N	-1.6699171466	-1.8181690744	 1.6705218372	-0.34685
H	 1.6751533191	 1.8690314343	-0.3779036444	 0.129305
H	 1.7311761015	 1.0567104682	-1.9442110618	 0.13784
H	 0.2360376269	 1.8241327933	-1.4020872351	 0.138486
H	 0.043408394	-0.6551140387	-1.1702816061	 0.111937
H	 2.9966047762	 0.545998122	 0.8594389588	 0.106982
H	 2.9840578996	-0.9555269973	 1.7995860162	 0.151116
H	 3.5070384093	-0.9743200166	 0.1028402483	 0.13209
H	 1.204947108	 1.5893834336	 1.707110449	 0.115955
H	-0.5282968845	 1.4563080108	 2.024482553	 0.113499
H	 0.0708563707	-0.1550350051	 3.6002381779	 0.300933
