21
gdb 118832	3.93882	0.71847	0.66665	2.2943	75.59	-0.2597	0.0724	0.3321	1716.157	0.179529	-461.33446	-461.323591	-461.322647	-461.371478	38.285	
C	 0.0270067984	 1.7627964878	 0.104696519	-0.468981
C	-0.2092458937	 0.2737731764	 0.2605856646	 0.375691
C	-1.4860002112	-0.2618754883	-0.3690247904	-0.248387
C	-1.4680043774	-0.2404894839	-1.8960781626	-0.072807
O	-2.6798997439	-0.8364354693	-2.3353012291	-0.420966
O	 0.942276514	-0.5671173862	 0.0358386115	-0.311388
C	 0.389776977	-0.5046125992	 1.3638118554	-0.018273
C	 1.32389858	 0.017444688	 2.4276516141	-0.093646
O	 2.3466724525	-0.9282995103	 2.6983768325	-0.416845
H	 0.988729085	 2.0669367932	 0.518413437	 0.130224
H	 0.0183305928	 2.0448420854	-0.9526761954	 0.1297
H	-0.7648750988	 2.3298602132	 0.6055831501	 0.125913
H	-1.6423203518	-1.2983453437	-0.055306269	 0.115138
H	-2.3463734415	 0.3170952307	-0.0125943066	 0.107397
H	-1.3807418377	 0.7911626565	-2.2708062576	 0.084241
H	-0.5893183543	-0.7989050157	-2.2509899627	 0.105582
H	-2.6650684392	-0.8728800485	-3.2960054984	 0.286432
H	-0.1265902456	-1.4202156885	 1.6596286044	 0.09399
H	 1.7472342777	 0.9879171967	 2.1384015275	 0.091462
H	 0.7768856791	 0.1554233921	 3.3668862616	 0.112479
H	 2.7823729584	-1.1087532866	 1.8574267142	 0.293041
