16
gdb 130979	4.18081	0.96157	0.80951	2.3805	71.71	-0.2046	-0.0273	0.1773	1342.4387	0.125246	-434.082847	-434.074471	-434.073527	-434.117113	30.075	
O	 0.8500185336	 0.9800785886	 1.2509140598	-0.240142
C	 0.5575451865	 1.6816050353	 0.3191049824	 0.174382
C	 1.1379719814	 1.5320046229	-1.0844225222	-0.261225
N	 1.2259447562	 2.8070737715	-1.7623640675	-0.383029
C	 2.3131961423	 3.631612713	-1.4930394932	 0.403722
N	 2.6749109793	 4.5653560314	-2.3703915705	-0.331587
N	 3.7155104504	 5.1932224809	-1.7689500337	-0.181936
C	 4.0165752701	 4.6800943852	-0.5587118406	-0.0165
C	 3.1267709788	 3.6503421127	-0.3301705332	-0.289869
H	-0.1850759855	 2.5072465386	 0.4025723018	 0.089672
H	 2.0909312373	 0.9876872028	-1.0139591374	 0.127097
H	 0.4347396728	 0.8965286867	-1.6377110612	 0.133048
H	 0.9907842376	 2.795942596	-2.7433364926	 0.247921
H	 4.1652583383	 5.9515952387	-2.2502591241	 0.275009
H	 4.8226804328	 5.0714020413	 0.0418192668	 0.133221
H	 3.0740926082	 3.0173879244	 0.5396802652	 0.120216
