18
gdb 108031	3.96266	1.39903	1.28887	2.6953	73.52	-0.2235	0.0635	0.287	1013.4113	0.149101	-401.878995	-401.871794	-401.87085	-401.910679	28.843	
O	-0.0375941494	 1.3102832801	-0.4016143362	-0.420463
C	-0.0517101045	-0.0347732748	 0.0640570735	-0.203457
C	-1.4728220366	-0.5129372596	 0.0734148048	 0.342366
C	-2.5418940397	 0.1297827003	 0.9421398628	-0.222979
N	-3.7312347554	-0.6656621089	 0.6160278573	-0.126098
C	-3.6431492614	-1.100610725	-0.7895915003	-0.065384
C	-3.3144589012	-2.045927162	 0.3113733683	-0.069275
C	-1.8060921708	-1.983826691	-0.0675148385	-0.15992
C	-2.1424234127	-1.0180845275	-1.1871410399	-0.122273
H	 0.8581206389	 1.6483544446	-0.3088044881	 0.287607
H	 0.5585249108	-0.6864524499	-0.5813215384	 0.08671
H	 0.3652134767	-0.1021867516	 1.0819208041	 0.090686
H	-2.3237892473	 0.04861044	 2.0127814302	 0.099436
H	-2.7095056754	 1.180082355	 0.689245947	 0.120391
H	-4.5049546691	-1.0120226586	-1.4382221095	 0.092687
H	-3.853377883	-2.8817336243	 0.7384610189	 0.092465
H	-1.0891007396	-2.7923124767	-0.0382936148	 0.086211
H	-1.7273684405	-0.93126601	-2.1807688313	 0.091291
