20
gdb 96525	2.45968	1.53172	1.03019	2.8535	76.2	-0.2334	0.0287	0.262	1177.5304	0.172446	-440.316917	-440.308144	-440.307199	-440.350549	32.649	
C	-0.0237134038	 1.4699728061	 0.0858465402	-0.350835
N	 0.0183066795	 0.0191577386	-0.0306344751	-0.080935
C	-1.2560709316	-0.6870171515	-0.131026237	-0.188735
C	-1.4415920421	-1.5149603483	-1.4082114716	-0.065934
O	-0.7929678319	-2.766589421	-1.3830270599	-0.236071
C	 0.6200704679	-2.7028332671	-1.378559612	-0.084725
C	 1.2218787504	-2.1386616315	-0.0814173308	-0.319916
C	 1.2341223088	-0.615882617	 0.0320945436	 0.38644
O	 2.2847908481	-0.0080108322	 0.1608789763	-0.379634
H	 1.001719724	 1.8313679497	 0.1437050296	 0.171249
H	-0.5198686816	 1.9168235309	-0.7839536398	 0.11929
H	-0.566905227	 1.776910923	 0.9884647994	 0.121514
H	-1.4201069954	-1.3402515053	 0.7367363345	 0.121428
H	-2.0404988346	 0.0742628845	-0.1059732282	 0.115853
H	-2.5061731835	-1.7416566869	-1.5282014832	 0.110675
H	-1.1153052847	-0.9189847297	-2.2768520639	 0.09405
H	 0.9526148842	-3.7372963995	-1.5033593512	 0.115432
H	 0.9840599488	-2.1260001869	-2.2444422919	 0.09983
H	 0.6901492137	-2.5848228083	 0.7681119021	 0.121159
H	 2.269920271	-2.4371133077	-0.0116250311	 0.129865
