13
gdb 20352	5.37795	2.22614	1.58985	5.0975	65.38	-0.2447	-0.0335	0.2113	739.0266	0.098969	-357.645796	-357.640366	-357.639422	-357.675196	21.301	
C	-0.0481468463	 1.5433134954	 0.0107726883	-0.41895
C	 1.4437040632	 1.8559508297	-0.0017639234	-0.120133
C	 2.1549246048	 0.7224397621	-0.0147689602	-0.006934
N	 1.2583035286	-0.3631567982	-0.0121281719	 0.065848
N	 1.3862537161	-1.6990071607	-0.0205967661	-0.17589
N	 0.1647041509	-2.1728730619	-0.0118198602	-0.189989
C	-0.7371499093	-1.1424277854	 0.002618299	-0.209324
C	-0.0399025949	 0.0413248604	 0.0024646151	 0.345416
H	-0.5438896399	 1.9581317483	 0.8969141142	 0.151112
H	-0.5606869804	 1.9677609139	-0.8611379481	 0.151112
H	 1.8510658275	 2.8561015514	-0.0001489247	 0.125664
H	 3.2183367414	 0.5430156801	-0.0258835309	 0.156837
H	-1.7978973316	-1.3302655051	 0.0117010889	 0.125232
