16
gdb 35371	3.87273	1.42084	1.2666	5.4423	71.05	-0.2477	0.0324	0.2801	987.1646	0.126595	-400.725702	-400.718992	-400.718048	-400.756958	26.583	
N	-0.027428515	-1.1691060609	-0.1703351094	-0.324281
C	-0.0150884316	-0.0179197327	-0.0702475138	 0.274977
C	-0.0083257375	 1.4373497812	 0.0406015187	-0.140825
C	-0.6335436117	 1.9798478351	 1.3695586993	-0.250691
C	 0.2478766753	 3.1781916684	 1.7171787363	-0.093109
C	 1.7285913813	 2.901167498	 1.8745148858	 0.105687
O	 2.0566541073	 1.6328988271	 1.2990659408	-0.295733
C	 1.4051246911	 2.0505277751	 0.0626949052	 0.082531
C	 1.223258551	 3.4859956824	 0.5928243778	-0.16781
H	-0.5481406081	 1.8466650675	-0.8222764535	 0.125755
H	-1.6755490464	 2.2713444172	 1.2212507838	 0.118951
H	-0.6057095657	 1.2143223146	 2.1480981047	 0.138951
H	-0.1595092695	 4.0034293385	 2.2899387686	 0.101005
H	 2.3661592559	 3.2842985741	 2.6616588289	 0.114051
H	 2.0252878834	 1.8577857821	-0.8129126158	 0.103039
H	 1.3860962601	 4.4269423921	 0.0878043326	 0.107503
