22
gdb 110418	4.54248	1.04764	0.96097	1.5825	86.14	-0.2346	0.0873	0.3218	1339.2567	0.194491	-367.169429	-367.160677	-367.159733	-367.202551	34.013	
C	-0.0841300379	 1.5222200879	-0.0040528481	-0.386426
C	 0.1084765628	 0.0024413968	-0.0198409301	-0.193852
C	 0.7449006143	-0.5084194394	-1.3129474243	 0.013629
C	 0.7529367513	-2.0248501653	-1.4320928774	-0.099073
N	-0.5939044395	-2.065170558	-2.1130749085	-0.198365
C	-0.2236639086	-0.5988109516	-2.5154305567	-0.012042
C	 0.6020666982	-1.1364335932	-3.6961281354	-0.295942
C	 0.6595394401	-2.4171665039	-2.8746407151	 0.328275
C	 0.9275018437	-3.8056627001	-3.3671660857	-0.496254
H	 0.8729926878	 2.0442831415	-0.1147207132	 0.112991
H	-0.7366111128	 1.8531116442	-0.8191558293	 0.116607
H	-0.5366827172	 1.8532918377	 0.9355826886	 0.114158
H	 0.7426321183	-0.2915268007	 0.8268857353	 0.091691
H	-0.8539245397	-0.5021315708	 0.1268060625	 0.114385
H	 1.6928787774	 0.0151212738	-1.4995981835	 0.059736
H	 1.0075225575	-2.7463546759	-0.6613716001	 0.084625
H	-1.0205911041	 0.1293646418	-2.6592009183	 0.078272
H	-0.0127976851	-1.2810975326	-4.5894380818	 0.104386
H	 1.5302252254	-0.6191120123	-3.9646178467	 0.090972
H	 1.9873114943	-3.9373306014	-3.6138438144	 0.120189
H	 0.6623081378	-4.5441301422	-2.6042502776	 0.128658
H	 0.3396724358	-4.0232858366	-4.2652556302	 0.123379
