19
gdb 92282	3.37719	1.40453	1.20781	1.0818	76.22	-0.2499	0.0156	0.2655	1090.376	0.160677	-423.050068	-423.042364	-423.04142	-423.082587	29.844	
C	 0.0949234881	 1.6036318924	-0.0419228718	-0.402307
C	 0.1313618001	 0.0935638956	 0.0167394419	 0.229152
O	 0.7283661065	-0.4310155962	-1.1488859899	-0.268672
C	 1.2132770951	-1.7224210375	-0.8019832027	 0.073132
C	 2.5553669979	-1.9991930596	-1.5033373191	-0.284061
C	 3.5784489593	-1.7544711647	-0.4201338503	-0.0617
C	 3.0290099396	-1.5384992092	 0.7733466344	-0.0877
C	 1.5245616892	-1.5838439467	 0.7185435319	 0.064585
O	 0.9286698899	-0.3422984944	 1.1040561155	-0.2839
H	 1.1105023644	 1.9887933698	-0.1594770335	 0.131534
H	-0.5167704209	 1.9314818534	-0.8863647692	 0.125397
H	-0.3358844429	 2.000578402	 0.88056164	 0.127649
H	-0.8883897569	-0.3247084014	 0.1269484629	 0.054767
H	 0.4515262038	-2.4834502445	-1.0143012512	 0.07064
H	 2.605217834	-3.0282432847	-1.8803776003	 0.109094
H	 2.6788210246	-1.3370837589	-2.3673443765	 0.125201
H	 4.6444558394	-1.7640581356	-0.6220314986	 0.097703
H	 3.563161525	-1.3423060119	 1.6953800648	 0.102073
H	 1.097339104	-2.392590928	 1.3266317816	 0.077412
