21
gdb 70905	2.75351	1.65642	1.28849	1.5909	82.01	-0.2329	0.0929	0.3258	1075.3072	0.182845	-387.079397	-387.071247	-387.070303	-387.111327	33.071	
C	-0.031963433	 1.5263278478	 0.0547441601	-0.503616
C	 0.038839425	 0.0277679471	-0.0066653975	 0.338796
C	 0.8664930967	-0.7763496009	-1.0155789254	-0.33412
C	-0.1262496351	-1.9727137325	-0.8086760553	 0.423807
C	-0.5877801401	-2.758849308	-2.0098614188	-0.478513
O	 0.379236396	-2.8737595131	 0.1787229842	-0.301968
C	 0.5249966853	-2.1352785861	 1.3934530653	-0.111103
C	-0.2819727032	-0.8582110612	 1.1900600914	-0.12043
C	-1.0857320921	-1.0018295199	-0.0686327395	-0.17596
H	 0.9139582794	 1.9547401102	 0.4076456749	 0.120127
H	-0.2391216107	 1.9533573798	-0.9334298561	 0.11654
H	-0.8212343269	 1.8617319353	 0.7359884663	 0.116414
H	 0.7825106578	-0.3510151797	-2.0209803656	 0.093124
H	 1.9212668246	-0.9778070224	-0.7970688473	 0.08984
H	 0.2491804877	-3.3091014978	-2.4507840049	 0.126228
H	-1.356053853	-3.4821174827	-1.7195003423	 0.124199
H	-1.0034902961	-2.0927469232	-2.7710078076	 0.115457
H	 0.1303717446	-2.738089955	 2.220312618	 0.101297
H	 1.5872453749	-1.9364944244	 1.5955866187	 0.093132
H	-0.7221268467	-0.36658908	 2.0503727346	 0.085639
H	-2.1592329052	-0.8994045332	-0.1644317635	 0.08111
