18
gdb 91997	2.78172	1.52824	1.24732	1.9053	76.79	-0.2313	0.0362	0.2675	1044.9105	0.148193	-401.891069	-401.883051	-401.882106	-401.923286	31.806	
O	-0.0322845695	 1.1243285492	 1.2974841362	-0.419898
C	-0.0306055625	 0.1339513975	 0.2853829018	 0.067644
C	 0.8815003872	-1.0282490086	 0.7224424043	-0.17199
N	 0.0641116317	-2.0754871075	 1.3635191576	-0.107356
C	-0.8293835788	-1.5690643182	 2.4226906323	-0.246351
C	-1.3419599592	-1.7793996042	 1.0459852933	-0.036049
C	-1.4192395333	-0.5704497692	 0.1083617067	-0.200664
C	-2.5419627798	 0.3273471094	 0.331575421	 0.28936
C	-3.4351853319	 1.1088184582	 0.5308708277	-0.439566
H	-0.8136207047	 1.6772576752	 1.1643753746	 0.286493
H	 0.293165172	 0.5706164006	-0.6694902052	 0.080184
H	 1.3625079072	-1.4761766544	-0.1536978237	 0.107409
H	 1.6626663793	-0.6716530918	 1.3988593397	 0.125018
H	-1.0639436978	-2.3006271292	 3.1905959782	 0.113388
H	-0.6936307451	-0.5502089561	 2.7678534711	 0.140914
H	-1.9874757943	-2.6227644168	 0.8193464603	 0.097708
H	-1.4706071827	-0.9494105134	-0.9208237975	 0.111521
H	-4.2477947879	 1.771579539	 0.7003318515	 0.202233
