16
gdb 50226	5.13016	1.17774	1.07498	2.0839	70.34	-0.2444	0.025	0.2694	1086.2429	0.125561	-437.839874	-437.833054	-437.83211	-437.871838	26.408	
O	-0.0242635171	-0.0381143928	 0.1306522857	-0.338685
C	 0.0107251919	 1.1742655873	 0.0858264464	 0.139878
N	 1.1499053147	 1.9050433467	 0.0296161262	-0.045289
C	 2.5126450453	 1.3482752821	 0.0149569719	-0.198478
C	 3.2891132215	 2.660112866	-0.0516007242	-0.074693
C	 2.5620593667	 3.7301748866	 0.8267614437	 0.044057
O	 2.9023791755	 4.7946399578	-0.1178806603	-0.31027
C	 2.5164710098	 3.6662418132	-0.9658881011	 0.04406
C	 1.3155910308	 3.3320514775	-0.0254202359	-0.019899
H	-0.89466449	 1.8136548607	 0.0861853089	 0.073237
H	 2.7131098672	 0.7627441501	 0.9178279061	 0.134761
H	 2.6682523945	 0.6995302168	-0.8528706901	 0.13474
H	 4.3762980248	 2.6486832529	-0.0788441311	 0.09763
H	 2.6472041651	 3.9341454014	 1.8938586928	 0.104316
H	 2.5470015736	 3.7935710156	-2.0477407584	 0.104316
H	 0.4090190956	 3.931999858	-0.0237764505	 0.11032
