18
gdb 102063	2.17169	1.2006	0.82513	4.0198	73.28	-0.2653	-0.0458	0.2195	1371.8469	0.144271	-439.099577	-439.089151	-439.088207	-439.13603	35.815	
C	-0.0959536684	 1.5724651427	-0.0176559143	-0.397306
C	 0.0689842498	 0.050786236	-0.0085250726	-0.205157
C	 0.7502487599	-0.4973795093	-1.2849888295	-0.087592
C	 2.2194604229	-0.108626358	-1.2613063649	 0.16198
O	 2.688485512	 0.8227942061	-1.8590010916	-0.239136
C	 0.5856887313	-2.035926246	-1.3645084226	-0.032328
O	-0.7644906858	-2.4536542865	-1.3317430082	-0.406054
C	 1.2750890177	-2.5786411261	-2.5536337123	 0.256796
N	 1.7942910431	-2.9852649721	-3.5025418562	-0.306274
H	 0.8633468357	 2.0852789082	-0.1321769944	 0.140324
H	-0.7403601944	 1.8924626457	-0.8430529515	 0.123519
H	-0.5534722526	 1.912889049	 0.9155911566	 0.122825
H	 0.6545491609	-0.260468457	 0.8677488961	 0.105656
H	-0.9045202111	-0.4393351703	 0.084131579	 0.128639
H	 0.3011454809	-0.040172435	-2.1743298012	 0.105036
H	 2.849431326	-0.7337771523	-0.5843795456	 0.084033
H	 1.0467025073	-2.4876769485	-0.4777035085	 0.145499
H	-1.1937057052	-2.1610376365	-2.1445905681	 0.299538
