19
gdb 100341	2.64682	1.12427	0.9614	1.0343	72.78	-0.2483	0.0422	0.2905	1275.5462	0.155834	-460.115885	-460.105446	-460.104502	-460.151232	38.6	
O	 0.1440336996	 1.2750879224	-0.279653836	-0.429563
C	 0.0050206455	-0.1065969378	 0.0117998118	-0.122048
C	-1.4648324536	-0.5676943981	 0.0619640744	 0.322672
O	-1.487670566	-1.980189406	 0.1919431763	-0.470059
C	-2.1981702242	 0.059229332	 1.2627482836	-0.12136
O	-1.7893556498	-0.5590979934	 2.4806762734	-0.43284
C	-2.2332942972	-0.1869799457	-1.2280426729	-0.384247
C	-1.4637523386	-0.3062953213	-2.4605292993	 0.285817
C	-0.8072638309	-0.3636978741	-3.4669883226	-0.442253
H	 0.0576235487	 1.3683743247	-1.2352590817	 0.292869
H	 0.536248318	-0.7381564596	-0.7085149866	 0.119153
H	 0.4682619593	-0.2744967884	 0.9920113458	 0.081786
H	-1.4372761086	-2.1485168145	 1.1439549234	 0.286907
H	-2.0297234838	 1.1424611551	 1.278618883	 0.119436
H	-3.2732005239	-0.1304886442	 1.1775135593	 0.112474
H	-0.9731151178	-0.1421026597	 2.7731619991	 0.297031
H	-3.1187981376	-0.829642291	-1.273965605	 0.14821
H	-2.5895623685	 0.8466663276	-1.1370924074	 0.134977
H	-0.2464286405	-0.441693218	-4.3655635586	 0.20104
