21
gdb 86881	3.20268	1.06124	0.89833	1.3372	84.88	-0.2506	0.054	0.3046	1354.6859	0.181931	-387.07452	-387.064973	-387.064029	-387.108979	36.447	
C	-0.1910462726	 1.6967768868	 0.0445473481	-0.410951
C	-0.0464289944	 0.1958346676	 0.2896998481	 0.046324
C	 0.4041210947	-0.618587468	-0.9527597719	-0.234033
C	 1.3382671002	-1.7576974909	-0.4172911462	-0.142553
C	 1.1956591733	-1.6804497531	 1.1278802773	-0.248733
C	 0.9637445994	-0.1886387871	 1.3850971967	 0.09293
O	 2.153279514	 0.5677973256	 1.1668269112	-0.434382
C	 1.0575216878	-3.0752053166	-0.9662946834	 0.302981
C	 0.8117748426	-4.1656586531	-1.4106662282	-0.457163
H	 0.7675122923	 2.134589105	-0.2445257917	 0.134622
H	-0.9145963451	 1.8910751924	-0.7539450649	 0.109159
H	-0.5399732615	 2.2147609922	 0.9443137347	 0.108289
H	-1.0144713059	-0.1985848874	 0.6238286233	 0.072845
H	-0.4519598733	-1.0326578005	-1.4896547471	 0.109515
H	 0.9531652499	 0.0128663815	-1.6562559802	 0.108887
H	 2.370724401	-1.4909789617	-0.6653031016	 0.108921
H	 0.3232443675	-2.2551282915	 1.4570346501	 0.10993
H	 2.0706488551	-2.0797612033	 1.6508243805	 0.092691
H	 0.5670169271	 0.0069596488	 2.3921656462	 0.058826
H	 2.8135105284	 0.273825285	 1.8019096249	 0.28305
H	 0.6009587696	-5.1263141716	-1.810108056	 0.188843
