19
gdb 97718	5.08205	0.68167	0.65397	1.8439	88.18	-0.2223	0.0374	0.2597	1777.3779	0.158043	-385.823451	-385.81424	-385.813296	-385.859656	33.355	
C	-0.4363385785	 1.4536466279	-0.0892813798	-0.362897
C	 0.3239327916	 0.1333373843	 0.1345416601	-0.327897
C	 0.925928804	-0.4019522729	-1.0814880556	 0.262219
C	 1.4124138683	-0.8322001918	-2.0987327911	-0.211006
C	 2.0131407389	-1.3246892575	-3.2871934882	 0.115431
C	 1.2645249006	-1.5672038584	-4.5974903493	-0.335736
C	 1.9988843398	-2.6982556349	-3.96624409	 0.060425
O	 3.3866681877	-2.6451729719	-4.278272493	-0.282225
C	 3.5164327184	-1.3746949593	-3.5874898447	-0.129435
H	 0.2328956685	 2.2258092611	-0.4782103684	 0.127878
H	-1.2473794558	 1.3173259634	-0.8097813494	 0.127077
H	-0.8666268497	 1.8108730102	 0.8512151262	 0.113774
H	 1.1077942745	 0.2850759631	 0.8880233925	 0.129879
H	-0.3577937933	-0.6140926008	 0.561432127	 0.129216
H	 0.1856990081	-1.5809544482	-4.4845643264	 0.12694
H	 1.6365160896	-1.1393770389	-5.5248919928	 0.117065
H	 1.575798113	-3.6490773023	-3.6637029281	 0.115124
H	 3.9297309942	-0.5874287833	-4.2285352544	 0.107089
H	 4.1256309303	-1.4878806101	-2.6852100246	 0.117078
