17
gdb 51551	5.41669	0.7561	0.72438	1.1938	70.13	-0.2568	-0.0335	0.2233	1524.3381	0.133224	-458.92013	-458.911306	-458.910362	-458.955163	30.766	
O	-0.6407098404	 0.3699081451	 0.2816123835	-0.232295
C	-0.0366788933	 1.4061590152	 0.1892911048	 0.160869
C	 1.3700516886	 1.5314185046	-0.3716440207	-0.311249
C	 1.453490748	 2.6017561303	-1.4383755689	-0.055435
O	 1.353177016	 3.9678692762	-0.9799302969	-0.274389
C	 2.576606136	 3.5335189503	-1.5306151547	 0.357333
C	 3.9301404013	 3.5719593346	-0.8273790506	-0.153157
O	 4.544774644	 4.0740801387	-2.0344446364	-0.272624
C	 3.2782840451	 4.170397328	-2.7250078116	-0.156304
H	-0.4811805436	 2.369914765	 0.5211329045	 0.09922
H	 2.0357867631	 1.8032706663	 0.457993819	 0.129126
H	 1.6800175604	 0.5585101894	-0.7648938781	 0.130906
H	 0.8811683826	 2.4035478457	-2.3460616257	 0.111596
H	 3.9857504703	 4.2884139828	 0.001966078	 0.118766
H	 4.3563670516	 2.6114563094	-0.512604138	 0.112851
H	 3.2732367375	 3.6069848077	-3.6653717009	 0.114756
H	 2.9817715727	 5.2096660708	-2.9150497072	 0.120032
