17
gdb 41310	3.16104	2.11583	1.77263	0.2254	70.17	-0.2299	0.0547	0.2847	824.7717	0.137495	-421.717334	-421.711218	-421.710273	-421.747345	26.372	
C	 0.0036723259	 1.5165097821	-0.2989569876	-0.304527
C	 1.4882540327	 1.5965614419	 0.2401638395	-0.304527
C	 1.3032137009	 0.1688819183	 0.7989590458	 0.311088
O	 0.6102598058	 0.0386156089	 2.0630729513	-0.335215
C	-0.3264871453	-0.8011597931	 1.3070218427	-0.019658
C	 0.5583824871	-2.0396029932	 1.0210674062	-0.200742
C	 1.5495804754	-1.2399761288	 0.1398049715	-0.019657
O	 0.6768686886	-0.8522639719	-0.9748149273	-0.335215
C	 0.035262691	 0.002115165	 0.0016700023	 0.311086
H	-0.712856147	 2.0609889967	 0.3179581303	 0.126298
H	-0.1502764966	 1.7721297295	-1.3479076605	 0.124381
H	 2.2361182892	 1.6529617023	-0.5522838962	 0.126299
H	 1.6953245893	 2.3592872657	 0.9916359906	 0.124381
H	-1.303152213	-0.9167848416	 1.7754764103	 0.084778
H	 0.9753591316	-2.431060861	 1.9507047509	 0.113224
H	 0.0799119854	-2.826869397	 0.435735197	 0.113227
H	 2.497155869	-1.6820642936	-0.1657307069	 0.084778
