22
gdb 16169	3.92334	1.51316	1.31422	0.172	81.33	-0.2526	0.0865	0.3391	1051.9203	0.202259	-313.084595	-313.076585	-313.075641	-313.116644	31.691	
C	 0.0529663045	 1.5262875883	 0.3734259076	-0.374941
C	 0.0226463257	 0.0390061385	-0.0030503484	-0.275464
C	-1.3756608784	-0.5171613604	-0.1704075349	 0.398216
C	-2.1372355592	-0.9894645975	 1.0492791033	-0.334632
C	-1.6911278755	-1.989443148	 0.0062106453	-0.078881
C	-2.7038940897	-2.4068697095	-1.0494446614	-0.212667
C	-3.3325208915	-1.0785827544	-1.5318699869	-0.227734
C	-2.2287900589	-0.0143063292	-1.3348699951	-0.264035
H	 1.0803561943	 1.8790098037	 0.5082385539	 0.107593
H	-0.4103416823	 2.1442053823	-0.402714036	 0.116336
H	-0.4907672051	 1.7049937456	 1.3071276376	 0.115991
H	 0.5857805388	-0.1110983122	-0.9349141566	 0.089696
H	 0.5478151792	-0.5391447279	 0.7677035032	 0.089716
H	-1.5976769001	-0.9904736314	 1.9912357809	 0.102202
H	-3.1935832353	-0.7612237627	 1.1530960763	 0.102652
H	-0.9087195636	-2.6904756427	 0.2796719301	 0.073275
H	-2.1799908437	-2.9056485182	-1.8742320695	 0.095509
H	-3.4572312321	-3.1097181297	-0.6763322755	 0.093648
H	-3.6816507205	-1.1316558236	-2.5665134239	 0.094484
H	-4.2069513745	-0.8317031122	-0.9216691001	 0.103334
H	-2.646750071	 0.9847836561	-1.1691707954	 0.093671
H	-1.5951443211	 0.0498760752	-2.2298290246	 0.092032
