19
gdb 40917	3.67725	1.34566	1.30386	2.2368	73.62	-0.2426	0.0667	0.3093	1037.9363	0.16116	-422.977773	-422.970629	-422.969684	-423.009606	28.409	
C	-0.0853201004	 1.584551	 0.0449646128	-0.242071
C	 1.4394334611	 1.3746913478	-0.0826408215	 0.083803
C	 1.8443242085	 0.7998391915	 1.2908366916	-0.324669
C	 0.7193381292	-0.2681956939	 1.3989335849	 0.341194
C	 1.0563579351	-1.7479898507	 1.659530519	-0.140747
O	 0.0760267379	-1.8275094155	 2.7171266353	-0.274952
C	-0.1695548992	-0.4095424862	 2.6511270265	-0.14593
C	 0.0237286595	 0.044860191	 0.0599174676	 0.011853
O	 1.1652044843	 0.1543754592	-0.847021026	-0.302109
H	-0.4839656114	 2.1062808764	 0.9195265991	 0.097287
H	-0.5297365629	 1.9517052474	-0.8802158396	 0.115104
H	 2.1053727786	 2.0756562699	-0.5847523203	 0.083342
H	 2.8411134408	 0.3527292546	 1.2623016799	 0.112584
H	 1.8157496162	 1.541495163	 2.0949305474	 0.102129
H	 0.8466226705	-2.447109475	 0.8406793463	 0.107596
H	 2.0737895565	-1.9296542594	 2.0319626333	 0.095919
H	 0.2004409176	 0.1149137458	 3.5433606514	 0.095554
H	-1.2356975547	-0.1786609206	 2.5225599462	 0.098881
H	-0.7646171271	-0.6262734451	-0.2828159639	 0.08523
