16
gdb 35852	3.32135	1.28533	0.96465	5.6594	71.86	-0.2683	-0.0045	0.2638	1167.6025	0.124689	-437.877275	-437.869325	-437.868381	-437.910202	29.204	
N	-0.3614262468	-0.9203024697	-0.6889817075	-0.31337
C	-0.1777958301	 0.1578649487	-0.3219486528	 0.299914
C	 0.0277470438	 1.5621358124	 0.0944635555	 0.059666
O	-0.6332100754	 1.7350460746	 1.3107012399	-0.228195
C	-1.0345955833	 3.0648726096	 1.6022048183	-0.138172
C	 0.0192937177	 4.1353944227	 1.5416488753	-0.065541
C	 1.188167601	 4.1535777057	 0.9033172422	-0.065575
C	 1.8339945713	 3.1093761612	 0.0356113467	-0.138194
O	 1.403731963	 1.7666959885	 0.1986711608	-0.228193
H	-0.4061244136	 2.2197389101	-0.6815925837	 0.10206
H	-1.867586298	 3.3554715303	 0.9365166518	 0.117565
H	-1.4505573706	 3.013931868	 2.6132390101	 0.13669
H	-0.2772155957	 5.0398637196	 2.0705013852	 0.103551
H	 1.7715449111	 5.0717244827	 0.9516553841	 0.10355
H	 1.7169097244	 3.4108783327	-1.0211994408	 0.11756
H	 2.9104182213	 3.0816511127	 0.2314437149	 0.136683
