17
gdb 69588	3.63668	1.31997	1.18972	1.5046	74.21	-0.2328	-0.0022	0.2306	1064.1369	0.135437	-421.790201	-421.78258	-421.781636	-421.821935	30.528	
O	-0.0405399598	 1.4181464037	 0.0271555198	-0.466846
C	-0.0082066629	 0.0253319026	 0.0471980093	 0.358264
C	-0.4274852475	-0.773202336	-1.16706578	-0.341058
C	-1.2909280353	-0.7689328275	 0.085324303	-0.197377
C	-1.0724108989	-1.8829040575	 1.0776870084	 0.442776
C	-2.140149375	-2.4867261191	 1.8904037887	-0.253297
O	-1.57773257	-3.1990036671	 0.7897732135	-0.282651
C	 0.3456089763	-1.7536936082	 1.5349622144	-0.15361
C	 0.925569594	-0.6839161181	 0.9873020138	-0.169911
H	 0.6385753976	 1.7245159828	-0.5833829436	 0.285852
H	-0.8265494759	-0.2048008135	-2.0011791953	 0.114971
H	 0.1221833839	-1.6703488767	-1.4301970941	 0.123361
H	-2.2483050309	-0.2660103231	 0.0381733236	 0.10169
H	-1.9115809343	-2.8851069636	 2.878718889	 0.112109
H	-3.1669819892	-2.1463475611	 1.7548943404	 0.114163
H	 0.8080538072	-2.4832909713	 2.1882546196	 0.10937
H	 1.9458363308	-0.3548170563	 1.1487217597	 0.102194
