19
gdb 119435	5.046	0.80287	0.75905	3.365	77.23	-0.2422	-0.0257	0.2165	1538.151	0.15704	-423.011018	-423.001942	-423.000998	-423.045555	33.284	
C	-0.190936116	 1.5791681707	-0.0958849979	-0.384361
C	-0.0910270036	 0.052304968	-0.0904453396	-0.166301
C	 0.8829737729	-0.4799388381	-1.1543989875	-0.313058
C	 0.9815338053	-1.9729407316	-1.1519059176	 0.434936
C	 1.6100926197	-2.9022410655	-0.0911630495	-0.418059
C	 1.9596398577	-3.8537415363	-1.2764829268	 0.43241
O	 2.65161129	-4.8210561587	-1.3823689704	-0.297341
C	 1.2652560789	-2.9252928313	-2.2653358293	-0.190691
O	-0.0688452892	-2.7423532767	-1.7365317089	-0.278389
H	 0.782092263	 2.0417717381	 0.1038338034	 0.11593
H	-0.5405314199	 1.9497358851	-1.0657589783	 0.118945
H	-0.8906617982	 1.9324918404	 0.6672430913	 0.117952
H	 0.2306627454	-0.2937226239	 0.8999830877	 0.103401
H	-1.0792320637	-0.3886886876	-0.265360543	 0.117759
H	 0.5596986273	-0.1542358683	-2.1498923001	 0.114134
H	 1.8823790923	-0.0579822716	-0.9862363059	 0.107335
H	 2.5262124851	-2.526214323	 0.3749525911	 0.131391
H	 0.9261469868	-3.2776450791	 0.6721658639	 0.135006
H	 1.4083332463	-2.7749499007	-3.3292503326	 0.119003
