20
gdb 78245	2.00519	1.68664	1.20703	3.4966	74.78	-0.2227	0.0712	0.2939	1117.4114	0.170406	-440.247207	-440.238044	-440.237099	-440.281052	34.535	
C	-0.1745708845	 1.6407942293	-0.0439713046	-0.320775
N	 0.0786196573	 0.2129680384	 0.0362053169	-0.103723
C	 1.3309922161	-0.4308000176	-0.3071193272	-0.032564
C	 0.8124950485	-0.4437528284	 1.0996636112	-0.032597
C	 1.7519286231	 0.3564666168	 1.9917473467	 0.108383
O	 2.3658216934	-0.5924131213	 2.8554540523	-0.433511
C	 2.7557420789	 1.0501396221	 1.0305849902	-0.297508
C	 2.6199373747	 0.3779947267	-0.3631095833	 0.108345
O	 3.6530606657	-0.5606356368	-0.6368189173	-0.433512
H	 0.6464188412	 2.3038603012	 0.2647111594	 0.099942
H	-0.4328629317	 1.889430357	-1.0784026227	 0.126263
H	-1.0438339555	 1.8741597699	 0.5793273896	 0.126265
H	 1.2704399263	-1.2802871719	-0.9821096547	 0.097686
H	 0.3335327657	-1.30369469	 1.5600932762	 0.097691
H	 1.202635179	 1.1027967165	 2.5867811414	 0.064937
H	 2.924450064	-0.1131081657	 3.4748499572	 0.281337
H	 2.5727058546	 2.1277740421	 0.9729732849	 0.101717
H	 3.7747600364	 0.9098314747	 1.4049086946	 0.095344
H	 2.583932409	 1.1369991443	-1.1602293508	 0.064941
H	 4.4772210476	-0.0748390375	-0.7378941199	 0.281339
