17
gdb 50849	2.51368	1.0959	0.84415	3.6224	72.63	-0.2571	-0.0256	0.2315	1355.6481	0.134738	-455.129652	-455.120613	-455.119669	-455.164653	31.564	
N	-0.2325282029	 0.358805586	-2.3288554586	-0.471896
C	-0.0448826333	-0.1108169805	-1.1729017856	 0.415863
C	-1.1236151787	-0.9242537837	-0.4906517045	-0.254867
N	-1.7063008045	-0.197529095	 0.6370108881	-0.074933
C	-2.7694707505	 0.7506789327	 0.3017722347	-0.222572
C	-3.087338327	-0.5408057252	 0.9695665252	-0.222624
O	 1.1770254145	 0.061378185	-0.5440935175	-0.216767
C	 1.3620052562	-0.1167309028	 0.8076185452	 0.142403
O	 2.4597112252	-0.0880455316	 1.2689559399	-0.250674
H	 0.5935695458	 0.8713804408	-2.6459986825	 0.236383
H	-1.8596136621	-1.1658362939	-1.2692706756	 0.132171
H	-0.7023873555	-1.8640198039	-0.1125977806	 0.128978
H	-2.7650404225	 1.6757916338	 0.8696708083	 0.128407
H	-3.0359194637	 0.856326654	-0.7470683279	 0.137604
H	-3.5761426009	-1.3062929529	 0.3701372355	 0.120754
H	-3.3192491135	-0.5728845658	 2.0296050823	 0.129038
H	 0.4215039836	-0.2394978669	 1.3614113336	 0.142733
