19
gdb 90176	3.48269	1.44586	1.39431	0.8682	74.28	-0.2228	0.0752	0.2981	1026.2894	0.15903	-422.977755	-422.970065	-422.969121	-423.009601	30.915	
C	 0.2778516414	 1.5764925392	 0.0223587332	-0.40057
C	 0.0726628633	 0.0821030265	 0.0069534874	 0.198495
O	 0.7280219118	-0.5038599258	-1.1335628255	-0.301324
C	 1.111452029	-1.7834113243	-0.7248743826	 0.29941
C	 2.3894649786	-1.9232669535	 0.0631812	-0.370587
C	 1.0669260296	-1.7927781085	 0.7757595188	 0.299411
C	 0.2082606658	-3.0714805145	 0.7788624875	-0.289659
C	 0.2549515899	-3.0616573553	-0.7948236633	-0.289658
O	 0.6594715088	-0.5182781096	 1.1769158951	-0.30132
H	 1.3463465773	 1.8018995412	 0.0555339784	 0.132468
H	-0.155871215	 2.0210836396	-0.8768069299	 0.131489
H	-0.2087163499	 2.0100395062	 0.8996047782	 0.131486
H	-0.9984467905	-0.180222129	-0.02646525	 0.075022
H	 2.9276837573	-2.8679867516	 0.0732537571	 0.112702
H	 3.0044816184	-1.0327048453	 0.0869935428	 0.130146
H	 0.6355243443	-3.9372645381	 1.2931539918	 0.104548
H	-0.7958776764	-2.8910116686	 1.1671427587	 0.116696
H	-0.7244677228	-2.8759824801	-1.239668682	 0.116696
H	 0.7122696992	-3.9211192684	-1.2936396756	 0.104548
