16
gdb 17408	4.58442	1.52727	1.49938	0.6128	64.58	-0.2524	0.0746	0.327	902.3728	0.128972	-383.677388	-383.670195	-383.669251	-383.708722	27.357	
C	-0.0711194896	 1.5212755067	-0.0691080476	-0.415765
C	-0.0394396009	 0.0233178503	 0.0783422103	-0.022865
O	 1.2529351847	-0.6146250446	-0.046674915	-0.297104
C	 0.6008429122	-0.6467706521	 1.2082362151	 0.434678
C	 1.2845399943	-0.1200698823	 2.496812967	-0.348216
C	 0.8961701468	-1.458003505	 3.1537915769	 0.034967
O	-0.5274467781	-1.5748092737	 3.0598535743	-0.24088
C	 0.2604956378	-1.951146633	 1.9188303676	-0.089873
H	 0.7422871455	 1.9867849257	 0.4932150777	 0.127925
H	 0.0299563521	 1.808250127	-1.1209059696	 0.130821
H	-1.0233698331	 1.9180713762	 0.2988325026	 0.127918
H	-0.8365137593	-0.515673053	-0.4368460798	 0.093683
H	 2.3607099183	-0.0076347841	 2.341537962	 0.124669
H	 0.8733015832	 0.7743364111	 2.9702230032	 0.11566
H	 1.3922254755	-1.9972703518	 3.9514727428	 0.111135
H	 0.1383071805	-2.9489245575	 1.5144004027	 0.113246
