18
gdb 73422	2.57602	2.31715	1.57377	2.9604	72.49	-0.2362	0.0655	0.3017	878.2873	0.15013	-401.895341	-401.888699	-401.887754	-401.925928	27.955	
O	-0.1122585634	 1.320844054	 0.0487220204	-0.503128
C	 0.0446272676	-0.0698562553	 0.0101728725	 0.452503
C	 1.0498389615	-0.6724957477	 1.0071198667	-0.287857
C	 1.3391716171	-2.0982563008	 0.4502618261	-0.237795
C	 0.4746535816	-2.1888175283	-0.8211713395	-0.040386
C	-1.0361806806	-2.1299093944	-0.5907016256	-0.051187
C	-1.3130889206	-0.7615294113	-0.0586172753	-0.084897
N	-1.2686890955	-0.991584149	-1.5407377346	-0.171937
C	 0.2549146607	-0.7613097309	-1.3726260158	-0.096686
H	 0.7574864192	 1.7242208815	-0.0468961936	 0.276513
H	 1.9621295758	-0.0628853331	 1.0304851465	 0.086722
H	 0.645712801	-0.6791599079	 2.0234259138	 0.10977
H	 2.4001493222	-2.2201979393	 0.2098029608	 0.100689
H	 1.0818902393	-2.8865483038	 1.1641924031	 0.105115
H	 0.7760153272	-2.9461062811	-1.5457531909	 0.077003
H	-1.7415089285	-2.9486132589	-0.5012350063	 0.093288
H	-2.2253665597	-0.4808611642	 0.4546729872	 0.097264
H	 0.834300535	-0.3134495395	-2.1784255354	 0.075007
