18
gdb 44444	2.96537	1.76701	1.57171	2.7034	73.83	-0.2201	-0.0125	0.2076	912.4602	0.151033	-401.967743	-401.961137	-401.960193	-401.998641	27.269	
O	 0.020862595	 0.0036791812	-0.4074113947	-0.330083
C	 0.0056359962	 1.1600713856	-0.0648769432	 0.397129
C	-1.2821234514	 1.9144670518	 0.2916424996	-0.268448
N	-1.1000457066	 3.3118321192	 0.6850566356	-0.108716
C	-0.0470938693	 4.0867472559	 0.0208181468	-0.028174
C	 0.9590476955	 3.3035257709	-0.8077959151	-0.255587
C	 1.2234847896	 2.0529691127	 0.0722045849	-0.133459
C	 1.2005555834	 2.6172740249	 1.5176348279	-0.255587
C	 0.10117401	 3.665549092	 1.448172206	-0.028168
H	-1.9605300651	 1.8716427308	-0.5684458984	 0.141104
H	-1.7866806046	 1.3781816306	 1.1038283758	 0.141119
H	-0.3201175258	 5.0951411344	-0.2754123854	 0.091666
H	 0.5933911077	 3.0417348873	-1.8069197445	 0.115313
H	 1.8767805253	 3.8885112574	-0.9382650567	 0.112613
H	 2.1289927626	 1.5024719119	-0.1842873974	 0.089674
H	 1.0164773397	 1.839478773	 2.2670597237	 0.115322
H	 2.1576061524	 3.0905367366	 1.7657087459	 0.112618
H	-0.0541152546	 4.3394853539	 2.2853385889	 0.091664
