21
gdb 78225	2.32293	1.48695	1.22553	1.554	78.34	-0.2412	0.0657	0.3069	1139.6278	0.181104	-424.195318	-424.186022	-424.185078	-424.228432	36.689	
C	-0.5576361621	 1.2445937294	 0.2544604613	-0.423972
C	-0.1821902867	-0.2106354121	 0.4655914448	-0.013991
C	 1.0335219367	-0.8989256442	-0.0849843301	-0.128812
C	 0.8180430517	-0.792832909	 1.4336893241	-0.103015
C	 2.1144803718	 0.0078290306	 1.594112773	 0.357891
C	 2.1382137228	 1.3135827513	 2.3726602802	-0.479204
O	 3.0655281765	-0.905807527	 2.1532037124	-0.474606
C	 2.284305359	-0.001428793	 0.0118077479	 0.089004
O	 3.4841522034	-0.5838500015	-0.4174132494	-0.445696
H	 0.3074997377	 1.9006185325	 0.1411510725	 0.123857
H	-1.1569161597	 1.3449957195	-0.6570238493	 0.117857
H	-1.1583750976	 1.6236603943	 1.0885931878	 0.117599
H	-1.0554126658	-0.8605418369	 0.4166178373	 0.091115
H	 0.9802378725	-1.7705204095	-0.7270787734	 0.086376
H	 0.5378098436	-1.5671914024	 2.1391460261	 0.087506
H	 1.930803719	 1.1278811644	 3.431547817	 0.125958
H	 3.1250530182	 1.7890017562	 2.2958350152	 0.111799
H	 1.4013625241	 2.0266869456	 1.9992253086	 0.126977
H	 3.8849892059	-0.4163460389	 2.2907050141	 0.282782
H	 2.2122699769	 0.96973348	-0.487614145	 0.073711
H	 3.665321492	-1.2886695892	 0.2216762749	 0.276865
