15
gdb 47362	2.58803	1.43395	1.21513	3.4507	66.22	-0.2693	-0.0048	0.2646	1047.5438	0.112326	-457.756603	-457.748661	-457.747717	-457.789629	29.297	
O	 0.0695094166	 0.0105569738	 0.5355961742	-0.316448
C	 0.010626535	 1.12186591	 0.0909904471	 0.413078
C	-1.3025730974	 1.8740036877	-0.0836327378	-0.344527
C	-1.2135497778	 3.0487114365	-1.0723601084	-0.093149
O	-0.0156983551	 3.7746480005	-0.7775031335	-0.223858
C	 1.1201509451	 2.9999662033	-0.9738879484	 0.018885
O	 1.1515699815	 1.8013460587	-0.1839089666	-0.229241
C	-1.2801162486	 2.6136162204	-2.4707938414	 0.331354
C	-1.3380554226	 2.2408784527	-3.6117052441	-0.462992
H	-2.0750344982	 1.1560744283	-0.3621152565	 0.151014
H	-1.5570452799	 2.2734218137	 0.9044682057	 0.15062
H	-2.025508936	 3.75682331	-0.8832560162	 0.131268
H	 1.2239825761	 2.7025756627	-2.025561199	 0.12224
H	 1.976183494	 3.5950780935	-0.6538612783	 0.137155
H	-1.3954326927	 1.9172076882	-4.6223477467	 0.214602
