17
gdb 93306	2.08676	1.91726	1.27142	2.6826	69.61	-0.253	0.0053	0.2584	1019.6074	0.137014	-455.124497	-455.116354	-455.11541	-455.157443	30.688	
O	 0.030011834	 1.4918699346	 0.0724483093	-0.424192
C	 0.001058931	 0.0748771117	 0.0179976868	 0.014766
C	 0.5812879714	-0.5881982524	 1.2781998387	-0.119811
O	-0.537218935	-0.7982701388	 2.1608711469	-0.253459
C	-1.7034174949	-0.8507718932	 1.4432332407	 0.381876
N	-2.8417999365	-1.1046178568	 1.9208935678	-0.545323
C	-1.4067795321	-0.5057024715	 0.0146584006	 0.200274
C	-2.4584657277	-0.1040585968	-0.945407671	-0.284058
N	-1.8805195976	-1.4524829856	-1.0219508042	-0.343927
H	-0.5563569216	 1.7815809617	 0.7807463632	 0.291776
H	 0.5707700557	-0.1912798316	-0.876277003	 0.096822
H	 1.0464457273	-1.5547308091	 1.0494911646	 0.118779
H	 1.3031628087	 0.0549268293	 1.7848348837	 0.128895
H	-2.7814745414	-1.3210918562	 2.9167860354	 0.225742
H	-3.4835973327	-0.0763201563	-0.5897614771	 0.151347
H	-2.1907420818	 0.6331677093	-1.6974510779	 0.126442
H	-1.1929819567	-1.4849598781	-1.7731460446	 0.234055
