21
gdb 121568	6.78204	0.38693	0.37879	1.2949	86.97	-0.2424	0.0413	0.2837	2868.7618	0.179248	-424.177322	-424.165767	-424.164823	-424.217081	38.407	
C	-0.2334636297	 1.3298010449	-0.5329874826	-0.217318
O	-0.2192593294	-0.0778512898	-0.5166869193	-0.227617
C	-1.0541233365	-0.6042985976	 0.4984468976	-0.203345
C	-1.0150012145	-2.0597910155	 0.4807098218	 0.056281
C	-0.9922781937	-3.2631471397	 0.4888540467	 0.095851
C	-0.9822829772	-4.7209543139	 0.476669751	-0.362299
C	-2.2424667002	-5.3317134277	-0.1648954748	-0.156358
C	-2.2038165215	-6.8541114175	-0.1714105784	-0.074114
O	-3.4035172823	-7.3158964837	-0.7706566917	-0.421538
H	 0.430756799	 1.6509093686	-1.3384535688	 0.12974
H	-1.2431009921	 1.7284684906	-0.7236059462	 0.10351
H	 0.1274333058	 1.7555860598	 0.4173702794	 0.103018
H	-0.7329314594	-0.23154498	 1.4874300141	 0.111029
H	-2.0925363207	-0.2553459347	 0.3570896855	 0.111948
H	-0.089943246	-5.0679330405	-0.0620722617	 0.131574
H	-0.8747100381	-5.0934436622	 1.5046608515	 0.126869
H	-3.1332520074	-4.9999536963	 0.3783745285	 0.117236
H	-2.3456730008	-4.9716996071	-1.1934914165	 0.120591
H	-1.318124004	-7.201409711	-0.7294761563	 0.085106
H	-2.1026252259	-7.2285745536	 0.8612412303	 0.083836
H	-3.3832232253	-8.2770798934	-0.7845252704	 0.286
