14
gdb 12993	2.84012	2.71508	1.62716	4.2085	57.16	-0.2618	-0.0094	0.2524	779.9254	0.106991	-419.701608	-419.69473	-419.693785	-419.732593	25.424	
C	-0.1257089033	 1.5250074494	 0.0224148749	-0.492872
C	 0.131933565	 0.051272352	 0.0175729552	 0.24232
O	-0.6944273629	-0.7996517119	 0.8471781798	-0.278717
C	 0.714235943	-0.7899682964	 1.0692265257	-0.04825
C	 1.3952772658	-1.9571103753	 0.3894925076	-0.107506
O	 1.0625024329	-1.842959856	-1.0057876793	-0.233789
C	 0.4357683263	-0.6654930673	-1.2830601297	 0.443546
O	 0.1962760859	-0.2999839729	-2.3962695366	-0.33991
H	 0.7540750949	 2.0718062514	-0.3297244177	 0.139241
H	-0.9544017728	 1.758703686	-0.6518136602	 0.156195
H	-0.3785114195	 1.8631766337	 1.0295133821	 0.1355
H	 1.0602727575	-0.4106796562	 2.0260537574	 0.117502
H	 2.4844717867	-1.9122963457	 0.4978350624	 0.126856
H	 1.0332107507	-2.9238533408	 0.7502705884	 0.139883
