15
gdb 36070	4.48541	1.19134	1.11312	4.6609	71.28	-0.2298	0.0249	0.2546	1075.3055	0.112791	-379.553968	-379.546927	-379.545983	-379.586047	26.782	
N	-0.1551793149	-1.1322660183	-0.2509394595	-0.300613
C	-0.0847325031	 0.0068582498	-0.0727697299	 0.264728
C	 0.0211382365	 1.4511136532	 0.1630065541	-0.49474
C	 1.4336590428	 1.9497823434	 0.1000978719	 0.359424
C	 1.9408172398	 3.3846071052	-0.1135924566	-0.190548
C	 3.202171608	 3.0339499652	 0.7134465183	-0.045375
C	 2.7161799569	 1.6444801679	 0.9216187195	-0.118506
N	 3.5973672841	 1.9543200216	-0.2596049794	-0.168092
C	 2.3377299729	 2.278394532	-1.0606127762	-0.058342
H	-0.5877139011	 1.9717057827	-0.5862493008	 0.159721
H	-0.4286774769	 1.6745385295	 1.1388739741	 0.160209
H	 1.3726250896	 4.2904124955	-0.2719888797	 0.103505
H	 3.9322473923	 3.6313019366	 1.2455352355	 0.10535
H	 2.9688560349	 0.8839315046	 1.6504315548	 0.110848
H	 2.2311681283	 2.1504826212	-2.1305178561	 0.112432
