18
gdb 75790	2.17708	1.46632	1.12026	4.1948	73.28	-0.2495	-0.0385	0.211	1153.5295	0.144963	-439.123142	-439.113587	-439.112643	-439.157611	34.449	
C	-0.1088364469	 1.5811390006	-0.1043515433	-0.418334
C	 0.0322845424	 0.0707983922	 0.0095827313	-0.21911
C	 1.1277381811	-0.6152983463	-0.8448012503	 0.452291
O	 1.3434466865	-0.7282216499	-2.0196244965	-0.35619
N	 1.7864238987	-1.0717504982	 0.2785333027	-0.356691
C	 0.794454649	-0.5795342577	 1.2394208424	 0.222008
C	 1.3407744847	 0.351656332	 2.3215822699	-0.453458
C	-0.0226733627	-1.6901746789	 1.8726909747	 0.128786
O	 0.1765461748	-2.8633943885	 1.6938758372	-0.249949
H	 0.8486098975	 2.0936449633	 0.0204492911	 0.130658
H	-0.4888996882	 1.8321477154	-1.098985276	 0.146401
H	-0.8117589747	 1.9779238194	 0.6348844749	 0.122902
H	-0.9346092164	-0.414276992	-0.16361176	 0.111486
H	 2.3765843665	-1.8877323027	 0.3690688275	 0.256593
H	 1.9148999965	 1.1665855441	 1.8769620156	 0.138969
H	 0.5284775017	 0.7819876674	 2.9163643301	 0.128854
H	 2.0023342482	-0.1957137825	 3.001183689	 0.133069
H	-0.8426948585	-1.3333245676	 2.5374274298	 0.081715
