14
gdb 126080	4.78756	1.3337	1.08554	3.7918	64.1	-0.2092	-0.0059	0.2032	1049.044	0.101101	-473.781562	-473.774472	-473.773528	-473.813403	26.595	
C	-0.473720735	 1.5180669699	-0.0536686626	-0.400918
C	 0.1945545502	 0.1745265627	 0.0408382929	 0.1949
O	 1.1007412571	-0.0256623063	-1.1149935585	-0.292625
C	 2.1693358546	-0.5764742107	-0.5205496694	 0.446484
C	 2.1331061709	-0.5545568526	 0.8228359175	 0.143131
O	 0.9794404008	 0.0717405083	 1.2515507633	-0.294997
C	 3.3622875137	-1.1125111674	 1.2005526071	-0.102554
N	 4.0722539469	-1.4549763456	 0.1292153585	-0.162817
O	 3.2726302781	-1.0903498003	-1.0127865395	-0.226365
H	 0.2782523179	 2.3102219165	-0.0527722014	 0.147042
H	-1.0640442491	 1.5778147498	-0.9711859094	 0.144423
H	-1.1379757765	 1.6525053144	 0.8037892112	 0.146156
H	-0.5140930092	-0.6651839092	 0.0148303281	 0.112022
H	 3.7915133996	-1.2992084693	 2.1736761222	 0.146119
