18
gdb 110476	4.22563	1.35453	1.33711	2.2906	73.43	-0.2278	0.0751	0.3029	1016.8847	0.148943	-401.846591	-401.839547	-401.838603	-401.878332	27.631	
C	 0.1506782181	 1.2853005124	 0.1987907458	-0.240284
O	-0.288908195	 0.0021544694	-0.1909261447	-0.248848
C	 0.4824199548	-0.5675714788	-1.2048567154	 0.165992
C	 1.890293462	-1.1616397432	-0.8983603932	-0.1412
C	 1.6685726444	-2.3090092527	 0.1033066302	-0.031705
C	 0.4017979511	-2.9027786296	-0.4027199214	-0.028168
C	 0.1010669998	-2.0006277122	-1.6148639111	-0.139586
C	 1.6030875869	-2.2859028346	-1.9481347662	 0.010477
N	 1.719840128	-3.4154382353	-0.9149964705	-0.182105
H	 1.1709220505	 1.2637033137	 0.6098495295	 0.108494
H	 0.1338377553	 1.9935663869	-0.6442974072	 0.105738
H	-0.5325894336	 1.6419837012	 0.9728596972	 0.129698
H	 0.5382550917	 0.0910842033	-2.0886385979	 0.06503
H	 2.8022838775	-0.57113645	-0.8555060294	 0.073708
H	 2.0538325987	-2.4359137023	 1.107025829	 0.095962
H	-0.2691284045	-3.521955377	 0.1787687261	 0.0971
H	-0.7425421235	-2.2268110239	-2.262070469	 0.077172
H	 2.0454241879	-2.3855481574	-2.9356936118	 0.082525
