20
gdb 71826	2.50855	2.05872	1.367	1.5918	83.06	-0.2074	0.0075	0.215	1002.4623	0.171271	-365.985558	-365.977489	-365.976545	-366.017547	32.379	
C	-0.115738052	 1.5314207792	 0.0023565742	-0.495388
C	 0.0480630485	 0.0364132163	-0.0009801086	 0.300538
C	-0.2236201766	-0.7966669263	-1.2491208226	-0.293536
C	-0.6531057353	-1.9388717914	-0.2755511542	-0.059621
C	 0.5617269125	-2.7805846174	 0.022399813	-0.085631
C	 1.3906080017	-2.0415649221	 0.7579571558	-0.140387
C	 0.7136417736	-0.755630964	 1.113307132	 0.256991
C	 1.1089515064	-0.0714342914	 2.4014720592	-0.49646
N	-0.7440729619	-0.9208247779	 0.8674505967	-0.209004
H	 0.6413506914	 1.9906036312	-0.6448233786	 0.121359
H	-1.1006592096	 1.812656486	-0.3866763857	 0.123429
H	-0.0110723609	 1.9668098818	 0.9978259697	 0.124047
H	-1.0840017614	-0.3833354955	-1.7820619875	 0.107806
H	 0.5857324556	-0.9963082893	-1.9581956762	 0.093697
H	-1.5859763347	-2.4612987907	-0.484089204	 0.077019
H	 0.7620570312	-3.7432376547	-0.4309526899	 0.10181
H	 2.3969127162	-2.2886407891	 1.0719485212	 0.100051
H	 2.0832825222	 0.4210606276	 2.3080664992	 0.115571
H	 0.3709260595	 0.6737482174	 2.7026163806	 0.132723
H	 1.1774547437	-0.8098237697	 3.2069983856	 0.124987
