22
gdb 78242	2.10669	1.61159	1.21158	2.2505	81.77	-0.2182	0.0721	0.2903	1156.6803	0.194195	-404.325803	-404.316458	-404.315514	-404.359746	35.595	
C	-0.0375024746	 1.8246271252	 0.7445785119	-0.400103
C	-0.494917213	 0.3634941578	 0.6325512023	 0.006557
C	-0.2450102689	-0.2185440132	-0.7879906739	-0.276367
C	 1.0573002163	-1.0523943039	-0.7125412893	 0.101407
O	 2.2116045978	-0.2981520261	-1.08390306	-0.436647
C	 1.2597273904	-1.3729672216	 0.7618738232	-0.027331
C	 0.3306661571	-0.5155202021	 1.5716703945	-0.024042
N	 0.2045432259	-1.9605103198	 1.5602202696	-0.108034
C	-0.9339794941	-2.7049745678	 1.054948947	-0.321394
H	 1.017406255	 1.9137961956	 0.4655733742	 0.133495
H	-0.6203144456	 2.4680670099	 0.0772509595	 0.107746
H	-0.1559696981	 2.2052499143	 1.7645708258	 0.11119
H	-1.5614903114	 0.3078912885	 0.8839173023	 0.070769
H	-1.0815205003	-0.8378071668	-1.1231303549	 0.103175
H	-0.1326732457	 0.5792985357	-1.5303368658	 0.089823
H	 0.9902727326	-1.960200903	-1.3314632264	 0.064229
H	 2.1376279917	-0.0882548942	-2.0200397327	 0.281049
H	 2.2783870106	-1.6104194299	 1.0583972309	 0.092967
H	 0.6187305573	-0.0854591932	 2.5293609905	 0.082148
H	-1.4322627648	-2.2975049917	 0.164730778	 0.101064
H	-0.6079577599	-3.7238192731	 0.821323286	 0.124135
H	-1.6820697984	-2.7727222008	 1.8517919373	 0.124165
