15
gdb 132754	2.37498	1.81463	1.03522	1.7645	71.76	-0.2314	-0.0201	0.2112	1078.733	0.112822	-461.985095	-461.97725	-461.976306	-462.017831	29.226	
C	-0.0711448137	 1.5290256631	 0.0168081896	-0.49556
C	-0.0141376721	 0.0260024159	 0.0166301569	 0.17412
C	 0.0477934319	-0.6692526837	-1.1784318324	 0.115679
F	 0.0572972824	-0.0068688986	-2.339984995	-0.063267
C	 0.1009111812	-2.0681879123	-1.1823472057	 0.329153
O	 0.1605206655	-2.7117575901	-2.365046555	-0.409722
N	 0.0947057927	-2.7808875215	-0.0674851144	-0.369288
C	 0.0350491245	-2.1221386602	 1.0977758964	-0.009948
C	-0.0199975923	-0.7417352092	 1.1902948781	-0.205871
H	 0.8062507259	 1.9560321386	-0.4797614741	 0.147017
H	-0.9485063398	 1.8894599436	-0.5300822774	 0.147022
H	-0.1151628297	 1.9177076434	 1.0361693711	 0.128804
H	 0.1897282032	-3.6538941442	-2.1473546308	 0.300292
H	 0.0317472991	-2.7381075214	 1.9924987145	 0.112723
H	-0.0672039586	-0.2563461734	 2.1585493882	 0.098846
