18
gdb 104809	2.3743	1.52833	1.23345	1.7661	67.17	-0.2582	0.0139	0.2721	1078.4809	0.147086	-476.224104	-476.215224	-476.214279	-476.25781	32.428	
C	 0.4697367228	 0.0879987047	-1.1733435556	-0.262999
O	-0.1141443226	-0.0454745872	 0.1154815038	-0.28479
C	 0.6361828981	-0.7067586097	 1.0941177807	 0.410264
C	-0.1386072705	-0.5074913148	 2.3957526426	-0.086091
O	-0.443040111	 0.8406280439	 2.644136805	-0.419547
C	 0.9879678961	-2.1858588592	 0.780007487	-0.25238
N	 2.4424272002	-2.2238804664	 0.5842965385	-0.257615
C	 2.8425710273	-1.0516151175	 0.8533991171	 0.106596
O	 1.9501267884	-0.0921982336	 1.2045381728	-0.250289
H	 0.7216392588	-0.884906055	-1.6132594408	 0.126345
H	-0.2805509149	 0.5747610865	-1.7988211886	 0.135646
H	 1.370605454	 0.7088623874	-1.1370680506	 0.133865
H	-1.0438090921	-1.1355484317	 2.3378437598	 0.095256
H	 0.4725420962	-0.8707192388	 3.2271118674	 0.118078
H	-0.7749238647	 1.1952876851	 1.8104031593	 0.291264
H	 0.7080790889	-2.8425893921	 1.6118213978	 0.125113
H	 0.4589799834	-2.5462321499	-0.1072513707	 0.127725
H	 3.8738082416	-0.7165391217	 0.8300696145	 0.143558
