23
gdb 69773	2.98087	1.33287	1.26353	0.0932	88.94	-0.2453	0.0924	0.3377	1166.8614	0.206559	-351.158311	-351.149689	-351.148745	-351.190743	35.202	
C	-0.1332524072	 1.5136448284	 0.04627619	-0.484189
C	 0.0395687448	 0.0140564698	-0.006846819	 0.378758
C	-0.7620593254	-0.8592007102	 0.9330194371	-0.339263
C	 0.7372472821	-0.763071904	 1.0960333188	-0.084105
C	 1.5417063089	-1.8585292327	 0.4652742012	-0.084105
C	 2.6678620634	-1.4201139441	-0.4420847444	-0.339263
C	 1.3308801709	-1.8022956005	-1.0378618267	 0.378758
C	 1.2264251193	-3.0475442635	-1.8863301392	-0.484189
C	 0.3951814809	-0.6280631709	-1.3543371566	-0.368355
H	 0.7620581548	 2.031085729	-0.3190292176	 0.111835
H	-0.9773141898	 1.839986566	-0.5735879428	 0.114975
H	-0.323981519	 1.8573489226	 1.0680702694	 0.112036
H	-1.3814851444	-0.3579819618	 1.6699748175	 0.103096
H	-1.1790370032	-1.7895404616	 0.5579220698	 0.102931
H	 1.1328847873	-0.244356922	 1.9650345418	 0.076956
H	 1.6252437542	-2.8167858201	 0.9707674373	 0.076956
H	 2.9578160978	-0.3732557868	-0.431355482	 0.102931
H	 3.4928066261	-2.1098552607	-0.5895133502	 0.103096
H	 1.8988054908	-3.8330577572	-1.5265433991	 0.112036
H	 0.206541647	-3.4507170411	-1.8783533303	 0.111836
H	 1.4902180034	-2.8416165299	-2.9309246976	 0.114975
H	-0.5027334436	-0.9788806571	-1.8799508687	 0.091148
H	 0.8792130508	 0.1024083083	-2.0159404786	 0.091148
