19
gdb 56323	3.15277	0.8761	0.71085	4.6037	75.12	-0.2315	0.0046	0.2361	1559.7673	0.158337	-456.383652	-456.373469	-456.372525	-456.421066	34.853	
C	-0.6742856026	 1.4630905518	-0.143310617	-0.481365
C	-0.3412819014	-0.0125771727	 0.0208830964	 0.40403
O	 0.7068292951	-0.3875228188	 0.5221378185	-0.384885
N	-1.2898225074	-0.8712339414	-0.4444817843	-0.321621
C	-1.1397957963	-2.3056317354	-0.3125841845	-0.152266
C	-2.4408299947	-3.0159311614	 0.0546581074	-0.088172
O	-3.2563139925	-3.392281325	-1.0806033491	-0.201778
C	-4.0472208101	-2.4852505304	-1.6511045009	 0.144911
N	-4.0601306435	-1.2483243852	-1.3662837776	-0.47444
H	 0.0075963477	 1.9001268316	-0.8789778499	 0.146365
H	-1.7029526606	 1.6449306921	-0.4647445953	 0.11545
H	-0.4956745937	 1.9702096815	 0.8077385628	 0.146399
H	-2.1827728788	-0.5423351259	-0.7909705486	 0.266421
H	-0.7385754869	-2.7633267986	-1.2281386693	 0.114616
H	-0.40042845	-2.4753161844	 0.4761513444	 0.145743
H	-2.2125752258	-3.975866529	 0.5218806369	 0.127398
H	-3.0381680348	-2.4078976416	 0.7404985682	 0.134186
H	-4.6767335336	-2.97939601	-2.3968022129	 0.121351
H	-4.75842606	-0.7611389574	-1.9218134653	 0.237656
