14
gdb 18003	4.26803	1.73939	1.48125	3.3381	57.32	-0.2536	-0.0391	0.2144	836.1679	0.106234	-419.627027	-419.620211	-419.619266	-419.658737	24.387	
O	-0.6628955852	 0.6996895445	 0.2993089643	-0.238609
C	 0.3867388443	 0.695507184	-0.2873363321	 0.151406
C	 1.4678465333	 1.7334968548	-0.0517775272	 0.016153
O	 2.7796688514	 1.3233834526	-0.5111805002	-0.309903
C	 2.9084937176	 2.4766883004	-1.3663255815	 0.07121
C	 2.3619594061	 2.2423100766	-2.7810611076	-0.09391
O	 1.0181627896	 2.5984829955	-2.3499143646	-0.288942
C	 1.476623668	 2.9343778689	-1.0299364128	 0.048
H	 0.6443372812	-0.0646080397	-1.0549205854	 0.093794
H	 1.4795162745	 2.0246975462	 1.0055132502	 0.110503
H	 3.841550913	 3.0203618605	-1.2165867729	 0.100593
H	 2.7277682754	 2.9423984689	-3.5418031488	 0.113891
H	 2.4339318649	 1.213378508	-3.1470099348	 0.122365
H	 1.1315659757	 3.9084857688	-0.6830172566	 0.10345
