16
gdb 130294	3.26958	1.51857	1.05444	3.083	71.45	-0.222	0.0081	0.2301	1082.9206	0.127613	-434.044729	-434.037276	-434.036332	-434.076662	28.518	
N	-0.028089874	 1.4088924531	-0.133012924	-0.59105
C	 0.0391703788	 0.0303763669	-0.0227936987	 0.237043
N	-1.0660602597	-0.6983465003	-0.0238100117	-0.233215
O	-0.640199322	-2.0536175937	 0.0062544082	-0.240139
C	 0.6868245612	-2.0398826203	 0.0413395195	 0.394513
C	 1.199160174	-0.7945027735	 0.0271095089	 0.142047
C	 2.6938595586	-0.8501795498	 0.0346140756	-0.305843
N	 2.9442511098	-2.30200513	 0.2790351739	-0.318243
C	 1.7187697107	-3.1144073497	 0.0657422709	-0.287673
H	 0.6650139138	 1.9011697705	 0.4124267317	 0.255163
H	-0.9589873106	 1.7682514952	 0.0344508654	 0.260904
H	 3.1254078142	-0.5003374112	-0.9167126398	 0.105868
H	 3.1558238157	-0.2528398899	 0.8326361005	 0.110763
H	 3.7122074636	-2.6414918139	-0.2832280287	 0.225623
H	 1.5748593136	-3.8341536573	 0.8822507264	 0.128797
H	 1.7263850024	-3.6876359362	-0.875135858	 0.115442
