16
gdb 65009	1.93035	1.72158	1.0597	3.1974	74.21	-0.2746	0.005	0.2796	1130.0168	0.121704	-400.702477	-400.693385	-400.692441	-400.736305	33.838	
O	-0.1978436917	 1.3188000589	-0.3612318599	-0.460394
C	-0.0187826629	-0.0151678746	 0.000988384	 0.417978
C	-0.3669481191	-0.4425379804	 1.3993834467	-0.319127
C	-1.273549501	-0.7908904487	 0.2293684697	-0.32064
C	 1.1816788993	-0.6396171802	-0.7499800389	-0.374795
C	 2.4128795939	 0.0913870731	-0.4327118605	 0.313206
C	 3.385345738	 0.7395454564	-0.1569274062	-0.430669
C	 1.3370555456	-2.0758785423	-0.4845087338	 0.295442
N	 1.4332850039	-3.2074660721	-0.2741266894	-0.329889
H	 0.561048617	 1.8168028797	-0.0311339458	 0.290643
H	 0.1973345726	-1.244955884	 1.8611665615	 0.139292
H	-0.6961099323	 0.3407292364	 2.0721186123	 0.123422
H	-2.1965531969	-0.2334759583	 0.1228912986	 0.133453
H	-1.3172536467	-1.8260134566	-0.089032478	 0.140449
H	 0.9723716055	-0.5252235853	-1.8226604759	 0.166793
H	 4.2626741346	 1.2912216481	 0.0780377954	 0.214837
