21
gdb 103880	2.93204	0.95179	0.81929	4.882	84.22	-0.2466	0.026	0.2726	1471.6919	0.180796	-383.258689	-383.248563	-383.247619	-383.29401	36.947	
C	-0.1309807938	 1.4059744196	 0.2509842656	-0.390006
C	 0.2294719513	-0.081148392	 0.1262889027	-0.248554
C	 0.7589137746	-0.5009132624	-1.2409102928	 0.335658
C	 2.0372366236	 0.1881350951	-1.6817843484	-0.445479
C	 0.5145358008	-1.9056624843	-1.6888326538	-0.296277
N	-0.1490605205	-0.7928085773	-2.3684133962	-0.112299
C	-1.591915052	-0.6741165054	-2.2138630436	-0.296026
C	-2.2772759514	-1.4909134185	-3.2239285875	 0.284881
N	-2.829162365	-2.1401696646	-4.0034415383	-0.30166
H	 0.739638629	 2.0483383456	 0.0924470792	 0.128076
H	-0.8951546766	 1.7000259903	-0.4758418285	 0.119593
H	-0.5223257032	 1.6222927492	 1.2494075689	 0.120992
H	 1.0022977989	-0.3273781747	 0.865461126	 0.10831
H	-0.6366589076	-0.6925460489	 0.3990560914	 0.098706
H	 2.8341574044	 0.0295720638	-0.9465079805	 0.116158
H	 2.3674724371	-0.2054503238	-2.6453668835	 0.131129
H	 1.8914697279	 1.266782104	-1.7952068109	 0.12392
H	 1.2532513274	-2.4430188452	-2.2776191804	 0.121561
H	-0.0918917256	-2.5376378865	-1.0404722569	 0.11154
H	-1.9813965096	-0.9774610618	-1.2288740037	 0.133809
H	-1.8816165196	 0.3720045379	-2.3664218088	 0.155968
