19
gdb 115755	3.4724	0.9316	0.78392	5.4684	77.24	-0.2366	0.0406	0.2772	1454.5617	0.158966	-419.185635	-419.176173	-419.175229	-419.220856	33.383	
C	-0.2730032264	 1.3719601103	 0.1226809259	-0.239208
O	 0.3235146823	 0.110934846	-0.0937701117	-0.240999
C	 0.7868986824	-0.4998932058	 1.0802677165	 0.111367
C	-0.2834551432	-1.2526418243	 1.9221296665	-0.198127
N	 0.1543366899	-2.522691096	 1.2998625476	-0.307241
C	 1.3900446624	-1.900318821	 0.7873859806	-0.00261
C	 1.7126845625	-2.2310275871	-0.6761797909	-0.326446
C	 2.099032076	-3.6310510041	-0.8281767187	 0.252629
N	 2.4097974497	-4.7406768365	-0.9180699369	-0.31285
H	 0.433417669	 2.0757833557	 0.5893453135	 0.109386
H	-0.5696323435	 1.7601342448	-0.8540163363	 0.134952
H	-1.1651125654	 1.3018364286	 0.7614108468	 0.114271
H	 1.4336188002	 0.1883456664	 1.640992012	 0.072615
H	-0.099854074	-1.1729074935	 3.0019651131	 0.096076
H	-1.3280986648	-0.9930888528	 1.7185455426	 0.110935
H	 0.2803763984	-3.3098700168	 1.9246904723	 0.229133
H	 2.279259432	-2.0835376242	 1.4062847963	 0.082361
H	 0.8335779728	-2.0234263629	-1.2903944786	 0.166773
H	 2.52800124	-1.5939693967	-1.0368589605	 0.146983
