12
gdb 131291	2.71154	1.48279	0.95859	5.6794	59.89	-0.2495	-0.0458	0.2037	1096.6715	0.078378	-505.985569	-505.978154	-505.97721	-506.017665	27.015	
O	 0.0703261513	 1.2716343068	-0.0480633803	-0.392687
C	 0.0765100679	-0.0596254951	-0.0413506533	 0.461157
N	 0.0062661785	-0.7531412759	-1.1479323707	-0.299887
N	 0.044306932	-2.0520148054	-0.6567525334	-0.098728
C	-0.0042970366	-3.1965127467	-1.4647372694	 0.180697
O	-0.0832920566	-3.1783562071	-2.6582525906	-0.255987
C	 0.1343199045	-1.9990952067	 0.707099848	 0.500586
O	 0.1869638031	-3.1128290661	 1.4308431223	-0.408047
N	 0.1577378167	-0.7694783539	 1.1409511465	-0.458342
H	 0.129707499	 1.5643425699	 0.8692593784	 0.318015
H	 0.0407392267	-4.1066925818	-0.8440191231	 0.122839
H	 0.2473358534	-2.8530290079	 2.3599664956	 0.330384
