17
gdb 87887	3.23885	1.34708	1.31708	2.6047	68.19	-0.2436	0.0438	0.2873	1033.0118	0.135043	-458.884891	-458.877166	-458.876222	-458.917281	29.732	
O	-0.3534486222	 1.3406169283	-0.2152201336	-0.437911
C	-0.1146473842	-0.0304596483	-0.1650898032	 0.070549
C	-0.2284611081	-0.7628014732	 1.1671333677	-0.399192
C	-1.2863007692	-0.9077521136	 0.1158286492	 0.402689
O	-2.5725750014	-0.2689702895	 0.2751439089	-0.33817
C	-3.2219805995	-1.359165128	-0.4179851344	 0.07077
C	-3.2263380576	-1.2196691563	-1.9491722792	-0.099336
O	-1.9520886355	-1.9077964748	-2.0548334571	-0.284992
C	-1.8822562482	-2.0914351812	-0.6296178966	-0.065947
H	-1.313768892	 1.4537098435	-0.2335144143	 0.294859
H	 0.6365840067	-0.3641061333	-0.8759278814	 0.110457
H	 0.427196325	-1.6072755513	 1.3564195635	 0.119137
H	-0.4856414596	-0.1628772519	 2.034005173	 0.129903
H	-4.1088630859	-1.7162638677	 0.1045178885	 0.102341
H	-4.0188098088	-1.7758589916	-2.4641966726	 0.111543
H	-3.1887903641	-0.1897571716	-2.3198602484	 0.117682
H	-1.6139041055	-3.1066029694	-0.3347501	 0.095617
