18
gdb 8413	3.54989	1.61825	1.44159	3.0717	68.2	-0.2387	0.0644	0.3031	942.0588	0.152133	-384.898306	-384.890043	-384.889098	-384.930682	30.957	
C	-0.0407312557	 1.5449854684	-0.0635783789	-0.449499
C	 0.0132640719	 0.0359691952	 0.0000582751	 0.340418
O	-1.15201127	-0.6099601283	-0.4461720241	-0.461868
C	 1.3278627111	-0.6929620622	-0.2022733277	-0.425552
C	 0.6643013518	-0.6608483249	 1.1488601825	 0.264856
C	 1.1540929857	-0.1010898127	 2.4797683667	-0.141809
O	 0.5453547825	-1.2009620035	 3.1886686845	-0.278388
C	 0.0911165954	-1.8161748022	 1.958887417	-0.13056
H	 0.8688215227	 1.9948295833	 0.3451499995	 0.120032
H	-0.1409629336	 1.8872807019	-1.1008562927	 0.111139
H	-0.8987247202	 1.9231870438	 0.5014309909	 0.130353
H	-1.2188844814	-0.4795933954	-1.3986812079	 0.28279
H	 1.2964175974	-1.632434414	-0.7457995795	 0.114714
H	 2.2313227974	-0.1077236625	-0.3487267291	 0.110529
H	 2.2444710208	-0.0794561762	 2.6129948769	 0.097913
H	 0.7368183562	 0.8678980791	 2.784671926	 0.099886
H	-0.9986093553	-1.9249879143	 1.9246428076	 0.117313
H	 0.5607925331	-2.7946734956	 1.7936794732	 0.097733
