16
gdb 8738	3.77086	1.32872	1.16864	3.4107	70.62	-0.2579	0.0171	0.275	1042.6073	0.129022	-342.758421	-342.749375	-342.748431	-342.791824	32.62	
C	 0.0915771843	 1.5839835658	-0.0550362933	-0.400476
C	 0.0101924449	 0.0502833265	 0.0260613755	-0.145165
C	 0.7042714944	-0.4474249002	 1.2161240079	 0.259523
N	 1.2122087941	-0.8421497056	 2.1769931956	-0.324244
C	-1.4688934122	-0.5019842915	 0.0453835681	-0.173261
N	-2.2794410897	-0.1073949789	 1.193206974	-0.505229
C	-2.1387932063	-0.1350646788	-1.2022535678	 0.347235
C	-2.6636387012	 0.1836693991	-2.2349002276	-0.435798
H	 1.1322288882	 1.9133081989	-0.0921898003	 0.140616
H	-0.4205544633	 1.9294017085	-0.955758023	 0.144106
H	-0.3762088826	 2.0476976292	 0.8176204368	 0.129367
H	 0.5047561344	-0.3812353495	-0.8523367827	 0.136841
H	-1.3847923324	-1.5957432315	 0.0784525431	 0.133974
H	-1.8043516586	-0.3561431218	 2.0563315592	 0.249164
H	-2.43692582	 0.8949320134	 1.1978341257	 0.237955
H	-3.146128704	 0.4475091966	-3.1438459415	 0.205393
