19
gdb 116099	2.84345	1.1516	0.86179	3.8762	72.49	-0.2559	0.0105	0.2664	1330.0146	0.159317	-460.196629	-460.187731	-460.186787	-460.230923	32.21	
C	 0.0663680663	 1.3776545838	 0.0942614065	-0.246229
O	 0.0171892469	-0.0203056107	-0.096459464	-0.24641
C	-1.2847143707	-0.5706486205	-0.1074413375	 0.119726
C	-1.1968013813	-1.9851614215	-0.6593150777	-0.243315
C	-2.5884319158	-2.5967697911	-0.7002029829	-0.075848
O	-3.2799538607	-2.5646416763	 0.5599247421	-0.226471
C	-3.1186494071	-1.5505001884	 1.4448040157	 0.405733
O	-3.8892793148	-1.4446505491	 2.3586703165	-0.319951
C	-1.9039087582	-0.6385368652	 1.2944300651	-0.358993
H	 1.1108208221	 1.6777650327	-0.0168901892	 0.133154
H	-0.5373216912	 1.9093661247	-0.6575151348	 0.107902
H	-0.278735851	 1.6810385962	 1.0927673802	 0.113972
H	-1.9321293449	 0.0345115053	-0.7666562085	 0.071082
H	-0.7735316775	-1.9779163756	-1.6682710904	 0.117058
H	-0.5316196081	-2.5803859507	-0.0234561558	 0.120177
H	-3.2131082752	-2.0773197387	-1.4388961867	 0.116555
H	-2.5517391966	-3.6521898462	-0.9788557779	 0.128802
H	-1.1398069757	-1.034506764	 1.9764558677	 0.147329
H	-2.1974641066	 0.3386209554	 1.6822279515	 0.13573
