23
gdb 92885	2.36308	1.42161	1.13025	0.96	88.06	-0.2408	0.0255	0.2663	1236.0463	0.204587	-388.317188	-388.307594	-388.30665	-388.350743	37.632	
C	 0.0325593524	 1.5316315474	 0.0684346944	-0.402747
C	 0.0307820859	 0.015179384	-0.058430652	 0.136948
C	 0.8439179156	-0.4950666795	-1.253041229	-0.257584
C	 1.0584964132	-1.979572888	-1.1356582193	-0.104048
C	 0.8902095636	-2.6206263712	 0.0174293364	-0.061699
C	 0.5343826834	-1.9212929816	 1.3092608535	 0.324109
C	-0.8546948369	-2.3671758411	 1.8085728565	-0.409024
C	 1.5976566313	-2.2218922602	 2.3750899289	-0.406403
O	 0.5661564071	-0.4970328007	 1.156877358	-0.309356
H	 1.0524936045	 1.8973544018	 0.2234089959	 0.121789
H	-0.3697245785	 1.9946275721	-0.83800598	 0.110463
H	-0.5759339757	 1.8454892634	 0.9207569056	 0.11981
H	-1.0078158801	-0.3331821663	-0.181569852	 0.064236
H	 0.3182009844	-0.2581067681	-2.1868863157	 0.100309
H	 1.8082018515	 0.0313708404	-1.3006280234	 0.108236
H	 1.3494577853	-2.525980862	-2.0292357617	 0.087475
H	 1.0208455101	-3.698159953	 0.0815061237	 0.084854
H	-0.8827593406	-3.4502764368	 1.9653836254	 0.11055
H	-1.0854378427	-1.8730216615	 2.7570529145	 0.117502
H	-1.6355861383	-2.1173546124	 1.0850963295	 0.116713
H	 2.5825470785	-1.9024908182	 2.0255787223	 0.120881
H	 1.3629568287	-1.6792029114	 3.295544969	 0.11929
H	 1.6334247275	-3.2919880469	 2.6004411495	 0.107696
