23
gdb 72601	2.03333	1.82867	1.57414	0.1234	88.63	-0.2453	0.0911	0.3364	1059.7038	0.205811	-351.129615	-351.120878	-351.119934	-351.162082	35.428	
C	-0.1237884033	 1.5756056904	-0.104725881	-0.490203
C	-0.0285461895	 0.0684013023	 0.0154950739	 0.31106
C	 0.9002540043	-0.6658241464	-0.9919648467	-0.274204
C	 1.5953827474	-1.4334354855	 0.1648812777	-0.274208
C	 0.6918159783	-0.727072644	 1.2143372899	 0.311057
C	 1.3821432612	-0.087366983	 2.4015231967	-0.490203
C	-0.6079749652	-1.4974046177	 1.4334277253	-0.088019
C	-1.7530400599	-0.5649958677	 1.7112361837	-0.322135
C	-1.2944664981	-0.7393282742	 0.2909987629	-0.088029
H	 0.8684119456	 2.0411432742	-0.0882195599	 0.109729
H	-0.6012354378	 1.8570756045	-1.0519724498	 0.113937
H	-0.7144692283	 2.0154302001	 0.7054787445	 0.112297
H	 0.3834102713	-1.2768398275	-1.7376753773	 0.092123
H	 1.5740063193	 0.0131916294	-1.522046645	 0.092873
H	 1.5127122076	-2.5239321379	 0.1417865179	 0.092122
H	 2.653279493	-1.1786457546	 0.2740897195	 0.092872
H	 2.1718183458	 0.6018167929	 2.0807451899	 0.109728
H	 0.6824452627	 0.4730493802	 3.0301231458	 0.112298
H	 1.8524425492	-0.8527073844	 3.0320227173	 0.113938
H	-0.6650968802	-2.5556547541	 1.6681938789	 0.075859
H	-2.693296811	-1.0495080309	 1.9547544501	 0.108362
H	-1.5948963455	 0.3727646549	 2.2384751235	 0.102888
H	-1.9538065865	-1.1325739811	-0.4763989077	 0.075859
