16
gdb 36213	3.91098	1.11592	1.03624	1.321	73.99	-0.2447	0.0106	0.2553	1181.9166	0.123976	-400.710351	-400.702522	-400.701578	-400.743412	29.677	
C	-0.4006438197	-0.5528696076	-1.1188564254	-0.454
C	-0.0518884758	 0.2039729875	-0.254492035	 0.307926
C	 0.3742530594	 1.1184389165	 0.8013393761	-0.429109
C	 1.6209163654	 1.8790517911	 0.4500635317	 0.399375
N	 2.7500783963	 1.781695209	 1.0324167322	-0.302551
C	 3.6451913941	 2.6673925031	 0.3252320698	-0.02122
C	 3.8792083447	 2.3377728733	-1.1366483458	-0.318411
C	 2.7993085468	 3.3083958088	-0.7630173607	 0.058873
O	 1.5010500211	 2.7637241156	-0.5816999738	-0.238072
H	-0.7107791926	-1.2206521372	-1.8839620359	 0.202088
H	-0.4276271307	 1.8386589314	 1.0092921513	 0.153428
H	 0.5787474942	 0.5712253482	 1.7256342333	 0.165304
H	 4.4077163675	 3.1665567186	 0.909951109	 0.104714
H	 4.7622583787	 2.7666600249	-1.5973558777	 0.123142
H	 3.5990619791	 1.3514501174	-1.4914853118	 0.133943
H	 2.7849614714	 4.3429335494	-1.0790334073	 0.114567
