22
gdb 123113	5.60775	0.48886	0.47736	3.0756	82.09	-0.2421	0.0371	0.2792	2354.7703	0.191681	-441.512334	-441.500777	-441.499833	-441.551871	38.614	
C	-0.2850474382	 1.2541633703	 0.1320303914	-0.22875
O	-0.1818933724	-0.147639393	 0.1893194944	-0.230891
C	 0.8120309777	-0.5887742491	 1.0870230176	-0.045999
C	 0.8234038991	-2.1116613279	 1.084441794	-0.202956
C	 1.9121309389	-2.6848319108	 1.9982516777	-0.16498
N	 1.9345550827	-4.1367896111	 2.0030807323	-0.314253
C	 1.5806967835	-4.8778269994	 3.0965358828	 0.40623
C	 1.6055928235	-6.3851348143	 2.8895546634	-0.481344
O	 1.2659086213	-4.3786296171	 4.1619492582	-0.372462
H	 0.6544479494	 1.7209579601	-0.2056072488	 0.101773
H	-1.0751187848	 1.4959129215	-0.5831436441	 0.126848
H	-0.5475555922	 1.6861956534	 1.1109465113	 0.104816
H	 1.8004631936	-0.1943077551	 0.7892153534	 0.081556
H	 0.6108319033	-0.2083820372	 2.1037467158	 0.091952
H	-0.1562272573	-2.4802587482	 1.4063625777	 0.120997
H	 0.9726901373	-2.4563726071	 0.0534551893	 0.09863
H	 2.8970654001	-2.304204636	 1.6961631317	 0.102845
H	 1.7438996587	-2.3870853521	 3.0361403527	 0.151558
H	 2.1500168173	-4.6144467651	 1.143741595	 0.241076
H	 2.0073155971	-6.6926823403	 1.9203228543	 0.108411
H	 2.2027719175	-6.8373339277	 3.6848562913	 0.152705
H	 0.586590784	-6.7702669939	 2.9876395986	 0.15224
