15
gdb 49945	2.23591	1.26352	0.97897	2.6626	80.82	-0.247	-0.0362	0.2107	1223.0251	0.108342	-383.412695	-383.403539	-383.402595	-383.44667	33.623	
O	-0.0013215588	-0.0355090472	-0.3395337714	-0.259307
C	 0.0401543362	 1.099310043	 0.0643258636	 0.162592
C	 1.2742631028	 1.927474065	 0.0547217453	-0.140442
C	 1.1727908272	 3.4103906461	-0.1819804892	-0.3168
C	 1.5299291024	 2.9376800078	 1.2160845774	-0.019125
C	 0.5386301724	 3.0730914502	 2.2559860722	 0.259113
C	-0.2776382854	 3.2029701259	 3.1281460815	-0.442532
C	 2.901756098	 3.0605135109	 1.6404435856	 0.259074
C	 4.0489858976	 3.1603956073	 1.9833952923	-0.427245
H	-0.8608132898	 1.6099547052	 0.4663613944	 0.089868
H	 2.1588224328	 1.4153637068	-0.3042801209	 0.132571
H	 1.9570967834	 3.8818375138	-0.7607391843	 0.14952
H	 0.1820797659	 3.8344408477	-0.3025426511	 0.144561
H	-0.9947952489	 3.3117145226	 3.9040503492	 0.204527
H	 5.0600136442	 3.2498281548	 2.2960779656	 0.203625
