21
gdb 78683	3.91012	1.17748	1.07935	1.6679	82.48	-0.2505	0.0719	0.3224	1203.8824	0.181525	-387.017604	-387.009091	-387.008146	-387.049968	34.265	
C	-0.1298924199	 1.5517971	 0.0264165658	-0.456864
C	-0.0645839081	 0.0257775513	 0.0006194047	 0.321354
C	-1.4208334106	-0.5634181528	-0.3829193499	-0.456864
C	 1.1918880771	-0.6143352272	-0.6541312213	-0.078244
C	 2.1095389727	-0.281535631	 0.5753404948	-0.108006
C	 2.61377219	-1.7335936847	 0.6451859481	 0.134513
O	 3.0926539582	-2.2605299389	 1.8576803373	-0.451055
C	 1.130572597	-1.8855861214	 0.2648913935	-0.107996
C	 0.698113161	-0.6649223692	 1.1642990676	-0.106337
H	 0.8253351406	 2.0053701164	 0.3034458433	 0.113686
H	-0.4140422947	 1.9453770899	-0.9565649904	 0.112797
H	-0.8841906694	 1.8965409742	 0.7435551564	 0.111712
H	-1.7311182133	-0.2119562254	-1.3739267011	 0.112794
H	-1.409285862	-1.6562525493	-0.4055768771	 0.113687
H	-2.1950911179	-0.2518941462	 0.3281227693	 0.111715
H	 1.503171185	-0.601638404	-1.7013080688	 0.065087
H	 2.6596407894	 0.6436284597	 0.7481569554	 0.073428
H	 3.3399828703	-2.0289876328	-0.1185797892	 0.081402
H	 2.4741733412	-2.0179667476	 2.5554528525	 0.280122
H	 0.5601262463	-2.7964532021	 0.0823613271	 0.073429
H	 0.4181481671	-0.6986002789	 2.2211156917	 0.059639
