19
gdb 1098	4.31774	1.54329	1.53705	0.3832	64.38	-0.254	0.0761	0.3301	932.5617	0.168052	-348.050463	-348.041129	-348.040185	-348.083789	33.192	
C	 0.0013230098	 1.4049098602	-0.0230237993	-0.223317
O	-0.0001702816	-0.001484436	 0.0042498241	-0.236838
C	 0.6385819081	-0.5738411239	-1.1151763856	-0.053932
C	 0.588654655	-2.1021472945	-0.9974862238	 0.322001
C	 1.3429901723	-2.5718990457	 0.2518420442	-0.41115
C	-0.8629003185	-2.595585022	-0.993228789	-0.411245
O	 1.2622963962	-2.5406801642	-2.1825204535	-0.471348
H	 1.0249175251	 1.8119901973	-0.029055976	 0.104957
H	-0.5263274727	 1.7966487648	-0.9071196674	 0.104953
H	-0.5118136246	 1.7515870605	 0.8773967768	 0.125332
H	 0.1430971841	-0.2677670925	-2.0508095342	 0.090566
H	 1.6905200413	-0.2509510784	-1.1765076474	 0.090551
H	 0.905000328	-2.1397147309	 1.1549989315	 0.132829
H	 1.3040826449	-3.663969796	 0.339151106	 0.097761
H	 2.392891054	-2.2699963071	 0.1924443797	 0.116242
H	-1.3591765089	-2.3107466254	-1.9257272991	 0.116244
H	-0.8998535569	-3.6875733137	-0.9040957031	 0.097761
H	-1.4168564953	-2.1640705854	-0.1558405537	 0.132892
H	 1.2671542797	-3.503306467	-2.1747044105	 0.275741
