13
gdb 46833	2.72274	1.67992	1.20005	5.7462	63.52	-0.2788	-0.0352	0.2437	976.1604	0.090679	-452.760894	-452.753783	-452.752838	-452.792692	26.218	
O	-0.0198423115	 0.0116631744	 0.2387591643	-0.318779
C	-0.0041824683	 1.1816759344	 0.0162846842	 0.461513
O	-1.1204737438	 1.9292513843	-0.1860706916	-0.229682
C	-0.8256857881	 3.2597690662	-0.6460739787	-0.077667
C	 0.6726111595	 3.4375527942	-0.4940395973	-0.121881
N	 1.102402906	 3.2168170716	 0.8838971933	-0.342605
C	 1.2004764579	 2.0983046929	-0.1060818175	 0.051515
C	 2.4752539402	 1.582869495	-0.5020120481	 0.212842
N	 3.5154485958	 1.1852798009	-0.811982421	-0.324208
H	-1.137034219	 3.3446009314	-1.6918509252	 0.137289
H	-1.3921394597	 3.9645163526	-0.0325474271	 0.147545
H	 1.2220559601	 4.1018912099	-1.1503839463	 0.139745
H	 2.036760701	 3.599460742	 1.0235471812	 0.264372
