15
gdb 125193	3.50575	1.6337	1.12218	5.8021	74.24	-0.2077	0.0004	0.2081	1020.9514	0.11625	-413.019648	-413.012231	-413.011287	-413.052338	27.517	
C	-0.0060845186	 1.5530077254	 0.1331666849	-0.513593
C	-0.0154801984	 0.0750450231	-0.0745467873	 0.203841
C	 0.0161447953	-0.7509458653	-1.1793493384	 0.224464
N	 0.055574109	-0.8839359582	-2.5543303697	-0.445395
C	 0.05748313	-2.2491776839	-2.7922647748	 0.010016
N	 0.0233909643	-2.9985954931	-1.7216483871	-0.331827
C	-0.0030997029	-2.0781841818	-0.6895953548	 0.367476
N	-0.044010391	-2.132076498	 0.6421160964	-0.344008
N	-0.0489212158	-0.8193792441	 0.9702165878	-0.245015
H	 0.9483819486	 2.0040513372	-0.1627137218	 0.140854
H	-0.7953140837	 2.0452012533	-0.4452621185	 0.13915
H	-0.1722058105	 1.7995802059	 1.1863065214	 0.130204
H	 0.0816491133	-0.1647980036	-3.2547923228	 0.263833
H	 0.0856887901	-2.6246814904	-3.8061548699	 0.130731
H	-0.0794954898	-0.5744085365	 1.9460852646	 0.269268
