16
gdb 44791	2.50907	2.15993	1.59699	5.2649	69.02	-0.2357	0.0033	0.239	869.1423	0.126189	-437.793327	-437.786906	-437.785962	-437.823876	26.553	
O	 0.0259439136	 0.1109484883	 0.1954320342	-0.341504
C	 0.0335489214	 1.2953913454	 0.0814573121	 0.449609
O	-1.0873054029	 2.0947568644	 0.154052555	-0.230046
C	-0.5121000108	 3.4022452446	-0.0313477699	 0.041255
C	 0.7390957475	 3.359978892	 0.9602644604	-0.325804
C	 1.166733515	 2.3085900781	-0.1541534685	 0.108166
N	 2.163082919	 1.7536036758	-1.1387164605	-0.383982
C	 1.162726405	 2.2265259869	-2.2136699406	-0.251035
C	 0.5629694934	 3.2353194678	-1.1688784471	-0.015571
H	-1.2910622756	 4.1606031267	 0.0125288895	 0.107536
H	 1.3390932369	 4.2697041205	 0.9565872702	 0.12375
H	 0.5357328347	 3.0143983841	 1.9766556661	 0.130618
H	 2.9736965073	 2.3703966518	-1.1822422246	 0.225316
H	 1.6189185804	 2.6568001182	-3.1074048735	 0.116517
H	 0.5177895913	 1.3895913132	-2.4860733228	 0.154026
H	 1.1426101638	 4.1606716622	-1.2253590099	 0.091148
