12
gdb 129016	4.08906	1.80808	1.25372	3.9345	72.43	-0.2479	-0.0937	0.1543	880.7669	0.081527	-427.815995	-427.810364	-427.80942	-427.845944	22.32	
N	 0.0279691785	 1.2412340982	 0.0090801488	-0.064658
N	 1.0959776412	 2.0495891744	 0.0030722222	-0.093983
N	 2.2819223835	 1.512295033	-0.0115974992	-0.255842
C	 2.3464652981	 0.1720860907	-0.0197008007	 0.380514
N	 3.4380111505	-0.5748035359	-0.0345889346	-0.313432
C	 2.954560547	-1.8610577393	-0.0370119436	-0.00801
C	 1.5652600497	-1.9829942473	-0.0240124348	-0.28103
C	 1.1217291783	-0.6530641111	-0.0122363823	 0.357558
N	-0.0665398156	-0.0772847612	 0.002663266	-0.282106
H	-0.8495488377	 1.7442952933	 0.0205177302	 0.309806
H	 3.6601215247	-2.6835975088	-0.0485380398	 0.126902
H	 0.9755270917	-2.885410056	-0.0232277923	 0.12428
