16
gdb 2189	3.83395	2.55504	1.75926	2.7873	61.81	-0.2579	0.0309	0.2888	750.7001	0.136421	-325.788368	-325.781013	-325.780069	-325.819646	26.797	
C	 0.1737048649	 1.4855147757	-0.2398825661	-0.401498
C	-0.0563035006	 0.0330780588	 0.1143935565	 0.132814
O	 0.6145095245	-0.8707863535	-0.8350830676	-0.271041
C	 1.3614311031	-1.4458171042	 0.1694462101	 0.436026
N	 2.2483890845	-2.3319576723	 0.1237600609	-0.548552
C	 0.7388433892	-0.6243259973	 1.2814693003	-0.1421
C	 1.6787231693	 0.2007768966	 2.1516807065	-0.407623
H	 1.2395288041	 1.7203172328	-0.2981128334	 0.130357
H	-0.2785164713	 1.7109657376	-1.2102181534	 0.133752
H	-0.2870994514	 2.1376296502	 0.5095310741	 0.124655
H	-1.1259183287	-0.1989416127	 0.1299690994	 0.091846
H	 2.4054535323	-2.6512025517	-0.8338973705	 0.225153
H	 0.0916256793	-1.2406390682	 1.9128130269	 0.107134
H	 2.3505386707	 0.8224065032	 1.5542575008	 0.126316
H	 1.1191162305	 0.8515716234	 2.8309611579	 0.118569
H	 2.2989108795	-0.4681520184	 2.7546910374	 0.144191
