23
gdb 119708	2.95645	0.98311	0.88314	1.4034	86.55	-0.2275	0.078	0.3055	1480.8619	0.204602	-388.261174	-388.251305	-388.250361	-388.296231	36.699	
C	-0.0544455912	 1.5116916702	 0.0617000899	-0.384258
C	-0.111792581	-0.0074147815	-0.1133614442	-0.157309
C	 0.8504168175	-0.5193453829	-1.1975079204	-0.295779
C	 0.8226320761	-2.0097270259	-1.3310520655	 0.469232
O	 1.2997335343	-2.7743918655	-0.2055179935	-0.325821
C	 1.9683303073	-3.702240807	-1.100027668	-0.094916
C	 1.390224779	-3.0084373032	-2.3250162299	-0.228533
C	-0.1154546251	-2.8418792514	-2.16065456	-0.059663
C	-1.0425537473	-3.8953854641	-1.5968850863	-0.42109
H	 0.9520122942	 1.8403146189	 0.3440849096	 0.114968
H	-0.3217269826	 2.0295556664	-0.8665797901	 0.110841
H	-0.7447120095	 1.848898529	 0.8411654065	 0.111964
H	 0.1323768668	-0.5022394459	 0.8335605539	 0.118334
H	-1.1338847722	-0.3150846386	-0.3671369341	 0.096543
H	 0.5937975141	-0.0742098834	-2.1672246919	 0.096805
H	 1.8729759299	-0.1978400771	-0.9594498109	 0.100776
H	 3.0560928522	-3.5996577053	-1.0135735109	 0.106872
H	 1.6825913295	-4.7439542818	-0.911162033	 0.101193
H	 1.9039425199	-2.8520952677	-3.2648070523	 0.092575
H	-0.5281286638	-2.2721309193	-2.9920317454	 0.083576
H	-0.6572860889	-4.2876931577	-0.6527409156	 0.135611
H	-2.0318274477	-3.4705745141	-1.3956801892	 0.115444
H	-1.1736244015	-4.7304820822	-2.2936201989	 0.112636
