19
gdb 95452	3.0805	1.27619	1.00407	2.2624	79.05	-0.2297	0.0034	0.2331	1205.0748	0.158815	-423.006599	-422.998042	-422.997098	-423.0403	31.733	
C	 0.153825496	 1.5927711695	-0.2089635664	-0.406032
C	 0.0242491133	 0.0956322594	 0.0659713219	 0.059156
O	 0.5011242632	-0.6273086246	-1.0757565423	-0.28135
C	 1.3928376056	-1.6620114921	-0.6833782923	-0.11143
C	 1.5813028977	-1.4727769775	 0.7919658188	-0.227408
C	 0.8242742436	-0.4672639023	 1.2276415746	 0.303371
C	 0.6930037394	-0.0250977319	 2.6313331341	-0.035364
C	 0.8255264817	 1.3760773238	 3.0788029474	-0.1808
O	-0.4565907486	 0.7640320332	 2.9742213169	-0.230785
H	 1.2044181314	 1.8930825725	-0.2694056684	 0.112469
H	-0.3227100942	 1.8216750106	-1.1661640927	 0.126444
H	-0.3495000363	 2.1699933818	 0.5709196861	 0.130039
H	-1.0435099003	-0.1330730045	 0.2191828868	 0.091644
H	 0.9639989474	-2.6518308606	-0.9158617445	 0.103145
H	 2.3303593845	-1.5783124482	-1.2543533363	 0.106748
H	 2.2283818762	-2.0990069218	 1.3945301008	 0.100884
H	 0.9373816117	-0.7886843928	 3.3704635492	 0.099803
H	 1.1692805902	 1.571102967	 4.0939693457	 0.119686
H	 1.0367372975	 2.1594876085	 2.3554542106	 0.119781
