19
gdb 109230	2.85848	1.31482	1.15748	3.4797	75.87	-0.243	0.0008	0.2438	1143.0075	0.15986	-419.193668	-419.185089	-419.184145	-419.226862	32.24	
C	 0.001946514	 1.5625223028	 0.0807592735	-0.426392
C	 0.0630481611	 0.0615029277	-0.0680075773	 0.000689
C	 0.7595237077	-0.6413465902	-1.1747499056	-0.0602
C	 1.8196956152	 0.1021437189	-1.9906785493	-0.19899
N	 2.849616257	 0.4880849291	-1.012295582	-0.286433
C	 2.4927743076	 0.0305008959	 0.1230460281	 0.315327
C	 3.320842265	 0.2414388372	 1.354302288	-0.123255
O	 4.4490933157	 1.0359833818	 1.1030691803	-0.423551
N	 1.2997647352	-0.7420917506	 0.2124350523	-0.181364
H	 0.8957620889	 2.0635454417	-0.2961082482	 0.145764
H	-0.8620451654	 1.9457565537	-0.4726372579	 0.129445
H	-0.1290952931	 1.8416974676	 1.1313623262	 0.132266
H	-0.8100656865	-0.4478954191	 0.3344031466	 0.103931
H	 0.3273537294	-1.5498046676	-1.582482873	 0.102555
H	 2.2590365812	-0.5480781975	-2.7553531054	 0.123819
H	 1.4419214989	 0.9928270148	-2.5068800102	 0.119468
H	 2.6862573371	 0.7012116619	 2.1292715977	 0.11176
H	 3.606225766	-0.7486261258	 1.7452337987	 0.121077
H	 4.4440114651	 1.2031823477	 0.1490245375	 0.294084
