14
gdb 77783	2.6187	1.4584	1.10481	4.0984	68.34	-0.2981	-0.0394	0.2586	1074.8585	0.099938	-436.692422	-436.684537	-436.683593	-436.725056	28.787	
C	 0.0437225376	 1.5907587237	 0.030885479	-0.426384
C	 0.0731415038	 0.0806495175	 0.0308556188	-0.078741
C	 1.3089208688	-0.7777148269	-0.2732476725	-0.331727
C	 2.5046356403	-0.1682161255	 0.4144959906	 0.467028
O	 3.6171403752	 0.1379212308	 0.154254465	-0.301006
O	 1.8657541438	-0.0622753306	 1.6547464114	-0.28359
C	 0.6967149672	-0.737875575	 1.1208849023	 0.319723
C	 0.0843561153	-1.7591545464	 1.9019623387	 0.235479
N	-0.443054079	-2.5811170505	 2.5212857728	-0.329999
H	 0.9158957223	 2.0122410929	 0.5339295399	 0.157233
H	 0.0177430375	 1.9676659455	-0.9955369938	 0.141139
H	-0.8519697356	 1.9478797122	 0.5475921685	 0.143013
H	-0.8184893393	-0.3945874959	-0.3744401503	 0.134534
H	 1.3201551122	-1.5650427919	-1.0127276402	 0.1533
