19
gdb 88411	2.54399	1.23468	0.9647	5.4729	78.95	-0.2388	-0.0159	0.2228	1269.085	0.158258	-419.208576	-419.199083	-419.198139	-419.243459	34.076	
C	-0.6483442168	 1.2719159393	 0.2939864867	-0.415839
C	-0.0668837816	-0.1193661514	 0.1727007355	-0.000285
C	 1.3298454122	-0.3077650405	-0.3574340644	-0.313526
C	 1.0345075746	-0.6191039952	 1.0894816843	-0.02038
N	 1.5664132207	 0.225408947	 2.1346354101	-0.071886
C	 0.7019664022	 0.5145350199	 3.2031407234	 0.091325
N	 0.9994525492	 1.2425567212	 4.1959034	-0.417582
C	 2.9361404846	 0.5097047468	 2.1295456192	 0.160164
O	 3.5466881781	 1.128654248	 2.9573829088	-0.273782
H	 0.1058212663	 1.9953915671	 0.614676296	 0.137877
H	-1.0418942861	 1.6045013711	-0.6720000259	 0.126843
H	-1.4711599349	 1.3037945095	 1.0159306826	 0.121808
H	-0.7858223555	-0.8852560669	-0.1050692511	 0.095487
H	 1.5507498604	-1.1377771688	-1.018478764	 0.125452
H	 1.8946099411	 0.594206848	-0.5673618654	 0.131635
H	 0.9920094438	-1.674174277	 1.3521265395	 0.109296
H	-0.2637909208	 0.0188443732	 3.0487880422	 0.098483
H	 0.2032133027	 1.2856794292	 4.8312477648	 0.2285
H	 3.4069480596	 0.0714373595	 1.2294343978	 0.086413
