23
gdb 90767	2.70557	1.33914	1.1424	1.6294	83.88	-0.2515	0.0617	0.3132	1198.083	0.20773	-388.299487	-388.290856	-388.289912	-388.33247	34.699	
C	-0.0495259568	 1.5719433152	-0.038242708	-0.40832
C	 0.1545600954	 0.0576955185	-0.044524265	 0.043656
C	 1.1117693528	-0.4666075849	-1.1349810947	-0.221812
C	 1.4466458457	-1.9067106219	-0.6921757482	-0.240234
C	 1.419392489	-1.8936273175	 0.8500510687	-0.058549
C	 2.7192588181	-1.411105061	 1.5693244728	 0.152274
O	 3.9645642187	-1.5412013361	 0.924299146	-0.429697
C	 2.1035215872	 0.0025793991	 1.7438986716	-0.287985
C	 0.7274476959	-0.544752517	 1.2521054388	-0.008309
H	 0.891969044	 2.1027927636	 0.1403934451	 0.114096
H	-0.4463308839	 1.9199259805	-0.9979394513	 0.111719
H	-0.7552701054	 1.8758896357	 0.7422194679	 0.111489
H	-0.8227729914	-0.4190143202	-0.2100050447	 0.069759
H	 0.6733409779	-0.4225603506	-2.1366378	 0.09467
H	 2.0162413601	 0.1564160884	-1.1660309191	 0.08254
H	 0.6754133365	-2.5914752942	-1.0601342653	 0.099447
H	 2.4014482912	-2.2708595757	-1.0857374869	 0.09743
H	 1.0055929242	-2.8201181782	 1.253987315	 0.061323
H	 2.8432920196	-1.9206126097	 2.5289674569	 0.087253
H	 3.9420894026	-1.0179061839	 0.1163782452	 0.279648
H	 2.1354490309	 0.4254494994	 2.7508692759	 0.099129
H	 2.551669163	 0.7336478862	 1.0622716589	 0.090609
H	-0.0170884852	-0.6084331358	 2.0484415703	 0.059864
