18
gdb 19855	3.84611	2.22237	1.9433	0.2477	74.87	-0.2354	0.0278	0.2632	771.4986	0.156803	-310.646741	-310.640683	-310.639739	-310.676536	25.505	
C	-0.0191472817	 1.4539982089	-0.0350337899	-0.285258
C	 1.3166581901	 0.7673905801	 0.0408261994	-0.057482
C	 0.0160386813	-0.0411760082	 0.0931971412	-0.057402
C	 0.3772811747	-0.7134960085	-1.2601456914	-0.058036
C	-0.3418261428	-0.2979018612	-2.5116424988	-0.078236
C	 0.3668388214	 0.5819788463	-3.2243458268	-0.061974
C	 1.7069738882	 0.9277543038	-2.603208838	-0.283387
C	 1.7129467447	 0.1052011367	-1.2932278036	-0.016572
H	-0.3061697127	 1.9822082755	 0.8688692664	 0.106672
H	-0.3647104277	 1.9241666252	-0.9511171906	 0.112932
H	 2.0099420155	 0.980494955	 0.8462528825	 0.079123
H	-0.4311306723	-0.5545755766	 0.9360135163	 0.079307
H	 0.4969973093	-1.796026996	-1.1589852063	 0.069979
H	-1.3264138231	-0.6635140798	-2.7843316199	 0.087639
H	 0.0390130337	 1.0241090068	-4.1604725537	 0.088215
H	 2.5364051865	 0.6591494974	-3.2701509561	 0.099849
H	 1.8013803679	 2.005894969	-2.4165357266	 0.105315
H	 2.6059829668	-0.5124916745	-1.1867336942	 0.069315
