23
gdb 100957	2.14718	1.12962	0.95949	1.2028	81.64	-0.2528	0.0679	0.3207	1391.6276	0.202312	-425.414005	-425.402851	-425.401907	-425.450367	40.532	
C	 1.7531537865	 2.5731059814	-0.0180062484	-0.423546
C	 0.7275602349	 1.508196734	 0.4031490176	-0.052696
C	 0.0204015959	 0.8741905526	-0.8074437075	-0.076943
O	-0.76996243	 1.8044650901	-1.5316432541	-0.422274
C	 1.3590564084	 0.4521272484	 1.3069873947	 0.397936
C	 2.4285709134	-0.4322526762	 0.6920221996	-0.474804
O	 1.6950798382	 0.9278149499	 2.6254178063	-0.311871
C	 0.6595965334	-0.0570207139	 2.5073594572	 0.023249
C	-0.7241503685	 0.3172283026	 2.9751627846	-0.430643
H	 2.5139923639	 2.1688147757	-0.6953139571	 0.112749
H	 1.2593070299	 3.4070444075	-0.5273996	 0.108099
H	 2.2618215588	 2.9800426524	 0.8600455854	 0.140165
H	-0.0481291363	 2.0184344698	 0.9808705942	 0.086921
H	 0.753531568	 0.3851933513	-1.4679474208	 0.08806
H	-0.6750103157	 0.0997188134	-0.4656414672	 0.109351
H	-0.1754569606	 2.4171546235	-1.9744440167	 0.284679
H	 3.2401718416	 0.1642934813	 0.2642636113	 0.125951
H	 2.8595167985	-1.0823819869	 1.4570319113	 0.128048
H	 2.018728824	-1.0622423271	-0.1043833649	 0.122815
H	 0.9737196036	-1.0480829248	 2.8465095203	 0.078983
H	-1.0306958897	 1.305717279	 2.6299632911	 0.133361
H	-1.4562441079	-0.4189069212	 2.6253131569	 0.122465
H	-0.7548644105	 0.3209707371	 4.0700357462	 0.129945
