19
gdb 72038	2.33678	2.06924	1.54723	1.749	73.73	-0.2305	0.0891	0.3197	956.3594	0.159879	-423.033338	-423.025676	-423.024731	-423.064945	30.801	
C	 0.0730284469	 1.4856601279	 0.0228564133	-0.503692
C	-0.0017379461	-0.0058213234	 0.0284727963	 0.377071
O	 0.972604727	-0.6707944625	-0.7681319608	-0.286468
C	 0.5424885752	-2.0070801662	-0.5480033522	 0.140132
C	 0.5711938339	-2.1418608212	 0.9900338901	-0.241589
C	-0.3197567158	-0.9297266049	 1.2087128076	-0.256882
C	-1.2257575284	-0.8958263278	-0.0264878413	 0.377012
C	-2.6653207857	-0.5054632257	-0.1000512985	-0.50369
O	-0.8459308631	-1.9929416806	-0.8500072104	-0.286464
H	 1.0182022341	 1.8324201211	 0.4531727786	 0.131372
H	-0.0008523615	 1.873057496	-0.9982419642	 0.134316
H	-0.7431726023	 1.9127453419	 0.6121687036	 0.122957
H	 1.0808388805	-2.7084256192	-1.1797417646	 0.095514
H	 0.1293340257	-3.0816752002	 1.3284622599	 0.110016
H	 1.5796222893	-2.0274004361	 1.3937504758	 0.110004
H	-0.6289991652	-0.5642467736	 2.1783634186	 0.091748
H	-2.8554287876	 0.3768212053	 0.5174505059	 0.122957
H	-2.9508013563	-0.2718389937	-1.1306313123	 0.134314
H	-3.3097613705	-1.314588877	 0.2588104544	 0.131372
