16
gdb 20363	6.00792	1.40091	1.2483	1.8377	71.02	-0.2258	0.0282	0.254	974.67	0.133417	-342.794494	-342.78771	-342.786766	-342.825833	25.976	
C	-0.2031308452	 1.3174947401	-0.3028551609	-0.267766
C	 1.2048830317	 1.0904530637	 0.1684683576	-0.267804
C	 0.2347185995	-0.0721541886	 0.1132855598	-0.077618
C	-0.2796025133	-0.6869354419	 1.3533167869	 0.368112
N	-0.5069558728	-2.0003157442	 1.3968660933	-0.306974
N	-0.9617309631	-2.2267894001	 2.6469515971	-0.184682
C	-1.0310552759	-1.1033529429	 3.3981087354	-0.014959
C	-0.5953548712	-0.073730822	 2.5942808892	-0.303562
H	-0.8869617993	 1.8416866548	 0.3560318308	 0.114806
H	-0.3735332693	 1.4991492378	-1.358284544	 0.11395
H	 2.0062823305	 1.1153891764	-0.5616728167	 0.113947
H	 1.4838082791	 1.4594724161	 1.1495706799	 0.114802
H	 0.3846887873	-0.7934194217	-0.6822184773	 0.094388
H	-1.203062416	-3.1652210173	 2.9141271032	 0.272731
H	-1.3760122455	-1.1227940654	 4.4199970268	 0.129976
H	-0.5172231267	 0.9667643452	 2.8646395289	 0.100655
