15
gdb 125335	5.36779	1.32406	1.06911	2.6197	74.19	-0.2062	0.0063	0.2125	1072.6898	0.115766	-413.02307	-413.015947	-413.015003	-413.054574	27.161	
C	 0.0122406063	 1.4593182946	 0.0354078003	-0.486362
C	 0.0100679939	-0.0334267843	-0.0220908375	 0.278779
C	-0.1435988754	-0.8268795968	-1.1420289219	-0.22562
N	-0.0694977529	-2.1186809944	-0.6521498441	 0.04387
N	-0.1254955218	-3.4161673744	-1.0913188892	-0.253238
C	 0.0316926213	-4.104027066	 0.0108052957	 0.047393
N	 0.1844989837	-3.3178834031	 1.130043151	-0.411142
C	 0.1182263455	-2.0136971896	 0.692627574	 0.495555
N	 0.1757317023	-0.7848389052	 1.1397796244	-0.451623
H	 0.9574403388	 1.8356462907	 0.4416464584	 0.13248
H	-0.129181429	 1.8906237893	-0.9591237604	 0.118093
H	-0.7872875493	 1.8284900498	 0.6868566235	 0.132503
H	-0.2896598885	-0.6051944446	-2.1839002016	 0.134793
H	 0.0413709294	-5.181001232	 0.0479501635	 0.156264
H	 0.3198880459	-3.6251990439	 2.076331934	 0.288256
