15
gdb 15031	2.34389	1.88284	1.11554	3.2196	66.45	-0.273	-0.0509	0.2221	1025.8983	0.117469	-362.666059	-362.657869	-362.656925	-362.699722	28.347	
O	 0.2901149381	 0.0064758314	 0.3628214922	-0.23152
C	 0.1580624857	 1.1548718572	 0.0447478172	 0.173644
C	 1.3483467358	 2.1141466918	-0.1270112224	-0.253574
C	 1.1833846223	 2.9207601619	-1.3371855686	 0.265354
N	 1.0149873421	 3.5527979436	-2.2899733483	-0.308221
C	 1.456731525	 2.9914563952	 1.1220354259	 0.012167
C	 2.0744927143	 2.4112044382	 2.3678949881	-0.273881
C	 2.8079888316	 3.4709001464	 1.5853533235	-0.266853
H	-0.8384735465	 1.6219421445	-0.1038415148	 0.107984
H	 2.2459843034	 1.4942438964	-0.2208050052	 0.143333
H	 0.6226690092	 3.674112638	 1.2509880832	 0.111436
H	 1.6366399648	 2.679494944	 3.3222728988	 0.12751
H	 2.4430535168	 1.3922834022	 2.3194308783	 0.134939
H	 3.6768686363	 3.1698938717	 1.0101350474	 0.127508
H	 2.8732114013	 4.4707899075	 1.9982823848	 0.130176
