20
gdb 119296	2.10286	1.29961	0.95214	4.65	80.28	-0.2693	0.0343	0.3036	1322.5852	0.170175	-403.142652	-403.133025	-403.132081	-403.177674	34.446	
C	-0.1696587255	 1.3116466781	 0.2666986502	-0.228412
O	-0.059682957	-0.0926364038	 0.209758917	-0.232843
C	-1.2735446416	-0.7316887507	-0.0905216753	-0.102552
C	-1.0182400843	-2.2373665206	-0.1907778715	 0.136602
C	-0.6198550256	-2.8721996509	 1.1854476122	-0.244288
C	-2.090803039	-3.3289831535	 1.3765504769	-0.218024
C	-2.3507311953	-3.0612708806	-0.1301501137	-0.26676
C	-0.1366171184	-2.5355253601	-1.3135105564	 0.245166
N	 0.5436051211	-2.8091977781	-2.2076666498	-0.351266
H	 0.8209044433	 1.704583356	 0.5051425171	 0.136063
H	-0.4987292172	 1.7322993232	-0.6955895408	 0.112927
H	-0.8789230043	 1.6332949636	 1.0455268327	 0.105275
H	-2.0219173949	-0.5442960764	 0.6985179703	 0.089865
H	-1.694296291	-0.3609388501	-1.039782894	 0.104095
H	 0.0663544861	-3.7109799654	 1.057428744	 0.125145
H	-0.1946260416	-2.173044819	 1.9064670901	 0.125217
H	-2.2438627045	-4.352771539	 1.7213954184	 0.112242
H	-2.6600952973	-2.660654104	 2.0269082892	 0.111569
H	-3.2570899606	-2.5161620924	-0.4057791284	 0.111202
H	-2.2884798324	-3.9663455463	-0.736390248	 0.128778
