20
gdb 102630	2.34091	1.05086	0.82331	4.6157	72.22	-0.2376	0.036	0.2736	1430.6462	0.169204	-477.442828	-477.432247	-477.431303	-477.479476	37.485	
C	-0.1857500937	 0.8841134135	 0.5981252062	-0.25309
O	-0.0487931095	-0.4431553069	 0.1199435628	-0.264129
C	 0.6393747088	-0.5549877814	-1.1390350384	 0.069008
C	 2.1481067583	-0.5948318798	-0.8628445395	-0.068088
O	 2.4830785982	-1.6574938248	 0.005920463	-0.416645
C	 0.1553156952	-1.8328036423	-1.8350029997	-0.288816
C	-1.297019821	-1.7998166868	-2.3141374591	 0.354184
N	-2.22010289	-1.6355434991	-1.3221056628	-0.506615
O	-1.5982849069	-1.9441773256	-3.483532252	-0.358492
H	 0.7850319933	 1.3710629361	 0.757841341	 0.123241
H	-0.7745128931	 1.498239648	-0.0976736043	 0.122482
H	-0.7087276946	 0.8275697876	 1.5557767669	 0.13432
H	 0.4039236093	 0.3212829326	-1.7620065254	 0.083458
H	 2.6946285019	-0.7527101099	-1.7980139509	 0.117866
H	 2.4739357957	 0.3752253719	-0.4534276532	 0.087852
H	 1.8664357322	-1.5975514554	 0.7460396376	 0.286861
H	 0.7666560048	-2.0070092743	-2.7223263477	 0.129885
H	 0.3087613754	-2.6745029148	-1.1519121454	 0.130856
H	-1.9148589561	-1.3378083772	-0.4092417901	 0.262779
H	-3.1820115581	-1.5141375613	-1.5946548091	 0.253083
