19
gdb 46516	3.62605	1.23362	1.06988	4.0023	76.06	-0.2229	0.0358	0.2587	1157.4714	0.161918	-419.22429	-419.216303	-419.215359	-419.256795	31.468	
O	-0.0141470144	-0.0766704855	-0.0310037224	-0.379187
C	-0.0207409437	 1.1394548649	 0.0116274342	 0.41732
C	-1.328703134	 1.9272246319	 0.0551288732	-0.283002
N	-1.1440243494	 3.2938407391	 0.5424063552	-0.356078
C	-0.1016655353	 3.968839588	-0.1896000779	 0.354155
C	-0.3463039681	 4.5270154771	-1.5810585446	-0.306816
C	-0.1727307717	 5.4475971479	-0.3871037503	-0.339575
C	 1.2279258226	 3.3250884803	 0.1294677263	-0.183038
N	 1.1253008966	 1.8801814389	-0.036581992	-0.318509
H	-1.7505925231	 1.875869885	-0.9648117061	 0.111622
H	-2.0058967728	 1.3816660432	 0.7162380753	 0.132624
H	-2.0164931986	 3.8084220882	 0.5000616413	 0.22216
H	 0.4481460525	 4.4856189476	-2.3187254367	 0.116218
H	-1.3445622221	 4.4236488513	-1.9939136066	 0.112126
H	-1.0482591945	 5.9658349866	-0.0083786853	 0.116077
H	 0.7434522042	 6.0236873373	-0.3077598307	 0.118668
H	 2.0071101065	 3.7094267054	-0.5378117448	 0.105082
H	 1.5120469316	 3.5757630903	 1.1616099854	 0.114677
H	 1.9711261936	 1.3286673122	-0.0191663236	 0.245476
