19
gdb 116815	6.88329	0.44684	0.43613	6.0304	82.91	-0.2609	0.0082	0.2691	2427.0785	0.157224	-419.217215	-419.206604	-419.205659	-419.25506	35.157	
C	-0.0357977872	 1.3955604078	-0.0018011329	-0.250712
O	 0.0055578868	-0.0261880462	 0.0570533882	-0.189385
C	 0.5863119671	-0.6368188274	-0.9900402358	 0.132142
N	 0.6871881114	-1.8910807671	-1.0274580997	-0.210767
C	 1.3294878111	-2.4773303822	-2.184660456	-0.16237
C	 2.5585987347	-3.289003745	-1.7573875707	-0.167381
C	 3.1959020474	-4.0248137021	-2.9514570749	-0.341474
C	 4.3852938151	-4.7848444824	-2.5746731629	 0.257796
N	 5.3263178556	-5.3789686315	-2.2634524702	-0.303897
H	 0.9727542023	 1.8254721187	-0.0217203978	 0.13002
H	-0.5967500789	 1.744998666	-0.8769245986	 0.129326
H	-0.5461489304	 1.7243922454	 0.9038436331	 0.150739
H	 0.9437881571	 0.0452005255	-1.7789449156	 0.074095
H	 0.6117010254	-3.1512094208	-2.6725946297	 0.109933
H	 1.625685734	-1.7244326258	-2.9382586346	 0.080968
H	 3.2969850795	-2.6231126573	-1.299044175	 0.12081
H	 2.2629587119	-4.0100544615	-0.9899301225	 0.137459
H	 2.472593233	-4.7144774809	-3.4027601	 0.153033
H	 3.4781288442	-3.3113460433	-3.7352235943	 0.149665
