14
gdb 66404	2.34308	1.56408	1.29205	3.1639	68.26	-0.251	-0.0121	0.2389	1015.5683	0.099474	-436.633401	-436.625305	-436.624361	-436.666005	30.425	
N	-0.097717358	 1.5096890632	 0.109691543	-0.599583
C	-0.0474255132	 0.10877692	-0.042008764	 0.081985
C	-1.1337633183	-0.9421831015	-0.1138171995	 0.051831
O	-0.3801887789	-1.7258236238	-1.0672196603	-0.255465
C	 0.6133860751	-0.7474776077	-1.115408591	 0.411525
O	 1.5413700325	-0.688915844	-1.8503784134	-0.320134
C	-0.3619006587	-0.819023979	 1.1640975595	-0.279201
C	 0.5311973968	-1.8243316701	 1.6616117227	 0.329392
C	 1.2810735535	-2.6586866203	 2.092159575	-0.411221
H	 0.7351788607	 1.8626585846	 0.5697523917	 0.253459
H	-0.1828122273	 1.9795008563	-0.7857992556	 0.251007
H	-2.2036882616	-0.874838113	-0.2485884314	 0.140367
H	-0.8931184748	-0.243595054	 1.920556373	 0.14053
H	 1.9434683921	-3.4017795209	 2.4622876105	 0.205508
