25
gdb 101021	2.01136	1.22765	0.92457	1.4056	88.6	-0.2604	0.0682	0.3285	1440.0955	0.227154	-389.48607	-389.475138	-389.474194	-389.522061	41.102	
C	-0.462734201	 1.4143626659	 2.2231534142	-0.380207
C	-0.2418099869	-0.1008772916	 2.2034995119	-0.197236
C	 0.9565348683	-0.5266113349	 1.3419169664	 0.044364
O	 2.146892632	 0.1329981055	 1.7728281655	-0.432592
C	 1.1355568156	-2.0506959101	 1.2651623374	 0.378934
C	-0.0323849242	-2.8388864834	 0.6798510542	-0.260021
C	-0.3893003938	-2.4657386265	-0.7654009844	-0.383755
C	 2.5185277176	-2.5729798602	 0.9611026532	-0.304411
C	 1.9395556319	-2.7328335202	 2.3474860247	-0.327424
H	-0.6911285367	 1.7902509716	 1.2196268551	 0.114693
H	-1.2973400906	 1.6828478927	 2.8778577992	 0.10798
H	 0.4314277503	 1.9372006355	 2.5720471947	 0.122768
H	-0.0855469096	-0.4752734073	 3.2259866895	 0.087978
H	-1.1466084797	-0.5978949154	 1.8370678254	 0.102827
H	 0.8048189352	-0.1495994921	 0.3223841621	 0.085666
H	 2.2332258042	-0.0095218032	 2.7217221005	 0.278838
H	 0.2279830812	-3.9036473613	 0.7154973136	 0.092372
H	-0.919691868	-2.7310896452	 1.3161768704	 0.096651
H	 0.4830781714	-2.5553108639	-1.4211513452	 0.120858
H	-1.1714893442	-3.1254543516	-1.1536671199	 0.110711
H	-0.7601254394	-1.4388895327	-0.8451648912	 0.118547
H	 2.6035251437	-3.4556766015	 0.335577571	 0.102121
H	 3.3107113596	-1.844599186	 0.8406824424	 0.124649
H	 2.3773530494	-2.1367702553	 3.1420384726	 0.089163
H	 1.6221633135	-3.718645139	 2.6709292267	 0.106525
