16
gdb 77048	3.23077	1.02907	0.8414	5.4278	69.44	-0.2873	-0.0068	0.2805	1321.2771	0.123511	-437.929397	-437.920617	-437.919673	-437.963745	30.863	
C	-0.2515624375	 1.5507886838	 0.1402161794	-0.416747
C	-0.0703770353	 0.0429822296	 0.0117484723	-0.222279
C	 0.5888536322	-0.5956999048	-1.2390573068	 0.127107
C	 1.1649431846	 0.331178517	-2.3086053415	-0.361568
C	 1.8842225359	-0.4017792339	-3.3488562024	 0.270256
N	 2.4387834846	-0.9857739373	-4.1765669988	-0.288986
O	 1.6424322498	-1.1651643772	-0.3992107833	-0.250179
C	 1.1236580739	-0.5863347975	 0.7381038181	 0.459587
O	 1.5589121627	-0.6323344078	 1.8408231064	-0.311947
H	 0.6630030405	 2.1008372211	-0.0977225499	 0.13282
H	-1.0514502634	 1.9093250798	-0.5146479405	 0.13203
H	-0.5235108408	 1.7978364849	 1.1698078514	 0.152298
H	-0.9964391804	-0.4733217636	 0.2813571405	 0.127788
H	 0.0112740496	-1.4002450163	-1.6997524206	 0.121572
H	 0.3489039357	 0.893753289	-2.7771284531	 0.162704
H	 1.8436720077	 1.0576867832	-1.8513409111	 0.165544
