16
gdb 93084	2.41219	1.71209	1.23994	2.8104	66.37	-0.2634	-0.0276	0.2359	1009.2139	0.124447	-475.050393	-475.042243	-475.041299	-475.083506	29.992	
O	-0.0957662908	 1.3986475507	-0.175940387	-0.431738
C	 0.0007071484	-0.0039089444	 0.0226833808	 0.09075
C	 0.9739221105	-0.3876374977	 1.1384476639	-0.181621
N	 0.5620654858	-0.2267562569	 2.516068916	-0.226615
C	-0.5465531775	 0.147261078	 2.9616741528	 0.114829
O	-1.7291069202	 0.5652727201	 2.363347945	-0.231944
C	-2.2618672243	 0.1747681857	 1.1419859547	 0.417063
O	-3.3712116482	 0.533849393	 0.8917537623	-0.281373
C	-1.3855305196	-0.6482623927	 0.228523221	-0.360479
H	-0.2900314467	 1.824333316	 0.6668777539	 0.295634
H	 0.4171392901	-0.387620644	-0.914719572	 0.107205
H	 1.2568730318	-1.4415099262	 1.014928278	 0.126598
H	 1.8991219866	 0.1871103397	 1.0082988235	 0.135924
H	-0.692496221	 0.2393541854	 4.0365486243	 0.143126
H	-1.9277486069	-0.7232530725	-0.7145480904	 0.147521
H	-1.2773158481	-1.6587151342	 0.6418730831	 0.135119
