19
gdb 46369	3.43574	1.07289	0.86181	4.0086	75.41	-0.2671	0.011	0.2781	1334.5292	0.160247	-423.041724	-423.033468	-423.032523	-423.075563	30.428	
O	 0.2656863515	 0.088415246	 0.2313625877	-0.325218
C	 0.071108592	 1.236732256	-0.0054250975	 0.454685
O	-1.1035960301	 1.8246835504	-0.4078284196	-0.240478
C	-0.492451864	 3.155435506	-0.4202277298	-0.1006
C	 0.8597136054	 2.5537272191	 0.015555041	-0.217719
C	 1.4523131704	 2.9564256189	 1.3538085546	 0.043033
C	 2.7034176024	 2.191769378	 1.8721486036	-0.223013
C	 3.2537975249	 3.5406745641	 2.40906293	-0.212398
C	 2.2715438164	 4.2762470712	 1.4572112628	-0.241151
H	-0.5384806904	 3.5929568178	-1.419310394	 0.124902
H	-0.9793943549	 3.8082765343	 0.3081046603	 0.124199
H	 1.6238391472	 2.5795995444	-0.7680347912	 0.106559
H	 0.6669630728	 2.9443341158	 2.1189436405	 0.07903
H	 2.5389160678	 1.3770247841	 2.5793777568	 0.113442
H	 3.3063163856	 1.811149901	 1.0417640391	 0.106102
H	 2.9923182729	 3.6968300745	 3.4593845341	 0.107102
H	 4.3205058394	 3.7387185408	 2.2852937768	 0.101727
H	 2.7468165299	 4.5227084754	 0.5017881615	 0.099944
H	 1.7591933007	 5.166528372	 1.8298677333	 0.099852
