18
gdb 14041	4.67327	1.64824	1.52436	1.2983	74.15	-0.225	0.0182	0.2432	901.6138	0.154826	-347.799918	-347.79291	-347.791966	-347.831108	27.409	
C	 0.0488860507	 1.6424277288	-0.1429763211	-0.216095
C	 1.5767938675	 1.4115313359	 0.0017707522	-0.271755
C	 1.2717624336	 0.0229400561	 0.6452752031	 0.419047
C	-0.1639447247	 0.1160933467	 0.0407988659	-0.271754
O	 2.0708944015	-1.0644056214	 0.196800004	-0.315216
C	 2.6259414257	-1.7770259657	 1.2989084094	-0.137415
C	 2.1193174507	-1.059529119	 2.5178664183	-0.110215
C	 1.3537223358	-0.0420888466	 2.1422440632	-0.131454
H	-0.3627080421	 2.2205718594	 0.6890364544	 0.100204
H	-0.3022973805	 2.0862111037	-1.0762614448	 0.101098
H	 2.0600000523	 1.2614693811	-0.9671554378	 0.112322
H	 2.1620150407	 2.124583305	 0.5880301531	 0.093909
H	-0.9976377921	-0.2267947697	 0.6588689647	 0.093909
H	-0.1867532277	-0.4105394396	-0.9167827668	 0.112322
H	 2.305009864	-2.8301350184	 1.2651715271	 0.105241
H	 3.7254216961	-1.7730660352	 1.2333196509	 0.105241
H	 2.3637075916	-1.35744258	 3.5295062592	 0.104893
H	 0.843381397	 0.663083779	 2.7863113951	 0.105717
