19
gdb 120183	4.6557	0.79273	0.76132	2.751	76.57	-0.2402	0.0113	0.2515	1505.7886	0.158973	-422.980564	-422.971835	-422.970891	-423.014853	32.285	
O	-0.0118666816	 1.4221414712	-0.247203785	-0.419135
C	 0.0113884918	 0.0216945279	-0.0239047246	-0.066226
C	-1.4160416727	-0.4937742017	-0.1851003875	-0.236533
C	-1.4963665041	-2.0102144963	-0.0556533468	 0.028663
C	-1.386573026	-2.7184931144	 1.3544489446	-0.18602
C	-2.8640621985	-2.2645599667	 1.6177264596	-0.243832
C	-2.8912751838	-2.7244545021	 0.118472294	-0.197069
C	-2.047283037	-3.9024896604	 0.6312509648	 0.451957
O	-1.957235688	-5.0860407383	 0.5288893896	-0.325938
H	 0.8833957513	 1.7589355694	-0.1490849904	 0.287521
H	 0.6751974123	-0.4874952869	-0.7419149023	 0.087565
H	 0.3815940613	-0.21684666	 0.986296866	 0.089114
H	-2.0519215171	 0.0295057141	 0.533368502	 0.11341
H	-1.7717481164	-0.2053218983	-1.1815994495	 0.114606
H	-0.86385438	-2.470276288	-0.8228893358	 0.086726
H	-0.5489991174	-2.7118539164	 2.048828122	 0.091063
H	-3.4450722134	-2.8546556969	 2.3286804623	 0.115791
H	-3.0064755324	-1.1985979673	 1.7849923942	 0.115955
H	-3.7331572083	-2.718480599	-0.5707371872	 0.092381
