19
gdb 35108	3.12174	1.37696	1.07956	0.9226	86.13	-0.2448	0.02	0.2648	1147.0669	0.160264	-348.721104	-348.713084	-348.71214	-348.753622	31.898	
C	-0.5757752947	-0.97536647	-1.1419575173	-0.478126
C	-0.3018072536	 0.0351345298	-0.5513237804	 0.334775
C	 0.0319872819	 1.2656563856	 0.1732155557	-0.234242
C	-0.4885378977	 1.2223113818	 1.5980014729	-0.048381
C	 0.1463637167	 1.7542822261	 2.6394999722	-0.076179
C	 1.4727734201	 2.4580484968	 2.5611809986	-0.275335
C	 2.2408482556	 2.1675114336	 1.2837183846	-0.042522
C	 2.5126593108	 0.740193331	 0.8749653031	-0.281115
C	 1.5294411628	 1.570930881	 0.092849761	-0.018442
H	-0.8160087347	-1.8668317726	-1.6662054109	 0.192798
H	-0.4939003594	 2.0893215627	-0.3366861473	 0.115606
H	-1.451370214	 0.7383916646	 1.7308860942	 0.099164
H	-0.3178593682	 1.7015723574	 3.6214370715	 0.089922
H	 1.3032406743	 3.5420443416	 2.6445612678	 0.112805
H	 2.082452961	 2.1938633878	 3.436296073	 0.107305
H	 3.0241291386	 2.8859396642	 1.0602506474	 0.082235
H	 3.4650804288	 0.5043007669	 0.4138387517	 0.108141
H	 2.110479093	-0.0476762954	 1.5033118279	 0.121868
H	 1.8492071787	 1.8997597471	-0.8907435555	 0.089724
