25
gdb 117679	2.93175	0.92422	0.85336	0.9794	89.61	-0.2509	0.0825	0.3334	1536.3573	0.226538	-389.472273	-389.46127	-389.460325	-389.508332	40.772	
C	 0.1822980464	 1.3918112312	-0.058848097	-0.226239
O	 0.0355515366	-0.0053960808	-0.0175162193	-0.240134
C	 0.7018176643	-0.6623388523	-1.0760844418	-0.051315
C	 0.4994551858	-2.1844492716	-0.9619598701	 0.212897
C	 1.0804477517	-2.670913677	 0.3768637859	-0.431756
C	-1.0070029456	-2.5074195802	-1.0105963379	-0.405733
C	 1.1719550265	-2.8125997339	-2.1857311616	 0.024266
C	 2.6554256506	-3.0646142503	-2.3051496041	-0.284998
C	 1.6945804152	-4.2260300945	-2.2248737079	-0.287495
H	 1.2391386793	 1.6953574233	 0.0141511981	 0.102022
H	-0.2306925083	 1.8198800017	-0.986528973	 0.101996
H	-0.3628758188	 1.8059596473	 0.7931442754	 0.124569
H	 0.3119826408	-0.3053030257	-2.0456567716	 0.075729
H	 1.7791743093	-0.4256876595	-1.0529196791	 0.082904
H	 0.6170995034	-2.1180025818	 1.1968895339	 0.133003
H	 0.8868600417	-3.735943403	 0.5345492278	 0.110062
H	 2.1610604692	-2.5063292235	 0.4397825883	 0.107794
H	-1.4518244284	-2.1649741401	-1.9519644725	 0.101366
H	-1.1717399019	-3.5869755839	-0.9364760231	 0.108465
H	-1.5354740909	-2.0147867281	-0.1910914392	 0.125507
H	 0.7019080651	-2.4891592224	-3.1129146671	 0.0769
H	 3.1353465378	-2.8515112916	-3.2542119739	 0.107526
H	 3.2871553218	-2.8798699206	-1.4435300565	 0.112149
H	 1.6903703223	-4.8057115696	-1.3088810212	 0.112666
H	 1.513375206	-4.8139797231	-3.1179991225	 0.107852
