19
gdb 67838	2.25316	2.10453	1.54931	1.7016	79.02	-0.2368	0.026	0.2627	952.4953	0.159879	-385.862634	-385.855205	-385.854261	-385.894007	30.277	
C	-0.0132591831	 1.5479041948	-0.0177516475	-0.474335
C	-0.0139102346	 0.0245292877	-0.0163342923	 0.271265
C	-1.3622491811	-0.6339089272	-0.069866266	-0.125473
C	-1.5139176099	-1.5551630318	 0.8821011729	-0.053241
C	-0.3057259385	-1.7049206269	 1.7835026389	-0.283895
C	 0.6981275378	-0.6853018689	 1.2047528212	-0.102249
C	 1.7692315633	-1.1984793911	 0.2228004188	 0.013529
O	 1.1119729031	-1.9944112135	-0.7690369561	-0.236354
C	 1.1015849316	-0.5767549387	-0.9313975054	-0.02136
H	 1.0045804284	 1.9430724896	 0.0783057481	 0.113868
H	-0.4346936353	 1.9416518835	-0.9501665975	 0.116157
H	-0.6100109462	 1.9402087011	 0.8117935488	 0.122031
H	-2.1072641544	-0.3846704407	-0.8185950503	 0.087444
H	-2.4042166427	-2.1613287832	 1.0176171844	 0.091016
H	-0.5551759117	-1.4971964345	 2.8316075486	 0.100149
H	 0.0870870114	-2.7288142027	 1.7523570424	 0.114982
H	 1.1026732657	 0.013104583	 1.9403873934	 0.072962
H	 2.8173293565	-1.4085546707	 0.4062875577	 0.098417
H	 1.5003163198	-0.17834816	-1.8589027701	 0.095086
