20
gdb 66351	2.27626	1.41897	1.33507	4.5292	78.55	-0.2631	0.0404	0.3035	1113.494	0.172268	-403.179846	-403.171225	-403.170281	-403.21267	33.217	
C	-0.0188943	 1.5409901643	 0.0297960112	-0.428084
C	-0.0245502933	 0.0008435117	-0.0059461384	 0.062006
C	 0.6781467058	-0.5345775382	-1.2814108677	-0.220649
C	 0.8621045441	-2.0566182985	-1.2215973688	-0.225933
C	 1.5365778495	-2.45488578	 0.0912032155	-0.06707
O	 0.8172791285	-1.9673103616	 1.2151133162	-0.238405
C	 0.7256075838	-0.5645832542	 1.2295313768	-0.083518
C	-1.4177106098	-0.4722042482	 0.0196038315	 0.285803
N	-2.5193130962	-0.8225982687	 0.0275323567	-0.349517
H	 1.0118421655	 1.9085477116	 0.0251087704	 0.123725
H	-0.5336740504	 1.9503435901	-0.8433770157	 0.138046
H	-0.5178624754	 1.9185145773	 0.9267086976	 0.136419
H	 0.1152334212	-0.237530214	-2.17155819	 0.115744
H	 1.6585860492	-0.0440543474	-1.3405352597	 0.1014
H	-0.1123553322	-2.5527570023	-1.2892179946	 0.133261
H	 1.4659169582	-2.4009261924	-2.068230269	 0.102207
H	 1.5764115348	-3.5410742135	 0.206735588	 0.115345
H	 2.571470817	-2.0707307561	 0.1167223423	 0.08591
H	 1.7296501134	-0.1054168051	 1.2459906834	 0.089457
H	 0.2064431564	-0.2917277247	 2.1522609543	 0.123855
