20
gdb 71357	2.86334	1.89996	1.50577	1.7263	81.56	-0.2191	0.0825	0.3016	955.7713	0.173068	-365.930611	-365.923471	-365.922527	-365.961863	29.813	
C	 0.0812648853	 1.5859156263	-0.1995729986	-0.529139
C	 0.0321845061	 0.0821587059	-0.0243607026	 0.284985
C	 0.5280905	-0.9406600942	-1.054596117	-0.215361
N	 0.0404747708	-1.8692500634	 0.0461657379	-0.16189
C	 0.6661291589	-0.8592942278	 1.0545237205	-0.032917
C	-0.1834025902	-0.9619050649	 2.3064686842	-0.047806
C	-1.1758065032	 0.1360484414	 2.5960449689	-0.318894
C	-1.5625358866	-0.9906782813	 1.6712817435	-0.047811
C	-1.1666842758	-0.8975403459	 0.2103922455	-0.03289
H	 1.1168853763	 1.911618164	-0.3507508525	 0.121943
H	-0.4879771316	 1.8778263545	-1.0896241772	 0.121948
H	-0.3203383226	 2.1463795336	 0.6471711667	 0.12616
H	-0.0296039448	-1.0353604384	-1.9921010146	 0.091238
H	 1.6057248768	-1.0011974705	-1.2388474008	 0.091242
H	 1.7524220498	-0.9262728358	 1.1467260293	 0.066528
H	 0.1093215318	-1.6500307671	 3.0899815595	 0.094578
H	-1.6294259304	 0.1120416836	 3.5820778586	 0.112563
H	-1.0217491743	 1.1364898185	 2.2162376731	 0.114418
H	-2.3241753931	-1.7007927525	 1.9691708102	 0.094578
H	-1.9397979333	-1.003371356	-0.5538782846	 0.066529
