19
gdb 96759	2.41126	1.51403	1.07156	2.4645	79.72	-0.2094	0.0131	0.2225	1177.0796	0.157014	-419.150135	-419.140485	-419.139541	-419.184562	35.075	
C	 0.0883486544	 1.3576814364	-0.0154855208	-0.335721
N	-0.0324219217	-0.0886931622	 0.093195337	-0.342416
C	-1.1210884656	-0.6713428356	-0.1506322229	 0.320204
N	-2.4719724488	-0.2952865741	-0.4568323926	-0.146088
C	-3.125436875	 0.8011187031	 0.243025363	-0.337078
C	-2.9242917398	-1.6833810342	-0.128735373	-0.098721
C	-2.3252922902	-2.6073309372	-1.1480493526	-0.326194
C	-1.457721261	-2.1286978925	-0.0127312328	 0.313516
O	-0.7607039943	-3.0107467688	 0.7730121792	-0.446222
H	 1.1294059681	 1.6050188985	-0.2430261913	 0.12707
H	-0.5437699191	 1.7927567395	-0.8002328974	 0.120707
H	-0.1573845685	 1.847227812	 0.9354412681	 0.123158
H	-2.6872819378	 1.7546205537	-0.0560611923	 0.133736
H	-4.1824651749	 0.815967381	-0.0390212816	 0.130171
H	-3.0627065668	 0.719880613	 1.3408504783	 0.107644
H	-3.8018368616	-1.8608839744	 0.4778035425	 0.11273
H	-2.5995778833	-3.6528696111	-1.0340209507	 0.127301
H	-2.1752838346	-2.2687956154	-2.1700446719	 0.119433
H	-0.2611746296	-2.4826305718	 1.4084970318	 0.296768
