17
gdb 32270	2.54534	1.47334	0.94564	2.6351	78.56	-0.2161	-0.014	0.2022	1188.5554	0.138401	-418.05834	-418.050177	-418.049233	-418.091026	31.202	
N	 0.012187692	 1.4087818655	 0.1360389716	-0.598178
C	 0.0393026098	 0.0129883457	 0.0295986278	 0.19575
C	-1.1398842839	-0.7386864352	 0.1116370183	-0.045116
N	-1.1898159176	-2.0677367083	 0.0761929656	-0.272231
C	-0.0334036869	-2.7210952025	-0.0597638553	-0.016594
C	 1.1955463569	-2.0743593832	-0.1472926859	-0.195572
C	 1.2526257752	-0.6856524385	-0.0915813578	 0.187546
C	 2.567855108	 0.0619291562	-0.1385840469	-0.172769
O	 3.7078756042	-0.75995133	 0.0163990405	-0.405209
H	 0.6633447979	 1.8984028332	-0.4615250664	 0.252847
H	-0.9142229958	 1.8027279572	 0.0422856553	 0.249241
H	-2.0928155419	-0.2193781453	 0.216640973	 0.090249
H	-0.0910733818	-3.8055473114	-0.1000249385	 0.101447
H	 2.1135536877	-2.6399829732	-0.2579001473	 0.104182
H	 2.6922649196	 0.5480437134	-1.1165627826	 0.123882
H	 2.5464242624	 0.8707659743	 0.6099785582	 0.112635
H	 3.6782002242	-1.1364786582	 0.9024280704	 0.287891
