18
gdb 11676	3.36349	1.8112	1.49015	1.6772	68.4	-0.2475	0.0812	0.3287	914.0991	0.153391	-384.877068	-384.869255	-384.868311	-384.909123	29.713	
C	 0.0268718936	 1.3212372033	 0.0432313281	-0.261336
O	 0.0686411087	-0.089306912	-0.0523370568	-0.286658
C	 0.7048566043	-0.5615926601	-1.1742958391	 0.431097
C	 0.2874148989	-0.4005735439	-2.6737671362	-0.297863
C	 1.5433272015	-1.3129855517	-2.6703201295	-0.112835
C	 2.1896268214	-0.3450358615	-1.6365835928	-0.295506
C	 0.8830532533	-2.063058986	-1.4656409657	 0.096983
O	 1.6842702833	-2.7660859401	-0.5545068182	-0.442182
H	 1.0358066481	 1.7558234607	 0.0718638348	 0.114198
H	-0.5235026954	 1.769596769	-0.7961693995	 0.110478
H	-0.4895444255	 1.5624580869	 0.974686068	 0.129165
H	-0.661170407	-0.8548217839	-2.9740697193	 0.091745
H	 0.4231301101	 0.5883784867	-3.1153953177	 0.095988
H	 2.0233731282	-1.7571528531	-3.5393196227	 0.076916
H	 2.4485184828	 0.648752831	-2.0098513057	 0.085704
H	 2.9611835914	-0.7638081761	-0.9925241308	 0.113812
H	-0.0418186326	-2.6069910879	-1.7007441523	 0.064594
H	 1.8681478449	-3.6347671612	-0.9245035745	 0.285701
