27
gdb 115277	3.22581	0.8825	0.84851	0.0761	95.77	-0.2937	0.0792	0.3729	1597.0372	0.252122	-353.591049	-353.580552	-353.579608	-353.626898	40.575	
C	-0.1007416052	 1.6546510787	 0.1834065704	-0.384949
C	-0.0223576913	 0.1262359158	 0.1073901515	-0.188579
C	-1.3765951854	-0.5628284688	-0.0810920434	 0.062017
C	-2.095967493	-0.2790417898	-1.4118270272	-0.209753
C	-3.1984169208	-1.3481508483	-1.4538443777	-0.253041
C	-2.5886971837	-2.6258990027	-0.7885440977	 0.354219
C	-3.5737639617	-3.2363688872	 0.2205756235	-0.433318
C	-2.2299512936	-3.677258786	-1.8509054567	-0.430441
C	-1.3012353916	-2.1025606726	-0.073323717	-0.267068
H	 0.88796718	 2.094058493	 0.3494119977	 0.109301
H	-0.502096209	 2.0838601838	-0.7403045969	 0.117183
H	-0.7491073964	 1.9766144693	 1.0063163554	 0.111483
H	 0.6424022657	-0.167436828	-0.7171040986	 0.089368
H	 0.4467803779	-0.2556886214	 1.0237523499	 0.090603
H	-2.0421528204	-0.241441531	 0.734983216	 0.062301
H	-2.4897580059	 0.7384139647	-1.4918214651	 0.090735
H	-1.3900277028	-0.419196873	-2.2424947308	 0.089629
H	-4.0608728036	-1.0032967529	-0.8712013371	 0.089313
H	-3.5627103849	-1.5465847252	-2.4667937483	 0.087333
H	-4.5214434433	-3.5009542214	-0.26275894	 0.107253
H	-3.1656649494	-4.1469997383	 0.6739697177	 0.106685
H	-3.7995038099	-2.5323131187	 1.0293306915	 0.106806
H	-1.5810939101	-3.2528398614	-2.6252192174	 0.106912
H	-1.7003414074	-4.5265673819	-1.4039882303	 0.107517
H	-3.1285076069	-4.0661764799	-2.3436015872	 0.106339
H	-0.4103937494	-2.4168628088	-0.6324666451	 0.085344
H	-1.1961539579	-2.5111079678	 0.9371761025	 0.086808
