14
gdb 27966	3.81024	1.14462	0.8802	4.3462	74.68	-0.2501	-0.0741	0.1759	1209.271	0.102037	-436.753244	-436.745872	-436.744928	-436.785245	27.541	
O	 0.0956899977	 1.3545114833	 0.1101901746	-0.430161
C	 0.0660626957	 0.0004587248	 0.020590585	 0.352611
C	 0.0751481668	-0.7055304309	-1.1765012373	-0.325264
C	 0.0417109569	-2.1003190251	-1.1317316162	 0.168608
C	 0.0501483847	-2.8867441696	-2.3862922804	 0.102123
O	 0.0233039545	-4.0925331193	-2.4437053577	-0.261957
C	 0.0004280696	-2.7312448083	 0.1154418771	-0.055313
N	-0.0085074071	-2.0600681521	 1.2670706604	-0.263496
C	 0.0235609891	-0.7294946348	 1.2161589671	-0.034454
H	 0.1234716469	 1.7389880376	-0.7726033509	 0.304205
H	 0.1075998263	-0.1884417471	-2.1337653204	 0.104559
H	 0.0843015121	-2.2673621664	-3.3122354154	 0.071073
H	-0.0258627613	-3.8149774804	 0.1645339634	 0.139503
H	 0.0160299881	-0.1892798117	 2.1594966407	 0.127963
