15
gdb 44762	2.74153	1.70923	1.253	2.8101	72.08	-0.2359	-0.0254	0.2105	987.5068	0.111607	-420.580186	-420.572768	-420.571823	-420.611999	29.018	
O	-0.0071892816	 0.0507331973	-0.0483825886	-0.30381
C	-0.0119166472	 1.2444312076	-0.0153765638	 0.410706
C	-1.1884318352	 2.2415087202	 0.0600133855	-0.339345
C	-0.3257146385	 3.5133289356	 0.0405291421	 0.059258
C	 0.6990004667	 3.2748292988	-1.0867170296	-0.281641
C	 1.1884001412	 2.2413127761	-0.0287544959	 0.203665
O	 0.7147138734	 3.1708500136	 1.0177668319	-0.323632
C	 2.525954675	 1.7460340252	 0.0773030141	 0.066841
C	 3.6422645994	 1.3069655628	 0.1426035544	-0.312145
H	-1.8756890544	 2.1224333534	-0.7821937993	 0.130678
H	-1.7420941918	 2.1295250178	 0.9950395027	 0.144461
H	-0.7966145915	 4.4777774465	 0.2189996122	 0.100046
H	 0.3581689899	 2.9110937744	-2.0592240426	 0.115686
H	 1.4134385773	 4.0918037972	-1.1847117693	 0.135179
H	 4.6281429771	 0.9165013236	 0.2064238262	 0.194053
