20
gdb 58722	3.35415	1.39546	1.28322	1.6779	81.03	-0.2114	0.07	0.2814	1086.0603	0.169892	-365.897012	-365.888745	-365.8878	-365.929804	32.294	
C	-0.0064352489	 1.4638946415	-0.1737546969	-0.389911
C	-0.0151079277	-0.0561587213	 0.0569776964	-0.126788
C	 0.6506421458	-0.4283406242	 1.3919414727	-0.38991
C	-1.4111872863	-0.5894658483	-0.0016776988	 0.453264
C	-2.3988881137	-0.8223691325	-1.1194263299	-0.194852
C	-3.5220641107	-0.4302576737	-0.1298751572	-0.050186
C	-3.1380488667	-1.5361534632	 0.7852965364	-0.050185
C	-2.0007263608	-1.9689904608	-0.1705473735	-0.194848
N	-2.5288981345	-0.1716390281	 0.9722340307	-0.215998
H	 1.0132412937	 1.8592620767	-0.1304744321	 0.107286
H	-0.4313920302	 1.7181528091	-1.1496381407	 0.111329
H	-0.6010117031	 1.9689800269	 0.5941309169	 0.135699
H	 0.542652599	-0.5380760696	-0.7595225624	 0.076241
H	 0.0854059802	-0.0076124286	 2.2296629752	 0.135696
H	 0.6908788637	-1.5138597769	 1.5246554737	 0.111329
H	 1.6724410901	-0.0390779452	 1.4402140538	 0.107287
H	-2.2877430027	-0.759105329	-2.1927937753	 0.092584
H	-4.436676967	 0.1425068512	-0.2280740337	 0.094689
H	-3.6789059651	-2.0397399446	 1.5778198073	 0.094689
H	-1.5383997051	-2.9170504994	-0.4069986025	 0.092584
