23
gdb 113936	2.90278	0.81765	0.72548	0.9397	83.32	-0.235	0.0747	0.3097	1674.3147	0.203149	-425.400845	-425.39008	-425.389136	-425.437194	39.146	
C	-0.3376623054	 0.9659346782	 0.1154924246	-0.235127
O	 0.5690476327	-0.1183477068	 0.1520912203	-0.23505
C	 0.8986589762	-0.5877672261	-1.11971572	 0.109442
C	 1.4794040803	-1.9633704522	-1.1877858448	-0.329733
C	 0.0921402028	-1.7001226908	-1.7522273412	-0.033609
C	-1.1203829531	-2.2775921987	-1.0537889176	-0.201245
C	-1.3745571738	-3.7443273171	-1.4036393841	 0.135905
C	-2.5624371945	-4.3260401688	-0.636622728	-0.400886
O	-1.6018859674	-3.7898658217	-2.81291905	-0.436877
H	 0.0801782646	 1.820819052	-0.4380968532	 0.105797
H	-1.2930087594	 0.6869588435	-0.3504716334	 0.110486
H	-0.5183895249	 1.2703270197	 1.1492609169	 0.124454
H	 1.3055960522	 0.1811140818	-1.7792135826	 0.078718
H	 2.3062711617	-2.1524596007	-1.8630367283	 0.109668
H	 1.5329292526	-2.4986900614	-0.245002983	 0.117656
H	 0.0152758836	-1.6770092715	-2.8345501931	 0.097265
H	-0.9977811356	-2.182678369	 0.0298359671	 0.104265
H	-2.0185289767	-1.7084999649	-1.3287064984	 0.096938
H	-0.4683913108	-4.3213087344	-1.1544996737	 0.065148
H	-3.4731865112	-3.7591119548	-0.8551682176	 0.121806
H	-2.7367776331	-5.3708487121	-0.9194281843	 0.100971
H	-2.3853973365	-4.3003553444	 0.4436874301	 0.114669
H	-1.7284144847	-4.7099989298	-3.0638339855	 0.279339
