16
gdb 50008	3.58636	1.08673	1.00331	2.7136	70.98	-0.2474	-0.0335	0.2139	1189.7296	0.124006	-437.889423	-437.881589	-437.880644	-437.922583	28.718	
O	-0.159121362	 0.0608803797	-0.5298992006	-0.25902
C	-0.0351248731	 1.1817054292	-0.1038394655	 0.163523
C	 1.2558114054	 1.8926995957	 0.0337736937	-0.178464
C	 1.2712366152	 3.4245140477	-0.0926581474	-0.364177
C	 1.4990951027	 2.8011785623	 1.2276437279	 0.401611
C	 0.6173568926	 2.9342733445	 2.4794748063	-0.262752
N	 1.5790808541	 3.004946802	 3.5929454142	-0.255787
C	 2.7256047125	 2.9226351159	 3.0643420818	 0.113821
O	 2.8428505993	 2.7999992935	 1.7154998671	-0.244024
H	-0.9240359482	 1.7770855699	 0.2143851612	 0.068937
H	 2.1220567644	 1.355595396	-0.3358334974	 0.126011
H	 2.11814682	 3.8583906926	-0.6107003312	 0.145506
H	 0.3185979503	 3.9186310375	-0.2623536827	 0.132347
H	 0.001741271	 3.8403459545	 2.4584856938	 0.128528
H	-0.0529376251	 2.0819003912	 2.6276806826	 0.134186
H	 3.6718096108	 2.9398244079	 3.5922337862	 0.149755
