15
gdb 75663	2.98529	1.29676	1.10374	2.6775	73.93	-0.2461	-0.0402	0.2059	1111.3088	0.109362	-420.565909	-420.557468	-420.556523	-420.598986	31.303	
C	-0.0426864327	 1.5953171684	 0.0704666875	-0.418427
C	 0.0281194109	 0.0788344631	-0.024277576	-0.200082
C	 1.1167487474	-0.5917971189	-0.9212394259	 0.42577
O	 1.317301428	-0.6107401849	-2.0974214735	-0.295586
C	 1.7115262933	-1.3250716105	 0.2794511434	-0.193146
O	 2.0255457963	-0.2811788202	 1.220898226	-0.274198
C	 0.6595648418	-0.7102813418	 1.1500526124	 0.284349
C	 0.0159964516	-1.2345036584	 2.3034976749	 0.167145
C	-0.5738987882	-1.6485493091	 3.2657188543	-0.355527
H	 0.9075807429	 2.0020114337	 0.4243582479	 0.141325
H	-0.2552079983	 2.0222602382	-0.9140402588	 0.138215
H	-0.8353763784	 1.9104169782	 0.7557994294	 0.129524
H	-0.9391125399	-0.3537179669	-0.308602774	 0.115685
H	 2.2464488974	-2.263395362	 0.3681939498	 0.135689
H	-1.083670322	-2.022653779	 4.1194125125	 0.199263
