13
gdb 127533	3.79361	1.1751	0.90233	1.6544	66.58	-0.2602	-0.0923	0.1678	1188.8659	0.088499	-489.925035	-489.917006	-489.916061	-489.958273	27.489	
C	 0.0937200568	 1.4316287045	-0.0358228771	-0.332922
N	 0.057585225	-0.0150502316	-0.0203086206	-0.073732
N	 0.1346515853	-0.7526843789	-1.1587092111	-0.250439
C	 0.0710227768	-1.9770659368	-0.7475540178	 0.317246
O	-0.0445478196	-2.097326306	 0.6060511976	-0.224995
C	-0.0553478205	-0.8007176737	 1.1101320213	 0.483502
O	-0.1440716201	-0.4981170099	 2.2633846382	-0.385938
C	 0.1093615589	-3.2059233256	-1.562262704	 0.089422
O	 0.2090423813	-3.209278284	-2.7624564071	-0.232958
H	 1.0333667846	 1.7828873029	-0.4692077158	 0.159838
H	-0.7437165397	 1.8256933276	-0.616817468	 0.159834
H	 0.015668512	 1.7632550724	 1.0001324141	 0.178466
H	 0.0368464092	-4.1306411209	-0.9556302299	 0.112676
