17
gdb 27685	2.79149	1.2699	0.88241	4.8411	86.51	-0.2182	-0.015	0.2032	1290.828	0.13634	-380.946236	-380.937053	-380.936108	-380.980676	32.661	
C	 0.0046466586	 1.4967766287	 0.0991277309	-0.508183
C	 0.0125035963	 0.0099956372	-0.0333870658	 0.321339
C	 0.0092450037	-0.7960139133	-1.1573957418	-0.303658
C	 0.0202242964	-2.15227201	-0.745362413	 0.211583
C	 0.0215333562	-3.3713033283	-1.6136144395	-0.516716
C	 0.029994286	-2.1360077387	 0.6435454241	 0.126905
N	 0.0255992903	-0.8129743866	 1.0549981301	-0.370879
C	 0.0429461062	-3.201935158	 1.5642395208	 0.195786
N	 0.0534996578	-4.0778635794	 2.3258691637	-0.364595
H	 0.8903994789	 1.8645745555	 0.6306583076	 0.138012
H	-0.0054154095	 1.9583516356	-0.8901981238	 0.145366
H	-0.877468063	 1.8541378634	 0.6436920356	 0.137948
H	 0.00015162	-0.4395876423	-2.1768279315	 0.102081
H	 0.8979811915	-3.3913001459	-2.2708476213	 0.13429
H	 0.0319669993	-4.2839408562	-1.0124484079	 0.14444
H	-0.8644667463	-3.4027035897	-2.257467103	 0.134301
H	 0.0284603675	-0.5166360821	 2.0163390846	 0.27198
