19
gdb 121185	2.52133	1.0518	0.80677	4.2568	76.56	-0.2382	0.0009	0.239	1446.3754	0.158925	-419.184892	-419.175389	-419.174445	-419.220273	33.51	
C	-0.0378650398	 1.5214100462	 0.2084710044	-0.390817
C	-0.2687788233	 0.0505286615	-0.1240020494	-0.115326
N	 0.8748645673	-0.5015587953	-0.8477310191	-0.293022
C	 0.7837604891	-1.8906734786	-1.1682377694	 0.000406
C	-0.071850544	-2.450869577	-2.3465205851	-0.102415
O	 1.0650547212	-3.198555177	-2.8448881114	-0.26825
C	 1.971395499	-2.532757388	-1.951811145	-0.053009
C	 2.8340936229	-1.5690671136	-2.6482239258	 0.290288
N	 3.490091793	-0.7922839015	-3.1982084115	-0.328361
H	 0.8773799251	 1.6438753418	 0.7939241903	 0.133368
H	 0.061607254	 2.1199639785	-0.7040592244	 0.120406
H	-0.8786308163	 1.9250429772	 0.7797535703	 0.119616
H	-0.3845239686	-0.5271214277	 0.8022903377	 0.10737
H	-1.2184402018	-0.0583659284	-0.6785703333	 0.086511
H	 1.0785408304	 0.0530418545	-1.6739408399	 0.231361
H	 0.5955706326	-2.4523709519	-0.2486549017	 0.10705
H	-0.9108597378	-3.110089825	-2.1040260399	 0.115653
H	-0.3978646903	-1.6835354429	-3.0614580135	 0.108682
H	 2.5987699074	-3.2376960229	-1.396537663	 0.130491
