21
gdb 59270	2.94624	1.31955	1.23426	2.0545	77.68	-0.2415	0.075	0.3165	1141.5484	0.183827	-424.210918	-424.202419	-424.201474	-424.244055	33.243	
C	-0.1102512764	 1.6055432302	 0.1884776665	-0.387801
C	 0.0613249694	 0.1034318673	-0.0741626751	 0.095447
O	 1.0243087547	-0.4525193714	 0.8093243335	-0.439861
C	-1.29535413	-0.5989589251	-0.039854803	-0.044596
C	-1.5612301562	-2.0970073031	-0.0091975379	-0.117517
C	-0.4790898391	-3.0715358984	 0.4670501124	-0.248706
C	-0.5257855289	-2.9026044624	 1.9989424631	-0.076203
O	-1.0276110527	-1.5735992763	 2.2425914815	-0.278806
C	-1.9053810388	-1.241534599	 1.1819705738	 0.053558
H	 0.8668469765	 2.0952277472	 0.1708544751	 0.12086
H	-0.7497638921	 2.0754914574	-0.566802706	 0.105779
H	-0.5638555683	 1.7751861696	 1.1714135624	 0.115873
H	 0.4850798523	-0.0252488856	-1.0795928933	 0.083819
H	 0.5694868036	-0.5844996572	 1.6531323978	 0.291308
H	-2.0281363435	-0.063999642	-0.6423584542	 0.087247
H	-2.3386452795	-2.4773423618	-0.6616464773	 0.090522
H	-0.7207247908	-4.0958917067	 0.1711714294	 0.100502
H	 0.5075806197	-2.8201024139	 0.0763110953	 0.133704
H	-1.2060935562	-3.6337471145	 2.4577918634	 0.101805
H	 0.4502932894	-2.9797888782	 2.4844528143	 0.116693
H	-2.9186638433	-1.0196028161	 1.5035812781	 0.096374
