21
gdb 87118	2.1476	1.46418	1.21745	1.5425	74.68	-0.2384	0.0636	0.302	1155.0065	0.178542	-461.340221	-461.329824	-461.32888	-461.374459	40.297	
C	 0.3986288125	 1.4756250906	-0.0602899201	-0.415977
C	 0.01386048	-0.0103560332	-0.1432770335	 0.259116
C	 0.1867963445	-0.6836735454	 1.2216908522	-0.427802
O	-1.3638651071	-0.1300096087	-0.563437219	-0.482795
C	 0.7665501721	-0.6558773514	-1.3131861834	 0.442267
O	 0.4295525951	-0.0445892738	-2.5327317355	-0.478662
C	 2.2087074089	-1.0736504289	-1.2476131687	-0.390047
C	 1.1242035599	-2.1165434906	-1.4509160123	 0.023443
O	 0.8321263519	-3.0414858958	-0.445525815	-0.420842
H	 1.4356900381	 1.5903587393	 0.2691882813	 0.119323
H	 0.2909974382	 1.9536910419	-1.0352340009	 0.132041
H	-0.2389840831	 1.992170356	 0.6673468441	 0.095853
H	-0.3906400253	-0.1243469059	 1.9670273097	 0.094165
H	-0.1624885689	-1.7135926274	 1.1953261954	 0.154523
H	 1.2314854791	-0.6762752589	 1.5474464884	 0.108519
H	-1.889030924	 0.4787989347	-0.0344807555	 0.280539
H	-0.5373769097	-0.0182621782	-2.5337014286	 0.285831
H	 2.8431956037	-0.8060539894	-2.0851692679	 0.1222
H	 2.6883397522	-1.0600759734	-0.2747660739	 0.114171
H	 1.0039864189	-2.4896719435	-2.4674322702	 0.096069
H	 1.5842257232	-3.6378440878	-0.3654361366	 0.288067
