19
gdb 71729	2.57794	2.01779	1.48387	1.3003	77.54	-0.2159	0.073	0.2889	948.0675	0.159696	-385.846432	-385.838921	-385.837977	-385.87769	31.156	
C	 0.092194387	 1.4521849191	 0.0487873473	-0.499586
C	 0.0636976611	-0.0508968322	-0.0445096097	 0.23653
C	 0.2028533985	-0.7843605628	-1.3687010313	-0.286442
C	 0.11890408	-2.2151530053	-0.8719834355	-0.073763
C	-0.7914246802	-2.3025362758	 0.3406605225	-0.077622
C	 0.7139277587	-2.3393689837	 0.5178852235	-0.170993
C	 0.6603271198	-0.8881777326	 1.0797812044	 0.357499
O	 1.3919025204	-0.397252743	 2.1407834569	-0.466548
C	-0.8344628465	-0.8608945753	 0.9031227474	-0.184982
H	 1.0096513928	 1.8595613333	-0.3931302135	 0.109808
H	-0.7551989092	 1.9031237784	-0.479514568	 0.117821
H	 0.0553284496	 1.7793482094	 1.0919928808	 0.128681
H	-0.6059797807	-0.5396079674	-2.0677922452	 0.095469
H	 1.1587894428	-0.5653926302	-1.8613906212	 0.089232
H	 0.1794263868	-3.0580628252	-1.5511734027	 0.082118
H	-1.5199092518	-3.0838712505	 0.5081969728	 0.084943
H	 1.3493805719	-3.1436710647	 0.8630643323	 0.08668
H	 2.2558785385	-0.1210179235	 1.8126181723	 0.283884
H	-1.6030236994	-0.419119778	 1.5225256769	 0.087268
