23
gdb 78663	2.54007	1.52241	1.17346	0.273	89.67	-0.2375	0.0969	0.3344	1188.5418	0.205313	-351.119996	-351.110965	-351.11002	-351.152873	35.862	
C	-0.1179265992	 1.4546768352	 0.0201133198	-0.405573
C	 0.032240732	-0.0632088274	 0.0255995068	 0.01213
C	 0.8388761769	-0.6050938667	-1.1564409742	-0.107113
C	 2.1357075615	-0.510533362	-0.3805287623	-0.134018
C	 1.2139676795	-0.5687593714	 0.9049457686	-0.082277
C	 1.2129507227	-2.1212978731	 0.7626180446	-0.026112
C	-0.001104224	-2.958861025	 1.1498733822	-0.427987
C	 1.5839391079	-1.8776346198	-0.7068364679	 0.330072
C	 2.1002673557	-2.8863193275	-1.6906160414	-0.510095
H	 0.8458613702	 1.9456754524	-0.1537083595	 0.114414
H	-0.8067018537	 1.7825428629	-0.7664967279	 0.108254
H	-0.5132919784	 1.8125737539	 0.9773919088	 0.10774
H	-0.9438775705	-0.5248856783	 0.2199608445	 0.054575
H	 0.6864002677	-0.4044386045	-2.2110765959	 0.073036
H	 3.0863809126	-0.0469873194	-0.6019907149	 0.081915
H	 1.41881388	-0.0994118775	 1.8669878512	 0.057957
H	 2.1025048956	-2.511974168	 1.2739458982	 0.062146
H	-0.9046297968	-2.6547719196	 0.6144068405	 0.118334
H	 0.1728854511	-4.0168997791	 0.9234020046	 0.111779
H	-0.2047271789	-2.8835960404	 2.2243736832	 0.110884
H	 1.3250667791	-3.6102844328	-1.9688407451	 0.118526
H	 2.4427835615	-2.4024113227	-2.6119331373	 0.116448
H	 2.9465734572	-3.4475740291	-1.2772029965	 0.114963
