20
gdb 106471	2.52608	1.62703	1.25563	3.4386	78.47	-0.2361	0.022	0.258	1080.9856	0.172473	-403.16999	-403.161819	-403.160874	-403.202557	32.283	
C	-0.201427271	 1.5353680257	 0.0205508128	-0.391063
C	 0.0837401495	 0.0294236273	-0.0472746282	-0.290376
C	 0.732639865	-0.5076940475	 1.2062444465	 0.197513
C	 0.0940834795	-0.4559508407	 2.6411621859	-0.251368
C	 1.2059950713	-1.49266053	 2.9326644303	-0.010465
C	 0.9558158427	-2.0450845958	 1.5002924338	-0.279287
N	 2.4020098559	-0.6340932914	 2.7621040423	-0.32295
C	 2.1676709165	-0.0340547036	 1.5249646832	 0.413397
O	 2.9234707714	 0.6334440716	 0.8620255637	-0.388807
H	 0.7267083075	 2.0947014758	 0.1629070906	 0.147071
H	-0.6713263184	 1.8839542589	-0.9038045043	 0.111289
H	-0.8776716115	 1.7756502629	 0.848245734	 0.111377
H	-0.8467487304	-0.5208714214	-0.2346662443	 0.08941
H	 0.7483438923	-0.1760926128	-0.8952573528	 0.112182
H	 0.1329595738	 0.4835668775	 3.1960006213	 0.111008
H	-0.9108377281	-0.8845070369	 2.6573135049	 0.103952
H	 1.2323350605	-2.1080366193	 3.8298568396	 0.082574
H	 0.033442847	-2.6231602453	 1.3995653959	 0.104365
H	 1.785829611	-2.5510503644	 0.9989931636	 0.10341
H	 3.3287135254	-0.9804029005	 2.9666506313	 0.246767
