16
gdb 49574	2.12031	1.83036	1.19289	2.0601	73.72	-0.2493	-0.0371	0.2122	1040.5555	0.122308	-400.663382	-400.655083	-400.654139	-400.696691	30.627	
O	-0.3621794035	 0.3301660852	-0.5561980623	-0.237252
C	 0.0938139059	 0.9890461461	 0.3407485896	 0.138563
C	 1.235887899	 1.9660903735	 0.1721036881	-0.070753
C	 1.1622218859	 3.1165730128	-0.9067361791	-0.234587
C	 0.0037304511	 3.2587491572	-1.7643802479	 0.35517
C	-0.9672364286	 3.3896302587	-2.460838228	-0.454738
C	 1.2961401283	 4.0661405652	 0.2957027024	-0.021102
C	 0.2429989685	 3.8160518975	 1.2897404883	-0.251971
N	 1.4357157173	 2.9367865368	 1.2971775512	-0.146041
H	-0.2808303245	 0.9047180596	 1.3868070678	 0.095336
H	 2.149605307	 1.3783362529	 0.0376761854	 0.125669
H	 2.0750075652	 3.1065050944	-1.5071792678	 0.121419
H	-1.8226273562	 3.4931594757	-3.0817420078	 0.203054
H	 1.9440447308	 4.9351197074	 0.3179193139	 0.111134
H	 0.2016897552	 4.4649911358	 2.1579159002	 0.132778
H	-0.7196276114	 3.4241618712	 0.9675984859	 0.133323
