23
gdb 106561	1.90374	1.59749	1.18773	0.9572	86.61	-0.2422	0.0919	0.3341	1224.5961	0.204784	-388.238473	-388.228722	-388.227777	-388.272788	36.859	
C	-0.4954396453	 1.2362645595	-0.5152078139	-0.262571
O	-0.4002179243	-0.1665472536	-0.3624776654	-0.291958
C	-1.6049181873	-0.7944318251	-0.1256773811	 0.427802
C	-2.8974610949	-0.7979935469	-1.0089668465	-0.310045
C	-3.1731552108	-1.7479004263	 0.1922269518	-0.089454
C	-1.7327186243	-2.3359415096	 0.0076024673	-0.007528
C	-1.3756151672	-3.2722844602	-1.1382354138	-0.445076
C	-2.5634457353	-0.6402199664	 1.1145549597	-0.01131
C	-2.1107244356	-0.9081473164	 2.5422776872	-0.447402
H	 0.5159110182	 1.6086358112	-0.6924914213	 0.126899
H	-1.1311437075	 1.5086794623	-1.3695058178	 0.112501
H	-0.8994793686	 1.7180626858	 0.3863596525	 0.11118
H	-3.4820431444	 0.1256314808	-1.0311901823	 0.086397
H	-2.8308060759	-1.243502275	-2.0007125328	 0.093977
H	-4.0894855432	-2.3065602702	 0.3742976928	 0.073026
H	-1.2977385348	-2.7304897898	 0.9285631187	 0.063358
H	-1.7904743472	-2.9727484294	-2.1034168924	 0.116269
H	-0.287581317	-3.3280535516	-1.251198674	 0.125113
H	-1.7346163041	-4.2852617931	-0.9249071309	 0.113009
H	-3.1490331665	 0.2860796727	 1.0859557368	 0.058882
H	-1.4910403949	-0.080302849	 2.9043264958	 0.119019
H	-2.9772616188	-0.9815631223	 3.2089376676	 0.115178
H	-1.5285036105	-1.8248291874	 2.6585377216	 0.122735
