16
gdb 8559	3.00221	2.66861	1.74972	1.545	63.91	-0.2182	0.0575	0.2757	766.9342	0.130444	-383.676722	-383.669919	-383.668975	-383.707045	27.737	
O	-0.0846684512	 1.3161026293	 0.1297995045	-0.471609
C	 0.0479833352	-0.060463584	 0.0143096434	 0.306088
C	 0.9083982232	-0.8825513958	-0.9324016148	-0.300383
C	 0.0228801315	-2.0740285825	-0.4530956662	-0.064621
C	 0.3821256421	-2.2717977079	 1.0545170551	-0.280183
C	-0.2796056656	-0.9243743349	 1.2488298154	 0.374071
O	-0.5845295929	-0.330714148	 2.4523947015	-0.475279
C	-1.100814297	-1.0418021298	-0.0263541108	-0.220093
H	 0.7500360762	 1.6686318221	 0.4627987605	 0.289065
H	 0.7126813154	-0.6274202285	-1.9781915841	 0.10427
H	 1.9891312368	-0.9516029826	-0.756745741	 0.085008
H	-0.1398963302	-2.9327888828	-1.0977683438	 0.081032
H	-0.2009394969	-3.0802727994	 1.5049094093	 0.106318
H	 1.4414471501	-2.3856506961	 1.3145308915	 0.086601
H	-0.6755800627	 0.6167629942	 2.2793875118	 0.280179
H	-2.1475984937	-0.9345697135	-0.2691381624	 0.099536
