17
gdb 47857	2.5055	1.74153	1.16281	1.8026	71.17	-0.2458	-0.0156	0.2302	1043.1083	0.138225	-455.17731	-455.169426	-455.168481	-455.210164	29.435	
O	-0.0147531432	 0.0107176377	-0.3145317912	-0.36874
C	-0.0254671308	 1.1827192188	-0.0428484115	 0.455673
N	-1.1671273466	 1.8703644897	 0.3047190427	-0.360171
C	-1.3884354286	 3.2540341847	 0.4864884431	 0.100767
N	-0.8608357121	 4.2896515461	 0.0020380993	-0.214672
C	 0.1824198911	 4.4593923587	-0.9906172892	-0.129654
C	 0.603975955	 3.3138367071	-1.9352373505	-0.246129
C	 1.5845793803	 2.3494372434	-1.2776879359	-0.09078
O	 1.0815930822	 1.9736761417	 0.0131832642	-0.241246
H	-1.9559510499	 1.2693008821	 0.4974508352	 0.264631
H	-2.2204612173	 3.4020205114	 1.1807156712	 0.115712
H	-0.1534445522	 5.3017502377	-1.6075367445	 0.117353
H	 1.0695303931	 4.8318778766	-0.4587331973	 0.122851
H	-0.2804305459	 2.7783363709	-2.2995837595	 0.119858
H	 1.0832072381	 3.7502437675	-2.8198561815	 0.107366
H	 1.7674721542	 1.4537549943	-1.8820394653	 0.126807
H	 2.5409586425	 2.8385326015	-1.0764435292	 0.120373
