13
gdb 28991	3.10335	1.56424	1.04002	4.2958	75.05	-0.2579	-0.0684	0.1895	1044.515	0.091679	-415.682652	-415.675675	-415.674731	-415.71416	26.414	
O	 0.0755939782	 1.3420957825	-0.0577559111	-0.421114
C	 0.0515500893	-0.0030610633	-0.0210907039	 0.350947
C	 0.0342997798	-0.7127464913	-1.2234805446	-0.167334
C	 0.0096303817	-2.0957242346	-1.1735150361	-0.100218
C	 0.0027161131	-2.7392107381	 0.0694542464	-0.025433
N	 0.0188113317	-2.0832047696	 1.2226544854	-0.31022
C	 0.0426799818	-0.7452441186	 1.175688569	 0.101241
C	 0.0606036452	-0.0056321062	 2.4062436369	 0.226787
N	 0.0766207141	 0.6963632014	 3.3279166246	-0.346399
H	 0.0853371606	 1.6971231524	 0.843051817	 0.317567
H	 0.0406274908	-0.1660462112	-2.1591377496	 0.131288
H	-0.0042794158	-2.6795055365	-2.087141206	 0.120436
H	-0.0165327506	-3.8231086766	 0.1317514721	 0.122452
