20
gdb 86269	1.74998	1.63004	1.13822	4.9222	79.28	-0.2732	0.0317	0.3049	1189.8033	0.169723	-403.161039	-403.151348	-403.150404	-403.194989	36.415	
C	-0.8765659511	 1.1732543519	-0.055479004	-0.418989
C	 0.0614032097	-0.0205845679	-0.1319093124	 0.012158
C	 1.443301066	 0.1266614145	-0.8241915021	-0.306382
C	 2.0361844679	-0.8400978465	 0.2263154865	 0.135162
O	 3.3341844607	-0.6646241879	 0.7086454932	-0.419582
C	 0.8018055781	-0.524812937	 1.1681711177	 0.087929
C	 1.1164541125	 0.5614463796	 2.2047148903	-0.460026
C	 0.1953730047	-1.6811525212	 1.8127669684	 0.227991
N	-0.2917969474	-2.6100551635	 2.3012492837	-0.348343
H	-0.3844545115	 2.0569701928	 0.362184426	 0.116565
H	-1.2333422286	 1.4375275476	-1.0566047479	 0.125991
H	-1.7542042696	 0.9509976531	 0.5604661378	 0.131658
H	-0.4703330062	-0.8721854436	-0.5663270789	 0.100214
H	 1.5265359381	-0.1553376324	-1.8752764611	 0.114555
H	 1.845428875	 1.1395999217	-0.7041877831	 0.097265
H	 1.9787330384	-1.8768192836	-0.1130427462	 0.116145
H	 3.4758780037	 0.2707716951	 0.8874377686	 0.285365
H	 1.5383457471	 1.4527030884	 1.7301083995	 0.112649
H	 0.2149282476	 0.8661749283	 2.7416397695	 0.142279
H	 1.8394655349	 0.1865329907	 2.9336700344	 0.147394
