18
gdb 81113	2.66365	1.70576	1.28578	1.0731	83.32	-0.2112	0.0051	0.2163	1026.2067	0.146609	-364.713332	-364.705372	-364.704428	-364.745222	32.262	
C	-0.2423541416	 1.4543602301	-0.0188770799	-0.335337
N	 0.0113847239	 0.0180458625	 0.0029476012	-0.122972
C	 1.2200959245	-0.4698499691	-0.7912489871	-0.07645
C	 2.1502429512	-0.0357539414	 0.3812835116	-0.268126
C	 0.875034703	-0.5070910165	 1.1733928833	 0.257288
C	 0.8600388866	-2.0030237985	 0.7977488722	-0.113827
C	 1.0915273435	-1.9721813699	-0.5146331054	-0.078025
C	 0.5785394573	-0.0936846104	 2.5180332085	 0.026458
C	 0.3371809411	 0.2706833338	 3.6384383338	-0.336243
H	 0.6340784229	 2.1141817473	 0.0873990829	 0.095123
H	-0.7336191221	 1.6972428205	-0.9671417605	 0.120741
H	-0.9399621325	 1.6928307492	 0.7896823124	 0.132733
H	 1.3361444219	-0.1142487849	-1.8140643073	 0.073699
H	 3.0754105234	-0.5921093558	 0.5444846752	 0.103214
H	 2.3287512838	 1.0387184114	 0.4457512056	 0.110553
H	 0.670380654	-2.8180733603	 1.4792744438	 0.117039
H	 1.151063006	-2.7732847759	-1.2361266165	 0.110912
H	 0.1227145429	 0.5868806578	 4.6292929862	 0.18322
