18
gdb 52529	3.74119	0.75801	0.73338	4.5372	86.17	-0.2469	-0.0503	0.1966	1650.6826	0.145179	-401.915263	-401.905134	-401.90419	-401.952394	34.784	
C	-0.228585163	 1.674454744	 0.7884230873	-0.502801
C	-0.0972681606	 0.3261056327	 0.2641452789	 0.103588
C	-0.0063641223	-0.7921003979	-0.1820396774	 0.002247
C	 0.1000672807	-2.1408931562	-0.7054786163	 0.259337
O	-0.8073525701	-2.6663977321	-1.3176634185	-0.303882
C	 1.4269586186	-2.7964119327	-0.4551534586	-0.152952
N	 1.4821712147	-4.2675024411	-0.5207614754	-0.312795
C	 2.1807173719	-3.5112030236	-1.5515197036	 0.010328
C	 1.672761021	-3.6329167	-2.9659708142	-0.403686
H	 0.608834402	 1.9361187214	 1.443395297	 0.155927
H	-0.2604157348	 2.4044849443	-0.0278861336	 0.16363
H	-1.1558766516	 1.7802478303	 1.3617663377	 0.164209
H	 2.0376866282	-2.2887403863	 0.2875370129	 0.091218
H	 2.1263275428	-4.6110860241	 0.1866134477	 0.236515
H	 3.2640138948	-3.4278974116	-1.4588422409	 0.089314
H	 0.5834850824	-3.6832228553	-2.977915858	 0.166709
H	 1.9994066426	-2.7792377267	-3.5692098102	 0.113961
H	 2.0706807826	-4.5438889951	-3.4258160646	 0.119134
