17
gdb 126376	5.63871	0.88636	0.8187	0.7288	71.61	-0.2564	-0.0107	0.2457	1436.4584	0.135664	-455.153745	-455.144837	-455.143893	-455.188762	30.981	
C	 0.0642890378	 1.3874167011	 0.4409703111	-0.383101
C	-0.0363943331	-0.0168677288	-0.1809270367	-0.296113
C	-1.4259134497	-0.5544392918	-0.1589586773	 0.42937
N	-2.2218355068	-0.7735976906	-1.1624393663	-0.369099
C	-3.3468056644	-1.2378421406	-0.528324473	 0.44614
O	-4.4096758542	-1.5790375629	-1.2413762032	-0.242762
C	-5.5316134774	-2.0529895216	-0.4890038838	-0.243472
N	-3.2762136632	-1.3092010045	 0.7805526849	-0.239829
O	-1.9691346976	-0.8446031206	 1.0315394554	-0.21247
H	 1.0991847023	 1.7381647799	 0.4108674777	 0.125747
H	-0.5554024306	 2.1023735535	-0.1075265732	 0.135939
H	-0.2654419527	 1.3779191441	 1.4829926213	 0.141301
H	 0.2889282028	-0.0046802745	-1.2233400694	 0.142775
H	 0.6144842384	-0.7095037149	 0.3643764452	 0.135073
H	-5.8828217876	-1.2834917225	 0.2049810018	 0.14523
H	-6.3030562914	-2.2849022228	-1.2228727795	 0.139817
H	-5.2633869126	-2.9481713525	 0.0799921248	 0.145456
