14
gdb 252	7.60425	2.09483	1.75454	1.4348	54.82	-0.2622	0.0545	0.3167	692.7907	0.117241	-270.401061	-270.39373	-270.392786	-270.431817	26.225	
C	-0.0510329879	 0.8585190417	-0.6570733655	-0.404362
C	 0.1735654541	-0.1176842759	 0.4948389266	 0.139386
O	 0.4817730526	 0.5582319236	 1.7088678519	-0.434019
C	-1.0766628465	-0.9567731322	 0.8169453129	-0.3343
C	-1.4671535903	-1.8520271882	-0.2626853359	 0.300765
C	-1.7734788173	-2.5885589416	-1.1620435066	-0.459861
H	 0.8616473624	 1.4283392582	-0.8663605064	 0.105297
H	-0.3309602875	 0.3242823368	-1.5691708023	 0.135754
H	-0.8473713644	 1.5666080976	-0.4048609691	 0.122702
H	 0.9866987629	-0.8109768831	 0.2271174003	 0.077504
H	 1.2132288457	 1.1591198416	 1.5367446398	 0.282666
H	-0.8691026062	-1.5318373416	 1.7266823629	 0.139645
H	-1.8991439089	-0.2730335033	 1.0623741414	 0.133732
H	-2.0524421088	-3.2427905937	-1.9503464601	 0.195091
