17
gdb 52562	4.07767	0.60893	0.53502	3.5602	86.35	-0.2546	-0.0506	0.204	2005.6121	0.131395	-384.653171	-384.642435	-384.641491	-384.693182	35.861	
C	 0.0862481719	 1.4546176894	 0.0088653454	-0.506064
C	 0.0307696098	 0.0032752055	 0.0019464328	 0.198483
C	-0.0360281464	-1.2019339768	-0.0035816466	-0.049795
C	-0.0944919037	-2.6486950623	-0.0107991474	 0.208256
O	-1.1471945852	-3.2536031632	-0.0038960571	-0.301009
C	 1.2539921998	-3.352122796	-0.0276939528	-0.296927
C	 1.1183961855	-4.8831813144	-0.0346892354	-0.363265
C	 2.4137769867	-5.5502882107	-0.0508278791	 0.279972
C	 3.4945939335	-6.0760439302	-0.0641973626	-0.429414
H	 1.1187584041	 1.8183676159	 0.0002514131	 0.158789
H	-0.4268121804	 1.865512959	-0.8674049096	 0.165297
H	-0.4088299402	 1.856324916	 0.8996181511	 0.165299
H	 1.8157093169	-3.0042542972	-0.9033301168	 0.141724
H	 1.8326081177	-3.0137191272	 0.8406157633	 0.141724
H	 0.5405804023	-5.198465654	 0.8411169567	 0.147068
H	 0.5237201806	-5.1890156636	-0.9025236985	 0.147075
H	 4.440813937	-6.5572473303	-0.0767951766	 0.19279
