18
gdb 84583	2.34686	2.04096	1.23716	3.4546	77.3	-0.2389	0.0027	0.2416	1015.8669	0.149001	-401.977415	-401.969785	-401.968841	-402.009489	29.793	
C	-0.3137449743	 1.5562462367	-0.0152028637	-0.389426
C	-0.0183077946	 0.0552898594	-0.0187019894	-0.033555
C	 0.8018996471	-0.4287518285	-1.2088035006	-0.059906
C	 1.8422086357	-1.1791880732	-0.8448950245	-0.108603
C	 1.8656335887	-1.3592477451	 0.6498235539	-0.019469
C	 2.9067453907	-0.6144519483	 1.5325141175	-0.394104
C	 1.7596262564	 0.3821230433	 1.8059058574	 0.412824
O	 1.658713436	 1.4400774535	 2.3627601651	-0.351369
N	 0.8248726397	-0.398078519	 1.106249865	-0.111828
H	 0.6021690151	 2.144467834	-0.1031516673	 0.134381
H	-0.9660685144	 1.797102362	-0.8602516842	 0.11223
H	-0.8160119449	 1.8520997273	 0.9082342795	 0.143246
H	-0.977681122	-0.4832117807	 0.0100384041	 0.09501
H	 0.5212372488	-0.1842802918	-2.2272087629	 0.106194
H	 2.5484742456	-1.6553775412	-1.514179379	 0.107781
H	 1.6800257361	-2.398109952	 0.9485958618	 0.092442
H	 3.2878995788	-1.1556609809	 2.400799581	 0.129906
H	 3.7378402814	-0.1588875554	 0.9899566766	 0.134245
