18
gdb 71523	2.51733	1.58076	1.4453	2.0454	83.78	-0.2317	0.0227	0.2544	1021.293	0.146358	-364.687944	-364.679881	-364.678937	-364.720109	31.914	
C	 0.0031345289	 1.5235458767	-0.0108433368	-0.523888
C	 0.0303675916	 0.0194057204	-0.040051607	 0.27156
C	 0.5144283004	-0.944986984	-1.1193693676	-0.231447
N	 0.029655017	-1.9435470192	-0.0747185192	-0.184349
C	 0.5290363429	-0.9911649527	 1.0445961371	-0.065627
C	-0.8123046159	-1.062447086	 1.7736476969	-0.311316
C	-1.1565171624	-0.9786804743	 0.277372613	 0.232731
C	-2.4267329498	-1.0560581549	-0.3748980679	 0.100054
C	-3.4984381442	-1.0944999229	-0.920941791	-0.3639
H	 1.0124253099	 1.9342748619	-0.124680867	 0.124469
H	-0.6142799808	 1.9166930009	-0.8256340371	 0.131484
H	-0.407871365	 1.897663237	 0.9331126533	 0.123304
H	-0.0433957343	-0.9918367113	-2.0599662907	 0.10865
H	 1.5923748311	-1.0059104614	-1.3040250597	 0.097634
H	 1.5425525264	-1.0973546527	 1.4330054038	 0.085539
H	-1.0491455592	-2.0130090879	 2.2574996859	 0.116456
H	-1.0973025876	-0.2075630261	 2.3908110129	 0.104576
H	-4.444446799	-1.1387591735	-1.4015523191	 0.184072
