18
gdb 39562	2.80698	2.10416	1.66988	1.5896	79.31	-0.2139	0.011	0.2249	873.075	0.151526	-364.800421	-364.794126	-364.793182	-364.830654	26.962	
C	-0.0135597398	 1.537720301	-0.1029243138	-0.29264
C	 1.3989546533	 2.0557721204	-0.0008501054	-0.05703
C	 2.2846166521	 1.4504267447	 0.7867822554	-0.046208
C	 1.8729243323	 0.2262750887	 1.5811036611	-0.096566
C	 0.9954080393	 0.6191789627	 2.7624263514	-0.069727
C	-0.2403714238	 0.1407762332	 2.6136180391	-0.098002
C	-0.3305843066	-0.6683819422	 1.3706478593	-0.086495
C	-0.0653102984	 0.0188991284	 0.0621468818	-0.01835
N	 1.0195789263	-0.6883569632	 0.7615589348	-0.11346
H	-0.63066341	 2.0224318804	 0.6658032466	 0.121295
H	-0.4522028516	 1.8097430564	-1.0676913148	 0.105133
H	 1.6679026039	 2.9346099132	-0.5790073268	 0.092026
H	 3.3012989604	 1.8145086976	 0.8933778778	 0.090342
H	 2.7627338114	-0.3286128789	 1.8996703169	 0.086232
H	 1.3420549338	 1.2758420328	 3.5518123449	 0.102185
H	-1.0736963555	 0.2969872734	 3.2878211718	 0.100522
H	-0.883905686	-1.6047391669	 1.3803541203	 0.088455
H	-0.3741980211	-0.5143894618	-0.8349016006	 0.092288
