16
gdb 29407	6.68427	0.83703	0.76083	3.1448	76.38	-0.2148	0.0043	0.2192	1465.9022	0.12356	-437.909948	-437.901345	-437.900401	-437.944204	30.559	
C	 0.1588113201	 1.4752127238	-0.0248629005	-0.498743
C	-0.0187965283	-0.0102151807	 0.0085543003	 0.271794
C	-0.2438151266	-0.834352482	-1.0462310834	-0.11446
O	-0.3606933177	-2.1395145565	-0.6292153668	-0.186669
C	-0.1904074022	-2.1179960648	 0.7131681627	 0.45898
O	-0.3251219511	-3.2842731755	 1.3768698201	-0.21283
C	 0.2517845482	-4.4051133572	 0.8427779914	 0.110097
N	 0.0390350106	-5.5119157238	 1.3984712779	-0.421613
C	 0.0206844304	-0.8613442583	 1.1728853693	-0.418657
H	 1.1353977877	 1.7703231283	 0.3749774849	 0.133018
H	 0.0855070997	 1.8582830148	-1.0462857189	 0.126843
H	-0.6024781919	 1.9817338319	 0.5787967307	 0.134884
H	-0.3422034092	-0.6763409017	-2.1068814088	 0.136507
H	 0.8580425413	-4.1949631527	-0.0421754453	 0.120589
H	 0.541116476	-6.2495259404	 0.9082845685	 0.239168
H	 0.1853880229	-0.5765832453	 2.1990904379	 0.121093
