15
gdb 24387	3.77141	1.6324	1.14951	3.0174	72.27	-0.1913	0.0101	0.2014	987.9769	0.116349	-416.841369	-416.834652	-416.833708	-416.87255	26.245	
C	-0.0164413596	 1.477047927	-0.0447600708	-0.274006
N	 1.3366313525	 2.0528762027	 0.0293903553	-0.25589
C	 2.3523518612	 1.3187277448	 0.2516094788	 0.080931
N	 2.384129796	-0.0509692404	 0.4731643077	-0.432958
C	 1.1836804109	-0.724412505	 0.2300712818	 0.257661
C	 0.0547702072	-0.010971309	-0.0077322842	 0.289802
O	-0.9944658652	-0.8568335333	-0.204350485	-0.189417
C	-0.5050573562	-2.12113428	-0.0872930173	-0.008742
C	 0.829742157	-2.1095878555	 0.1835576457	-0.31922
H	-0.6159872929	 1.8866964864	 0.783922341	 0.117847
H	-0.5009325506	 1.8418281289	-0.9620286357	 0.120467
H	 3.3346531923	 1.7890278664	 0.301494043	 0.113114
H	 3.2617507465	-0.5325337976	 0.3648541893	 0.251319
H	-1.220659719	-2.9149788478	-0.2204280543	 0.137669
H	 1.4662494497	-2.9686181675	 0.3259899148	 0.111425
