18
gdb 105298	2.68908	1.17061	0.94582	1.0264	74.89	-0.2591	-0.0463	0.2128	1260.2741	0.144827	-439.091386	-439.081837	-439.080893	-439.126101	33.743	
C	-0.4800109809	 1.4382378994	-0.2783949159	-0.397778
C	-0.0204628707	-0.024748143	-0.2207625453	-0.264976
C	 0.865695209	-0.449437656	-1.3768361398	 0.182209
C	 0.8408864441	-1.896650972	-1.84673889	-0.279277
N	 0.3068998562	-0.8547301171	-2.6713749389	-0.097355
C	-1.0234971143	-0.7754836157	-3.0634329333	 0.139078
O	-1.7077671136	-1.7264121387	-3.3456521401	-0.278454
C	 2.2005381095	 0.2261790938	-1.5117280146	 0.137822
O	 2.6939562842	 0.9246604211	-0.6643896606	-0.252687
H	 0.3759428344	 2.1163901237	-0.2748152291	 0.149213
H	-1.0763851031	 1.6406790652	-1.1738992145	 0.117324
H	-1.1008676577	 1.6722658245	 0.5909744082	 0.124514
H	 0.5496455088	-0.1869433019	 0.7004681252	 0.129648
H	-0.8881232219	-0.6929040849	-0.1815855271	 0.113839
H	 1.7531485728	-2.3713344787	-2.1990619687	 0.136165
H	 0.1345576166	-2.5550448419	-1.3473110658	 0.149945
H	-1.3614948688	 0.2715365178	-3.1638782158	 0.098628
H	 2.7127519453	 0.0063207445	-2.474432854	 0.092141
