15
gdb 69716	4.0708	1.383	1.27383	5.4015	64.47	-0.2648	0.0035	0.2683	993.456	0.111637	-457.736021	-457.728791	-457.727847	-457.767652	27.714	
C	-0.1553183022	 1.4832979063	 0.0168986759	-0.513913
C	 0.1522402698	 0.0237536285	 0.0111624705	 0.401842
O	-0.7076112777	-0.8728112779	 0.7180115096	-0.261231
C	 0.6891138811	-0.9221565973	 1.013671477	-0.048631
C	 1.365919106	-1.7928182968	-0.0827811871	-0.289448
C	 0.815465707	-0.8154249863	-1.1347764662	 0.036126
O	-0.0229495982	-1.8572869996	-1.7052967355	-0.247998
C	 0.422771803	-2.7902692241	-0.7830961866	 0.472551
O	 0.121609174	-3.9336260603	-0.7085163545	-0.318076
H	 0.7088386601	 2.0644042168	-0.3203197208	 0.130764
H	-0.9930000293	 1.7002768315	-0.6549728883	 0.146478
H	-0.4288974892	 1.8114142891	 1.022875041	 0.143723
H	 0.9940659904	-0.7902978134	 2.0446845528	 0.122026
H	 2.4175839716	-2.0455639453	 0.0248031425	 0.118992
H	 1.4174605538	-0.2985178112	-1.8794567304	 0.106795
