19
gdb 71837	2.47309	1.74536	1.53325	0.6931	80.18	-0.2154	0.0197	0.2351	984.8452	0.159759	-385.864816	-385.857041	-385.856097	-385.896366	31.798	
C	-0.1309606693	 1.5082480261	-0.0065243124	-0.503569
C	-0.0572827458	 0.0108722989	-0.0692488738	 0.289091
C	 0.7382014116	-0.8074700786	-1.0759120289	-0.268891
C	-0.1812514948	-2.0567981319	-0.7586612999	-0.174214
C	 0.4700665415	-2.8307226555	 0.3569770309	-0.1023
C	 0.4395128862	-2.0913418166	 1.4755083731	-0.082443
C	-0.3352667452	-0.8492641158	 1.231161603	-0.215642
C	-1.1378243924	-1.0237099907	-0.0363046993	 0.34589
O	-2.4921557008	-0.8508780609	-0.2020661695	-0.464295
H	 0.8150925289	 1.9383872285	 0.3421410446	 0.120216
H	-0.3465295926	 1.9339354925	-0.993173757	 0.120696
H	-0.9212244269	 1.838199665	 0.6752690136	 0.123222
H	 0.5523203456	-0.4375980696	-2.0882115441	 0.102824
H	 1.8135077717	-0.9429542498	-0.9197663092	 0.089006
H	-0.5499138336	-2.6132465862	-1.6193727607	 0.069142
H	 0.9948655021	-3.7678861729	 0.2177891006	 0.091561
H	 0.9125213762	-2.3301329599	 2.4202741157	 0.091973
H	-0.7585451409	-0.2648073936	 2.0407547053	 0.080093
H	-2.9505215719	-1.5353939389	 0.299648388	 0.287638
