13
gdb 5378	5.37801	1.72464	1.31656	2.7971	64.78	-0.2531	-0.0753	0.1778	873.7428	0.096121	-394.800153	-394.793066	-394.792122	-394.832727	24.374	
C	-0.0056923051	 1.43995873	 0.0336069088	-0.321475
N	-0.0058753041	-0.0106276485	-0.0146231494	-0.292242
C	 0.5452492043	-0.6664179685	 0.9020646846	 0.462518
O	 1.1728645932	 0.0357576706	 1.9941785984	-0.214888
C	 1.7502379391	-0.6809140061	 2.9551220428	 0.158922
N	 1.8117438596	-1.9585093946	 3.0183702588	-0.280657
C	 1.1945494451	-2.5968165404	 1.9455807703	 0.070727
N	 0.5988809562	-2.0440659189	 0.9483754363	-0.261344
H	 1.0127482564	 1.850197648	 0.0373406487	 0.125797
H	-0.5290030947	 1.8229787028	-0.844646615	 0.130279
H	-0.509768398	 1.8206721649	 0.9316586956	 0.125784
H	 2.1901454196	-0.0505452114	 3.7253445816	 0.155361
H	 1.2334773184	-3.6832249678	 1.9758204584	 0.141218
