12
gdb 20689	7.25153	1.35159	1.14739	1.7962	65.03	-0.2684	-0.0448	0.2236	975.3579	0.082868	-377.497458	-377.490281	-377.489337	-377.529265	25.286	
C	 0.0102806991	 1.4765527318	-0.0740041026	-0.50507
C	-0.0656133274	-0.0021191904	 0.0437724391	 0.399445
N	-1.064262559	-0.7862937702	-0.2237675604	-0.337233
C	-0.5435193906	-2.0315388714	 0.0759283778	 0.186774
N	 0.700633945	-2.0144453141	 0.5022514688	-0.172765
O	 1.0215371052	-0.6592277381	 0.481405171	-0.181687
C	-1.2757286352	-3.2377114807	-0.0591066999	 0.279035
C	-1.9030337665	-4.2554885592	-0.1763129552	-0.366774
H	 0.8053167165	 1.7663106887	-0.7674394784	 0.162164
H	-0.9439802999	 1.8559547973	-0.4381402131	 0.167931
H	 0.2349443829	 1.9283111877	 0.8967025686	 0.162138
H	-2.4572183001	-5.1560123116	-0.2797423258	 0.206043
