17
gdb 60778	2.08171	1.33335	0.85994	2.351	80.84	-0.2522	-0.0283	0.2239	1311.0681	0.130702	-384.624982	-384.614704	-384.613759	-384.660681	36.495	
C	 0.0588996826	 1.4997193381	 0.067425811	-0.422423
C	 0.0089781164	-0.0353126262	-0.0134977036	-0.057816
C	 0.7279215944	-0.6035473663	 1.2000130904	 0.164715
O	 1.8730388833	-0.967692515	 1.2038031264	-0.247495
C	-1.4601372734	-0.5651331995	-0.0532994093	-0.373832
C	-2.1906691783	-0.0495729599	-1.2138284855	 0.320044
C	-2.7738364008	 0.382401754	-2.1707156784	-0.425451
C	-1.4842556438	-2.0314610512	-0.0142640651	 0.31514
C	-1.4636584566	-3.2310440443	 0.0360655031	-0.42018
H	 1.0950292443	 1.8461607984	 0.0395636518	 0.138643
H	-0.4826283677	 1.9418563933	-0.7722486903	 0.145624
H	-0.3974215483	 1.862535573	 0.9959146956	 0.121501
H	 0.5366504995	-0.3812182571	-0.9060895465	 0.118792
H	 0.1161805589	-0.6112455851	 2.1340113842	 0.075098
H	-1.9614341843	-0.193843902	 0.8544519162	 0.138229
H	-3.3006053044	 0.7545356428	-3.0146653989	 0.203427
H	-1.4532095518	-4.2924198728	 0.0773456689	 0.205985
