15
gdb 27993	3.97658	1.2317	0.94591	3.8229	71.46	-0.2234	-0.0521	0.1712	1179.1041	0.113058	-454.016332	-454.008444	-454.0075	-454.048724	29.226	
C	-0.046111475	 1.5086616085	 0.0485744471	-0.482469
C	-0.00023599	 0.0217947552	-0.0319916866	 0.284153
C	-0.0415480155	-0.7693234527	-1.1314167752	-0.213237
N	 0.0341637986	-2.0931454277	-0.6503473985	-0.125309
C	 0.031160493	-3.2716075707	-1.3469577692	 0.184882
O	 0.1020616179	-4.364551663	-0.8143084466	-0.337729
C	 0.1176387964	-1.9754351786	 0.7517621927	 0.479502
O	 0.2026246677	-3.0488864501	 1.5201131199	-0.404502
N	 0.099360725	-0.7444171314	 1.1400455721	-0.387363
H	 0.8556419193	 1.896587146	 0.5342462196	 0.143384
H	-0.1280828501	 1.9572394171	-0.944447022	 0.121933
H	-0.8995059901	 1.8358167603	 0.6519788811	 0.143455
H	-0.1146436911	-0.5605336977	-2.1851505917	 0.140298
H	-0.0415934915	-3.138819955	-2.4376922939	 0.126577
H	 0.1928862252	-3.8333076003	 0.931166921	 0.326426
