17
gdb 4815	4.66162	1.33217	1.06827	2.9779	72.09	-0.203	0.0387	0.2417	1097.4103	0.14297	-363.890041	-363.881806	-363.880861	-363.923335	29.547	
C	 0.2007083269	 1.380630802	 0.0603885731	-0.335344
N	 0.0159598304	-0.0539864226	 0.0057086007	 0.026389
C	-0.2423895427	-0.7805661034	-1.1295563558	-0.084926
C	-0.2291596053	-2.1161284092	-0.8002683989	-0.282621
C	 0.045286329	-2.2103926632	 0.5945623488	 0.208667
C	 0.1359710452	-3.4552565927	 1.4276752516	-0.157714
O	 1.0401513814	-3.3266954093	 2.5196029116	-0.415363
C	 0.1964865308	-0.918618918	 1.0564624035	-0.185721
H	 1.2468290934	 1.6651124893	-0.1041162968	 0.136994
H	-0.4149806251	 1.8590445091	-0.7049272761	 0.140171
H	-0.1128451531	 1.7557289045	 1.0376234979	 0.141916
H	-0.4038666004	-0.2832855269	-2.0732353256	 0.113996
H	-0.4130702368	-2.9378263554	-1.4765350284	 0.0926
H	-0.8291461833	-3.6990158922	 1.8891223379	 0.115622
H	 0.400231537	-4.3105477711	 0.784694293	 0.087451
H	 1.8677968865	-2.9957385101	 2.1542403726	 0.275417
H	 0.4134474663	-0.5517429208	 2.0469275109	 0.122465
