14
gdb 69016	2.76795	1.40978	1.17592	4.0526	68.05	-0.2931	-0.0364	0.2568	1049.7261	0.099687	-436.695719	-436.687684	-436.68674	-436.728497	29.163	
C	-0.0324068917	 1.5871939211	 0.0547440437	-0.490076
C	 0.0222978231	 0.0906065898	 0.0135017449	 0.023938
C	-0.9026124351	-0.8449249217	 0.7962738697	-0.362522
C	 0.5773806555	-0.9593578728	 0.9718872364	 0.313889
O	 1.1199951832	-1.7405175749	-0.1258859251	-0.288595
C	 0.7095648657	-0.7614752229	-1.0339076914	 0.449592
O	 0.929914623	-0.7195969001	-2.1959183725	-0.30535
C	 1.3331688677	-0.8263352984	 2.1691977788	 0.231661
N	 1.9258206509	-0.6992825479	 3.1543118834	-0.332706
H	 0.9400235187	 2.0244918192	-0.186753214	 0.152831
H	-0.7626964695	 1.9591941611	-0.6704765739	 0.153997
H	-0.3319363369	 1.9376448838	 1.0462434707	 0.143193
H	-1.4481808728	-0.3555431974	 1.5974886696	 0.155822
H	-1.4184448117	-1.665087399	 0.3077739197	 0.154326
