18
gdb 46065	3.69587	1.04203	0.91936	2.1807	72.02	-0.2492	-0.0292	0.22	1279.7951	0.147917	-439.071881	-439.063663	-439.062719	-439.105647	30.4	
O	 0.3549495729	 0.3574253684	-0.8137739389	-0.293696
C	 0.1666729924	 1.365838459	-0.1894987329	 0.369865
C	-1.1368539801	 2.1660489665	-0.1341991052	-0.182704
O	-0.9278601895	 3.2176474483	 0.7869066789	-0.260061
C	 0.4831004284	 3.4703264769	 0.9303472022	 0.065214
C	 1.1627393592	 2.1128705163	 0.6982158007	-0.361766
C	 0.9502102447	 4.544852319	-0.0278303123	 0.0204
C	 0.8406007825	 5.9704523677	 0.3534387742	-0.243827
N	 2.1629133756	 5.3203299433	 0.2812920415	-0.320525
H	-1.3782248808	 2.532951129	-1.1441696469	 0.12765
H	-1.9694575453	 1.5399217966	 0.2038883496	 0.13947
H	 0.6222661951	 3.8322265301	 1.9556555216	 0.081592
H	 1.2639579325	 1.5526603007	 1.6345857354	 0.141273
H	 2.1469459806	 2.1689771276	 0.2292325768	 0.149032
H	 0.8657446091	 4.2833071197	-1.0822723236	 0.095115
H	 0.6610948314	 6.7256342002	-0.4057667702	 0.125247
H	 0.4232886687	 6.2015284645	 1.3304516067	 0.118003
H	 2.4868329027	 5.0977068361	 1.2210730824	 0.22972
