18
gdb 85773	3.04556	1.21209	0.9205	1.4846	76.06	-0.2494	-0.0028	0.2466	1267.1801	0.148237	-435.310495	-435.301342	-435.300398	-435.344808	33.444	
C	-0.687088336	 1.3087216728	 0.0981063117	-0.399589
C	 0.0323148478	-0.0258557398	-0.0374339408	-0.086429
C	 1.039514086	-0.2099614481	-1.219078782	-0.18454
N	 2.0681191971	-0.509620911	-0.2138655493	-0.145744
C	 3.4204327091	-0.7408827236	-0.423255706	 0.430885
N	 4.1152072269	-1.0815845369	 0.7240333596	-0.558199
O	 3.9268900837	-0.6226408553	-1.518756688	-0.374715
C	 1.2296994719	-0.2458775539	 0.8867339793	 0.38017
N	 1.3633831831	-0.145598761	 2.1381403045	-0.555203
H	 0.0140890341	 2.1450144438	 0.0131241728	 0.1256
H	-1.4512749945	 1.4223972143	-0.6770886915	 0.120329
H	-1.1732167947	 1.3778864165	 1.0750119031	 0.143115
H	-0.6763817293	-0.8568567383	 0.0268725067	 0.106314
H	 0.8469655332	-1.0358381043	-1.9076252171	 0.124003
H	 1.249850043	 0.7009070511	-1.7860783751	 0.130228
H	 3.6228925563	-1.6169673675	 1.4239936869	 0.258319
H	 5.0531946566	-1.4016426727	 0.5322052468	 0.267061
H	 2.3290379055	-0.2652277362	 2.4437995985	 0.218396
