22
gdb 120403	3.46818	0.81894	0.70147	2.6523	84.73	-0.2281	-0.0206	0.2075	1671.0839	0.19164	-404.351003	-404.340723	-404.339779	-404.386859	36.947	
C	-0.0029437238	 1.5769443017	 0.0302633327	-0.380713
C	-0.0201837071	 0.046341644	 0.041901331	-0.176195
C	-1.4291515889	-0.5279013137	-0.1142931009	-0.128157
N	-1.4372713036	-1.9792950761	-0.0798129995	-0.095531
C	-0.9050625626	-2.7041463124	-1.2577496107	-0.294659
C	-2.1191516358	-3.6368088419	-1.1523764937	 0.382014
O	-2.4267846821	-4.693599331	-1.6151620061	-0.290727
C	-2.7564739299	-2.6623395933	-0.1485740559	-0.057812
C	-3.3216297442	-3.2063897695	 1.1532929931	-0.397697
H	 1.0151017507	 1.961934453	 0.1397634738	 0.116661
H	-0.4091264414	 1.9735635116	-0.9068001361	 0.115968
H	-0.6030756831	 1.9869860409	 0.8501733727	 0.115964
H	 0.6159431275	-0.3343709279	-0.767611122	 0.099813
H	 0.4087054197	-0.3340455415	 0.9759237763	 0.108048
H	-2.0603956423	-0.1695995026	 0.7088012087	 0.101985
H	-1.8828453046	-0.1424262855	-1.0514771141	 0.071943
H	-0.9273644834	-2.125611326	-2.1977289179	 0.112421
H	 0.0881587552	-3.1486170025	-1.1391096229	 0.131221
H	-3.5161563426	-2.054049171	-0.6742172022	 0.0849
H	-2.5754409865	-3.8150881881	 1.670606089	 0.127489
H	-3.6233256303	-2.3922083934	 1.819879795	 0.121082
H	-4.201209821	-3.8251884748	 0.9506508797	 0.13198
