17
gdb 125622	3.22011	1.18396	0.8849	2.1111	72.58	-0.2021	0.0284	0.2304	1280.8909	0.135499	-455.158273	-455.148661	-455.147717	-455.193129	33.818	
C	 0.04973773	 1.4578693756	-0.0495921307	-0.520169
C	-0.0055395868	-0.0323796817	 0.0581796612	 0.252672
N	-0.1783997152	-0.8083334829	-1.0148459356	-0.289842
N	-0.1961594302	-2.0618367505	-0.5356873916	-0.253253
C	-0.0023909939	-2.1342519839	 0.8091889291	 0.318863
C	 0.0068863784	-3.4288517144	 1.546850631	-0.199026
O	 0.4695602369	-4.434127467	 0.6483553995	-0.426693
C	 0.1144597507	-0.8245598304	 1.2255050829	 0.079068
O	 0.2895863345	-0.4339008654	 2.5240044316	-0.451895
H	 1.003031427	 1.8617626887	 0.3151341106	 0.120461
H	-0.0582646259	 1.7526608139	-1.0953880423	 0.149709
H	-0.7518387968	 1.9413803624	 0.5227323178	 0.124476
H	-0.2197894244	-2.8470589657	-1.1633768982	 0.276838
H	 0.6539830088	-3.3339471839	 2.4311837135	 0.118299
H	-1.0039371368	-3.675550076	 1.911393464	 0.108253
H	 0.3107793315	-5.2916251961	 1.0532799043	 0.293979
H	 0.4671779122	 0.5112536372	 2.537033203	 0.298259
