15
gdb 8588	4.79317	1.86937	1.70703	3.1446	66.84	-0.2286	-0.0394	0.1893	779.5937	0.11896	-362.518514	-362.512385	-362.511441	-362.548583	24.631	
O	-0.0698268016	-0.0755845033	-0.2585315165	-0.263581
C	-0.0341799919	 1.0909562875	-0.0412274057	 0.332905
C	-1.1551136597	 2.1937872023	 0.2587005669	-0.44181
C	 0.0246812242	 2.9914874161	 0.8509327921	 0.236178
C	 1.1007563155	 4.1278417517	 0.9309902196	-0.248234
N	 1.9472231219	 2.8514807838	 1.2147331639	-0.170107
C	 0.7574957097	 2.4360403889	 2.0960457041	-0.192986
C	 1.0605539209	 2.2359452723	 0.0569284587	-0.078783
H	-1.535036961	 2.5917525716	-0.6878467665	 0.138232
H	-1.9917028786	 1.8931009205	 0.8936730559	 0.132224
H	 1.3705461844	 4.6390019836	 0.0041660713	 0.114992
H	 1.081019584	 4.8103934624	 1.7847916787	 0.113667
H	 0.6813744263	 3.0028827326	 3.0276453756	 0.103957
H	 0.719179695	 1.3590472011	 2.2865433657	 0.122788
H	 1.3614295608	 2.5897568088	-0.9348898538	 0.100557
