18
gdb 38243	3.20186	1.80886	1.4391	1.7732	77.04	-0.2371	0.002	0.2391	933.4158	0.150342	-401.858875	-401.852298	-401.851354	-401.88957	27.505	
C	 0.0057934632	 1.5766104909	 0.1488166933	-0.239256
N	 1.4959715681	 1.2365120909	 0.0800991424	-0.175859
C	 1.1301653435	 0.0350638584	 0.9959537423	-0.242137
C	 0.0116884879	 0.034704933	-0.0575708962	 0.378962
O	-1.0511131837	-0.8103639632	-0.3243579627	-0.309905
C	-1.6316245505	-0.4645773796	-1.590306819	-0.142994
C	-0.7314126463	 0.2067294948	-2.6115570394	-0.045937
C	 0.525178711	 0.6160386644	-2.4046770612	-0.166145
C	 1.1106282572	 0.2546883421	-1.083077121	-0.006757
H	-0.3021684834	 1.9592264202	 1.1244488709	 0.099152
H	-0.3373357341	 2.2152709921	-0.6649270241	 0.110329
H	 1.8618167177	-0.7757511618	 0.9700044797	 0.107604
H	 0.8933672791	 0.3418739601	 2.0169342649	 0.106574
H	-2.0271550329	-1.3975753678	-2.0091568333	 0.126603
H	-2.5002441001	 0.1940636418	-1.4200154569	 0.115214
H	-1.2145229184	 0.3604064979	-3.5744852421	 0.102199
H	 1.1087532376	 1.0877781173	-3.19011754	 0.098606
H	 1.879432304	-0.5204583917	-1.1722175277	 0.083747
