14
gdb 21242	3.44468	2.01391	1.3247	3.6547	60.09	-0.2137	0.0108	0.2245	879.2849	0.108514	-412.016264	-412.008543	-412.007599	-412.04878	27.135	
C	-0.5600083227	 0.8360095844	 0.1677082158	-0.260861
O	 0.7864663969	 0.6937041217	-0.3086581736	-0.272849
C	 0.9855022261	-0.3260876663	-1.1603693117	 0.361159
C	 0.6058629916	-1.6550034268	-1.2139986744	 0.179605
N	-0.2434361897	-2.3654644993	-0.3432195165	-0.604447
N	 1.1648512078	-2.205523688	-2.3267812833	-0.24059
N	 1.8745060158	-1.3117006951	-2.9602570064	-0.133759
N	 1.7746997686	-0.1691618625	-2.2518247834	-0.233427
H	-0.5289748632	 1.6225675999	 0.9223634409	 0.137324
H	-1.2241167323	 1.1329110048	-0.6516946637	 0.130116
H	-0.9242057935	-0.0989031589	 0.6019607584	 0.154528
H	 0.222113583	-2.6001451839	 0.5282904885	 0.248149
H	-0.5132354667	-3.2369996928	-0.7882388284	 0.252875
H	 2.2573586384	 0.6637813727	-2.549235932	 0.282176
