14
gdb 130708	3.48536	1.69509	1.27071	3.659	67.17	-0.2223	-0.0019	0.2203	934.4447	0.103279	-432.834584	-432.82796	-432.827016	-432.865698	25.636	
O	-0.2042245039	-0.1051008215	 0.1250771485	-0.407196
C	-0.0523836172	 1.0922803736	 0.1181334167	 0.435721
N	-1.0183674721	 2.1030078072	 0.073345771	-0.312746
N	-0.5435849814	 3.4073256769	 0.2145941601	-0.300918
C	 0.7320126731	 3.2050189887	 0.2061344566	 0.36337
C	 2.0868818372	 3.6410439213	 0.6923749092	-0.200195
C	 2.3883621916	 2.8119429187	 1.9400279949	-0.275767
C	 2.4605878289	 2.1507107849	 0.5955127432	-0.007113
N	 1.1096464836	 1.8886201638	 0.0669103758	-0.126506
H	-2.0066691523	 1.9415398581	-0.0144385778	 0.280506
H	 2.6587058604	 4.509057304	 0.4011829901	 0.131188
H	 3.3462512125	 3.0249529856	 2.406364657	 0.136337
H	 1.5913501365	 2.5576973383	 2.6309364515	 0.14636
H	 3.329733303	 1.6754879604	 0.1644355332	 0.13696
