16
gdb 43251	3.36418	1.71284	1.48706	5.027	74.8	-0.2487	-0.0646	0.1841	902.8154	0.126659	-400.715357	-400.708997	-400.708052	-400.745953	26.139	
O	-0.0253080066	 0.2039864189	 0.6418620347	-0.314287
C	-0.0449969907	 1.2592817523	 0.0708236572	 0.383519
C	-1.2172426237	 2.1602778175	-0.1536595123	-0.236432
C	-0.7370543662	 3.3351222036	-0.5988550327	 0.123874
C	-0.7508990852	 4.6232125154	 0.1757834045	-0.26822
C	 0.5146363102	 4.2401780279	 1.050138335	-0.235302
C	 1.4284359262	 3.3873168957	 0.1211836002	-0.020712
C	 0.6759450084	 3.122857529	-1.1075717185	-0.096532
N	 1.1587996292	 1.9537649072	-0.3748640096	-0.178361
H	-2.1373262947	 1.998437428	 0.3944653218	 0.121371
H	-0.5455289301	 5.5130439699	-0.4263760014	 0.118749
H	-1.6484723254	 4.7864669082	 0.7744052083	 0.121292
H	 1.0776307322	 5.1278941967	 1.3548868192	 0.120623
H	 0.2004411785	 3.7103588991	 1.9531764459	 0.132699
H	 2.4940720873	 3.5843818833	 0.1426216412	 0.118282
H	 0.9765773304	 3.2784845973	-2.1384172435	 0.10944
