23
gdb 70788	2.76597	1.6292	1.39282	0.0993	89.34	-0.2576	0.0928	0.3503	1076.5807	0.207193	-351.141256	-351.133189	-351.132245	-351.172953	33.849	
C	-0.0320128788	 1.5010863718	 0.0851794749	-0.503856
C	 0.0359447817	-0.0072163659	 0.0489518428	 0.337734
C	 0.9349913454	-0.7712962042	-0.963282985	-0.324224
C	 0.8424235078	-1.9190641592	 0.0532854943	 0.37244
C	 1.7666775766	-3.1101138957	 0.0539771734	-0.50904
C	-0.696898548	-2.1338830897	 0.4382084521	-0.077714
C	-0.338415577	-1.7369139167	 1.8961590992	-0.248522
C	 0.7209797258	-0.8658125048	 1.2103656222	-0.099384
C	-1.2800765981	-0.810298887	-0.0936179106	-0.246654
H	 0.9634584269	 1.9459969633	 0.1914063845	 0.110103
H	-0.475099231	 1.8976186261	-0.8364821216	 0.113022
H	-0.6456272636	 1.8519434324	 0.9231269761	 0.112278
H	 0.5612598317	-0.9068434138	-1.9852954128	 0.079503
H	 1.9552872847	-0.3723481578	-0.9974722074	 0.08484
H	 2.8165343212	-2.7988825456	 0.010663075	 0.11215
H	 1.6384029535	-3.7259518626	 0.9512131373	 0.114842
H	 1.5773779703	-3.7541373887	-0.8135694129	 0.114659
H	-1.2185364296	-3.063833677	 0.2081628376	 0.05387
H	-1.1209914127	-1.2699173951	 2.5036485551	 0.083589
H	 0.1224226799	-2.5515770469	 2.4620683078	 0.094328
H	 1.5842783823	-0.4287371377	 1.7142689297	 0.054799
H	-2.099229175	-0.4357350419	 0.529347385	 0.085201
H	-1.626472574	-0.8511308931	-1.1310969267	 0.086037
