17
gdb 85217	2.58598	1.12289	0.84005	4.0313	69.05	-0.2589	-0.0327	0.2261	1333.4164	0.133836	-459.001705	-458.99259	-458.991645	-459.036774	31.736	
C	 0.1665908644	 1.4981311712	-0.303630263	-0.402893
C	-0.1034690479	 0.0844467332	 0.1587968513	 0.1194
O	 0.4322866713	-0.9103637149	-0.7903312883	-0.2513
C	 1.2436938817	-1.4641163592	 0.1604678204	 0.459959
O	 2.0325183304	-2.3455781573	 0.028256689	-0.324985
C	 0.7586909911	-0.5460350341	 1.2870859281	-0.227602
C	 1.8212764919	 0.2762590588	 2.0222077667	-0.308123
C	 2.6967731353	-0.6029947462	 2.9026413906	 0.151352
O	 2.9118018346	-0.3791672237	 4.0653522066	-0.236801
H	 1.2320814502	 1.6682770953	-0.4788707952	 0.132952
H	-0.3663849412	 1.6931198979	-1.2383414239	 0.142528
H	-0.1845508119	 2.2153930166	 0.4451024444	 0.133121
H	-1.1747756114	-0.0929530551	 0.2850812103	 0.106597
H	 0.1478809947	-1.1001459702	 2.0064270401	 0.126985
H	 2.4818546737	 0.7702034243	 1.297564659	 0.131999
H	 1.366057873	 1.0472901713	 2.6502229013	 0.130857
H	 3.1354982001	-1.4825694481	 2.3859228126	 0.115953
