22
gdb 56149	3.10711	0.84395	0.78264	3.8066	79.44	-0.2392	0.0417	0.2809	1572.2073	0.190329	-441.526272	-441.514916	-441.513971	-441.564336	40.893	
C	 0.2210062867	 1.4131361385	 0.4438145203	-0.41485
C	 0.0336667491	 0.0100635891	-0.1520864357	 0.37033
C	 0.226828493	-1.0746697922	 0.9178840083	-0.414843
C	-1.3527601712	-0.1147788293	-0.7902467766	-0.402896
O	 0.932861285	-0.1990512846	-1.2604473466	-0.299845
C	 2.3230757737	-0.1509312965	-1.0254366856	-0.1687
C	 3.1006635333	-0.3960649513	-2.3216538904	 0.361472
N	 2.3273407864	-0.6059472881	-3.4140668022	-0.506285
O	 4.3164415927	-0.3932624909	-2.3217562447	-0.369924
H	 1.1882120949	 1.5218065115	 0.9428226825	 0.120246
H	 0.1475953687	 2.1734121812	-0.3394638517	 0.121984
H	-0.5548845804	 1.6120696483	 1.1891698275	 0.118305
H	-0.548753372	-0.9890197515	 1.6848734514	 0.118303
H	 0.1574750619	-2.0700483871	 0.4691704985	 0.121984
H	 1.194117192	-0.9878633637	 1.4209984929	 0.120244
H	-1.4795752959	 0.6384355667	-1.5731469011	 0.117944
H	-1.4754840952	-1.1036704295	-1.2412234049	 0.117948
H	-2.1385513973	 0.0257860117	-0.0427905425	 0.114908
H	 2.6496005669	 0.8239736935	-0.6397760307	 0.122564
H	 2.6537731927	-0.9141550408	-0.3085531462	 0.122565
H	 1.3258823618	-0.59124693	-3.3248630901	 0.269643
H	 2.7691912633	-0.773958825	-4.3016308924	 0.258903
