21
gdb 120910	3.30975	0.96145	0.87596	1.6028	78.4	-0.233	0.0672	0.3003	1432.4973	0.181747	-424.18133	-424.172191	-424.171247	-424.215618	34.595	
C	-0.05616347	 1.5397146592	 0.053919136	-0.382372
C	-0.142603581	 0.0324497243	-0.1985066747	-0.162299
C	 0.9274477202	-0.4707953792	-1.1756318865	-0.210761
C	 0.8448839099	-1.9670836067	-1.4171665576	 0.132685
O	-0.4162952722	-2.4296592282	-2.0212371674	-0.325441
C	 0.3145043162	-3.2485207903	-2.9474479076	 0.019201
C	 1.0406881432	-2.3581458126	-3.8876918638	 0.128677
O	 0.5107820876	-1.134403882	-4.2893853827	-0.432428
C	 1.6521623151	-2.6440397887	-2.5216276309	-0.217451
H	 0.9144568965	 1.8156568462	 0.4812616902	 0.112884
H	-0.1776199995	 2.1041674677	-0.8772023566	 0.116594
H	-0.8330898366	 1.8727786848	 0.7490116521	 0.112544
H	-0.0474597236	-0.5070908218	 0.753297799	 0.093135
H	-1.1327357017	-0.2225683342	-0.594406824	 0.112599
H	 0.8612216997	 0.0609880197	-2.1294933533	 0.115129
H	 1.9282492662	-0.2607077277	-0.7722881166	 0.097974
H	 0.9639448492	-2.5071135683	-0.467568821	 0.084723
H	-0.0379346414	-4.2612930364	-3.1094251643	 0.103833
H	 1.5651466294	-2.8581759499	-4.697551302	 0.109866
H	-0.2968811054	-1.0185114792	-3.7700705523	 0.292896
H	 2.6255772383	-3.1008488566	-2.3986397757	 0.098012
