21
gdb 122305	3.85497	0.82585	0.75515	2.668	80.17	-0.2287	0.0804	0.3091	1590.6585	0.180961	-424.171253	-424.161812	-424.160868	-424.206577	34.238	
C	 0.7322577335	 1.0098095355	 0.6538559731	-0.385028
C	-0.0696176461	 0.0210802563	-0.1751364153	-0.02036
O	 0.8181730953	-0.6809887398	-1.0216536067	-0.246812
C	 0.1727225701	-1.6273064345	-1.8487761413	-0.190034
C	 1.1776741156	-2.2416303425	-2.7673504788	 0.273573
C	 1.078056776	-3.6515372959	-3.3194821238	-0.360347
C	 2.2909283815	-3.2407847106	-2.5431270298	 0.074396
O	 3.2095869404	-2.5285184797	-3.3709986706	-0.2873
C	 2.224616492	-1.4758071771	-3.5747725923	-0.125856
H	 1.4764969645	 0.4866091186	 1.2607437902	 0.128415
H	 1.2562659788	 1.7174659894	 0.0051427168	 0.126882
H	 0.0721770051	 1.5723802871	 1.3207779377	 0.11493
H	-0.6090764886	-0.6850504472	 0.4792215133	 0.084836
H	-0.8323949562	 0.5462490628	-0.7754145899	 0.085244
H	-0.3122685586	-2.4110281072	-1.241524044	 0.086322
H	-0.6298305342	-1.1366516319	-2.4294134738	 0.087765
H	 0.3798628753	-4.2948360902	-2.7914263276	 0.113056
H	 1.161131502	-3.8376093105	-4.3870462005	 0.114231
H	 2.6742867999	-3.7310782103	-1.6557130434	 0.106057
H	 2.0225398246	-1.2927198792	-4.6370967772	 0.098378
H	 2.5428378593	-0.552650983	-3.0815424262	 0.12165
