19
gdb 13790	3.15763	1.60964	1.18312	3.1893	73.29	-0.241	0.0134	0.2544	1070.7403	0.163773	-365.074879	-365.065753	-365.064809	-365.108889	32.438	
C	-0.3438997212	 1.3848770989	-0.3159733733	-0.387914
C	-0.0155450539	-0.1049088971	-0.1617677891	-0.192957
C	 0.888226875	-0.6286049927	-1.2583180542	 0.02093
C	 0.9494510845	-2.0989685746	-1.5835947171	-0.275301
N	 0.366595585	-1.1477505389	-2.503764946	-0.074478
C	-0.9297119907	-1.1049139352	-2.9935155867	 0.374495
C	-1.3905429819	-2.3967769413	-3.645603034	-0.471567
O	-1.6085277343	-0.0991893963	-2.9673841925	-0.342766
H	 0.5699931204	 1.9895200908	-0.3191718624	 0.108106
H	-0.8775344601	 1.5559274163	-1.2528566375	 0.161654
H	-0.9674465859	 1.7322878453	 0.5133607004	 0.108864
H	 0.4886365328	-0.2805700647	 0.797699843	 0.100306
H	-0.9405183803	-0.6922996985	-0.1435980909	 0.102601
H	 1.8137948988	-0.0659292956	-1.3839443985	 0.099238
H	 1.886286136	-2.5598150919	-1.8880081586	 0.12241
H	 0.2752017936	-2.7543564786	-1.03462747	 0.122154
H	-1.7140437306	-3.1074064107	-2.8763729506	 0.138115
H	-2.2380374041	-2.182626176	-4.2967855133	 0.147276
H	-0.5841741633	-2.8682185492	-4.2129193786	 0.138834
