19
gdb 74520	3.96859	1.0866	0.98617	3.1025	79.01	-0.233	0.0123	0.2453	1261.2219	0.158622	-423.013729	-423.005205	-423.004261	-423.047302	31.551	
C	 0.097572943	 1.5457491355	-0.045500755	-0.492648
C	 0.0218441695	 0.0545829369	-0.0197858445	 0.28656
C	-1.0266139675	-0.7355986791	 0.2000655187	-0.270933
C	-0.6287835748	-2.1752707181	 0.1285915277	 0.340035
C	-1.0674720966	-3.1203633879	 1.2815990678	-0.120024
O	-1.9992776965	-3.802206542	 0.4200721972	-0.273793
C	-1.482370073	-3.1343082402	-0.7470261737	-0.120024
O	 0.7600412046	-2.1582197966	-0.1555749054	-0.30817
C	 1.2280022426	-0.8174699714	-0.2604728148	-0.170132
H	 0.8058781389	 1.9191424996	 0.7046475061	 0.13281
H	 0.4537332266	 1.9073175168	-1.0182585427	 0.132807
H	-0.8764518417	 2.0004751742	 0.1504619899	 0.132245
H	-2.0428303085	-0.4224741934	 0.4057441642	 0.109831
H	-0.2492216777	-3.7710335899	 1.61627292	 0.105362
H	-1.559321571	-2.6643056582	 2.1485680783	 0.098889
H	-2.2763311647	-2.6884058391	-1.357220183	 0.098889
H	-0.859458748	-3.7915438778	-1.3674573033	 0.105363
H	 1.6697456207	-0.6511923626	-1.2558002313	 0.106467
H	 2.0245781141	-0.6392890167	 0.4792444838	 0.106466
