17
gdb 121068	4.43786	0.86227	0.80663	5.0037	65.27	-0.279	0.0411	0.3202	1427.8168	0.135743	-496.137612	-496.128881	-496.127937	-496.172298	30.131	
C	-0.5881773987	 1.3888271291	 0.5237308484	-0.231643
O	-0.5672009235	-0.020867001	 0.5938130561	-0.239495
C	-0.5993757668	-0.6390788305	-0.6692602429	-0.079084
C	-0.5898550485	-2.1445860649	-0.4229241931	 0.058572
C	-1.8680198333	-2.6643995946	 0.2549147695	-0.111378
O	-2.6240960059	-3.2013530142	-0.8355108686	-0.24244
C	-1.8231389597	-3.3628322359	-1.9180727628	 0.495673
O	-2.1451557962	-3.8908585415	-2.9326125783	-0.369217
O	-0.5921949126	-2.8304885643	-1.6793014307	-0.249784
H	-0.5662044107	 1.7647073255	 1.5488299797	 0.135258
H	 0.2850758936	 1.7795950012	-0.0197530449	 0.1146
H	-1.4985029005	 1.7560419693	 0.0262802606	 0.114084
H	-1.507535706	-0.3590836164	-1.2303984457	 0.10343
H	 0.2709717691	-0.3584644215	-1.2822752861	 0.111093
H	 0.3134766766	-2.4228504662	 0.1239844	 0.116978
H	-1.6697888711	-3.4607891845	 0.9785375998	 0.128869
H	-2.4385536856	-1.8684716396	 0.7352815991	 0.144485
