16
gdb 17504	3.0082	2.4925	1.68087	1.1345	63.68	-0.2008	0.0618	0.2627	790.7178	0.129399	-383.654305	-383.647163	-383.646219	-383.684953	28.968	
O	 0.0243542151	 1.3618885114	-0.0853498711	-0.457985
C	 0.0753948126	-0.0128494951	-0.0126349325	 0.357823
C	-0.9014309417	-0.7998398708	 0.7820453671	-0.347831
C	 0.5893603466	-0.9818561623	 1.0460773025	-0.149442
C	 1.3368385236	-1.78050985	-0.0641069492	-0.109263
C	 0.4569329858	-2.2796124383	-1.2032325852	-0.368199
C	 0.8367785642	-0.830074585	-1.1126507932	 0.301462
O	 1.5922593211	-0.1442445233	-2.0514181966	-0.457692
H	 0.8710174923	 1.6502296244	-0.4499568428	 0.288497
H	-1.3877040867	-0.2069992511	 1.5523950494	 0.121427
H	-1.5381009298	-1.57553663	 0.3671203303	 0.108176
H	 1.0116487765	-0.7990649844	 2.0256001538	 0.09325
H	 2.3408445693	-2.1616595599	 0.068022279	 0.09887
H	 1.0158820869	-2.8216454964	-1.9615636127	 0.11602
H	-0.5536539171	-2.6461690826	-1.0568840453	 0.113685
H	 1.0342409613	 0.0259714133	-2.8196806635	 0.291202
