18
gdb 9648	3.88623	1.25384	1.13191	4.8483	74.12	-0.252	0.0261	0.2781	1125.3525	0.152338	-343.973754	-343.964851	-343.963907	-344.007152	32.119	
C	 0.2407104319	 1.5737910768	 0.0524004574	-0.376442
C	-0.203829711	 0.1204044655	-0.0922251032	-0.121912
N	 0.5358974139	-0.5128150905	-1.1828793256	-0.093008
C	 1.7623626086	-1.2246114499	-0.883374607	-0.273368
C	 0.5363565644	-1.9759568798	-1.3230788613	 0.144379
C	-0.1857796134	-2.9045071003	-0.3588596645	-0.462866
C	 0.4647119905	-2.4156480263	-2.7064891396	 0.272545
N	 0.4048908289	-2.7986780969	-3.7956070305	-0.341445
H	 1.302487359	 1.6338671238	 0.3124439945	 0.121646
H	 0.0901187385	 2.1164289002	-0.8843711581	 0.136004
H	-0.3298991784	 2.0706291664	 0.8426540658	 0.117363
H	-0.075770169	-0.4008738463	 0.869822605	 0.088123
H	-1.2686413098	 0.0769419322	-0.3464976493	 0.115968
H	 2.5915289571	-1.0718308933	-1.5680342376	 0.136335
H	 2.0425578319	-1.3600504023	 0.1617651883	 0.116265
H	-0.0288041404	-2.6040343842	 0.6779906568	 0.130516
H	-1.260985185	-2.9180376183	-0.5612257353	 0.143293
H	 0.1901478722	-3.9247164766	-0.4760784457	 0.146604
