14
gdb 14569	20.00491	0.61259	0.59876	0.4545	86.94	-0.2463	-0.0168	0.2295	1736.0175	0.104008	-308.183094	-308.174273	-308.173329	-308.216781	31.223	
C	 0.0183784246	-1.2278262286	-0.0047891948	-0.433912
C	-0.0220536973	-0.0267571463	 0.0020979117	 0.293681
C	-0.028989711	 1.4295863901	 0.0099580129	-0.341389
C	 1.4091524744	 2.0181657932	-0.000641955	-0.384609
C	 1.414362214	 3.4713966062	 0.0070788863	 0.350749
C	 1.3946375203	 4.6815416097	 0.0137976885	-0.211454
C	 1.3777095678	 6.0421857758	 0.0214411132	 0.289029
C	 1.3624677493	 7.2496323581	 0.0282089951	-0.550317
H	 0.0354252139	-2.2895409657	-0.0105483594	 0.199693
H	-0.5762689974	 1.8091906661	-0.8601875229	 0.147246
H	-0.5594956477	 1.7997984555	 0.894420498	 0.147244
H	 1.9567189403	 1.6369552955	 0.8694767376	 0.151255
H	 1.939946479	 1.646342258	-0.8850979166	 0.151253
H	 1.3499544198	 8.3111625423	 0.0342581656	 0.191532
