23
gdb 106319	2.71785	1.16841	1.00803	1.4458	86.32	-0.2417	0.0738	0.3155	1322.521	0.204792	-388.268785	-388.258876	-388.257932	-388.303181	37.719	
C	-0.2500755938	 1.487621556	 0.0124715948	-0.371969
C	 0.1238483822	-0.0002781597	-0.0471123469	-0.29233
C	 0.8237785944	-0.4792937834	 1.196658506	 0.36216
C	 2.2822748497	-0.1353317503	 1.5453417479	-0.350116
C	 2.4983031446	-1.6296423796	 1.967052418	 0.128562
O	 2.9536279675	-1.9319559322	 3.2721879861	-0.430162
C	 1.0281715863	-1.9231690148	 1.7125958698	-0.160189
C	 0.096591093	-0.9666043843	 2.420653093	-0.042922
C	 0.2518007233	-0.4488191993	 3.8374153385	-0.418115
H	 0.6382683175	 2.1125773181	 0.1540102589	 0.117082
H	-0.740808827	 1.8102494499	-0.911178174	 0.109225
H	-0.9316230729	 1.6877718876	 0.845701237	 0.118317
H	-0.7820775987	-0.5993960663	-0.2042855003	 0.094456
H	 0.7653213121	-0.1782368832	-0.9214225991	 0.090577
H	 2.8812619662	 0.146260647	 0.6746150987	 0.093415
H	 2.4331643352	 0.6098335037	 2.331713956	 0.095929
H	 3.1201557354	-2.1406028248	 1.219376187	 0.070629
H	 3.8961501171	-1.7399024566	 3.3115956879	 0.280405
H	 0.6614756095	-2.8535888489	 1.2925460181	 0.075515
H	-0.9383837328	-1.2085466864	 2.1772054278	 0.07758
H	 1.2959764514	-0.2967932093	 4.1106157461	 0.133964
H	-0.2883936097	 0.4964222941	 3.9670086804	 0.103374
H	-0.1628896907	-1.1696290076	 4.550501308	 0.114611
