18
gdb 52291	3.71654	0.89415	0.75494	3.6584	74.72	-0.2499	-0.0354	0.2145	1469.2098	0.14721	-439.121544	-439.112533	-439.111589	-439.15681	32.011	
O	-0.1409367572	 0.8947570586	 1.2171326549	-0.326774
C	-0.0070497945	 1.5365504031	 0.1956013951	 0.154291
N	 1.1057934764	 1.551272692	-0.5837500948	-0.275362
C	 2.318651949	 0.8300045347	-0.2398980695	-0.187872
C	 3.5037803882	 1.7898913918	-0.1364186874	-0.094072
C	 4.9702676357	 1.2508064337	-0.1404656112	-0.260038
C	 5.3597507133	 2.2855858453	-1.243902062	-0.330098
C	 3.8604935402	 2.5500210803	-1.4236195816	 0.395998
O	 3.1868801235	 3.0185308651	-2.3009611268	-0.31063
H	-0.8026448891	 2.1878220785	-0.2166850729	 0.076977
H	 1.1449235356	 2.1618775736	-1.3873090298	 0.264834
H	 2.1294295874	 0.3195576183	 0.7069251141	 0.152577
H	 2.5319822021	 0.0646746345	-0.998255613	 0.109471
H	 3.3368943275	 2.4992833586	 0.6827570841	 0.117054
H	 5.5093763374	 1.3248569801	 0.8037247167	 0.119084
H	 5.0281688002	 0.2211270604	-0.5018327285	 0.120105
H	 5.8787534839	 3.1643174143	-0.8472280854	 0.139379
H	 5.8978933603	 1.9338547471	-2.1272172519	 0.135073
