19
gdb 60897	2.7315	1.26974	1.04575	1.6006	75.97	-0.2405	-0.0309	0.2096	1201.4284	0.157139	-422.990428	-422.98139	-422.980446	-423.025356	32.934	
C	 0.1393057859	 1.5265028287	 0.0008219621	-0.416588
C	 0.0933443625	-0.01367262	-0.0213285754	-0.175505
C	 0.7200827111	-0.5409476687	-1.3017654043	 0.152104
O	 0.2245402952	-1.3724179309	-2.0160866936	-0.245806
C	 0.7995516242	-0.5723447396	 1.1879929064	 0.489564
C	 2.2384945464	-0.967416516	 1.3438029307	-0.344654
C	 1.1392870188	-1.9587267675	 1.6889032611	-0.190866
C	 0.469600758	-1.5163212491	 2.9815110963	-0.090922
O	 0.2726245421	-0.1700290135	 2.463195408	-0.333826
H	 1.167354767	 1.8899456729	-0.1014232892	 0.124292
H	-0.4581303911	 1.9475483102	-0.8128679303	 0.124358
H	-0.2563432351	 1.8937830063	 0.950256037	 0.152709
H	-0.9457146154	-0.3592855353	-0.0053240554	 0.104289
H	 1.7052251857	-0.0822664311	-1.5520685484	 0.078283
H	 2.7804321815	-1.2017204129	 0.4326996763	 0.120292
H	 2.8356740564	-0.5088161698	 2.1275841038	 0.116986
H	 1.0430380932	-2.9234138388	 1.2100668658	 0.113919
H	-0.496063394	-1.9987441965	 3.1681527561	 0.113887
H	 1.0723155676	-1.5226026482	 3.897155783	 0.107486
