17
gdb 128161	3.23167	1.25918	0.96414	3.1757	72.39	-0.223	0.0155	0.2385	1226.6167	0.136492	-451.312392	-451.303225	-451.302281	-451.346883	32.232	
C	 0.0758884447	 1.1442532187	 0.5834659555	-0.321972
N	 0.0086400968	-0.0043362147	-0.332962902	-0.403335
C	-1.1995001821	-0.7290251566	-0.2852106462	 0.157851
C	-1.302772767	-2.0450544429	 0.1098492945	 0.363111
O	-0.3774986087	-2.9308093634	 0.5102243782	-0.4323
N	-2.6090571465	-2.3490803735	 0.0184599977	-0.006649
C	-3.2824334577	-3.5953682015	 0.3057161061	-0.331029
N	-3.3061125415	-1.2535386288	-0.4223687761	-0.172487
N	-2.4510809986	-0.2910028751	-0.5992531554	-0.239193
H	 1.0471551937	 1.634727788	 0.4699225515	 0.116145
H	-0.7187389621	 1.8827921234	 0.4134606626	 0.131583
H	-0.0073474728	 0.7860438007	 1.6137907748	 0.125644
H	 0.197075774	 0.3083950302	-1.2800174552	 0.237422
H	 0.4694779309	-2.4628762802	 0.4565814043	 0.310393
H	-3.1619898747	-3.8686778135	 1.3577670152	 0.148672
H	-4.3389683794	-3.443583215	 0.0843862786	 0.16713
H	-2.886814019	-4.4014855557	-0.3183642842	 0.149012
