22
gdb 17839	3.48131	1.49621	1.3264	0.2314	81.42	-0.2463	0.0862	0.3325	1065.4608	0.200614	-313.047556	-313.039074	-313.03813	-313.080372	32.805	
C	 0.0423887565	 1.3622612989	-0.2730502297	-0.384832
C	 0.091026696	-0.1146837765	 0.1444942302	 0.010363
C	 0.7059585894	-0.2810699874	 1.5417241526	-0.38483
C	-1.2994972955	-0.7277813137	 0.0977601785	 0.036087
C	-2.0215331751	-1.1962605053	-1.1377658544	-0.085302
C	-1.0776736397	-1.8919123571	-2.1295098878	-0.228062
C	-0.668939902	-2.9043168084	-1.0114716373	-0.228056
C	-1.6190211957	-2.1930920072	-0.0368529881	-0.085311
H	 1.0415734932	 1.8107746309	-0.2663175109	 0.105795
H	-0.3745819846	 1.4760003667	-1.278753441	 0.114443
H	-0.5856598839	 1.9420208756	 0.4142720669	 0.108168
H	 0.7363341772	-0.6414370684	-0.568457122	 0.073173
H	 0.7610628279	-1.3364251377	 1.827082249	 0.114443
H	 1.717891583	 0.1358719858	 1.5833245411	 0.105794
H	 0.1031043193	 0.2362901405	 2.2979540138	 0.108168
H	-1.9844670565	-0.2379643831	 0.7916902374	 0.07479
H	-3.0095423622	-0.8265538908	-1.3875427287	 0.077677
H	-1.6162134978	-2.3818513928	-2.9436693818	 0.100107
H	-0.2839204226	-1.2777678879	-2.5672941026	 0.0948
H	-0.9951437274	-3.9202373341	-1.2447500645	 0.100111
H	 0.3881948808	-2.9425463759	-0.728853058	 0.094796
H	-2.2530192002	-2.7000995221	 0.6816338274	 0.077677
