15
gdb 44239	4.14849	1.24272	1.1472	2.4004	64.95	-0.278	-0.001	0.277	1050.1779	0.112529	-457.743394	-457.736331	-457.735386	-457.775264	26.94	
O	-0.4527038008	 0.3802729919	-0.5548812086	-0.31524
C	-0.1275625058	 1.419619965	-0.083019319	 0.452974
O	-0.9361069431	 2.3410296783	 0.5559219456	-0.252448
C	 0.1973058402	 3.2323732994	 0.8121395406	 0.001111
C	 1.1455742702	 2.2478074136	 0.0790126367	-0.231619
C	 1.3492430538	 3.2978362083	-1.0639305914	-0.342521
C	 0.3835128672	 4.2398840302	-0.323852544	 0.436211
C	-0.5422251319	 5.2642724021	-0.8001295502	-0.251803
O	 0.6659087959	 5.6044873477	-0.0987882826	-0.262418
H	 0.2531525518	 3.5458566284	 1.8528015362	 0.113821
H	 2.0165767046	 1.7615667356	 0.5103635754	 0.119849
H	 2.3645447494	 3.700170182	-1.0752678164	 0.139023
H	 1.0768270229	 2.977876779	-2.0712716138	 0.1333
H	-0.5530290017	 5.5237029953	-1.8573125836	 0.127229
H	-1.4675811827	 5.4511387132	-0.258572925	 0.13253
