13
gdb 16260	3.29349	2.00946	1.43423	5.4315	64.72	-0.2691	-0.0371	0.232	839.7811	0.095697	-361.466848	-361.460106	-361.459162	-361.497909	24.982	
O	-0.0210806084	 0.0291501082	-0.0571741892	-0.278647
C	-0.0135104306	 1.2159232481	 0.0526089285	 0.357973
C	-1.12688496	 2.2892301626	 0.1594986518	-0.352521
C	-0.0417238321	 3.3599100304	-0.0229985113	-0.094277
C	 0.9482493947	 3.2639299239	 1.0726628773	-0.307473
C	 1.0762204178	 2.2647732339	-0.0880232313	 0.094527
C	 2.253130487	 2.1812564465	-0.8840890761	 0.197092
N	 3.2016079419	 2.1038920261	-1.5427552947	-0.340545
H	-1.8075408865	 2.1911567093	-0.6905946172	 0.151461
H	-1.7078806051	 2.3317561482	 1.0845545964	 0.136548
H	-0.1056971108	 4.2117782619	-0.6854804669	 0.136495
H	 1.741309223	 4.003386739	 1.087825627	 0.157471
H	 0.656758799	 2.8907991721	 2.0501657057	 0.141896
