20
gdb 51552	4.84206	0.7897	0.75322	2.9893	81.12	-0.2405	-0.0227	0.2177	1543.6413	0.169189	-403.111896	-403.102759	-403.101815	-403.146943	33.233	
O	-0.6278943812	 0.9340740269	 1.1179946899	-0.239403
C	-0.2303531508	 1.3903391061	 0.0784066987	 0.156848
C	 1.236191174	 1.6321112255	-0.2428997674	-0.232792
N	 1.3676056331	 2.7037052652	-1.2157402913	-0.149895
C	 1.6053604446	 4.0556790296	-0.6915260958	-0.327591
C	 2.6745072334	 3.3040894913	-1.3964549647	 0.390345
C	 4.0309571493	 2.8861853539	-0.8029922547	-0.29645
C	 4.7055286844	 3.579062992	-2.02455371	-0.213215
C	 3.325135417	 3.6240350702	-2.7457529007	-0.294824
H	-0.9187544691	 1.6619781039	-0.7523759801	 0.089639
H	 1.7830318037	 1.7857359563	 0.7002534271	 0.115209
H	 1.6183452135	 0.7030532702	-0.6923367066	 0.130944
H	 1.063138104	 4.8546600229	-1.1909748751	 0.118024
H	 1.7027807869	 4.1729210292	 0.3876710262	 0.1134
H	 4.2873438381	 3.2563486944	 0.1924150295	 0.106359
H	 4.1711306842	 1.800155984	-0.8174494442	 0.106829
H	 5.0748332924	 4.5768821393	-1.7771840201	 0.109285
H	 5.5032224352	 3.0247992785	-2.5218495895	 0.104144
H	 3.1959678898	 2.8052750049	-3.4599770372	 0.10888
H	 3.0378237974	 4.5605052956	-3.229626224	 0.104263
