23
gdb 120978	3.66904	0.87665	0.8182	1.6647	85.61	-0.2387	0.0745	0.3132	1540.1135	0.206087	-388.262537	-388.253344	-388.2524	-388.297218	34.501	
C	-0.0956611911	 1.562592093	-0.1866600794	-0.377956
C	-0.0714489138	 0.0318342141	-0.159142875	-0.165993
C	 0.8194584315	-0.5719337725	-1.2516123532	-0.18195
C	 0.837181637	-2.0945879035	-1.2475325876	 0.012671
C	-0.4658159434	-2.8785797436	-1.627536882	-0.256397
C	 0.330189083	-3.7042262601	-2.6781959018	-0.078806
C	 0.3679912719	-3.0652489217	-4.0726841171	-0.073265
O	 1.4352490495	-2.1676268514	-3.6836179304	-0.29243
C	 1.5776430686	-2.8178854491	-2.3995088429	 0.093226
H	 0.9088936573	 1.9763755333	-0.0442442197	 0.113391
H	-0.4703539391	 1.9338446053	-1.1469919867	 0.114377
H	-0.7379184803	 1.9683427088	 0.6014693712	 0.108513
H	 0.2749711935	-0.3122246104	 0.8247399813	 0.090291
H	-1.0944167013	-0.3514687722	-0.2695768016	 0.096027
H	 0.4901519429	-0.2255821329	-2.2384751376	 0.105419
H	 1.846474839	-0.1999987135	-1.1290281564	 0.09069
H	 1.2248327078	-2.4622720507	-0.2889793246	 0.066284
H	-0.89425696	-3.4669820707	-0.8135203168	 0.101259
H	-1.2625089808	-2.2642681659	-2.059882939	 0.097076
H	 0.3083293205	-4.7903371537	-2.6039267046	 0.074521
H	 0.6929790401	-3.7378407814	-4.8777967662	 0.097684
H	-0.5334281368	-2.5290697519	-4.3960385733	 0.098141
H	 2.6001368539	-3.1706342395	-2.2336587968	 0.067226
