12
gdb 19636	6.28586	1.74107	1.67406	3.377	62.63	-0.2434	-0.0038	0.2397	748.5763	0.084676	-340.268272	-340.262644	-340.2617	-340.297968	21.776	
N	-0.0874433017	-1.1325895684	 0.0045537036	-0.352258
C	-0.0499813306	 0.0256291964	 0.0092587056	 0.125148
C	 0.0083948273	 1.4365090826	 0.0122317313	 0.283866
C	-0.8795486891	 2.4564145233	 0.7753795375	-0.159594
C	 0.313660748	 3.4422489072	 0.7728509376	-0.044048
C	 1.1598332309	 2.4781176034	 0.0258476869	-0.125282
N	 0.3318404458	 3.476415762	-0.7341666733	-0.169008
C	-0.8233597986	 2.4816099395	-0.7191470904	-0.058012
H	-1.6831744849	 2.2367722288	 1.4627988769	 0.12841
H	 0.5632579354	 4.3029308532	 1.3793886478	 0.118446
H	 2.2305516711	 2.3819351462	-0.0986018068	 0.121224
H	-1.5688758236	 2.3679339257	-1.4949848668	 0.131107
