16
gdb 84608	2.59605	1.59046	1.23341	2.6679	74.81	-0.244	-0.018	0.226	1026.1857	0.126732	-396.913706	-396.906064	-396.90512	-396.94571	29.668	
N	 0.1370235411	 1.4556765188	-0.0783272108	-0.511464
C	 0.0608817068	 0.0046685831	 0.0013495554	-0.090415
C	 0.6320736676	-0.515295964	 1.311341776	-0.069191
C	-0.2127219275	-1.2936594561	 1.9862352647	-0.055948
C	-1.5208354404	-1.40518414	 1.2721790484	-0.129576
N	-2.2016450657	-0.0942801052	 1.1245116628	-0.36046
C	-1.3641475726	-0.6154099969	 0.0124264733	 0.184319
C	-1.9881522683	-0.9931362779	-1.2195802622	 0.186036
N	-2.4778422799	-1.2674762789	-2.2322618618	-0.342122
H	-0.1582946496	 1.773114671	-0.9969305093	 0.236711
H	-0.5117045575	 1.8516592411	 0.5979252056	 0.243263
H	 0.6205575149	-0.40636009	-0.848413658	 0.106746
H	 1.6178930941	-0.2077323737	 1.6380679631	 0.11881
H	-0.0253284897	-1.7648422284	 2.942799236	 0.115299
H	-2.1244629783	-2.305125828	 1.310470987	 0.119595
H	-3.182536965	-0.246437255	 0.8908107396	 0.248396
