22
gdb 114731	2.34957	1.41794	1.08976	1.3668	80.69	-0.225	0.0678	0.2928	1203.3038	0.195458	-404.325194	-404.316263	-404.315319	-404.358502	34.792	
C	-0.8354689681	 1.2514217459	 0.1417392641	-0.396819
C	-0.0250474369	-0.0420862421	 0.0932045933	 0.031652
C	 0.6553476197	-0.4069579368	-1.2726448017	-0.05253
C	 0.8895906578	 0.7422537413	-2.2659246031	-0.07797
O	 1.5144431447	 0.2934798643	-3.4610538996	-0.417194
C	 1.9640504242	-1.1264734556	-0.852944964	-0.241197
C	 2.2098589049	-0.7007893912	 0.5868264167	-0.009692
C	 2.1919361514	 0.7492885065	 0.9067145491	-0.257939
N	 1.0024644267	-0.0805769681	 1.1570115122	-0.094509
H	-0.2227512048	 2.128215774	-0.0885670994	 0.1175
H	-1.6669070077	 1.2231269617	-0.5693949495	 0.113639
H	-1.2502004199	 1.3873258564	 1.1443510593	 0.126865
H	-0.7038978123	-0.8677444401	 0.3402660399	 0.08224
H	 0.0010445508	-1.1157255313	-1.7977055193	 0.06244
H	-0.0628275751	 1.2464052054	-2.4871218252	 0.089867
H	 1.5674485941	 1.5008843871	-1.8642057686	 0.114136
H	 0.9415565414	-0.3688410014	-3.8618078355	 0.27905
H	 1.8374660175	-2.2136157875	-0.8878144194	 0.099451
H	 2.788234114	-0.8797734799	-1.5284440945	 0.12179
H	 2.7532037187	-1.3836148328	 1.2347087825	 0.085596
H	 2.6795523424	 1.1130352567	 1.8069361939	 0.113971
H	 2.1865488166	 1.4636787476	 0.0892749788	 0.109653
