21
gdb 105475	2.11234	1.15541	0.87675	1.7093	88.	-0.2415	0.0355	0.277	1454.0834	0.18012	-387.055937	-387.045406	-387.044462	-387.092966	36.859	
C	-0.2216554029	 1.4553164786	-0.0441938117	-0.386716
C	 0.1108872533	-0.0378579298	-0.0390629945	-0.219102
C	 0.8656219519	-0.4903169042	-1.2943631211	 0.224638
C	 0.8813211353	-2.0296036262	-1.5440059633	-0.335987
C	 0.0268394226	-1.7057822848	-2.7814944348	-0.064685
O	 0.039050784	-0.2945425872	-2.4875683584	-0.308275
C	 2.1642692087	 0.1635134385	-1.4238431303	 0.104874
C	 3.243915205	 0.6884625206	-1.5267985997	 0.040326
C	 4.5440331805	 1.328894621	-1.6626828371	-0.500661
H	 0.6891312027	 2.0610158306	-0.0515671911	 0.12477
H	-0.8054119258	 1.7095720009	-0.9332658135	 0.135497
H	-0.8057669017	 1.726823576	 0.8400427359	 0.107239
H	 0.7160655731	-0.2986209092	 0.8381799192	 0.100138
H	-0.8126889471	-0.6260580824	 0.0181735012	 0.093633
H	 1.8658901919	-2.4497218381	-1.7462858905	 0.117616
H	 0.3865479735	-2.6113584274	-0.7641580965	 0.110146
H	 0.4970467846	-1.9242978595	-3.7477947862	 0.104806
H	-0.9910813117	-2.113592271	-2.7838905068	 0.101379
H	 5.3137195796	 0.6117340398	-1.9686316332	 0.147891
H	 4.5127452914	 2.1232438186	-2.4166091409	 0.153524
H	 4.8666263311	 1.7813044251	-0.7185135466	 0.148946
