15
gdb 16198	3.27831	2.406	1.55591	3.0499	67.57	-0.2079	-0.0029	0.2051	804.117	0.120341	-362.699741	-362.692968	-362.692023	-362.730465	26.325	
O	 0.0836605454	 0.0093338694	 0.0060736464	-0.394893
C	 0.0447390209	 1.2221974721	 0.0104369396	 0.375741
N	-1.0892956928	 2.0160386581	 0.0284564776	-0.35349
C	-0.7558907552	 3.3799511712	 0.0292372098	-0.030837
C	 0.5744757725	 3.5454980848	 0.012865628	-0.265815
C	 1.1920262876	 2.2005567411	 0.0001202115	 0.22343
C	 2.4687456273	 1.7956634665	 0.7270930467	-0.290094
C	 2.4502763474	 1.8013477674	-0.7613432864	-0.290123
H	-2.0206146424	 1.63648317	 0.0391873065	 0.260566
H	-1.5416217243	 4.1207054624	 0.042213278	 0.130506
H	 1.1055568893	 4.4847235853	 0.0097746678	 0.108647
H	 3.0040080151	 2.5806173488	 1.2490848621	 0.121237
H	 2.4299103283	 0.8356282042	 1.2303090471	 0.141963
H	 2.3988560635	 0.8451896216	-1.2707758769	 0.141946
H	 2.9724695672	 2.5903303171	-1.2904497278	 0.121215
