17
gdb 47059	3.54443	1.42398	1.12546	3.9064	68.6	-0.2507	0.0082	0.259	1064.482	0.137368	-458.981965	-458.974659	-458.973715	-459.01404	28.116	
O	 0.0124124974	 0.1496919661	-0.7868648694	-0.318698
C	 0.0053224713	 1.1989369407	-0.205495657	 0.388834
C	-1.2857705934	 1.9465675226	 0.1164869088	-0.226181
O	-1.183594544	 2.8284081754	 1.2147876798	-0.25154
C	-0.174194731	 3.7906408058	 0.9846299946	 0.076404
C	 0.3702184475	 4.2926179015	 2.338546474	-0.25022
C	 1.4546411331	 3.1760471674	 2.2812907859	-0.251126
C	 1.1787936797	 3.0760465788	 0.7629134196	 0.129853
O	 1.1675954564	 1.7734271661	 0.179299149	-0.227995
H	-1.6089363921	 2.4749391935	-0.7964726839	 0.124247
H	-2.044292285	 1.2002691055	 0.3570128397	 0.152816
H	-0.4996664029	 4.5236546774	 0.2330480354	 0.071961
H	 0.7901242601	 5.2979057791	 2.2610065209	 0.113768
H	-0.3450741636	 4.2595814694	 3.1609105967	 0.125549
H	 2.4709754966	 3.4248477932	 2.5886199744	 0.111562
H	 1.1294882501	 2.2694912176	 2.7943302418	 0.129135
H	 1.8770321097	 3.6792906796	 0.1760401098	 0.101632
