15
gdb 65897	3.48576	0.7917	0.71288	3.1425	74.03	-0.2653	-0.0743	0.191	1539.1216	0.10956	-457.702613	-457.693273	-457.692329	-457.738679	31.444	
O	-0.0071993674	 1.4590039591	-0.0813962163	-0.448284
C	 0.0092538786	 0.0512236048	-0.0025834689	 0.147907
C	 0.1432315536	-0.5626753947	 1.4310241368	-0.105342
O	-1.1657891913	-1.1467254651	 1.3506965762	-0.263234
C	-1.4314096862	-0.5220608699	 0.0846365614	-0.091651
C	 0.8758689283	-0.552282883	-1.0002700853	 0.125239
C	 1.6207342134	-1.0474579245	-1.8135218333	-0.040015
C	 2.5089500544	-1.6135331272	-2.7982899942	 0.02243
O	 2.6206776087	-2.7976606113	-3.0142132075	-0.221821
H	 0.8948227214	 1.7698719121	-0.2161347541	 0.290236
H	 0.9267281509	-1.3131338382	 1.5751871169	 0.119221
H	 0.2126555515	 0.2192814403	 2.1973288807	 0.11293
H	-2.1725339596	 0.2826938718	 0.154260032	 0.123323
H	-1.719232827	-1.2419064039	-0.6867332229	 0.124866
H	 3.0994112907	-0.8616540803	-3.3598722517	 0.104195
