16
gdb 30447	2.86993	1.46023	0.97402	3.1976	79.88	-0.2067	-0.0276	0.1791	1166.7317	0.124975	-434.112524	-434.104034	-434.10309	-434.145952	31.1	
C	 0.0251872918	 1.4626365928	-0.0557045789	-0.320279
N	-0.0110014777	 0.0129202728	-0.0033130793	-0.321854
C	 0.5319957773	-0.6610092596	-0.9233846587	 0.402207
O	 1.1698615135	 0.0104405676	-2.002569782	-0.268142
C	 1.7552864465	-0.6938430841	-2.9924777668	 0.499976
N	 2.3511550945	 0.1228718807	-3.8971684071	-0.557704
N	 1.8025848636	-1.9800244049	-3.0986315317	-0.370191
C	 1.1998100673	-2.676114225	-2.0713899457	-0.006828
C	 0.5846289961	-2.0966698091	-1.0172528417	-0.190562
H	 1.052419025	 1.8527169928	-0.0654250008	 0.116454
H	-0.4763009314	 1.8580745106	-0.950200273	 0.113183
H	-0.4836811774	 1.8635119105	 0.8240971173	 0.120471
H	 2.0782383823	 1.0907965265	-3.915820129	 0.272596
H	 2.6421913084	-0.3073778298	-4.7588372058	 0.278079
H	 1.248139775	-3.7567891073	-2.1632669086	 0.114867
H	 0.1170064153	-2.6630071744	-0.2245874882	 0.117727
