22
gdb 87397	2.06662	1.48964	1.13675	1.8328	82.48	-0.2387	0.0703	0.3091	1223.3369	0.192511	-404.318434	-404.308651	-404.307707	-404.352775	36.829	
C	-0.0266934923	 1.5084318541	-0.3236581098	-0.393671
C	 0.0418921209	 0.0179861759	-0.0909731144	-0.070027
N	 1.3815185526	-0.6043255789	-0.1708186363	-0.385748
C	 0.6604266193	-0.622204261	 1.0934432679	 0.23448
C	 1.1977973202	-0.0894357931	 2.4260415182	 0.102764
C	 0.6943247334	 1.2190944011	 3.0027225716	-0.404333
O	 0.6210988954	-1.2354730843	 3.1105090021	-0.323066
C	 0.1858814861	-1.8502458393	 1.8753362823	 0.089842
C	-1.2873335485	-2.2102832915	 1.8898536161	-0.403206
H	 0.8549472707	 2.0058107026	 0.0864508417	 0.128751
H	-0.0640082396	 1.7244891256	-1.3968265536	 0.119532
H	-0.9197253291	 1.9413057842	 0.1394460313	 0.117209
H	-0.7811586577	-0.5422698318	-0.5360513959	 0.083292
H	 1.3378272887	-1.5164364585	-0.6207789429	 0.227395
H	 2.2956065378	-0.1292013199	 2.4641825795	 0.081204
H	-0.3905997661	 1.3066080842	 2.8951493112	 0.116399
H	 0.9380782276	 1.2646401493	 4.0689495929	 0.126913
H	 1.1687796324	 2.0733628085	 2.5101255392	 0.119574
H	 0.7919958215	-2.7442599156	 1.6557265453	 0.071158
H	-1.9030986926	-1.3260968785	 2.0767140118	 0.120878
H	-1.5878571224	-2.6532879353	 0.9335734118	 0.111744
H	-1.4873460185	-2.9439134979	 2.6772553503	 0.128918
