19
gdb 57703	2.75303	0.87029	0.76945	1.3516	78.23	-0.2503	-0.0351	0.2153	1522.0419	0.154261	-423.002406	-422.991738	-422.990794	-423.038803	38.165	
C	 0.263862418	 1.5949137572	 0.2078905822	-0.417891
C	 0.048699105	 0.0840518016	 0.0675846057	 0.242838
O	 0.6892421431	-0.500682037	 1.2069346049	-0.457147
C	-1.4258834755	-0.3270944854	-0.0356520235	-0.213196
C	-2.2690827354	 0.0802364698	 1.1892316106	-0.377424
C	-3.6164209381	-0.4734155541	 1.1430587464	 0.287287
C	-4.7209046023	-0.9435550215	 1.0820139431	-0.426638
C	 0.8283239002	-0.3755682357	-1.1715260492	 0.125752
O	 0.3444789097	-0.7389816803	-2.2104736791	-0.249088
H	 1.3314437053	 1.8315651557	 0.1702310061	 0.129565
H	-0.2452779773	 2.1365039838	-0.5936661746	 0.133039
H	-0.1160125769	 1.9387974735	 1.1730821951	 0.13982
H	 0.5416931694	-1.4532893367	 1.1799718504	 0.287404
H	-1.8529830853	 0.0926344293	-0.9504195973	 0.131016
H	-1.476435252	-1.4156015369	-0.1598460645	 0.109221
H	-1.7598495563	-0.2528054421	 2.1014621981	 0.138335
H	-2.3316886177	 1.172912131	 1.2573280952	 0.133408
H	-5.6998443772	-1.3521131115	 1.0387750076	 0.194412
H	 1.9303110333	-0.3551418807	-1.0059348872	 0.089287
