20
gdb 112037	2.45396	1.35306	1.10515	2.5118	74.72	-0.2471	0.0157	0.2628	1185.4256	0.170513	-440.306789	-440.297528	-440.296584	-440.341319	34.709	
C	-0.2592732874	 1.5940817516	-0.0703649649	-0.427518
C	-0.0307513506	 0.0879351499	 0.0332935708	 0.341159
C	-1.2991909986	-0.6975040567	-0.2867659676	-0.423092
O	 0.9704012748	-0.2604018437	-0.9909529549	-0.250188
C	 1.9945181342	-0.836683561	-0.3370252727	 0.109879
N	 1.9459106864	-0.9878225064	 0.9209134927	-0.297144
C	 0.652437119	-0.417908821	 1.3506879097	-0.044955
C	 0.9246355254	 0.5961783945	 2.4685774515	-0.06284
O	 1.5684994133	-0.0401863476	 3.5511431898	-0.425433
H	 0.6685627615	 2.1509234097	 0.0779725924	 0.130669
H	-0.6503313239	 1.8428333339	-1.060923178	 0.12675
H	-0.9870313744	 1.9275101389	 0.6754636324	 0.125954
H	-1.6899873873	-0.4251766146	-1.2713833308	 0.125498
H	-1.0986295859	-1.7725551948	-0.2772857556	 0.129655
H	-2.0700650513	-0.4866374977	 0.4617268903	 0.124478
H	 2.8208075327	-1.140199591	-0.9716863394	 0.140891
H	 0.0561186149	-1.2239327267	 1.7959349081	 0.092237
H	 1.5280841583	 1.4301849974	 2.077807088	 0.085793
H	-0.0134052852	 1.0112690095	 2.8531599741	 0.103195
H	 2.2875154541	-0.5535193041	 3.1596902244	 0.295011
