21
gdb 93230	2.62765	1.2803	0.93158	3.1876	78.7	-0.2554	-0.0249	0.2305	1291.2876	0.183155	-424.274222	-424.265363	-424.264419	-424.307497	34.437	
C	 0.0258736474	 1.5798031621	 0.0129916179	-0.404258
C	 0.0136690873	 0.0476046903	 0.0118045381	 0.026041
C	 0.6628624035	-0.5186107476	-1.263321867	-0.199698
C	 0.6630282705	-2.062284307	-1.2843584652	-0.314745
C	 1.2588045773	-2.6137791703	-0.0082592689	 0.370787
O	 2.1629886525	-3.4219832129	 0.0295019534	-0.332754
C	 0.6783748843	-2.0627149749	 1.2907945422	 0.04233
O	 1.3684536057	-2.5736364407	 2.3966391932	-0.44353
C	 0.7124346078	-0.5224720365	 1.2568978657	-0.214395
H	 1.0524682836	 1.9636029597	-0.0062091748	 0.117941
H	-0.4967082517	 1.9816197352	-0.8612936045	 0.113165
H	-0.4610989641	 1.9786964108	 0.9084382339	 0.117142
H	-1.0357971117	-0.2841376734	 0.0293847876	 0.073578
H	 0.1470604747	-0.1433265717	-2.1537999935	 0.10333
H	 1.6984514457	-0.1584930991	-1.3275635156	 0.108438
H	-0.3732518296	-2.4205685658	-1.3546771392	 0.122662
H	 1.2147288171	-2.4642439671	-2.1374558542	 0.123644
H	-0.3805995001	-2.3797362046	 1.3229187802	 0.08555
H	 2.014756742	-3.1955718967	 2.0238379641	 0.289797
H	 1.7630077429	-0.2031899696	 1.2765077123	 0.105165
H	 0.2510707947	-0.1437408901	 2.1748647943	 0.109811
