19
gdb 26467	3.41653	1.31141	1.20153	4.1001	82.23	-0.2138	0.0415	0.2553	1117.442	0.160796	-382.081527	-382.073339	-382.072395	-382.114138	31.379	
C	-0.1866419479	 1.5638421859	 0.0409858774	-0.436163
C	-0.0539940793	 0.0409541361	-0.0031512506	 0.129264
C	-1.3867611793	-0.65321564	 0.2807321695	-0.436151
C	 0.698535942	-0.5058359149	-1.2922334447	-0.217145
N	 1.7567300282	-0.9799080146	-0.3766824651	-0.007991
C	 2.930842607	-1.5771224278	-0.0353983968	-0.033106
N	 3.0856965956	-1.5190209138	 1.2761040407	-0.263326
C	 1.9843099218	-0.8662928223	 1.7981924655	-0.245328
C	 1.1519922904	-0.5294222017	 0.7591544643	 0.289382
H	 0.7670199602	 2.0536911452	-0.1756495994	 0.124823
H	-0.9286752667	 1.9123346195	-0.6862443418	 0.115427
H	-0.5127944517	 1.8905153795	 1.0336935027	 0.12628
H	-2.1500293638	-0.3435024257	-0.4420584408	 0.115412
H	-1.2874232071	-1.7414900436	 0.2343949066	 0.124816
H	-1.7482200148	-0.3924010648	 1.2806721386	 0.126278
H	 0.1904904254	-1.3120861396	-1.8276377647	 0.126367
H	 1.0400118068	 0.2567366995	-1.9969900725	 0.126385
H	 3.6173515652	-2.0244867925	-0.7365731838	 0.129857
H	 1.886861348	-0.6982883844	 2.8587200249	 0.104918
