13
gdb 133355	3.22526	1.46427	1.00709	3.9631	66.74	-0.2131	-0.0564	0.1567	1058.744	0.090216	-490.228645	-490.220744	-490.2198	-490.261514	28.948	
N	-0.0125258611	 1.361365427	 0.0406646272	-0.562728
C	-0.0612424152	 0.0122161144	 0.0126507258	 0.30639
N	-1.1940907429	-0.6259777579	 0.0105447366	-0.396733
C	-1.1838837827	-2.0156630682	-0.0026493109	 0.430699
N	-2.1979631648	-2.7896875521	-0.0044689622	-0.572955
N	 0.0856483063	-2.6249759576	-0.0165034751	-0.258236
N	 1.2567613724	-1.986724625	-0.020725154	-0.205784
C	 1.1969200899	-0.7139760373	-0.0054437066	 0.274301
F	 2.3326347107	-0.0108041247	-0.0102494488	-0.07328
H	 0.8668226445	 1.8410394156	-0.0254251764	 0.278898
H	-0.8742535673	 1.8789313391	 0.0016563014	 0.276942
H	-3.0452544365	-2.2265120137	 0.0068970206	 0.219704
H	 0.1271319468	-3.6322929694	-0.0295612976	 0.282782
