14
gdb 51384	3.27542	1.20522	1.08071	5.5654	64.	-0.2786	-0.0181	0.2605	1112.7217	0.099934	-473.797203	-473.789538	-473.788594	-473.830398	27.509	
N	-0.3666511114	 1.1103814109	-0.1058799036	-0.428171
C	-0.6286984665	-0.0702823815	 0.2371964174	 0.137689
O	-0.936043257	-0.9866878566	-0.7235394857	-0.187105
C	-1.0194299701	-2.3173888746	-0.325119869	 0.09651
C	-1.9132584199	-2.7958058767	 0.7651855266	 0.019615
O	-3.0690883562	-1.9330989656	 0.8659111479	-0.254463
C	-3.4695914315	-2.3011001898	-0.4213104059	 0.488754
O	-4.4799961448	-2.0223319581	-0.9679486037	-0.304039
C	-2.2438479105	-3.147129092	-0.679174619	-0.322546
H	-0.1877742352	 1.6825096665	 0.7168015707	 0.237295
H	-0.6569043512	-0.4827209964	 1.2518762596	 0.10256
H	-0.0865914315	-2.8696279096	-0.4345825813	 0.131132
H	-1.6697741812	-3.4067293787	 1.6231629882	 0.141274
H	-2.1988243329	-4.0645745879	-1.2470297822	 0.141495
