14
gdb 21115	3.7795	2.10563	1.37587	0.018	60.61	-0.2422	-0.0223	0.2199	858.9819	0.107581	-412.046267	-412.038415	-412.037471	-412.079037	26.4	
C	 0.1329712022	 1.4124857769	-0.0908847256	-0.334964
N	 0.1500633312	-0.0300322631	-0.0212602087	-0.07712
N	 0.1965325429	-0.8153243973	-1.1287851317	-0.114602
N	 0.2006596138	-2.0327407599	-0.7569026396	-0.114602
N	 0.1570252625	-2.0653867105	 0.6004794101	-0.07712
C	 0.1490981467	-3.3006566216	 1.3488401242	-0.334964
C	 0.1225534398	-0.7889952028	 1.1368946852	 0.525258
O	 0.0800600503	-0.4346233702	 2.2974586718	-0.434395
H	 1.036293014	 1.785609544	-0.5799337161	 0.153328
H	-0.7462868563	 1.7616551789	-0.638022433	 0.15333
H	 0.0945812688	 1.7737176565	 0.9382387822	 0.174596
H	 1.0556235811	-3.8777507531	 1.1499576983	 0.153329
H	 0.1111109181	-3.0253911042	 2.4042268932	 0.174596
H	-0.7269637351	-3.9014142737	 1.0919720998	 0.153329
