17
gdb 26715	3.27509	1.20248	0.88544	4.9362	81.03	-0.1901	-0.024	0.1661	1267.2678	0.136094	-418.060545	-418.051228	-418.050284	-418.094926	33.255	
C	-0.0402143891	 1.5185962516	 0.0771323903	-0.513955
C	-0.001712507	 0.0310830165	-0.0281647589	 0.280467
C	-0.0302045638	-0.7991369941	-1.1280139228	 0.046245
N	-0.1610478047	-0.3881804212	-2.4652183802	-0.611718
C	 0.0169289677	-2.1578701542	-0.6512525914	 0.151834
C	 0.0067394873	-3.3859100218	-1.4201867173	 0.062917
O	 0.0531337923	-4.5085695469	-0.9549690221	-0.3023
C	 0.077571389	-2.0945162583	 0.7367143763	-0.14604
N	 0.0705294979	-0.7926000107	 1.0916989005	-0.304898
H	 0.9467874384	 1.9689290521	 0.2509293735	 0.128064
H	-0.4407031949	 1.9481280006	-0.8457763862	 0.139654
H	-0.6964047686	 1.8501167009	 0.8909306675	 0.127058
H	 0.3430213151	 0.4651685085	-2.6676584922	 0.2429
H	 0.1216508318	-1.0988119889	-3.1258873535	 0.24704
H	-0.0484786031	-3.2472926542	-2.5264428293	 0.038691
H	 0.1228080413	-2.8952049895	 1.4558002929	 0.150132
H	 0.1011554107	-0.4538853205	 2.038439123	 0.26391
