18
gdb 30325	2.92531	1.57849	1.12411	1.2917	78.73	-0.2019	0.0338	0.2357	1080.4587	0.151019	-401.9899	-401.982288	-401.981344	-402.022014	30.07	
O	-0.2014090802	 1.5110565422	-0.2278062431	-0.432828
C	 0.0848578156	 0.1246061791	-0.0121761882	-0.013145
C	-1.1852699727	-0.7708744846	 0.1850291391	-0.230122
C	-1.4168599611	-1.5965547205	-1.1245524165	-0.359642
C	-0.0954308965	-1.4571196904	-1.8288784314	 0.295797
C	 0.7068945313	-0.54684225	-1.1894976981	 0.259721
N	 1.8813788619	-0.4320716135	-1.8844899548	-0.372395
C	 1.8292346944	-1.2797669336	-2.9690082034	-0.070332
C	 0.6119089517	-1.9328701255	-2.966009112	-0.328181
H	-0.6255413829	 1.5791079396	-1.0909375022	 0.273322
H	 0.7039864501	 0.1283941445	 0.8913094738	 0.083649
H	-1.0099162921	-1.4559191357	 1.0200380864	 0.107344
H	-2.0377363302	-0.1423430204	 0.4556649457	 0.104894
H	-1.681202974	-2.6341790519	-0.893423861	 0.106081
H	-2.2471802184	-1.1960564434	-1.7204714836	 0.103091
H	 2.6526500918	 0.1697614218	-1.6543188131	 0.262978
H	 2.6635584181	-1.3551635621	-3.6488849492	 0.117067
H	 0.2921277532	-2.6604818657	-3.6965111482	 0.092702
