21
gdb 94396	2.37726	1.31657	1.25323	2.6362	83.3	-0.231	-0.0204	0.2106	1176.4982	0.181809	-387.096177	-387.087144	-387.0862	-387.130529	34.05	
C	-0.5620937872	 1.2537109976	-0.2235907084	-0.416845
C	 0.2003613482	-0.0605139359	-0.2009087723	-0.013182
C	 1.6638720543	-0.0948928355	-0.717252788	-0.232833
C	 2.0168153749	-1.0569117253	 0.4444011359	-0.284315
C	 0.6908831586	-0.6501796728	 1.1615367217	 0.238337
C	 0.7570373283	 0.1714870177	 2.4864106562	-0.32196
C	 0.1010188127	-1.0093120006	 3.2693239895	-0.343857
C	-0.1059248969	-1.7119579722	 1.9174155746	 0.343202
O	-0.6990922864	-2.6918211266	 1.5625485372	-0.30999
H	 0.0016766485	 2.0544674849	 0.2672743492	 0.114614
H	-0.7513966439	 1.5688682181	-1.2557462836	 0.119134
H	-1.5323609048	 1.1675974464	 0.2783826968	 0.117772
H	-0.3862147752	-0.8420004076	-0.6977329072	 0.093248
H	 1.8325884637	-0.4489221075	-1.7371800552	 0.099888
H	 2.1524672378	 0.8780979252	-0.6028250401	 0.099714
H	 1.9918038405	-2.1067960329	 0.1393643306	 0.1197
H	 2.9409127085	-0.8699125492	 0.9972157912	 0.101736
H	 1.7618787308	 0.4486184178	 2.8119845805	 0.104597
H	 0.1347641086	 1.0688724515	 2.4749955316	 0.111223
H	 0.7855234581	-1.557776391	 3.9243807906	 0.131579
H	-0.8121038193	-0.7950056519	 3.8313844792	 0.12824
