18
gdb 51594	3.00502	0.96651	0.80272	3.5268	78.89	-0.2503	0.0194	0.2697	1419.485	0.146044	-401.923185	-401.913704	-401.91276	-401.958496	34.202	
O	 0.3572811496	 1.1459428632	 1.4444062655	-0.317916
C	 0.2409995775	 1.6619307301	 0.3549051971	 0.150545
N	 1.2412525851	 1.7818457481	-0.5652074376	-0.279233
C	 2.5172445025	 1.1452754338	-0.4047017494	 0.013255
C	 3.7361080537	 1.8449413387	-0.9513863497	-0.324227
C	 3.5453571209	 1.7225005627	 0.5382654422	 0.026239
C	 3.235805443	 2.9460373714	 1.3868748205	-0.393067
C	 4.4381388577	 3.6779991809	 1.7729958344	 0.306015
C	 5.4382408024	 4.266473647	 2.0863022404	-0.436718
H	-0.7046267562	 2.1146797541	-0.0065782018	 0.077183
H	 0.9936313047	 2.1278801229	-1.4798948658	 0.249902
H	 2.487676697	 0.0602853611	-0.4695587031	 0.109211
H	 4.4951880665	 1.2484012421	-1.4438136372	 0.122499
H	 3.5853150292	 2.8281511055	-1.3866321123	 0.118391
H	 4.1609835708	 0.9845240778	 1.0424249552	 0.105077
H	 2.5626830941	 3.612621785	 0.8354484413	 0.124301
H	 2.6831910215	 2.630191001	 2.27950298	 0.15611
H	 6.3157623902	 4.7930648844	 2.3685155705	 0.192435
