17
gdb 98701	2.77588	1.08001	0.91084	3.4339	75.56	-0.2501	-0.0316	0.2186	1334.9253	0.131732	-421.782667	-421.772961	-421.772017	-421.818374	34.144	
C	 0.0913312306	 1.6552956602	 0.2991417827	-0.379243
C	-0.0329587259	 0.1453869536	 0.4821415142	-0.294816
C	-1.2129788319	-0.4567247611	-0.2632741175	 0.367357
O	-2.021181349	 0.1996969825	-0.8723722639	-0.295505
C	-1.2992666524	-1.9664685864	-0.2046119036	-0.034119
O	-2.5157094199	-2.5716525336	-0.6051769119	-0.215722
C	-1.3907421611	-2.7721571532	-1.4585672144	-0.165307
C	-1.4109945957	-2.1849787624	-2.7692515999	 0.361657
C	-1.3951707019	-1.7516583102	-3.8895141711	-0.416393
H	 0.9401472895	 2.0452046136	 0.8672143001	 0.112144
H	 0.2326819404	 1.9094575001	-0.754483087	 0.134249
H	-0.8163293315	 2.1617275476	 0.6359864713	 0.137423
H	 0.877289429	-0.3772273983	 0.1541440366	 0.125155
H	-0.1425140635	-0.1187307547	 1.5441568043	 0.127429
H	-0.8027866415	-2.4405405818	 0.6438655922	 0.104167
H	-0.9732395756	-3.7785064602	-1.413407754	 0.123782
H	-1.3975002496	-1.3483816457	-4.8722672083	 0.207742
