19
gdb 126631	4.76234	0.83423	0.75384	2.7998	79.02	-0.2719	-0.0142	0.2577	1570.252	0.159556	-415.396648	-415.387206	-415.386262	-415.432813	32.444	
C	-0.0090112708	 1.5227090877	 0.0701299099	-0.382966
C	-0.0225166135	-0.0065533887	 0.1233524589	-0.179855
C	-1.4295747561	-0.5671169409	-0.1039959218	-0.133068
N	-1.4639117183	-2.0210307605	-0.0483091011	 0.139091
N	-1.6002146015	-2.7787294821	-1.1274508447	-0.131185
N	-1.5470661423	-4.0194526637	-0.712545626	-0.260881
C	-1.3737841867	-3.9677489266	 0.6325977995	 0.387144
C	-1.2684553336	-5.1685847323	 1.5078174372	-0.478758
N	-1.316351761	-2.7141413202	 1.0762553779	-0.301042
H	 1.0007791137	 1.908245218	 0.2347748599	 0.125501
H	-0.3519250395	 1.891799162	-0.9025621149	 0.122765
H	-0.659422598	 1.954416033	 0.838633362	 0.1223
H	 0.6480157538	-0.4200397246	-0.6383972086	 0.119088
H	 0.3415436728	-0.3582788492	 1.0942330974	 0.127872
H	-2.1245321542	-0.1907683775	 0.6523972283	 0.136624
H	-1.8096772469	-0.2987099016	-1.0920582371	 0.147064
H	-0.4496063548	-5.8149145891	 1.1790141122	 0.148191
H	-1.0896423939	-4.8657458417	 2.5405638014	 0.143877
H	-2.188255099	-5.759816412	 1.4671554095	 0.148238
