15
gdb 27645	3.11254	1.2868	0.91659	3.0933	80.08	-0.1944	0.0089	0.2032	1223.8018	0.111536	-416.820548	-416.811743	-416.810798	-416.853858	32.354	
C	-0.0327938217	 1.4520225027	 0.1187332086	-0.496661
C	 0.0135650819	-0.0207615159	-0.0552373269	 0.37148
N	-0.0212520777	-0.7187603243	-1.1337607278	-0.341897
C	 0.0357733042	-2.0586337794	-0.7132564596	 0.056868
C	 0.0108845745	-3.1799812511	-1.5647023285	 0.192261
C	-0.0142139149	-4.1701644992	-2.2526311016	-0.420448
C	 0.1144064818	-2.0662308612	 0.6546919945	 0.27903
N	 0.2741068526	-3.0588140019	 1.5895156162	-0.60536
O	 0.10109695	-0.7866486712	 1.0949491071	-0.199643
H	 0.8620910937	 1.8207267203	 0.6313641999	 0.144576
H	-0.095690258	 1.9166120789	-0.8655383789	 0.160307
H	-0.9018921256	 1.7557944546	 0.7123583146	 0.142232
H	-0.0288615077	-5.0296536453	-2.8752289667	 0.183224
H	 0.0798347331	-3.9781766033	 1.2164762763	 0.270289
H	-0.2002210662	-2.8907377436	 2.4667336927	 0.263742
