19
gdb 46053	3.59098	1.03891	0.89168	3.2997	75.29	-0.2381	-0.0141	0.224	1309.5186	0.159429	-423.038717	-423.030472	-423.029528	-423.072205	31.08	
O	 0.0207184515	 0.0059970103	-0.0914883066	-0.311903
C	 0.0080270279	 1.2024863077	 0.0335753218	 0.398474
C	-1.2320456536	 2.1016873088	-0.0444365397	-0.323828
C	-0.6805812335	 3.5323395021	-0.0832048134	-0.228594
C	 0.6569505763	 3.4573950141	 0.7031122257	-0.025843
C	 1.2281054147	 2.0864288003	 0.3094984604	-0.34435
C	 1.5495070131	 4.644699387	 0.4202883274	 0.080303
C	 3.0150954178	 4.5819304922	 0.3742737307	-0.187358
O	 2.2443689792	 4.6502380659	-0.8301855999	-0.233544
H	-1.8652872971	 1.8235341432	-0.8900996272	 0.130865
H	-1.819061854	 1.9230193356	 0.8663515542	 0.13049
H	-0.4639495127	 3.8267364576	-1.1165226334	 0.124396
H	-1.3667294914	 4.2746244889	 0.3327927689	 0.103542
H	 0.4302879787	 3.4625433293	 1.7784029627	 0.082557
H	 1.8857327713	 1.6197757964	 1.0460099066	 0.124956
H	 1.7895127796	 2.179724342	-0.6299867964	 0.15115
H	 1.1020312081	 5.6091661455	 0.6709034378	 0.092202
H	 3.6011915489	 5.4708083015	 0.6024984629	 0.117963
H	 3.5231075153	 3.6349821915	 0.5470520676	 0.118521
