19
gdb 51016	1.62141	1.42971	0.85932	4.8281	76.28	-0.2525	-0.0321	0.2204	1359.4955	0.155646	-423.028576	-423.018769	-423.017824	-423.06498	34.346	
O	-0.7050008014	 0.9991858716	 0.9835596379	-0.232596
C	-0.1312284346	 1.9617713295	 0.5468479908	 0.165401
C	 1.2611544209	 1.9404887845	-0.0592594052	-0.359032
C	 1.3564827916	 2.748143705	-1.3475925941	 0.340029
C	 0.5808009497	 2.1678105779	-2.5234951225	-0.359017
C	 1.1650234899	 0.8588141724	-3.0252351956	 0.165399
O	 0.5215570278	-0.1179826462	-3.3050965407	-0.232601
C	 1.4473668215	 4.2544714944	-1.2278201887	-0.314101
C	 2.657981822	 3.4608397427	-1.6472166369	-0.314107
H	-0.6003753899	 2.9729197043	 0.5737193043	 0.077675
H	 1.9369048264	 2.3780925757	 0.6890750295	 0.12251
H	 1.5595061141	 0.8962043252	-0.199295866	 0.130916
H	-0.4755553197	 2.0043809139	-2.2856708802	 0.13092
H	 0.6231015576	 2.8742114085	-3.3645366812	 0.122516
H	 2.2746293292	 0.86800586	-3.1344976615	 0.077673
H	 0.943108611	 4.8577680241	-1.9747376758	 0.120381
H	 1.4441326299	 4.6899261553	-0.2343044149	 0.118827
H	 3.4735964973	 3.3537906614	-0.9405020196	 0.120378
H	 2.9775248966	 3.5293693898	-2.6815770095	 0.118829
