20
gdb 116768	3.9266	0.61911	0.55956	2.8899	82.07	-0.2436	-0.0186	0.225	1979.3914	0.166965	-440.28908	-440.278097	-440.277152	-440.327199	36.659	
C	-0.0619123599	 1.3959291394	-0.0383927775	-0.249548
O	-0.0662994353	-0.0268921803	-0.0395542261	-0.192844
C	 0.655913386	-0.6099411737	-1.0150767994	 0.131276
N	 0.7116478609	-1.8629702985	-1.1119032761	-0.220443
C	 1.515893862	-2.4146814156	-2.1859223903	-0.158767
C	 2.5554741436	-3.3983869225	-1.6306150191	-0.070503
C	 1.921918776	-4.5996115472	-0.9048998738	-0.398626
C	 3.4941222034	-3.889645664	-2.7114919097	 0.152336
O	 3.4423784358	-3.5779284022	-3.8747998038	-0.248841
H	 0.9517276901	 1.7950950646	 0.0888650336	 0.127609
H	-0.4963234688	 1.7997242559	-0.9608842859	 0.129502
H	-0.6752224998	 1.7037927106	 0.8090947253	 0.147699
H	 1.1673937865	 0.094836076	-1.6903624784	 0.075614
H	 0.8575904537	-2.9597492296	-2.8742914196	 0.115854
H	 2.0266729228	-1.643546688	-2.7836528732	 0.095532
H	 3.1881581831	-2.8685563853	-0.9002321324	 0.096476
H	 1.3004822364	-5.18470299	-1.5914826891	 0.124658
H	 2.6868470156	-5.2633042878	-0.4890656829	 0.113562
H	 1.2863487238	-4.2422737505	-0.0931063317	 0.153537
H	 4.2725201439	-4.6009374013	-2.3465730998	 0.075918
