18
gdb 81512	3.19544	1.44974	1.13586	2.4493	78.	-0.2185	0.0179	0.2364	1084.3559	0.147147	-398.04412	-398.035336	-398.034392	-398.077899	32.951	
C	-0.0418673102	 1.5414075797	 0.0118905766	-0.30123
N	-0.0318194056	 0.0702088828	-0.040069075	-0.104151
C	-1.1263151868	-0.766885683	 0.5713537728	-0.064463
C	-0.1491141642	-1.9617862393	 0.4133416615	-0.231793
C	 0.643618356	-0.7704368668	 1.013296156	-0.064445
C	-0.5488967049	-0.5526225738	 2.0258582988	 0.185569
N	-0.6982661448	 0.7552599277	 2.6349488346	-0.563945
C	-0.7964317875	-1.6229970059	 3.0085228032	 0.216815
N	-1.0038236038	-2.4091755313	 3.8327114161	-0.347753
H	 0.6874967402	 1.9405388115	 0.7205224417	 0.118897
H	 0.207693952	 1.9135547788	-0.9889417298	 0.1081
H	-1.0164861872	 1.9441500376	 0.2970662423	 0.11893
H	-2.1706854624	-0.6856104294	 0.2655457144	 0.094762
H	-0.3067344989	-2.8398400647	 1.0375470567	 0.134179
H	 0.107789886	-2.1936651617	-0.6174089302	 0.118583
H	 1.7094629836	-0.6933827215	 1.2343746035	 0.094752
H	-1.6328929228	 0.8523415567	 3.0225075274	 0.243595
H	-0.0549841288	 0.8491366026	 3.4163123994	 0.243598
