19
gdb 72949	2.6211	1.5046	1.20614	0.9769	82.67	-0.2269	0.0411	0.268	1100.6393	0.157084	-385.82794	-385.818929	-385.817984	-385.860825	35.398	
C	 0.0043638356	 1.5559696445	-0.0234357725	-0.476418
C	 0.0804047021	 0.0360929712	 0.0398595131	 0.047877
C	-1.1030274351	-0.6262594507	-0.4495878603	 0.229935
C	-2.1087962069	-1.194390725	-0.7932281087	-0.420977
C	 1.3627621281	-0.7789688758	-0.2250745722	-0.170097
C	 2.5873854031	-0.05039808	 0.3354992245	-0.249911
C	 1.9342660422	-0.0619892775	 1.7579620447	-0.30013
C	 0.7200290266	-0.7676591741	 1.1675204697	 0.407949
O	 0.0491360225	-1.7124632795	 1.9054958818	-0.461179
H	 0.8951488016	 2.0258307163	 0.3979967641	 0.124623
H	-0.0967135741	 1.8930785301	-1.0599568233	 0.12719
H	-0.8638961465	 1.9198085638	 0.5344207354	 0.128686
H	-2.9874926472	-1.678610851	-1.1417311002	 0.196132
H	 1.3685327296	-1.5347146294	-1.0011022471	 0.097047
H	 3.4880047822	-0.6659775971	 0.2913103788	 0.110283
H	 2.8174245328	 0.9291912471	-0.0936373921	 0.101257
H	 2.4678944977	-0.7216285596	 2.4452795415	 0.119601
H	 1.760748603	 0.896995291	 2.2552665835	 0.100443
H	-0.7912441672	-1.8975279945	 1.4630708394	 0.28769
