20
gdb 83141	2.02469	1.74529	1.42584	2.1831	79.03	-0.2319	-0.0215	0.2105	1064.1007	0.170376	-403.160264	-403.151299	-403.150355	-403.193617	33.883	
C	-0.0089110373	 1.6003649899	-0.0277215123	-0.437112
C	 0.072335859	 0.0917579328	 0.0655378083	-0.015231
N	 1.2404603421	-0.7151229824	-0.2928730546	-0.157018
C	 2.5193622673	 0.0417648751	-0.3828402353	-0.169878
C	 2.8700198311	 0.6084760236	 1.0073724485	-0.34919
C	 1.7923605724	 0.0502118343	 1.9458309427	 0.366021
O	 1.7872132408	 0.1312861292	 3.1489550625	-0.324031
C	 0.7867333815	-0.7061285745	 1.1197258865	 0.179414
C	 0.1791907497	-1.9392449009	 1.7397310774	-0.477796
H	 0.8395610475	 2.1258073604	 0.4122819934	 0.127676
H	-0.0896306097	 1.90856923	-1.0762952353	 0.130408
H	-0.9114904343	 1.9470368659	 0.485402864	 0.13452
H	-0.8463833135	-0.3847522317	-0.2783785046	 0.097843
H	 3.2819669295	-0.6648891605	-0.7200828039	 0.118206
H	 2.4341493508	 0.8164673032	-1.1502690206	 0.113378
H	 3.8451393136	 0.2668803206	 1.3660258997	 0.138205
H	 2.8837968771	 1.7015355468	 1.0654266166	 0.136088
H	-0.311941483	-1.6754018744	 2.6808944426	 0.139111
H	-0.554017908	-2.3923331811	 1.0684916798	 0.123417
H	 0.9483131333	-2.6858151562	 1.9623387645	 0.125969
