22
gdb 83742	2.61977	1.51537	1.30902	1.2489	85.75	-0.2138	0.0859	0.2997	1105.4638	0.195579	-367.179864	-367.171398	-367.170453	-367.212819	33.373	
C	-0.012212012	 1.632117893	-0.4108875019	-0.31798
N	 0.0581104484	 0.2241579685	-0.0609455872	-0.095186
C	 1.2651675709	-0.578893483	-0.1824358463	-0.03544
C	 2.6365468611	 0.0842289045	-0.2746725608	-0.234987
C	 2.7858492016	 0.9768687891	 0.9879297496	-0.319743
C	 1.6485776066	 0.5680950637	 1.9371335062	 0.394808
C	 1.9308241404	 0.2001397133	 3.3748885542	-0.324133
C	 1.187640186	 1.472358883	 3.0545704327	-0.312407
C	 0.6720661785	-0.279134729	 1.1606335682	-0.119552
H	 0.869424254	 2.2378006708	-0.1623795408	 0.105104
H	-0.1847431734	 1.7142486497	-1.4892375367	 0.119902
H	-0.8747196483	 2.0751815307	 0.0974874814	 0.122227
H	 1.1331975724	-1.5342277701	-0.6861080474	 0.082921
H	 3.3971470906	-0.7037120765	-0.2886320956	 0.10469
H	 2.7626844616	 0.6564824822	-1.2004563368	 0.101986
H	 3.7654742089	 0.8418502518	 1.4572695729	 0.099585
H	 2.7137099362	 2.0374030352	 0.7264057806	 0.108342
H	 1.3746470686	-0.6218813289	 3.8147960685	 0.111053
H	 2.9555246987	 0.2802700374	 3.7232498375	 0.107723
H	 1.707149423	 2.415868152	 3.1900996739	 0.108582
H	 0.1263540644	 1.5141853834	 3.2772300264	 0.112591
H	 0.0693843719	-0.9922485807	 1.7204562014	 0.079916
