23
gdb 108314	2.76405	1.29974	1.07216	1.456	85.42	-0.2336	0.0777	0.3113	1265.2303	0.20508	-388.276084	-388.266682	-388.265738	-388.310238	36.032	
C	 0.0433822139	 1.5440304163	 0.005989508	-0.381264
C	-0.1575504384	 0.0265191496	-0.0892359173	-0.27153
C	 0.6700451776	-0.5899450052	-1.192306685	 0.489275
C	 0.308607663	-0.339420637	-2.6819820855	-0.272249
C	 0.4799402933	-1.8650259771	-2.9656985162	-0.232836
C	 0.8487463177	-2.1130107781	-1.4791960199	-0.177057
C	 2.3192393165	-1.8706466403	-1.075272935	 0.156576
C	 3.4686875548	-2.2246679205	-1.9964150054	-0.411157
O	 2.0981612838	-0.4378188815	-0.970879097	-0.355677
H	 1.0993834784	 1.7761544964	 0.168958186	 0.137563
H	-0.2737431589	 2.046455212	-0.9142227096	 0.115631
H	-0.5338796716	 1.9667785447	 0.8334594517	 0.10915
H	 0.1177675312	-0.4443492368	 0.8626268274	 0.097338
H	-1.2150527328	-0.2077352037	-0.2663155456	 0.091693
H	-0.709095596	 0.0279407373	-2.8434812375	 0.095554
H	 1.0109767409	 0.325649125	-3.1883432962	 0.106576
H	-0.455710291	-2.3534653227	-3.2473312015	 0.102058
H	 1.2351371359	-2.1404972936	-3.705308811	 0.100744
H	 0.3160255425	-2.9038075228	-0.9504002697	 0.066961
H	 2.5184010007	-2.2837729371	-0.0747858244	 0.070452
H	 3.3171026138	-1.8279938356	-3.003767143	 0.12151
H	 4.4004975436	-1.8026744772	-1.6064277139	 0.126382
H	 3.5887635309	-3.3118081623	-2.0606707296	 0.114307
