16
gdb 75774	2.66224	1.25587	1.10336	1.3645	70.42	-0.2609	-0.039	0.2219	1138.0094	0.121432	-437.903237	-437.894093	-437.893148	-437.937245	33.163	
C	-0.555737689	 1.2938921334	 0.0432701943	-0.414359
C	 0.1112496322	-0.0661865899	-0.07313845	-0.116412
C	 1.4290294036	-0.218991055	-0.8531179045	 0.388328
O	 1.8503772598	 0.2634010423	-1.8598699081	-0.280993
C	 2.0218855957	-1.1587649624	 0.2135014541	-0.386919
C	 0.8672739556	-0.6833226919	 1.161676602	 0.217903
O	 1.2583364779	 0.3646616832	 2.0196923573	-0.451685
C	 0.1611722455	-1.7396432026	 1.8933981421	 0.231627
N	-0.3777640509	-2.5776380868	 2.4799154171	-0.331668
H	 0.1180404144	 2.0208855353	 0.4992511587	 0.147386
H	-0.8270172286	 1.6495917806	-0.9546598626	 0.140727
H	-1.4651590603	 1.2371262227	 0.6476866508	 0.134743
H	-0.5891618435	-0.8166767376	-0.4609211155	 0.129303
H	 1.9472686399	-2.2106293599	-0.0773471078	 0.152001
H	 3.0343037568	-0.9426104689	 0.5607850619	 0.142056
H	 1.8304212009	 0.0052232873	 2.7074786302	 0.297962
