23
gdb 100316	1.87693	1.4377	1.00492	2.8973	81.45	-0.2523	0.0574	0.3096	1321.4611	0.202853	-425.407548	-425.396812	-425.395868	-425.443071	39.669	
C	-1.5113871152	-0.8023334702	-0.4113940579	-0.408917
C	-0.104750804	-0.2612655638	-0.1232039049	-0.221072
C	 0.950758969	-0.5680635295	-1.207985195	 0.30408
O	 0.6053531458	 0.0418464949	-2.4511023379	-0.462787
C	 2.3377386045	-0.0027549142	-0.8399516478	-0.176509
C	 2.3992222985	 1.5180469084	-0.6739457276	-0.400675
C	 1.0920798909	-2.0867658767	-1.3647403977	 0.071519
C	 0.6427555985	-2.827514751	-2.5511072934	-0.186308
O	 2.0263630181	-2.5538289384	-2.3348738876	-0.239721
H	-1.9419458767	-0.3729427654	-1.324604776	 0.108528
H	-1.5196824459	-1.8909930745	-0.5203107553	 0.126662
H	-2.1943591305	-0.5436885373	 0.4029427308	 0.123456
H	-0.1558818788	 0.824155281	 0.0036858245	 0.11039
H	 0.2503373985	-0.6715941079	 0.8300478401	 0.100116
H	-0.3319707863	-0.1052178778	-2.6103179584	 0.277888
H	 2.6817171526	-0.4999427285	 0.0755473813	 0.087893
H	 3.0178631594	-0.3133504244	-1.6390188447	 0.125768
H	 1.9878062688	 2.0157812237	-1.5553770626	 0.134125
H	 1.8449209783	 1.8647093195	 0.2039487879	 0.109112
H	 3.4368027336	 1.8433089422	-0.5511794819	 0.109832
H	 1.1401688528	-2.6290313714	-0.4171611766	 0.087492
H	 0.348379113	-3.8725580717	-2.457639405	 0.108946
H	 0.197925955	-2.2851618472	-3.3821693442	 0.110184
