20
gdb 37623	2.70871	2.16167	1.96266	1.7196	78.88	-0.2198	0.0862	0.306	850.5966	0.176662	-365.99589	-365.98991	-365.988966	-366.025755	26.643	
C	-0.0479481537	 1.560360914	 0.0366671143	-0.220953
C	 1.4500643545	 1.891070652	 0.0415168745	-0.07702
C	 2.0415072104	 0.9308588072	 1.096144064	-0.046181
C	 1.2974468732	-0.3010961403	 0.7631939187	-0.031819
C	 0.0094992054	 0.0114611072	-0.0186000749	-0.037361
C	 0.1823546135	-0.4449380532	-1.481482394	-0.206658
C	 1.3375967815	 0.3723649001	-2.1181670229	-0.220549
C	 2.1862708319	 0.9928968884	-1.0104497804	 0.041031
N	 2.5852147079	-0.0004405751	 0.0524722029	-0.159864
H	-0.5210232918	 1.9150366184	 0.9591823428	 0.095167
H	-0.5908849253	 1.9917456014	-0.8120471066	 0.091317
H	 1.7150172814	 2.9476196378	 0.0688612595	 0.064047
H	 2.5617182946	 1.1527740166	 2.0206040873	 0.086746
H	 1.3609255932	-1.1878490291	 1.3840803833	 0.088843
H	-0.8583903972	-0.4673191271	 0.4413464447	 0.062394
H	 0.4137050021	-1.5149084611	-1.5020927337	 0.102586
H	-0.7494269387	-0.3090253398	-2.0400094114	 0.092018
H	 1.9656512659	-0.2625884941	-2.7511281962	 0.105854
H	 0.9495522066	 1.1703710175	-2.7619619051	 0.098235
H	 3.0925279946	 1.4618809492	-1.4001907667	 0.072166
