21
gdb 71218	2.76327	1.80571	1.64061	0.2056	86.42	-0.2273	0.0218	0.2491	963.071	0.184968	-349.933107	-349.926028	-349.925084	-349.963814	30.782	
C	-0.0324021558	 1.5453971915	-0.001640837	-0.498079
C	 0.0141543864	 0.0286385873	 0.000983442	 0.288667
C	 1.048400078	-0.7007360518	-0.9357525929	-0.25344
C	 1.1976186263	-1.7420822874	 0.1737478691	-0.029005
C	-0.1288002921	-2.5221546392	 0.6027649162	-0.086402
C	-0.0393149117	-1.7701820463	 1.9790077289	-0.228398
C	 0.7489997098	-0.6915062151	 1.233336663	-0.051025
C	-1.3431817641	-1.9602357775	-0.0864786629	-0.087037
C	-1.3073770783	-0.6427018732	-0.2934578189	-0.102204
H	 0.9604949942	 1.9744577521	 0.168606552	 0.109633
H	-0.3999720246	 1.9254129274	-0.962260466	 0.113652
H	-0.7000961983	 1.9224539184	 0.7818321848	 0.11618
H	 0.7028931449	-0.9956704287	-1.9306464931	 0.088623
H	 1.9753798481	-0.1219234348	-1.0196209621	 0.089904
H	 2.1097469002	-2.3336461721	 0.2681873584	 0.060172
H	-0.0843244269	-3.6116265118	 0.6099030363	 0.05986
H	-0.9823196591	-1.5238395076	 2.4749242449	 0.090215
H	 0.6241835704	-2.2912700638	 2.6773724952	 0.09352
H	 1.4448810978	-0.0369715369	 1.7628539728	 0.056295
H	-2.2027476396	-2.5851851715	-0.3042077878	 0.086761
H	-2.1241638555	-0.0710153088	-0.7238328229	 0.082108
