18
gdb 97286	1.83619	1.2116	0.77589	1.5847	86.96	-0.2277	-0.0084	0.2193	1479.9764	0.145624	-398.092915	-398.08279	-398.081846	-398.129176	35.363	
C	 0.2155845685	 1.3715953676	-0.0472048249	-0.312293
N	-0.0106619039	-0.0569751601	-0.0077292274	-0.240786
C	 0.6533578619	-0.7776425073	-0.8089255444	 0.125961
N	 0.5428807743	-2.1623843784	-0.8689629082	-0.088468
C	 1.3002247367	-2.8969744169	-1.8876939262	-0.327737
C	 2.7434821375	-2.6999840831	-1.7863038833	 0.308075
C	 3.9304986907	-2.5274585921	-1.7186243235	-0.452639
C	-0.291045125	-2.8556247839	-0.0063858663	 0.098467
N	-0.4344052157	-4.1188077451	-0.082597552	-0.478617
H	 0.954005567	 1.6830469509	-0.8038937791	 0.098576
H	-0.7281755502	 1.8904701762	-0.2523358161	 0.126887
H	 0.5616704587	 1.719361278	 0.9333124182	 0.127986
H	 1.3836900749	-0.3856088217	-1.5279624556	 0.10262
H	 1.0434660512	-3.9501779356	-1.7463131266	 0.191475
H	 0.9544729388	-2.6077707637	-2.8885492489	 0.142496
H	 4.9812845383	-2.3881070703	-1.6520420694	 0.205323
H	-0.7747960784	-2.1822589518	 0.7019224324	 0.14179
H	-1.0761605754	-4.4430771927	 0.6369636512	 0.230884
