23
gdb 113554	2.29622	1.17755	1.16597	1.1579	86.48	-0.2325	0.0781	0.3106	1284.5545	0.204257	-388.25667	-388.246828	-388.245884	-388.291427	36.876	
C	-0.466053223	 1.0459724184	-0.23211746	-0.236076
O	 0.431771132	-0.0011087722	 0.0744802346	-0.232111
C	 0.9201295793	-0.6428360101	-1.0626836386	 0.062851
C	 1.563067041	-1.9795984598	-0.8590472067	-0.401502
C	 0.2369811318	-1.888175686	-1.5698064279	 0.317338
C	-1.1197436562	-2.3988755714	-1.075092691	-0.29183
C	-1.6111823062	-2.3713967531	-2.5517317936	-0.227141
C	-0.1336688891	-2.2170948892	-3.0290168205	-0.024218
C	 0.1702047902	-1.2119062553	-4.1301636464	-0.412362
H	 0.0213339902	 1.8332736132	-0.827821865	 0.105459
H	-1.3435649236	 0.6873722528	-0.7892609759	 0.107138
H	-0.7969173859	 1.4762909555	 0.7161851453	 0.12628
H	 1.367499765	 0.0312896223	-1.7962596577	 0.0775
H	 2.4583625535	-2.2092486789	-1.4292118359	 0.107738
H	 1.5524774615	-2.3739776727	 0.1524146691	 0.119923
H	-1.0638120338	-3.4140951634	-0.6692080656	 0.09931
H	-1.6493785709	-1.7704386319	-0.355358759	 0.105193
H	-2.1597753519	-3.2448146852	-2.9116495879	 0.094291
H	-2.2002692763	-1.4759957088	-2.7733164657	 0.096193
H	 0.2762639149	-3.1974891151	-3.3032950065	 0.069293
H	-0.2364213769	-0.2241400657	-3.886389201	 0.110765
H	 1.2486385788	-1.0997335526	-4.2920727181	 0.112333
H	-0.2726980244	-1.5297460206	-5.0805208659	 0.113633
