25
gdb 118148	3.45904	0.74521	0.64566	1.3804	89.84	-0.2546	0.0719	0.3265	1845.1077	0.228029	-389.488418	-389.477719	-389.476775	-389.524816	39.319	
C	 0.0332277327	 1.5855710163	 0.0111827646	-0.382338
C	 0.0274446894	 0.0553485498	 0.0445157276	-0.163026
C	-1.3803447788	-0.5441304274	-0.0340538729	-0.184389
C	-1.4035516098	-2.0741386462	 0.0686672382	 0.098856
O	-0.8147933313	-2.5310928101	 1.2885822837	-0.434375
C	-2.8009025372	-2.6536530533	-0.1092189159	 0.040771
C	-3.4777787885	-2.5902568978	-1.5096817624	-0.23174
C	-4.0142539648	-4.0283733796	-1.2744372547	-0.215313
C	-2.9595999538	-4.1991762758	-0.1476055903	-0.228412
H	 1.0522313278	 1.9818059369	 0.0638163604	 0.111148
H	-0.4245224448	 1.966749886	-0.9088443685	 0.110746
H	-0.5287829711	 2.0034408639	 0.8543093296	 0.110182
H	 0.6283365299	-0.3324902298	-0.7888472737	 0.092371
H	 0.511371675	-0.30440142	 0.9588481453	 0.108449
H	-2.0047023197	-0.1292871511	 0.7728606804	 0.077943
H	-1.8627820003	-0.2432130567	-0.9737346108	 0.097636
H	-0.7527065571	-2.4917985777	-0.7124670889	 0.076843
H	-1.3694514652	-2.2170738479	 2.0118501113	 0.273787
H	-3.4683061257	-2.2215404694	 0.6498275251	 0.054144
H	-4.2046657261	-1.7951065412	-1.6918881984	 0.095026
H	-2.7290052882	-2.5637977637	-2.3088759402	 0.098541
H	-5.0343735067	-4.0200020715	-0.8795499904	 0.100007
H	-3.9773013929	-4.7253393954	-2.114980164	 0.095751
H	-2.0445797246	-4.6778359053	-0.5101585072	 0.103291
H	-3.268744918	-4.7031538429	 0.770593222	 0.094102
