14
gdb 21527	3.52602	1.79777	1.21286	5.1609	60.51	-0.2077	0.0079	0.2156	929.8918	0.108809	-412.026623	-412.018893	-412.017949	-412.059228	27.377	
N	 0.0842596039	 1.4397678679	 0.0482024385	-0.598349
C	-0.0236090655	 0.0463669429	 0.0173265736	 0.207027
C	-1.1500005198	-0.7515241234	 0.0595470008	 0.303621
C	-2.6144458346	-0.4880514525	 0.1350800384	-0.200277
O	-3.2847366903	-1.6470330799	-0.3478011072	-0.425168
N	-0.6326727987	-2.0082803444	 0.0881254081	-0.209865
N	 0.7017155492	-2.0065237223	 0.0594393444	-0.128431
N	 1.0781673038	-0.7530052726	 0.0194950804	-0.254211
H	 1.0453534595	 1.7126389287	-0.1213170372	 0.254881
H	-0.5197462776	 1.9025603245	-0.6204904923	 0.243254
H	-2.9124728208	-0.2694460392	 1.1735193719	 0.119007
H	-2.864182081	 0.4037857236	-0.461336803	 0.105922
H	-4.2163047614	-1.5734843903	-0.1209373641	 0.297531
H	-1.1509229968	-2.872151843	 0.0614224777	 0.285058
