23
gdb 76736	1.96511	1.71063	1.12258	1.0105	85.71	-0.2359	0.0749	0.3108	1212.5452	0.203514	-388.273191	-388.262926	-388.261981	-388.307388	39.169	
C	-0.6736980436	 1.5051292215	-0.5106360071	-0.409452
C	-0.261118547	 0.0490011662	-0.3210944171	-0.044779
C	 1.0395063423	-0.5055586432	-1.0339497962	-0.053655
C	 1.880284636	 0.394821124	-1.9327109452	-0.4164
C	 1.5743049597	-0.8965128218	 0.349073929	 0.350875
O	 2.2475276551	-2.0820100174	 0.6090928651	-0.470791
C	 1.6493283708	 0.2859916131	 1.2762848418	-0.412214
C	 0.3132801867	-0.3946191795	 1.0387365584	 0.291248
C	-0.4898739664	-1.0053507194	 2.1509403832	-0.49984
H	 0.1248428522	 2.2042690611	-0.2444389945	 0.112545
H	-0.9539548294	 1.7044990837	-1.5508123774	 0.112288
H	-1.5407742477	 1.7449120607	 0.1147554096	 0.113725
H	-1.1103874547	-0.592004221	-0.5825491876	 0.06903
H	 0.7805987565	-1.4188013831	-1.5793177551	 0.076622
H	 2.1930227745	 1.3123483566	-1.4245706019	 0.112017
H	 2.7869985507	-0.1265681924	-2.2603625406	 0.110286
H	 1.3282322291	 0.6867941801	-2.8326795975	 0.113822
H	 3.1942393323	-1.9069402987	 0.5842155989	 0.283498
H	 2.0906811644	 0.0561542554	 2.2418670267	 0.107346
H	 1.8597191638	 1.29160265	 0.921320919	 0.099705
H	-1.0795094843	-0.2513256649	 2.6862433128	 0.115537
H	-1.1864498469	-1.7594981196	 1.7664933544	 0.115103
H	 0.1621962259	-1.4970409214	 2.8799215914	 0.123482
