20
gdb 104990	2.58891	1.30663	1.00373	2.0167	79.93	-0.2498	0.0397	0.2896	1227.8413	0.169398	-403.084561	-403.074734	-403.07379	-403.119121	36.914	
C	 0.6979819694	 0.5657985993	-0.684358157	-0.386804
C	-0.0151807598	-0.8058788021	-0.6104198435	-0.246519
C	 0.8238432542	-1.7573885038	 0.1182387999	 0.29667
C	 1.5275880308	-2.5066842243	 0.7434406621	-0.454171
C	-1.4324824327	-0.7050128011	-0.0164168281	 0.301246
C	-2.378467051	 0.2582485099	-0.72807892	-0.122633
O	-2.2043203792	 1.5899438923	-0.283449011	-0.415102
C	-2.0212351647	-1.8502491389	 0.7207908294	-0.286181
N	-1.6058943106	-0.6315538945	 1.4464357631	-0.360671
H	 1.6694597217	 0.4539280164	-1.1722629294	 0.120252
H	 0.0964340527	 1.290054404	-1.2344192938	 0.146109
H	 0.8653386714	 0.9644978906	 0.3200229023	 0.124019
H	-0.1329364756	-1.1795045978	-1.6379210938	 0.113846
H	 2.1547383386	-3.1794530643	 1.2748249358	 0.200704
H	-2.194419539	 0.2560200363	-1.8081552998	 0.105165
H	-3.4148878445	-0.0749316268	-0.5692273932	 0.091087
H	-2.2114561085	 1.5306489251	 0.6814859423	 0.292063
H	-3.0941241118	-2.0169208897	 0.6819539708	 0.114862
H	-1.4185632249	-2.7435357036	 0.8484587962	 0.128315
H	-0.7140833365	-0.812682727	 1.9044529178	 0.237744
