17
gdb 37439	2.66117	2.0416	2.01174	2.6608	69.63	-0.2421	-0.0015	0.2406	819.5578	0.139077	-421.799534	-421.793461	-421.792517	-421.829498	26.164	
C	-0.0097862985	 1.5496778498	 0.0230342444	-0.052639
O	 1.3118790009	 2.0864773749	 0.0136150915	-0.258694
C	 2.3232870617	 1.0748640005	-0.0315412269	-0.001865
C	 2.1258100171	 0.1331454129	 1.1464111892	-0.070377
C	 0.912609281	-0.4260725205	 1.1561300051	-0.07808
C	 0.041954469	 0.0008820637	-0.0149853949	-0.147406
C	 0.8069202163	-0.3953430457	-1.2920232019	 0.03959
O	 1.1217923805	 0.6530830258	-2.2220855787	-0.246182
C	 2.128284189	 0.2186795558	-1.3027683793	 0.05056
H	-0.5232136255	 1.8804821501	 0.934802162	 0.091979
H	-0.5449245364	 1.931355031	-0.8521428982	 0.1152
H	 3.2779578948	 1.6016656715	-0.0180957105	 0.080763
H	 2.8795278224	 0.0031313091	 1.9137745551	 0.102555
H	 0.5370489359	-1.0718503481	 1.9415087132	 0.100385
H	-0.9651391169	-0.4187921461	 0.0199557609	 0.073101
H	 0.6113462859	-1.3687334842	-1.7351550198	 0.099138
H	 2.9985441529	-0.2638429302	-1.7417803812	 0.101971
