21
gdb 110114	2.11505	1.28814	0.99375	1.0313	85.88	-0.2278	0.0484	0.2762	1326.2049	0.179592	-387.035496	-387.025114	-387.02417	-387.070871	37.787	
C	-0.4369301727	 1.4536396447	-0.1782764694	-0.379627
C	 0.2861231298	 0.1338034114	 0.1113003461	-0.19287
C	 0.9046001681	-0.4723909131	-1.1308801368	-0.070719
C	 1.1835165133	-1.9336369879	-1.2292621984	 0.094536
O	 0.8565924571	-2.7168469959	-0.1378365603	-0.230704
C	 0.6180599321	-4.0727622459	-0.4764337821	-0.237656
C	 0.0682264314	-1.3308255367	-2.0969700359	-0.276421
C	-1.3050106549	-1.6197477077	-1.8172597929	 0.358348
C	-2.466063104	-1.8619328784	-1.6092885985	-0.47487
H	 0.2415199736	 2.1921709858	-0.6203359682	 0.107346
H	-1.2655717701	 1.2983945979	-0.8758423945	 0.129223
H	-0.8456525038	 1.8857120206	 0.740381321	 0.110098
H	 1.0812619805	 0.2973949036	 0.8496102551	 0.098127
H	-0.4054325082	-0.5839365278	 0.5587247477	 0.124632
H	 1.6246306107	 0.1701691057	-1.632523582	 0.090732
H	 2.0766544733	-2.2598510869	-1.7666645266	 0.087601
H	-0.2281368373	-4.1691580667	-1.1673875496	 0.12723
H	 1.5078632632	-4.531160027	-0.9337710215	 0.104277
H	 0.388045613	-4.5963644967	 0.453925574	 0.128392
H	 0.3015921486	-1.2214447139	-3.152558013	 0.108882
H	-3.4886554235	-2.0759860051	-1.4212753643	 0.193443
