19
gdb 48276	2.68645	1.08178	0.86939	3.8153	79.29	-0.2505	-0.0236	0.2269	1370.5591	0.159473	-419.219257	-419.209998	-419.209054	-419.254267	33.177	
N	-0.1605224234	 1.3700521707	 0.2414068258	-0.458196
C	-0.0772373798	 0.1099638584	 0.1067631342	 0.098513
N	-1.1877820751	-0.7254841422	 0.0118968455	-0.061992
C	-0.9986167622	-2.1816839452	-0.0269665734	-0.218093
C	-0.890823114	-2.8164525505	 1.3413046803	 0.016635
C	-2.1412374806	-3.1195136069	 2.128055389	-0.252545
C	-1.3401148922	-4.2451907787	 1.5252398669	-0.271314
C	-2.4746009889	-0.2115741991	-0.0432883338	 0.170756
O	-3.468338591	-0.9001112295	-0.1123898364	-0.32712
H	 0.7671811001	 1.7861231001	 0.267688313	 0.234181
H	 0.8579543114	-0.4589170828	 0.0454902642	 0.101516
H	-1.8579945867	-2.5914535418	-0.5613347889	 0.141266
H	-0.1012523167	-2.3868878195	-0.6216876966	 0.113378
H	-0.0196643025	-2.5080885885	 1.914263126	 0.082262
H	-2.1101784358	-2.9870487571	 3.2036521556	 0.113072
H	-3.0876039456	-2.861669298	 1.6673438268	 0.14645
H	-1.7560410286	-4.7605572032	 0.6655411479	 0.116285
H	-0.7602419111	-4.8818991883	 2.1838294311	 0.114344
H	-2.4797967572	 0.8864317021	-0.029599277	 0.140601
