14
gdb 54069	2.07698	1.16008	0.89603	1.8253	65.12	-0.2859	-0.0664	0.2195	1291.9316	0.096707	-473.857801	-473.848077	-473.847133	-473.894911	31.642	
C	 0.7744277276	 0.1930117922	-0.520259441	-0.484686
C	-0.5572031041	 0.4089713009	 0.1473022662	 0.378462
O	-1.0053674875	 1.4732367771	 0.4785877915	-0.268255
C	-1.4061510925	-0.8743058074	 0.4313990017	-0.129487
O	-1.3320407257	-1.7493816648	-0.6921497329	-0.184442
C	-2.4956496724	-2.2885489546	-1.1572418856	 0.182427
O	-2.5161565748	-3.0156356113	-2.0960584667	-0.242625
C	-0.9019550772	-1.5509430473	 1.6327199296	 0.283331
N	-0.4794272125	-2.0591628363	 2.5803104803	-0.295677
H	 1.3817372308	-0.5000736179	 0.0726186968	 0.168853
H	 0.6303244274	-0.2735923776	-1.4992658698	 0.173926
H	 1.287760212	 1.1484432257	-0.6257944801	 0.157453
H	-2.4328901744	-0.5365290412	 0.610455485	 0.15695
H	-3.3784039867	-1.9662637674	-0.5749091851	 0.103769
