14
gdb 23259	3.02681	1.55004	1.10498	3.9659	67.34	-0.2595	-0.061	0.1985	1033.5607	0.100993	-473.795273	-473.788022	-473.787078	-473.827131	27.713	
O	-0.0409081645	 1.3182415765	-0.0558928728	-0.34567
N	 0.0448653823	-0.0563794293	-0.0168213766	-0.217782
C	-1.0866277259	-0.6473507864	 0.0513539534	 0.251019
C	-1.2187487658	-2.1179939544	 0.0364249333	-0.15079
C	-1.9803733871	-2.7553524304	 1.2037599765	-0.324071
C	-2.7076677595	-2.3432424844	-0.0322863878	 0.093488
O	-3.371300039	-1.094448945	 0.0241446741	-0.229221
C	-2.4766207624	-0.0525665429	 0.0876384728	 0.392013
O	-2.8280214189	 1.0844497354	 0.1718936451	-0.312112
H	 0.8853771728	 1.5808814389	-0.1134644163	 0.318002
H	-0.5037478978	-2.7124882552	-0.5157673215	 0.123565
H	-1.808445427	-3.8147542548	 1.3569761563	 0.134468
H	-2.1383546343	-2.1761629125	 2.1069956427	 0.1415
H	-3.1929690731	-3.0446403756	-0.6982822691	 0.125591
