19
gdb 11996	2.67089	2.0993	1.73865	2.5697	70.4	-0.2239	0.0673	0.2912	878.0115	0.1641	-365.016922	-365.008637	-365.007693	-365.048713	32.284	
C	-0.2289751404	 1.5710931974	-0.1103074831	-0.415752
C	 0.0526656067	 0.0830915865	 0.0025805374	 0.011718
N	 0.9577791841	-0.5254678197	-1.0481458086	-0.142656
C	 2.3165259099	-0.0053717771	-0.8083670869	-0.257855
C	 1.8194546098	-1.0752734389	 0.0739285114	-0.049477
C	 0.9042849132	-0.5359228097	 1.1713730934	 0.379568
C	 1.4964487222	 0.36518721	 2.2471486409	-0.458217
O	 0.2539033351	-1.6510721456	 1.7654056726	-0.476198
H	 0.6727982904	 2.1852503086	-0.0358594901	 0.114899
H	-0.7033782468	 1.7883625575	-1.073029441	 0.131314
H	-0.9143873068	 1.8931457771	 0.6813055146	 0.115076
H	-0.8866331948	-0.4749031319	-0.0445336697	 0.087546
H	 3.0114668909	-0.2878277584	-1.5934888028	 0.122771
H	 2.4624526481	 1.0035637937	-0.4327191356	 0.107343
H	 2.1961829584	-2.0925641298	 0.0622721229	 0.100816
H	 2.0636901772	 1.1999358358	 1.8278650282	 0.117744
H	 0.701570444	 0.7913455022	 2.8725849922	 0.107176
H	 2.1614780923	-0.2160206661	 2.8931655841	 0.128757
H	-0.3955132432	-1.3168222216	 2.3936394804	 0.275426
