22
gdb 105177	2.32637	1.0179	0.83275	0.9847	93.4	-0.2207	0.0515	0.2723	1538.3666	0.191059	-367.162524	-367.151443	-367.150498	-367.200586	39.172	
C	 0.2178747038	 1.4212111793	 0.1314920522	-0.382466
C	 0.0132293506	-0.0439118726	-0.2695441266	-0.254415
C	-1.4168120348	-0.5440418046	-0.0658680712	 0.093846
C	-1.6359834012	-2.0058192011	 0.2152272617	-0.285851
N	-1.9055161217	-1.0227673584	 1.2472749267	-0.098675
C	-1.0405547734	-0.9987789773	 2.4162756692	-0.315559
C	-2.4091607785	 0.169718176	-0.8407095923	 0.027314
C	-3.2105997652	 0.7677584406	-1.5128683824	 0.140527
C	-4.1950636684	 1.4837216065	-2.3115906806	-0.503368
H	 1.2397624237	 1.744123122	-0.0895741699	 0.110223
H	-0.4713966995	 2.0715524755	-0.4143530135	 0.132505
H	 0.0423018886	 1.572302122	 1.2011498549	 0.117868
H	 0.2548999593	-0.1690795745	-1.3316922184	 0.109151
H	 0.7100546504	-0.6858562729	 0.2776307479	 0.096626
H	-2.4997865867	-2.5192512519	-0.1984013835	 0.116303
H	-0.7376374745	-2.6178200192	 0.3074875847	 0.101245
H	 0.0115805886	-1.2595408623	 2.2246414352	 0.100132
H	-1.0737637794	-0.0054706199	 2.8743294177	 0.127551
H	-1.4328110804	-1.7174007116	 3.143621526	 0.125297
H	-4.8966273751	 0.7934689872	-2.7933736124	 0.147126
H	-4.7813008336	 2.1746742515	-1.6954268792	 0.148778
H	-3.7150635024	 2.0715356457	-3.101940266	 0.145841
