14
gdb 132497	3.12223	1.30785	0.92701	2.4198	67.48	-0.2487	-0.0362	0.2125	1137.5235	0.100119	-486.005005	-485.997505	-485.996561	-486.037341	27.832	
C	-0.0312316737	 1.5315164427	 0.0179355523	-0.498141
C	-0.0031275111	 0.028934716	-0.0296657723	 0.13994
C	-0.0242914478	-0.7029651025	-1.2107709763	-0.289559
C	 0.0049852231	-2.0915927284	-1.143678426	 0.254209
F	-0.0147202146	-2.8115346745	-2.2683163182	-0.075014
C	 0.0544481384	-2.7290358544	 0.0836184499	-0.117063
N	 0.0752719031	-2.0359870666	 1.2284123834	-0.310363
C	 0.0471561535	-0.730396062	 1.1474672787	 0.287186
F	 0.0690771862	-0.0651851712	 2.3055166567	-0.071949
H	 0.8546706373	 1.9249893099	 0.5268033501	 0.148324
H	-0.0683596409	 1.9551282027	-0.9880984875	 0.128227
H	-0.9013706926	 1.8905588764	 0.5770217158	 0.148321
H	-0.0629742767	-0.2105226322	-2.176308151	 0.124539
H	 0.0775363657	-3.8125465561	 0.1436943346	 0.131342
