19
gdb 70195	3.37464	1.33742	1.14433	3.4117	77.56	-0.2227	0.0243	0.2469	1123.651	0.160564	-419.195214	-419.187077	-419.186132	-419.227663	32.12	
C	-0.1364924543	 1.534232653	 0.0173299446	-0.452359
C	-0.0275350243	 0.0268937009	 0.0173255055	 0.304127
C	-0.8199529916	-0.7749545482	 1.0580894066	-0.379617
C	 0.6862826595	-0.6587516302	 1.1344337307	 0.085119
O	 1.5245120452	-1.7687905971	 0.8868464973	-0.248239
C	 1.5539899474	-2.3533721004	-0.3450641875	 0.415337
N	 2.4014459342	-3.2466727058	-0.6350198689	-0.513325
C	 0.4863462161	-1.9484255124	-1.3334733936	-0.268463
N	 0.2350141853	-0.5103670432	-1.2968959201	-0.353451
H	 0.7527178132	 1.9816062889	-0.4365778184	 0.133885
H	-1.0127024605	 1.8594945577	-0.5569308903	 0.116257
H	-0.2477860064	 1.9229475446	 1.033362985	 0.118551
H	-1.4107272446	-0.2425797208	 1.7959558236	 0.114657
H	-1.2263546835	-1.7380688379	 0.7706988216	 0.121854
H	 1.1235547845	-0.0662408134	 1.9301573325	 0.110165
H	 3.0125503001	-3.4228842943	 0.1656278714	 0.218788
H	 0.840959985	-2.2332576956	-2.3246852656	 0.143253
H	-0.412121149	-2.5568576026	-1.1225845041	 0.10915
H	-0.5293172864	-0.2810896633	-1.9246674303	 0.22431
