14
gdb 133004	2.55453	1.58551	0.98423	2.7915	71.75	-0.2325	-0.0356	0.1969	1114.1848	0.100573	-477.980934	-477.973194	-477.97225	-478.013702	27.942	
C	 0.0553386965	 1.4209503897	-0.0881633331	-0.332231
N	 0.1324901605	-0.025435296	-0.0646530935	-0.30652
C	 0.550454393	-0.6233064836	 0.9766061905	 0.276776
N	 0.9691282427	 0.0074981745	 2.1749360468	-0.317492
C	 1.3689700166	-0.6894215973	 3.1550376559	 0.127803
O	 1.4604898999	-2.0389527287	 3.2288551684	-0.183712
C	 1.0725116632	-2.7257522786	 2.10555392	-0.076404
C	 0.6346395468	-2.0841721842	 1.0168691688	 0.161546
F	 0.2667795634	-2.7718094818	-0.0528058066	-0.041454
H	 0.6645415618	 1.7908199557	-0.9217423369	 0.127576
H	-0.9785711887	 1.7131308927	-0.3082213376	 0.127567
H	 0.3778432719	 1.9092460959	 0.8372621764	 0.129528
H	 1.6969330922	-0.2400826282	 4.0880681517	 0.150143
H	 1.1604929103	-3.7975726501	 2.205107909	 0.156875
