20
gdb 116925	4.4354	0.58559	0.56922	1.5127	88.42	-0.2254	0.0261	0.2515	2034.616	0.168325	-403.069016	-403.058555	-403.057611	-403.106683	36.008	
C	-0.3823405119	 1.3592089726	-0.4074369222	-0.218895
O	-0.385154568	-0.0423955715	-0.5472773308	-0.227441
C	 0.9224328158	-0.5822369192	-0.5057547202	-0.202708
C	 0.8787508606	-2.029990216	-0.6485204889	-0.026599
C	 0.8559304043	-3.2296129119	-0.7639664193	 0.195645
C	 0.8680043886	-4.6616561712	-0.8741638765	-0.184043
C	-0.2800523866	-5.3728039932	-1.5325381139	-0.23687
N	 1.0211829684	-5.3500180359	-2.1723096802	-0.079351
C	 1.1519453944	-4.530984385	-3.3708674374	-0.310979
H	 0.0539912408	 1.6749835231	 0.5538695344	 0.104973
H	 0.1807889857	 1.851778776	-1.2165176276	 0.104446
H	-1.4223940939	 1.6899590618	-0.448932202	 0.131389
H	 1.5427035626	-0.1454402642	-1.3086254113	 0.114526
H	 1.4166137054	-0.3190925557	 0.4463156057	 0.115899
H	 1.3808050996	-5.1733729164	-0.0626891132	 0.113729
H	-0.6101286221	-6.332327255	-1.1430557147	 0.119939
H	-1.0672687212	-4.7414225838	-1.9413317456	 0.121098
H	 0.5488975399	-3.6115880062	-3.3491437593	 0.1164
H	 2.2014932284	-4.2511048435	-3.5021171312	 0.125574
H	 0.8456338192	-5.1320471649	-4.2324687859	 0.123265
