19
gdb 82910	2.82444	1.51489	1.45522	1.7001	73.78	-0.2317	0.0795	0.3112	1013.2749	0.159523	-422.98212	-422.974287	-422.973343	-423.013922	31.729	
C	 0.0553873127	 1.5396061355	 0.0159117109	-0.485535
C	-0.0033933894	 0.0294378452	 0.0251019853	 0.322439
C	-0.6640040085	-0.7093969926	 1.1803994794	-0.38258
C	 0.8238977482	-0.8243942459	 0.946832039	 0.050597
O	 1.3376662071	-1.9404962994	 0.2355024608	-0.27974
C	 1.1273963191	-1.7684090562	-1.1539944323	 0.008822
C	-0.2578292639	-2.1310574277	-1.5909669255	 0.097441
O	-1.0544478287	-2.9322896562	-0.7760004449	-0.428122
C	 0.0988061311	-0.6638450518	-1.3228212175	-0.195926
H	 0.9034550569	 1.9037887489	-0.5754749855	 0.118439
H	-0.8592297701	 1.9690462282	-0.4085361032	 0.124158
H	 0.1622367744	 1.9330366191	 1.0315197595	 0.116933
H	-0.9564832758	-0.1007131932	 2.0313526415	 0.105846
H	-1.3177875006	-1.5415764441	 0.9672658785	 0.143201
H	 1.5276110312	-0.4308382233	 1.6741723892	 0.09921
H	 2.0171947838	-1.929553684	-1.7550143612	 0.095994
H	-0.3958940621	-2.3590125263	-2.6458364004	 0.102812
H	-0.4730873416	-3.266339587	-0.0789737043	 0.295879
H	 0.1157729161	-0.0186273693	-2.1940338492	 0.090131
