16
gdb 10035	2.8563	1.48072	1.11226	3.5126	67.93	-0.2636	0.0022	0.2658	1088.4273	0.128857	-379.933924	-379.92476	-379.923816	-379.968863	30.842	
C	-0.0652503065	 1.5205716202	 0.1103185344	-0.230326
O	 0.0421218515	 0.0951352871	 0.1249076156	-0.242627
C	-1.1201774133	-0.5888087924	 0.1137075075	 0.419112
C	-0.8124109644	-2.0893715692	 0.1003041923	-0.433718
C	-1.045979868	-2.6943997089	-1.2087658839	 0.271628
N	-1.2385324244	-3.1709206964	-2.2435031365	-0.305156
N	-2.2386673926	-0.0087949221	 0.1190264905	-0.287851
C	-3.4842583663	-0.7428788657	 0.0803850028	-0.331147
H	 0.9603574395	 1.8909907665	 0.1100494512	 0.131125
H	-0.5986563931	 1.8576172797	-0.7823763296	 0.141109
H	-0.6047916604	 1.8772454477	 0.9917551935	 0.137404
H	 0.2344946678	-2.2292314582	 0.3789301874	 0.176425
H	-1.4293311334	-2.6055725217	 0.8421863009	 0.169826
H	-3.3936705305	-1.8342949013	 0.1688296911	 0.108791
H	-4.1349844917	-0.3866622943	 0.8862449965	 0.131809
H	-3.9996278241	-0.5301869912	-0.8631236435	 0.143596
