18
gdb 100453	2.94112	0.73739	0.63366	3.1533	79.98	-0.2569	-0.0224	0.2346	1765.7267	0.144573	-439.078736	-439.067856	-439.066912	-439.11652	36.957	
C	-0.4974014	 0.1285948855	-0.5805639499	-0.237542
O	-0.4876565927	-0.0744980712	 0.817313847	-0.225758
C	 0.8002382814	-0.3254643712	 1.3547198456	-0.046133
C	 0.6724931561	-0.274213969	 2.8788815828	-0.393863
C	 1.3508206582	-1.6128097013	 0.9058173278	 0.11402
C	 1.8035422004	-2.6714774485	 0.5462982735	-0.009349
C	 2.4152084424	-3.9318549383	 0.1478684827	 0.26394
N	 1.5718665247	-4.7610752654	-0.5357954042	-0.520952
O	 3.5741343188	-4.2058091425	 0.3913770646	-0.333044
H	-0.1482333162	-0.7591280571	-1.126047894	 0.114411
H	-1.5311031688	 0.3386975043	-0.863672472	 0.130716
H	 0.1330812022	 0.9839534804	-0.868780278	 0.108029
H	 1.4944115348	 0.4673311498	 1.0252428237	 0.101206
H	-0.0176018485	-1.0483378872	 3.2224382187	 0.137464
H	 1.645502938	-0.4335169157	 3.3490483996	 0.134604
H	 0.2828814228	 0.7028251219	 3.1743464155	 0.129046
H	 0.5908483291	-4.5568762289	-0.6152665949	 0.26684
H	 1.9042631472	-5.6830412454	-0.7678531484	 0.266365
