18
gdb 19158	3.88265	1.54792	1.29544	1.5545	67.7	-0.236	0.081	0.3171	991.1215	0.151951	-384.882035	-384.873708	-384.872764	-384.915249	30.487	
C	 0.2936497646	 1.4971454223	 0.2646546645	-0.248994
O	-0.0356344526	 0.1468832849	 0.0344048638	-0.29101
C	 0.4959672796	-0.4823734126	-1.1025566424	 0.407769
C	 0.1934044068	-0.011911055	-2.4972328238	-0.325191
C	 1.6037064809	 0.0999746785	-1.9414037924	-0.338635
C	 0.5254868819	-1.9580234373	-0.821680394	 0.029964
C	-0.5583698953	-2.8536966917	-1.2392955003	-0.173104
O	 0.6908777138	-2.822789087	-1.9413607992	-0.23689
H	 1.3677770119	 1.6363460786	 0.4480771768	 0.113889
H	-0.0096477909	 2.1549514332	-0.5629293746	 0.110031
H	-0.2566556035	 1.7978498927	 1.1593759204	 0.130076
H	 0.0049541099	-0.7645983898	-3.25370807	 0.132016
H	-0.373281516	 0.9064851577	-2.6052039287	 0.112565
H	 1.9761011912	 1.0916179657	-1.71473432	 0.115256
H	 2.3539521193	-0.5866170425	-2.3181028606	 0.129912
H	 1.109992661	-2.2314715713	 0.0577050258	 0.096091
H	-0.7526287975	-3.7668345966	-0.6797803894	 0.117848
H	-1.4058076249	-2.4426506298	-1.784259966	 0.118407
