13
gdb 77215	3.98643	1.05644	0.89624	3.2178	64.11	-0.3126	-0.0437	0.2689	1200.8134	0.088088	-452.728729	-452.720283	-452.719338	-452.762945	29.11	
O	 0.2421696385	 1.2816748972	 0.0582001728	-0.39859
C	 0.0294126061	-0.0834099459	-0.0726703144	 0.045915
C	-0.0765980269	-0.7691373849	 1.3115807075	-0.006411
O	-1.4022147145	-1.26601018	 1.0179811819	-0.274549
C	-1.4436434453	-0.5963292943	-0.2595438956	-0.067352
C	-2.4617543524	 0.4481883344	-0.3403358702	 0.293907
N	-3.2545452187	 1.2822957701	-0.4407597351	-0.303517
C	 0.8774722506	-1.8360415657	 1.602452666	 0.278348
N	 1.6461031902	-2.671162461	 1.8172042942	-0.305064
H	 0.314400012	 1.6865424865	-0.812968289	 0.309407
H	 0.7287737705	-0.5679704753	-0.7610559369	 0.125169
H	-0.0868215314	-0.0370471827	 2.1264603846	 0.158865
H	-1.5879510388	-1.3116007086	-1.076409006	 0.143872
