19
gdb 124825	4.27723	0.92015	0.79026	1.1141	77.84	-0.2362	0.0297	0.2659	1445.342	0.160209	-419.233	-419.224039	-419.223095	-419.267422	33.329	
C	 0.1818316694	 1.4799134928	 0.0138775598	-0.401555
C	 0.0337589232	-0.0126561324	 0.3091728051	 0.135623
O	 0.0940709699	-0.2626785609	 1.7144884561	-0.424506
C	-1.2464029242	-0.5977303429	-0.3136914918	-0.31989
C	-1.3378342194	-2.0934427541	-0.2541643591	 0.344477
N	-1.6192478218	-2.7835126115	-1.3609345583	-0.293938
N	-1.6318085377	-4.0712796771	-0.9648046025	-0.183394
C	-1.3653265363	-4.2233651139	 0.3548049496	-0.02223
C	-1.1683874136	-2.956589261	 0.8572421523	-0.273322
H	 1.0731220907	 1.8757367207	 0.5081383437	 0.123016
H	 0.2667389207	 1.6658057122	-1.0614070697	 0.119429
H	-0.6897532494	 2.0377898663	 0.3800537109	 0.10498
H	 0.8988136431	-0.5491405822	-0.0971332241	 0.096746
H	-0.6177501287	 0.2405894253	 2.1264090318	 0.274362
H	-2.1075466424	-0.140556415	 0.1977664725	 0.093054
H	-1.3156206512	-0.2983920689	-1.3643774797	 0.115667
H	-1.8234859503	-4.7872939976	-1.6439041315	 0.271634
H	-1.3348996216	-5.1966733584	 0.8189721789	 0.128227
H	-0.9141942305	-2.6767927015	 1.864666586	 0.111619
