21
gdb 73683	2.28353	1.78383	1.36944	1.672	76.48	-0.2408	0.0773	0.3182	1043.1857	0.18483	-424.24103	-424.233064	-424.23212	-424.273358	31.539	
C	 0.0443124026	 1.5031653236	-0.011972189	-0.473171
C	-0.0365769348	-0.0244534329	-0.0025941616	 0.303249
C	-1.4697888536	-0.5783380637	 0.1117703331	-0.282671
C	-1.2722166703	-1.8678906556	 0.9144947873	-0.09299
O	-0.2318076963	-1.5742896508	 1.8415810828	-0.264742
C	 0.6780233779	-0.6660264047	 1.230361107	 0.057909
C	 1.9273415928	-1.3526714142	 0.6279690327	-0.105074
O	 2.0801069694	-0.8309268533	-0.6846717144	-0.247275
C	 0.7666155608	-0.6279023447	-1.1792539362	-0.136175
H	 1.0856191039	 1.833479197	-0.0857473182	 0.128255
H	-0.501439592	 1.9223707688	-0.8645191944	 0.11466
H	-0.383786534	 1.9274020396	 0.9023965968	 0.116312
H	-2.1009300339	 0.1205840448	 0.6701309732	 0.10499
H	-1.9381504065	-0.7516258675	-0.8621241859	 0.101445
H	-2.152891202	-2.1764017025	 1.4844323402	 0.110229
H	-0.9862059228	-2.7032504051	 0.2554451185	 0.091209
H	 0.9516222992	 0.0719074269	 1.9902262955	 0.081062
H	 2.8504193888	-1.1509780943	 1.1768772701	 0.108515
H	 1.7578840439	-2.441264891	 0.6139093909	 0.095633
H	 0.3240174745	-1.5833958573	-1.5088187316	 0.082065
H	 0.8320829825	 0.0360534769	-2.0456798468	 0.106568
