19
gdb 104902	2.04178	1.52337	1.0234	4.3792	77.09	-0.2666	0.0126	0.2791	1214.3304	0.157604	-419.198408	-419.188423	-419.187479	-419.233238	36.387	
C	-0.0378787337	 1.5157122607	-0.0177788542	-0.44247
C	 0.0035299613	 0.0024874973	 0.0849360274	 0.268596
C	-1.1016642647	-0.6883105916	-0.6915768354	-0.475145
N	 1.3486621187	-0.5920272289	 0.0702500541	-0.398239
C	 0.5537896466	-0.668247266	 1.3258237809	 0.086528
C	 1.1967385731	 0.0683134139	 2.4990240699	-0.121051
O	 2.4286337085	-0.5244586384	 2.8427773626	-0.409986
C	 0.0123940607	-1.9607756024	 1.6872108543	 0.264298
N	-0.4181056715	-2.9920203043	 1.9872629422	-0.34938
H	 0.8586735013	 1.979698362	 0.3929398329	 0.136799
H	-0.1051224822	 1.8050663456	-1.0720362	 0.128376
H	-0.9164737855	 1.9188982296	 0.4959769087	 0.129033
H	-0.9964450312	-0.4650846694	-1.7588565141	 0.129134
H	-1.0859690319	-1.7724483648	-0.5596651224	 0.146586
H	-2.083790177	-0.3253399017	-0.3720450874	 0.137051
H	 1.3417622482	-1.492135291	-0.4051847621	 0.247385
H	 1.3122116715	 1.1289196233	 2.2461604132	 0.098986
H	 0.5551494784	-0.0008531827	 3.3821000546	 0.128613
H	 2.9651393395	-0.5176970011	 2.0403531049	 0.294884
