18
gdb 74577	3.5151	1.2651	1.03696	3.7029	79.79	-0.211	0.002	0.213	1176.6762	0.14847	-401.980562	-401.972627	-401.971683	-402.013188	30.264	
C	 0.1130572684	 1.540863367	 0.037782254	-0.488034
C	 0.0277046232	 0.0514400101	-0.0312694602	 0.301149
C	-0.0002626204	-0.7076537978	-1.1322346635	-0.174055
N	-0.0594789081	-2.0935765156	-0.8222759212	-0.102725
C	 0.0507456368	-2.2531460843	 0.6577122426	 0.040153
C	-1.147020823	-3.2401252303	 0.6106048636	-0.401208
C	-1.219702971	-2.9049670149	-0.8960896657	 0.398469
O	-1.9549074081	-3.1531112272	-1.8057337236	-0.323637
C	-0.0826108337	-0.8183400938	 1.2194170598	-0.347084
H	 1.0123854369	 1.869702624	 0.574538777	 0.126739
H	 0.1329675532	 1.9889564603	-0.9593264921	 0.129384
H	-0.7441257139	 1.9595427931	 0.580963776	 0.127636
H	 0.0110211496	-0.388198626	-2.1652899102	 0.126438
H	 0.9986981252	-2.7134161028	 0.9473496187	 0.092222
H	-0.9345341156	-4.2819709698	 0.8595843483	 0.133706
H	-2.0406390665	-2.9158255847	 1.1491950836	 0.136371
H	 0.7035194544	-0.5981388367	 1.9494358109	 0.113967
H	-1.0396133573	-0.6403483107	 1.731377432	 0.110509
