19
gdb 87459	2.98492	1.333	1.20259	3.1788	76.42	-0.2374	0.0829	0.3203	1136.3016	0.156555	-422.942004	-422.933317	-422.932373	-422.974995	33.199	
C	 0.0357342264	 1.5832095031	-0.1421636098	-0.415866
C	-0.0545879389	 0.0891687571	 0.0252003324	-0.081165
O	 1.1970899529	-0.6517036039	-0.0803078089	-0.307801
C	 0.5386381561	-0.6245264591	 1.1476270145	 0.527293
C	 1.1148654991	-0.316895913	 2.5360813839	-0.072831
C	-0.2254428998	-0.7933736935	 3.144937285	-0.261355
C	 0.1982453575	-1.8227285768	 2.0582314955	 0.278558
C	-0.3363246365	-3.176096173	 1.7213159831	-0.518493
O	 1.5943456759	-1.7184116875	 2.5888110474	-0.346612
H	 0.8762947863	 1.988605418	 0.4266339363	 0.12866
H	 0.1745697499	 1.8451638437	-1.1960804331	 0.133692
H	-0.88619746	 2.0631807345	 0.2041154792	 0.123533
H	-0.8776580664	-0.3934497456	-0.5048472902	 0.094467
H	 1.7968734852	 0.4631682926	 2.8699644129	 0.101387
H	-0.1365203308	-1.1667506484	 4.1653464174	 0.110698
H	-1.1249449525	-0.1943882192	 2.9767031906	 0.095227
H	-1.378506342	-3.101968822	 1.3949550825	 0.126862
H	 0.2507537615	-3.6216221566	 0.9129520375	 0.146523
H	-0.2921544638	-3.8358608304	 2.5925891439	 0.137222
