20
gdb 78924	4.33682	1.36402	1.33836	1.5571	82.02	-0.2123	0.088	0.3003	1057.5074	0.171543	-365.928714	-365.921081	-365.920137	-365.960307	30.894	
C	-0.0342577581	 1.6376673774	 0.0265115092	-0.415124
C	 0.0137300767	 0.1264994268	-0.059721234	 0.063954
C	 0.6978120421	-0.6105224656	-1.2341404667	-0.094653
C	 2.1942498276	-0.2264715104	-1.1595820812	-0.14342
C	 2.3387332644	-0.2119497474	 0.37072994	-0.083217
N	 0.9791444776	-0.5995221388	 0.860981637	-0.167707
C	 1.0765814447	-1.7181356242	-0.1965648695	-0.071717
C	 2.5977826542	-1.4784096521	-0.3902663099	 0.331336
C	 3.7769555731	-2.3906393939	-0.4737171649	-0.529761
H	 0.9454693779	 2.0795867868	-0.1788105035	 0.119899
H	-0.7477792325	 2.0439117918	-0.6984253897	 0.114496
H	-0.3494497216	 1.9558505246	 1.025854934	 0.12455
H	-0.9773930803	-0.3045074229	 0.127928663	 0.07521
H	 0.2367112421	-0.7877776165	-2.2058865121	 0.061997
H	 2.7870084354	 0.3909274544	-1.8211924778	 0.084613
H	 3.0104247372	 0.4345434028	 0.921113902	 0.085456
H	 0.5459192557	-2.6524015819	-0.0194126168	 0.073327
H	 3.7076816755	-3.0608713074	-1.338285609	 0.121167
H	 4.7043185351	-1.8162155733	-0.5744394767	 0.122954
H	 3.8661448633	-3.0104020201	 0.4258963668	 0.126639
