19
gdb 73047	3.27406	1.03401	0.92329	1.0974	81.18	-0.2442	0.0581	0.3022	1314.8157	0.15761	-385.819994	-385.810955	-385.810011	-385.854031	34.547	
O	-0.0364252447	 1.4312301041	-0.2495620027	-0.459294
C	 0.0211098459	 0.0556888088	-0.0955376071	 0.361273
C	 0.5879510431	-0.8888601484	-1.1647171194	-0.299249
C	-0.5904616575	-1.8770214185	-0.8771319427	-0.228672
C	-1.1461214463	-0.8977883325	 0.1639049986	-0.111411
C	-0.1267182877	-0.607429342	 1.2458022517	-0.071611
C	 0.83330387	-1.6255300496	 1.8542627303	-0.394586
C	 0.1974625464	-2.4598307943	 2.8694559066	 0.317015
C	-0.3487922054	-3.1296115302	 3.7048461505	-0.455858
H	 0.7324305072	 1.8205592784	 0.1809605075	 0.284385
H	 0.5088166021	-0.4422241959	-2.15803034	 0.112757
H	 1.6111917145	-1.2548751079	-1.0253897067	 0.089895
H	-1.2487685386	-1.997181885	-1.7395111018	 0.10795
H	-0.321288479	-2.8714940136	-0.5087331131	 0.104496
H	-2.1942538664	-0.6727531699	 0.3177318587	 0.092566
H	-0.529172899	 0.0879748234	 1.979288062	 0.098521
H	 1.258478893	-2.2668997079	 1.074293209	 0.132689
H	 1.6856507273	-1.0971021369	 2.3022326839	 0.125176
H	-0.823930085	-3.728273772	 4.4416139746	 0.193957
