16
gdb 68722	2.46118	1.66466	1.33631	6.0339	74.06	-0.2593	0.0109	0.2703	1000.1379	0.12501	-396.866315	-396.858573	-396.857629	-396.89845	29.65	
C	-0.0349511173	 1.524826789	 0.038926742	-0.478518
C	-0.0497007284	 0.0287659851	 0.0296755046	 0.27727
N	 1.1565341069	-0.7178021177	-0.3033584008	-0.389974
C	 0.5697536991	-0.9566716155	 1.0238173924	 0.164615
C	 1.349451656	-0.6929819387	 2.1933287924	 0.256523
N	 1.960804734	-0.4962859648	 3.1552453903	-0.350428
C	-0.6811851063	-1.8139027601	 0.9474811904	-0.154947
N	-1.825892974	-0.9576894685	 1.3381143236	-0.315654
C	-1.2794678448	-0.8686240077	-0.0365671118	-0.13431
H	 0.9332459336	 1.8951347492	 0.3828961816	 0.15057
H	-0.2098152802	 1.9167013128	-0.9692928893	 0.128653
H	-0.818895955	 1.9042276502	 0.6997165378	 0.146955
H	 0.9843375607	-1.5055362751	-0.9256687959	 0.236678
H	-0.7374452015	-2.8944247121	 0.9906719549	 0.11557
H	-2.6687434924	-1.5344292985	 1.3062219278	 0.236114
H	-1.8887774206	-1.0874323875	-0.9052018702	 0.11088
