17
gdb 125611	5.79141	0.8958	0.78328	2.2278	81.05	-0.2314	0.0306	0.262	1429.1406	0.13574	-380.86889	-380.859892	-380.858948	-380.904458	32.444	
C	-0.5794130574	 1.4093600597	-0.4539574756	-0.489329
C	-0.0921849696	 0.0756386239	 0.0182539577	 0.355198
N	 0.8076510122	-0.6061190664	-0.6906382393	-0.29378
N	 1.0102961299	-1.7361448133	 0.0162738365	-0.24739
C	 0.2736420216	-1.8009702847	 1.1493361534	 0.410583
C	 0.3378792228	-2.9726192795	 2.0958656551	-0.478301
C	 1.2634083403	-4.0162244903	 1.6648525675	 0.283449
C	 2.0316971527	-4.8597940492	 1.2872583942	-0.426148
C	-0.4620046051	-0.6333647956	 1.1873410286	-0.393486
H	-0.3627094757	 2.1972083327	 0.2759020539	 0.125785
H	-0.091850429	 1.669262615	-1.3958699215	 0.138883
H	-1.6630654798	 1.406601799	-0.6153748472	 0.125796
H	 1.6590126889	-2.432243775	-0.3134774267	 0.273254
H	 0.6287124938	-2.6215235065	 3.0945970993	 0.157436
H	-0.6646712426	-3.4043637099	 2.2131710201	 0.157425
H	 2.7048293084	-5.6197464029	 0.9747206275	 0.206175
H	-1.1652438114	-0.3347188969	 1.9490038665	 0.094451
