21
gdb 122066	1.94318	0.98141	0.7383	5.2725	80.38	-0.2564	0.0219	0.2782	1610.0708	0.18174	-420.407291	-420.396682	-420.395737	-420.444067	37.449	
C	-0.1587178299	 1.4673666519	 0.2203609143	-0.408709
C	 0.0646346785	-0.0345702259	 0.0218402925	-0.189431
C	 0.7416703784	-0.3860190253	-1.3208503288	-0.099336
N	 2.1194801351	 0.1028552255	-1.3672379254	-0.313386
C	 2.7830463979	-0.0069316798	-2.6713560062	-0.168882
C	 4.2591612081	 0.3421091331	-2.4933631476	-0.055489
O	 4.8783746834	-0.5035954694	-1.5505253559	-0.416593
C	 0.7319827241	-1.8478646434	-1.5090203765	 0.304392
N	 0.6960801283	-2.9931897833	-1.6560205716	-0.325599
H	 0.779849444	 2.0243722566	 0.3099518784	 0.124442
H	-0.7319393361	 1.8990268842	-0.6074080089	 0.125309
H	-0.720336662	 1.6456509742	 1.1415058308	 0.133211
H	 0.6780472066	-0.4436732623	 0.8311011475	 0.128508
H	-0.8979615161	-0.553957166	 0.0552838015	 0.127127
H	 0.1238594796	 0.0341661012	-2.1371820575	 0.106086
H	 2.1187803236	 1.075197487	-1.0756575495	 0.227953
H	 2.7013774006	-1.0471289358	-3.0040682971	 0.141867
H	 2.3245650602	 0.632048119	-3.445699126	 0.08613
H	 4.7871455209	 0.2238975038	-3.4454207117	 0.11169
H	 4.3489332097	 1.4054910958	-2.2027227216	 0.075329
H	 4.2277629752	-0.6218036311	-0.8454998909	 0.285382
