16
gdb 79127	5.1979	1.21571	1.11983	3.8341	68.69	-0.2399	0.0156	0.2555	1054.7133	0.126185	-437.86538	-437.858493	-437.857549	-437.896416	27.812	
O	-0.0247636482	 1.4497485508	-0.0645651529	-0.443146
C	 0.0308759627	 0.045754883	 0.0042402866	 0.122701
C	 0.0015918719	-0.6331391447	 1.3948132539	-0.12142
C	-1.5072351615	-0.208271522	 1.5399294253	 0.015767
N	-2.2628107042	-1.269706155	 2.1910586584	-0.345503
C	-1.646467314	-2.4380198811	 1.7528569621	 0.416671
O	-1.827973042	-3.568680311	 2.1308720532	-0.370593
C	-0.6652478364	-1.8915186222	 0.7191638535	-0.177459
C	-1.3422070894	-0.6392198978	 0.0501372074	-0.072328
H	 0.8712774074	 1.7941875792	-0.0013012638	 0.287367
H	 0.7454735225	-0.3738106366	-0.7145312337	 0.075533
H	 0.7716812996	-0.646653934	 2.1686922264	 0.079994
H	-1.7914533178	 0.8055942467	 1.8025369762	 0.105077
H	-2.5916737934	-1.1988204404	 3.1417588473	 0.250108
H	-0.0819890586	-2.6038548139	 0.1402652131	 0.088421
H	-2.1191226286	-0.654822241	-0.7147333531	 0.088809
