18
gdb 38968	2.91726	1.82704	1.50583	2.8763	69.7	-0.231	0.0644	0.2953	920.8708	0.151342	-439.066688	-439.059885	-439.058941	-439.098166	27.096	
C	-0.2106387527	 1.0749208324	-0.0000890562	 0.033546
O	 0.87303768	 1.8314649113	 0.5058641293	-0.26877
C	 1.9955941592	 0.9747299671	 0.6610276055	 0.073252
C	 2.3982110813	 0.687532134	 2.1298877831	-0.236485
C	 1.9263601395	-0.726595486	 2.4230672135	-0.040997
N	 0.4763128723	-0.8952527308	 2.2215058326	-0.328978
C	 1.4166260775	-1.3581357687	 1.1774733742	-0.063922
C	 1.5401965844	-0.3745866842	 0.0231622998	 0.079693
O	 0.3329071001	-0.0574247976	-0.6482204193	-0.261394
H	-0.8757844433	 0.770899298	 0.817510469	 0.109198
H	-0.7481025177	 1.6751846243	-0.7431484913	 0.102923
H	 2.828384024	 1.4300325874	 0.1152122046	 0.085222
H	 3.4865726535	 0.7464461791	 2.2389324081	 0.098286
H	 1.9504834366	 1.4271882864	 2.7989547726	 0.123847
H	 2.41685673	-1.3115640332	 3.1947527417	 0.088213
H	 0.1450514292	-1.6985434379	 2.7494165193	 0.233908
H	 1.5069630839	-2.422449052	 0.9874127996	 0.087883
H	 2.2432262923	-0.7532294997	-0.7249002961	 0.084577
