14
gdb 15038	2.66476	1.72771	1.11647	1.4478	58.7	-0.261	-0.0544	0.2066	1003.0681	0.103592	-419.659322	-419.651028	-419.650083	-419.693716	27.452	
O	 0.1069004375	 0.57502121	 0.7936661965	-0.232892
C	 0.7202269318	 0.9502332817	-0.1698226623	 0.145512
C	 1.4928129099	 2.2678888592	-0.2135728302	-0.220726
C	 1.1569026824	 3.0046531084	-1.5151470478	 0.139447
O	 1.2340858654	 2.4844347809	-2.5968549412	-0.242632
C	 1.2741383142	 3.1144433736	 1.0166584141	 0.086277
C	 2.2664891561	 3.2023391478	 2.0905863186	-0.17435
O	 2.1301710922	 4.2553250362	 1.1330978572	-0.246445
H	 0.7651571146	 0.3700962671	-1.112890011	 0.120801
H	 2.5551585331	 1.9973374189	-0.3068601312	 0.143865
H	 0.8269872254	 4.0571011771	-1.3897654385	 0.116248
H	 0.2315899306	 3.3041494755	 1.2697367309	 0.11642
H	 1.943954086	 3.4440886396	 3.1012275966	 0.129009
H	 3.1859242307	 2.622520624	 2.0213471783	 0.119468
