20
gdb 78248	2.58761	1.25352	1.00708	2.4033	80.56	-0.2421	-0.0263	0.2157	1248.6388	0.169414	-403.105074	-403.095919	-403.094975	-403.139202	33.893	
C	-0.0324565747	 1.55831631	 0.0708706857	-0.419472
C	 0.0569662005	 0.0342821324	 0.0512487237	-0.02477
C	 0.7251833107	-0.5421013781	-1.2165759179	-0.049375
C	 1.8189383197	-1.1789723906	-0.3928686798	-0.062039
C	 1.1910624695	-0.6433315293	 0.9248818013	-0.13212
C	 2.0886397979	 0.3111538617	 1.6615520517	 0.15642
O	 2.2543507892	 0.3050030534	 2.856052752	-0.260907
N	 0.9109589953	-1.9717227582	-1.1823193693	-0.080226
C	-0.0530894894	-2.9016295532	-0.615047164	-0.319699
H	 0.9054022575	 2.0333489286	-0.233294949	 0.122691
H	-0.8072760375	 1.8924976515	-0.6271195723	 0.122089
H	-0.2946610638	 1.9326876181	 1.0653660202	 0.131792
H	-0.9334806037	-0.3815398569	 0.2645639064	 0.084781
H	 0.7761715692	-0.0332678949	-2.1746972174	 0.09471
H	 2.8843178123	-1.2666020846	-0.5810600467	 0.101138
H	 0.8507452981	-1.3975793375	 1.6389825246	 0.090688
H	 2.6307228461	 1.0423564923	 1.0200116492	 0.075588
H	-0.5480067631	-2.563001339	 0.3055516778	 0.111859
H	-0.8260023569	-3.1002951029	-1.3635605819	 0.127286
H	 0.4585639931	-3.8438603728	-0.3976778543	 0.129565
