17
gdb 48241	3.13585	1.14562	0.9569	4.2811	71.76	-0.2486	-0.0336	0.215	1231.2938	0.136346	-455.135198	-455.126552	-455.125608	-455.16931	30.501	
N	 0.1405569152	 1.2881078917	 0.1475852886	-0.460646
C	 0.0069105794	 0.0291199318	 0.0821260221	 0.096473
N	-1.2371752162	-0.6053290629	-0.0223812243	-0.084587
C	-2.4027053818	 0.1545806506	-0.0584119388	 0.16235
O	-3.5108422297	-0.3216628937	-0.1472583691	-0.32019
C	-1.2884919717	-2.0573625057	-0.0918004202	-0.013099
C	-2.1986863932	-2.8730757272	 0.858473397	-0.091812
O	-2.6565095346	-3.6743800957	-0.2486876665	-0.268776
C	-2.0727950516	-2.778395954	-1.2151179413	-0.091811
H	 1.1228815662	 1.5407184528	 0.2187072487	 0.238713
H	 0.827955771	-0.6958752238	 0.0988820523	 0.10923
H	-2.1895280655	 1.2297619666	 0.0037988452	 0.149616
H	-0.2579448049	-2.4123722572	-0.0454500704	 0.102381
H	-1.6913638602	-3.4736103303	 1.6219596141	 0.102432
H	-3.0074755749	-2.2932826767	 1.3113011727	 0.133651
H	-2.8241828117	-2.1554357612	-1.7077513581	 0.133641
H	-1.4737038856	-3.3099168252	-1.9631186222	 0.102436
