20
gdb 73971	2.78298	1.59133	1.16977	1.2235	87.17	-0.2143	0.018	0.2323	1110.2537	0.172366	-365.956516	-365.948686	-365.947742	-365.988628	31.215	
C	-0.0927618102	 1.4707474325	 0.0148820965	-0.49313
C	-0.0499693925	-0.0216266941	 0.0581791304	 0.166885
C	-1.0360666641	-0.903053062	 0.2055629978	 0.243969
C	-2.461242162	-1.2687900283	-0.124379251	-0.197722
N	-2.3478100827	-1.7657523487	-1.541388278	-0.325069
C	-2.0176201622	-2.6727631752	-0.4233550533	-0.086031
C	-0.5897404055	-2.3427866983	 0.0956421265	-0.024453
C	 0.748859666	-2.2229184746	-0.6465166914	-0.253433
C	 1.2457326831	-0.8193778424	-0.1607220278	-0.286448
H	 0.5046925319	 1.9129226601	 0.8232154768	 0.123791
H	 0.3289563063	 1.8491080671	-0.9251128416	 0.126178
H	-1.1149220051	 1.8474858501	 0.107941765	 0.121104
H	-3.4060575269	-0.8948202235	 0.2483780684	 0.096029
H	-3.2952571646	-2.0068636567	-1.8383157249	 0.225462
H	-2.558311971	-3.6018905603	-0.2878922298	 0.087649
H	-0.4772202898	-2.8050311745	 1.0865635954	 0.074888
H	 1.4646301299	-3.0242581939	-0.4407098074	 0.0853
H	 0.5688876817	-2.1835285144	-1.7253681198	 0.117161
H	 1.8945420711	-0.3299880654	-0.8969443641	 0.099425
H	 1.8374498565	-0.9024191575	 0.7632742122	 0.098444
