21
gdb 63974	3.18819	1.30142	1.17831	1.3769	85.08	-0.2332	0.0093	0.2425	1171.5448	0.182055	-387.074552	-387.065869	-387.064924	-387.107336	34.087	
C	 0.1022361993	 1.4346165641	 0.153070783	-0.428521
C	-0.0633393677	-0.0738655345	 0.0628661518	 0.337662
C	-1.4730873397	-0.4852913415	-0.3536187971	-0.42431
O	 0.9315847799	-0.67178169	-0.8603427785	-0.360162
C	 1.2726137924	-1.7080010043	 0.1204075508	 0.107556
C	 2.6929364019	-1.8760874049	 0.6851337732	-0.252821
C	 2.4484094622	-1.7753975185	 2.2303128618	-0.242695
C	 1.2321878683	-0.8494898052	 2.3185643928	-0.237658
C	 0.5784736871	-0.9001026233	 1.1641358469	 0.17995
H	 1.131678966	 1.690834712	 0.4110758624	 0.122825
H	-0.1445508426	 1.8992307564	-0.8072695999	 0.123603
H	-0.5672385529	 1.849437501	 0.9139775447	 0.116788
H	-1.7053273818	-0.071995505	-1.3399762685	 0.122765
H	-1.5678183033	-1.5728419477	-0.4057784757	 0.120318
H	-2.2121112473	-0.1097972469	 0.3617976289	 0.116662
H	 0.81973578	-2.6619114321	-0.1822262157	 0.074641
H	 3.1924798487	-2.8011898787	 0.3839181215	 0.093629
H	 3.3045282936	-1.0292966189	 0.3577194264	 0.116704
H	 2.2615784664	-2.7640085245	 2.671576449	 0.108958
H	 3.3118764997	-1.3598799879	 2.7601592084	 0.106843
H	 1.0482161897	-0.1904695994	 3.1588952537	 0.097263
