15
gdb 9201	6.35275	0.88274	0.82068	4.2476	65.2	-0.2488	0.0194	0.2683	1341.159	0.115953	-399.776753	-399.767311	-399.766367	-399.812743	31.747	
O	 0.0545558304	 1.3245815702	 0.1222285733	-0.388772
C	-0.0117357325	-0.0767451654	 0.0498912019	-0.183992
C	-1.477259696	-0.5057193604	 0.1883213078	 0.417774
O	-2.2932175698	 0.1219014049	 0.8289817501	-0.349277
N	-1.7632718479	-1.6850529993	-0.4428203851	-0.324643
C	-3.0551239992	-2.3389292508	-0.2886120389	-0.288553
C	-2.9255223145	-3.743165664	 0.0887802332	 0.284226
C	-2.8063497941	-4.9045182799	 0.3726573019	-0.444247
H	 0.9685492262	 1.573074789	 0.2854569572	 0.294234
H	 0.4045432945	-0.4642960883	-0.8952526968	 0.089686
H	 0.5384633652	-0.5643228175	 0.8714023129	 0.118815
H	-1.0454844072	-2.1694058023	-0.9566669079	 0.250835
H	-3.5909244547	-1.7688045855	 0.477272744	 0.179174
H	-3.6427833571	-2.2593189426	-1.2133920286	 0.14062
H	-2.7135130433	-5.9283324482	 0.639221895	 0.20412
