25
gdb 119050	1.9491	1.10027	0.86901	1.0849	89.73	-0.2389	0.0823	0.3212	1542.1107	0.226214	-389.478426	-389.467175	-389.466231	-389.514955	40.991	
C	-1.1438097286	 1.2750203876	-0.2284373977	-0.384657
C	-0.7786756752	-0.207859334	-0.3267750319	-0.153356
C	 0.5353561401	-0.4514795197	-1.0819638228	-0.258129
C	 0.9139492111	-1.9199407279	-1.1472689858	 0.42781
C	 0.2991030453	-2.8176425066	-2.1834321037	-0.344172
C	 1.7811999577	-2.4946649487	-2.2487848418	-0.061469
C	 2.3696599222	-1.685617986	-3.3838715795	-0.413696
O	 1.0404591241	-2.5478374031	 0.1078155019	-0.282266
C	 2.1952771282	-2.1822079009	 0.8357797228	-0.247889
H	-0.3661989976	 1.8425418232	 0.2957035499	 0.110489
H	-1.2633454938	 1.7236202444	-1.2214165622	 0.110128
H	-2.0825533705	 1.4193397357	 0.3156407034	 0.110826
H	-0.6980323927	-0.6427038123	 0.6752924974	 0.109433
H	-1.5853395661	-0.7566243358	-0.8290300375	 0.096891
H	 0.4507836359	-0.0557267877	-2.0998945783	 0.094672
H	 1.342178563	 0.1226933114	-0.6055778039	 0.090755
H	 0.0053068353	-3.810734874	-1.8639606607	 0.117732
H	-0.3528312065	-2.3630289116	-2.9234160202	 0.104096
H	 2.4198593336	-3.303156679	-1.9012020935	 0.088783
H	 1.6788531192	-0.9154689917	-3.7388721878	 0.116579
H	 3.2987527202	-1.1864979436	-3.0860902786	 0.115401
H	 2.5999461314	-2.3320696652	-4.2382431122	 0.117793
H	 3.1130823236	-2.3461394589	 0.2528182869	 0.103909
H	 2.1744932303	-1.1318053085	 1.1592363826	 0.10655
H	 2.2228106199	-2.8166855871	 1.7252847632	 0.123785
