14
gdb 27199	3.53586	1.63449	1.12562	0.5008	70.88	-0.2102	-0.0215	0.1887	1004.2455	0.102854	-436.714636	-436.707812	-436.706868	-436.746031	25.847	
C	 0.087946064	 1.4958140142	 0.00101717	-0.4964
C	-0.0682717626	 0.0213446963	 0.0327488216	 0.264424
C	-1.1211580636	-0.8432110938	-0.0513792386	 0.111486
N	-2.5106003986	-0.9323276153	-0.1968882066	-0.346291
C	-2.7248366766	-2.199923581	-0.1782095651	 0.046018
O	-1.6331020701	-3.0397203308	-0.0340453554	-0.224137
C	-0.5930555461	-2.1555896404	 0.0480666308	 0.276116
C	 0.7496951885	-2.0777181064	 0.1889591202	-0.172822
O	 1.0644368691	-0.7363415137	 0.1785927828	-0.193836
H	 0.7253756115	 1.8164574912	-0.8308227273	 0.141952
H	-0.8934912562	 1.9594335538	-0.118804729	 0.149937
H	 0.5381280565	 1.8741813424	 0.9258299277	 0.14195
H	-3.675320263	-2.7058935562	-0.2631554715	 0.154112
H	 1.5706345572	-2.7618000105	 0.2991044803	 0.14749
