14
gdb 9060	5.19086	0.90016	0.80039	2.5292	62.89	-0.3203	-0.0074	0.3129	1312.9358	0.106337	-378.743142	-378.734626	-378.733682	-378.776918	29.143	
O	-0.0631678045	 1.4262097305	-0.0087806934	-0.406836
C	 0.0255147949	 0.0134999817	 0.0082716107	-0.023686
C	 0.6898763099	-0.5601657064	-1.2567932202	-0.2042
C	-0.0711888557	-0.1140995184	-2.5192973725	-0.346796
C	 0.5758833022	-0.5749528598	-3.7441031439	 0.25656
N	 1.1012090097	-0.945741958	-4.7039200119	-0.29465
C	 0.7234660403	-0.4672067847	 1.2168230128	 0.257232
N	 1.299553116	-0.8232572801	 2.1527812641	-0.301793
H	 0.8231881893	 1.791670831	 0.0991042766	 0.302057
H	-1.012305307	-0.336771169	 0.060973874	 0.147538
H	 1.729643386	-0.2194228421	-1.305453004	 0.137108
H	 0.7145295958	-1.6520918829	-1.1908448067	 0.147806
H	-1.0981523491	-0.4978065686	-2.4997155144	 0.157988
H	-0.1432031079	 0.9777182871	-2.5385862213	 0.171671
