18
gdb 102415	2.1662	1.1031	0.8306	3.7533	76.13	-0.2305	0.0177	0.2482	1408.445	0.146378	-435.271715	-435.261275	-435.260331	-435.308047	35.781	
C	 0.1727834698	 1.3797986177	-0.2731588718	-0.311836
N	-0.0643672552	-0.0132951718	 0.0394003607	-0.299187
C	-1.3082728334	-0.5458344326	 0.0685636921	 0.334864
C	-1.3276815794	-2.0587743538	 0.3079170449	-0.181681
O	-0.0423656362	-2.6127095894	 0.5454080316	-0.416885
N	-2.3381968003	 0.2084508323	-0.1028925216	-0.312335
C	-3.6633789578	-0.3837048698	-0.0320906304	-0.290217
C	-4.0695357065	-0.7636212226	 1.3342120765	 0.266594
N	-4.3493025711	-1.0690862523	 2.4139966066	-0.328057
H	 1.2327804945	 1.5997095374	-0.1305243224	 0.120649
H	-0.1102770185	 1.6229183014	-1.3049507886	 0.131083
H	-0.4215048907	 2.0159720041	 0.3878823123	 0.150969
H	 0.6921340224	-0.6774586691	 0.0138636648	 0.255293
H	-2.0215963952	-2.2888697915	 1.1241416197	 0.150661
H	-1.7160790257	-2.5469800547	-0.593696985	 0.14243
H	 0.1515276626	-2.5186091779	 1.483456796	 0.29938
H	-4.3873963643	 0.3543726118	-0.3941655915	 0.152897
H	-3.7930825749	-1.2724687992	-0.6709458538	 0.135379
