15
gdb 22025	2.67092	1.57386	0.99097	1.7136	78.01	-0.1745	-0.0072	0.1673	1109.866	0.114653	-450.099015	-450.090987	-450.090043	-450.131159	31.187	
N	 0.0601613158	 1.296232502	-0.0134245687	-0.547837
C	 0.0271519424	-0.0690735453	 0.0205097181	 0.364334
N	-1.1280352308	-0.667810536	 0.0939264226	-0.31852
N	-1.1024346716	-2.0278170243	 0.1912504938	-0.241167
C	 0.0237181078	-2.7741112617	 0.2046621636	 0.035775
C	 1.2494288039	-2.1953770454	 0.1082953778	-0.257853
C	 1.3243020687	-0.7652820948	-0.0027842343	 0.325478
N	 2.3738151351	-0.0133543431	-0.1292428525	-0.296401
O	 3.5467473397	-0.7992061765	-0.162670603	-0.408242
H	 0.9269452766	 1.6899350443	-0.3463659045	 0.267422
H	-0.7968423538	 1.7639052294	-0.2602361896	 0.25417
H	-2.0140201191	-2.4442253571	 0.258165025	 0.271888
H	-0.1268513173	-3.8437719663	 0.2935630552	 0.12732
H	 2.1512914041	-2.7869773746	 0.1133016948	 0.123311
H	 4.2342987785	-0.1299809306	-0.2322622782	 0.300323
