17
gdb 72420	2.76745	1.7586	1.41619	3.8267	66.8	-0.2594	0.0082	0.2677	958.6726	0.137163	-459.023175	-459.01591	-459.014966	-459.054628	28.8	
C	-0.0659140052	 1.4564829127	 0.0751218409	-0.478184
C	 0.0380239016	-0.0384482811	-0.0199876703	 0.47294
C	 0.7287352661	-0.6842025329	-1.2452795551	-0.261163
C	 1.0426312415	-2.1019409882	-0.686104492	-0.239805
C	 0.4340701137	-1.9772686582	 0.7365754934	-0.099408
O	 0.7177821203	-0.6144064338	 1.079053386	-0.267742
C	-1.0843775936	-1.9040158201	 0.5442954626	 0.451814
O	-1.941238501	-2.7196615697	 0.70602598	-0.343635
O	-1.2922252672	-0.6431219744	 0.0617928705	-0.270185
H	 0.9353358866	 1.8937399772	 0.0924867708	 0.13718
H	-0.6107307889	 1.851891485	-0.7852770962	 0.140534
H	-0.594313788	 1.7354719087	 0.9889966075	 0.14785
H	 0.0659090862	-0.6931252476	-2.1118597322	 0.125306
H	 1.6361845891	-0.13410172	-1.502434301	 0.116781
H	 0.5947497626	-2.9130230738	-1.2635750851	 0.130996
H	 2.1169505705	-2.2795333326	-0.6122939139	 0.121882
H	 0.7766133159	-2.669320401	 1.5003138442	 0.11484
