16
gdb 114948	3.57325	0.99452	0.82632	2.508	67.46	-0.2659	-0.0817	0.1842	1337.0005	0.123606	-475.03204	-475.023433	-475.022489	-475.06637	30.215	
O	-0.0621956721	 1.3667257733	 0.3678521159	-0.416839
C	-0.0589975522	-0.0409166228	 0.2898603869	-0.066852
C	-1.4002158132	-0.5985844209	-0.166081133	 0.058993
C	-1.4996067448	-2.1468387499	-0.15261376	-0.211767
N	-2.4984697359	-2.4649943061	 0.878061838	-0.271013
C	-2.9142891873	-1.3509690987	 1.3201541449	 0.306823
O	-2.411072512	-0.1939127883	 0.8066331356	-0.278721
C	-3.9518159143	-1.1468823477	 2.3843266935	 0.110014
O	-4.5060176737	-2.0446512358	 2.9567419167	-0.214124
H	-0.7749849088	 1.6124530532	 0.9683263371	 0.292573
H	 0.7097708459	-0.3185411967	-0.4398669533	 0.120903
H	 0.211088632	-0.5078571014	 1.2518023003	 0.097776
H	-1.6844113307	-0.1487030572	-1.121106392	 0.107903
H	-1.8200317685	-2.562310388	-1.11302814	 0.133676
H	-0.5450953365	-2.6226107078	 0.1029486499	 0.128639
H	-4.160747738	-0.078001805	 2.5944680194	 0.102015
