17
gdb 35380	4.05672	1.28675	1.16356	1.7184	76.99	-0.2318	0.0459	0.2776	1065.7626	0.136461	-384.594896	-384.587827	-384.586883	-384.626447	28.591	
C	-0.0716194148	-1.2374169343	-0.0851712414	-0.46273
C	-0.0524679337	-0.0358359211	-0.0407602013	 0.319337
C	-0.0106473835	 1.4177211687	 0.0298701167	-0.200996
C	-0.5288575343	 2.01197984	 1.3945545737	-0.271227
C	 0.7062801616	 2.7783667926	 1.8432474897	-0.025903
C	 1.404564221	 3.428640935	 0.6125370459	 0.033401
O	 2.7299360493	 3.2269787632	 1.2116832318	-0.316838
C	 1.9917024724	 1.9815721682	 1.4701950532	 0.058828
C	 1.4151866821	 1.9880676529	 0.0256389532	-0.028651
H	-0.0948024733	-2.2979056922	-0.1320635947	 0.196381
H	-0.5851182112	 1.8291192364	-0.8085259598	 0.106703
H	-1.3975379112	 2.660543055	 1.2495932645	 0.109381
H	-0.8119283629	 1.2224782434	 2.0945379541	 0.12084
H	 0.6983331975	 3.3314522066	 2.7814516108	 0.082291
H	 1.2052163875	 4.3799008718	 0.1174046163	 0.091824
H	 2.502020983	 1.1848178029	 2.010788675	 0.097474
H	 2.0806388907	 1.7611548509	-0.8051953177	 0.089883
