17
gdb 4784	5.58553	1.24318	1.08986	1.6413	72.76	-0.1649	0.0578	0.2228	1103.8544	0.143839	-360.058998	-360.050512	-360.049568	-360.092199	31.169	
C	-0.6490224303	 1.0091174222	 0.0798759239	-0.322954
N	 0.5383652756	 0.1497120657	 0.1748459888	-0.386294
C	 0.9277623924	-0.4815095745	-1.0220102957	 0.316969
C	 1.8673811482	-0.161874975	-1.9819731558	-0.29694
C	 1.8494512409	-1.200915455	-2.9613385654	 0.269675
N	 2.7149255677	-1.2858560887	-4.0725770257	-0.607679
C	 0.8921127792	-2.1132893567	-2.5763866476	-0.177479
N	 0.3394815084	-1.6600389164	-1.3893974761	-0.270161
H	-0.5419122619	 1.8318592892	-0.6439625076	 0.107675
H	-1.5097287628	 0.4066468867	-0.2238140007	 0.124671
H	-0.8657153094	 1.4316401665	 1.0656146532	 0.116109
H	 1.3172578903	 0.6758764262	 0.5507139475	 0.231749
H	 2.4920002615	 0.7191998847	-1.9899228064	 0.073475
H	 2.8565860283	-0.3838462245	-4.511184617	 0.23589
H	 2.368587735	-1.9280078415	-4.7747692247	 0.233118
H	 0.5598767022	-3.0285639913	-3.0380216183	 0.097661
H	-0.2901306655	-2.1731761975	-0.7983788625	 0.254516
