15
gdb 44183	5.38207	1.03229	0.9417	3.5333	72.53	-0.2424	-0.0435	0.1989	1196.5726	0.110697	-420.561595	-420.553743	-420.552799	-420.594448	29.315	
O	 0.2523644687	 0.2142282178	-0.8598027835	-0.279036
C	 0.0978520927	 1.23823756	-0.2673594571	 0.411989
C	-1.1439113886	 2.0227652882	 0.2240999755	-0.383921
C	-0.1983148161	 3.1417520367	 0.7368907145	-0.094119
C	 0.3488461304	 2.8888756019	 2.1642292853	-0.073618
O	 1.4159395392	 2.0424746719	 1.6396900571	-0.289178
C	 1.053301176	 2.3338636785	 0.2697446143	-0.003642
C	 0.8584036886	 4.0496724167	 2.8728202634	 0.325041
C	 1.2654950918	 5.0215340601	 3.4508590287	-0.420044
H	-1.7761455021	 2.3282464831	-0.6157122907	 0.140918
H	-1.7738603651	 1.522593246	 0.9652380131	 0.135925
H	-0.4069568197	 4.1676115472	 0.447705023	 0.105558
H	-0.320939832	 2.3133185786	 2.815582622	 0.114457
H	 1.892270833	 2.6870434811	-0.3340751595	 0.102983
H	 1.6296073331	 5.873891252	 3.9699595138	 0.206687
