17
gdb 29395	3.61651	1.05576	0.82135	4.8928	80.96	-0.1864	0.0086	0.1949	1357.6091	0.13634	-418.070506	-418.061461	-418.060517	-418.105166	32.509	
C	-0.008137908	 1.5763354346	-0.1267728868	-0.499367
C	-0.0019496786	 0.0797511863	-0.0468594742	 0.301769
C	-0.0361244064	-0.7940866355	-1.1048994637	-0.183701
N	-0.0158976319	-2.0816699981	-0.6015167817	-0.344332
C	 0.0309164337	-2.0247625206	 0.7695799923	 0.435423
N	 0.0590377877	-3.2105720748	 1.5116365	-0.409871
C	 0.106028993	-3.3024475813	 2.8763177446	 0.143978
O	 0.1300905204	-2.3689323285	 3.6458201978	-0.30169
C	 0.0408419452	-0.7030464099	 1.1499860677	-0.326408
H	 0.8878632203	 2.0097202732	 0.3326811853	 0.126001
H	-0.0449987652	 1.9163138192	-1.1659984034	 0.114864
H	-0.8720787259	 2.0056891123	 0.3937956418	 0.126001
H	-0.0729321839	-0.6186185869	-2.167815547	 0.113456
H	-0.0329198866	-2.9185070929	-1.1569643444	 0.25295
H	 0.044006109	-4.0813494272	 1.0035440353	 0.246574
H	 0.1196797677	-4.3616221525	 3.199389815	 0.077868
H	 0.0748121695	-0.3528563574	 2.1666569814	 0.126485
