19
gdb 20052	5.24178	1.39881	1.16724	0.988	76.87	-0.231	0.0296	0.2606	1045.3418	0.166892	-327.904732	-327.897354	-327.89641	-327.936788	28.297	
C	 1.3416167626	 0.0640627039	-0.3325020076	-0.222844
C	 0.6283415573	-1.1041026491	-0.9179124648	-0.222844
N	-0.0691248771	-0.1689345864	-0.0414441554	-0.061307
C	-0.3864642155	-0.6463715766	 1.2979134393	 0.060859
C	-0.5522926787	 0.5174112907	 2.3104982661	-0.266322
C	-1.6903520203	 0.0522386493	 3.1861510732	-0.061525
C	-2.3285811522	-0.9930132586	 2.6623343658	-0.061524
C	-1.7328839853	-1.4160905992	 1.3415459528	-0.266322
H	 2.0671627872	-0.1420724266	 0.4533238808	 0.108096
H	 1.5635891954	 0.9385190946	-0.9373837781	 0.114795
H	 0.318765968	-1.1001881642	-1.9590537062	 0.114795
H	 0.8796242721	-2.0869605229	-0.5213292067	 0.108096
H	 0.4059018864	-1.3188263258	 1.6743353329	 0.053513
H	 0.3690818068	 0.7222518002	 2.867358024	 0.096581
H	-0.8127543029	 1.4422437942	 1.777749138	 0.115569
H	-1.9588994338	 0.5527041247	 4.1101002844	 0.089117
H	-3.198351855	-1.4771944492	 3.0928377019	 0.089117
H	-2.3684436363	-1.105573761	 0.5009387242	 0.115569
H	-1.5984540888	-2.5000597579	 1.2525348154	 0.096581
