21
gdb 72661	1.97712	1.83434	1.55042	2.0412	77.16	-0.2408	0.0707	0.3115	1026.7736	0.182087	-424.228955	-424.22001	-424.219066	-424.262347	35.144	
O	-0.0890948399	 1.403922019	-0.2934301038	-0.483877
C	 0.0056110397	 0.0243217226	-0.0390119981	 0.400907
C	 0.2755232555	-0.3675645542	 1.4465889533	-0.279757
C	-1.1025322045	-1.0842049339	 1.5205553321	-0.279753
C	-1.3937201537	-0.7036861747	 0.0360328268	 0.400899
O	-2.4883041824	 0.1556498578	-0.1650442701	-0.483866
C	-1.3151828284	-1.8669843602	-0.9662004786	-0.283867
C	 0.1899210235	-2.154044454	-1.1214889867	-0.218983
C	 0.8268001597	-0.7523991713	-1.0812212793	-0.283886
H	 0.8001162617	 1.7716587288	-0.2465646341	 0.272991
H	 1.1493242987	-1.0047156842	 1.6108807412	 0.089348
H	 0.3492393403	 0.5100279665	 2.0920365546	 0.102605
H	-1.0670030139	-2.1571947364	 1.7301025982	 0.089342
H	-1.8070593119	-0.6110915041	 2.2075882865	 0.102613
H	-3.2920197404	-0.3572658064	-0.0269017532	 0.272991
H	-1.8925935664	-2.7435774332	-0.6514892419	 0.084043
H	-1.7290909029	-1.5124261419	-1.9174289546	 0.106206
H	 0.5517941922	-2.7630841096	-0.2844003275	 0.101576
H	 0.4253073624	-2.7010204659	-2.0383057164	 0.100221
H	 0.6928749727	-0.252086621	-2.0474627211	 0.106204
H	 1.898907408	-0.7706655238	-0.855130847	 0.084044
