18
gdb 20821	3.12534	1.78799	1.2477	1.9387	73.89	-0.2273	0.0316	0.2589	1007.6891	0.154852	-344.022064	-344.013682	-344.012737	-344.055458	30.289	
C	-0.0485638641	 1.5917143363	 0.077516378	-0.365377
C	-0.052034598	 0.0554401838	-0.0137058836	-0.306525
C	 0.6658396374	-0.4778206259	-1.2194247995	 0.154545
C	 0.1181745836	-0.8810759879	-2.4202582237	-0.120916
N	 1.1490492738	-1.2641466643	-3.2115066761	-0.189133
N	 2.3469863453	-1.1445080346	-2.6071164425	-0.286565
C	 2.0660155146	-0.6647432815	-1.396409999	 0.277395
C	 3.1645414985	-0.4009600667	-0.4145494938	-0.499883
H	 0.9725143519	 1.9839812568	 0.117367774	 0.121016
H	-0.5376357413	 2.0348808299	-0.7956280533	 0.11655
H	-0.5757580445	 1.9331274065	 0.9744432551	 0.108783
H	 0.4036264433	-0.3564932592	 0.8955294112	 0.103161
H	-1.0886361264	-0.3011214936	-0.0193885204	 0.099583
H	-0.9061153568	-0.9274260252	-2.7575130532	 0.126296
H	 1.1093733318	-1.6251619979	-4.1486656277	 0.270345
H	 3.266075779	 0.667784789	-0.1932510523	 0.127152
H	 2.9822035785	-0.9107025404	 0.5384282965	 0.124366
H	 4.1148249335	-0.7560797353	-0.8187196297	 0.139205
