16
gdb 87344	2.68805	1.28801	1.01682	3.4471	70.57	-0.2556	-0.0609	0.1947	1156.	0.122508	-437.887862	-437.879057	-437.878113	-437.921516	31.985	
O	-0.7451271089	 1.3069765396	 0.5801930313	-0.422508
C	-0.380983957	 0.0056084655	 0.3199899088	 0.128008
C	-0.7851119145	-1.1554353355	 1.1694188908	-0.371576
C	-1.3871394561	-1.0256343806	-0.2409408195	 0.068952
C	-2.8625703567	-0.7094582857	-0.4811108671	-0.370648
C	-3.6741945768	 0.0527396515	 0.5366676793	 0.155187
O	-3.2731650992	 0.6721372078	 1.4949249756	-0.259653
C	-0.8635325389	-1.9199682507	-1.2392020657	 0.244171
N	-0.4450412174	-2.6317486004	-2.0510868909	-0.343582
H	-1.5321179043	 1.2938669635	 1.1478324686	 0.308874
H	 0.6009759088	-0.033739138	-0.1397065571	 0.133805
H	-0.0780932472	-1.9605597518	 1.3324933407	 0.142137
H	-1.4590219357	-0.9640044178	 1.9952747248	 0.146608
H	-2.9774549302	-0.1459538291	-1.4212660182	 0.168465
H	-3.4127058649	-1.6438755287	-0.6596246965	 0.155413
H	-4.763374871	 0.0149297505	 0.3240805351	 0.116348
