17
gdb 7797	3.10834	1.92869	1.26682	3.9519	64.75	-0.2273	0.0134	0.2407	953.9498	0.143464	-401.033716	-401.026082	-401.025138	-401.06585	28.392	
C	 0.0079433622	 1.5000861214	 0.1065932792	-0.394836
C	-0.0422931136	-0.0054905746	-0.100604625	 0.132741
C	 0.8092857953	-0.5015333133	-1.2651824483	-0.186052
N	 0.8737493558	-1.957337592	-1.3224218253	-0.289971
C	 1.41369511	-2.4871513144	-0.0752730503	-0.307399
C	 0.9682029914	-1.8186404774	 1.2271976949	 0.391167
O	 1.1882677976	-2.3045928261	 2.3033165706	-0.323077
O	 0.3653395541	-0.6088620154	 1.1537697355	-0.238272
H	 1.037852955	 1.8312116641	 0.2714589559	 0.129919
H	-0.3893352674	 2.0181328481	-0.7717545541	 0.120631
H	-0.5873952874	 1.7849741457	 0.9773564079	 0.138176
H	-1.0829952048	-0.3188869904	-0.2709754427	 0.085582
H	 0.4010110483	-0.1133825922	-2.2040160434	 0.113961
H	 1.8321416032	-0.1133358249	-1.1678897613	 0.11529
H	-0.0589557451	-2.3291636604	-1.4755673961	 0.223017
H	 1.193415291	-3.5530695423	 0.0144235783	 0.143486
H	 2.5094701844	-2.401246376	-0.0909970357	 0.145639
