15
gdb 20009	4.43776	1.36022	1.1875	3.0136	62.57	-0.2585	-0.0456	0.2129	998.4349	0.118099	-399.748266	-399.740734	-399.73979	-399.78065	26.812	
O	-0.1126990011	 0.1381592446	 0.5366162818	-0.242849
C	 0.3891035587	 0.7143703843	-0.3953091665	 0.135175
C	 1.3840817306	 1.8149165018	-0.2043645439	-0.046087
O	 2.3392532063	 2.0302615685	-1.2588282829	-0.244187
C	 1.3702125523	 3.0437493127	-1.0411152083	 0.032846
C	 0.3943397486	 3.2972973242	-2.1522135834	-0.038809
C	 0.9107365586	 3.7088103159	-3.4825088454	-0.236961
N	 0.3190271121	 2.3727425777	-3.2880597485	-0.313096
H	 0.1389353379	 0.4706398003	-1.4471970002	 0.108478
H	 1.7855583267	 1.8818081746	 0.8055112752	 0.122554
H	 1.7576652149	 3.9403670172	-0.5529751514	 0.1162
H	-0.5653342524	 3.6902943329	-1.8225265803	 0.111129
H	 0.3313846486	 4.3870981931	-4.1015674813	 0.1271
H	 1.9883041156	 3.7777048472	-3.6067092225	 0.125808
H	 1.0811397127	 1.7026419949	-3.1955742424	 0.242698
