19
gdb 98981	4.92504	0.7389	0.65031	4.8444	76.19	-0.2419	0.0057	0.2477	1739.2895	0.157191	-456.383663	-456.373111	-456.372167	-456.421108	36.081	
C	 0.0187609682	 1.3355461173	 0.4615985466	-0.370255
C	 0.0947328925	-0.1107519128	-0.0195635447	-0.313445
C	 0.9844254606	-0.2652515495	-1.2555510874	 0.431137
O	 1.5553917433	 0.6556215016	-1.7821990896	-0.307624
N	 1.0504730939	-1.5884165482	-1.6901895595	-0.399792
C	 1.7489105745	-2.1249233361	-2.7694331565	 0.489615
N	 2.4681411817	-1.4545011126	-3.5613953005	-0.526743
O	 1.4806569835	-3.4692813283	-2.7599195318	-0.255031
C	 2.0844802756	-4.2526417576	-3.7764951707	-0.262709
H	 1.0117615383	 1.7124266238	 0.7173121847	 0.136315
H	-0.3830180638	 1.984344623	-0.3201365845	 0.136322
H	-0.6225142764	 1.4129844539	 1.3440367914	 0.107274
H	 0.4834851334	-0.7655845155	 0.7718538088	 0.120845
H	-0.9053595994	-0.4946734522	-0.2618379571	 0.120882
H	 0.5282555361	-2.2737343504	-1.167183031	 0.255415
H	 2.8904062018	-2.0341233324	-4.2805781738	 0.222055
H	 3.1785256748	-4.2081912798	-3.7191888006	 0.13634
H	 1.7551610136	-5.2774407293	-3.6013994902	 0.143059
H	 1.7603584378	-3.9326562249	-4.7738655936	 0.136339
