15
gdb 124217	5.02186	1.00021	0.83844	3.8132	70.35	-0.2384	-0.0177	0.2208	1309.5597	0.113417	-450.132503	-450.124307	-450.123363	-450.166284	29.086	
C	-0.1122571898	 1.4748303178	-0.1422686536	-0.488633
C	-0.0039055432	 0.0049297288	 0.20815542	 0.348228
N	 0.0760605537	-0.5102149997	 1.3670013879	-0.457326
N	 0.0020458752	-0.804279698	-0.9250038648	-0.407412
C	 0.0862427538	-2.1716429015	-1.0097620171	 0.48731
N	 0.1811963389	-3.0264835702	-0.0164896143	-0.184475
O	 0.2328820226	-4.2688448307	-0.7020414712	-0.15869
C	 0.1626827096	-3.9915813874	-1.9956656878	 0.123967
N	 0.0707318457	-2.7326170991	-2.2762933913	-0.341421
H	 0.7287446484	 1.7916935599	-0.7692892	 0.143789
H	-1.0347304265	 1.6787392787	-0.6975634435	 0.143777
H	-0.1142771036	 2.0806661898	 0.7645088867	 0.139969
H	 0.0584795156	 0.2170361957	 2.0791224658	 0.219028
H	-0.063505839	-0.3606767538	-1.8265710186	 0.2663
H	 0.1878884887	-4.8229466503	-2.6853469482	 0.165588
