19
gdb 35907	2.99066	1.39655	1.06755	4.7086	78.95	-0.2423	0.0295	0.2718	1139.2966	0.16207	-382.066853	-382.059019	-382.058075	-382.099268	30.496	
N	 0.0050497051	-1.1726141516	-0.0015455349	-0.324436
C	 0.0073900921	-0.0173543797	-0.0036273912	 0.291274
C	-0.0172374079	 1.4518213249	 0.0248911993	-0.115049
C	-0.9266975279	 1.9653079534	 1.1670366549	-0.215615
C	-0.7999475048	 3.4873621599	 1.2582679687	-0.210386
C	 0.6357186039	 3.8826010743	 1.6343387658	-0.230262
C	 1.6880375762	 3.159678915	 0.7911011892	-0.002627
C	 2.1848851746	 1.8145372346	 1.2016141852	-0.243706
N	 1.3629166567	 1.9550589155	 0.0035169507	-0.093401
H	-0.4692296228	 1.783870276	-0.9199160421	 0.131256
H	-1.9551039552	 1.6586412527	 0.9537231776	 0.120357
H	-0.6475747311	 1.4984425247	 2.1186712333	 0.117363
H	-1.0705511402	 3.9300598132	 0.290572321	 0.105643
H	-1.502808739	 3.8861119434	 1.9959023188	 0.104879
H	 0.767162669	 4.9623113426	 1.5192348786	 0.109313
H	 0.7992775585	 3.6635073397	 2.6961647355	 0.111745
H	 2.3807822338	 3.8109831309	 0.2634424805	 0.100769
H	 3.2122988927	 1.5121350553	 1.0194954306	 0.124479
H	 1.7406738164	 1.3804674952	 2.0954844385	 0.118402
