22
gdb 122717	5.31807	0.47505	0.45531	2.4754	85.67	-0.2535	0.0187	0.2722	2470.1683	0.191716	-441.479883	-441.468732	-441.467788	-441.518947	38.196	
C	-0.1094684417	 1.4124939354	-0.1060470584	-0.380578
C	-0.0413088831	-0.113960701	-0.0237617529	-0.151417
C	 0.8095686001	-0.6037127625	 1.1538469767	-0.137252
N	 0.7798223543	-2.0514940107	 1.2509369472	-0.210529
C	 1.8721699007	-2.6646291773	 1.1542373977	 0.125233
O	 1.9107046651	-4.0136144245	 1.2124272767	-0.222665
C	 3.2030358067	-4.6243801644	 1.1415363546	-0.08916
C	 2.9606148382	-6.1051329977	 0.8973142205	-0.059528
O	 2.27546248	-6.3277218375	-0.3161219196	-0.417951
H	 0.8868737373	 1.8519640635	-0.2298374608	 0.112489
H	-0.721358249	 1.7360781349	-0.953325496	 0.115124
H	-0.5478050609	 1.8401758383	 0.802661074	 0.115478
H	-1.0472902746	-0.5362515809	 0.0770887302	 0.111186
H	 0.3733055275	-0.5237195047	-0.9530503731	 0.095185
H	 1.8371923876	-0.2079413644	 1.0584069332	 0.076381
H	 0.3955355621	-0.1923692768	 2.0843723599	 0.104747
H	 2.855713914	-2.1883391008	 1.0176644381	 0.076811
H	 3.7769946354	-4.1945336513	 0.3107563435	 0.115083
H	 3.7527765096	-4.465857689	 2.0792652736	 0.107602
H	 3.9232972998	-6.6215304974	 0.8251965109	 0.114355
H	 2.4156093931	-6.5250756845	 1.7569754413	 0.103377
H	 1.4660088178	-5.8054091966	-0.2704420271	 0.296027
