25
gdb 104684	2.20478	1.3589	1.04115	0.1649	92.38	-0.2452	0.0824	0.3277	1324.7919	0.228943	-352.334984	-352.325115	-352.324171	-352.369809	38.068	
C	 0.8913590193	-0.0733640264	-1.2367648048	-0.380552
C	-0.0550041297	-0.1226605955	-0.0292285386	-0.26769
C	 0.5826088698	-0.7060867066	 1.2259749627	 0.380147
C	 1.7236504289	 0.1194276188	 1.824363061	-0.248452
C	 1.3149804093	 1.5168194692	 2.3087129818	-0.385801
C	-0.2123627006	-1.438544799	 2.2846104115	-0.101507
C	-1.3667356217	-2.270346359	 1.7113616899	-0.248331
C	-0.3489745047	-3.0309547964	 0.800687837	-0.249734
C	 0.7915105147	-2.1938318979	 1.3982792732	-0.103519
H	 1.2814096527	-1.0700267734	-1.4692539189	 0.11817
H	 0.3717606482	 0.2999632285	-2.1249483578	 0.108151
H	 1.7488512541	 0.5834165092	-1.0593750249	 0.115825
H	-0.4260694083	 0.8869873321	 0.1861076404	 0.093386
H	-0.9394067979	-0.7037479813	-0.3039971373	 0.098067
H	 2.1473867485	-0.4388047959	 2.6682380397	 0.092403
H	 2.5351169211	 0.2121534747	 1.0917884833	 0.095419
H	 2.1602226729	 2.0242118212	 2.7844795826	 0.109185
H	 0.9751620822	 2.1518127173	 1.4846950419	 0.117819
H	 0.5021658969	 1.4602958509	 3.0404063412	 0.115993
H	-0.116729562	-1.1655209219	 3.3302459717	 0.0756
H	-1.8115887409	-2.9295564697	 2.4602774698	 0.099901
H	-2.175847391	-1.7221164736	 1.2178834671	 0.095124
H	-0.2735184814	-4.0876802493	 1.0665587585	 0.10064
H	-0.4955444925	-2.9620838085	-0.2821714568	 0.095102
H	 1.7656187221	-2.5890424874	 1.6658787255	 0.074655
