23
gdb 93667	2.40326	1.36081	1.17283	1.8906	80.47	-0.25	0.0675	0.3175	1198.5095	0.204726	-425.443854	-425.433788	-425.432844	-425.477997	39.101	
C	 0.5005981343	 1.7523568859	-0.1195008364	-0.4148
C	 0.1200352145	 0.2773048829	 0.0518671547	-0.019758
C	 0.5990373773	-0.5971807145	-1.1264847603	 0.124955
O	 0.4129936333	 0.0838078464	-2.3594248876	-0.441568
C	 2.0808143493	-0.9206349214	-0.8009865114	-0.246046
C	 2.2181627383	-0.7570573777	 0.7336387875	-0.242241
C	 0.7950037046	-0.4222456838	 1.2530242166	 0.390887
C	 0.7865170643	 0.3543418846	 2.5673729323	-0.456749
O	 0.042911023	-1.6383295784	 1.4147836488	-0.479737
H	 1.5854990203	 1.9005471	-0.1541796609	 0.109601
H	 0.0902406389	 2.1323121761	-1.0568540099	 0.137555
H	 0.1052743704	 2.358626396	 0.7003081884	 0.1088
H	-0.965898822	 0.2011224472	 0.1647696548	 0.078627
H	 0.0140730494	-1.5244506779	-1.1184879322	 0.081934
H	 0.621514096	-0.5291869592	-3.0702904401	 0.280715
H	 2.3626482297	-1.9201371	-1.1441555343	 0.090835
H	 2.715560427	-0.2050870758	-1.3322848535	 0.104062
H	 2.5978421242	-1.6567742362	 1.2292245045	 0.082326
H	 2.9125656959	 0.0520287544	 0.9804329294	 0.098863
H	 1.3262997441	 1.3016250925	 2.4888488989	 0.118818
H	-0.2405082444	 0.5600146647	 2.8836350879	 0.122007
H	 1.2700792175	-0.2342712508	 3.3571793156	 0.099815
H	 0.4720924739	-2.1572682751	 2.1032963272	 0.271099
