17
gdb 47367	2.44787	1.43948	1.14439	4.3594	73.85	-0.2606	0.0063	0.2669	1113.3656	0.135939	-421.835384	-421.82714	-421.826196	-421.868661	31.058	
O	-0.0569210369	 0.0410571991	 0.6279238013	-0.314386
C	-0.0827818634	 1.1284237877	 0.1234202712	 0.407521
C	-1.3667190283	 1.9300753777	-0.042156749	-0.322509
C	-1.3139510833	 3.0703322848	-1.0630807231	-0.226901
C	-0.0009562892	 3.8305891389	-0.8934311407	-0.225524
C	 1.1759033682	 2.8671202293	-1.0901528692	-0.049322
O	 1.1005828569	 1.7130321172	-0.2200546604	-0.230761
C	 1.304619504	 2.4259672793	-2.4806779425	 0.355468
C	 1.4072042445	 2.0764792094	-3.625538531	-0.47735
H	-2.1637717157	 1.2134739805	-0.2516663615	 0.1396
H	-1.5760176188	 2.3368027069	 0.9566392223	 0.140371
H	-1.3700387602	 2.6707742635	-2.0815048925	 0.126248
H	-2.1731616891	 3.7344574404	-0.9313450923	 0.107338
H	 0.092998033	 4.6489024682	-1.6126523596	 0.121573
H	 0.0676540375	 4.2605263611	 0.1128057285	 0.110873
H	 2.1085177153	 3.3561301808	-0.7907271934	 0.127845
H	 1.5086605454	 1.7592227352	-4.6344143681	 0.209915
