15
gdb 18308	3.46466	2.3972	1.56856	7.2874	69.9	-0.1704	-0.0261	0.1443	792.7687	0.120914	-362.598243	-362.591943	-362.590999	-362.628602	24.648	
O	-0.1716944273	 0.1001463346	 0.4573751591	-0.420061
C	-0.0661347415	 1.2792826075	 0.1314610907	 0.342783
C	-1.2541378167	 2.1905500462	-0.1443362778	-0.162581
C	-0.888413147	 3.4713582336	-0.1549068347	-0.112723
N	 0.5640376055	 3.5374586113	-0.0270716104	-0.100135
H	 0.9624093198	 4.1106533554	-0.7723669185	 0.278942
C	 1.2988995068	 3.7576233037	 1.3049305259	-0.168306
C	 2.0468845347	 2.4206290335	 1.1510114114	-0.257787
C	 1.0926100244	 2.1027515481	-0.0043505458	-0.172698
H	-2.2691241493	 1.8246741428	-0.2304298009	 0.127165
H	-1.4396288516	 4.3860813227	-0.3237765017	 0.136142
H	 1.8612596408	 4.6956582918	 1.3022092828	 0.124647
H	 0.5517154369	 3.7639546663	 2.0978126745	 0.154043
H	 3.1046537192	 2.5334894831	 0.8873027023	 0.102386
H	 1.9706839353	 1.7519448794	 2.0124746431	 0.128183
