21
gdb 73552	2.69747	1.61067	1.30399	1.5037	83.55	-0.2335	0.0155	0.249	1067.5345	0.184394	-387.105979	-387.097908	-387.096964	-387.138175	32.095	
C	-0.026966941	 1.5804667233	-0.0638955213	-0.443801
C	-0.0284889142	 0.039797979	-0.0486378477	 0.249099
C	-1.4410768183	-0.5488007164	 0.1687128027	-0.289825
C	-1.5288341892	-0.7961191989	 1.7040192414	-0.248337
C	-0.0732011975	-0.9794352714	 2.096035583	-0.246743
C	 0.7301400228	-0.5216335884	 1.1419920014	 0.308959
C	 2.180059907	-0.5976762482	 0.7745894326	-0.181587
O	 2.2040047488	-0.4060150111	-0.6495235392	-0.274306
C	 0.8711466377	-0.5098827449	-1.1678886228	-0.131185
H	 0.9931679495	 1.9712975958	-0.1231345652	 0.127508
H	-0.5817712121	 1.9557540744	-0.9312180482	 0.112164
H	-0.4950327025	 1.9855021875	 0.8389043924	 0.114584
H	-2.2375349679	 0.1017496306	-0.203602376	 0.093642
H	-1.5273251517	-1.5086791731	-0.3528204361	 0.099495
H	-1.9884546212	 0.0530431767	 2.229521023	 0.106509
H	-2.1402203218	-1.6716691606	 1.9495285745	 0.103007
H	 0.2340407917	-1.4464896924	 3.0255463518	 0.09191
H	 2.7971689365	 0.1876759477	 1.2297501648	 0.114071
H	 2.6225071457	-1.5680257564	 1.041758358	 0.109079
H	 0.6184304726	-1.5588348359	-1.3911245006	 0.083561
H	 0.8468896253	 0.0637939127	-2.0992828284	 0.102197
