20
gdb 61988	3.74671	0.76346	0.66735	1.8282	83.36	-0.2621	0.0306	0.2927	1701.5257	0.167719	-403.132252	-403.121532	-403.120588	-403.168961	37.929	
C	-0.1333941594	 1.5889940582	 0.0048648196	-0.386165
C	-0.0619938477	 0.0496476835	-0.0236819147	-0.169353
C	-1.457722026	-0.5908389727	-0.037845896	-0.046481
O	-2.1042227968	-0.2149466412	 1.1832454263	-0.243053
C	-3.3660947914	-0.6593655059	 1.3660553858	 0.395324
C	-3.8958734472	-0.1772460562	 2.6925482332	-0.461419
N	-3.9420047574	-1.3758425143	 0.4907495506	-0.51676
C	 0.7026154431	-0.4305400687	-1.1728046098	 0.311465
C	 1.3134369916	-0.8179320068	-2.1328120979	-0.465431
H	 0.868723024	 2.021083297	 0.0597889498	 0.124621
H	-0.6172756179	 1.966535838	-0.9011581598	 0.12505
H	-0.709478597	 1.9185127971	 0.8722363135	 0.127669
H	 0.4388918502	-0.2902157468	 0.8930098085	 0.113499
H	-2.0461872167	-0.2425226068	-0.8927291281	 0.127073
H	-1.3949908126	-1.6807647101	-0.1010161152	 0.127993
H	-3.8892652581	 0.9165422477	 2.7263420934	 0.145987
H	-4.913265353	-0.5337172282	 2.8601207515	 0.127461
H	-3.2537227176	-0.5294724081	 3.505530554	 0.146499
H	-4.882960067	-1.6195084683	 0.7908891755	 0.220083
H	 1.8614954769	-1.1638957073	-2.9738662601	 0.195938
