20
gdb 18869	3.03838	2.34284	1.99077	0.1992	76.84	-0.2477	0.0881	0.3358	813.9754	0.180008	-311.855906	-311.849169	-311.848225	-311.886289	27.925	
C	-0.2654556751	 1.5718158043	 0.064319529	-0.421247
C	 0.0530403956	 0.0811585055	-0.0066884571	 0.041743
C	 0.630233577	-0.5556331504	-1.2753559398	-0.082057
C	 2.1460704894	-0.4335029048	-1.3611617611	-0.025195
C	 2.8856018935	 0.6452279883	-0.57272344	-0.23556
C	 2.4570310823	 0.3910842588	 0.9002742761	-0.204969
C	 1.2502335242	-0.5536247352	 0.7927216361	-0.06116
C	 1.5362238029	-1.4531779989	-0.4444679488	-0.083623
H	 0.5892089009	 2.2014210571	-0.1963019676	 0.116805
H	-1.0765837392	 1.8202815416	-0.6298759687	 0.110783
H	-0.5969048577	 1.8566154827	 1.0697719976	 0.10978
H	-0.8509542622	-0.4789566316	 0.2607975216	 0.069204
H	 0.0567144095	-0.8165355325	-2.159005431	 0.072379
H	 2.5670649777	-0.7760155708	-2.3009025533	 0.076436
H	 3.9679176742	 0.5341770263	-0.6974781631	 0.093469
H	 2.6337744566	 1.6552648376	-0.9118569466	 0.098792
H	 3.2636779399	-0.1043693283	 1.4522101752	 0.093298
H	 2.2188910858	 1.3145004042	 1.4376932959	 0.093884
H	 0.9787284111	-1.0368367277	 1.7320457428	 0.058553
H	 1.6880974837	-2.5237428064	-0.4757348873	 0.078685
