17
gdb 43145	2.37213	2.07311	1.693	4.0423	69.65	-0.2384	-0.0117	0.2267	881.2255	0.138582	-421.831579	-421.825013	-421.824068	-421.862324	26.875	
O	 0.0034047835	 0.0512231678	 0.0993120899	-0.323934
C	-0.0149397833	 1.241573627	-0.0084619266	 0.439734
C	-1.1921417471	 2.2338242931	-0.0054987708	-0.17758
C	-0.8111490481	 3.0465643071	 1.2664374817	-0.228357
C	 0.7654598103	 3.0688216955	 1.2442931287	-0.228357
C	 1.1333770337	 2.2666985311	-0.0381833574	-0.177579
C	 0.6777765049	 3.1284497298	-1.2118570838	 0.050428
O	-0.062801063	 2.4267651513	-2.22213171	-0.259566
C	-0.7942265173	 3.1076401083	-1.1911723027	 0.050428
H	-2.1880771527	 1.7956884315	-0.0183255934	 0.090501
H	-1.235431654	 4.0538663333	 1.2411974315	 0.109809
H	-1.1873461735	 2.5533303341	 2.1659320916	 0.119678
H	 1.1602713429	 4.0876858457	 1.2076192808	 0.109809
H	 1.1805316135	 2.5866941439	 2.1326449699	 0.119679
H	 2.1405391189	 1.8568665472	-0.0791530325	 0.090501
H	 1.2624355741	 3.9786223211	-1.5505329014	 0.107405
H	-1.4119689927	 3.940816772	-1.5129394058	 0.107404
