19
gdb 83036	2.18454	1.73822	1.33509	3.905	81.79	-0.2325	-0.0447	0.1877	1051.6341	0.160778	-385.919198	-385.911178	-385.910234	-385.95164	31.178	
C	-0.3406918877	 1.3608770528	 0.3425560713	-0.422429
C	 0.0288454194	-0.0795182262	 0.0616846355	-0.011899
C	 0.5543055409	-0.5829856789	-1.2532548907	-0.075229
C	 0.8872830845	 0.3591379658	-2.3996821769	-0.290714
C	 2.0155126791	 1.3149437702	-2.142793559	-0.039054
C	 2.7941602122	 1.2995163364	-1.0550273594	-0.16343
C	 2.6420041344	 0.3066600806	 0.0304960652	 0.397657
O	 3.4741957981	 0.2083057839	 0.9150781302	-0.352243
C	 1.4615258987	-0.6060495993	-0.0279199045	-0.172443
H	 0.3098697759	 2.0734114553	-0.1669996333	 0.129039
H	-1.3697353071	 1.5570478062	 0.0208395271	 0.117837
H	-0.2854103421	 1.5698692559	 1.4160129595	 0.129353
H	-0.6265981249	-0.7850923178	 0.5664380974	 0.096622
H	 0.1715241677	-1.5465218673	-1.5752785016	 0.092185
H	 1.1436892005	-0.228800588	-3.2924146866	 0.126222
H	-0.0036200832	 0.9343546252	-2.6921801932	 0.12196
H	 2.1995793987	 2.0509226616	-2.9234636117	 0.106268
H	 3.6188098594	 1.9948623533	-0.9336946273	 0.10625
H	 1.6492122155	-1.5503927797	 0.470926988	 0.104049
