15
gdb 26075	3.31153	1.21223	0.9487	3.7977	72.11	-0.2272	0.0274	0.2547	1188.0136	0.112822	-416.797655	-416.78931	-416.788366	-416.831238	30.793	
O	-0.0076200559	 1.4460372066	-0.0114939687	-0.410539
C	 0.0785160587	 0.0218287425	-0.0011428029	-0.158514
C	 0.6886825167	-0.4899521758	-1.2331172374	 0.322527
C	 1.2102655757	-0.8566829189	-2.2514921178	-0.466601
C	 0.797456967	-0.4664633664	 1.234912718	 0.273154
C	 1.2171664397	 0.294534902	 2.2942570364	-0.19037
N	 1.781240193	-0.6015096349	 3.1767342848	-0.235567
C	 1.6735909228	-1.8401903805	 2.6193602878	 0.010314
N	 1.0842518513	-1.794763841	 1.4477094461	-0.302152
H	 0.85243273	 1.7764926896	-0.2947930102	 0.285552
H	-0.9634779185	-0.3221686242	 0.0379974321	 0.13427
H	 1.6629792364	-1.1993106863	-3.1489206353	 0.198689
H	 1.1515511397	 1.3481952	 2.5003360832	 0.139371
H	 2.1960239433	-0.378038082	 4.0656468919	 0.268144
H	 2.0413957301	-2.7286905308	 3.1107483019	 0.131721
