18
gdb 84661	2.41439	1.82765	1.39345	3.2552	71.76	-0.241	-0.0087	0.2324	974.4191	0.150541	-439.067034	-439.059669	-439.058725	-439.09839	30.299	
O	 0.1700504975	 1.2401692376	-0.3880008881	-0.450076
C	 0.0507834897	-0.1456228658	-0.0370934382	 0.016085
C	 0.7614400628	-0.4634713583	 1.2579905063	-0.102272
C	 0.1399949618	-0.3796165146	 2.4357414397	-0.023023
C	-1.2892430104	 0.0163957128	 2.5235713836	-0.082526
N	-1.6609139382	 1.2692303528	 1.7940800148	-0.355199
C	-2.1103606768	-0.0394629452	 1.2838479762	-0.062733
C	-1.4505025077	-0.520871652	 0.0040906146	 0.124914
O	-2.1020083176	-0.0064674496	-1.140757336	-0.447966
H	-0.2258321536	 1.7165789423	 0.3629736693	 0.29105
H	 0.5138911871	-0.6863426742	-0.8677753461	 0.092936
H	 1.8160848518	-0.7148677093	 1.2043212257	 0.100454
H	 0.666870995	-0.5805632713	 3.3638966218	 0.099078
H	-1.7869194295	-0.1531486542	 3.473490116	 0.091262
H	-2.4208622111	 1.7435897548	 2.2748745099	 0.239842
H	-3.1677793068	-0.2754279167	 1.3715294816	 0.096843
H	-1.544290648	-1.6139110022	-0.0304395079	 0.08583
H	-1.636900436	 0.822379303	-1.3315820831	 0.285503
