18
gdb 57987	4.07469	0.70609	0.62318	1.9523	73.55	-0.2783	-0.0451	0.2332	1718.4154	0.144909	-439.12381	-439.11369	-439.112746	-439.160221	35.218	
C	 0.0504204653	 1.5114173967	-0.2115356157	-0.407049
C	-0.0044111689	 0.0223947387	 0.1596089072	 0.064806
O	 0.5887696117	-0.1858776595	 1.4115035952	-0.434519
C	-1.4308016687	-0.5304819689	 0.1624122411	 0.355117
O	-1.8595376336	-1.0683959503	 1.1624012274	-0.324371
C	-2.2655237312	-0.4070568035	-1.0987315278	-0.308119
C	-3.5511154412	-1.247240265	-1.0158752939	-0.339907
C	-4.3813004518	-1.0927917925	-2.2069759333	 0.256061
N	-5.0254853887	-0.9590762371	-3.1567958386	-0.299525
H	 1.0842448604	 1.8536561126	-0.1265340503	 0.14516
H	-0.287088193	 1.6900070295	-1.2366867468	 0.119863
H	-0.5610515694	 2.1024181694	 0.4769078485	 0.131222
H	 0.5396591577	-0.5468582722	-0.6168642359	 0.094477
H	-0.0662472505	-0.6730339998	 1.9358706498	 0.29496
H	-2.5128897019	 0.6511812768	-1.2464943014	 0.161153
H	-1.6623336156	-0.6931293378	-1.9675856476	 0.149274
H	-3.3025609267	-2.3053920344	-0.8865978963	 0.16702
H	-4.1260216537	-0.9596291026	-0.1309845916	 0.174378
