17
gdb 77431	2.4569	1.49802	1.20877	3.7604	70.35	-0.2401	-0.0127	0.2273	1069.7242	0.13333	-458.945552	-458.936553	-458.935609	-458.97886	33.764	
C	 0.0164253769	 1.594289684	 0.0225965546	-0.510721
C	-0.0375256084	 0.0972410993	 0.0927956378	 0.102692
C	 1.1812086377	-0.7788984231	-0.3637425346	 0.025483
O	 2.39132676	-0.1067194926	-0.4402874105	-0.429042
C	 0.6293892226	-0.9825869093	 0.9976964658	 0.284057
O	 1.4132777428	-0.7038995069	 2.1078914854	-0.462375
C	-0.6262100296	-1.8564731318	 0.971268248	-0.441907
C	-1.2561865797	-0.7656030126	 0.0580461239	 0.379429
O	-2.3590903392	-0.6220797213	-0.3918578648	-0.316705
H	 1.0386859247	 1.936928643	-0.1558840355	 0.134379
H	-0.6107597391	 1.9402975613	-0.805330391	 0.144728
H	-0.3561981964	 2.0595395281	 0.940313151	 0.130421
H	 1.0709934567	-1.5070641588	-1.1641422893	 0.112026
H	 2.6797466772	 0.0549002009	 0.4696140793	 0.292123
H	 1.8731428522	-1.512344552	 2.3672984094	 0.298417
H	-0.5405199614	-2.8750816776	 0.5797244529	 0.117374
H	-1.143473397	-1.8711929005	 1.9358325074	 0.139621
