23
gdb 61401	3.04657	0.86372	0.81074	2.1608	83.44	-0.2724	-0.0367	0.2357	1544.0311	0.201692	-425.446799	-425.435814	-425.43487	-425.483286	40.599	
C	 0.4091348703	 1.4039506003	 0.2713799598	-0.408955
C	-0.0859909869	-0.0491970652	 0.1613666612	 0.262899
C	 0.1752417641	-0.7868896998	 1.4879255093	-0.401215
C	-1.6028199425	-0.0410813977	-0.1134494757	-0.40427
C	 0.5898007183	-0.7773549701	-1.0317295285	-0.218361
C	 2.1293553451	-0.7532526888	-1.0949144032	 0.029979
O	 2.7386166947	-1.4416976047	-0.0354330408	-0.426395
C	 2.5937151101	-1.3337190672	-2.4160193349	 0.142746
O	 3.3758075116	-2.2523190785	-2.4693403316	-0.264517
H	 1.4653769261	 1.4554203671	 0.553437037	 0.12221
H	 0.2811626898	 1.9459801852	-0.6730676858	 0.102369
H	-0.1573348735	 1.9408600387	 1.0394938925	 0.112422
H	-0.350448138	-0.2857976507	 2.3084755966	 0.0998
H	-0.1894874909	-1.8188913577	 1.4399129418	 0.104486
H	 1.2392345531	-0.8239142793	 1.7253576393	 0.142167
H	-1.8428402959	 0.5194682575	-1.0241901759	 0.105033
H	-1.988820944	-1.0592778432	-0.2347829775	 0.109782
H	-2.1447680458	 0.4231500873	 0.7173443026	 0.110832
H	 0.2673198852	-1.8263385321	-1.039339141	 0.104778
H	 0.2184612489	-0.3239564943	-1.9619241882	 0.089277
H	 2.4600634688	 0.3019573871	-1.1054955457	 0.094059
H	 3.3193795754	-2.0991311354	-0.4514381747	 0.293313
H	 2.1780902859	-0.8677349583	-3.3328515966	 0.097562
