18
gdb 77989	2.95375	1.25299	1.03848	4.3113	78.28	-0.2671	0.0172	0.2842	1176.2247	0.147475	-401.936912	-401.928153	-401.927209	-401.970086	32.968	
C	-0.0861658472	 1.572900743	 0.0667850024	-0.421282
C	 0.0939792837	 0.0692864652	 0.0611268658	-0.052862
C	 1.3618894842	-0.6811957317	-0.2251242899	-0.127195
C	 2.6079890687	-0.0408842667	 0.3781811019	 0.118822
O	 2.9989039236	 1.1645004943	-0.2383483878	-0.423991
C	 1.9288146701	-0.002355483	 1.7919518782	-0.346527
C	 0.7145847936	-0.7306508715	 1.1902705439	 0.186086
C	 0.0427296776	-1.8236802712	 1.8105318284	 0.188706
N	-0.4972313219	-2.7100479367	 2.3247467205	-0.353722
H	 0.81193116	 2.0982501269	 0.3893235799	 0.141698
H	-0.3146686765	 1.9179023525	-0.9467858614	 0.127923
H	-0.9220763039	 1.8571984158	 0.7145929284	 0.122048
H	-0.7614234682	-0.4610359281	-0.3531865648	 0.112228
H	 1.3855783396	-1.4769321268	-0.9596254648	 0.109047
H	 3.4340358602	-0.762865963	 0.3839595483	 0.090178
H	 3.8442490028	 1.4366387044	 0.1331106431	 0.289628
H	 2.4607196481	-0.5965025405	 2.5363564344	 0.124244
H	 1.7232572353	 0.989897397	 2.2001294235	 0.114971
