21
gdb 118179	2.46246	0.81888	0.69611	3.089	76.37	-0.2428	0.057	0.2998	1674.6704	0.181379	-457.584603	-457.573597	-457.572653	-457.621945	39.178	
C	 0.0268084611	 1.5527228235	-0.012477914	-0.399276
C	 0.0546751384	 0.018733824	 0.0045515755	 0.043518
C	 0.7358367709	-0.5564681352	-1.242902427	-0.183074
C	 0.613920086	-2.0694702293	-1.3706023922	-0.074925
O	 1.3009437661	-2.4575309102	-2.5523711585	-0.422428
N	 0.7031526178	-0.4972907976	 1.2122152008	-0.338251
C	-0.0103376808	-0.6277195428	 2.3856086843	 0.453549
N	 0.7835955831	-0.8997013259	 3.4971306806	-0.567546
O	-1.2193226861	-0.5054099154	 2.4588581325	-0.393859
H	 1.0426875353	 1.9650022067	-0.0374198904	 0.104599
H	-0.5066553102	 1.9231720896	-0.8936781546	 0.116771
H	-0.4799278113	 1.9293353895	 0.8795886074	 0.1376
H	-0.9764763674	-0.3423364751	 0.0601900345	 0.118736
H	 0.2978649542	-0.0939433056	-2.1340514711	 0.110103
H	 1.8008387313	-0.2861553982	-1.2488736082	 0.094739
H	 1.0402038244	-2.5540105266	-0.4799954075	 0.087639
H	-0.4507591762	-2.3506677401	-1.4163562688	 0.089183
H	 1.2271052355	-3.41196406	-2.6418202705	 0.285348
H	 1.6880787366	-0.2918485462	 1.3020757282	 0.233298
H	 1.6225497523	-1.4402123184	 3.3452693728	 0.245337
H	 0.2365063292	-1.2146557267	 4.2843831262	 0.258939
