13
gdb 69026	2.77926	1.42403	1.1835	4.4629	65.15	-0.2662	-0.0388	0.2275	1025.3269	0.088905	-452.740502	-452.732724	-452.73178	-452.77288	28.804	
N	-0.1148958932	 1.4806054861	-0.2199425527	-0.588181
C	-0.0286372343	 0.0925502424	-0.0655669985	 0.064988
C	-0.2980584482	-0.8501958397	-1.2365895167	-0.357041
C	-1.1290014318	-0.9924280692	-0.0063877272	 0.308109
O	-0.375628596	-1.7433051058	 0.9793602364	-0.286082
C	 0.5892044756	-0.7337235114	 1.0530352651	 0.424684
O	 1.4897826598	-0.6492575272	 1.8162947287	-0.307832
C	-2.5372545588	-0.8846481715	 0.1298714818	 0.239149
N	-3.6854558298	-0.7820121045	 0.2280075956	-0.334607
H	-0.1257154477	 1.9749444481	 0.6641129395	 0.261651
H	 0.62134089	 1.8557610295	-0.806099497	 0.258459
H	-0.7736155486	-0.3502356606	-2.0745693537	 0.164076
H	 0.3919125031	-1.6502064662	-1.4837656214	 0.152626
