13
gdb 130608	3.12647	1.48456	1.00659	5.1354	78.67	-0.2286	-0.0558	0.1728	1076.4602	0.090388	-415.600959	-415.593569	-415.592625	-415.632925	27.875	
O	-0.024147235	-0.0484211244	 0.0035999759	-0.361484
C	 0.0067760946	 1.1715901879	 0.0097273302	 0.266938
C	-1.2221049136	 1.9866949671	 0.0299330442	-0.062604
N	-1.2938461855	 3.2824486288	 0.0376200649	-0.174735
N	-0.1215788122	 3.9410680511	 0.0257446275	-0.222515
C	 1.0964302242	 3.3512627126	 0.0067174191	-0.035521
C	 1.2328291122	 1.9895275345	-0.0021510863	-0.044095
C	 2.5107516305	 1.3804631082	-0.0220783116	 0.24311
C	 3.5927760557	 0.8526450138	-0.0390453056	-0.388887
H	-2.1690594596	 1.4556094952	 0.0395217111	 0.144142
H	-0.2117064193	 4.9441285028	 0.0321268553	 0.286838
H	 1.9451201529	 4.0251875258	-0.0008977476	 0.150103
H	 4.5413524151	 0.3757378666	-0.0540612173	 0.198708
