23
gdb 122937	4.24313	0.53292	0.4938	3.1674	85.12	-0.247	-0.0198	0.2272	2261.8315	0.201875	-425.434987	-425.423361	-425.422417	-425.474034	39.34	
C	-0.1336199365	 1.5589735195	-0.0859253711	-0.384632
C	-0.028010221	 0.0458341749	-0.0003341634	-0.030112
O	-1.3326456559	-0.4977128793	 0.0017438945	-0.242579
C	-1.3523236115	-1.9054156554	 0.0677256917	-0.058094
C	-2.8103801611	-2.3540157356	 0.0746401085	-0.212941
C	-2.9945568273	-3.8852620721	 0.0284686593	-0.064952
C	-2.4687638457	-4.5979103822	 1.2884818641	-0.409923
C	-4.4736676188	-4.1865054238	-0.1228627758	 0.160679
O	-4.9784158816	-4.7486729384	-1.0592986841	-0.248062
H	 0.8625193137	 2.0113661324	-0.0880717672	 0.115082
H	-0.6523987332	 1.8558131481	-1.0017869824	 0.127845
H	-0.6928532059	 1.9533456407	 0.7672244413	 0.126781
H	 0.5474792722	-0.3511230741	-0.854039437	 0.085797
H	 0.5102973919	-0.2540277942	 0.9152572628	 0.084411
H	-0.8246346342	-2.3411306015	-0.7991342979	 0.087321
H	-0.8248336703	-2.2509204561	 0.9721189294	 0.086765
H	-3.3029321041	-1.942889352	 0.9647090216	 0.108587
H	-3.3001349279	-1.9000474339	-0.7944735303	 0.120838
H	-2.4996046498	-4.2891991366	-0.8618514049	 0.095013
H	-2.6344108702	-5.677763749	 1.2260686835	 0.130514
H	-1.3962694488	-4.4336972604	 1.4187493881	 0.130331
H	-2.9747147273	-4.2294596226	 2.1883420811	 0.123034
H	-5.0945747368	-3.8338402184	 0.7366649082	 0.068297
