17
gdb 52891	2.02483	1.22274	0.86372	5.3252	84.36	-0.2463	0.0006	0.2469	1385.4882	0.133335	-380.825228	-380.815237	-380.814293	-380.861304	34.553	
C	 0.1246703932	 1.5029304205	 0.0419945435	-0.504101
C	 0.0766857434	 0.0493204272	 0.0591733881	 0.116066
C	 0.047063981	-1.1545496732	 0.0771825907	 0.011484
C	 0.0347071519	-2.5950389452	 0.0570277986	 0.022618
C	-0.4918725006	-3.3458152192	 1.2630639073	-0.260233
N	-1.2338314161	-3.3641167693	 0.0269350299	-0.109946
C	-2.4836669711	-2.615407403	-0.0369207787	-0.320026
C	 1.1015706013	-3.2019811721	-0.7197936342	 0.241614
N	 1.9629105781	-3.681727172	-1.3224535759	-0.339525
H	 1.109565107	 1.852384091	-0.2855336059	 0.163766
H	-0.6210855233	 1.9173348644	-0.6447643601	 0.157034
H	-0.0642474431	 1.9200202956	 1.0369029408	 0.155118
H	-0.0152253939	-4.277436323	 1.5542683699	 0.143197
H	-0.8440806213	-2.7165507327	 2.0790918073	 0.127746
H	-2.4763956709	-1.6883519529	 0.5527558667	 0.119146
H	-2.6962320706	-2.3651165563	-1.0795005071	 0.140492
H	-3.2811437451	-3.2660471898	 0.3328989592	 0.135551
