13
gdb 25391	3.02061	1.40539	0.95913	6.0123	73.33	-0.2576	-0.1035	0.1541	1118.3294	0.089336	-456.62888	-456.621667	-456.620723	-456.66103	26.373	
O	 0.0007602045	-0.0368157127	-0.0027992104	-0.244869
C	 0.0158205344	 1.1666192834	 0.0079983311	 0.102176
C	 1.2448908658	 1.9968790966	 0.0015130073	 0.302831
C	 1.1943292723	 3.3515266636	 0.0137046794	-0.225285
C	 2.424092125	 4.0786236089	 0.006345465	-0.047617
C	 3.5994657448	 3.4071477855	-0.0124747138	-0.244029
C	 3.6522972198	 1.9517540953	-0.0257516814	 0.429087
O	 4.632694761	 1.2636280639	-0.0421757686	-0.326461
O	 2.3986803395	 1.3122782268	-0.0171703505	-0.242273
H	-0.9131859907	 1.7759840018	 0.0232020267	 0.090734
H	 0.2347441921	 3.8520703114	 0.0286944932	 0.131162
H	 2.4088397632	 5.1636123792	 0.0158848418	 0.133277
H	 4.5598034181	 3.9068870263	-0.0187585697	 0.141265
