17
gdb 29729	3.40335	1.31222	0.95844	3.4032	87.13	-0.208	-0.0058	0.2022	1200.0081	0.135258	-380.89175	-380.882507	-380.881563	-380.926768	32.935	
C	 0.0349031699	 1.4250236161	 0.0371610071	-0.349054
N	 0.0161867245	-0.0250795071	 0.012691458	-0.105541
C	 0.0141939819	-0.8257520182	-1.0924612332	 0.335034
C	 0.0289268742	-0.2914336148	-2.4840633718	-0.508486
N	-0.0023158197	-2.107633822	-0.7672578459	-0.295115
C	-0.0110372475	-2.1442988945	 0.5961403053	-0.195599
C	 0.0001298056	-0.8685472056	 1.1232100378	 0.144759
C	-0.0031123477	-0.4002481909	 2.4482558431	 0.254727
C	-0.0059157772	 0.0055403116	 3.5842010053	-0.464268
H	 0.9417200747	 1.8127858776	-0.4373577746	 0.142949
H	-0.8364799565	 1.8349431343	-0.4825150291	 0.142966
H	 0.0129410025	 1.7552255343	 1.0760434721	 0.162835
H	 0.9203403597	 0.3159588148	-2.6813712419	 0.133406
H	 0.0233798853	-1.1336866834	-3.1764560218	 0.159311
H	-0.845754317	 0.3363702988	-2.6921895477	 0.133423
H	-0.0251696595	-3.0731837673	 1.1451798293	 0.11708
H	-0.0084835431	 0.3486562464	 4.5889031881	 0.191572
