19
gdb 96764	2.45913	1.40243	0.96907	3.4476	81.51	-0.2168	0.0203	0.2371	1254.0525	0.157373	-419.161895	-419.152173	-419.151229	-419.197512	33.804	
C	-0.2852828516	 1.3493162988	-0.04734545	-0.333556
N	-0.1712720316	-0.0979107091	-0.1062947045	-0.340718
C	 0.5073526097	-0.6604012057	-1.0074132396	 0.337961
N	 1.3145980482	-0.3076695474	-2.0961989972	-0.118809
C	 1.4847487753	 0.8885361079	-2.8803842377	-0.339286
C	 1.5574410581	-1.6879926116	-2.5395489258	-0.255969
C	 0.7832371039	-2.123744285	-1.2842785366	 0.342751
C	 0.9466961045	-3.2454328705	-0.3636588942	-0.25816
O	-0.1804740394	-3.1479009223	-1.2491096602	-0.258067
H	 0.6901773679	 1.8444958533	 0.0704728273	 0.110633
H	-0.7707679392	 1.7748421944	-0.9375476879	 0.112591
H	-0.8963913385	 1.6236454526	 0.8170767851	 0.121102
H	 1.236056115	 1.7640113717	-2.2806314908	 0.146021
H	 2.5273322257	 0.9844872687	-3.2069584624	 0.129121
H	 0.8475940784	 0.890182312	-3.777787932	 0.122683
H	 1.0519300133	-1.9561949758	-3.4764354838	 0.116344
H	 2.6162951253	-1.9650081776	-2.596863225	 0.111015
H	 1.6560093637	-4.0384306107	-0.5964105618	 0.117637
H	 0.7207897714	-3.0957051236	 0.6901790772	 0.136707
