19
gdb 48480	2.11061	1.51238	1.17115	2.1366	81.72	-0.2513	-0.0285	0.2228	1146.3848	0.158423	-385.883067	-385.874112	-385.873168	-385.917181	33.551	
O	 0.1785452838	 0.1684325715	-0.6177132555	-0.248065
C	 0.1813531155	 1.2877386513	-0.1821023763	 0.129795
C	 1.4426200453	 2.1053347039	 0.1552604757	 0.046358
C	 2.733380572	 1.2238380613	 0.1095504233	-0.268595
C	 3.5812894953	 1.7588728056	-1.064675482	-0.196466
C	 2.5613270998	 2.4314930777	-1.9955025186	-0.209452
C	 1.6177562183	 3.1396512218	-1.0172641032	-0.249801
C	 1.2037458315	 2.7644305668	 1.4319010555	 0.240825
C	 0.9668241692	 3.3006872429	 2.4822750492	-0.431159
H	-0.7621449166	 1.8515402124	-0.0168416115	 0.097265
H	 3.2642867377	 1.2576772064	 1.0617365603	 0.112241
H	 2.426811521	 0.1907402913	-0.0715993861	 0.135108
H	 4.2980689065	 2.506666729	-0.7055501835	 0.101909
H	 4.1555232872	 0.9687828442	-1.5557517328	 0.102536
H	 3.0140992615	 3.1217025897	-2.7125938752	 0.099369
H	 2.0127173176	 1.6724647107	-2.5652957625	 0.115499
H	 0.6584724787	 3.4370397357	-1.4531713088	 0.106834
H	 2.0845225137	 4.0428299606	-0.6129135873	 0.119144
H	 0.7771384019	 3.7750659771	 3.4133150891	 0.196656
