19
gdb 83760	2.4211	1.86359	1.45837	0.6437	73.52	-0.2198	0.0748	0.2947	975.9143	0.159762	-422.993227	-422.985415	-422.984471	-423.024957	31.389	
C	-0.1667753378	 1.6107617006	-0.0088385506	-0.435837
C	 0.0385213652	 0.0996476345	 0.0034106821	-0.032471
C	 1.1483022507	-0.5847666769	-0.8835852057	-0.101222
C	 2.3835146357	 0.3045036233	-1.013732479	-0.080525
O	 2.7982465852	 0.5464400874	 0.3394764716	-0.268479
C	 2.2039048533	-0.463399837	 1.1295714894	 0.026211
C	 1.5055976228	-1.504041032	 0.317120307	-0.179124
C	 0.6894886096	-0.5746902577	 1.2127717725	 0.329178
O	 0.0325482886	-0.9271164598	 2.3790044742	-0.463616
H	 0.7601472306	 2.1413938336	 0.2237279214	 0.136674
H	-0.5319640386	 1.9578190415	-0.98202837	 0.111999
H	-0.9158531132	 1.8971323978	 0.7381047177	 0.111562
H	-0.910381608	-0.4116185853	-0.1935986081	 0.080437
H	 0.8149198754	-1.0425208519	-1.8141770346	 0.074777
H	 3.1858721783	-0.2002809049	-1.5721434739	 0.094338
H	 2.180974194	 1.2699715858	-1.4878765198	 0.107451
H	 2.7779127395	-0.7284904599	 2.0099756423	 0.103888
H	 1.6722451323	-2.5722838002	 0.3321424533	 0.096903
H	 0.1080167562	-0.196544209	 3.0027108903	 0.28786
