17
gdb 123432	5.18708	0.89583	0.79121	3.9966	73.68	-0.2541	-0.0126	0.2415	1393.8014	0.137639	-417.968274	-417.960481	-417.959537	-418.002147	28.529	
C	 0.047619958	 1.3480636553	 0.5217880842	-0.367652
C	-0.0675122552	-0.0933259626	 0.0661438097	 0.040804
C	-1.3849242205	-0.6788747909	-0.2729455116	-0.251428
N	-0.3963412688	-0.4083001242	-1.3361157374	-0.314119
C	 1.3890235123	 1.9537150286	 0.2194609506	 0.153103
C	 2.1578547974	 2.7666791341	 0.9920619422	-0.015537
O	 3.2910871881	 3.104459115	 0.3596894358	-0.16295
N	 3.3047344389	 2.4962636124	-0.8909362048	-0.131305
C	 2.1835140844	 1.8241972993	-0.9604850512	-0.039329
H	-0.7516407045	 1.9306664687	 0.0409733344	 0.109846
H	-0.1405046393	 1.4094193194	 1.6004840387	 0.117511
H	 0.6928187079	-0.7542843914	 0.4779375133	 0.10221
H	-1.5808046237	-1.7305063163	-0.0859861959	 0.12388
H	-2.2601374301	-0.0372938734	-0.2035486723	 0.112381
H	-0.6609460748	 0.4446605017	-1.8253063665	 0.227922
H	 2.0328145967	 3.1756739742	 1.9831522807	 0.149362
H	 1.9715131334	 1.2455443501	-1.8487964	 0.145301
