16
gdb 119827	5.82281	0.77547	0.69312	3.0553	66.52	-0.2715	-0.0219	0.2496	1536.2802	0.123617	-475.071997	-475.063337	-475.062392	-475.106431	30.434	
O	-0.2060693182	 1.4659118559	 0.0121693158	-0.419773
C	 0.02498491	 0.0667194514	 0.0035041284	-0.075338
C	-1.3469928435	-0.5968210634	 0.0108527243	-0.297952
C	-1.2772202771	-2.0827776921	 0.0029089359	 0.427328
N	-0.2368859154	-2.8125650511	-0.0080603165	-0.302344
C	-0.7136702169	-4.1896276048	-0.0115441545	-0.316493
C	-2.2346734391	-4.0894521626	-0.0003371574	 0.4056
O	-3.0897411285	-4.9160536578	 0.0015964732	-0.307882
O	-2.5054261199	-2.7233902749	 0.0083875227	-0.234115
H	 0.6464852902	 1.9101958439	 0.0090852184	 0.291029
H	 0.5853707346	-0.2516206572	-0.8867261547	 0.107561
H	 0.5990735739	-0.260342617	 0.8817476433	 0.10759
H	-1.9149571378	-0.2724159458	 0.891158997	 0.147023
H	-1.9285723248	-0.2637071235	-0.8572208194	 0.147027
H	-0.3708791212	-4.7347822439	-0.8976460613	 0.160369
H	-0.3584802063	-4.743523717	 0.8641936047	 0.16037
