20
gdb 86944	2.66728	1.13825	1.06073	2.5703	77.29	-0.2503	0.0186	0.2688	1259.6513	0.169898	-440.271187	-440.261656	-440.260712	-440.306117	34.936	
C	 1.0904385782	 1.3451433347	 0.0969750619	-0.420338
C	 0.1129020084	 0.1732654113	 0.1281281639	-0.032375
C	 0.2982544914	-0.8610539487	-1.0271805986	-0.262873
C	 1.0331885075	-1.8134820437	-0.0615186498	 0.066603
O	 2.4445562843	-1.6416856392	-0.2008231736	-0.206495
C	 3.2310979156	-2.5122706137	 0.4694506667	 0.125217
N	 4.4668085956	-2.2823515789	 0.5791155634	-0.445576
C	 0.4853603287	-0.9708371187	 1.1323465464	 0.133036
O	 1.3399293221	-0.7263842196	 2.2116040392	-0.429066
H	 2.1164307965	 1.0111872955	-0.0892810212	 0.135192
H	 0.8244435135	 2.0443406341	-0.702327177	 0.118
H	 1.0739251091	 1.893878471	 1.0441119288	 0.12464
H	-0.9072434439	 0.5485179675	 0.2487059398	 0.072009
H	-0.640637609	-1.2867947847	-1.3880373252	 0.107813
H	 0.8947752497	-0.5352592881	-1.8817392619	 0.120247
H	 0.7840478963	-2.8800598858	-0.0929413836	 0.078049
H	 2.6875670688	-3.3855137124	 0.8531967328	 0.092874
H	 4.9196448511	-3.0479171315	 1.0740344796	 0.231201
H	-0.413514177	-1.4350475762	 1.5488162478	 0.090694
H	 2.1676429429	-0.3760156328	 1.8618692207	 0.301148
