17
gdb 105342	2.52042	1.45808	1.13476	3.2752	71.9	-0.255	0.0165	0.2715	1098.9779	0.136265	-417.960044	-417.951707	-417.950763	-417.993104	31.165	
O	 0.109547815	 1.4054560117	-0.1820842212	-0.414112
C	 0.0688157658	 0.0217017252	 0.0866709457	-0.123765
C	-1.3646356739	-0.5396319176	-0.0006786305	 0.105066
C	-2.0758934343	-0.5679741518	-1.396748356	-0.203262
N	-2.3469303288	-2.0445778914	-1.3028682567	-0.116987
C	-1.0263075163	-2.6874663516	-1.2329232606	-0.252459
C	-1.5598578445	-2.0670044015	-0.0040614581	-0.069745
C	-2.1791830902	 0.1263126728	 1.0115154845	 0.242947
N	-2.7742528219	 0.693953595	 1.824985407	-0.344072
H	-0.3438393968	 1.865807002	 0.5338404601	 0.301694
H	 0.6872318796	-0.4553447464	-0.6771299569	 0.118226
H	 0.4975027036	-0.2271320696	 1.0689806673	 0.110673
H	-3.0103323791	-0.0089079203	-1.4263922801	 0.143637
H	-1.445448182	-0.2771549045	-2.2422472808	 0.124888
H	-1.079833563	-3.7701919725	-1.2906283485	 0.135925
H	-0.1902895886	-2.2480289825	-1.771421883	 0.121636
H	-1.8865195846	-2.6409505069	 0.855996838	 0.119709
