20
gdb 82574	3.3009	1.39477	1.21068	2.0144	79.22	-0.2228	0.072	0.2948	1101.6807	0.171035	-403.078959	-403.070732	-403.069788	-403.111932	31.651	
C	-0.0918031769	 1.5479352573	-0.0650899362	-0.31848
N	 0.0527434996	 0.1101142441	 0.1423277942	-0.082411
C	 1.2684322487	-0.6152538891	-0.1238843778	-0.038691
C	 2.5344582218	 0.1811140777	 0.2415981396	-0.340282
C	 1.9988450736	 0.2790493696	 1.7024829609	 0.44692
C	 2.8428995584	-0.2643983053	 2.874154801	-0.351731
C	 2.711064004	 1.160021941	 3.4466016591	-0.072312
O	 1.8858435808	 1.5707335869	 2.3377712327	-0.315838
C	 0.723719343	-0.4651760728	 1.2849798741	-0.124337
H	 0.7752467961	 2.1532031458	 0.221781949	 0.131917
H	-0.3128854837	 1.7212311591	-1.1232155671	 0.115052
H	-0.9478914659	 1.8928623661	 0.5220323318	 0.125055
H	 1.2297149649	-1.4787365618	-0.778810355	 0.093753
H	 3.4514370528	-0.4103831884	 0.1791847941	 0.104094
H	 2.685245272	 1.1278429593	-0.2832026335	 0.109596
H	 2.3528062684	-1.0446988635	 3.4608189702	 0.113366
H	 3.8532165664	-0.5887152836	 2.6190146919	 0.111124
H	 2.1836260116	 1.2477108488	 4.4033993128	 0.105281
H	 3.6417557207	 1.737881114	 3.4999876382	 0.102989
H	 0.1782078237	-1.1645885152	 1.9124927	 0.084938
