19
gdb 31511	3.19951	1.08073	0.85815	1.0301	81.28	-0.1795	0.0329	0.2124	1385.113	0.159948	-419.238609	-419.229153	-419.228209	-419.272886	35.303	
C	-0.3222058509	 1.5153809605	-0.185655493	-0.369504
C	 0.1384602213	 0.0596057275	 0.0028877536	-0.291582
C	 0.9340418513	-0.4635425137	-1.1439462411	 0.377088
C	 2.216194138	-0.9088047209	-1.2553879895	-0.355554
C	 2.4034079795	-1.288550643	-2.6281986813	 0.236471
N	 3.5899951085	-1.7364732547	-3.2245159715	-0.613363
C	 1.2194436521	-1.0463942707	-3.2582806445	 0.199136
N	 0.8607970417	-1.2280661637	-4.5945119912	-0.60722
O	 0.3091349723	-0.5249424095	-2.3499500036	-0.217094
H	 0.5364419953	 2.186466368	-0.2846576247	 0.120813
H	-0.9307752541	 1.6130163097	-1.0887638378	 0.129109
H	-0.9209686529	 1.8473454048	 0.6680731806	 0.109398
H	 0.7523761011	-0.0274755306	 0.9052573548	 0.109769
H	-0.7420974832	-0.5777639123	 0.1606163752	 0.111375
H	 2.9455992143	-0.9597911412	-0.4610908693	 0.095183
H	 4.0637417813	-2.4408629459	-2.6724929	 0.238457
H	 3.4068600036	-2.0991994046	-4.1533199498	 0.24501
H	 0.702094429	-0.3543848796	-5.0886502475	 0.241814
H	 0.0298687417	-1.8015724501	-4.7030242795	 0.240696
