18
gdb 41860	2.59422	2.16723	1.66171	2.2601	73.77	-0.2374	0.023	0.2604	875.5161	0.152309	-401.961333	-401.954989	-401.954045	-401.99189	26.481	
C	-0.0430936477	 1.5307817023	-0.1259400407	-0.246577
C	 1.4304160448	 1.9711354838	 0.0401083903	-0.206597
C	 2.0878127628	 0.8771435574	 0.9023129646	 0.087786
O	 1.9763001486	 1.2309718638	 2.3057617523	-0.238653
C	 0.8366034703	 0.902794773	 2.9475375406	 0.122602
N	-0.0876555437	 0.1136010732	 2.5860427396	-0.269192
C	 0.1120108774	-0.6135276438	 1.3716924457	 0.007957
C	-0.0036975869	 0.0067510395	-0.0063473254	-0.051121
C	 1.354415946	-0.40888961	 0.5402390651	-0.13141
H	-0.6815278266	 1.9715756319	 0.646982673	 0.121264
H	-0.4483833569	 1.8373558013	-1.0932017773	 0.101799
H	 1.9219028664	 1.9664110948	-0.9393105571	 0.104676
H	 1.5621281899	 2.9645007367	 0.4771228585	 0.107156
H	 3.163499683	 0.8024473678	 0.739447614	 0.095117
H	 0.7869744565	 1.4122746194	 3.9083424141	 0.121323
H	-0.2672466273	-1.6283875453	 1.4418594264	 0.097725
H	-0.4935557267	-0.5925628551	-0.7650875961	 0.087414
H	 1.9208895101	-1.2520026807	 0.1650419625	 0.08873
