24
gdb 101101	3.20367	1.03818	0.92112	2.0233	89.03	-0.2223	0.0724	0.2947	1409.4808	0.217741	-368.342717	-368.333243	-368.332299	-368.377292	36.296	
C	-0.0989214134	 1.5474506303	 0.0643197331	-0.392121
C	 0.0411433575	 0.0228848019	 0.0113583233	-0.170193
C	 0.7673782842	-0.5140336931	-1.2378450828	-0.124815
C	 2.2369843959	-0.0711916769	-1.3060182244	-0.402289
C	 0.6613787302	-2.02642451	-1.3106843761	 0.354486
C	-0.6041994546	-2.9219272915	-1.3626970668	-0.221014
N	 0.5182101676	-3.9706703804	-1.4186813075	-0.147048
C	 1.1885860391	-2.9953667499	-2.4003292558	-0.223396
C	 1.1838169042	-3.1129484693	-0.3299605257	-0.206094
H	 0.8726717664	 2.0477840223	 0.1185499515	 0.118852
H	-0.6191520171	 1.9268519629	-0.8225661096	 0.113634
H	-0.6744442906	 1.8556397611	 0.9428333966	 0.112559
H	 0.5683809773	-0.3288685051	 0.9086149843	 0.09554
H	-0.9596156594	-0.4247356688	 0.0534963057	 0.096289
H	 0.2495450081	-0.1147912516	-2.1238540588	 0.068936
H	 2.7286326949	-0.4709637025	-2.1985524518	 0.115666
H	 2.330672803	 1.0175327716	-1.339946262	 0.116727
H	 2.793527636	-0.4274170764	-0.4312017284	 0.114838
H	-1.2245885809	-3.0000234478	-0.4652209451	 0.097245
H	-1.2188820094	-2.8927905435	-2.2677392124	 0.095305
H	 0.7114648219	-2.9719376456	-3.3849707467	 0.095297
H	 2.268975147	-3.1429828507	-2.4876076	 0.097056
H	 2.263801944	-3.2701362226	-0.2549950761	 0.097195
H	 0.7019324783	-3.2038190443	 0.6478780355	 0.097346
