16
gdb 110163	2.6755	1.19788	0.90518	4.3585	72.38	-0.2431	0.001	0.2441	1273.8715	0.122664	-437.853512	-437.844539	-437.843595	-437.887698	32.078	
C	 0.0254814658	 1.3795059345	 0.2115520803	-0.327903
N	-0.1482045769	 0.0221150088	-0.3126334767	-0.299426
C	-1.4566657972	-0.5254521325	-0.0316734223	-0.187792
C	-1.6228375009	-2.043961974	-0.3122033648	-0.079537
O	-1.8774668925	-2.2756191497	 1.125112084	-0.242203
C	-1.6668421779	-0.9563923956	 1.4282005402	 0.486253
O	-1.6581898768	-0.4495005154	 2.5028535235	-0.321238
C	-2.7133812005	-2.4729404238	-1.1576918127	 0.324791
C	-3.6099653964	-2.8147683512	-1.8804415605	-0.424388
H	 1.0280941785	 1.7326215191	-0.0423282955	 0.125955
H	-0.7102392862	 2.1035364658	-0.1779910412	 0.102309
H	-0.0672247392	 1.3583561718	 1.2999139381	 0.162452
H	-0.0043379252	 0.0269150833	-1.3179325574	 0.2294
H	-2.3082055249	 0.0679065901	-0.4044679443	 0.105233
H	-0.6764580154	-2.5181079277	-0.5845775176	 0.133067
H	-4.4035633943	-3.1253201935	-2.5150166131	 0.213026
