19
gdb 41681	3.80618	1.46563	1.24034	1.4511	79.63	-0.2122	0.0202	0.2323	1038.4895	0.162109	-385.890194	-385.88327	-385.882326	-385.921185	28.594	
C	 0.1715239495	 1.2103609907	 0.3686405016	-0.087061
C	 1.409335125	 1.9187650039	-0.220911567	-0.34042
C	 2.1006808128	 0.8036492104	-0.9768520831	 0.317265
C	 3.1980461852	 0.9942850072	-2.0140367812	-0.367636
C	 3.8858905488	-0.3560340059	-2.0342178239	-0.080845
C	 3.4177488927	-1.1798295516	-1.0912309037	-0.081282
C	 2.3005842384	-0.572893396	-0.3175762731	-0.186958
C	 1.0627415197	-0.2688192043	-1.1470165836	 0.080854
O	-0.1153894014	 0.0970689729	-0.483365717	-0.266996
H	 0.379742107	 0.8555945508	 1.3876541917	 0.100484
H	-0.7199231467	 1.8423006348	 0.4077410982	 0.110078
H	 1.1166684323	 2.7098655753	-0.9216207859	 0.107234
H	 2.0236568695	 2.3759405922	 0.5612139947	 0.104648
H	 2.7934314486	 1.273503808	-2.9958979835	 0.109133
H	 3.8974733484	 1.7954284167	-1.7314718459	 0.104487
H	 4.6684135926	-0.5977106322	-2.7442669197	 0.093761
H	 3.7689098361	-2.1900489033	-0.9130005596	 0.095922
H	 2.1966249976	-0.7506618606	 0.7481783447	 0.087458
H	 0.875081674	-0.8067855591	-2.070284964	 0.099872
