19
gdb 109331	2.25118	1.35794	1.00556	3.602	78.78	-0.2278	-0.027	0.2008	1250.1717	0.157604	-423.038137	-423.028887	-423.027943	-423.073213	32.83	
C	-0.0004345693	 1.5944876859	 0.1523374294	-0.375942
C	-0.0185635429	 0.0762922411	-0.1016326241	-0.300919
C	-1.3888604954	-0.5292763287	-0.0249100301	 0.30507
C	-2.0877523821	-1.1317159845	-0.9844089364	-0.209299
C	-3.4235192881	-1.5811202246	-0.4700990502	-0.116232
O	-3.4907719717	-1.0682530963	 0.860990185	-0.251382
C	-2.2327136134	-0.5659814192	 1.2465762738	-0.064789
C	-1.5647900087	-1.4511036514	 2.3027703243	 0.151461
O	-1.9290601366	-2.556581128	 2.594775439	-0.234815
H	 1.0164971468	 1.9866764109	 0.0600818722	 0.120869
H	-0.6350251232	 2.1181374782	-0.5689279474	 0.127101
H	-0.3613224294	 1.8416257639	 1.1556877159	 0.121015
H	 0.401927279	-0.1334484147	-1.0908635949	 0.112583
H	 0.646870975	-0.4123877419	 0.6228453454	 0.11357
H	-1.7583448125	-1.2931965598	-2.0036286256	 0.105514
H	-4.2661774319	-1.1778413391	-1.0495247162	 0.110361
H	-3.5226515177	-2.6776067845	-0.4626488647	 0.118401
H	-2.355995922	 0.4345080937	 1.695610051	 0.099078
H	-0.6774312957	-0.978104601	 2.7887935535	 0.068354
