14
gdb 1632	3.41283	2.58718	1.56802	1.6866	54.83	-0.2536	-0.0463	0.2073	760.1412	0.111802	-361.763293	-361.755537	-361.754593	-361.795495	27.118	
C	 0.5504889767	 1.6871457227	-0.3741181969	-0.403179
C	-0.0104498931	 0.38049413	 0.1835158167	-0.184005
C	 0.1570203989	-0.7775114365	-0.7910669414	 0.148428
O	-0.1359695402	-1.9265954394	-0.5593303695	-0.258434
C	 0.5646146239	 0.0676477656	 1.590047503	 0.395488
N	 0.1292717705	-1.1030465676	 2.1290605465	-0.520351
O	 1.2935958955	 0.852831217	 2.1600338755	-0.349721
H	 1.6335379609	 1.6204059601	-0.5093639667	 0.137538
H	 0.0917409348	 1.9229494117	-1.3394796604	 0.111591
H	 0.3606901378	 2.5095675158	 0.3159058261	 0.146591
H	-1.0980376251	 0.4678507752	 0.3265760203	 0.141126
H	 0.5726131637	-0.4935519098	-1.7820112551	 0.101675
H	-0.246731719	-1.8084483208	 1.5097820291	 0.273964
H	 0.5708899646	-1.3962054242	 2.9867216928	 0.259288
