19
gdb 83380	2.73109	1.73827	1.52062	1.6455	74.46	-0.2425	0.0597	0.3022	961.2363	0.160736	-422.942092	-422.93493	-422.933986	-422.973232	29.418	
C	-0.0592294834	 1.6235096767	 0.0292585712	-0.445063
C	 0.0317181687	 0.1094111741	 0.0856919593	 0.010636
C	 1.1052676648	-0.6269152029	-0.7168227538	 0.024513
O	 2.3482818868	-0.0505377564	-0.193320366	-0.295644
C	 2.1397478961	 0.0229302933	 1.261619772	-0.182333
C	 0.7849118687	-0.6411261555	 1.2741194227	 0.20008
C	-0.1196035589	-1.6214478445	 2.015903626	-0.192078
O	-0.2165595821	-2.4217831544	 0.7927061679	-0.303078
C	 0.9987822219	-1.804309882	 0.2779412064	 0.112342
H	 0.9275438015	 2.0911426496	-0.0043893488	 0.134938
H	-0.6007920981	 1.9359703182	-0.8700924572	 0.120241
H	-0.603745243	 2.0215737665	 0.8927461073	 0.115036
H	-0.9441489856	-0.35714041	-0.0504191624	 0.099157
H	 1.1926550776	-0.6708343142	-1.8026126979	 0.07588
H	 2.9229428321	-0.5451118296	 1.7723632946	 0.111131
H	 2.1767639277	 1.0685750981	 1.582778924	 0.104659
H	 0.368307647	-2.191494611	 2.8170069389	 0.109961
H	-1.0986999298	-1.2643835551	 2.3496492951	 0.113127
H	 1.8557207679	-2.4811998609	 0.3296146205	 0.086495
