18
gdb 16754	5.37166	1.32829	1.19234	2.0724	73.22	-0.2346	0.0067	0.2413	1050.5725	0.154122	-347.79991	-347.792396	-347.791452	-347.831958	28.552	
C	 0.0925186998	 1.488093776	 0.2736468181	-0.37615
C	-0.0551012971	 0.014633119	-0.1447298061	-0.284796
C	-1.4701394514	-0.481281979	-0.1190187341	 0.331583
C	-2.161209446	-0.9942336037	-1.1457769195	-0.209315
C	-3.495683576	-1.484625163	-0.6985958851	 0.013189
O	-3.4130205895	-2.5420918371	 0.2910478266	-0.261173
C	-3.5873272329	-1.199122256	 0.7431970457	 0.040229
C	-2.2992665102	-0.5014974004	 1.1613751228	-0.335826
H	 1.1406030128	 1.798906456	 0.229741982	 0.116053
H	-0.4834529789	 2.1425653916	-0.388240643	 0.121105
H	-0.2595352182	 1.6530630703	 1.2967733203	 0.120368
H	 0.3564465302	-0.1254182249	-1.150404577	 0.104481
H	 0.5551981249	-0.6050011677	 0.5278173162	 0.109156
H	-1.7937307673	-1.0954527629	-2.1601738996	 0.09295
H	-4.3522463412	-1.547381472	-1.3626516169	 0.093551
H	-4.5225976289	-0.9959564142	 1.2581805724	 0.092559
H	-1.7883415216	-1.0386743416	 1.9702155362	 0.121356
H	-2.5038759085	 0.5110853595	 1.5319576309	 0.110682
