20
gdb 10355	2.42313	1.56173	1.15206	3.3471	67.07	-0.2448	0.0635	0.3084	1104.7084	0.175298	-423.264064	-423.254168	-423.253224	-423.298709	35.924	
C	 0.6384922405	-0.0091534417	-1.2921486729	-0.4184
C	-0.0637864902	 0.0629771801	 0.0634686161	 0.132342
O	-1.3824464105	-0.5082701198	-0.0101954331	-0.448103
C	 0.6545959996	-0.6684319132	 1.2178272408	-0.018255
C	 0.6732898785	-2.2018484011	 1.0626703026	-0.060228
O	-0.585393673	-2.8035909182	 1.270475231	-0.433582
C	 2.0790629267	-0.1501132144	 1.4196606041	-0.105277
O	 2.0573804951	 1.2710707901	 1.4591028586	-0.422304
H	 0.7891489648	-1.0406005386	-1.6231963739	 0.125956
H	 0.0382174309	 0.5036660418	-2.0532044691	 0.104371
H	 1.6059181759	 0.4984153955	-1.2497992967	 0.131567
H	-0.1477181934	 1.1187934881	 0.3485402056	 0.094222
H	-1.8405474589	-0.1192344671	-0.7611614422	 0.285104
H	 0.080383051	-0.4511509807	 2.1268095337	 0.096614
H	 1.0937624201	-2.4725218481	 0.0785296822	 0.078033
H	 1.3491842149	-2.628492543	 1.8146048831	 0.095098
H	-1.2118990029	-2.2884784523	 0.7444413108	 0.2887
H	 2.4762475494	-0.5653028661	 2.3581119355	 0.096823
H	 2.728647608	-0.5102367412	 0.6052315982	 0.088222
H	 2.9563786934	 1.58250239	 1.5980790856	 0.289097
