14
gdb 27631	2.99106	1.31711	0.91968	0.7947	73.86	-0.2153	-0.0099	0.2054	1189.7855	0.099821	-436.700931	-436.692665	-436.691721	-436.733702	30.533	
C	 0.1368488275	 1.4858167646	 0.1128175689	-0.503801
C	-0.0226326767	 0.0171008215	 0.0389161183	 0.252132
C	-1.0846763913	-0.8291071282	-0.0646549224	 0.048711
N	-0.6235959638	-2.1606395585	-0.0941291234	-0.436603
C	 0.6540316031	-2.0252772606	-0.0081201296	 0.459645
O	 1.5929250129	-2.9662643254	 0.0094652635	-0.402168
O	 1.117207613	-0.7659974351	 0.0760426563	-0.191643
C	-2.4529154325	-0.4849040662	-0.1352639544	 0.238227
C	-3.6161727838	-0.1799376124	-0.1947532203	-0.425916
H	 0.7376547404	 1.8687260282	-0.7200305242	 0.145155
H	-0.8496505633	 1.9520231685	 0.0718897167	 0.154847
H	 0.6283340422	 1.7923983253	 1.0432708934	 0.145142
H	 1.1365596625	-3.815153433	-0.0562850023	 0.32484
H	-4.6437215202	 0.0822947514	-0.2475480705	 0.191431
