21
gdb 38930	2.67968	1.92653	1.39798	1.6655	80.47	-0.2343	0.079	0.3133	992.5015	0.186404	-387.074723	-387.067713	-387.066769	-387.106083	29.246	
C	-0.0773387671	 1.4083656712	 0.3393816144	-0.258198
C	 1.4596327515	 1.5328712177	 0.0719632951	 0.006407
C	 2.3660366569	 1.5659386216	 1.3207755796	-0.21318
C	 3.5184863322	 0.5606633877	 1.2113329687	-0.1981
C	 2.9947554496	-0.8831959582	 1.1441706351	-0.222071
C	 1.7996552354	-1.0274166768	 0.1986487652	 0.145673
O	 0.5028132901	-0.9445831211	 0.8672093001	-0.326574
C	-0.016682176	-0.0447927646	-0.1470772496	 0.133622
C	 1.4166611577	 0.1577501701	-0.6945370778	-0.122677
H	-0.4197302754	 1.5574784872	 1.367064784	 0.103305
H	-0.673554386	 2.0350965603	-0.3316160303	 0.095584
H	 1.7120002886	 2.3602050481	-0.5952663546	 0.06999
H	 2.7569153533	 2.5778764621	 1.471737273	 0.090525
H	 1.7749220048	 1.3252524146	 2.2117766661	 0.10427
H	 4.1041474836	 0.7790079745	 0.3078336667	 0.092217
H	 4.205167531	 0.6701335982	 2.057557261	 0.092959
H	 3.7983858593	-1.5598053442	 0.833782827	 0.092351
H	 2.6658630798	-1.2167931271	 2.135738838	 0.114329
H	 1.8521825484	-1.9733709668	-0.3583437201	 0.067184
H	-0.856170527	-0.481808162	-0.6962120724	 0.066612
H	 1.6938745693	 0.1584168574	-1.747613709	 0.065772
