15
gdb 127790	2.50429	1.90203	1.08863	2.4984	74.07	-0.2231	-0.0478	0.1753	1040.0693	0.113535	-450.143174	-450.135019	-450.134075	-450.17575	30.159	
C	-0.008221622	 1.4193219032	 0.0207572908	-0.318057
N	-0.0172433923	-0.0381761419	 0.0280672649	-0.091084
N	-0.0673711577	-0.6240514373	-1.2098123279	-0.100962
N	-0.0672275647	-1.8951361749	-1.2757573139	-0.19965
C	-0.023182193	-2.6649731617	-0.1501633213	-0.057372
C	 0.0165249098	-2.1416984394	 1.1161213071	 0.187459
N	 0.0226555662	-2.8140280872	 2.2907424553	-0.57666
C	 0.0321840812	-0.6874633308	 1.2440601463	 0.457741
O	 0.0895302358	-0.0953631565	 2.3167486334	-0.424117
H	 0.9022058195	 1.7900181053	 0.4979062677	 0.153072
H	-0.0544625258	 1.7366747094	-1.0194762974	 0.155392
H	-0.8656416345	 1.8009853269	 0.5802067236	 0.153713
H	-0.0277017859	-3.7350039842	-0.3300914927	 0.113384
H	 0.2140291925	-3.7995937765	 2.3249429906	 0.266923
H	 0.1930439109	-2.2531894245	 3.1123098734	 0.280218
