18
gdb 22147	2.15209	1.21803	0.97617	0.6466	75.88	-0.245	0.003	0.248	1278.352	0.143362	-438.994417	-438.983958	-438.983014	-439.03111	36.597	
C	 1.3590421615	-0.1630856374	 0.206082813	-0.47603
C	-0.1143810888	-0.4509345079	 0.1952616823	 0.358814
C	-0.8547348039	-0.5529860886	 1.5078118521	-0.161267
O	-0.3015592423	-1.4982514905	 2.4136356655	-0.226086
C	-0.5652453508	-2.8558670106	 2.096950227	-0.224531
C	 0.3445932433	-3.4402155386	 1.1083984946	 0.324217
C	 1.1011128465	-3.9450689872	 0.322605039	-0.4648
N	-0.8395810194	-0.5900908793	-0.8480034623	-0.163005
O	-0.1008742597	-0.4211840387	-2.0266606084	-0.394863
H	 1.7844553685	-0.4107122189	 1.1798897297	 0.138226
H	 1.8658840312	-0.7381076873	-0.5710714981	 0.150178
H	 1.5427646793	 0.8981970587	-0.0007355145	 0.136514
H	-0.7891672679	 0.4045857158	 2.0386436451	 0.116358
H	-1.9124326285	-0.7670915093	 1.3046758783	 0.110498
H	-0.4671474897	-3.4030203911	 3.0413480714	 0.140456
H	-1.6050677412	-2.975334496	 1.7558312829	 0.126502
H	 1.7616088045	-4.3847193026	-0.3833576324	 0.20273
H	-0.7620631327	-0.5913916505	-2.7058446452	 0.306089
