15
gdb 34180	4.49416	1.47129	1.31539	3.5312	72.49	-0.2508	0.0169	0.2678	936.0652	0.115104	-379.62642	-379.620167	-379.619223	-379.65697	25.376	
N	 0.1379364497	-1.0675235057	 0.0050722643	-0.341751
C	 0.0597598843	 0.087215076	-0.0077138283	 0.176891
C	-0.0429483496	 1.5114361673	-0.0266471652	 0.191448
C	-1.144659204	 2.2403894387	-0.7779054251	-0.304517
C	-0.7591275148	 3.649247632	-0.3985428009	-0.05548
C	 0.7092677424	 3.7831386184	-0.2284231147	-0.054598
C	 1.2379963172	 2.3668060797	 0.0342921548	-0.14137
C	 0.323566953	 2.3206870554	 1.2142777446	-0.049357
N	-0.1813958562	 3.7222122276	 0.9820078917	-0.159879
H	-1.0993586104	 2.0748053055	-1.8583690251	 0.130909
H	-2.1383174149	 1.9615177537	-0.4155515702	 0.132989
H	-1.3685059206	 4.5012188897	-0.6765560379	 0.112544
H	 1.3024526261	 4.6589319928	-0.460221091	 0.112734
H	 2.2298200051	 1.9687474503	-0.1209733731	 0.122671
H	 0.4157796827	 1.9141870186	 2.2115312961	 0.126767
