18
gdb 95649	2.00727	1.96088	1.20506	2.0472	68.72	-0.2673	0.0134	0.2807	1055.4783	0.148229	-476.233967	-476.225586	-476.224642	-476.267099	31.897	
C	 1.0954266212	 1.3021558134	-0.1068818014	-0.385034
C	 0.0949772121	 0.1593704853	-0.1080741922	 0.098933
O	 0.3311732712	-0.6167414141	-1.3025641238	-0.249271
C	 0.168017478	-1.9786035229	-1.1475767708	 0.003041
O	 1.1382627786	-2.5227675368	-0.2322575453	-0.234895
C	 1.2638631274	-1.8189615108	 0.9141453174	 0.399379
N	 2.1728100812	-1.9980129625	 1.7757313591	-0.559098
C	 0.2115681481	-0.7530408979	 1.1511638835	 0.009795
O	 0.483653138	-0.0204253539	 2.3088481455	-0.438233
H	 2.1163363366	 0.9211996894	-0.0095409496	 0.127587
H	 1.0190007335	 1.8559635225	-1.0462304456	 0.122785
H	 0.8957716009	 1.9754832276	 0.7277335414	 0.139525
H	-0.9278661752	 0.5567117932	-0.1569987542	 0.087343
H	-0.8393917413	-2.2513776966	-0.796947322	 0.106519
H	 0.3727519309	-2.4555768442	-2.1066347075	 0.136956
H	 2.8222424983	-2.7368980539	 1.5096572624	 0.232499
H	-0.7489520273	-1.282410846	 1.2708071401	 0.102293
H	 1.2801320677	-0.4337126319	 2.6861746931	 0.299877
