13
gdb 36574	2.69069	0.94975	0.7341	4.3331	70.51	-0.2918	-0.0487	0.2431	1438.1603	0.086042	-415.55687	-415.547605	-415.546661	-415.592122	31.308	
C	 0.0211122131	-1.1574044596	-0.089030265	-0.394345
C	 0.0530256833	 0.0345811027	 0.0455263297	 0.288577
C	 0.0570752932	 1.4745315068	 0.2206343092	-0.2337
O	 1.3515197617	 1.9834817552	-0.1379350257	-0.232062
C	 1.4260939969	 3.3834799941	-0.0832826082	-0.123223
C	 1.3320954472	 3.904384137	 1.3039307232	 0.290715
N	 1.2074438865	 4.2804377508	 2.38827557	-0.299871
C	 2.6953077034	 3.7993783698	-0.702598889	 0.31132
N	 3.6722121545	 4.1489765047	-1.2062919494	-0.287471
H	-0.0011307382	-2.2129418996	-0.2089675049	 0.216276
H	-0.7110095353	 1.9410168417	-0.4163199964	 0.137153
H	-0.1721058465	 1.7347299311	 1.2640276358	 0.159523
H	 0.6062328103	 3.8490576752	-0.6576735093	 0.167108
