23
gdb 123001	4.52878	0.58113	0.55964	2.4043	83.7	-0.2519	0.086	0.3379	2069.1932	0.202859	-425.40117	-425.390261	-425.389316	-425.438472	38.359	
C	-0.0733989892	 1.4035657189	-0.1881045187	-0.22709
O	-0.0552899235	-0.0008537425	-0.2521889335	-0.230441
C	-1.2956603146	-0.5825631155	 0.0835249894	-0.050987
C	-1.1686630948	-2.0961803343	-0.0211814704	-0.198855
C	-2.4697076665	-2.8156659064	 0.3588586425	-0.266152
C	-2.4098962448	-4.320204649	 0.1537728196	 0.431185
C	-1.4240237541	-5.0952735379	 1.001991602	-0.462546
C	-3.5875753165	-5.0135266693	-0.390686591	-0.23242
O	-2.4617575026	-4.7276826329	-1.2244939438	-0.276132
H	 0.9229145552	 1.7581876793	-0.4636718637	 0.125889
H	-0.8093658147	 1.8370063757	-0.8845214406	 0.101965
H	-0.3108482967	 1.7651808931	 0.825655741	 0.100482
H	-1.5910816853	-0.2902219782	 1.1075953532	 0.07921
H	-2.0880758478	-0.2155237777	-0.5928755501	 0.083679
H	-0.8924035927	-2.3605162447	-1.0476167915	 0.124311
H	-0.3435319778	-2.4150495311	 0.6251070309	 0.10755
H	-2.7210799458	-2.608495133	 1.4080210823	 0.097088
H	-3.2923496979	-2.4198856793	-0.2479830457	 0.101399
H	-1.6377276564	-4.9599780959	 2.0679728622	 0.11855
H	-1.4752566642	-6.1615934662	 0.7694157807	 0.126091
H	-0.3986284553	-4.7595775506	 0.8198289119	 0.13262
H	-3.7468316722	-6.0679787038	-0.1660385654	 0.107732
H	-4.4927204417	-4.4503054286	-0.6167073614	 0.106875
