23
gdb 13624	3.5336	1.18099	1.03034	1.2651	82.38	-0.2193	0.082	0.3014	1272.1917	0.210426	-330.302767	-330.29289	-330.291946	-330.337267	36.294	
C	 0.6867776775	 1.4623835311	-4.1354518133	-0.392962
C	 1.0737241083	 0.318172351	-3.1931363153	-0.163677
C	 0.1431770098	-0.9109598519	-3.2515759587	 0.014111
C	 0.1559251255	-1.5914753826	-4.630017684	-0.399414
C	 0.5530797919	-1.9001283345	-2.1706873739	 0.030667
C	 0.0988503134	-1.753051605	-0.7578648985	-0.264355
N	-0.3391033661	-2.8898619482	-1.5600791139	-0.093327
C	-1.7455305969	-2.9490885883	-1.9260142329	-0.313864
H	 0.7577800101	 1.1720809743	-5.1880621512	 0.118916
H	-0.3409624772	 1.7960061372	-3.951485467	 0.112329
H	 1.3450937171	 2.3246232222	-3.9898419036	 0.11273
H	 2.1018814345	-0.003375928	-3.4095493433	 0.093386
H	 1.0848278789	 0.6922335351	-2.1622409586	 0.09711
H	-0.8763689893	-0.5603075762	-3.0461859909	 0.068074
H	 1.1670958701	-1.9322114316	-4.8832556424	 0.113763
H	-0.5003990111	-2.4664453682	-4.6455562878	 0.119054
H	-0.1760844845	-0.9137808832	-5.4214798171	 0.113946
H	 1.5555088297	-2.3021851159	-2.3301502252	 0.082085
H	 0.7585844392	-1.9756302016	 0.0773581937	 0.109756
H	-0.6292494595	-0.9651742864	-0.5595654162	 0.098773
H	-2.2914110952	-3.4493120883	-1.119218553	 0.121563
H	-2.2240103632	-1.9713501602	-2.0946811948	 0.099575
H	-1.8643399833	-3.5506110508	-2.8331200919	 0.121762
