18
gdb 29742	3.32858	1.23602	0.91163	5.1859	86.7	-0.2151	-0.039	0.1761	1256.075	0.147476	-402.007871	-401.998833	-401.997889	-402.041808	32.482	
C	 0.0279985432	 1.4232851767	 0.0336649769	-0.351978
N	 0.0132609648	-0.0290550652	-0.000411637	-0.108825
C	-0.0201915557	-0.7997841291	-1.1307402523	 0.294404
C	-0.0466616496	-0.2334384488	-2.5132707144	-0.505537
C	-0.0238890738	-2.134358009	-0.7403097328	-0.225411
C	 0.0081762278	-2.1719763273	 0.661075475	-0.192727
C	 0.0312105367	-0.8596035196	 1.1168952207	 0.181727
C	 0.0672827367	-0.380158307	 2.4815996074	 0.062854
O	 0.0831259061	-1.0989343588	 3.4627590618	-0.293391
H	 0.9317666134	 1.7970416823	 0.5240174208	 0.150147
H	 0.0084474997	 1.8068677731	-0.985863439	 0.145511
H	-0.8451043972	 1.8141618669	 0.5645627067	 0.150135
H	 0.8389418781	 0.3740727681	-2.7353308702	 0.136641
H	-0.0721682166	-1.0524469593	-3.2349471941	 0.142261
H	-0.9287479402	 0.3926148584	-2.6939045591	 0.136624
H	-0.0476003252	-2.9743747062	-1.4180216357	 0.101979
H	 0.0148131741	-3.0370722626	 1.3052883654	 0.127651
H	 0.0804525776	 0.7273777375	 2.5974392999	 0.047934
