16
gdb 43138	2.52627	2.02083	1.65379	3.6481	68.51	-0.2185	-0.012	0.2066	874.0783	0.125638	-437.796536	-437.789847	-437.788903	-437.827313	27.147	
O	 0.070038705	 0.0133413068	 0.1223377899	-0.31986
C	 0.0002690183	 1.1984208374	 0.0436136058	 0.420919
C	-1.0790596226	 2.2861258795	-0.0511528158	-0.248264
C	-0.6800164144	 3.0143907866	 1.2935144106	-0.099873
O	 0.8014300448	 2.9940606164	 1.2814183862	-0.343479
C	 0.9777831248	 2.4249303096	 0.002917884	 0.315678
C	 1.9977389781	 2.4001505873	-1.1323970404	-0.275637
N	 0.7703056003	 2.3639168008	-2.0183921883	-0.347894
C	-0.0423546289	 3.0298436834	-0.9563766081	-0.01233
H	-2.1433483185	 2.1280221661	-0.2202879196	 0.09484
H	-1.0146638934	 4.0565201882	 1.3299677991	 0.118176
H	-1.0424636197	 2.4780004949	 2.1737144835	 0.134544
H	 2.5829876017	 3.3241907157	-1.2178880781	 0.114315
H	 2.6460872291	 1.5249572045	-1.2197085794	 0.130602
H	 0.8421525742	 2.8782586368	-2.8879601948	 0.233298
H	-0.1278286789	 4.1181681461	-1.0191513744	 0.084963
