17
gdb 97184	2.78693	1.34349	0.94052	2.5643	73.12	-0.2573	-0.0094	0.2479	1215.7152	0.137324	-455.205198	-455.196827	-455.195882	-455.238652	30.507	
C	-0.1171873765	 1.4327963583	 0.0612874688	-0.349325
N	-0.0936466911	-0.0211425494	 0.0373634891	-0.290408
C	 0.5586375725	-0.6085054929	-0.8793506327	 0.401272
C	 0.6088061953	-2.1099309588	-0.9829920668	-0.299335
C	 1.9600819905	-2.5323722878	-1.5384053084	-0.089314
O	 2.212190553	-1.9043479497	-2.8080066021	-0.235431
C	 1.9993803716	-0.5783662637	-2.9274448609	 0.478463
O	 2.4032614018	 0.0435513596	-3.8723996095	-0.372214
N	 1.2860510118	 0.0235174856	-1.8924124397	-0.428834
H	 0.889888808	 1.8690293959	 0.1447680043	 0.119664
H	-0.593126231	 1.8592431938	-0.835578523	 0.120274
H	-0.6943306388	 1.7679893377	 0.9256791194	 0.134052
H	 0.4238745578	-2.5410296611	 0.001977405	 0.142893
H	-0.1836647107	-2.4543669329	-1.6588468825	 0.138521
H	 2.7706624049	-2.2712247656	-0.8467759789	 0.126654
H	 2.005021279	-3.6041581886	-1.7363145172	 0.135059
H	 1.2040769121	 1.0225611597	-2.006289295	 0.26801
