17
gdb 83318	2.59002	1.6567	1.38332	3.549	67.17	-0.2461	-0.0149	0.2313	973.9657	0.135842	-458.945751	-458.937964	-458.93702	-458.978203	29.656	
O	-0.1585989342	 1.2661880076	-0.5099018446	-0.41731
C	-0.0288092229	-0.0583696569	-0.1074299128	 0.095916
C	-0.391917047	-0.4114335309	 1.3072339664	 0.025774
O	-1.0385039469	 0.6439102009	 1.9786837604	-0.274497
C	-2.4513331447	 0.5529175755	 1.7193310804	-0.096902
C	-2.584138243	-0.1068465034	 0.3331919551	-0.134627
C	-2.8582537285	 0.8979746083	-0.786779363	 0.163585
O	-3.384000623	 1.9670294809	-0.6147607099	-0.259462
C	-1.2772947876	-0.8876360289	 0.1781290651	-0.162454
H	-0.3139822339	 1.7820939371	 0.2956895416	 0.302558
H	 0.8071613358	-0.5677493654	-0.5782808917	 0.107473
H	 0.2090428303	-1.0601198025	 1.9361597518	 0.103888
H	-2.9284354007	-0.0554227533	 2.4980410123	 0.103393
H	-2.8686747561	 1.5615168067	 1.7348172011	 0.141288
H	-3.4302628374	-0.8055733351	 0.3081856839	 0.112609
H	-2.5900875654	 0.5370275476	-1.8022388604	 0.089188
H	-1.3024764149	-1.928265968	-0.1207699359	 0.099581
