18
gdb 77014	2.29615	1.26612	0.97634	1.5744	84.43	-0.2294	0.0296	0.259	1267.313	0.143861	-364.707233	-364.697407	-364.696463	-364.74216	36.138	
C	-0.1327873274	 1.4559393436	 0.6568159607	-0.421184
C	 0.0911425032	 0.0205098212	 0.237669721	 0.003984
C	 0.3893434535	-0.3600851435	-1.1924709483	-0.208481
C	 0.5274968575	 0.6560073656	-2.1982607526	 0.353623
C	 0.6468624036	 1.4877329405	-3.0599569017	-0.469486
N	 1.3931308263	-0.5305530544	-0.1209662547	-0.104166
C	 2.5752946693	 0.337223441	-0.1102327579	-0.322931
C	 3.6939891353	-0.3010598874	-0.7984943553	 0.328635
C	 4.6217913944	-0.8083927828	-1.3678109117	-0.432144
H	 0.2513716466	 1.6297692486	 1.6678519037	 0.125272
H	 0.3343226293	 2.1699005111	-0.0235106013	 0.137364
H	-1.20661188	 1.6679777928	 0.6717752617	 0.127588
H	-0.5113052646	-0.6953358735	 0.7965124614	 0.099445
H	-0.00004616	-1.304700048	-1.5661027938	 0.117561
H	 0.7516748743	 2.2154456864	-3.8262985656	 0.202476
H	 2.4017454635	 1.3243383934	-0.5624133246	 0.13184
H	 2.8416602943	 0.505628994	 0.9404824828	 0.134696
H	 5.439816391	-1.2602509986	-1.8716415037	 0.195909
