21
gdb 110363	4.43781	1.03955	1.0087	1.6286	82.14	-0.2486	0.0889	0.3375	1291.0099	0.18406	-387.047542	-387.039755	-387.038811	-387.079905	31.338	
C	-0.24797238	 1.4525922339	 0.1672347076	-0.371358
C	 0.2287059635	 0.009808877	-0.0372787975	-0.220761
C	 0.897684091	-0.5652169107	 1.1952026771	 0.001708
C	 0.0333266291	-1.2025763834	 2.2580214034	-0.066346
C	 0.929930123	-2.0622650034	 1.3799314613	-0.088193
C	 1.8589938306	-2.6057119893	 2.4895645511	 0.044275
C	 0.8543532517	-3.0512041401	 3.5874723905	-0.216318
C	 0.7086110755	-1.5048281208	 3.6150490834	 0.045243
O	 2.1331331281	-1.4239840367	 3.3027681734	-0.287261
H	 0.589492131	 2.1101755624	 0.4241261445	 0.116886
H	-0.7180129961	 1.8483074134	-0.738534511	 0.109066
H	-0.9774365529	 1.5144181797	 0.9814796919	 0.115998
H	-0.6218040384	-0.6218928874	-0.32492827	 0.089535
H	 0.9333434098	-0.0275913743	-0.8782307422	 0.09793
H	 1.7654356339	-0.0157487425	 1.5460069073	 0.101404
H	-1.0476780057	-1.1984668951	 2.1783775392	 0.084599
H	 0.549322381	-2.7297681788	 0.6156306011	 0.084929
H	 2.749135988	-3.1720846747	 2.2160177242	 0.080567
H	-0.0081014677	-3.6583490895	 3.2993239758	 0.091998
H	 1.3524660617	-3.4405170362	 4.4773256713	 0.105879
H	 0.4157681429	-0.9392557334	 4.4995495979	 0.080222
