21
gdb 110485	3.11085	1.43966	1.27938	0.4028	85.48	-0.2171	0.0171	0.2342	1097.0663	0.184318	-349.929955	-349.922255	-349.921311	-349.96208	31.429	
C	-0.141305435	 1.521720081	 0.0351229201	-0.379463
C	 0.0667803122	 0.0043101601	 0.0858044844	-0.198182
C	 0.6555327572	-0.5627802246	-1.2006577511	 0.047475
C	 0.9023471918	-2.0578343694	-1.3657405555	-0.109159
C	-0.3436118599	-2.82563927	-1.895291689	-0.075795
C	-1.6858489887	-2.1838637365	-1.8046635245	-0.079327
C	-1.6093447338	-0.9283633807	-2.2608647597	-0.092058
C	-0.1677783223	-0.6072554402	-2.5740807296	-0.124412
C	 0.5057037868	-1.9986132979	-2.820421568	-0.076991
H	 0.8000995558	 2.0462195463	-0.1653266481	 0.110225
H	-0.8466455296	 1.7992818254	-0.7560357694	 0.114225
H	-0.5388866468	 1.9030151132	 0.9808289659	 0.109722
H	 0.7487076223	-0.2452526714	 0.9101436599	 0.087879
H	-0.8806863123	-0.4953812633	 0.3124162161	 0.099026
H	 1.5970521157	-0.0485448939	-1.4276903282	 0.072963
H	 1.7049111084	-2.6193436931	-0.9004807669	 0.081001
H	-0.2362912851	-3.9044049	-1.8946048565	 0.080583
H	-2.5609642839	-2.6726041663	-1.3941632918	 0.092572
H	-2.404333704	-0.1926114366	-2.2546000968	 0.092666
H	 0.0171870852	 0.2124624323	-3.26647703	 0.063587
H	 1.0128028261	-2.3501278744	-3.7108468813	 0.083463
