19
gdb 36360	4.02645	0.88329	0.82319	2.8921	81.71	-0.2375	0.0552	0.2927	1436.08	0.159443	-381.978701	-381.969736	-381.968792	-382.013012	33.481	
C	 0.0144771883	-0.8788630215	-0.8626297074	-0.445129
C	-0.0153416538	 0.1938548498	-0.3216471691	 0.299233
C	-0.0197579178	 1.4923936014	 0.3442698374	-0.370229
C	 1.3730947776	 2.1001928201	 0.431989917	-0.002615
N	 1.8741348159	 2.8284363419	-0.7418324634	-0.336577
C	 1.625968232	 3.5661332826	 0.5064563289	-0.06351
C	 0.536364525	 4.5996037142	 0.454030855	-0.001192
C	 0.6544932816	 5.7419646677	-0.4863058441	-0.242842
N	-0.3400094273	 4.6813738937	-0.7214386626	-0.317085
H	 0.0258561696	-1.8229525059	-1.3480679481	 0.194574
H	-0.6939000108	 2.1810725872	-0.173769551	 0.159243
H	-0.4169487401	 1.3790817945	 1.36197079	 0.131903
H	 2.0884977178	 1.4658061866	 0.9523990063	 0.096892
H	 2.8638974317	 2.6588514335	-0.8890303426	 0.239073
H	 2.4919401113	 3.8621118751	 1.0983872182	 0.090373
H	 0.0258457924	 4.7644870398	 1.4014610923	 0.093772
H	 0.2458374542	 6.7129059126	-0.2211863288	 0.116409
H	 1.5295177151	 5.7717554311	-1.1309803056	 0.111947
H	 0.0445894172	 4.0476837156	-1.4230467224	 0.24576
