22
gdb 99786	2.0257	1.27055	0.9552	3.236	78.64	-0.2481	0.073	0.3211	1352.117	0.192366	-441.443142	-441.432652	-441.431708	-441.478797	38.035	
C	-0.7895376675	-0.1536691661	 0.6223382319	-0.237254
O	 0.137549797	-1.023004053	 0.0084769195	-0.262656
C	 0.6410266033	-0.6075359265	-1.255981518	 0.06346
C	 1.7796654073	-1.600077205	-1.5671093631	 0.143275
C	 2.9750704041	-1.4241206756	-0.6286570486	-0.408691
O	 1.2770705015	-2.9281687569	-1.5302889977	-0.443528
C	-0.4213774798	-0.6189346747	-2.3375686839	 0.012624
C	-1.201950305	 0.6029573622	-2.6572300432	-0.254302
N	-0.1761526921	 0.1132069348	-3.5921289416	-0.320005
H	-0.3801950325	 0.862997108	 0.7238705904	 0.105234
H	-1.735217859	-0.0945797486	 0.0693014436	 0.121713
H	-0.9868398714	-0.5537087543	 1.6199729197	 0.129163
H	 1.0546688001	 0.414706968	-1.1766548997	 0.054251
H	 2.0986543361	-1.4347821577	-2.6026486494	 0.091775
H	 3.7266863413	-2.1883259605	-0.8415816833	 0.123186
H	 3.4366108592	-0.438313903	-0.7543140826	 0.10467
H	 2.6590689799	-1.5234537722	 0.4138725077	 0.123607
H	 0.8135202171	-3.0096175324	-0.6872740862	 0.286839
H	-0.8795196513	-1.5930405277	-2.486086172	 0.108735
H	-2.2246359895	 0.5191271795	-3.0141423453	 0.122461
H	-0.9952851683	 1.5062270475	-2.0874698748	 0.108057
H	 0.6654243094	 0.6805308342	-3.5024675634	 0.227387
