16
gdb 14521	3.94456	1.77253	1.49656	1.3809	60.19	-0.2535	0.0672	0.3206	857.7039	0.130192	-420.794597	-420.787547	-420.786603	-420.825748	27.813	
O	 0.809878792	-0.3525306166	 1.3356799161	-0.421712
C	 0.2037530797	 0.0003163699	 0.106709238	-0.132157
C	-1.2077181028	-0.5562099491	 0.0320190817	 0.457206
O	-1.8914194372	-0.0236710261	 1.1306535849	-0.502811
C	-2.0346555821	-0.6600000466	-1.2934250854	-0.031349
C	-1.1685107957	-1.845344904	-1.7655077297	-0.235887
C	-1.5094382596	-2.0613913923	-0.2785116162	-0.016286
O	-2.9115030031	-1.6400448858	-0.5856571504	-0.34325
H	 0.1668943126	-0.1255029833	 2.0183517126	 0.294475
H	 0.1479352416	 1.0937204437	-0.0184660112	 0.097445
H	 0.8425789612	-0.3938353187	-0.6854402221	 0.109969
H	-2.7721141137	-0.4264518129	 1.0948937385	 0.290984
H	-2.5313101119	 0.1206861629	-1.870465146	 0.099726
H	-1.6871106855	-2.526663783	-2.4390033379	 0.119514
H	-0.1325750959	-1.6709048988	-2.0571367686	 0.109516
H	-1.3819132596	-2.9424037792	 0.3501082656	 0.104615
