23
gdb 85904	2.61534	1.35904	1.20961	1.7625	84.46	-0.2532	0.0843	0.3375	1196.4364	0.205084	-388.302317	-388.292993	-388.292048	-388.335599	36.661	
C	 0.0710012794	 1.6056006573	 0.0470852873	-0.404568
C	 0.0262498461	 0.0761373658	 0.0337947351	-0.003211
C	 0.7370557313	-0.5639215171	-1.1877236362	-0.265517
C	 1.2501476257	-1.9652934682	-0.740640178	 0.267868
C	 0.1768353499	-3.047096327	-0.9520938635	-0.429483
C	 2.5541503998	-2.3543693719	-1.448058364	-0.436243
C	 1.4518466552	-1.766662193	 0.7590034166	 0.032011
O	 2.1613657229	-0.5670027174	 1.099141308	-0.278262
C	 0.7271592489	-0.5777928466	 1.2125899075	 0.038729
H	 1.1074452256	 1.9553823532	 0.0916563255	 0.130146
H	-0.3897534868	 2.022167433	-0.8545646604	 0.112828
H	-0.4617430689	 2.0141817314	 0.9125285408	 0.109911
H	-1.0234088679	-0.2489632867	 0.062872615	 0.073081
H	 0.0794315835	-0.6306910546	-2.0594985347	 0.091271
H	 1.5890051936	 0.0606485455	-1.4706402912	 0.106132
H	-0.0112441563	-3.1998852554	-2.0199993206	 0.115254
H	 0.4938905727	-4.0075570958	-0.530191135	 0.111721
H	-0.7721949508	-2.7730390199	-0.4793234519	 0.11362
H	 3.3433608816	-1.6307324822	-1.2236063228	 0.128557
H	 2.8988649713	-3.3445342329	-1.1286687981	 0.106803
H	 2.4176249847	-2.3859799793	-2.5346888615	 0.109762
H	 1.6519292357	-2.6227016661	 1.4017213327	 0.083389
H	 0.3436342328	-0.464781902	 2.2245955693	 0.086201
