15
gdb 50424	2.15937	1.75711	1.09642	4.4973	69.07	-0.2528	-0.0507	0.2022	1067.229	0.112641	-453.98315	-453.975075	-453.974131	-454.016706	28.132	
O	-0.0604825554	-0.1156897978	 0.0955811954	-0.228121
C	-0.0271643347	 1.0839935049	 0.1399775686	 0.156996
C	 1.242924176	 1.9185690368	 0.0381053511	-0.129233
C	 1.4918270134	 2.7795361874	 1.3299322608	-0.192729
N	 2.690727514	 2.2243717426	 1.9683085833	-0.250458
C	 3.1579847184	 1.3332871965	 1.1911238528	 0.095361
N	 2.4521766931	 1.1045652133	 0.0063318777	-0.066155
C	 2.7756549615	 0.1418673047	-0.9282494035	 0.163685
O	 3.756588841	-0.5584189505	-0.8580880356	-0.309079
H	-0.9493242183	 1.694821122	 0.2653089684	 0.097637
H	 1.1501424362	 2.5562304621	-0.8496521699	 0.125093
H	 1.6586974909	 3.8334399858	 1.0868176354	 0.135127
H	 0.6421281741	 2.7379472751	 2.019907593	 0.130999
H	 4.0489810908	 0.7461147347	 1.3722984498	 0.174894
H	 2.046423649	 0.0994508723	-1.7551560773	 0.095985
