23
gdb 106627	2.49107	1.44937	1.25579	0.9332	85.13	-0.24	0.088	0.328	1163.1731	0.206811	-388.279839	-388.270938	-388.269994	-388.313116	34.948	
C	-0.0907175149	 1.3501595727	 0.0255436129	-0.260808
O	 0.1472212817	-0.0419622412	 0.0227163908	-0.30336
C	 0.7197880909	-0.5399892187	-1.1428993414	 0.447382
C	-0.0121310261	-0.5483798186	-2.5271625153	-0.294509
C	 0.9824423882	-1.7146150442	-2.7922473121	-0.042646
C	 2.3363838831	-0.9733102633	-2.804140427	-0.214348
C	 2.1411174199	-0.0711678662	-1.5450602563	-0.278218
C	 0.7957878537	-2.0861688069	-1.2864086755	-0.001086
C	 1.8022344492	-2.9217142095	-0.5108077722	-0.444289
H	 0.8408595665	 1.932577495	-0.0077841999	 0.109219
H	-0.7224870534	 1.6568527761	-0.8208584837	 0.10883
H	-0.6137783111	 1.5825648309	 0.9562282863	 0.12519
H	-1.0486543933	-0.8810248811	-2.4415403373	 0.097877
H	 0.059951883	 0.3370975014	-3.1655681696	 0.082158
H	 0.8023874198	-2.4443165486	-3.5811428565	 0.058823
H	 3.1900742296	-1.6501117528	-2.7118089262	 0.097462
H	 2.473627264	-0.3910791703	-3.7198900347	 0.094022
H	 2.1740880541	 0.9946438193	-1.7861283064	 0.093318
H	 2.8736214433	-0.2587013748	-0.7555500925	 0.099895
H	-0.2104855461	-2.4907150989	-1.1360568483	 0.072371
H	 2.8322026954	-2.5772783891	-0.6380094236	 0.114476
H	 1.5743072192	-2.8950777778	 0.5600760402	 0.125555
H	 1.7634481033	-3.9687719032	-0.8309636217	 0.112687
