17
gdb 29315	3.31586	1.26318	0.92109	1.3388	89.37	-0.1764	0.0129	0.1893	1238.6816	0.135518	-380.883584	-380.87418	-380.873236	-380.917235	35.115	
C	-0.045997209	 1.5270143006	 0.0040149531	-0.518117
C	-0.0143587697	 0.0300192498	 0.0011033492	 0.256216
C	-0.0103076786	-0.8084880804	-1.0972192421	-0.17806
N	 0.0059858637	-2.1003632167	-0.6709035997	-0.341997
C	 0.0222235897	-2.1333231161	 0.7195442856	 0.148142
C	 0.0508054676	-3.3184317619	 1.4673217736	 0.230902
C	 0.0879634393	-4.3271743698	 2.1316992711	-0.456539
C	 0.003298451	-0.8087844488	 1.1515129758	 0.060037
N	-0.0679638731	-0.3747602112	 2.4778150225	-0.622103
H	 0.8588461204	 1.9608091155	 0.4509713204	 0.116153
H	-0.1228779122	 1.9215731185	-1.01308356	 0.121431
H	-0.89911259	 1.9109529683	 0.5763115802	 0.13188
H	-0.0217032125	-0.5670427724	-2.1487274577	 0.117279
H	 0.0081266548	-2.917918202	-1.2533807795	 0.263784
H	 0.1010016729	-5.2145230763	 2.7135778167	 0.181943
H	 0.1747134856	-1.1027764094	 3.1381395547	 0.247069
H	 0.4825705801	 0.4548248422	 2.6581718161	 0.241981
