19
gdb 38232	3.03164	2.07669	1.70811	1.8943	78.8	-0.2402	0.0536	0.2938	863.9936	0.161473	-385.750279	-385.744117	-385.743173	-385.780154	27.915	
C	 0.0183175761	 1.7857219221	-0.0819381184	-0.224711
C	 1.4623189405	 1.445496537	 0.0840596048	 0.045986
O	 1.0141299483	 0.2930779093	 0.9643572819	-0.403491
C	-0.0144816304	 0.2048416667	-0.120938712	 0.401514
C	-1.3748254454	-0.2520200634	-0.6243237202	-0.326406
C	-1.1339630175	 0.3759694291	-2.0852411713	-0.23364
C	 0.429489637	 0.3758598893	-2.3245680153	-0.091961
C	 1.7151513047	 0.833173209	-1.345442413	-0.103256
C	 0.9405353838	-0.3920091841	-1.2000539377	-0.036051
H	-0.4668212883	 2.0836654918	 0.8493178647	 0.100388
H	-0.2861231691	 2.4072430771	-0.9206903273	 0.103285
H	 2.229530907	 2.0549649686	 0.5599671596	 0.08145
H	-1.5069330779	-1.336097986	-0.6857107746	 0.107864
H	-2.2360797996	 0.1914827287	-0.1204922618	 0.107184
H	-1.5564264194	-0.291821028	-2.8437380446	 0.108193
H	-1.6367751518	 1.3403301366	-2.1895696626	 0.111714
H	 0.7610639253	 0.2057060518	-3.3455190649	 0.08447
H	 2.6694759389	 0.891176403	-1.8585786198	 0.085108
H	 1.2615702278	-1.4233597586	-1.0970800776	 0.08236
