21
gdb 41199	2.77743	1.69945	1.50971	2.0288	81.95	-0.2346	0.0554	0.29	989.406	0.185532	-386.986886	-386.979852	-386.978907	-387.017782	30.187	
C	 0.05313031	 1.600532196	-0.2440926133	-0.191814
O	 1.501161149	 1.4394412144	 0.0219877973	-0.361187
C	 1.1234678538	 0.2738128561	 0.8635262721	 0.429625
C	 1.2850341653	-1.27905494	 0.9248369228	-0.321813
C	-0.3330446377	-1.2447020579	 0.9068135551	-0.089732
C	-0.8985192965	-1.0353643094	 2.3101530218	-0.197907
C	-0.4978996452	 0.3549641396	 2.8353719787	-0.196587
C	 0.8971252971	 0.7612547423	 2.3182358438	-0.25425
C	-0.0917755544	 0.0665028514	 0.038855331	-0.015908
H	-0.4008459958	 2.2883152113	 0.4765297239	 0.108029
H	-0.131488411	 1.9387747189	-1.2666235886	 0.11229
H	 1.6754007916	-1.7341021764	 0.0132349881	 0.112688
H	 1.7651825541	-1.7158505243	 1.8069583119	 0.092368
H	-0.8126211783	-2.0761869152	 0.3865159639	 0.077347
H	-1.9896430056	-1.1337107407	 2.3001277989	 0.098474
H	-0.5210805462	-1.829082472	 2.966891515	 0.100064
H	-1.2295366892	 1.082695985	 2.4676552947	 0.104331
H	-0.542533987	 0.3973337573	 3.9282008995	 0.094047
H	 1.6825711989	 0.3341302385	 2.9532344073	 0.094917
H	 1.0181843197	 1.8462736378	 2.3557509673	 0.108726
H	 0.2631774974	-0.3508217526	-0.9093909911	 0.096293
