17
gdb 31257	1.99378	1.67623	0.95185	1.3252	72.88	-0.1912	0.0046	0.1958	1209.9882	0.136863	-455.161378	-455.152466	-455.151521	-455.195643	31.672	
C	-0.2568762911	 1.3561468616	-0.1516772318	-0.323017
N	 0.1228295326	-0.0347222133	 0.0477296344	-0.390192
C	 0.6796672404	-0.7375280246	-1.0005396157	 0.258576
C	 0.7307595006	-2.0925376661	-1.1844514143	 0.182968
C	 0.1844342365	-3.2404595109	-0.4142577526	-0.191271
O	-1.131531304	-2.9617630287	 0.0737656078	-0.410785
O	 1.4408098677	-2.3131558186	-2.3523079174	-0.177362
C	 1.764970776	-1.0858770665	-2.7858479356	 0.063618
N	 1.3454652783	-0.1094717642	-2.0439135101	-0.314618
H	 0.6042142518	 1.9176505123	-0.5178629761	 0.154807
H	-1.0776925824	 1.4912652233	-0.8729598221	 0.107849
H	-0.5636857886	 1.7763902226	 0.8092627992	 0.120404
H	-0.5526841557	-0.5917647789	 0.5532078415	 0.243978
H	 0.2127751839	-4.1463933728	-1.0365556869	 0.115435
H	 0.7691245198	-3.4496816783	 0.4900527604	 0.128266
H	-1.6805701807	-2.76708078	-0.6943606206	 0.284004
H	 2.3349615648	-1.0234828468	-3.69967883	 0.147339
