18
gdb 79842	2.72655	1.74092	1.48321	1.2575	70.87	-0.1942	0.0674	0.2616	955.9071	0.147848	-439.018442	-439.010784	-439.00984	-439.050022	30.519	
C	-0.2054053096	 1.5009860761	-0.0512133301	-0.335538
N	 0.083728095	 0.0726837387	-0.0210291502	-0.072098
C	 0.7212042336	-0.5396577722	-1.1791509544	-0.117091
C	 2.252138203	-0.3337747903	-1.1354400467	-0.00174
O	 2.7611630651	 0.7269246665	-0.3547056814	-0.266718
C	 2.3427373037	 0.483962734	 0.9985906449	-0.09603
C	 1.1612953495	-0.4723388931	 0.8659165394	-0.107346
C	 1.6066396647	-1.3962094422	-0.311132471	 0.322661
O	 1.8017839124	-2.7569021051	-0.3008294368	-0.464006
H	 0.6516334583	 2.1371806599	-0.3147648256	 0.12128
H	-0.9966991392	 1.6746436148	-0.7885387236	 0.120024
H	-0.5944621572	 1.8122076387	 0.9241806676	 0.116322
H	 0.1775421396	-0.7673801915	-2.0908094313	 0.09721
H	 2.8431822062	-0.5688129608	-2.0133699232	 0.10733
H	 3.1563274971	 0.0246525691	 1.5845725463	 0.089267
H	 2.0903863605	 1.4471141612	 1.4528396103	 0.112716
H	 0.8066520555	-0.9203930239	 1.7967075294	 0.084108
H	 2.7326865217	-2.9326089898	-0.1238226137	 0.28965
