17
gdb 120375	2.80556	1.2827	0.95065	3.2846	70.45	-0.2402	-0.01	0.2302	1214.295	0.136684	-455.186391	-455.177786	-455.176842	-455.22053	30.812	
O	-0.2152869981	 1.5282949836	 0.2893361081	-0.414752
C	 0.0711228563	 0.1586547966	 0.0473102862	-0.075865
C	-1.2579079875	-0.5688012713	-0.1076114349	-0.175389
N	-1.9972424619	-0.1564666459	-1.2839963509	-0.099892
C	-2.623484861	 1.0688188566	-1.519837864	 0.071055
N	-3.2268985331	 1.1895753532	-2.6392918736	-0.261253
C	-3.0339060896	-0.0879804718	-3.3304208736	-0.290586
C	-2.2050832675	-0.9718571331	-2.3952209212	 0.389524
O	-1.8010379329	-2.1034783486	-2.5286476249	-0.376391
H	 0.6010191088	 2.0317511089	 0.2234327337	 0.295989
H	 0.6696380899	 0.0254258271	-0.865182192	 0.1088
H	 0.6239933245	-0.2911980783	 0.88634587	 0.09914
H	-1.0843459235	-1.6428750383	-0.2175570428	 0.147557
H	-1.864544284	-0.4018118464	 0.7896759246	 0.127609
H	-2.558257489	 1.8416718246	-0.7638646398	 0.153655
H	-3.9949634015	-0.5622666925	-3.557376421	 0.15105
H	-2.5159324101	 0.0550987656	-4.2851168537	 0.149747
