14
gdb 51395	2.88232	1.33623	1.08561	4.9466	62.64	-0.2657	-0.0191	0.2466	1080.4466	0.100236	-473.822519	-473.814809	-473.813865	-473.85579	27.609	
O	 0.4440039896	 0.1348684788	-0.1953366074	-0.256546
C	 0.5898728063	 1.3034217786	-0.3687559708	 0.175606
O	 0.9552217309	 2.1398321739	 0.6416635872	-0.196164
C	 0.9814174565	 3.5172114769	 0.3597604877	 0.091049
C	 2.1098393599	 4.3409960664	 0.8707271014	-0.04409
N	 3.3818456694	 3.6216634943	 0.8244523566	-0.334013
C	 3.2569258685	 3.3575531929	-0.5529117416	 0.438502
O	 3.9320034813	 2.7328854606	-1.3150733013	-0.326379
C	 1.9486420011	 4.1435938646	-0.6409143282	-0.298511
H	 0.4580867378	 1.8293510127	-1.3306743517	 0.100041
H	-0.002233195	 3.9822064929	 0.3878738329	 0.129649
H	 1.9985695116	 5.2416463579	 1.4591824762	 0.129526
H	 3.6251571837	 2.8958140275	 1.4897684875	 0.259612
H	 1.6313638685	 4.826709502	-1.4158948283	 0.131719
