15
gdb 6003	2.67004	1.76365	1.52345	4.119	61.84	-0.2625	-0.0415	0.221	911.9746	0.114811	-399.825859	-399.816594	-399.815649	-399.860374	32.256	
C	 0.0242219891	 1.4497652327	-0.3225782891	-0.482883
C	 0.0643019932	-0.010021838	 0.0631212467	 0.352599
O	 1.0598884618	-0.5843493305	 0.4209651213	-0.285056
C	-1.2978187198	-0.7832227349	 0.03329368	 0.11528
C	-1.7156635353	-1.0412446842	 1.4900448231	-0.394341
O	-2.3448949798	-0.0408711489	-0.5709811823	-0.438875
C	-1.098402941	-2.0574550404	-0.6839826888	 0.25939
N	-0.9791209667	-3.0266902628	-1.3016247891	-0.327529
H	 0.99478202	 1.9008304092	-0.1151508883	 0.151583
H	-0.2029629013	 1.5492554294	-1.3901926089	 0.14438
H	-0.7730794728	 1.9741260966	 0.2111979489	 0.15799
H	-1.884914783	-0.0824529157	 1.9876452695	 0.137412
H	-2.6439800569	-1.6151643792	 1.5084125926	 0.149248
H	-0.929406476	-1.5879129653	 2.0120321458	 0.160963
H	-2.2474335217	-0.0780306179	-1.5290816014	 0.299839
