21
gdb 106622	2.63113	1.43018	1.26522	2.6782	78.18	-0.2309	0.0698	0.3007	1125.6896	0.182692	-424.210314	-424.201588	-424.200644	-424.243383	34.022	
C	-0.0026326162	 1.5310138116	 0.0419706246	-0.382295
C	 0.0704572997	 0.0005215492	-0.0011116833	-0.292055
C	 0.6552915234	-0.5361022654	-1.2819082875	 0.44138
C	 0.0418562118	-0.3829174362	-2.7053874157	-0.288209
C	 1.1095056685	-1.4695848299	-3.0333735811	-0.145905
C	 2.395431829	-0.7059673451	-2.7006968265	-0.067266
O	 2.001518302	-0.0562020949	-1.4736445129	-0.313893
C	 0.7765599848	-2.0455402389	-1.615556881	 0.095677
O	 1.7417635863	-2.7520851808	-0.8866420316	-0.436445
H	 0.990551125	 1.9661549897	-0.0923882181	 0.138534
H	-0.6505405732	 1.9207190095	-0.7504970583	 0.111298
H	-0.4040811702	 1.8748591477	 0.9998419834	 0.107817
H	 0.6854539366	-0.369444293	 0.8277254655	 0.117961
H	-0.9291025034	-0.4315449217	 0.128519626	 0.091802
H	-0.9855347872	-0.7427617382	-2.786971076	 0.098529
H	 0.1541178442	 0.593172612	-3.1800763842	 0.105507
H	 1.0883111068	-2.0709400337	-3.9419509482	 0.065185
H	 3.2476872205	-1.3671815517	-2.5123356295	 0.103634
H	 2.6669490676	 0.0412603739	-3.4552742918	 0.093571
H	-0.2021307834	-2.5404754703	-1.6004758533	 0.069315
H	 1.7143076874	-3.6749527437	-1.1567956705	 0.285857
