18
gdb 106262	3.05415	1.27491	1.08033	2.9044	73.14	-0.2478	-0.0034	0.2444	1167.4825	0.146172	-439.028616	-439.019589	-439.018645	-439.062529	33.23	
C	-0.0058602189	 1.4848564566	-0.1873092748	-0.517978
C	-0.0098950019	-0.005905118	-0.0551720449	 0.175679
C	 0.3321209641	-1.113583999	-1.1133156708	-0.308223
C	 0.12889752	-1.8891137898	 0.2289689194	 0.171724
C	 0.2580271234	-3.3515952028	 0.5508030314	-0.213817
O	-0.7603706831	-4.094906162	-0.0988224932	-0.413737
N	 0.8593088386	-0.7643600912	 0.9694507467	-0.394252
C	-1.1080039511	-0.9890261852	 0.397506693	 0.462099
O	-2.267400969	-1.0535915577	 0.6624051132	-0.34006
H	 0.9620800555	 1.8528236486	-0.5428446338	 0.126681
H	-0.7728104387	 1.8041700545	-0.8997129951	 0.138924
H	-0.2185601644	 1.9515705864	 0.7787127903	 0.146232
H	-0.3540130552	-1.2938812655	-1.9462933843	 0.119564
H	 1.3763783122	-1.0862415782	-1.441094478	 0.106043
H	 1.2111501447	-3.7564872392	 0.1938612058	 0.115474
H	 0.2345967987	-3.4759124195	 1.6441922662	 0.112676
H	-1.6071633175	-3.7805322127	 0.2384018637	 0.30152
H	 1.8217845926	-0.7430936852	 0.6120511653	 0.211451
