19
gdb 83838	2.28464	1.83141	1.25216	3.45	75.4	-0.2187	0.0056	0.2242	1049.2994	0.161442	-419.206723	-419.198595	-419.197651	-419.239326	31.289	
C	-0.3875464378	 1.3602480128	 0.3257817032	-0.411791
C	-0.038175768	-0.0721971913	 0.005900575	-0.013888
C	 0.6231074342	-0.5296260589	-1.2707282847	-0.050302
C	 1.2365809263	 0.3687043491	-2.3297776641	-0.21299
N	 2.6937464658	 0.1714241735	-2.3744194164	-0.284848
C	 3.3175571621	 0.4978209861	-1.0869415486	-0.265525
C	 2.4340570658	 0.3303318116	 0.161726839	 0.351629
O	 2.6827098077	 0.8900082008	 1.2064117178	-0.350636
N	 1.3502457096	-0.5283626576	-0.0019807726	-0.095031
H	 0.2332582333	 2.0777863705	-0.2147593531	 0.128817
H	-1.4356391916	 1.5514123302	 0.0750714242	 0.122799
H	-0.2463867528	 1.5506458636	 1.3935133478	 0.153323
H	-0.709641324	-0.7985096094	 0.4616504678	 0.103406
H	 0.3646234658	-1.5295311328	-1.6209770804	 0.095538
H	 0.8161683983	 0.150456855	-3.3152955801	 0.114085
H	 1.0461906792	 1.4275234442	-2.1240340634	 0.119087
H	 2.8802389602	-0.7992983864	-2.6045844024	 0.22253
H	 4.2261330864	-0.0988200211	-0.9568084862	 0.13525
H	 3.6347870295	 1.54784351	-1.0755143926	 0.138546
