14
gdb 129996	5.21091	1.28693	1.0387	14.0597	73.41	-0.1901	-0.0579	0.1322	1057.5401	0.103025	-429.007171	-428.999884	-428.99894	-429.038798	27.55	
N	-0.0002482268	 1.3015149442	 0.0073401068	-0.569806
C	 0.0029413577	-0.0371559152	 0.0000123368	 0.478876
N	-1.0752545785	-0.7974790039	 0.0022923826	-0.370752
H	-2.0256171275	-0.4528417896	 0.009822402	 0.285284
C	-0.6989846741	-2.1717693604	-0.0073260998	 0.315834
C	 0.6691205854	-2.2712476975	-0.0159859391	 0.271965
C	 1.2697082064	-0.8954808865	-0.0120422256	-0.476205
N	 0.9650135672	-3.5772506223	-0.0245671599	-0.326448
N	-0.2250120431	-4.2172641958	-0.0222286403	-0.169654
N	-1.2803551353	-3.3625367061	-0.010085661	-0.34321
H	 0.8718649575	 1.8011720719	 0.0050411804	 0.296849
H	-0.8489642828	 1.8423677794	 0.0153687871	 0.285325
H	 1.8677157514	-0.6378830165	-0.8964354217	 0.16097
H	 1.8780024125	-0.6474694216	 0.8680644519	 0.160972
