19
gdb 51655	3.65287	0.99654	0.98818	4.0857	76.42	-0.2752	0.0097	0.2849	1278.3637	0.16035	-423.052402	-423.044341	-423.043397	-423.085933	30.474	
O	 1.0511751158	 0.0571653614	 0.4860513286	-0.27876
C	 0.6375685982	 1.1361408395	 0.1836536764	 0.167357
O	 1.3448873758	 2.2652423367	 0.3580504816	-0.181448
C	 0.7463709384	 3.5253012712	-0.0175638283	 0.070594
C	 0.5683607448	 4.4143160969	 1.2324292969	-0.226995
C	 1.8240197989	 5.2711002198	 1.3095274967	-0.029008
C	 3.1588993527	 4.5758355034	 1.1934072944	-0.288533
C	 2.5283927501	 5.1966238338	-0.0294969954	-0.028619
C	 1.7138863745	 4.2927885532	-0.9437667548	-0.227578
H	-0.3571150353	 1.3197135503	-0.2694850616	 0.074223
H	-0.2091782638	 3.3108799234	-0.5082998456	 0.08732
H	-0.3094336345	 5.0566031842	 1.0942088791	 0.105212
H	 0.3901506525	 3.7996722003	 2.1201261895	 0.115883
H	 1.7716304681	 6.2010793592	 1.8641132409	 0.083671
H	 4.0151864569	 5.0907314215	 1.6153028464	 0.109713
H	 3.19938696	 3.4958698794	 1.2739383398	 0.140675
H	 2.9965868077	 6.071484821	-0.4660400996	 0.083558
H	 2.3137367884	 3.5940204921	-1.5345275379	 0.117511
H	 1.1318752007	 4.9033840426	-1.643984857	 0.105224
