19
gdb 100567	3.15813	0.90554	0.77995	1.284	77.42	-0.243	-0.0238	0.2192	1477.526	0.155084	-423.002977	-422.992225	-422.99128	-423.039742	37.771	
C	 0.4150119758	 1.2326568198	-0.5675962598	-0.403229
C	-0.0055282029	-0.1819813398	-0.1218986884	-0.085571
C	-1.5201842187	-0.3006120742	 0.0434490855	-0.081655
O	-1.9079115769	 0.6120775148	 1.0615137951	-0.428043
C	 0.5180274411	-1.2583055083	-1.0611542619	 0.374211
O	-0.2071262523	-2.0165639421	-1.657643731	-0.298074
C	 2.0553178982	-1.3724055324	-1.2172271268	-0.422302
C	 2.5291998643	-0.6345998652	-2.3803697054	 0.315813
C	 2.899145163	-0.0206954948	-3.3449520118	-0.458605
H	 1.5007465585	 1.3478366814	-0.6020664966	 0.126321
H	 0.0232108407	 1.4567716378	-1.564874421	 0.128103
H	 0.0059920031	 1.9600776655	 0.1359699787	 0.144356
H	 0.4537366285	-0.370853452	 0.8604750862	 0.103724
H	-2.0116935522	-0.0742829055	-0.9140789372	 0.10044
H	-1.7831570341	-1.3340178584	 0.3065407633	 0.100584
H	-2.8655834884	 0.5839483672	 1.1387205063	 0.289585
H	 2.5592397774	-1.0136141044	-0.3125522389	 0.136148
H	 2.280353787	-2.4379046445	-1.3335243289	 0.155279
H	 3.2340921979	 0.5144484053	-4.1986943471	 0.202915
