16
gdb 126070	3.8375	1.05122	1.02855	2.8742	70.58	-0.2557	-0.0177	0.2379	1200.2045	0.124289	-437.858522	-437.85072	-437.849776	-437.891639	28.56	
C	-0.1017498596	 1.5139573566	-0.2138575413	-0.42789
C	-0.0411288969	 0.0314002929	 0.0314540731	 0.090905
O	 1.2350614456	-0.6095896457	-0.0730053577	-0.254287
C	 0.60442974	-0.5944931547	 1.2098826301	-0.105691
C	 1.2969751658	 0.1609723902	 2.2719750785	 0.150795
C	 2.4625065959	 0.8600878854	 2.1963284305	 0.000613
O	 2.7778904334	 1.3863839871	 3.3878161912	-0.162586
N	 1.8007597052	 1.0340798692	 4.3118541937	-0.128968
C	 0.9379536121	 0.3105233435	 3.6438999362	-0.055723
H	 0.6610255239	 2.0475666232	 0.3570807317	 0.131282
H	 0.0480457247	 1.7272112906	-1.2771468664	 0.13446
H	-1.0853796224	 1.9024034684	 0.0708049489	 0.127079
H	-0.8472060926	-0.5445594201	-0.4279519307	 0.096014
H	 0.2105531489	-1.5625070588	 1.5255386606	 0.101482
H	 3.1529155987	 1.0419886357	 1.3888110952	 0.167621
H	 0.0759728174	-0.0868764234	 4.1617515364	 0.134894
