19
gdb 65325	2.96834	1.08409	1.02841	5.1829	80.35	-0.2668	0.0169	0.2838	1258.9763	0.15894	-382.047765	-382.038685	-382.037741	-382.081923	33.789	
C	 0.4705545454	 1.3592530481	-0.9576766875	-0.442622
C	 0.0310286585	 0.1039090214	-0.2320497205	 0.299732
N	 1.0168841749	-0.9887562785	-0.2557401933	-0.348508
C	 0.7383869255	-0.3058959894	 1.0281397866	-0.247412
C	 1.8033210901	 0.4859237411	 1.5961303917	 0.332676
N	 2.631733663	 1.1347174717	 2.0753983027	-0.338871
C	-1.42803052	-0.2204019772	-0.3986055367	-0.053892
C	-2.2175642188	-1.1190345188	 0.5209382323	-0.296154
C	-2.4815472327	 0.3658047278	 0.5086561259	-0.25964
H	 1.5402884507	 1.5337996027	-0.8308332576	 0.150133
H	 0.2653104808	 1.2602604144	-2.0287593317	 0.123531
H	-0.0762315649	 2.2309559495	-0.5854159937	 0.129135
H	 0.538141781	-1.8878696639	-0.2439825636	 0.241049
H	 0.1687861615	-0.844681367	 1.7788054262	 0.123721
H	-1.7060790818	-0.2835098825	-1.4485399843	 0.098478
H	-2.9482095647	-1.7772932691	 0.064619464	 0.122126
H	-1.7440219976	-1.541918948	 1.400118196	 0.11973
H	-2.1391040916	 0.9376871693	 1.3645408868	 0.124427
H	-3.4026299492	 0.7291897884	 0.0675478666	 0.12236
