21
gdb 119926	2.53051	0.95357	0.8628	1.0167	85.63	-0.2465	0.0379	0.2845	1486.2839	0.179546	-387.046527	-387.035955	-387.035011	-387.082839	38.264	
C	-0.1482406511	 1.5254178557	 0.0487387841	-0.382101
C	-0.1982630528	 0.0106980941	-0.1648111238	-0.16005
C	 0.9367141447	-0.5020194334	-1.0617347623	-0.189834
C	 0.8962019034	-2.0041382044	-1.2312786317	-0.065286
C	 0.0283594377	-2.6382204228	-2.2814906958	 0.109321
O	-0.7045753373	-1.827251072	-3.1423234418	-0.422595
C	 1.5482184565	-2.7042565948	-2.4334835064	-0.286461
C	 2.1294054186	-1.9557719847	-3.5047299397	 0.302248
C	 2.5502508403	-1.3354122429	-4.4483240615	-0.445342
H	 0.7914056264	 1.8296403593	 0.5239160427	 0.111138
H	-0.2241503543	 2.0613681391	-0.9038945787	 0.11579
H	-0.9691257744	 1.8657178817	 0.6876872923	 0.110226
H	-0.1547452749	-0.4986468644	 0.8072712913	 0.088656
H	-1.1560673927	-0.2700471272	-0.6182829879	 0.114275
H	 0.868312976	-0.0217171146	-2.0421678432	 0.107584
H	 1.9070292806	-0.2100175008	-0.6389235587	 0.094133
H	 0.9888189678	-2.5688174344	-0.3061575736	 0.09041
H	-0.4766595407	-3.5722075575	-2.0445279983	 0.099568
H	-0.1747355551	-1.6690214592	-3.9346977364	 0.292218
H	 2.015043025	-3.6649018604	-2.2382840944	 0.115413
H	 2.9646604364	-0.7845481963	-5.2561467863	 0.20069
