19
gdb 119726	3.17119	0.97861	0.89385	0.6229	71.46	-0.2348	0.059	0.2937	1358.4652	0.158063	-460.104965	-460.095807	-460.094863	-460.139347	33.788	
O	 0.0013199559	 1.3538558621	-0.0536005148	-0.4204
C	-0.001962593	-0.0501914503	 0.1508858817	-0.074755
C	-1.4051322248	-0.5555650465	-0.1818023947	-0.300006
C	-1.5305325421	-2.0347570291	-0.0100201946	 0.398448
O	-0.7426979296	-2.8785537624	-0.8821184498	-0.34414
C	-1.8657958035	-3.7988851574	-1.0337819018	-0.105231
C	-2.6880261718	-3.0353734076	-0.0089747167	-0.246641
C	-1.8201431168	-2.8262173004	 1.2237864092	 0.083572
O	-0.9325282711	-3.7843778972	 1.7056933029	-0.439465
H	 0.8940202021	 1.6774664281	 0.0974444797	 0.287156
H	 0.7298068308	-0.5551790131	-0.4969882626	 0.105915
H	 0.2451260033	-0.3066274995	 1.1934041337	 0.093104
H	-2.1289590022	-0.0551511788	 0.4710694134	 0.114487
H	-1.6463072201	-0.2739897119	-1.2132616596	 0.115821
H	-2.2589985995	-3.7471294052	-2.0537528526	 0.116507
H	-1.590103125	-4.8304346763	-0.7883255496	 0.113168
H	-3.7593570454	-2.8835846889	-0.0274776547	 0.100667
H	-2.3147323853	-2.2869097179	 2.0269780444	 0.107528
H	-0.2263379118	-3.8422162076	 1.0471616763	 0.294265
