14
gdb 21052	3.99142	1.77312	1.23731	2.1136	60.45	-0.2063	0.0472	0.2535	914.8855	0.107563	-415.878834	-415.871012	-415.870068	-415.911347	28.083	
C	 0.0282923194	 1.3861353959	-0.0875319337	-0.325116
N	 0.058768952	-0.0523693578	 0.0132116718	-0.023328
N	 0.1248832459	-0.8271072293	-1.1197852028	-0.395218
C	 0.1349989167	-2.0661801917	-0.6603859301	 0.462647
O	 0.1952414626	-3.1258285335	-1.4935182367	-0.430238
C	 0.0778965046	-2.1456424226	 0.7478996384	-0.491704
C	 0.0297719768	-0.8158955888	 1.1245160827	 0.480249
O	-0.0355486889	-0.2094534796	 2.3307294394	-0.434591
H	 0.9309505711	 1.752328865	-0.5859738542	 0.141878
H	-0.8455575321	 1.7094444224	-0.6613290565	 0.141887
H	-0.0244428726	 1.8040073178	 0.9180875741	 0.154153
H	 0.2248708068	-2.7705833676	-2.3911776154	 0.300859
H	 0.0703636914	-3.021026635	 1.3743412994	 0.104602
H	-0.0480835738	-0.8867834851	 3.0136978437	 0.313922
