15
gdb 12609	3.098	2.2388	1.33174	1.4483	62.84	-0.2576	-0.0157	0.2419	876.9641	0.119601	-399.892913	-399.885193	-399.884249	-399.926076	26.803	
C	-0.0100093604	 1.4708430236	 0.0039441317	-0.348812
N	 0.0073906487	 0.0192388403	 0.0041653781	-0.127992
C	 0.0841303207	-0.7299366793	-1.1656144952	 0.407607
O	 0.1425098172	-0.255001967	-2.272777013	-0.353997
C	 0.0793743569	-2.2054473006	-0.776228687	-0.345514
C	-0.0093199358	-2.2151043253	 0.7569790764	-0.34381
C	-0.0506982252	-0.7458551294	 1.1673737347	 0.412701
O	-0.120687777	-0.295827304	 2.2841345574	-0.353554
H	 0.8996634002	 1.859610848	-0.4605490111	 0.149703
H	-0.8697063568	 1.8384512173	-0.5619169507	 0.149686
H	-0.0734338198	 1.7981192842	 1.0418498215	 0.164218
H	-0.7658521503	-2.6956626091	-1.2659629766	 0.147228
H	 0.9870480496	-2.6744937786	-1.1644110659	 0.14723
H	-0.9049850413	-2.7106398659	 1.1401851337	 0.147653
H	 0.8476740433	-2.6896559343	 1.241722016	 0.147652
