17
gdb 96784	1.98602	1.82447	0.96224	5.4011	82.04	-0.2293	-0.0392	0.1902	1193.0007	0.135783	-418.041287	-418.032621	-418.031677	-418.075234	30.817	
C	 0.0555678674	 1.4784411763	 0.0513062189	-0.328536
N	-0.010561697	 0.0364645156	 0.0838325744	-0.275645
C	-1.1232523618	-0.5629159541	 0.0205410134	 0.387637
C	-2.5168489885	-0.0737594885	-0.091682051	-0.154256
C	-3.3694967194	-1.0983282855	-0.125464044	-0.091339
C	-2.637681413	-2.402987453	-0.0398566947	-0.226234
N	-1.2394109186	-1.9835536959	 0.049539832	-0.139627
C	-0.2322316002	-2.9232630637	 0.145073236	 0.157992
O	 0.9511417332	-2.722127834	 0.2226646801	-0.281449
H	 0.6839330126	 1.7882089209	-0.7922918579	 0.133431
H	-0.9067233959	 2.004578396	-0.03150084	 0.094409
H	 0.5584701596	 1.8331001739	 0.9588155103	 0.133449
H	-2.774946408	 0.9733141706	-0.1371673871	 0.127009
H	-4.4473756704	-1.0457774659	-0.2039164094	 0.12384
H	-2.9426107599	-2.9872022556	 0.8398357233	 0.136282
H	-2.8166531908	-3.0322543645	-0.9231466974	 0.136324
H	-0.6688380793	-3.9452660427	 0.1414088832	 0.066714
