18
gdb 83694	2.30276	1.81525	1.48991	1.331	71.39	-0.2249	-0.0596	0.1653	965.7746	0.147888	-439.034368	-439.02635	-439.025405	-439.067629	30.321	
O	 0.794807936	 0.8012403379	 0.4406751998	-0.427645
C	 0.1464811567	-0.3665567243	 0.0455075385	 0.104453
C	-1.4017843681	-0.3896396076	-0.059400391	 0.009387
C	-2.1124763684	 0.9141124048	-0.4713936786	-0.258058
C	-2.0733553704	 0.377920844	-1.9260685769	-0.171037
N	-1.339387193	-0.8688283369	-1.5037435584	-0.161217
C	 0.1785467134	-0.7908327779	-1.4760288167	-0.104605
C	 0.8382986616	 0.1780917064	-2.4180796454	 0.143246
O	 0.8006390685	 1.3831627863	-2.2720159208	-0.269304
H	 0.7373848693	 1.4336666934	-0.2908735209	 0.302625
H	 0.5256721161	-1.1684950507	 0.684978652	 0.100439
H	-1.924765593	-1.0358902096	 0.650768935	 0.07669
H	-3.1084782409	 1.0512131825	-0.0472659127	 0.108864
H	-1.5295948927	 1.8196558142	-0.2892070009	 0.114389
H	-3.0504921001	 0.0987535945	-2.3304096555	 0.112747
H	-1.5648892863	 1.0073497962	-2.6579791138	 0.122625
H	 0.5914786427	-1.7897409855	-1.6476818755	 0.089559
H	 1.3734951785	-0.2565607676	-3.2878112684	 0.106842
