18
gdb 66206	2.26961	1.48869	1.38608	3.2096	76.34	-0.2562	0.0112	0.2674	1054.8907	0.148429	-401.978313	-401.969957	-401.969012	-402.010936	32.256	
O	-0.0749336676	 1.4043145297	 0.0086050162	-0.452706
C	 0.0269282925	-0.0123523462	 0.020512865	 0.218651
C	-1.4103908276	-0.5549081006	 0.0568664816	-0.221786
C	-1.444772463	-2.0883189952	 0.0863348059	-0.278284
C	-0.4659967853	-2.6975083258	-0.8816904392	-0.034174
C	 0.5099929309	-2.0101377018	-1.4721594935	-0.054827
C	 0.755794789	-0.542173867	-1.234237087	-0.298966
C	 0.7592922845	-0.4359901196	 1.2401018796	 0.255607
N	 1.3457630349	-0.7335493927	 2.1907141189	-0.345022
H	 0.8147235439	 1.7761626757	-0.0016565049	 0.289766
H	-1.9316448071	-0.126473084	 0.9166429306	 0.123731
H	-1.9019873828	-0.1789753746	-0.8466127738	 0.119113
H	-1.2303249243	-2.4537643072	 1.100354808	 0.135239
H	-2.4607801149	-2.4319688097	-0.1411543937	 0.113319
H	-0.5731698943	-3.7597169075	-1.0852654528	 0.094711
H	 1.1851483493	-2.5069078765	-2.1633423542	 0.094724
H	 0.3978026061	 0.0587448768	-2.0807777452	 0.126313
H	 1.8318460958	-0.3458549438	-1.1486342417	 0.114592
