16
gdb 34143	2.85303	1.69739	1.35944	0.3849	75.66	-0.2379	0.022	0.2599	962.0059	0.125335	-400.643819	-400.636901	-400.635957	-400.675037	27.924	
C	-0.0244689437	-1.1712342255	 0.0704903031	-0.365545
C	-0.023205176	 0.0318609959	 0.0618381196	 0.046029
C	-0.0252107214	 1.4603527067	 0.0195541549	 0.24724
N	-0.6320843484	 2.3459773099	 1.0876887194	-0.363899
C	-0.0859816472	 3.3105862064	 0.0675392955	-0.094723
C	 1.2017674839	 2.441067824	-0.0513684997	-0.079517
C	 1.6439288889	 2.4836669073	-1.5034121023	-0.117527
O	 0.3698113209	 2.4723163052	-2.1877178898	-0.271947
C	-0.5391129657	 2.4187397476	-1.1239368402	 0.083897
H	-0.026173094	-2.2331797872	 0.0835052594	 0.184522
H	-1.6542483356	 2.3071162369	 1.011381597	 0.212749
H	-0.1560778356	 4.3909387559	 0.1864749246	 0.089013
H	 1.9322305065	 2.4330236825	 0.7546962309	 0.099026
H	 2.1977533183	 3.3928086856	-1.7645443393	 0.112307
H	 2.2317958339	 1.6088670884	-1.8035238768	 0.120384
H	-1.5735277147	 2.3815990904	-1.4657280263	 0.097991
