13
gdb 25373	6.49944	0.90019	0.79068	5.512	84.8	-0.2394	-0.0723	0.167	1327.1187	0.089331	-415.62417	-415.616472	-415.615528	-415.656628	28.066	
O	-0.1816273157	 0.0585447739	-0.0008744333	-0.244299
C	 0.0052679376	 1.2495723292	 0.0071127832	 0.0815
C	 1.31716786	 1.9025902023	-0.001895196	 0.255448
N	 2.5163932291	 1.3329448795	-0.0199908905	-0.260122
C	 3.4084356554	 2.3484612193	-0.0213008678	-0.168308
C	 2.7617267361	 3.5836174718	-0.0037012363	 0.17762
N	 1.4257840666	 3.2682972913	 0.0084875305	-0.350612
C	 3.2469159712	 4.9031883896	 0.0020519401	 0.237091
C	 3.6655695761	 6.0327163779	 0.006943248	-0.410328
H	-0.8437814212	 1.9738660528	 0.0229671538	 0.062651
H	 4.474471685	 2.1795730651	-0.0345509546	 0.132986
H	 0.6708049843	 3.9361473836	 0.0225970388	 0.281559
H	 4.0422033655	 7.0258286838	 0.011144894	 0.204815
