23
gdb 85859	2.08423	1.52068	1.22138	1.5059	85.18	-0.2509	0.0765	0.3274	1185.9785	0.20418	-388.273604	-388.263874	-388.26293	-388.307413	38.284	
C	-0.682182986	 1.4432524838	 0.155304325	-0.447875
C	-0.0912867407	 0.0466359206	-0.0168155853	 0.249801
C	-1.1557216561	-0.9342921319	-0.5209658689	-0.431864
C	 1.2293530446	-0.0317956718	-0.8549915556	-0.312721
C	 1.8652656929	-0.9312675153	 0.2409614178	 0.086099
O	 3.1927651171	-0.6933138241	 0.6430522974	-0.434982
C	 0.71478064	-0.5279163966	 1.1766957263	 0.30297
C	 0.9333921615	 0.1101562282	 2.520302332	-0.337878
C	 0.2378020126	-1.2270268	 2.4110292827	-0.334713
H	 0.0689062205	 2.1571134868	 0.5077280542	 0.107716
H	-1.0785025505	 1.8154365667	-0.7965256107	 0.112802
H	-1.5092368532	 1.4427802314	 0.8756733965	 0.110541
H	-1.5646417027	-0.602615096	-1.48225387	 0.109694
H	-0.7460150451	-1.9398003071	-0.6596878934	 0.114964
H	-1.9882676415	-1.0113820216	 0.1873149437	 0.11068
H	 1.1586119339	-0.4427640072	-1.8654907442	 0.097005
H	 1.7363033664	 0.9378923265	-0.9059186647	 0.08725
H	 1.8337208557	-1.9929773363	-0.0229195015	 0.089285
H	 3.2608918606	 0.2378090671	 0.8816481431	 0.275744
H	 1.9471242494	 0.1177312785	 2.9099175913	 0.111341
H	 0.3393598896	 0.9765548567	 2.7916807132	 0.111246
H	-0.8305329213	-1.2584308629	 2.603139466	 0.108482
H	 0.7762662126	-2.1119010056	 2.7367857949	 0.114413
