19
gdb 112295	2.99802	1.26936	0.99121	5.0651	75.76	-0.2524	0.0333	0.2857	1226.6928	0.16073	-419.231458	-419.223051	-419.222107	-419.264758	31.78	
C	-0.0810207262	 1.6115301315	 0.0371878427	-0.392539
C	-0.1314909376	 0.0814088763	-0.0130858262	-0.179198
C	 0.6870918893	-0.5196981297	-1.1619290051	 0.024925
N	 2.1199117472	-0.3015569107	-1.057823751	-0.329784
C	 2.8961028154	-1.4105347937	-1.3023361543	 0.40486
O	 4.0965652222	-1.4496928685	-1.3675813482	-0.366753
N	 2.0213163191	-2.5531466678	-1.4723776829	-0.154445
C	 1.3064838015	-2.8582171097	-0.2076658644	-0.251339
C	 0.651463154	-2.0465715367	-1.2590450743	-0.043069
H	 0.9344166225	 1.974820899	 0.2293453194	 0.117583
H	-0.4230547925	 2.0525838729	-0.9057559828	 0.120297
H	-0.7196088615	 1.9987682429	 0.8361687749	 0.124623
H	 0.2218272069	-0.3380638742	 0.9352135676	 0.104443
H	-1.1708270889	-0.2471768827	-0.1377389536	 0.105588
H	 0.303542468	-0.106819617	-2.1086161116	 0.08637
H	 2.5472879632	 0.6092125625	-1.0348607214	 0.257401
H	 1.0342854482	-3.9019252165	-0.0874529062	 0.131266
H	 1.6583692187	-2.3666665701	 0.6948728944	 0.134094
H	-0.1228615593	-2.4909234277	-1.8754378369	 0.105677
