20
gdb 79263	2.36648	2.04506	1.55152	2.3189	76.35	-0.234	0.0649	0.2989	950.4425	0.173068	-403.146328	-403.138774	-403.137829	-403.177652	31.366	
C	-0.1194911685	 1.5473011032	-0.0035804659	-0.421163
C	 0.0426212629	 0.0355364244	 0.0341666853	 0.062738
N	 0.8834973273	-0.4825410816	-1.0756778115	-0.134281
C	 2.261369579	-0.5857418924	-0.5146884258	-0.035556
C	 2.2582247812	-0.118562872	 0.9322471908	-0.302003
C	 0.8068829969	-0.5649304487	 1.2385924764	 0.363544
O	 0.240971655	-0.2343583563	 2.4742093722	-0.502429
C	 0.8444372846	-2.0537283698	 0.8055188827	-0.296861
C	 1.3883305217	-1.7957899649	-0.5924698409	-0.034018
H	 0.8427328151	 2.0655892631	-0.0323444481	 0.11667
H	-0.6782497636	 1.841260553	-0.8964937731	 0.122683
H	-0.6674289782	 1.8870477629	 0.8800931792	 0.128679
H	-0.9471815063	-0.4305576964	-0.0381075094	 0.076969
H	 3.0826863334	-0.3991233456	-1.1959833295	 0.089586
H	 2.9956632355	-0.6513204336	 1.5437088138	 0.091035
H	 2.4124818183	 0.955326242	 1.058357739	 0.108491
H	 0.7700622742	-0.6333838977	 3.1722466507	 0.280319
H	 1.5212376414	-2.6616681546	 1.4167954373	 0.089388
H	-0.1492569735	-2.5112565056	 0.8155246644	 0.106007
H	 1.5147736938	-2.5781553293	-1.3314326679	 0.090202
