16
gdb 36325	3.52933	0.90207	0.82507	5.3414	75.48	-0.2721	0.005	0.277	1387.3425	0.122843	-400.707	-400.698196	-400.697252	-400.742066	31.494	
C	 0.6799064743	-1.017046901	 0.2035274218	-0.445838
C	 0.2997271529	 0.1180584751	 0.0959107773	 0.33106
C	-0.169778832	 1.4873555032	-0.0162535705	-0.032115
C	-0.5466809714	 2.2234277254	 1.2993492223	-0.332668
C	 0.5640451046	 3.2141772652	 0.8987127901	 0.155533
C	 1.7491174816	 3.3277548164	 1.8639844344	-0.352316
C	 2.8298256718	 4.1554389992	 1.3330145677	 0.266788
N	 3.6739490654	 4.8234425482	 0.9139296993	-0.299196
O	 0.8924388704	 2.4465746775	-0.275913564	-0.286567
H	 1.0183675917	-2.0205817903	 0.2874167615	 0.20953
H	-0.9408626909	 1.5565823754	-0.7931457246	 0.115375
H	-1.5580095595	 2.6278774406	 1.3328089564	 0.126579
H	-0.3486025226	 1.6492901524	 2.2051989522	 0.127439
H	 0.209912481	 4.2157709229	 0.6274195631	 0.101984
H	 1.4041201295	 3.7635352723	 2.8097727323	 0.152796
H	 2.1353672134	 2.3259102576	 2.0800741507	 0.161616
