16
gdb 4780	4.6538	1.38201	1.12174	2.8274	67.78	-0.1923	0.0358	0.228	1053.838	0.131787	-379.971876	-379.964031	-379.963087	-380.004859	28.911	
C	 0.0361362993	 1.5382310382	-0.1092939361	-0.364677
C	-0.0476599119	 0.0108598669	 0.0292751283	-0.292524
C	-1.4557503603	-0.4956347778	 0.013914297	 0.361467
N	-2.4367103249	-0.0809720106	 0.8006111111	-0.384755
C	-3.5305217966	-0.816021002	 0.4457447226	 0.339918
O	-4.7224264512	-0.6431167702	 1.0598467347	-0.439094
C	-3.2412953878	-1.6951436312	-0.5644133803	-0.218004
N	-1.8957812261	-1.4670068	-0.8256996393	-0.280391
H	 1.0733579402	 1.8781615429	-0.0344639559	 0.109837
H	-0.3653093101	 1.8684361945	-1.0722280316	 0.118747
H	-0.5471031346	 2.0194769024	 0.6792220734	 0.144733
H	 0.5171321567	-0.4751285534	-0.7753541954	 0.094042
H	 0.4315973709	-0.2920073613	 0.9689572057	 0.125491
H	-4.582018828	 0.0452988161	 1.7210055253	 0.298273
H	-3.8276286301	-2.4216638994	-1.0970244553	 0.126219
H	-1.3429416157	-1.9428611651	-1.5182404642	 0.260718
