21
gdb 112858	2.33548	1.26571	0.99807	1.8921	81.05	-0.2378	0.0175	0.2553	1277.0047	0.18184	-424.236773	-424.226954	-424.22601	-424.2716	36.462	
C	-0.3437400608	 1.521095836	-0.0409322451	-0.489004
C	-0.1392295491	 0.0381123719	-0.0474629552	 0.334402
C	 0.0071866595	-0.7426302285	-1.1238951081	-0.22894
C	 0.2349846985	-2.1897314392	-0.7749595137	 0.109602
O	 1.5791233237	-2.6060412418	-1.0442852624	-0.439789
C	-0.1510577204	-2.2407925787	 0.7263252844	-0.270716
C	-0.0867038718	-0.7786837282	 1.2383052216	-0.084491
C	 1.1694670109	-0.5278236047	 2.0818971832	-0.07899
O	 1.1561714598	 0.8076678181	 2.5637312996	-0.41692
H	-0.3452112928	 1.9299308859	-1.0550909472	 0.113689
H	-1.2997726821	 1.7772818245	 0.4333803908	 0.124415
H	 0.4313510059	 2.0166866638	 0.5503523722	 0.147145
H	 0.028344002	-0.3876392991	-2.1493492507	 0.086973
H	-0.3786744921	-2.8787866265	-1.3646975525	 0.080802
H	 2.153559349	-1.8678929779	-0.8139446693	 0.27122
H	-1.1714872169	-2.6213380164	 0.82937024	 0.102487
H	 0.5098906433	-2.9237645524	 1.2677873987	 0.101408
H	-0.9451241462	-0.5402069485	 1.8789169173	 0.080928
H	 1.1803670618	-1.2455827895	 2.9170814695	 0.091766
H	 2.0657187321	-0.7241010317	 1.4696983901	 0.07534
H	 1.9378796557	 0.9413400928	 3.1075775969	 0.288674
