25
gdb 121352	3.03011	0.88195	0.74126	1.6272	88.95	-0.2373	0.0816	0.3189	1649.7525	0.229112	-389.511164	-389.50089	-389.499946	-389.547021	38.	
C	 0.0252727499	 1.5476456656	 0.3596906717	-0.381498
C	-0.1063918223	 0.0494963802	 0.0723680471	-0.170676
C	 0.7451368499	-0.4072941652	-1.1194211187	-0.196824
C	 0.6680997442	-1.9119178552	-1.3910309729	 0.001116
C	-0.6955423956	-2.4480579293	-1.8610721847	-0.236534
C	-0.3038975363	-3.8121037015	-2.4287108101	-0.070126
O	 0.994139029	-3.6486188518	-2.9911462435	-0.277558
C	 1.6179562864	-2.4563993562	-2.4907986155	 0.127172
C	 1.8909269693	-1.5198462613	-3.667069575	-0.391418
H	 1.0627693223	 1.817794294	 0.5863272344	 0.113745
H	-0.2892628391	 2.145524283	-0.50304369	 0.114051
H	-0.590631667	 1.8467478978	 1.2135406723	 0.111443
H	 0.1840778819	-0.5221092449	 0.9640377079	 0.094292
H	-1.15984033	-0.1938316279	-0.1138343224	 0.099195
H	 0.4379938816	 0.1483356529	-2.0146768604	 0.096001
H	 1.791322515	-0.1278139065	-0.9319897964	 0.092822
H	 0.9239224222	-2.4367391746	-0.4598391232	 0.072766
H	-1.4343633077	-2.5223857042	-1.0595640315	 0.100468
H	-1.1114385784	-1.8048826563	-2.645952545	 0.101244
H	-0.2791384954	-4.5717904825	-1.6310707653	 0.086698
H	-0.9791706262	-4.1722807969	-3.2124412611	 0.100079
H	 2.5799484876	-2.7438366685	-2.0440538359	 0.07032
H	 0.9609108321	-1.1572222024	-4.1164584269	 0.111933
H	 2.4900976893	-0.6564014833	-3.3610749812	 0.109221
H	 2.4442485574	-2.0643422752	-4.4371859737	 0.122069
