21
gdb 117218	4.19104	0.75036	0.70458	3.0909	81.34	-0.2402	-0.02	0.2202	1695.2275	0.18049	-424.241475	-424.231563	-424.230619	-424.277217	36.322	
C	-0.0323915281	 1.5455562584	 0.0350875636	-0.387123
C	 0.01512546	 0.0163397041	-0.0055627473	-0.163268
C	-1.3765437066	-0.614648806	-0.0233717954	-0.290976
C	-1.3753198053	-2.1323393509	-0.0624113748	 0.407622
O	-0.3298623261	-2.7715863633	-0.0853831077	-0.375553
C	-2.6883859144	-2.8079128181	-0.0357076873	-0.193052
C	-2.8273953909	-4.1439271992	-0.7817156065	-0.324384
C	-2.7392514394	-4.1754730729	 0.6975620425	 0.158171
O	-1.6371349168	-4.658448519	 1.3682244969	-0.419
H	 0.9756418127	 1.9707807212	 0.0478073767	 0.116798
H	-0.5534646338	 1.953196065	-0.8387045679	 0.112785
H	-0.5559270558	 1.9058259911	 0.9279442149	 0.113548
H	 0.5709920685	-0.3216980477	-0.8865714955	 0.112956
H	 0.5688349136	-0.3679865266	 0.8576048616	 0.114166
H	-1.96113853	-0.3058953378	 0.8559267093	 0.124736
H	-1.9602031559	-0.2593812101	-0.8856491765	 0.122831
H	-3.5637227999	-2.1707838427	 0.0223347589	 0.091495
H	-3.7786662117	-4.3330430467	-1.2666551843	 0.121425
H	-1.9477941316	-4.4569914464	-1.3347140668	 0.136665
H	-3.6478939056	-4.3583798546	 1.2622585822	 0.115282
H	-0.8529714728	-4.299001308	 0.9162619033	 0.304875
