23
gdb 114792	3.32444	1.13051	1.00769	0.1221	90.56	-0.2323	0.027	0.2593	1313.2763	0.207596	-351.165837	-351.157285	-351.156341	-351.199161	33.688	
C	 0.7679618165	 1.8541297545	 0.0053646026	-0.379498
C	 0.8047150732	 0.3394471782	-0.2246696482	-0.194873
C	 0.7544630371	-0.4603488821	 1.0714302095	 0.055187
C	-0.5558412954	-0.4497524498	 1.9136436047	-0.248246
C	-0.4308925217	-1.9855496446	 2.1358823348	-0.002406
C	-1.6099004521	-2.853641274	 1.6556788846	-0.272423
C	-1.2913511571	-3.0696714734	 0.1924117872	-0.066117
C	-0.0779761316	-2.6284071287	-0.1445955797	-0.068668
C	 0.6652745699	-2.0225980883	 1.0168947703	-0.095744
H	 1.6235678648	 2.1851325433	 0.6049408197	 0.111188
H	 0.7928241228	 2.4028859838	-0.9413787647	 0.10921
H	-0.1419257401	 2.1520218724	 0.5377582481	 0.117622
H	-0.037987411	 0.0435499997	-0.8624583873	 0.095726
H	 1.7156155581	 0.0752393458	-0.7790999583	 0.088741
H	 1.6039589203	-0.1749220044	 1.7040705972	 0.061667
H	-0.5614032422	 0.177577287	 2.8083708009	 0.093178
H	-1.43410495	-0.1943352654	 1.3109807876	 0.095437
H	-0.0824080581	-2.2429104492	 3.1374953227	 0.062165
H	-1.6756590824	-3.8114810402	 2.1907027528	 0.099529
H	-2.5756602932	-2.3527903606	 1.806538435	 0.099915
H	-1.985370877	-3.5539649135	-0.4871319281	 0.087332
H	 0.3512822683	-2.7051980222	-1.1383580642	 0.088299
H	 1.6079033208	-2.5446556086	 1.2173117428	 0.062781
