21
gdb 40465	3.5261	1.31642	1.19109	0.1824	87.13	-0.2542	0.0935	0.3478	1135.8941	0.183856	-349.866845	-349.859335	-349.858391	-349.89898	30.71	
C	-0.160213674	 1.413108461	-0.147800798	-0.268531
C	 1.2595178354	 0.9771579897	 0.1102711592	-0.268528
C	 0.1464417958	-0.0443787059	 0.1055030666	-0.140151
C	-0.2846800905	-0.6994205739	 1.3711138704	 0.398088
C	-0.3621038516	-0.1010275205	 2.7957679988	-0.321188
C	-0.8374732016	-1.5543001973	 2.9685550965	-0.047008
C	-1.5906583006	-1.5595154556	 1.5959873647	-0.078682
C	-0.9035423687	-2.8625537564	 1.1424984976	-0.270477
C	 0.1885588681	-2.1028929093	 1.9209157854	-0.078637
H	-0.6680776152	 1.9653459716	 0.6357136142	 0.112244
H	-0.4355033994	 1.7119361843	-1.1531912736	 0.109604
H	 1.9596406087	 0.9764669099	-0.7178092934	 0.109605
H	 1.7008212964	 1.2379604696	 1.0663210743	 0.112221
H	 0.1057211625	-0.692985657	-0.7663116353	 0.079375
H	 0.5876337973	 0.1657244591	 3.2724989377	 0.088282
H	-1.1083228308	 0.6836430182	 2.9627244003	 0.088288
H	-1.1601090162	-2.0689207752	 3.8746113332	 0.06711
H	-2.6141072462	-1.2197920817	 1.4251022477	 0.065037
H	-1.2694450664	-3.7906160042	 1.5940057352	 0.088384
H	-0.7490035657	-2.9994470093	 0.0673696678	 0.089931
H	 1.2215479126	-2.3911981372	 2.1255419008	 0.065034
