19
gdb 104465	3.18665	1.22648	1.09925	1.5718	66.47	-0.2578	0.071	0.3288	1149.0133	0.159971	-497.292123	-497.283599	-497.282654	-497.32494	32.952	
O	 0.1250710608	 1.4176642095	-0.0087187482	-0.425431
C	 0.0901096645	 0.0054461266	-0.0356333968	-0.087934
C	-1.3490241217	-0.5079106961	-0.0406198513	 0.310738
O	-1.9550327482	 0.0583988416	 1.1207178555	-0.487343
C	-2.1235123677	-0.0523733768	-1.288440046	-0.122557
O	-3.4528462956	-0.5658408479	-1.2271260849	-0.250263
C	-3.4375904432	-1.9704886976	-1.1700214626	 0.00964
O	-2.7990615558	-2.4500060133	-0.0162065499	-0.24641
C	-1.4340167072	-2.0399129851	 0.0311055056	-0.127007
H	-0.4730852171	 1.6747265868	 0.704738839	 0.294117
H	 0.6131241474	-0.3138979746	-0.9430984154	 0.107221
H	 0.6171908796	-0.4284631193	 0.8295217388	 0.095164
H	-2.8990397949	-0.1326628246	 1.0591721927	 0.29296
H	-2.1946695341	 1.0352415046	-1.3169543016	 0.127471
H	-1.622112398	-0.4026314232	-2.2047860137	 0.092096
H	-4.475690918	-2.3044279465	-1.1252528896	 0.123353
H	-2.9397137127	-2.3732037131	-2.0726082863	 0.082452
H	-0.868402978	-2.4999386956	-0.7961252417	 0.089714
H	-1.0333320901	-2.4009030455	 0.9809750464	 0.122019
