18
gdb 70715	2.28685	1.87138	1.23722	2.1513	72.39	-0.2269	-0.0247	0.2022	1026.4482	0.149225	-439.086844	-439.079008	-439.078064	-439.118927	31.114	
O	-0.021618312	 1.3913134156	-0.0714375318	-0.478497
C	-0.0157833387	 0.0069786391	-0.026826328	 0.361109
C	-0.4239307129	-0.7555709343	-1.281446948	-0.348006
C	-1.3325450816	-0.7485955581	-0.0813750958	-0.112527
C	-1.4866524069	-2.0232647496	 0.765628033	-0.195923
N	-0.4373188676	-2.2665887872	 1.7583704145	-0.282521
C	 0.910224799	-2.0212811248	 1.2319353678	-0.281186
C	 1.0617188442	-0.5621238996	 0.8263861704	 0.320015
O	 1.9377820386	 0.1699553751	 1.2520350396	-0.357256
H	 0.8104472763	 1.6472972122	 0.3595828392	 0.293052
H	-0.6846580768	-0.1216924383	-2.1212029587	 0.135268
H	 0.0945378038	-1.6738979279	-1.5394862676	 0.117464
H	-2.20449481	-0.1062966542	-0.1584300886	 0.111522
H	-2.4419682879	-1.9957042759	 1.2968720643	 0.116572
H	-1.522522278	-2.8931740377	 0.0959824309	 0.11503
H	-0.5858146157	-1.6644524855	 2.5628094242	 0.227716
H	 1.6630757966	-2.2477683988	 1.9906937228	 0.132625
H	 1.0787755394	-2.6899629003	 0.3779746718	 0.125542
