8
gdb 21988	5.74297	1.75406	1.34367	1.2847	44.83	-0.336	-0.1356	0.2004	772.3848	0.035547	-482.546002	-482.540123	-482.539178	-482.577188	19.569	
O	-0.1233429646	 0.0094593075	 0.004018543	-0.316408
N	-0.0251682784	 1.2223383793	 0.0070630295	 0.400604
O	 0.9909305184	 1.8916456875	 0.0026204896	-0.321218
C	-1.2855022747	 1.9629658349	 0.0171518448	 0.536969
N	-1.3580046316	 3.2602135037	 0.0212497805	-0.09392
O	-2.6708870683	 3.5045727796	 0.0302218205	-0.120463
N	-3.3702119734	 2.2698624884	 0.0313417317	 0.078087
N	-2.5135162274	 1.356193599	 0.0232770803	-0.16365
