15
gdb 6753	7.78183	0.69169	0.64037	4.939	69.84	-0.2562	-0.0197	0.2365	1684.102	0.116136	-399.782423	-399.772686	-399.771742	-399.819004	31.487	
C	 0.0049427002	 1.3985289989	 0.0215741945	-0.221317
O	-0.0084474695	-0.0104713286	-0.033438291	-0.222761
C	 0.6394245131	-0.5901696041	 1.0767311285	-0.204498
C	 0.6018488583	-2.0428165409	 0.9820587256	-0.024813
C	 0.5841020213	-3.2463296737	 0.9281241112	 0.134303
C	 0.5259719797	-4.6958826683	 0.7977280342	 0.263304
N	 1.1402878063	-5.3645602458	 1.8178404145	-0.521881
O	-0.028396273	-5.2509821317	-0.130060153	-0.329956
H	 1.0315291566	 1.797987628	 0.0241347761	 0.107354
H	-0.5135200314	 1.7585770043	-0.869143998	 0.137752
H	-0.5144595982	 1.777833382	 0.9158672054	 0.107565
H	 1.690539342	-0.2551272691	 1.1357560671	 0.121312
H	 0.158985725	-0.2739140895	 2.0199758606	 0.122013
H	 1.6534911662	-4.8797842731	 2.5328074498	 0.264969
H	 1.1876199435	-6.3689452483	 1.7657736745	 0.266654
