21
gdb 91495	2.54518	1.80138	1.47135	1.5945	82.8	-0.2285	0.0707	0.2992	1007.7667	0.18417	-386.999012	-386.991595	-386.99065	-387.030269	31.312	
C	-0.0134554595	 1.5276980042	 0.0937440984	-0.419371
C	 0.1446539798	 0.0159974549	 0.0267036001	 0.148134
O	 1.0449655879	-0.3840233829	-1.0367772375	-0.282758
C	 1.9669594513	-1.1974534722	-0.3322098399	 0.04769
C	 2.329614967	-0.3063202005	 0.9443201518	-0.342372
C	 0.8230573253	-0.6606276063	 1.248214647	 0.229389
C	-0.200018048	-1.318748825	 2.2251932787	-0.320649
C	-0.2921734418	-2.5105458103	 1.1697424364	-0.305926
C	 1.1340302805	-2.0419640015	 0.7049737229	 0.021525
H	 0.9233642446	 2.0336384884	 0.339308263	 0.119432
H	-0.3624710646	 1.9099342257	-0.8702486395	 0.125253
H	-0.7588115241	 1.7929582356	 0.8517932422	 0.113248
H	-0.8395874364	-0.4190543819	-0.1809272238	 0.069278
H	 2.7146072786	-1.5998587962	-1.0170533761	 0.079481
H	 3.0335110156	-0.7762610373	 1.6306733986	 0.104807
H	 2.6229345274	 0.7240477232	 0.7307022959	 0.099853
H	 0.2565129866	-1.6620525567	 3.1565893744	 0.110938
H	-1.1149450051	-0.7665879659	 2.4595412726	 0.099778
H	-0.3471400106	-3.5214230908	 1.579414715	 0.100003
H	-1.1005096529	-2.3816220612	 0.4507122181	 0.122522
H	 1.8510206985	-2.5355573434	 1.3677910516	 0.079745
