21
gdb 100665	2.14326	1.21318	1.11282	1.874	74.93	-0.2491	-0.0385	0.2106	1272.2831	0.179111	-461.378967	-461.368409	-461.367465	-461.414097	38.951	
C	-0.1713068203	 1.4736892334	-0.7146065336	-0.379663
C	-0.4078907174	-0.0259904701	-0.9185195587	-0.219084
C	-1.0606958173	-0.681435561	 0.3038950259	 0.087232
O	-2.3185980405	-0.0849425396	 0.6328781674	-0.459398
C	-1.2633496254	-2.2110518576	 0.2183503403	 0.270525
C	 0.0256347172	-3.0112455889	 0.0941863032	-0.442905
O	-1.9180413378	-2.6482990201	 1.4151352467	-0.467294
C	-2.2655409627	-2.6142016494	-0.8709122808	 0.139576
O	-2.9864190718	-1.8555456047	-1.4775597875	-0.281151
H	 0.2610261653	 1.9272979903	-1.6110892316	 0.111881
H	-1.1093499299	 1.9859636263	-0.4867724464	 0.132097
H	 0.5164684652	 1.6549593885	 0.1188163419	 0.11409
H	-1.0420213118	-0.1903910125	-1.7966526061	 0.116658
H	 0.5473026499	-0.5244950824	-1.1209798195	 0.099748
H	-0.4294309344	-0.5039405426	 1.1842697132	 0.092286
H	-2.8807953123	-0.2184147844	-0.1446008815	 0.296256
H	 0.7081215521	-2.7468867312	 0.9068208868	 0.134311
H	-0.1950411649	-4.0797734244	 0.1745265608	 0.133808
H	 0.5258177629	-2.8321335149	-0.8614753646	 0.12762
H	-2.5239166103	-1.9235772506	 1.6376767373	 0.293175
H	-2.3533814761	-3.7140895841	-1.0062000232	 0.100234
