18
gdb 126261	1.97615	1.76824	1.00782	3.4249	75.39	-0.2164	0.0045	0.2209	1188.318	0.147671	-435.276959	-435.267696	-435.266752	-435.311543	33.025	
C	 0.0750203215	 1.6167905276	 0.183570373	-0.373404
C	-0.0172569175	 0.0872692246	 0.026714534	-0.306617
C	 0.6383772181	-0.4367689394	-1.2082909649	 0.227551
C	 0.1380038687	-0.7381298545	-2.4584278403	 0.291795
O	-1.1462436382	-0.6350921293	-2.8624034666	-0.434794
N	 1.1269280546	-1.1708338889	-3.2669671257	-0.287902
N	 2.2502529212	-1.1608732354	-2.5886387525	-0.166639
N	 1.9678725286	-0.7188107458	-1.3537522473	 0.005564
C	 3.0289732672	-0.6234512794	-0.3743059615	-0.337123
H	 1.1151100084	 1.9519963034	 0.2475247187	 0.118004
H	-0.3854034426	 2.1203037815	-0.6710094494	 0.135817
H	-0.4397748048	 1.9426137424	 1.0925952001	 0.118536
H	 0.4076827836	-0.3999554024	 0.9130334375	 0.108532
H	-1.0708607471	-0.2077670364	-0.0094969093	 0.133524
H	-1.1739408318	-0.9459345364	-3.7759732645	 0.305555
H	 3.1669867401	 0.4101421663	-0.0441773225	 0.145792
H	 2.8122589963	-1.2503109059	 0.4957501018	 0.145325
H	 3.9400589838	-0.9758681621	-0.8574286005	 0.170482
