17
gdb 81895	3.07141	1.27802	1.08956	3.3105	70.25	-0.2575	-0.0444	0.2132	1138.5702	0.133429	-458.932494	-458.923683	-458.922739	-458.966112	32.2	
C	-0.1416903336	 1.5642653333	 0.0701359042	-0.409139
C	 0.0101257519	 0.0645250882	-0.1336221849	-0.058649
C	 0.886350182	-0.4127342991	-1.2989263329	-0.039804
O	 2.2255634251	-0.0027135897	-1.0526707113	-0.285017
C	 1.7706355792	-1.1998215156	-0.3883003144	 0.27141
C	 2.4744207508	-2.4641737298	-0.6766436113	 0.054355
O	 2.425938184	-3.4318490927	 0.041471149	-0.254892
C	 0.9803400324	-0.7329551236	 0.8419536982	 0.055065
O	 1.6922345511	-0.0164910647	 1.8069580869	-0.424515
H	 0.8235793539	 2.0724237131	-0.0047070442	 0.123111
H	-0.8077728903	 1.996956687	-0.6831775726	 0.120152
H	-0.5598438474	 1.7769257869	 1.0581164232	 0.134864
H	-0.9653712098	-0.4305689917	-0.1630518951	 0.089424
H	 0.6199108593	-0.6260458363	-2.3285825579	 0.120557
H	 3.0419486495	-2.4527319016	-1.6326846695	 0.090328
H	 0.4762227367	-1.5567611094	 1.3493130645	 0.119526
H	 2.2698111051	 0.5965742657	 1.3361850881	 0.293224
