16
gdb 21031	3.9427	1.7272	1.21945	2.5192	68.36	-0.2109	0.0449	0.2557	976.4975	0.130358	-379.949604	-379.941133	-379.940189	-379.983044	29.724	
C	-0.0533585599	 1.3962306785	-0.0627390057	-0.324664
N	-0.0220518503	-0.0455720306	 0.018646053	-0.015993
N	-0.0475965663	-0.8061995802	-1.1132062864	-0.342702
C	 0.0455459937	-2.0621017865	-0.6892028043	 0.383659
C	 0.0365045354	-3.1924098942	-1.6692279205	-0.488398
C	 0.1409427275	-2.1321342206	 0.7236244664	-0.465946
C	 0.0965988631	-0.8127419048	 1.1245187293	 0.462748
O	 0.1480832817	-0.2063367891	 2.3336947675	-0.435669
H	 0.9268978005	 1.8014509562	-0.3369602809	 0.137923
H	-0.7813188604	 1.6906551575	-0.8208786796	 0.149685
H	-0.3474637298	 1.8004822642	 0.9067744185	 0.150162
H	 0.9513915151	-3.7915083931	-1.5996922275	 0.123967
H	-0.8074132367	-3.8693642297	-1.4947479574	 0.123989
H	-0.0417789127	-2.7989010404	-2.6849861459	 0.137497
H	 0.2227322172	-3.0058615971	 1.3502491261	 0.091599
H	 0.1786519116	-0.8853916201	 3.0142310174	 0.312144
