23
gdb 102656	2.0236	1.00331	0.71568	2.0073	82.72	-0.2603	0.0767	0.337	1631.6183	0.203743	-425.402078	-425.391309	-425.390365	-425.438873	38.485	
C	 1.8982433491	 0.0848087977	-0.8127878094	-0.388838
C	 0.9946638128	-1.1492932008	-0.7085055214	-0.196282
C	-0.4959583125	-0.8378618733	-0.4658919705	 0.043848
C	-1.1590436881	-0.2616384519	-1.7185781385	-0.093314
O	-2.4706696409	 0.1697448286	-1.3758638202	-0.424618
C	-1.275467018	-2.0757029756	 0.023531663	-0.235611
C	-0.9860189013	-2.4566945284	 1.4544041402	 0.093709
C	-1.038331987	-3.8452667365	 1.9277602225	-0.184808
O	 0.2158796849	-3.1918261847	 1.7265525204	-0.232971
H	 2.9425649971	-0.2099531535	-0.9561771725	 0.113019
H	 1.6259172303	 0.7349550047	-1.6503843668	 0.112769
H	 1.847721462	 0.6864747053	 0.1015925288	 0.116137
H	 1.0857879504	-1.7529497602	-1.6229210439	 0.087322
H	 1.3526207236	-1.78769819	 0.1038560537	 0.133765
H	-0.5709044187	-0.0629416747	 0.3111838282	 0.077218
H	-0.5650691554	 0.5774620592	-2.1085563212	 0.086864
H	-1.1889619958	-1.0364396429	-2.5034169374	 0.081952
H	-2.9053010056	 0.4790099028	-2.1755111143	 0.286691
H	-2.3473892011	-1.86448857	-0.0613337619	 0.119728
H	-1.0576986368	-2.9331825258	-0.6264512906	 0.090899
H	-1.1850013869	-1.6727503403	 2.1886397507	 0.090421
H	-1.2926990032	-4.0598776207	 2.9649296707	 0.111416
H	-1.268204939	-4.642447719	 1.2214246904	 0.110682
