18
gdb 32436	3.18782	1.19724	0.88163	1.2028	76.8	-0.1677	0.0548	0.2225	1291.6296	0.148068	-435.274797	-435.26508	-435.264136	-435.30895	35.827	
C	-0.0170273007	 1.4309889529	-0.0431232035	-0.317733
N	 0.0315558744	-0.0073875908	 0.1394413113	-0.395519
C	-1.1879450654	-0.6927878835	 0.0779752356	 0.276017
C	-2.4730841716	-0.1994700357	 0.0700088845	-0.192035
N	-3.3407140827	-1.2813095152	-0.0400979122	-0.325397
C	-2.5992952576	-2.4440063958	-0.0268987148	 0.251384
O	-3.1949353059	-3.6754657407	-0.0385046858	-0.440962
C	-1.2680451804	-2.1234469049	 0.0200397383	 0.063535
N	-0.1466876184	-2.9809529267	-0.083249771	-0.631576
H	 0.9993641468	 1.8327773765	-0.0450849343	 0.115914
H	-0.5221003178	 1.7421373126	-0.9736712934	 0.102688
H	-0.5558750408	 1.8882585006	 0.7946283929	 0.125717
H	 0.7214518983	-0.4523095493	-0.4548235507	 0.232974
H	-2.8453888579	 0.8097806813	 0.0997749688	 0.105812
H	-4.308645326	-1.2607675029	 0.2323364498	 0.251654
H	-3.4546367001	-3.8960643062	-0.9412781448	 0.298986
H	-0.4478049081	-3.9497105093	-0.0920552146	 0.237347
H	 0.4717952538	-2.8616227429	 0.7144396139	 0.241194
