20
gdb 117168	2.18495	1.12165	0.82452	3.4428	72.75	-0.2509	0.0224	0.2732	1442.0338	0.169802	-477.455874	-477.445507	-477.444562	-477.492562	37.014	
C	-0.1888405292	 1.0350473776	 0.6347054391	-0.372999
C	-0.6081581117	 0.2267901012	-0.5960354204	-0.147726
N	-1.7311618085	-0.665532399	-0.3406115357	-0.309453
C	-1.5641159488	-1.9472079848	 0.0457123349	 0.38324
O	-0.4784791885	-2.5069769038	 0.1554611516	-0.410394
C	-2.8481983217	-2.7510312309	 0.3376461087	 0.018817
O	-2.4854565238	-3.9843757351	 0.8889866373	-0.435478
C	-3.809076527	-2.0266976661	 1.2958675524	-0.11296
O	-4.4090901385	-0.8759460586	 0.6993890603	-0.410226
H	 0.6471730928	 1.6976291041	 0.3890628136	 0.119194
H	-1.0139459257	 1.6530415705	 1.003745028	 0.117372
H	 0.1276011403	 0.3665705568	 1.4401127615	 0.138402
H	-0.8849254851	 0.8963047415	-1.4175620076	 0.107191
H	 0.2204991601	-0.3975487643	-0.9372305819	 0.143411
H	-2.6657259596	-0.2859062777	-0.246095184	 0.257261
H	-3.3764570688	-2.8913809108	-0.6244552143	 0.076507
H	-1.5139408587	-4.0021707918	 0.8090316943	 0.295979
H	-4.565459161	-2.7446751537	 1.6347367869	 0.120084
H	-3.2670511938	-1.6708256628	 2.1766425493	 0.127952
H	-5.0591560728	-1.1807830723	 0.057466956	 0.293826
