16
gdb 5762	5.88905	1.51022	1.28409	1.7436	72.3	-0.1812	0.0516	0.2328	942.5965	0.132812	-342.784262	-342.777358	-342.776414	-342.815749	26.485	
C	 0.959501612	-0.3780661555	-0.8007613858	-0.218382
C	-0.2517065784	-1.1697226057	-1.1426812579	-0.231028
N	-0.2773637256	-0.1632145257	-0.0643805077	-0.16939
C	-0.3340899977	-0.6114503008	 1.2656665253	 0.333319
C	 0.6277762939	-0.8437755386	 2.2256361014	-0.221944
C	-0.0551430516	-1.2095975676	 3.4242863259	-0.136949
C	-1.4012773142	-1.1913239352	 3.1603181574	-0.098093
N	-1.5613680897	-0.8234783797	 1.8423551149	-0.292988
H	 1.7643680801	-0.9071325958	-0.297214919	 0.126496
H	 1.2743079175	 0.449097097	-1.4297532336	 0.121098
H	-0.8436751271	-0.9228383002	-2.0186186639	 0.119242
H	-0.259439209	-2.2161268301	-0.8483932246	 0.124076
H	 1.6933280851	-0.743657867	 2.0932277328	 0.085386
H	 0.3997889726	-1.4598334063	 4.3703640991	 0.089302
H	-2.2540879369	-1.4064595293	 3.7830599858	 0.111246
H	-2.4354157711	-0.6755986695	 1.3688900799	 0.258608
