12
gdb 123283	9.80921	0.69445	0.64854	3.125	89.57	-0.2369	-0.0461	0.1907	1588.0689	0.078609	-394.498186	-394.490643	-394.489699	-394.530814	27.26	
C	 0.0411479838	-3.7234232407	-0.0178788321	-0.593715
C	 0.0291327316	-2.515545066	-0.0113527372	 0.254152
C	 0.0163973674	-1.1578350887	-0.0039296996	 0.066416
C	-0.0019732307	 0.0531637417	 0.0028683348	 0.351473
C	-0.0005241369	 1.4665544101	 0.0104846576	 0.02787
N	-1.1280192837	 2.1810270149	 0.0295599362	-0.255779
N	-0.6580018466	 3.4429783099	 0.0301675607	-0.178551
C	 0.6926333269	 3.4502342305	 0.0121964	-0.018759
N	 1.1496605721	 2.2184083494	-0.0006087192	-0.289741
H	 0.0508957532	-4.78520573	-0.0236300283	 0.19426
H	-1.3052618335	 4.2148433634	 0.0430502928	 0.289847
H	 1.2812855065	 4.3552718555	 0.0093357143	 0.152526
