17
gdb 27229	3.24001	1.64068	1.09808	1.3933	84.23	-0.1703	0.0058	0.1761	1062.4243	0.138937	-380.907054	-380.899635	-380.89869	-380.93863	29.602	
N	-0.0000679826	 1.4311723421	 0.1494452678	-0.60765
C	-0.0066437709	 0.026605436	 0.0417931519	 0.060882
C	-1.099688822	-0.8088271965	 0.0236689226	 0.31747
C	-2.602588624	-0.8507476412	 0.0358294096	-0.425923
C	-2.8599113855	-2.3517261086	-0.0073499805	-0.140209
C	-1.6970305586	-3.0164261911	-0.0303142685	-0.010388
N	-0.6275787298	-2.1159113439	-0.0091287136	-0.004158
C	 0.737558992	-2.1310855667	-0.0122918421	-0.136455
C	 1.1540792682	-0.8152279384	 0.0194949008	-0.209611
H	 0.8189938477	 1.8398874688	-0.2827361034	 0.238935
H	-0.8239267293	 1.8546655561	-0.2592632257	 0.236576
H	-3.041780576	-0.3924327313	 0.9338147874	 0.127585
H	-3.0623701137	-0.3385328039	-0.8226011763	 0.118757
H	-3.8418092635	-2.8004699552	-0.0157742383	 0.104363
H	-1.507660941	-4.0796668928	-0.0601499541	 0.127353
H	 1.297965095	-3.0512815566	-0.0392979186	 0.116723
H	 2.1802440841	-0.4779515069	 0.031595651	 0.085749
