16
gdb 33062	4.45474	0.82521	0.72941	3.6492	68.08	-0.2151	0.0216	0.2367	1486.171	0.124407	-475.07367	-475.064994	-475.06405	-475.107899	31.109	
O	 0.1485928509	 1.4017517913	-0.100151378	-0.412376
C	 0.1026617838	-0.0118013295	-0.0524393163	-0.062411
C	-1.3340048006	-0.5379169975	 0.1391907877	-0.326816
C	-1.4103532374	-2.0177962725	 0.1976793111	 0.357656
C	-1.7224319281	-2.8937153465	 1.1631858336	-0.211401
N	-1.585991472	-4.1682952974	 0.6098159925	-0.36068
C	-1.1899431445	-4.0770947547	-0.7046236063	 0.476869
O	-0.9720278977	-4.938927523	-1.510500361	-0.398902
O	-1.079018686	-2.7184279334	-0.9533099094	-0.248288
H	-0.2425043978	 1.6850477957	-0.9326782209	 0.285773
H	 0.5468573818	-0.468241525	-0.9478858104	 0.114131
H	 0.7153337372	-0.3081238491	 0.804878549	 0.118508
H	-1.7469199952	-0.121435949	 1.0629752948	 0.124161
H	-1.9570757731	-0.1711505614	-0.688433995	 0.113954
H	-2.0276497292	-2.730956875	 2.1822657193	 0.151851
H	-1.7612643422	-5.0502093431	 1.0567622894	 0.277971
