13
gdb 20719	7.0819	1.34241	1.13644	2.2187	70.37	-0.2473	-0.0331	0.2142	994.5938	0.096168	-357.646326	-357.639062	-357.638118	-357.677916	26.225	
C	 0.0073920579	 1.4721916821	-0.0438725897	-0.494602
C	 0.000460507	-0.0177584919	 0.0163930852	 0.327757
N	-0.0784215051	-0.77621349	-1.0732770665	-0.238336
N	-0.0531948252	-2.0236967876	-0.5632297247	-0.255815
C	 0.0382239326	-1.9821332934	 0.7898301443	 0.205069
N	 0.0740761501	-0.7159466491	 1.184841649	-0.343698
C	 0.0839132903	-3.143796797	 1.5937169316	 0.277698
C	 0.1207699661	-4.1513606697	 2.2495070881	-0.396429
H	 0.9232606793	 1.8716916924	 0.4021186406	 0.14322
H	-0.0592739522	 1.8067827499	-1.0802347609	 0.141267
H	-0.8352639732	 1.8845674044	 0.5193430138	 0.143212
H	-0.1000792161	-2.8268946536	-1.1689345953	 0.284981
H	 0.1543744284	-5.0326684264	 2.8418869446	 0.205676
