17
gdb 97090	2.41804	1.25767	1.10539	4.9688	76.65	-0.2429	-0.003	0.2399	1195.7002	0.135447	-414.1748	-414.165086	-414.164142	-414.209688	34.071	
C	 0.1219245159	 1.3324131641	-0.1392128028	-0.342843
N	 0.336998731	-0.1065381045	-0.1159048189	-0.310773
C	 0.5977868975	-0.6557475507	 0.9834748063	 0.375081
N	 0.713665701	-0.268094212	 2.3196066798	-0.356655
C	 1.1056477549	-1.6000215403	 2.802130228	-0.182408
C	 0.8412558991	-2.1464364479	 1.3505823296	 0.035504
N	-0.2587316838	-3.0913852207	 1.2473572669	-0.549972
C	 2.0348138572	-2.6965378081	 0.7090008691	 0.282043
N	 2.9875616528	-3.1139208901	 0.2062821267	-0.332531
H	 1.0577266305	 1.8543084792	-0.3777157243	 0.131009
H	-0.5928049826	 1.5769081248	-0.9302024942	 0.132281
H	-0.2638179385	 1.7384185739	 0.8082604359	 0.102098
H	 1.0700860741	 0.610611667	 2.6622724441	 0.255401
H	 2.1440393915	-1.6902982411	 3.1322758404	 0.136852
H	 0.4351039104	-2.0229547373	 3.5554570757	 0.126609
H	-1.1060653039	-2.6477931669	 1.5927809468	 0.242661
H	-0.4265011673	-3.3055714895	 0.2677725908	 0.255642
