17
gdb 107536	2.04998	1.67574	1.10612	2.0988	74.23	-0.2504	0.0434	0.2938	1122.4572	0.133675	-421.745109	-421.736269	-421.735325	-421.779092	32.811	
O	-0.0584773268	 1.4511204657	 0.3352375565	-0.408852
C	 0.0281039023	 0.0819660904	-0.0177967012	-0.17587
C	-1.3211035214	-0.5483329286	-0.1467097285	 0.388347
O	-2.0203116774	-0.8526925969	 1.0695544953	-0.286661
C	-1.8332959977	-1.90443427	 0.1141651395	-0.052645
C	-2.9441102352	-1.7618006632	-0.9307329287	-0.262251
C	-2.4037745526	-0.305016473	-1.2345588418	-0.254835
C	-3.2988894847	 0.8198895022	-1.060093679	 0.342259
C	-4.0558342506	 1.7431346645	-0.9193841865	-0.458015
H	-0.5918283354	 1.5070334786	 1.1360822815	 0.297255
H	 0.5536018927	 0.0487324177	-0.9782019131	 0.114278
H	 0.6162065161	-0.4970513069	 0.7109948987	 0.09988
H	-1.3230990283	-2.7977295475	 0.4559409164	 0.110686
H	-2.8359409551	-2.4278956413	-1.7890020502	 0.113456
H	-3.9588344439	-1.8200617254	-0.5347022858	 0.126569
H	-1.9416655331	-0.2772261516	-2.2267429787	 0.110094
H	-4.716098999	 2.5644622753	-0.7900979143	 0.196306
