24
gdb 109766	2.37628	1.08954	0.87039	0.4012	86.12	-0.2151	0.0706	0.2857	1473.9176	0.214624	-405.516591	-405.505339	-405.504395	-405.55321	40.854	
C	 1.4093658564	 1.5653482248	-0.6275408122	-0.385727
C	 0.4449780205	 0.4475127133	-0.2113163818	-0.191859
C	 0.9280073483	-0.3077964766	 1.0130232683	-0.00535
C	 0.445491799	-1.6762912427	 1.3700515092	-0.0532
C	-0.5869578369	-2.4192324433	 0.5354321813	 0.128143
C	-0.5800003735	-3.9196107401	 0.8332947577	-0.405743
O	-1.8850790612	-1.8583222136	 0.7401295827	-0.436106
N	 1.8404342976	-1.4574034895	 0.975879311	-0.108948
C	 2.3566366606	-1.9712672007	-0.2832097386	-0.316629
H	 2.3882195261	 1.1642241107	-0.9101855221	 0.119502
H	 1.0174705478	 2.1268327618	-1.4812013594	 0.112194
H	 1.5688008668	 2.2733875796	 0.1930985074	 0.116719
H	-0.5379204614	 0.872450286	 0.0250232606	 0.113244
H	 0.2783646708	-0.2269090688	-1.055542286	 0.097645
H	 1.1508231745	 0.361024247	 1.8468782839	 0.080465
H	 0.345003574	-1.9096595731	 2.4345915551	 0.07168
H	-0.3978203049	-2.2695127453	-0.5302647124	 0.085502
H	-0.7652714684	-4.1019711445	 1.8992590539	 0.107931
H	-1.3604850646	-4.4246911716	 0.2578891102	 0.122552
H	 0.3872916486	-4.3681392025	 0.5847239985	 0.122231
H	-2.0946976262	-1.9437128623	 1.6770889573	 0.277017
H	 1.6917542629	-1.8844437381	-1.1543457278	 0.103197
H	 3.2840942287	-1.4393528214	-0.5202214222	 0.123393
H	 2.6063415746	-3.0300225993	-0.1565588946	 0.122147
