22
gdb 70605	2.04956	1.85967	1.44092	2.8165	81.4	-0.2318	0.0705	0.3023	1065.3137	0.193512	-404.343501	-404.334341	-404.333397	-404.376371	36.24	
C	-0.4065933231	 1.391422403	 0.0307113742	-0.506144
C	-0.0085758633	-0.0622404451	 0.0359291396	 0.297171
N	-0.587274589	-0.9776599465	 1.0473382155	-0.371695
C	 0.8627099353	-0.6845983883	 1.0582020224	-0.111293
C	 1.6559985368	-1.7691678086	 0.3672216112	-0.089176
O	 0.9953569	-1.9887429705	-0.8713162541	-0.299758
C	 0.2658736515	-0.8129649508	-1.2784966304	 0.352879
C	-1.0049581855	-1.303063345	-1.9684843515	-0.424504
C	 1.1428039368	 0.0170896782	-2.2273129686	-0.430905
H	 0.3246135199	 2.0137261938	-0.4935083625	 0.130314
H	-1.3770844269	 1.5338674884	-0.4588587793	 0.128684
H	-0.4923270098	 1.770519187	 1.0543695442	 0.11389
H	-1.0413543849	-0.4194947087	 1.7678435681	 0.223007
H	 1.2980037477	-0.1200408557	 1.8768479692	 0.086509
H	 2.6987510778	-1.4408199548	 0.2250262003	 0.085355
H	 1.6631200827	-2.7195852	 0.9119087747	 0.109897
H	-1.6082904228	-1.8748772863	-1.2612212769	 0.139822
H	-1.5948103813	-0.4608885399	-2.3457525305	 0.102264
H	-0.7487409247	-1.9454411778	-2.8157883404	 0.118109
H	 1.4688240708	-0.6140089052	-3.058456466	 0.124167
H	 0.5993227312	 0.872459707	-2.6404228667	 0.111133
H	 2.0357149609	 0.3934569558	-1.7171222324	 0.110272
