22
gdb 56885	3.16484	0.90907	0.75623	4.0995	87.09	-0.2968	0.0386	0.3355	1560.1891	0.193696	-367.232694	-367.222813	-367.221868	-367.267794	36.531	
C	-0.1102148987	 1.5472268265	-0.0081798211	-0.396547
C	 0.0893419909	 0.0220652423	-0.0963770075	-0.166255
C	 0.8978385599	-0.3276400786	-1.2705923907	 0.273521
N	 1.5489798435	-0.6023832589	-2.1855151124	-0.329741
C	 0.7244555799	-0.5590591879	 1.1760902827	 0.059397
C	-0.1049503122	-0.525359414	 2.4893233402	-0.263406
C	 0.4618635306	-1.9327098638	 2.8345765104	 0.050744
C	-0.4522030314	-2.9567281832	 3.4877017884	-0.407736
C	 0.835104229	-2.0986704731	 1.3336244964	-0.255779
H	 0.8496302991	 2.05666044	 0.1157102964	 0.136158
H	-0.5894898816	 1.9362677624	-0.9097689352	 0.135831
H	-0.7419861162	 1.7864765508	 0.8514720622	 0.130017
H	-0.8916159274	-0.4529030574	-0.2339029816	 0.118018
H	 1.7022232948	-0.0899284643	 1.329655888	 0.086385
H	 0.0751758156	 0.2917861515	 3.1919371576	 0.101005
H	-1.1806523135	-0.5757939015	 2.2809773557	 0.09584
H	 1.3767840999	-1.819839669	 3.4271985351	 0.076541
H	-1.3748723242	-3.0853037119	 2.91013345	 0.110589
H	 0.0348122547	-3.9356445444	 3.5587936968	 0.118596
H	-0.7332900412	-2.6510667839	 4.5017773541	 0.115864
H	 0.0380684688	-2.6118421155	 0.7830601036	 0.099822
H	 1.7875904394	-2.5701919459	 1.0835572807	 0.111136
