16
gdb 105448	2.14763	1.70793	1.23211	3.1304	65.52	-0.2574	-0.0488	0.2086	1048.8765	0.122463	-475.028417	-475.019687	-475.018743	-475.062793	30.504	
C	-0.2218401292	 1.5648210295	 0.0409967581	-0.267263
O	-0.1159947501	 0.1405997972	 0.0310281114	-0.270555
C	 0.5535152182	-0.4535006171	-1.0359260012	 0.355521
C	 0.3285753887	-1.9772194984	-0.9893576332	-0.239861
N	-0.5129731388	-2.2808208085	-2.1547847197	-0.248499
C	-0.6401574978	-1.1932645895	-2.7828975019	 0.1087
O	-0.0386297358	-0.0620630169	-2.3006764516	-0.261613
C	 2.0205559361	-0.0067097827	-1.1234309165	 0.111825
O	 2.9532228332	-0.7589142301	-1.0315585117	-0.231424
H	 0.7039281423	 2.0443149215	 0.3799967027	 0.124322
H	-0.4971900319	 1.9491503068	-0.9457063692	 0.13952
H	-1.0155870918	 1.801370346	 0.7519486882	 0.142592
H	 1.2757996654	-2.5187407923	-1.0499270396	 0.150153
H	-0.1772093116	-2.2525654656	-0.0609779484	 0.137742
H	-1.1879136642	-1.0459426574	-3.7064808404	 0.147598
H	 2.164129787	 1.0806684575	-1.2907494971	 0.101242
