17
gdb 119370	3.06062	1.08702	0.93927	1.4351	69.38	-0.2547	-0.0108	0.244	1266.1222	0.13385	-458.899696	-458.890924	-458.88998	-458.933944	31.691	
O	-0.0732553708	 1.4133697479	-0.0983589188	-0.420124
C	 0.0133865149	 0.0020306245	 0.0103608033	-0.086713
C	-1.4164494663	-0.5360612415	-0.0046056569	-0.335638
C	-1.4640096934	-2.0241256151	 0.1103640708	 0.282739
C	-2.6543455531	-3.0172942154	 0.0396237599	-0.276876
C	-1.3808295246	-3.8876136092	-0.049767603	-0.069161
O	-0.789081179	-2.8596855723	-0.9454037776	-0.335708
C	-0.7656995345	-3.0259653486	 1.081819088	 0.44102
O	-0.0500530994	-3.0711665891	 2.0279435378	-0.319465
H	 0.8200010632	 1.7690991263	-0.1034190679	 0.289298
H	 0.5766671314	-0.4370031952	-0.8258938002	 0.109689
H	 0.5106661551	-0.3043857035	 0.942886407	 0.112401
H	-1.9732111408	-0.1035488543	 0.8350027526	 0.127484
H	-1.9181031906	-0.2139200068	-0.9239858206	 0.126426
H	-3.3070478482	-3.1196725314	 0.9106308525	 0.114957
H	-3.1971159469	-2.9614335284	-0.9055950475	 0.122673
H	-1.2593653371	-4.9306036381	-0.3311606996	 0.116998
