17
gdb 25895	2.65772	1.51624	0.97258	4.4487	79.24	-0.183	-0.0194	0.1636	1170.5705	0.136894	-418.070821	-418.062131	-418.061187	-418.10412	32.896	
C	-0.0116560018	 1.4605114357	-0.0117311204	-0.488659
C	 0.0171919673	-0.061623168	-0.0218626808	 0.305398
O	 1.0906032128	-0.6556110295	-0.0114574274	-0.361023
C	-1.2525521569	-0.7714885951	-0.0331847227	 0.13012
C	-2.5348964646	-0.22966868	 0.0206706654	-0.16199
N	-3.4176392276	-1.2503622588	 0.0478454165	-0.243056
C	-2.7556709376	-2.4706281622	 0.0041408184	-0.159967
C	-1.4045421321	-2.2075626035	-0.0500702151	 0.176311
N	-0.3543582587	-3.1047270615	-0.1729187269	-0.611398
H	 1.0125348083	 1.8348130652	-0.0042213577	 0.137145
H	-0.5339793134	 1.8447181067	-0.894377366	 0.133173
H	-0.5412174727	 1.8335791551	 0.8714836314	 0.131556
H	-2.8615182699	 0.7970558849	 0.0504824351	 0.129065
H	-4.4163514505	-1.1466714435	 0.0863096397	 0.265979
H	-3.3000327967	-3.3999885621	 0.0053367906	 0.11417
H	-0.4894935718	-3.9930766661	 0.2859511303	 0.236602
H	 0.5367878561	-2.6692365271	 0.0328978097	 0.266574
