23
gdb 85909	2.47475	1.46918	1.27582	1.3271	85.04	-0.2436	0.0849	0.3286	1161.2712	0.205104	-388.30501	-388.295792	-388.294847	-388.338006	36.784	
C	 0.1215761358	 1.5679686267	-0.0730541309	-0.399035
C	 0.049250858	 0.0539569513	 0.0612890613	 0.11807
O	 0.692127807	-0.5333631897	-1.0728328398	-0.309894
C	 1.1451779047	-1.8617969198	-0.7454430831	 0.366765
C	 0.0230860473	-2.8812732994	-0.9939740388	-0.421565
C	 2.3493219425	-2.1498265483	-1.6399004461	-0.420089
C	 1.4676467247	-1.7792036971	 0.7476728449	-0.058462
C	 2.2622818255	-0.5828729917	 1.2035032306	-0.316161
C	 0.7560009549	-0.5557086601	 1.2650092877	-0.055297
H	 1.1602982931	 1.909471321	-0.0579704923	 0.119751
H	-0.3343359354	 1.8885429855	-1.0141080663	 0.122737
H	-0.4157560352	 2.0487421242	 0.7505661369	 0.11063
H	-1.0115379739	-0.2487187835	 0.0916504039	 0.062932
H	-0.2879742432	-2.8497777186	-2.042166862	 0.118447
H	 0.3609261262	-3.8975477929	-0.7650131881	 0.10944
H	-0.8488580065	-2.6687497428	-0.3685227531	 0.114739
H	 3.1495166345	-1.428575387	-1.4577771033	 0.117413
H	 2.7379836853	-3.1552128949	-1.4501256199	 0.109514
H	 2.0629475302	-2.0863917712	-2.6940039603	 0.119495
H	 1.5103054214	-2.7010272928	 1.3165871969	 0.080436
H	 2.7974547828	-0.6700554976	 2.1424549441	 0.107354
H	 2.760597017	 0.0242550863	 0.4547444117	 0.120345
H	 0.2536101729	-0.5428456776	 2.225405156	 0.082436
