16
gdb 115041	2.32001	1.60005	1.07368	4.4689	66.18	-0.2488	-0.0194	0.2294	1110.7281	0.123136	-475.028649	-475.020106	-475.019162	-475.062777	29.654	
C	-0.035244174	 1.4178432133	-0.0317997606	-0.249097
O	-0.0400736818	 0.0052597908	 0.127830076	-0.224687
C	-1.2806463444	-0.5880752437	-0.019309596	 0.192313
O	-1.7382309919	-0.5045197326	-1.3899267887	-0.229658
C	-1.6427045248	-1.7689532752	-1.8844332805	 0.114342
N	-1.3391563288	-2.7247811853	-1.1136502598	-0.237271
C	-1.1558844605	-2.1231105446	 0.2076922195	-0.145171
C	 0.1641768764	-2.5001501344	 0.8794031847	 0.175402
O	 0.9972917501	-3.2144877032	 0.3985398605	-0.226214
H	 0.9812970777	 1.7536687459	 0.1781115008	 0.142564
H	-0.3122810845	 1.701262316	-1.0526352169	 0.137886
H	-0.7286985864	 1.8956062111	 0.6748679489	 0.115672
H	-2.0386192787	-0.0810518107	 0.5908995908	 0.086899
H	-1.8590352119	-1.8546230356	-2.9431289835	 0.149764
H	-1.954647974	-2.4684264091	 0.8797757204	 0.115753
H	 0.2763592875	-2.0670900526	 1.8975292943	 0.081504
