21
gdb 71665	2.68408	1.9956	1.74838	0.1028	84.22	-0.2529	0.0976	0.3504	921.8879	0.1861	-349.953382	-349.946686	-349.945742	-349.983844	29.37	
C	-0.0229474841	 1.5459210835	-0.0230785791	-0.508628
C	 0.0350916797	 0.0351855371	-0.0066202178	 0.343152
C	 0.9131553877	-0.7907866806	-0.9987237098	-0.267701
C	 0.7302219181	-1.9107350637	 0.064112099	-0.055689
C	-0.7866316641	-2.1728442061	 0.0557405656	-0.063752
C	-1.4178498545	-1.5457184342	 1.285705693	-0.072253
C	-0.3050905599	-1.1104054336	 2.2221113563	-0.25141
C	 0.7246701971	-0.7816197812	 1.150385209	-0.065084
C	-1.2977781195	-0.7464506537	 0.0008134177	-0.099803
H	 0.9796767077	 1.9853404082	 0.0126682257	 0.110171
H	-0.5138927074	 1.9129442571	-0.9324140682	 0.113467
H	-0.5894245718	 1.9317044296	 0.8322754556	 0.115964
H	 0.5250322048	-0.9676893729	-2.0067798741	 0.083398
H	 1.9423349913	-0.4211191018	-1.0538842176	 0.085814
H	 1.3977705828	-2.7705681828	 0.1252543319	 0.055179
H	-1.2418008276	-2.9903829361	-0.4874627274	 0.078279
H	-2.3842910393	-1.880099802	 1.6443462424	 0.076032
H	-0.5759236665	-0.239199087	 2.8301674663	 0.093809
H	 0.0239362878	-1.9115740139	 2.894195216	 0.093597
H	 1.7033279002	-0.4160210897	 1.4603614464	 0.060877
H	-2.1538365627	-0.4387923361	-0.5862913009	 0.074581
