11
gdb 603	6.69577	2.91901	2.30451	3.7031	47.35	-0.2985	-0.0034	0.2951	546.1016	0.083973	-285.281493	-285.275526	-285.274582	-285.310917	20.526	
C	-0.0749202702	 1.531291149	-0.048888057	-0.427901
C	-0.0310611609	 0.0340298045	 0.0822065221	 0.093718
O	 1.2191650578	-0.6141073064	-0.152405723	-0.227616
C	 0.6875756551	-0.6670322532	 1.1716644058	-0.098177
C	 1.4041673246	 0.0705360797	 2.1902833646	 0.300072
N	 1.9607433405	 0.6474530073	 3.0229964762	-0.323884
H	 0.7821520469	 1.9967683965	 0.4425503041	 0.155103
H	-0.066977306	 1.813081667	-1.106305193	 0.141212
H	-0.9936525842	 1.9232981945	 0.3989923285	 0.13631
H	-0.8839816337	-0.5056034292	-0.3325468623	 0.11095
H	 0.3412781501	-1.6471411699	 1.494850584	 0.140216
