15
gdb 68651	2.57516	2.05163	1.56472	3.2557	64.01	-0.2576	-0.0292	0.2285	866.1812	0.114094	-457.79518	-457.788561	-457.787616	-457.825816	27.215	
O	 0.0852225337	 1.3955724689	 0.0964281834	-0.497256
C	 0.0179805339	 0.0157792639	 0.0939344617	 0.256006
C	-1.3575116761	-0.7172187004	-0.0150898604	-0.276009
C	-0.6507030158	-2.0812358011	-0.040266431	 0.039794
O	 0.2538058043	-1.9020752093	-1.216626598	-0.240303
C	 0.6686257737	-0.6233924781	-1.1496137362	 0.411537
O	 1.3836839353	-0.064628429	-1.9361180427	-0.377162
C	 0.2126216816	-2.0024530702	 1.2105100245	-0.08427
C	 0.6288120226	-0.7364838623	 1.2806704492	-0.129763
H	 0.6334282554	 1.6401967484	-0.6649234789	 0.297571
H	-1.9849662482	-0.5600882466	 0.8622488919	 0.125988
H	-1.9049429398	-0.4985683619	-0.9360954731	 0.122216
H	-1.2254147353	-2.9832865842	-0.2273749921	 0.103044
H	 0.4866582847	-2.8433556457	 1.8316116971	 0.121231
H	 1.3241498902	-0.2743062326	 1.9681002447	 0.127376
