23
gdb 63436	3.63152	0.7662	0.75453	2.7936	87.09	-0.246	-0.0188	0.2272	1639.6143	0.20319	-388.302462	-388.292227	-388.291283	-388.338411	37.81	
C	 0.2127667598	 1.5472771661	 0.1803409315	-0.448553
C	 0.0288909514	 0.0395461746	 0.0382889104	 0.352066
C	-1.4388084746	-0.3073533879	-0.2246137591	-0.434384
C	 0.9910402395	-0.6774653934	-0.9646041527	-0.284673
C	 1.2460142539	-1.7830046155	 0.0955421304	 0.032828
C	 2.6798246893	-2.2867433089	 0.2816243504	-0.299746
C	 2.7727098677	-3.3054557662	 1.3939984269	 0.165579
O	 3.4539597174	-3.1969540963	 2.380873286	-0.24052
C	 0.645779138	-0.8388695247	 1.1748834091	-0.270668
H	 1.2594430443	 1.8042540873	 0.3744325803	 0.108108
H	-0.0974936789	 2.0709353651	-0.731741952	 0.111579
H	-0.3874330825	 1.9422499243	 1.0086155088	 0.113155
H	-1.796392125	 0.1721731985	-1.1430712907	 0.111905
H	-1.5886513787	-1.3868541966	-0.3335117755	 0.109984
H	-2.0745156018	 0.0336495422	 0.6004934164	 0.113222
H	 0.5717552192	-0.9890395745	-1.9257374263	 0.094168
H	 1.8926966833	-0.0859698085	-1.1539390701	 0.094809
H	 0.5840176529	-2.6388977364	-0.0773782843	 0.075468
H	 3.0118303268	-2.7750235629	-0.6468638716	 0.115034
H	 3.3662230502	-1.4627594088	 0.5008483667	 0.114577
H	 2.1264734954	-4.2036308439	 1.2426659592	 0.067213
H	 1.4290953331	-0.305636772	 1.7233343843	 0.10224
H	-0.0466179507	-1.2750381617	 1.900572542	 0.096607
