15
gdb 72015	2.62251	1.98197	1.48169	3.5451	64.46	-0.2279	-0.0209	0.207	885.296	0.112695	-457.718339	-457.711513	-457.710569	-457.749352	27.404	
O	-0.0459806989	 1.4266184381	-0.1045899005	-0.467954
C	 0.0199545521	 0.0494400966	-0.1033368886	 0.375752
C	 0.4662123242	-0.8544155571	-1.2708348891	-0.314567
C	-0.2762496955	-1.9163031437	-0.4342080646	 0.08352
O	 0.5816446248	-2.0564988921	 0.7245296253	-0.268237
C	 0.4227224867	-0.7272034163	 1.2381787231	-0.13918
C	-1.0894110339	-0.7242836962	 1.5662354593	 0.472561
O	-1.7706768858	-0.5313866736	 2.5260089815	-0.314639
C	-1.301007543	-0.8231421196	 0.061138342	-0.252325
H	 0.836667388	 1.7837721109	 0.0460077899	 0.293035
H	-0.0696201503	-0.5886735892	-2.1846400452	 0.119021
H	 1.5285580505	-1.0220708383	-1.463308139	 0.107557
H	-0.5845905301	-2.8864942672	-0.8137816513	 0.102231
H	 1.2221599655	-0.4379203013	 1.9168920562	 0.097731
H	-2.2281363844	-0.6519798209	-0.4774179791	 0.105494
