19
gdb 73802	2.43676	1.35696	1.03622	3.5332	83.12	-0.2342	0.0063	0.2405	1219.9683	0.159274	-382.098436	-382.089011	-382.088067	-382.132731	34.106	
C	 0.0773803885	 1.5526139488	-0.0662350445	-0.49806
C	 0.0186165276	 0.0589004705	-0.0620012766	 0.217939
C	-1.0481305254	-0.7372859157	 0.0551230278	 0.231532
C	-2.4933431575	-0.3992253237	 0.2252601676	-0.50577
C	-0.603405128	-2.1948834943	 0.0267799918	-0.185791
N	 0.7923433979	-2.1221657863	-0.4159566441	-0.314198
C	 1.2826606789	-0.756559321	-0.1836811425	-0.24523
C	-0.7695691712	-2.8204239234	 1.3605434417	 0.251139
N	-0.8724108741	-3.3154098021	 2.4009872699	-0.334392
H	 0.7158038841	 1.9196820433	 0.7472456693	 0.135112
H	 0.5161847972	 1.9248450957	-1.0002270064	 0.133623
H	-0.9081985985	 2.0082503895	 0.0492781478	 0.130162
H	-3.0947344413	-0.8097043288	-0.5958455855	 0.131838
H	-2.8900367233	-0.8296963223	 1.1529946618	 0.148877
H	-2.6603031459	 0.6793819581	 0.2567845762	 0.130685
H	-1.2054842132	-2.7892304183	-0.6766539795	 0.121372
H	 1.3719349776	-2.8317056669	 0.0125480345	 0.235333
H	 1.9091291993	-0.4252310416	-1.0239440964	 0.110583
H	 1.8972515574	-0.6537049717	 0.7279229972	 0.105246
