16
gdb 60324	4.24004	0.84066	0.81394	4.8817	67.93	-0.2868	-0.0715	0.2153	1429.0946	0.121944	-475.05279	-475.043193	-475.042249	-475.08798	33.414	
C	 0.1118293731	 1.3229306495	 0.2398511667	-0.404474
C	-0.1410596429	-0.1667912511	-0.0014356986	 0.130811
O	 0.0055837829	-0.9384226182	 1.1770882469	-0.423967
C	-1.5156706231	-0.3739885819	-0.6439697545	-0.120694
O	-1.779218413	-1.7807912493	-0.8546119997	-0.221661
C	-2.38764192	-2.4249629085	 0.1372405603	 0.380977
O	-2.7811417773	-1.9696159903	 1.1787164228	-0.354001
C	-2.5608065359	-3.8380854824	-0.2193972642	 0.262006
N	-2.7261698586	-4.9575102471	-0.4489803838	-0.303591
H	 1.0923445173	 1.456090184	 0.7023407841	 0.140455
H	 0.0888484782	 1.8925751486	-0.6952028721	 0.121388
H	-0.6434400009	 1.7435198671	 0.913984045	 0.119761
H	 0.6194739465	-0.5602418584	-0.6858900236	 0.10746
H	-0.7417395821	-0.7585673026	 1.7602828629	 0.292001
H	-2.3100798991	 0.0451020092	-0.0201457755	 0.13773
H	-1.556158705	 0.0731193612	-1.6389813366	 0.135799
