11
gdb 1827	6.45324	2.37848	1.75714	3.1921	48.63	-0.2778	-0.0052	0.2726	649.3632	0.080072	-376.634518	-376.628525	-376.627581	-376.665034	20.887	
N	-0.0691958881	 1.256393152	 0.0080563488	-0.517566
C	-0.0335384247	 0.0018645006	 0.0008970735	 0.413249
C	-1.240271687	-0.9194303717	 0.0026904825	-0.248381
N	-0.5923832775	-2.2096790458	-0.006619553	-0.366283
C	 0.7668749039	-2.1338543612	-0.0153140533	 0.48854
O	 1.5850583453	-3.0030911142	-0.0254747691	-0.369109
O	 1.1026590448	-0.774539336	-0.0099714274	-0.226221
H	 0.8704830571	 1.6547080351	 0.0048290085	 0.241452
H	-1.853686736	-0.750058243	 0.8946375061	 0.153954
H	-1.8626570951	-0.7416871813	-0.8814176674	 0.153899
H	-1.0549813028	-3.1012914045	-0.0110527992	 0.276466
