18
gdb 14701	9.1594	0.55392	0.53954	1.6507	75.09	-0.2452	0.0397	0.2849	2036.3141	0.150901	-384.889818	-384.879622	-384.878677	-384.927258	33.515	
C	-0.2519474464	 1.2835061866	-0.5530671227	-0.217789
O	-0.3134728155	-0.12309114	-0.5402821618	-0.227678
C	-1.0236784388	-0.6120735901	 0.5824329456	-0.202382
C	-1.0611102814	-2.0675867534	 0.5622522361	 0.016025
C	-1.0965339124	-3.2706352355	 0.573849279	 0.110997
C	-1.1570582732	-4.7256301362	 0.5590580477	-0.327497
C	-2.1820524752	-5.2649619846	-0.4447606697	-0.064246
O	-2.1436478262	-6.6788654135	-0.3533471378	-0.415264
H	 0.3081221819	 1.574769342	-1.4444063523	 0.13027
H	-1.2548164946	 1.738366482	-0.5979650642	 0.103232
H	 0.2630524884	 1.6803408006	 0.3367626546	 0.103995
H	-0.5486386176	-0.263255352	 1.5166092	 0.113167
H	-2.0522691976	-0.2094790758	 0.5879215312	 0.111099
H	-0.1746019859	-5.1463316999	 0.3127230215	 0.140122
H	-1.4140872432	-5.1059351811	 1.5553611238	 0.137972
H	-3.177948839	-4.8667544219	-0.199275402	 0.097105
H	-1.9232943275	-4.9131694768	-1.4543077897	 0.101646
H	-2.766842346	-7.0398340104	-0.9901497991	 0.289225
