19
gdb 107490	2.31229	1.69716	1.27061	1.2733	75.69	-0.2237	0.0742	0.2979	1071.7663	0.157261	-422.945957	-422.937385	-422.936441	-422.978983	32.788	
C	 0.0659092923	 1.4129420081	 0.2291834445	-0.253454
O	-0.0397658518	 0.0097897152	 0.0186507794	-0.274424
C	 0.5899527276	-0.4527550212	-1.1087879209	 0.268007
C	 1.5217035601	-1.6380086773	-1.0655084495	-0.343755
C	 1.9973285972	-0.336435091	-1.6616573076	-0.000291
O	 1.5219224211	-0.1891466723	-3.0060462045	-0.31406
C	 0.1573385532	-0.240086279	-2.5465537326	 0.39997
C	-0.9290299791	-0.8588075169	-3.3580548366	-0.339484
C	-0.8942172843	 0.6467605844	-3.1219513699	-0.352193
H	 1.1143397377	 1.7154368433	 0.3502992203	 0.112989
H	-0.3701171445	 1.9880635523	-0.595621055	 0.122982
H	-0.4814424303	 1.6316477535	 1.1484900195	 0.129893
H	 1.9066474623	-1.8425262526	-0.0707231631	 0.118875
H	 1.3633833733	-2.5053348231	-1.7004375129	 0.115496
H	 2.8877220981	 0.2085114668	-1.3749236455	 0.110725
H	-0.6622559557	-1.2129361151	-4.3476719082	 0.126799
H	-1.6858914015	-1.4459016448	-2.8481837859	 0.122112
H	-1.6337285537	 1.0753963975	-2.4540123191	 0.122378
H	-0.6026746821	 1.2807078222	-3.9523500623	 0.127438
