19
gdb 97412	4.95419	0.88609	0.81906	1.8711	79.	-0.2381	0.0247	0.2629	1444.8366	0.159154	-419.154479	-419.145842	-419.144898	-419.18843	31.737	
C	-0.5382916645	 1.1361182153	-0.5777027354	-0.314479
N	-1.1311429885	-0.1728155899	-0.38904773	-0.233837
C	-0.8247773662	-0.8068582391	 0.6576909208	 0.125067
O	-1.3000984698	-2.0247758662	 0.9661199845	-0.238954
C	-2.238541591	-2.5807661665	 0.0413246012	 0.143831
C	-1.7232362519	-3.1741781015	-1.2899148319	-0.189887
N	-2.3123316928	-4.5249303104	-0.9635988588	-0.129046
C	-1.6102308904	-4.9599323234	 0.252073911	-0.231786
C	-2.6987986225	-3.9742675807	 0.4090715889	-0.072285
H	 0.027628421	 1.1532042368	-1.5160891267	 0.127993
H	-1.3284431304	 1.8900408485	-0.6688417753	 0.128309
H	 0.1365170744	 1.4413523482	 0.2378852011	 0.099644
H	-0.1410761121	-0.4604757101	 1.4418927272	 0.10244
H	-3.0496984681	-1.8674001159	-0.113337606	 0.107103
H	-2.1978010798	-2.7429814967	-2.1713515121	 0.123098
H	-0.6379135925	-3.1877035512	-1.425425851	 0.110845
H	-1.8346045466	-5.9850511756	 0.5298278851	 0.123539
H	-0.5774278598	-4.6571838617	 0.4089972646	 0.119796
H	-3.6459713686	-4.2177584699	 0.8778519328	 0.09861
