16
gdb 64524	3.78928	1.43015	1.28931	1.4638	68.64	-0.2602	-0.0415	0.2187	981.8151	0.124646	-437.8335	-437.826387	-437.825443	-437.864926	28.086	
O	 0.0258054907	 1.4475211965	-0.0518287748	-0.491419
C	-0.0348840218	 0.0637135482	-0.059375719	 0.356617
C	 0.7822821948	-0.5132547281	 1.0729572003	 0.104346
O	 1.4028634797	 0.2023464919	 1.8241031686	-0.283335
C	-1.385117299	-0.6372093814	-0.1660785207	-0.119789
C	-1.7465498876	-0.7436771295	-1.6083688785	-0.041506
C	-0.6533764055	-0.0951663973	-2.4384712108	-0.245122
C	 0.2799228503	-0.7100633237	-1.3825572964	-0.081349
N	-0.8116213346	-1.7562534699	-1.0085665264	-0.168499
H	 0.6280427971	 1.6823442228	 0.674187655	 0.293364
H	 0.7858898134	-1.6150435899	 1.1646515698	 0.125285
H	-2.0937656828	-0.8342705413	 0.6301911657	 0.104853
H	-2.7492529028	-1.0218913863	-1.9115446663	 0.107149
H	-0.5386388453	-0.6020873247	-3.3994672569	 0.116949
H	-0.6427471419	 0.9894256395	-2.5670106935	 0.127851
H	 1.2904259853	-1.0382473069	-1.6182360061	 0.094605
