19
gdb 54833	2.77311	1.31493	1.236	1.8183	75.22	-0.232	0.0161	0.2481	1125.4907	0.15893	-419.19883	-419.189704	-419.18876	-419.232927	34.102	
C	-0.43328836	 1.4835295981	-0.234414854	-0.491873
C	-0.1096184231	 0.0210289235	-0.1633910947	 0.343767
C	-1.0154332012	-1.0978549783	-0.6866563097	-0.303501
C	-0.684475822	-1.8568663419	 0.620638222	-0.158263
N	 0.14823958	-0.7169743128	 1.1617517655	-0.203777
C	 1.2297447916	-0.4908193663	 0.1626695936	-0.15783
C	 1.9297118926	-1.6234074484	-0.563468164	 0.358776
N	 2.685886282	-2.3997278892	 0.2665218417	-0.511153
O	 1.8639132982	-1.8032208727	-1.7638248059	-0.35492
H	-0.2999459831	 1.8550038023	-1.257221817	 0.131457
H	-1.4709308687	 1.6723069931	 0.060568786	 0.122296
H	 0.219400544	 2.0628727565	 0.4251507644	 0.126332
H	-2.0626353725	-0.7933831022	-0.7414474382	 0.101792
H	-0.7138132704	-1.5494546957	-1.632455381	 0.134788
H	-1.5445477982	-2.0108809427	 1.2745137739	 0.109446
H	-0.1403189523	-2.8022088786	 0.5291356626	 0.106634
H	 1.932743937	 0.2531374322	 0.5355424665	 0.112455
H	 2.6236850959	-2.303917122	 1.2659660396	 0.271433
H	 3.1533113001	-3.2043525448	-0.1188880511	 0.26214
