22
gdb 56811	2.26554	1.32511	0.97227	1.5139	88.72	-0.2185	0.0529	0.2715	1314.7202	0.1907	-367.150872	-367.140155	-367.139211	-367.186306	39.59	
C	-0.050785212	 2.5307208267	 2.7530275091	-0.386833
C	 0.1682180832	 1.6760042377	 1.4927100476	-0.142222
C	 1.1337909896	 2.3133848855	 0.5922211583	 0.367268
C	 1.9178235897	 2.8545356076	-0.1404853211	-0.466674
N	 0.6786749799	 0.3623229042	 1.901449874	-0.10252
C	-0.2461113423	-0.739275186	 2.209656379	-0.007093
C	-1.755828915	-0.6309292654	 2.1507939144	-0.417572
C	 0.622881909	-0.7855060053	 0.9904257322	 0.005385
C	 0.0819293881	-0.7123630087	-0.4224455033	-0.418213
H	 0.8840552126	 2.6129944115	 3.311904305	 0.136564
H	-0.3950326759	 3.5322934868	 2.482458492	 0.12065
H	-0.8017003061	 2.0637181055	 3.3965888622	 0.115707
H	-0.7911280564	 1.6194766018	 0.9544531756	 0.085189
H	 2.6119639245	 3.3286387404	-0.7892768815	 0.194086
H	 0.0901760719	-1.3161018174	 3.0717047662	 0.086792
H	-2.1268628468	-0.1142308323	 1.2641010195	 0.121993
H	-2.1929144918	-1.6353703927	 2.1498337423	 0.122824
H	-2.1454060823	-0.1074388276	 3.0309647269	 0.1251
H	 1.523165868	-1.397155953	 1.0556238811	 0.086137
H	-0.8595054886	-0.1656381419	-0.5023432861	 0.11716
H	 0.8050676963	-0.2235541992	-1.0823416654	 0.137871
H	-0.0902875556	-1.7246095183	-0.8039583279	 0.118403
