15
gdb 74174	2.32125	1.49045	0.90895	6.3229	78.18	-0.1942	-0.0217	0.1725	1203.8603	0.113048	-453.988312	-453.979898	-453.978954	-454.021048	31.785	
N	-0.0552389776	 1.4196015263	 0.1322146643	-0.605799
C	-0.0245741254	 0.0439206689	 0.0591563513	 0.224247
C	-1.1680456477	-0.803036199	 0.0729026015	-0.345927
C	-0.6731940398	-2.0862169817	 0.0578468607	 0.41784
N	-1.2889070472	-3.3066732723	 0.1251310257	-0.594099
H	-2.2426892274	-3.334548219	-0.1990418187	 0.26588
H	-0.7253780015	-4.0797167067	-0.1980269904	 0.2719
O	 0.6595822363	-2.1077547875	 0.0306184067	-0.198906
C	 1.0955195106	-0.778830447	 0.0293935512	 0.197151
C	 2.4905540111	-0.4995467747	-0.0160407077	 0.046608
O	 3.4041016469	-1.3064695904	-0.0532700647	-0.32865
H	 0.7830675752	 1.899637359	-0.1569565876	 0.260578
H	-0.8917502959	 1.853238324	-0.2271963706	 0.256201
H	-2.2044768755	-0.5077964271	 0.1100211534	 0.100808
H	 2.6976164379	 0.5993514273	-0.017112795	 0.03217
