15
gdb 45760	2.88563	1.53478	1.18455	2.322	65.77	-0.251	-0.0232	0.2278	1023.1882	0.113725	-453.962199	-453.954676	-453.953732	-453.994872	27.564	
O	-0.0401529486	 0.0100152649	 0.2048310233	-0.361662
C	-0.0034197851	 1.2090476676	 0.1002743202	 0.433047
N	-1.0802095702	 2.090006018	 0.1318211629	-0.336591
C	-0.6051214493	 3.3864671115	-0.0180821273	 0.076144
N	 0.6564583034	 3.5096747538	-0.1648565277	-0.239229
C	 1.2044193809	 2.1519111057	-0.0852573456	-0.162353
C	 2.1951965245	 1.973829867	 1.0535995286	 0.083897
C	 2.9251066036	 3.1034979198	 1.6345623477	-0.176068
O	 1.8113439605	 2.5090418112	 2.3144314338	-0.235519
H	-2.0351493499	 1.8113578688	 0.289535041	 0.273351
H	-1.3037619432	 4.2168151446	-0.0188915613	 0.145872
H	 1.7132497329	 1.8979921168	-1.0240969044	 0.130068
H	 2.626160792	 0.9733918707	 1.0943061416	 0.11399
H	 3.8958217015	 2.9315706712	 2.096512656	 0.116506
H	 2.744145717	 4.1007021785	 1.2430484413	 0.138545
