23
gdb 118170	5.84063	0.51739	0.49646	1.1587	92.31	-0.2386	0.0552	0.2938	2314.6271	0.202139	-388.276401	-388.264402	-388.263458	-388.31587	41.126	
C	 0.0812590852	 1.6236330971	-0.0446981412	-0.382132
C	 0.0653343129	 0.0931271151	-0.043472993	-0.168538
C	 0.6599195579	-0.5133160334	 1.2314023064	-0.177241
C	 0.7100901039	-2.0465959683	 1.208691784	 0.13128
O	 1.4547372955	-2.5341659287	 0.1009582287	-0.420321
C	 1.2432423248	-2.6108486281	 2.5451191018	-0.39547
C	 1.2587756631	-4.0671088365	 2.6045230565	 0.04464
C	 1.258905928	-5.2701047315	 2.647154579	 0.108434
C	 1.2618038548	-6.7252741242	 2.6935054238	-0.497811
H	 1.1035684918	 2.0101791666	 0.0372928741	 0.110929
H	-0.3518700215	 2.0253072434	-0.9660866831	 0.112376
H	-0.4916361058	 2.0300911777	 0.7965990528	 0.111306
H	-0.9661563357	-0.2642125184	-0.1620251513	 0.094419
H	 0.619843913	-0.291964768	-0.905618021	 0.110629
H	 1.6810533719	-0.1294148422	 1.3822511078	 0.080624
H	 0.0806640054	-0.1863694841	 2.1055670371	 0.092027
H	-0.3017841064	-2.438601738	 1.0499443267	 0.095826
H	 2.3774077646	-2.2888721233	 0.234616981	 0.276355
H	 2.2578539708	-2.216263904	 2.7088680284	 0.111154
H	 0.6325082653	-2.2082947215	 3.3640876733	 0.124627
H	 2.2093102002	-7.1106789413	 3.086663881	 0.14411
H	 0.4591678593	-7.1077312174	 3.3340523174	 0.144016
H	 1.1203726509	-7.1539911311	 1.6950965599	 0.148763
