23
gdb 122902	4.97758	0.55845	0.51924	1.0206	90.02	-0.2557	0.0573	0.313	2181.1946	0.202187	-388.259402	-388.247929	-388.246985	-388.297074	40.403	
C	 0.050000463	 1.4878726632	 0.0140277947	-0.382518
C	-0.0314516089	-0.0403629649	-0.0010629935	-0.183546
C	-1.4672154183	-0.5462653725	 0.0161771856	-0.031755
O	-1.4534394613	-1.9590168292	 0.0048058325	-0.249618
C	-2.7395531095	-2.5335256968	 0.0163615849	-0.051869
C	-2.5809577831	-4.0632649547	 0.0437573636	-0.16465
C	-1.8445939396	-4.5350868126	 1.3123545504	-0.384527
C	-3.8887306714	-4.7002473499	-0.0910080771	 0.31324
C	-4.9739993205	-5.2094657505	-0.182004128	-0.471986
H	 1.0901567076	 1.8256178559	 0.0010290936	 0.118033
H	-0.450973227	 1.9238832173	-0.8574108996	 0.11694
H	-0.4228466531	 1.9046770359	 0.910198617	 0.116804
H	 0.4671719657	-0.4396982245	-0.8916512632	 0.10698
H	 0.4945326149	-0.4581063267	 0.8651034147	 0.106388
H	-1.9942009112	-0.1772066308	 0.9133514707	 0.084595
H	-2.0200058599	-0.1629513498	-0.8593004286	 0.08452
H	-3.310905391	-2.2028911184	 0.9000313948	 0.093092
H	-3.3104594452	-2.2323091671	-0.8761578484	 0.096179
H	-1.9703017662	-4.3303739796	-0.8291912911	 0.114432
H	-1.6763567803	-5.6144564174	 1.2839835145	 0.121738
H	-0.8828017981	-4.0242384688	 1.3890861268	 0.133136
H	-2.4353528664	-4.306717151	 2.2049814454	 0.120478
H	-5.9271519804	-5.6685837371	-0.2717818994	 0.193913
