19
gdb 55926	4.02222	1.01831	0.90802	1.9051	75.99	-0.2608	0.0188	0.2796	1329.2444	0.158305	-423.03763	-423.02875	-423.027806	-423.072632	32.186	
C	-0.1466007228	 1.4350550349	-0.0489896631	-0.478256
C	-0.0095726294	-0.0577708469	 0.1343879607	 0.42777
O	 0.9541839491	-0.622606474	 0.5885124651	-0.356757
O	-1.1240415744	-0.6949198792	-0.2840974377	-0.255419
C	-1.1076540774	-2.1274788861	-0.1681899832	 0.149073
C	-1.4003507195	-2.748104455	 1.2322162234	-0.258853
C	-2.6044306834	-3.4700999274	 0.6139776538	-0.044941
C	-3.5649485244	-2.4589778245	 0.0669759123	-0.270858
C	-2.3416232442	-2.7957888696	-0.7432874695	-0.086707
H	 0.7580977607	 1.9292473424	 0.3028691286	 0.146507
H	-0.3142525733	 1.6691073503	-1.1041836036	 0.149003
H	-1.0141557777	 1.8033207896	 0.5059350959	 0.147476
H	-0.1705810786	-2.4995568445	-0.5838280301	 0.104419
H	-0.5926722778	-3.4010821756	 1.5654651554	 0.117149
H	-1.6339261744	-2.0355520012	 2.0288961894	 0.102448
H	-2.887009536	-4.4976820255	 0.8023792262	 0.091564
H	-4.4920156957	-2.8564648412	-0.3328866864	 0.113748
H	-3.6606569463	-1.4821675824	 0.5335622476	 0.114341
H	-2.4139069447	-3.207140124	-1.7423295649	 0.088291
