21
gdb 78073	2.20438	1.24336	1.2114	3.5708	84.21	-0.2374	-0.0181	0.2193	1214.3629	0.181417	-387.070249	-387.0609	-387.059956	-387.104389	34.916	
C	-0.176887694	 1.5272455451	-0.0341614169	-0.417449
C	 0.1647227939	 0.0410213061	-0.0365160562	 0.003324
C	 0.7612906662	-0.6445449916	-1.2764223051	-0.103522
C	 2.2019347019	-0.2852227888	-1.6106926043	-0.085679
C	 2.8568931198	 1.0474491692	-1.5872931646	 0.131197
O	 3.6475031353	 1.3942371885	-2.4337635068	-0.271366
C	 1.9007878235	-1.2192544389	-0.4474559159	-0.103484
C	 1.3494900802	-0.5565297859	 0.8253491492	 0.003308
C	 2.2296828198	 0.3135412751	 1.7163069487	-0.417439
H	 0.6770103106	 2.1697251411	-0.2605914409	 0.120162
H	-0.9512969049	 1.7397612911	-0.7795074972	 0.121152
H	-0.5688313404	 1.8301901107	 0.9430544289	 0.117353
H	-0.7462693816	-0.5048135605	 0.2314179317	 0.084212
H	 0.1697725469	-1.1350486071	-2.0414290413	 0.096357
H	 2.5522145211	-0.841593041	-2.4778855974	 0.108735
H	 2.5959902234	 1.7295212441	-0.7559766104	 0.073923
H	 2.3191933085	-2.2191310538	-0.4777110524	 0.096349
H	 0.9328065974	-1.3515982336	 1.452931777	 0.084209
H	 2.6736950431	 1.162787467	 1.1920699269	 0.12016
H	 1.6517143931	 0.7100798097	 2.5583636811	 0.117345
H	 3.0521851463	-0.2790797664	 2.131896396	 0.121153
