21
gdb 40026	3.31698	1.52877	1.42996	0.3147	85.02	-0.2385	0.0938	0.3324	1020.2389	0.185394	-349.923272	-349.916254	-349.91531	-349.954361	30.052	
C	-0.0059771279	 1.5190993053	 0.0074006129	-0.307106
C	 1.2974743127	 0.7552855253	-0.0155949447	-0.341915
C	-0.0096981823	 0.009941326	 0.0252991298	 0.396416
C	-0.4438632482	-0.7948623056	 1.2612377037	-0.29488
C	-1.5275123078	-1.7285072848	 0.704145098	-0.046588
C	-2.6903124814	-0.9127534951	 0.0434815593	-0.235324
C	-1.9852356709	-1.0734670149	-1.3033037935	-0.067325
C	-1.0430680988	-2.1166529467	-0.7263153111	-0.086273
C	-0.4931270985	-0.7894540134	-1.1646861158	-0.110401
H	-0.2723235322	 2.0463432212	 0.9182341462	 0.105041
H	-0.3216699575	 2.0184006305	-0.9032995748	 0.107297
H	 1.8696483791	 0.7442548178	-0.9382378145	 0.106403
H	 1.9080736687	 0.7602856997	 0.8821517011	 0.106302
H	 0.3964511043	-1.3822973404	 1.6530915976	 0.093978
H	-0.8147787103	-0.1596782539	 2.0731310024	 0.092593
H	-1.8314073324	-2.5275153067	 1.3802800155	 0.063631
H	-3.6318798857	-1.4677673431	 0.0676081351	 0.095793
H	-2.8642278919	 0.1022319472	 0.4190128805	 0.090219
H	-2.4607527843	-1.0576256877	-2.2776153618	 0.0762
H	-0.7435260613	-3.0884783499	-1.0955648831	 0.079247
H	 0.0575127066	-0.7337547209	-2.0980122927	 0.076692
