15
gdb 3730	6.79423	2.01952	1.73776	2.2096	62.93	-0.2366	0.0261	0.2626	747.651	0.127378	-304.724717	-304.718192	-304.717248	-304.755771	23.551	
C	-0.0203687273	 1.5299640749	-0.1696337519	-0.37156
C	-0.0520460156	 0.0286552924	 0.1173601747	-0.140893
N	-1.3933739219	-0.5265707884	 0.0373791094	 0.068234
C	-1.9189306984	-1.3082388247	-0.9382651525	-0.031037
C	-3.2367310968	-1.5412274905	-0.601085621	-0.234531
C	-3.4114833634	-0.84480128	 0.6110924949	 0.001413
N	-2.2944167968	-0.2297970848	 0.9946080292	-0.2692
H	 1.0003940525	 1.9112982671	-0.0695990334	 0.118024
H	-0.3716411666	 1.7423407754	-1.1837737995	 0.124179
H	-0.6630137066	 2.0599711464	 0.5370020207	 0.149936
H	 0.5680616996	-0.5211329334	-0.5963582928	 0.116953
H	 0.3323020044	-0.1754178364	 1.1210687799	 0.132012
H	-1.3230296459	-1.6343116351	-1.7763879763	 0.125663
H	-3.9559189162	-2.1307740159	-1.1457923842	 0.10208
H	-4.298740111	-0.7698710771	 1.2228648526	 0.108727
