27
gdb 101614	2.9404	0.80615	0.76053	1.3013	92.68	-0.258	0.0648	0.3228	1728.8662	0.248896	-390.708767	-390.696838	-390.695893	-390.745673	44.859	
C	 0.8762030429	 0.8165914826	-0.7343623891	-0.382683
C	 0.438739998	-0.6337870255	-0.5182393074	-0.179096
C	-1.0732218542	-0.7807979311	-0.2833434437	 0.116395
O	-1.8118165075	-0.2064612074	-1.3651245669	-0.421977
C	-1.4560089357	-2.2419240005	-0.0032548242	-0.218789
C	-2.9202576485	-2.5696993182	 0.3961275917	 0.274395
C	-3.8841461791	-2.4116362398	-0.7959436848	-0.413795
C	-2.952105641	-4.0390622884	 0.8614050952	-0.40049
C	-3.3878832693	-1.6704957536	 1.5551262959	-0.407823
H	 1.9459607099	 0.8799102958	-0.9553661342	 0.107055
H	 0.323363306	 1.2653333598	-1.5635109505	 0.12695
H	 0.6830716462	 1.4222618868	 0.1581470687	 0.112711
H	 0.7177644134	-1.2433238563	-1.3906897847	 0.083017
H	 0.9739963349	-1.065280821	 0.3366918857	 0.094749
H	-1.3463936384	-0.162057957	 0.5799623714	 0.087832
H	-1.646799166	-0.7464462844	-2.1466632769	 0.275286
H	-1.1891945709	-2.8447708778	-0.8852898348	 0.077197
H	-0.7993477409	-2.5939821346	 0.8038597007	 0.090678
H	-3.5899927373	-3.0638563953	-1.6273530441	 0.094041
H	-4.902687126	-2.6932897368	-0.5051376865	 0.101231
H	-3.8984918783	-1.3831460038	-1.1598279975	 0.134685
H	-2.3219580573	-4.192639343	 1.7447986179	 0.104694
H	-3.9716924414	-4.344654818	 1.1205616473	 0.106359
H	-2.5932911602	-4.7120290612	 0.0742470103	 0.104873
H	-3.4743458133	-0.6243082115	 1.2472196956	 0.123651
H	-4.372628559	-1.989180844	 1.9139749584	 0.106385
H	-2.6954634271	-1.7195276359	 2.4037641268	 0.10247
