17
gdb 98736	2.97592	0.94363	0.83586	3.9386	70.84	-0.2574	-0.0578	0.1996	1424.168	0.131958	-458.963485	-458.95386	-458.952916	-458.99948	33.06	
C	-0.4668693787	 1.6370868011	-0.1783503021	-0.382362
C	-0.4746475905	 0.1269929337	-0.3962071391	-0.29527
C	 0.7945484951	-0.398720091	-1.0404274693	 0.376014
O	 1.6900638326	 0.3155024665	-1.4247783633	-0.304634
C	 0.8686081509	-1.9081892907	-1.1709713297	-0.033566
O	 1.7210147287	-2.4404139772	-2.166607988	-0.217398
C	 2.1023231158	-2.674696082	-0.8173866992	-0.053353
C	 3.357709085	-1.9980054264	-0.3476304462	 0.131109
O	 3.9817432555	-2.4098506883	 0.5978396584	-0.244828
H	 0.3538847276	 1.9320356149	 0.4805141103	 0.136091
H	-0.329721147	 2.1644204139	-1.1253234402	 0.139607
H	-1.4072053007	 1.9661766952	 0.2712661042	 0.117068
H	-0.6233662516	-0.4182031025	 0.5474248337	 0.13086
H	-1.3173290405	-0.1810477979	-1.032665376	 0.133844
H	-0.0757761302	-2.4394825921	-1.0441419158	 0.111423
H	 1.9688042111	-3.6910884386	-0.4471262559	 0.124307
H	 3.6571949471	-1.1161358787	-0.941468592	 0.131088
