14
gdb 132087	2.97887	1.41944	0.96712	3.2776	70.21	-0.2305	-0.0648	0.1657	1114.9179	0.099511	-481.850899	-481.843168	-481.842224	-481.883345	28.619	
C	 0.0807101975	 1.5002890682	 0.0232001185	-0.482133
C	-0.045081569	 0.0160583159	 0.0074079649	 0.268501
C	-1.1923436042	-0.6855691277	-0.141567151	 0.137855
F	-2.3640558977	-0.0517782899	-0.2940328014	-0.079451
C	-1.1757759245	-2.1058662921	-0.1391214488	-0.137827
C	-0.0013795603	-2.764293019	 0.0137033176	-0.267803
C	 1.2472181916	-2.0469217657	 0.1759005923	 0.428588
O	 2.3482327125	-2.5040238511	 0.3191846584	-0.342167
O	 1.1241159523	-0.6415163959	 0.1595663081	-0.259665
H	 0.7463202805	 1.8344663845	-0.7797119524	 0.155708
H	-0.8971940367	 1.9648676534	-0.1047582899	 0.150916
H	 0.5177765724	 1.8351949486	 0.9698678024	 0.155705
H	-2.115405038	-2.6347199336	-0.2611664425	 0.136067
H	 0.0645014037	-3.8441586656	 0.0225026739	 0.135706
