17
gdb 88707	3.52573	0.98014	0.84154	3.0195	74.39	-0.2656	-0.0042	0.2614	1362.7453	0.135166	-417.96726	-417.958416	-417.957472	-418.001761	31.756	
C	-0.108761225	 1.5549954487	-0.0922674773	-0.39812
C	 0.0169475978	 0.0565863962	 0.0420417101	 0.005833
N	 1.3305865158	-0.5445464571	-0.2210869188	-0.342104
C	 0.76032943	-0.6395433434	 1.1336770942	-0.077692
C	 1.5153773525	 0.0912266537	 2.1909989567	 0.089455
O	 0.8887067746	 0.2217180266	 3.4685832021	-0.235125
C	 2.0627778611	-0.5871951726	 3.3901708515	-0.11463
C	 1.8839353164	-2.0092329681	 3.5921029611	 0.313427
N	 1.7610027693	-3.1476038704	 3.750785055	-0.33445
H	 0.8013020307	 2.0656936369	 0.2300747635	 0.126262
H	-0.287132039	 1.8273271417	-1.1376244756	 0.126527
H	-0.9479971509	 1.9286758722	 0.5033290941	 0.128481
H	-0.8514749504	-0.495153121	-0.3168168847	 0.094552
H	 1.2471248457	-1.4339969066	-0.7043350299	 0.24289
H	 0.3571812945	-1.5956665448	 1.4596871205	 0.113455
H	 2.0576477066	 0.9743322792	 1.8575974032	 0.118935
H	 2.9461938702	-0.1752863512	 3.8745022843	 0.142303
