18
gdb 12891	2.62262	2.19213	1.75262	1.0586	66.8	-0.2423	0.067	0.3094	848.0336	0.154562	-384.931463	-384.923807	-384.922862	-384.962797	30.059	
O	-0.3809879416	 1.5475866999	 0.0470506364	-0.420473
C	-0.1929157659	 0.1599278678	 0.0204679537	 0.014095
C	-0.4686055941	-0.7435224593	 1.2144136311	-0.136749
C	-1.2581723019	-0.1908903532	 2.3927879101	-0.220099
C	-2.5176008463	 0.4753927633	 1.7801451175	-0.210259
C	-2.7385656135	-0.2230854016	 0.4195946306	-0.270445
C	-1.3760415634	-0.7630549423	 0.001636776	 0.366525
O	-1.3457254798	-1.8689253435	-0.8541433207	-0.469969
H	 0.3097160587	 1.9300980161	 0.5985698883	 0.2892
H	 0.6325536219	-0.1740410721	-0.6095021245	 0.086787
H	 0.2344934624	-1.5525898466	 1.3819095343	 0.089041
H	-1.5361302172	-1.0251194703	 3.047128316	 0.103643
H	-0.6834249763	 0.5122351415	 3.006454126	 0.089093
H	-3.3888609974	 0.3848304538	 2.4346380732	 0.091586
H	-2.3310917642	 1.5375097185	 1.6186781992	 0.11569
H	-3.4048655208	-1.0878404825	 0.5166840953	 0.104914
H	-3.1787162505	 0.4514834345	-0.3227997202	 0.097032
H	-1.5530530702	-1.5608359938	-1.7434485822	 0.280386
