23
gdb 111140	3.31667	1.07678	0.95051	1.3665	86.5	-0.253	0.0763	0.3293	1361.4789	0.205012	-388.240677	-388.231205	-388.23026	-388.274595	37.111	
C	 0.1468648789	 1.4364736557	 0.1858848372	-0.372464
C	 0.1071534414	-0.0913531463	 0.3182900515	-0.231309
C	-1.3026139153	-0.6460330899	 0.137238248	 0.06381
C	-1.9832947541	-0.7449501869	-1.2706307995	-0.138869
C	-1.0557070738	-1.9630384381	-1.565153458	-0.241719
C	-1.5658942441	-2.1696362161	-0.1024442592	-0.126415
C	-2.9821620205	-1.7825222078	-0.6289733607	 0.478875
C	-4.0982819201	-1.3302577871	 0.3078806801	-0.488026
O	-3.5161068181	-2.7724013412	-1.4955467933	-0.485631
H	 1.1521639113	 1.8258435825	 0.3745764911	 0.110302
H	-0.1511124646	 1.7542314513	-0.8190664617	 0.116831
H	-0.5344337238	 1.9152891533	 0.8983732168	 0.111148
H	 0.819506744	-0.532017092	-0.3846951647	 0.099268
H	 0.4580752932	-0.3755172377	 1.3195003409	 0.094299
H	-1.9320222996	-0.195862326	 0.9089770264	 0.05427
H	-2.2347665776	 0.0775862796	-1.9450757236	 0.056886
H	-1.4095152652	-2.6752366488	-2.3055659961	 0.114966
H	 0.005250314	-1.7540261717	-1.6893830819	 0.087608
H	-1.3305288171	-2.9954503743	 0.5727364529	 0.06324
H	-3.7993748446	-0.5846449538	 1.0445022674	 0.125651
H	-4.9174463271	-0.8929967645	-0.278156927	 0.104918
H	-4.5012615655	-2.1983441421	 0.8384740399	 0.128069
H	-4.3198970816	-2.417131578	-1.8880727965	 0.274291
