17
gdb 75182	4.85698	0.994	0.85482	3.1318	75.24	-0.2616	0.0087	0.2703	1309.8016	0.137013	-418.046246	-418.037767	-418.036822	-418.079601	30.754	
C	 0.0072810682	 1.4783404986	 0.072868078	-0.455589
C	-0.0315769355	-0.0128133729	-0.0711741679	 0.396892
N	-0.0780462311	-0.5842745095	-1.2015586117	-0.305199
C	-0.0581181294	-2.032558898	-1.2856946617	-0.162738
C	 0.4568621392	-2.7020254766	 0.0109315866	-0.202568
C	-0.2397505678	-2.0135524854	 1.1962583851	-0.080392
O	 0.0016215491	-0.6111373726	 1.1587242593	-0.25527
C	 0.2219193804	-4.140564214	 0.0225100142	 0.2666
N	 0.0137144867	-5.2776616934	 0.026623318	-0.314611
H	 0.8933930683	 1.7784205344	 0.6410758105	 0.143189
H	 0.0261977881	 1.9406703319	-0.912816847	 0.149809
H	-0.867352791	 1.8279127239	 0.6305514171	 0.142467
H	-1.0663822931	-2.3996863432	-1.5142607919	 0.133181
H	 0.5750521214	-2.3236387851	-2.1296451294	 0.132398
H	 1.5355824274	-2.5262046633	 0.0990588482	 0.140738
H	-1.3192676903	-2.2045470066	 1.1569754338	 0.131444
H	 0.1428319094	-2.3669160781	 2.1553308786	 0.139649
