14
gdb 50069	2.67615	1.39206	1.18931	3.2537	65.31	-0.2552	-0.0871	0.1681	1050.3634	0.098006	-473.821663	-473.813018	-473.812074	-473.855808	29.446	
O	 0.1696513022	 0.3612071721	 1.0835617311	-0.251366
C	 0.3941692201	 0.9589781727	 0.0618621067	 0.155952
C	 1.5308294226	 1.9288804495	-0.0869657727	-0.120368
C	 1.8466699879	 2.7655791532	 1.1466847018	-0.223199
N	 2.715482353	 1.7177970932	 0.7140824114	-0.073584
C	 3.0817200719	 0.5514911203	 1.3538141939	 0.317027
O	 3.1017458429	-0.542527674	 0.8393743669	-0.327105
C	 3.6065685151	 0.7338226394	 2.7829234521	 0.099815
O	 3.5691470362	 1.7637732915	 3.4001168833	-0.229691
H	-0.2485007118	 0.8465653481	-0.8353702098	 0.103727
H	 1.6895904365	 2.3487447891	-1.0762669866	 0.121773
H	 2.2135530239	 3.778884615	 1.0142580051	 0.143609
H	 1.2231292889	 2.5840548417	 2.0166765433	 0.163018
H	 4.0083111707	-0.2154054019	 3.1909318737	 0.120392
