16
gdb 31675	5.03138	0.92201	0.7891	7.4085	77.78	-0.2066	-0.0272	0.1794	1398.1116	0.125311	-434.112355	-434.103773	-434.102829	-434.146072	30.715	
C	 0.23552945	 1.2894936264	-0.220650506	-0.343272
N	-0.2214019826	-0.0284112401	 0.1850502193	-0.376041
C	 0.4889361475	-0.7636867535	 1.1049326726	 0.456215
N	 0.4964159201	-2.0693750246	 1.1887173141	-0.379621
C	 1.2791730893	-2.3573735561	 2.296530825	 0.18081
C	 1.5734450231	-3.702511029	 2.7815112543	 0.074739
O	 1.1799054039	-4.7388919302	 2.2986313334	-0.276957
C	 1.7495010286	-1.1998936824	 2.8698839486	-0.15405
N	 1.243360961	-0.1780098198	 2.0985300518	-0.305144
H	 1.2731733668	 1.3056727359	-0.5869710215	 0.125574
H	-0.4169851169	 1.6566139832	-1.0148387884	 0.145211
H	 0.1510554582	 1.9995327705	 0.6108353725	 0.12686
H	-0.5587293977	-0.6207405883	-0.5596769326	 0.262496
H	 2.228119659	-3.6994568464	 3.6852277026	 0.0516
H	 2.3850572512	-1.0158478516	 3.7201796052	 0.143133
H	 1.3722061183	 0.806392526	 2.2593089392	 0.268447
