19
gdb 86899	3.18759	1.12219	0.92527	4.0393	72.55	-0.241	-0.032	0.2091	1293.1842	0.157076	-460.176347	-460.167028	-460.166084	-460.211086	33.615	
C	-0.4051401398	 1.4432142574	-0.1722490481	-0.417568
C	 0.2765431724	 0.0905038725	-0.0915055667	 0.105483
O	 1.5025871615	 0.133551166	-0.837871822	-0.276182
C	 2.3475619138	-0.8729461694	-0.3256406097	 0.11305
O	 1.818016789	-1.2991791275	 0.9135231593	-0.285987
C	 0.7602484888	-0.4003673421	 1.284204934	 0.112521
C	 1.2747699227	 0.6759966007	 2.2342230636	-0.405916
C	 2.3533391873	-2.0748137574	-1.274232499	 0.159915
O	 3.3431455962	-2.5205699448	-1.7871687279	-0.233801
H	 0.2374241469	 2.2360834559	 0.2170118539	 0.133427
H	-0.6470813773	 1.6777448971	-1.2119885576	 0.136248
H	-1.3384207599	 1.4317256431	 0.399436007	 0.123514
H	-0.3843751782	-0.6778153768	-0.5199086578	 0.082275
H	 3.3664546279	-0.4746736314	-0.2288285337	 0.09866
H	-0.0063204281	-1.0062364221	 1.7773276504	 0.092674
H	 2.006527426	 1.3226395959	 1.7411111256	 0.132088
H	 0.4545363391	 1.2991281326	 2.6040923693	 0.119213
H	 1.7585029379	 0.2020928941	 3.0920759786	 0.132076
H	 1.3399010938	-2.4978410038	-1.4565149394	 0.078309
