21
gdb 101737	3.32242	0.8315	0.78858	1.7927	75.31	-0.2517	0.0614	0.3131	1539.45	0.180734	-461.325185	-461.315175	-461.314231	-461.36167	35.511	
C	 0.3183847782	 1.3985633464	-0.2824321466	-0.394572
C	 0.0486075153	-0.0768237458	 0.0100170902	 0.105228
C	 0.6396365596	-0.5264028288	 1.348694706	-0.063925
O	 0.0525484082	 0.1619084621	 2.4353842771	-0.419525
O	-1.3574367027	-0.3367688094	 0.1314361469	-0.285987
C	-2.0525639486	-0.5027593937	-1.0723841646	 0.087635
C	-2.0307102681	-1.9048220374	-1.733625494	-0.093028
O	-3.4684130811	-1.9935030239	-1.6554837028	-0.271232
C	-3.5504509521	-0.7831169276	-0.8750570094	-0.097439
H	 1.3892101238	 1.5638884684	-0.4391017841	 0.117663
H	-0.204660669	 1.7360681965	-1.1815179298	 0.115774
H	-0.0058158103	 2.0058921892	 0.5657454185	 0.139303
H	 0.4710845071	-0.7083468591	-0.7869244679	 0.070449
H	 0.5072192426	-1.6149378999	 1.4452972787	 0.090169
H	 1.7128416122	-0.3110526489	 1.375592398	 0.106847
H	-0.8997951539	 0.0415448269	 2.3396611396	 0.291859
H	-1.84102837	 0.3129794506	-1.7737913435	 0.082472
H	-1.671963047	-1.9738170903	-2.7668611056	 0.102985
H	-1.5314424247	-2.6635561454	-1.1161127929	 0.101447
H	-3.8052126675	-0.977141808	 0.1747226068	 0.106973
H	-4.258017272	-0.0629586621	-1.2997831007	 0.106903
