16
gdb 109143	4.53086	0.98957	0.83177	5.2386	68.97	-0.2185	0.0054	0.2239	1310.5376	0.124866	-475.062777	-475.054188	-475.053243	-475.09675	30.636	
O	 0.0481118752	 1.4341880348	-0.0097803046	-0.412957
C	 0.0278644538	 0.0224995766	 0.0808037143	-0.165624
C	-1.3881765815	-0.458860706	 0.0166573872	 0.193064
C	-2.4499036972	 0.3414300142	-0.0416992249	-0.054928
N	-3.7340011528	-0.2104634114	-0.0722715878	-0.389929
C	-4.012485204	-1.4914955247	 0.3687903654	 0.470317
O	-5.1262689908	-1.8892204529	 0.5892608896	-0.380657
O	-2.9287362425	-2.2746735519	 0.5824888603	-0.241046
C	-1.6589052808	-1.9357292556	-0.0075170181	-0.167927
H	 0.9591262066	 1.7289433247	 0.0716160173	 0.294817
H	 0.6129382398	-0.4379316539	-0.736746295	 0.097343
H	 0.4911041877	-0.3261906735	 1.0216662361	 0.10135
H	-2.3848441708	 1.4203600162	-0.0599438222	 0.140624
H	-4.5400934618	 0.3917478941	-0.1033919633	 0.267058
H	-1.6392751722	-2.3318332581	-1.0351528906	 0.121664
H	-0.9198070986	-2.4977676125	 0.5723115563	 0.126832
