25
gdb 73797	2.21705	1.4211	1.09167	0.1826	95.89	-0.2155	0.0383	0.2537	1295.2734	0.227355	-352.395868	-352.385275	-352.384331	-352.430563	40.455	
C	 0.0879804963	 1.5325076111	 0.0083786778	-0.495415
C	 0.0001756878	 0.0385726244	-0.0529914224	 0.205256
C	-1.0907275908	-0.7392647442	-0.0142991496	 0.216036
C	-2.5206971885	-0.3001389753	 0.0938483053	-0.508953
C	-0.7303335595	-2.2291954009	-0.026709324	 0.233984
C	-0.8631656319	-2.816393979	 1.3959969435	-0.420495
C	-1.5932866064	-3.0510551963	-0.9979883385	-0.435621
C	 0.7577874022	-2.1975480604	-0.4745107483	-0.247344
C	 1.2685305704	-0.7868603765	-0.1208996689	-0.298969
H	 0.686610704	 1.8543350265	 0.8711415107	 0.121581
H	 0.5917702411	 1.9334437546	-0.8809727585	 0.121278
H	-0.8898339777	 2.013900132	 0.0837625028	 0.119283
H	-2.6157690708	 0.7847252272	 0.1795432779	 0.119491
H	-3.1047081143	-0.6154357775	-0.7796935942	 0.125213
H	-3.0109544323	-0.7440373643	 0.9698216687	 0.122467
H	-1.8881307452	-2.7296017542	 1.7722065677	 0.10822
H	-0.5989109003	-3.880094901	 1.4028332931	 0.106829
H	-0.2046115902	-2.2982656498	 2.1005382464	 0.111397
H	-1.5671799449	-2.6259876861	-2.007150083	 0.108818
H	-1.2273571367	-4.0823664633	-1.0592184756	 0.108816
H	-2.6394569348	-3.094238377	-0.676141616	 0.108214
H	 1.3467514102	-2.9985713986	-0.0171363391	 0.087198
H	 0.8081356252	-2.3387129422	-1.5596234589	 0.092267
H	 1.9824729224	-0.4007383109	-0.8591575824	 0.093098
H	 1.794404965	-0.7641297284	 0.8454680657	 0.097349
