17
gdb 41435	3.8878	1.83199	1.49293	0.5223	69.98	-0.2356	0.095	0.3306	869.7071	0.139373	-421.770645	-421.764854	-421.76391	-421.800486	24.929	
C	 0.0285554529	 1.5265581165	-0.0205516786	-0.181529
O	 1.461310065	 1.7106146887	-0.0520892139	-0.288182
C	 1.9689484334	 0.3742113712	 0.0543455435	 0.099262
C	 1.112689304	-0.5606540808	-0.8186066878	-0.134971
C	 1.0717171963	-1.6802811254	 0.2368344323	 0.099263
O	-0.2551017991	-2.2196539278	 0.2970110277	-0.288181
C	-1.0957372517	-1.0478648315	 0.2081424485	-0.18153
C	-0.0313043053	 0.0211156499	 0.1064697507	 0.246972
C	 1.1341447248	-0.4005126297	 1.0897728682	-0.134972
H	-0.3997778088	 2.0623117003	 0.8349451143	 0.107841
H	-0.4197528218	 1.9130020943	-0.9436243454	 0.107839
H	 3.0569448175	 0.3935428842	 0.0404890303	 0.087349
H	 1.073808972	-0.6402015985	-1.9053488911	 0.078905
H	 1.7984912131	-2.488085108	 0.296451142	 0.087349
H	-1.7427713055	-1.1163785241	-0.6744849843	 0.10784
H	-1.7227483965	-0.9671290235	 1.1040888486	 0.10784
H	 1.1196959497	-0.2978000058	 2.1751708852	 0.078905
