18
gdb 73059	3.47261	1.12759	1.00161	3.6797	74.62	-0.2426	0.0273	0.2699	1236.0031	0.146343	-439.031297	-439.022533	-439.021588	-439.065167	31.912	
C	-0.2938410277	 1.5695962896	 0.2781588405	-0.503149
C	 0.0016911789	 0.1255289705	-0.0006411193	 0.209046
C	-1.0421407448	-0.980301507	-0.1810244293	-0.124751
O	-0.2014546756	-1.9580854845	 0.4942758609	-0.284565
C	 0.7824052869	-0.9630710152	 0.7403595142	-0.003391
C	 1.3018722522	-0.3943832335	-0.55065884	 0.032403
O	 1.3172271099	-1.1186045674	-1.7504192408	-0.193559
C	 1.920809944	-2.3321884677	-1.7262990835	 0.140273
N	 2.0310322333	-2.9896850466	-2.795961713	-0.445397
H	 0.6096019457	 2.1074288878	 0.5815543029	 0.126234
H	-0.6895617196	 2.0682822783	-0.6143543845	 0.13473
H	-1.0327792671	 1.6772794159	 1.0793525887	 0.126593
H	-1.9564154511	-0.8067879775	 0.3960120475	 0.11206
H	-1.2830807378	-1.2772405227	-1.2059508642	 0.13083
H	 1.3222278987	-0.9980198239	 1.6810303758	 0.109156
H	 2.1377598714	 0.295973152	-0.4458053011	 0.106348
H	 2.2635357925	-2.6252364891	-0.7277382467	 0.09793
H	 2.4905313801	-3.878330299	-2.6079269981	 0.22921
