17
gdb 39525	3.14188	1.99108	1.56171	3.6152	70.92	-0.2372	0.0062	0.2434	874.886	0.139995	-417.975598	-417.969292	-417.968348	-418.006047	25.92	
C	-0.1530930824	 1.4157021507	-0.007305534	-0.19092
N	 1.2019169381	 1.9447849016	 0.212399444	-0.271562
C	 1.9880469484	 0.9744853681	-0.0252953799	 0.344673
O	 3.2375456888	 0.8710034837	 0.4544617484	-0.253921
C	 3.231049537	-0.2174613356	 1.4332327491	-0.062394
C	 1.7886238207	-0.5400292377	 1.897146469	-0.274639
C	 0.9750312085	-0.9337398327	 0.6575983018	-0.041977
C	 0.0489890341	-0.0918914407	-0.1920804485	-0.059941
N	 1.4599073261	-0.2488283476	-0.5766427635	-0.145969
H	-0.7802031795	 1.6861525914	 0.8496352917	 0.119067
H	-0.6278868215	 1.8398561062	-0.9020472041	 0.119841
H	 3.6867839871	-1.1004713782	 0.9717590579	 0.125244
H	 3.8599518666	 0.1196938226	 2.2601870397	 0.128233
H	 1.8258855595	-1.3749754704	 2.6023920946	 0.114356
H	 1.3684743907	 0.3174068332	 2.4271313528	 0.142052
H	 0.8598058298	-2.0071115712	 0.5191551915	 0.105839
H	-0.6704265619	-0.6387852035	-0.7944822306	 0.102019
