15
gdb 18113	3.79646	2.38843	1.82783	1.9824	60.08	-0.2559	0.0177	0.2736	731.189	0.122398	-399.81744	-399.811578	-399.810634	-399.847495	22.647	
C	 0.1082084422	 1.5073974903	 0.1813149265	-0.104853
O	 1.4887391848	 1.795149805	 0.3205640446	-0.241612
C	 2.1593964838	 0.9905603899	-0.638642649	-0.089847
C	 1.4374679373	-0.3717628044	-0.6107669767	-0.028768
N	 2.0023825357	-1.2794220358	 0.3994346533	-0.263551
C	 1.1282331786	-1.3740647753	 1.3113922518	 0.118122
O	-0.0589916771	-0.7344731306	 1.1849560455	-0.22737
C	 0.0221945726	-0.0023927475	-0.0614545533	 0.06808
H	-0.4091583559	 1.8196185859	 1.0908059781	 0.126505
H	-0.3234682054	 2.0424316319	-0.6815193836	 0.091678
H	 2.0875639066	 1.4404024479	-1.6424256151	 0.08874
H	 3.2089276642	 0.9114510475	-0.3513819386	 0.129745
H	 1.4381828627	-0.855813766	-1.5900492674	 0.091373
H	 1.2273226484	-1.9549375778	 2.2215691417	 0.144009
H	-0.8290498185	-0.2980402512	-0.6764588477	 0.097748
