19
gdb 74542	3.34714	1.47193	1.34182	2.0758	81.71	-0.2215	0.0008	0.2223	1043.6436	0.158907	-385.763902	-385.756418	-385.755474	-385.795358	30.826	
C	 0.1491506751	 1.5385659774	 0.0433442768	-0.519749
C	 0.0482221824	 0.0555680989	 0.0013407619	 0.405444
C	 0.0075081413	-0.8359058661	-0.9923062131	-0.287075
C	-0.0707322542	-2.1727761866	-0.2385053581	 0.370733
C	-0.9732776177	-3.2531961915	-0.884230143	-0.327791
C	-2.1660803442	-2.3760729327	-0.2589979837	-0.282495
C	-1.1078703796	-1.9468084078	 0.8189055661	 0.011358
C	-0.0008573646	-0.8865456556	 1.2118799801	-0.125201
O	 0.9894063555	-1.942908288	 0.8157891357	-0.363213
H	 1.0580619879	 1.8598299519	 0.5679126217	 0.135862
H	 0.1678396325	 1.9666207856	-0.9625939322	 0.129384
H	-0.6966325979	 1.9811023529	 0.5846888346	 0.130856
H	 0.0327197206	-0.7018793698	-2.0649256142	 0.097908
H	-0.9365777158	-3.3747781183	-1.9705241133	 0.104585
H	-0.9123990493	-4.2272095671	-0.3954297399	 0.123599
H	-2.4635328436	-1.5807052375	-0.9441682712	 0.121282
H	-3.044780185	-2.9169990523	 0.0979307993	 0.105119
H	-1.0520198687	-2.7486221392	 1.5606933318	 0.092378
H	 0.1621102154	-0.5076184742	 2.2222086408	 0.077016
