17
gdb 53819	3.35417	1.20315	0.90054	0.9837	71.74	-0.2323	-0.0268	0.2055	1253.268	0.136641	-455.19591	-455.186954	-455.186009	-455.230323	31.862	
N	-0.0979568212	 1.2860535492	-0.2371046888	-0.508841
C	 0.0853951637	-0.0407397926	-0.0792467027	 0.315827
O	 1.1592196872	-0.6106381729	 0.0045706953	-0.373273
C	-1.2716210391	-0.7708339806	-0.0155006107	 0.304685
O	-2.3284035094	-0.1539744863	-0.1055677836	-0.4062
N	-1.202249164	-2.0998072453	 0.1422276766	-0.074009
C	-0.1425678095	-3.1130035396	 0.2786353488	-0.146137
C	-1.2574708229	-4.1930825119	 0.3889892905	-0.255425
C	-2.3076170318	-3.0541750619	 0.2363247722	-0.162058
H	 0.6931467247	 1.9030009703	-0.2988439958	 0.265785
H	-1.0456647422	 1.6259552647	-0.2938313192	 0.281235
H	 0.509271059	-3.1811251128	-0.5947818081	 0.133221
H	 0.4823505226	-2.9730968845	 1.163057132	 0.133308
H	-1.2627236767	-4.9261753228	-0.4179097346	 0.118975
H	-1.2914743208	-4.7155709628	 1.3452499134	 0.119001
H	-2.9578155403	-2.8789062639	 1.0991945842	 0.126985
H	-2.9273007194	-3.0878382762	-0.6653134895	 0.126922
