23
gdb 121145	3.09309	0.88809	0.82644	2.1131	82.69	-0.2397	0.0782	0.3178	1545.9853	0.202975	-425.405643	-425.394964	-425.394019	-425.442143	38.264	
C	 0.1444014495	 1.3465989018	-0.0063268775	-0.226318
O	 0.0544824587	-0.0479215288	 0.1589415049	-0.23473
C	-1.2092172315	-0.566583773	-0.2026233851	-0.086525
C	-1.1782001862	-2.0588006794	 0.0625640213	-0.097573
C	-1.235339523	-2.5094325188	 1.5330356255	-0.076296
O	-2.4151931027	-3.303665343	 1.3002779601	-0.325684
C	-2.4779317124	-2.9096946816	-0.1027798644	 0.406272
C	-3.7816496785	-2.1697204329	-0.3852951629	-0.42924
C	-2.3217287213	-4.1279460452	-1.0053723161	-0.42339
H	 1.1494684681	 1.648678483	 0.2980656283	 0.127965
H	-0.0141642212	 1.6457260641	-1.0548439485	 0.103251
H	-0.5912247172	 1.8811756898	 0.6157050294	 0.104012
H	-2.0015427982	-0.074370658	 0.3854601924	 0.086966
H	-1.4200366231	-0.3611355282	-1.2668594268	 0.085484
H	-0.3337609396	-2.4846770351	-0.4851842186	 0.08223
H	-0.3935167046	-3.1145049515	 1.88878799	 0.101047
H	-1.4167107294	-1.7016203509	 2.2543340518	 0.096897
H	-3.9223450043	-1.3306623423	 0.2999655159	 0.118863
H	-3.8121541903	-1.793415712	-1.4134589405	 0.112718
H	-4.6247954649	-2.8548172491	-0.2505777785	 0.123018
H	-3.168700447	-4.8093280788	-0.8745389952	 0.12123
H	-2.2808826441	-3.8299081773	-2.059159126	 0.111742
H	-1.405128657	-4.6734522427	-0.7640219296	 0.11806
