16
gdb 51208	3.75351	1.15033	1.03998	3.3975	69.08	-0.2455	-0.0278	0.2177	1147.2188	0.12254	-437.771331	-437.763645	-437.762701	-437.804797	28.405	
O	-0.0610014009	-0.0637353216	 0.0459221527	-0.23595
C	-0.0180470113	 1.1264409985	-0.1241776046	 0.154696
C	 1.2667513547	 1.9395539048	-0.1303435617	-0.433577
C	 1.3059677551	 2.9353954405	-1.2492934158	 0.485933
O	 0.288282063	 3.9828532192	-1.3164451137	-0.356402
C	 1.1237043194	 4.2449391817	-2.4814109265	 0.072124
C	 2.4605278286	 3.8490509174	-1.7717471225	-0.131848
N	 2.8753263648	 2.8311411801	-2.789500094	-0.344764
C	 1.379926379	 2.7375060263	-2.8017111105	-0.120207
H	-0.9405649082	 1.7255374729	-0.2817917284	 0.102452
H	 1.3199914288	 2.4851545522	 0.822659606	 0.140507
H	 2.1252807608	 1.2654433161	-0.1920396729	 0.150674
H	 0.8748101663	 5.0862863431	-3.12873753	 0.102076
H	 3.1565607878	 4.4663343608	-1.2030182614	 0.096118
H	 3.2090972394	 3.2934240154	-3.638445614	 0.217306
H	 0.8148666227	 2.0548962427	-3.4369374129	 0.100861
