20
gdb 52086	4.85085	0.81016	0.78538	3.2109	83.11	-0.2602	0.0225	0.2828	1514.7028	0.171478	-403.093717	-403.085064	-403.084119	-403.129153	31.684	
N	-0.0899315219	 1.2721199687	 0.0082232418	-0.439097
C	-0.0657229949	 0.0097970636	 0.0020717389	 0.141412
O	-1.2159114365	-0.6878148245	 0.0098558068	-0.189219
C	-1.0919625146	-2.1141238921	 0.0021068068	-0.238041
C	-2.4738901939	-2.6984304421	 0.0112808614	 0.358205
C	-3.5940894643	-2.4989618223	-1.0543374236	-0.243301
C	-4.1966905086	-3.4463360574	 0.0226464506	-0.043538
C	-2.8409816071	-4.212148748	 0.0085251519	-0.267626
C	-3.5763059262	-2.5071912324	 1.0967538298	-0.243265
H	 0.8609180722	 1.6356276191	 0.0007134524	 0.22747
H	 0.8334606634	-0.62318888	-0.0096052857	 0.082259
H	-0.5445083157	-2.4385241247	-0.8943325415	 0.107296
H	-0.5291001366	-2.4468876683	 0.8858478526	 0.107306
H	-4.0205864269	-1.4960903024	-1.1261682778	 0.105934
H	-3.4099912973	-2.9320410767	-2.0419728429	 0.086886
H	-5.1950803691	-3.8833768171	 0.0292151084	 0.074826
H	-2.6015399947	-4.772650701	-0.9000008613	 0.08982
H	-2.5865912435	-4.7795296821	 0.9086808855	 0.089825
H	-3.3759710467	-2.9478043427	 2.077872831	 0.086898
H	-4.0014636968	-1.5049147476	 1.183266385	 0.105951
