18
gdb 31034	2.53991	1.23557	0.88056	1.9141	75.97	-0.1879	0.0389	0.2268	1321.8176	0.146926	-439.117456	-439.108022	-439.107078	-439.15183	34.685	
C	 0.0507516155	 1.5903795658	 0.4081998159	-0.365741
C	-0.0113701938	 0.143864874	-0.1101178633	-0.302281
C	-1.3862370332	-0.4496214548	-0.0482079891	 0.295553
C	-2.1511637146	-0.8088966325	-1.1111975852	 0.158278
N	-1.9240273833	-0.759804323	-2.4835465824	-0.593936
O	-3.3778612283	-1.316361777	-0.6473597415	-0.223783
C	-3.3282285534	-1.2523591642	 0.6987514545	 0.422789
O	-4.4077845258	-1.6946787165	 1.3665987014	-0.426951
C	-2.1551523856	-0.7376508501	 1.1414191127	-0.417247
H	 1.0721379158	 1.980385666	 0.3534892002	 0.108645
H	-0.5961570768	 2.2445844573	-0.1845959292	 0.116987
H	-0.2785594563	 1.6550456782	 1.4502048259	 0.116988
H	 0.3333750749	 0.107618614	-1.1480795889	 0.115672
H	 0.6806491028	-0.4748532587	 0.4763175723	 0.101381
H	-1.9515451379	-1.673779499	-2.9247052918	 0.241526
H	-2.5732681209	-0.1527865432	-2.9741493016	 0.241637
H	-5.0576204972	-1.9900855567	 0.7184195856	 0.304772
H	-1.8690628318	-0.5862771394	 2.1690233344	 0.105711
