19
gdb 105393	1.97262	1.26348	0.94217	4.3403	72.9	-0.2667	0.0044	0.2711	1314.8717	0.155964	-460.166366	-460.15644	-460.155496	-460.201405	35.734	
C	-0.1890948628	 1.415412566	-0.9921847087	-0.382898
C	-0.0371298702	 0.1895092346	-0.0851917693	-0.237906
C	-1.3591941693	-0.4734731721	 0.2349173716	 0.389004
C	-2.0373271577	-1.3605813785	-0.777052134	-0.370471
C	-1.4657161686	-1.9518745301	 0.4943667931	 0.028159
O	-0.2837451521	-2.6919201288	 0.465568404	-0.416384
O	-2.266770668	 0.359605462	 0.9521333863	-0.231607
C	-2.0746923285	 0.4636206273	 2.2861315337	 0.150262
O	-2.7424747951	 1.1747300808	 2.9748411713	-0.274674
H	 0.7823894166	 1.8830020487	-1.1759253873	 0.11577
H	-0.6195079002	 1.1380619504	-1.9598968574	 0.118243
H	-0.8459308334	 2.1618171309	-0.5369524073	 0.13661
H	 0.6131064465	-0.5594225723	-0.5451556568	 0.121884
H	 0.4503631121	 0.4791887354	 0.8546487398	 0.103322
H	-3.1153046048	-1.2927464273	-0.8663864675	 0.13393
H	-1.4987174299	-1.5417708253	-1.7009588808	 0.123151
H	-2.1881594795	-2.2573734766	 1.2512856488	 0.105073
H	-0.4673748996	-3.5328858486	 0.0335086367	 0.295186
H	-1.2548367055	-0.1802707865	 2.6542214337	 0.093348
