18
gdb 62728	2.39455	1.79359	1.39019	0.859	71.52	-0.2313	0.0138	0.2451	996.6852	0.14618	-439.083481	-439.074762	-439.073818	-439.116202	33.219	
C	-0.0957052768	 1.564764246	 0.0406312831	-0.453601
C	 0.0472885833	 0.0628260984	 0.0273426052	 0.292865
O	-1.0706198851	-0.6175565707	-0.4886777182	-0.457968
C	 1.3689053246	-0.6637062854	-0.2404408839	-0.152664
N	 2.6047031379	 0.0581099038	-0.0481863625	-0.256899
C	 2.611689256	 0.3938695005	 1.1787504182	 0.078331
O	 1.5777010228	 0.0151133185	 1.973097765	-0.243789
C	 0.6895248589	-0.7353360023	 1.1332958602	 0.355455
C	 0.0571670168	-1.9029341385	 1.8291443242	-0.477442
H	 0.8027461677	 2.0678326152	 0.3990896562	 0.138237
H	-0.2935619824	 1.9277210369	-0.9748388979	 0.112794
H	-0.9372902885	 1.8566110643	 0.6759836449	 0.129823
H	-1.093521077	-0.4620513099	-1.4400926203	 0.286059
H	 1.3687050894	-1.4717206421	-0.9638495927	 0.100875
H	 3.3826929475	 0.9668741872	 1.6793660246	 0.143126
H	-0.5264832466	-1.5682505747	 2.6930874102	 0.131342
H	-0.6144891355	-2.4180717842	 1.1419323754	 0.14834
H	 0.820699487	-2.603316893	 2.1809280484	 0.125115
