15
gdb 109104	3.44835	1.19115	0.89073	5.0494	72.37	-0.224	-0.0752	0.1487	1223.8571	0.112426	-453.967524	-453.95879	-453.957845	-454.001556	30.935	
O	-0.0312853082	 1.4473166747	 0.0495958	-0.425976
C	 0.0132028259	 0.0291411084	 0.0052164034	-0.182071
C	-1.3866832734	-0.4840156213	 0.0018789234	 0.135795
C	-2.5289259316	 0.2376939723	-0.014577534	-0.08788
N	-3.6702194786	-0.5573120685	-0.064045007	-0.36799
C	-3.311318299	-1.9041529502	 0.006092273	 0.308217
N	-4.0279212076	-2.9472423221	 0.0647132434	-0.482992
C	-1.7623976752	-1.8988038548	 0.0043825971	 0.259969
O	-1.0567876409	-2.8817635986	 0.0030446978	-0.313364
H	 0.8718258985	 1.7756084689	 0.0328656869	 0.293918
H	 0.5420078182	-0.331177992	-0.8923899204	 0.112208
H	 0.5543765985	-0.3877566483	 0.8700165438	 0.113078
H	-2.6234545722	 1.3141299333	-0.0134183053	 0.159017
H	-4.596498422	-0.2135360149	 0.1239226007	 0.259553
H	-5.0273696024	-2.7261462469	 0.0556168073	 0.218517
