17
gdb 70233	4.06647	1.10231	0.97096	3.9036	82.3	-0.2413	-0.0505	0.1907	1219.201	0.136759	-380.875806	-380.867839	-380.866894	-380.908185	30.461	
C	 0.0408015356	 1.5314934242	 0.05737842	-0.481442
C	-0.0201995103	 0.0256920688	-0.0102597415	 0.307499
C	-0.8531877734	-0.7893502498	 0.9296547974	-0.27319
N	 0.6051702951	-0.7870854054	 1.0695288944	-0.136795
C	 1.2819513455	-1.9292027299	 0.4292909739	-0.267778
C	 0.9805448758	-1.7949222565	-1.0610515391	 0.173254
C	 0.2746222028	-0.6780426241	-1.2889315135	-0.22513
C	 1.3948774104	-2.7479160737	-2.0259677637	 0.203205
N	 1.758536578	-3.5461645129	-2.7834821042	-0.334227
H	 1.0108307366	 1.9033069667	-0.2880117883	 0.130896
H	-0.7384416942	 1.9789169356	-0.5691265084	 0.1255
H	-0.1081216097	 1.8715074433	 1.0847723919	 0.137178
H	-1.379533532	-0.2945116758	 1.7419713568	 0.123122
H	-1.343152863	-1.676870759	 0.5347905255	 0.119191
H	 2.3602511958	-1.8747539205	 0.6199778846	 0.134597
H	 0.9249383824	-2.8777528707	 0.8459709708	 0.134691
H	-0.0480222854	-0.3224272301	-2.2593442467	 0.129429
