20
gdb 97384	3.81451	0.82306	0.7873	2.4284	79.94	-0.2512	0.0188	0.27	1547.764	0.168215	-440.256848	-440.246995	-440.246051	-440.292231	35.045	
C	 0.0534212453	 1.407089157	 0.0543861299	-0.315631
N	-0.2611140034	 0.0140293555	-0.1817057935	-0.207345
C	 0.5162083448	-0.6370829575	-0.9246092506	 0.116328
O	 0.3034030099	-1.9496967656	-1.1604811219	-0.246578
C	 1.1456307611	-2.5799658933	-2.1225732235	 0.333784
C	 0.7888510759	-2.1549853168	-3.5388305111	-0.442124
C	 2.6622239504	-2.6363029217	-1.7957691037	-0.117354
O	 2.6492029792	-4.074061519	-1.8661335526	-0.271945
C	 1.2062609217	-4.101659309	-1.8931537441	-0.115916
H	 0.958503001	 1.7590300497	-0.468289976	 0.094433
H	-0.7899252914	 2.03250291	-0.2597294008	 0.129005
H	 0.1908217481	 1.5764010893	 1.1284981717	 0.129868
H	 1.4105680454	-0.2189439761	-1.4124738946	 0.078307
H	 0.9673867091	-1.0857237415	-3.6915565166	 0.122652
H	 1.3946043668	-2.7081187333	-4.262427575	 0.135078
H	-0.2678291177	-2.3581328941	-3.7366530927	 0.137463
H	 3.3490574904	-2.191919438	-2.5247914999	 0.107289
H	 2.905147002	-2.27309738	-0.788501152	 0.10691
H	 0.7743323889	-4.399668734	-0.9305197586	 0.118158
H	 0.8187598925	-4.7412001717	-2.6932408845	 0.10762
