20
gdb 6147	4.67099	1.11182	1.06077	3.057	76.48	-0.2445	-0.0204	0.2241	1188.5173	0.175145	-349.015121	-349.006297	-349.005353	-349.048528	32.868	
C	-0.2185879652	 1.5157746131	-0.0071767831	-0.435955
C	-0.0104842713	-0.0004140175	 0.0054922365	 0.351973
C	-1.3262439211	-0.7340190036	-0.2291858048	-0.450858
C	 1.1898620038	-0.4321816137	-0.8956389289	-0.28261
C	 2.1156441755	-0.461545767	 0.3600303957	-0.056089
C	 0.8267941704	-0.4641497249	 1.2396810828	-0.282568
C	 3.0180687193	-1.6531511574	 0.4959945555	 0.159064
O	 4.2044769578	-1.6162934099	 0.6998733073	-0.254536
H	 0.7193785729	 2.0556081134	 0.1603389462	 0.115963
H	-0.6254377262	 1.8458484358	-0.9697277556	 0.114673
H	-0.9221964638	 1.8197102035	 0.7761096165	 0.114675
H	-1.7635242986	-0.4603940619	-1.1966398191	 0.115195
H	-1.1847533955	-1.8200543463	-0.2213762891	 0.108466
H	-2.0599763161	-0.4864786793	 0.5469673123	 0.115196
H	 1.0463725015	-1.4349517604	-1.3127245528	 0.099984
H	 1.4857403753	 0.2416632698	-1.7034797947	 0.107589
H	 2.7085029448	 0.4474074792	 0.4745416497	 0.09128
H	 0.8358897408	 0.1844557058	 2.1191344572	 0.107621
H	 0.5584989903	-1.4778920306	 1.556590817	 0.1
H	 2.4853396356	-2.6307915483	 0.3895563713	 0.06094
