19
gdb 59002	3.73524	1.07652	0.91562	2.1347	76.57	-0.2437	-0.0043	0.2395	1291.4713	0.158709	-423.01359	-423.005072	-423.004128	-423.046925	32.766	
C	 0.4587077173	 0.8775672017	-0.7567106528	-0.409039
C	-0.0707686484	 0.0645517206	 0.4235305472	 0.031256
O	 0.0707988435	 0.7829522188	 1.6559795787	-0.425662
C	-1.4876396816	-0.4187470192	 0.2665446342	 0.295572
C	-2.3028396436	-0.283778935	-0.7883025844	-0.221626
C	-3.5923101241	-0.9962800254	-0.5516833624	 0.010491
O	-3.4260297114	-2.4201663854	-0.3491671613	-0.258999
C	-3.5111823423	-1.5764286823	 0.8006792084	 0.029738
C	-2.16470838	-1.1890842414	 1.3944155904	-0.320357
H	 1.4746430727	 1.2161052068	-0.5397175905	 0.125627
H	 0.4776191392	 0.2812108255	-1.6737273383	 0.125127
H	-0.1664850377	 1.7594812984	-0.9379351017	 0.110353
H	 0.5759775602	-0.8126755818	 0.5627243482	 0.099584
H	-0.4877661081	 1.5663573071	 1.5929174173	 0.277622
H	-2.0656401085	 0.2215901654	-1.7157570778	 0.09924
H	-4.5180583798	-0.7072459359	-1.039803778	 0.09507
H	-4.3779505586	-1.7381965735	 1.4358415867	 0.095194
H	-1.581636368	-2.0686073116	 1.6934102838	 0.124754
H	-2.2775866809	-0.5676885628	 2.2898418623	 0.116054
