13
gdb 81911	2.50811	1.85601	1.2076	3.1807	58.46	-0.2541	-0.1039	0.1503	955.5208	0.087838	-493.693766	-493.686244	-493.6853	-493.726009	27.524	
O	-0.037472051	 1.4571380159	 0.0862902598	-0.431258
C	-0.0135441028	 0.0612474362	 0.0331194949	 0.038042
C	-1.3864869224	-0.5814404076	-0.0387465407	 0.013647
O	-1.9688102633	-0.492964538	-1.3329204765	-0.231501
C	-1.3684099473	-1.7507444726	-0.9521103084	-0.097535
C	-0.0077141877	-1.8384223865	-1.5859757177	 0.352255
O	 0.4844741054	-2.7424367534	-2.2005088758	-0.281769
C	 0.6699090495	-0.4832780294	-1.2256660781	 0.252114
O	 1.5444128968	 0.0772221865	-1.8262421314	-0.289004
H	 0.6678198695	 1.7683050734	-0.4987856296	 0.302705
H	 0.5223328978	-0.3677094109	 0.9028699858	 0.107016
H	-2.0767679353	-0.5321337741	 0.7981834864	 0.12933
H	-2.0265873293	-2.6076879995	-0.8616943188	 0.13596
