20
gdb 88730	3.48356	0.88214	0.76352	3.4026	81.88	-0.2441	-0.0237	0.2203	1516.6383	0.169704	-403.117289	-403.107919	-403.106975	-403.152496	34.32	
C	 0.3859365079	 1.5661172112	-0.2478185466	-0.408977
C	 0.1824426027	 0.0798195072	-0.0484076135	-0.000848
C	 1.3509289759	-0.8727176958	-0.0337377745	-0.303475
C	 0.5533221595	-0.6454638217	 1.2315369231	 0.004009
C	 1.1649662839	 0.0636318128	 2.3960657037	-0.021462
N	 0.3961572657	 0.1273229044	 3.6320060247	-0.341307
C	 1.6641627155	-0.6341201071	 3.6387782568	-0.134815
C	 1.5361733325	-2.104812622	 3.8236423404	 0.179921
O	 2.4297737564	-2.8076401496	 4.2259631284	-0.262196
H	 1.3409057237	 1.9112514833	 0.1598937084	 0.114228
H	 0.3866886886	 1.812144623	-1.3151207522	 0.121917
H	-0.4110488758	 2.1485282752	 0.227707308	 0.121398
H	-0.7207288815	-0.299585843	-0.5194451276	 0.090246
H	 1.268671869	-1.831492341	-0.5333998126	 0.116601
H	 2.3450133974	-0.4367965866	-0.0771313203	 0.111707
H	-0.1250824578	-1.4406173906	 1.5218515548	 0.093049
H	 1.7612069808	 0.9366922648	 2.1357564852	 0.092062
H	 0.5194110618	 1.0158359555	 4.1090015967	 0.242738
H	 2.5435682911	-0.2069101694	 4.1151615186	 0.101987
H	 0.5352274626	-2.5141214406	 3.5668094886	 0.083217
