19
gdb 70862	2.70309	1.85654	1.37584	1.336	80.31	-0.2182	0.0079	0.2261	1003.5138	0.158334	-385.864019	-385.856138	-385.855194	-385.895642	32.126	
C	-0.0158304013	 1.431353584	-0.1225764265	-0.496052
C	-0.0706874478	-0.0580595079	-0.0474234681	 0.472269
O	 0.7561588173	-0.794618439	-0.9159903297	-0.357879
C	-0.122110637	-1.9992249194	-0.7033169638	 0.401154
C	-0.4514884348	-2.6688976483	-2.0079578328	-0.495629
C	 0.5763868613	-2.768070123	 0.3934728724	-0.150371
C	 0.4833258929	-2.0573694687	 1.5267061675	-0.065761
C	-0.3544261247	-0.8598924155	 1.2956019929	-0.180483
C	-1.148883038	-1.0784148191	 0.0257681289	-0.26711
H	 0.9935543735	 1.7865333026	 0.111247872	 0.136063
H	-0.2751581502	 1.7831325069	-1.126609766	 0.128898
H	-0.7102418218	 1.8790959341	 0.593919976	 0.123295
H	 0.4590454369	-3.0513188878	-2.4801325323	 0.130569
H	-1.1302666412	-3.5113475835	-1.8381927037	 0.12314
H	-0.9269409205	-1.9668069662	-2.6979366666	 0.125804
H	 1.2025853688	-3.6322922834	 0.2120869772	 0.096597
H	 1.0128752897	-2.2522217656	 2.4514103543	 0.100662
H	-0.7811663955	-0.280514225	 2.1057432393	 0.082697
H	-2.2263998175	-1.0441102551	-0.0852535709	 0.092134
