17
gdb 29727	3.37742	1.32743	0.96442	4.1107	87.72	-0.2079	-0.0101	0.1978	1196.0208	0.135443	-380.887208	-380.87816	-380.877216	-380.920975	32.786	
C	 0.0330042205	 1.4168509218	 0.0144275548	-0.349134
N	 0.0161498267	-0.0323102264	-0.008614173	-0.09722
C	 0.0112160973	-0.8313221093	-1.1298577886	 0.276753
C	 0.0231232747	-0.2886370228	-2.5173608399	-0.51157
C	-0.0058716661	-2.122373136	-0.6500895339	-0.175589
N	-0.0115773212	-2.1461133788	 0.7137049309	-0.315229
C	 0.0018770806	-0.8752676279	 1.0847669654	 0.182317
C	 0.0022645422	-0.392670997	 2.4130401275	 0.258597
C	 0.0028197706	 0.0351639336	 3.5393526071	-0.425902
H	 0.9288379425	 1.8046919852	-0.4805361813	 0.142043
H	-0.8497280762	 1.8254962072	-0.4872934631	 0.142044
H	 0.0329124596	 1.746597482	 1.0535827997	 0.162636
H	 0.9141657921	 0.3188702957	-2.7188479521	 0.13324
H	 0.0163190388	-1.1141193829	-3.2325540527	 0.143474
H	-0.8518076093	 0.3395509197	-2.7259172559	 0.13324
H	-0.0142677839	-3.0337457322	-1.230021698	 0.105729
H	 0.0030893911	 0.3941624282	 4.538684883	 0.19457
