18
gdb 119675	3.87063	1.01074	0.91789	2.653	71.65	-0.237	0.0537	0.2907	1287.6239	0.14677	-438.956529	-438.948341	-438.947397	-438.989985	30.777	
O	-0.1099540732	 1.4333653079	-0.0031760793	-0.415267
C	 0.041272347	 0.0243340045	-0.0356145049	-0.07702
C	-1.3498674238	-0.5882200094	 0.0998636091	-0.337288
C	-1.3486632238	-2.0859033275	 0.0595004012	 0.314188
N	-0.7150077371	-2.9811330927	 1.093511602	-0.383966
C	-1.307076824	-3.9551229525	 0.1210156404	-0.078309
C	-2.5578256151	-3.0623988388	-0.1046788129	 0.055093
O	-2.4881603343	-3.103759697	-1.5589752565	-0.328331
C	-1.0918898653	-3.0690172988	-1.1471742283	 0.034981
H	 0.7620895644	 1.8334797274	-0.0670859323	 0.28727
H	 0.5026146013	-0.3081589761	-0.9800067105	 0.086877
H	 0.6848745702	-0.326889885	 0.7870359473	 0.091622
H	-1.7965328173	-0.2482539538	 1.0409969783	 0.123015
H	-1.9827546236	-0.2204516485	-0.7161249456	 0.127974
H	 0.3040031333	-2.9694741363	 0.9997485708	 0.208888
H	-1.2453961188	-5.0377217966	 0.2295245785	 0.092798
H	-3.5308252419	-3.0670727729	 0.3842265935	 0.104498
H	-0.3151092481	-3.0868367137	-1.9139799307	 0.092976
