16
gdb 16950	3.93192	2.02378	1.87339	2.1993	64.31	-0.2359	0.0071	0.243	781.8011	0.131983	-383.733748	-383.727302	-383.726357	-383.764139	25.337	
C	 0.0068625818	 1.4797989771	 0.0479902601	-0.509345
C	-0.0783512292	-0.006151882	-0.028362197	 0.339395
C	-0.1091920389	-0.8347125003	-1.077080882	-0.200267
C	-0.0086471437	-2.2287985946	-0.4719646949	 0.139527
O	 1.3641467643	-2.4020823259	-0.0315913333	-0.276589
C	 1.4525621839	-1.5604057683	 1.1220240688	-0.081626
C	 0.0168413441	-0.9428702764	 1.1768925726	-0.079889
O	-0.7231162048	-2.0951744519	 0.7376675172	-0.229837
H	 0.9350524249	 1.802130092	 0.5373401343	 0.13203
H	-0.0219798341	 1.9331235409	-0.9461918294	 0.132978
H	-0.8181671662	 1.8963522843	 0.6394061005	 0.132632
H	-0.0637704651	-0.5976283201	-2.1310906079	 0.107124
H	-0.3158310748	-3.1015562187	-1.0436276645	 0.093645
H	 1.6530352855	-2.1707291641	 2.0088195216	 0.109574
H	 2.2426754957	-0.8119579271	 0.9997253611	 0.101656
H	-0.3275520336	-0.5878866449	 2.1467706327	 0.088994
