16
gdb 47368	2.48961	1.43841	1.14181	5.1876	68.89	-0.2792	-0.0115	0.2677	1090.7352	0.125441	-437.939662	-437.931735	-437.93079	-437.972813	29.138	
O	-0.0461809456	 0.0309683857	 0.5921279985	-0.298474
C	-0.0826281567	 1.1192345182	 0.0981260315	 0.412398
C	-1.3638374735	 1.922296913	-0.0651225263	-0.325591
C	-1.3050674468	 3.0724161273	-1.0749774366	-0.236424
C	 0.0009365767	 3.8393841095	-0.8814150158	-0.232427
C	 1.1838461433	 2.8829934502	-1.0661849589	-0.013662
O	 1.1096515767	 1.7081790818	-0.2476129976	-0.23288
C	 1.3237217275	 2.4782003894	-2.4799542004	 0.282381
N	 1.4232130273	 2.1824820312	-3.5921580959	-0.313002
H	-2.1585693758	 1.2074240986	-0.2881568663	 0.149252
H	-1.5801501392	 2.3181215332	 0.9364201179	 0.146505
H	-1.3519091456	 2.6836746476	-2.0986076305	 0.139144
H	-2.1676985364	 3.7317973988	-0.9460282071	 0.117514
H	 0.1012644513	 4.6658504475	-1.5905006052	 0.134677
H	 0.0585093445	 4.2583846316	 0.1295280791	 0.12188
H	 2.1182080325	 3.3699773164	-0.7707986462	 0.148708
