20
gdb 105812	2.44134	1.45491	1.21505	1.5433	78.96	-0.2119	0.059	0.2709	1130.348	0.169915	-403.040171	-403.031321	-403.030377	-403.073748	34.014	
C	-0.1126150416	 1.5203028811	 0.153968428	-0.332551
N	 0.1578707186	 0.0851697526	 0.1680947771	-0.117527
C	 1.2627261783	-0.672326898	-0.3464642434	-0.136233
C	 2.7060495254	-0.2135830556	 0.0606171008	-0.067121
C	 2.7726200124	 1.0229767717	 0.912105884	-0.316287
C	 2.3026055348	-0.2655117063	 1.5273590421	-0.099593
C	 0.8677711237	-0.7462654939	 1.104619223	 0.283184
C	 0.1254247201	-1.8009430829	 1.8696800114	-0.157957
O	-0.45742881	-1.2923985823	 3.0649095836	-0.41728
H	 0.5003266084	 2.0451697893	-0.585396023	 0.130972
H	-1.1637823814	 1.6779221027	-0.1166990116	 0.114911
H	 0.0503668845	 1.9775318508	 1.1355926607	 0.127983
H	 1.088999503	-1.3828539995	-1.14950883	 0.093411
H	 3.584457695	-0.6476415065	-0.3992024024	 0.090115
H	 3.7854705965	 1.2903259981	 1.2028871987	 0.114553
H	 2.1357948325	 1.8814048461	 0.7644445425	 0.112407
H	 2.831579227	-0.7389378621	 2.3442365122	 0.093554
H	-0.6294016918	-2.251464442	 1.2093834077	 0.093921
H	 0.8128643796	-2.5908403655	 2.1918128521	 0.106789
H	-1.0918007251	-0.617273538	 2.8014902766	 0.282749
