18
gdb 68521	2.84513	1.74641	1.42737	3.162	77.27	-0.2489	-0.0117	0.2372	972.1681	0.149361	-401.970872	-401.963628	-401.962684	-402.00207	29.821	
C	-0.1189037397	 1.4808504945	-0.003075841	-0.491641
C	 0.0694788751	-0.0138413425	-0.00547294	 0.382377
C	 0.7479544665	-0.7163754255	-1.1978639903	-0.25904
C	 0.4544410929	-2.1206594967	-0.6023731776	-0.156813
C	 1.0273706847	-1.9390033004	 0.8044233839	-0.091615
C	 0.7989343312	-0.6736272153	 1.1636037427	-0.113306
C	-1.0540899369	-1.9642071546	-0.4153973171	 0.441713
N	-1.9318443483	-2.8599167183	-0.5587931896	-0.568096
O	-1.2712327214	-0.6612370895	-0.0622474695	-0.293995
H	 0.8545143609	 1.9800416591	 0.0174082715	 0.126325
H	-0.6601420001	 1.8053729452	-0.8957283371	 0.131534
H	-0.6864273314	 1.7980894276	 0.8767246803	 0.134097
H	 0.2392154222	-0.5165475684	-2.1455881885	 0.110813
H	 1.8146218288	-0.5021163585	-1.277766759	 0.110352
H	 0.7418212605	-3.0110455156	-1.1541222554	 0.093701
H	 1.4400226821	-2.7415871873	 1.4005945946	 0.11703
H	 0.982751745	-0.1990669884	 2.1183688185	 0.107097
H	-2.8616354221	-2.4821767952	-0.3649319365	 0.219466
