22
gdb 120937	3.22446	0.96525	0.87884	1.6549	83.33	-0.2278	0.0772	0.305	1461.2829	0.192791	-404.303993	-404.294278	-404.293334	-404.33897	35.834	
C	-0.0432662402	 1.5417318998	-0.0692099345	-0.384789
C	-0.1720395855	 0.0346359233	-0.2093872138	-0.03783
O	 0.9058560464	-0.4374965147	-0.998461574	-0.259583
C	 0.9044196878	-1.8292234284	-1.1813489543	 0.071036
C	-0.0437400402	-2.471423296	-2.2354990489	-0.200464
N	 1.1184517327	-3.0675290252	-2.9831746156	-0.169135
C	 1.9168785374	-1.9028168528	-3.4137987753	-0.277045
C	 2.0657426319	-2.3539646544	-2.0151684026	 0.323527
C	 3.3087565809	-2.9816805873	-1.459529944	-0.500883
H	 0.9058194127	 1.8021720431	 0.4077955795	 0.127318
H	-0.0755506102	 2.0226106514	-1.0510032677	 0.126496
H	-0.8603430568	 1.9399447222	 0.5397556041	 0.115098
H	-0.1542498842	-0.4505101649	 0.7812480091	 0.086737
H	-1.134406882	-0.227968625	-0.6783217595	 0.089845
H	 0.8315744132	-2.3416465394	-0.2101805873	 0.068083
H	-0.689635565	-3.2588432552	-1.8418104525	 0.107231
H	-0.6387733158	-1.7721486374	-2.8326650049	 0.104064
H	 2.7143923154	-2.1672837164	-4.1018115298	 0.115906
H	 1.4113436214	-0.9662712652	-3.6366609817	 0.117239
H	 3.9691197003	-2.2165251285	-1.0351731222	 0.12832
H	 3.0729479055	-3.701320135	-0.6679906467	 0.119818
H	 3.8600351445	-3.509402354	-2.2430028375	 0.129012
