14
gdb 132617	3.12608	1.28536	0.91171	2.3547	68.94	-0.2047	-0.0063	0.1984	1145.5116	0.100847	-485.999996	-485.99262	-485.991676	-486.031657	28.941	
N	-0.0099006664	 1.421802558	 0.1556276445	-0.598196
C	-0.026322665	 0.0287819514	 0.0518667827	 0.181514
C	-1.2050888607	-0.7225390886	 0.0376722275	-0.174008
C	-1.1797277398	-2.1148764436	-0.0045237434	-0.245422
C	 0.0412106688	-2.769194155	-0.0306999664	 0.302749
F	 0.0780372975	-4.1078545321	-0.0699313983	-0.085667
C	 1.2383128485	-2.0640240467	-0.0208937889	-0.398428
C	 1.1780760241	-0.6834137874	 0.0188351097	 0.275404
F	 2.3197500597	 0.0287118569	 0.0160478154	-0.094525
H	 0.8590977747	 1.8357978883	-0.1504448005	 0.254371
H	-0.8066937992	 1.8791206574	-0.2634816558	 0.249263
H	-2.1583618898	-0.2044632801	 0.0645668982	 0.099327
H	-2.0963531276	-2.6916748201	-0.016034781	 0.11041
H	 2.1931406652	-2.5730285985	-0.0479802238	 0.123209
