25
gdb 123157	7.4607	0.44773	0.43959	0.9328	91.55	-0.2414	0.0898	0.3312	2598.4486	0.227077	-389.476499	-389.465437	-389.464493	-389.514251	39.359	
C	 0.0481452285	 1.4530720481	-0.3055292426	-0.380125
C	-0.0458614329	-0.00891172	 0.1384272772	-0.162805
C	-1.4214945544	-0.6316687818	-0.1248255835	-0.161697
C	-1.5188586275	-2.0924254214	 0.3249714131	-0.19579
C	-2.8884901791	-2.7022234415	 0.0617245136	-0.058456
O	-2.8821754374	-4.0423345392	 0.5268616253	-0.250443
C	-4.0981349116	-4.6941336625	 0.3498579703	 0.152475
C	-4.3998950616	-5.3493536354	-0.9754614415	-0.287614
C	-4.0456091834	-6.1822750637	 0.2423996359	-0.28775
H	 1.0409980373	 1.8687623268	-0.1070173569	 0.111241
H	-0.1461957156	 1.554563685	-1.3792299502	 0.112838
H	-0.6842910811	 2.074928206	 0.2213683489	 0.112946
H	 0.7222875715	-0.5999902982	-0.3774267121	 0.095407
H	 0.1842066014	-0.0834695961	 1.2093870006	 0.095714
H	-2.1906723205	-0.0372204402	 0.3881086192	 0.092372
H	-1.6507099849	-0.5600842951	-1.1974025209	 0.092308
H	-0.7621146153	-2.6969294887	-0.1902259249	 0.102164
H	-1.3024955322	-2.1721106728	 1.3974018656	 0.103946
H	-3.6721084099	-2.1251833196	 0.5818509511	 0.082772
H	-3.1278668551	-2.6736114624	-1.0135381539	 0.087121
H	-4.9315702209	-4.2443066601	 0.8926030767	 0.079205
H	-5.422112842	-5.3568262539	-1.3377833244	 0.11024
H	-3.6422624311	-5.2633143371	-1.7463803921	 0.117408
H	-3.0585879537	-6.6297897473	 0.2629938307	 0.124433
H	-4.8216384787	-6.7654590391	 0.7250027347	 0.112093
