18
gdb 107223	3.89791	1.23261	1.11623	2.2078	69.74	-0.2415	0.0595	0.301	1108.1674	0.149348	-439.042828	-439.035249	-439.034305	-439.075111	29.8	
O	 0.0797677797	 1.3023031721	-0.4681527469	-0.421346
C	 0.0479685854	 0.04421315	 0.1870439373	-0.125771
C	-1.3520492378	-0.518324912	 0.2243391761	 0.292518
C	-2.3960448268	 0.1141651082	 1.1547792922	-0.323367
C	-3.3977426184	-0.9894007466	 1.4662016721	 0.038973
O	-4.0954516728	-1.5166740921	 0.3250806299	-0.259414
C	-2.9583909362	-2.2390712151	 0.8244655838	 0.025426
C	-1.6830446683	-1.9667476767	 0.0445684629	-0.120364
N	-1.806663034	-1.0308662283	-1.0815408186	-0.377485
H	-0.2673701367	 1.146624419	-1.3546608468	 0.290727
H	 0.7115147481	-0.6819561473	-0.3053897337	 0.092485
H	 0.4265410145	 0.2172224045	 1.2002581638	 0.1024
H	-1.9150410617	 0.4361833018	 2.085654526	 0.113659
H	-2.8719063198	 0.9977852377	 0.7171120814	 0.127464
H	-3.9865586152	-0.9555408879	 2.379672933	 0.103524
H	-3.1665354688	-3.2313430171	 1.2121649481	 0.104107
H	-0.9446304688	-2.7559597047	-0.0521599702	 0.091626
H	-2.7985457424	-0.8359107954	-1.2139931203	 0.244838
