20
gdb 102803	1.8936	1.27263	0.929	3.8204	74.04	-0.2588	0.0148	0.2736	1346.3568	0.16892	-477.413663	-477.403368	-477.402424	-477.449506	36.904	
C	 0.5660565628	 1.3870199922	-0.3472823593	-0.412215
C	 0.1887803071	-0.0367549326	 0.0552227778	 0.118951
O	 0.7424919962	-0.3786057107	 1.3304825456	-0.439214
C	-1.3312062826	-0.2766419464	 0.0658293809	 0.05714
C	-1.7072359007	-1.7519057202	 0.2658871981	-0.06121
O	-1.2915239772	-2.2954777301	 1.4921573983	-0.422255
O	-1.8248751928	 0.5483061125	 1.1321765496	-0.206929
C	-3.1303141728	 0.8837075656	 1.1235404624	 0.133949
N	-3.6098408737	 1.563444942	 2.0709847098	-0.441446
H	 1.649633498	 1.5135091678	-0.2853178468	 0.131216
H	 0.2493699576	 1.6009436321	-1.3734928883	 0.11613
H	 0.0889604675	 2.1142228894	 0.3163256102	 0.138495
H	 0.6349788403	-0.7478916966	-0.6488791515	 0.098283
H	 0.2938370253	 0.1803648834	 1.9793210688	 0.303296
H	-1.7520594813	 0.0607693922	-0.8929617637	 0.083999
H	-2.7984731425	-1.8564082285	 0.2242478594	 0.102195
H	-1.3027405517	-2.3061890952	-0.6010025213	 0.085388
H	-0.3920975988	-1.9741908489	 1.6520351755	 0.29168
H	-3.668748573	 0.5243655478	 0.2360896364	 0.090439
H	-4.5972771578	 1.7457979141	 1.9052634481	 0.232108
