16
gdb 74172	2.25135	1.4968	0.90473	5.3801	81.27	-0.2037	-0.0347	0.169	1235.3222	0.123788	-437.938676	-437.929954	-437.92901	-437.972135	31.876	
C	-0.0199633327	 1.547955663	-0.0330002409	-0.508621
C	 0.0220699306	 0.0514542266	-0.0259881141	 0.232298
C	 0.0622254922	-0.7837932895	-1.1755933184	-0.363259
C	 0.092127041	-2.0752277306	-0.7011704948	 0.406343
N	 0.199236978	-3.2909329009	-1.3230830133	-0.593091
H	-0.1273252655	-3.3201187511	-2.2762827224	 0.266637
H	-0.106829323	-4.0762222644	-0.7667325429	 0.271598
O	 0.0711293909	-2.1029778759	 0.6359054074	-0.190136
C	 0.0280301563	-0.7844851055	 1.0709752457	 0.15036
C	-0.0077185535	-0.5407792859	 2.4872233869	 0.054541
O	-0.00546816	-1.3884826372	 3.3600327215	-0.311719
H	 0.8571211751	 1.9583899737	-0.5453977365	 0.140209
H	-0.9037135016	 1.9094220135	-0.5703425451	 0.138856
H	-0.0457902018	 1.9644333015	 0.9752784106	 0.139116
H	 0.0731379693	-0.4774817954	-2.2096995185	 0.105889
H	-0.0403835555	 0.543150848	 2.7351253547	 0.060979
