12
gdb 711	7.83461	4.13288	3.97847	2.8506	48.92	-0.2009	0.0708	0.2717	409.7592	0.097677	-265.289023	-265.284536	-265.283592	-265.316426	18.091	
N	 0.0053979009	 1.4254101896	-0.2278656473	-0.304545
C	 1.3011544474	 0.7592666078	 0.0469406651	-0.054973
C	 0.0498644223	-0.0291681393	 0.0558188837	-0.054973
C	 0.5141436231	-0.7805575279	-1.2372770679	-0.054973
N	 0.7524202736	 0.2163920062	-2.3085221195	-0.304545
C	 1.7654253835	 0.0078904503	-1.246165704	-0.054973
H	-0.2724891406	 1.8762653157	 0.6448835846	 0.227745
H	 1.942790712	 1.0670015688	 0.8618423779	 0.093374
H	-0.4963504132	-0.4698945261	 0.8791489301	 0.093373
H	 0.3416991435	-1.826188348	-1.4549508164	 0.093373
H	 1.0789823573	-0.3110141302	-3.1193135821	 0.227745
H	 2.7808240401	-0.2892644568	-1.472278664	 0.093373
