18
gdb 61975	3.86723	0.75601	0.65744	3.1494	76.84	-0.2438	0.0175	0.2612	1669.6773	0.144373	-439.081096	-439.070435	-439.069491	-439.118924	36.91	
C	-0.1499473488	 1.4670001057	-0.02844342	-0.481545
C	-0.0142309959	-0.0331920826	 0.1816102939	 0.403572
O	 0.834530591	-0.5111039181	 0.9123940476	-0.371234
N	-0.9060451086	-0.7975197336	-0.5195539394	-0.314501
C	-0.9822987575	-2.233627893	-0.379932366	-0.16623
C	-2.4130768655	-2.6534559784	 0.0104330242	-0.056445
O	-3.3614882169	-2.1049043535	-0.9109218851	-0.427627
C	-2.5292067219	-4.1062472637	 0.1153302313	 0.290629
C	-2.6038922689	-5.3054902422	 0.1478532	-0.434724
H	 0.8003287431	 1.8559442053	-0.4033114058	 0.152838
H	-0.9475256691	 1.7442768784	-0.7223696463	 0.112362
H	-0.3369094984	 1.9409870096	 0.9388176383	 0.152409
H	-1.6456921389	-0.3584719364	-1.0438964306	 0.249593
H	-0.7095757486	-2.7382593992	-1.3168879069	 0.105594
H	-0.2637500912	-2.5293987679	 0.3870517949	 0.159079
H	-2.6562423842	-2.1898492933	 0.9734916002	 0.129604
H	-3.3834603078	-2.6839866788	-1.6813920688	 0.289634
H	-2.6796496919	-6.3639184483	 0.1996192587	 0.206991
