21
gdb 54257	2.30376	1.37749	1.336	2.0325	77.93	-0.2272	-0.0116	0.2156	1140.389	0.180765	-424.263578	-424.253843	-424.252899	-424.298835	35.628	
C	-0.2339332658	 1.4641751643	-0.0613309687	-0.470539
C	-0.0131879325	-0.0318307065	 0.0236834673	 0.353774
O	 0.1481700414	-0.6042338285	 1.0778220938	-0.317612
C	 0.0380200564	-0.8204610752	-1.3077310355	 0.288462
C	 1.5142752029	-1.0239690656	-1.668577071	-0.433638
C	-0.7588040293	-2.1339964706	-1.2008199359	-0.260115
C	-2.1487471573	-1.7222305295	-1.7033870705	-0.236106
C	-1.7916244444	-0.7007346049	-2.7868592568	-0.069987
O	-0.5972667566	-0.054029515	-2.3436277841	-0.305248
H	 0.4107935437	 1.9161623611	-0.8204044132	 0.144567
H	-1.261496146	 1.6665516079	-0.3803168669	 0.145965
H	-0.0557613498	 1.9126038763	 0.9167580455	 0.132735
H	 2.0170147028	-1.6029998825	-0.8891511308	 0.136573
H	 1.590783191	-1.5581362177	-2.6198741423	 0.120148
H	 2.028316622	-0.0638829584	-1.7753258758	 0.123672
H	-0.3190800413	-2.8892516719	-1.8609549984	 0.097296
H	-0.7460071153	-2.5170825246	-0.1801329494	 0.132348
H	-2.7389071126	-2.557488171	-2.0873449508	 0.105837
H	-2.7216174952	-1.2458346439	-0.9001655553	 0.111674
H	-1.606068391	-1.1979405457	-3.7507931478	 0.095308
H	-2.5622400432	 0.0612428519	-2.9434680036	 0.104886
