23
gdb 95406	2.86777	1.16791	0.89269	0.4018	96.45	-0.2069	-0.0155	0.1914	1402.621	0.206845	-351.182146	-351.172842	-351.171898	-351.21626	36.071	
C	 0.2036036139	 1.5900481903	 0.0275770206	-0.397395
C	-0.0746663917	 0.0748851376	-0.0395937838	-0.029158
C	 0.4558701437	-0.5043322405	-1.357211606	-0.195647
C	 0.1860536794	-2.0032514719	-1.5711669161	-0.269143
C	 1.0979010642	-2.9277922107	-0.8113031896	-0.164736
C	 1.507278779	-2.7995379292	 0.4604698505	 0.308123
C	 2.437449196	-3.8296401837	 1.0637059083	-0.480425
C	 1.0967957836	-1.7422808898	 1.3956571706	-0.130873
C	 0.4368311678	-0.5891146178	 1.2126429961	-0.050867
H	 1.2809935824	 1.788868053	 0.0306453054	 0.119358
H	-0.2336626669	 2.1065185042	-0.8327785477	 0.110469
H	-0.2194707791	 2.0313431204	 0.9357491847	 0.111288
H	-1.170669598	-0.0432335281	-0.0396841137	 0.084102
H	-0.0051936365	 0.0583244673	-2.1778739671	 0.088989
H	 1.5354644807	-0.3224145556	-1.4244158394	 0.100598
H	-0.8638749063	-2.2217561398	-1.3235914581	 0.108206
H	 0.2842520669	-2.2277863852	-2.6392510324	 0.097015
H	 1.4636728327	-3.7883216866	-1.3677867749	 0.075082
H	 3.3683303418	-3.3667741632	 1.4145688543	 0.122881
H	 1.9799123683	-4.3109989205	 1.9374771971	 0.121489
H	 2.6973704249	-4.6097634501	 0.3442187368	 0.116251
H	 1.3737864521	-1.9575321861	 2.4274519879	 0.074146
H	 0.2388542511	-0.010014064	 2.1146286265	 0.080249
