18
gdb 106088	3.22552	1.29327	1.186	2.8952	76.16	-0.2332	-0.0057	0.2275	1117.8173	0.14765	-401.905031	-401.897067	-401.896123	-401.937825	30.345	
C	-0.2495643707	 1.5350890544	-0.0062452499	-0.384034
C	 0.0433216535	 0.0292928931	 0.0307245117	-0.333046
C	 0.8115688764	-0.4474654756	-1.158356231	 0.369882
C	 0.9586851507	-1.8319768073	-1.7579998959	-0.237182
N	 0.3029619254	-0.7079604712	-2.5154596056	-0.174681
C	 1.4420041051	 0.0899155802	-3.1064184124	-0.161638
C	 2.224023153	-0.0854700987	-1.7982703405	-0.253572
C	 2.4420532332	-1.6132962624	-1.7705641948	 0.441372
O	 3.39446504	-2.3163495524	-1.5858823049	-0.336169
H	 0.6766460073	 2.1183510072	-0.0310816051	 0.121914
H	-0.8386534047	 1.7953702456	-0.8906959877	 0.133261
H	-0.8139362643	 1.8406929243	 0.8793129573	 0.121467
H	 0.603844473	-0.2236194227	 0.9392422902	 0.118002
H	-0.8954499231	-0.5350568888	 0.0731014479	 0.122102
H	 0.3747133	-2.7252754817	-1.5839278057	 0.120475
H	 1.8746032947	-0.323961419	-4.0242062995	 0.114645
H	 1.0830481647	 1.1057226798	-3.2850479135	 0.120283
H	 2.9923109659	 0.5923162051	-1.4361681904	 0.096918
