22
gdb 93784	2.29106	1.44835	1.07062	3.1082	83.78	-0.2518	0.0259	0.2777	1237.8074	0.195202	-404.38501	-404.375785	-404.374841	-404.418922	35.304	
C	-0.0630438704	 1.5299425835	 0.0876729272	-0.399393
C	-0.0327995747	 0.0191166794	-0.075874956	 0.143317
C	 0.7226216345	-0.4544493039	-1.3128805534	-0.207498
C	 0.8280752299	-1.9813615568	-1.3050317707	-0.242879
C	 1.4935571519	-2.4806408408	-0.0103717753	-0.031328
C	 3.02026643	-2.257486208	-0.0070644894	-0.396123
C	 0.8914420417	-1.8275768086	 1.2205560757	 0.365149
N	 0.8199069603	-2.4562890572	 2.318046219	-0.503175
O	 0.5509212742	-0.5042540295	 1.1391331628	-0.273112
H	 0.9539577615	 1.9289267998	 0.1516522602	 0.125231
H	-0.5665211255	 1.9936193602	-0.7659017129	 0.117721
H	-0.5983392974	 1.806315339	 0.9996999647	 0.128215
H	-1.0648541911	-0.3617977878	-0.1283014555	 0.080754
H	 0.1929639924	-0.1057858497	-2.2062215577	 0.10141
H	 1.7173371354	 0.0063904063	-1.330153979	 0.106669
H	-0.1797161302	-2.4087695395	-1.3853885887	 0.101134
H	 1.3916068891	-2.3395920947	-2.173066941	 0.097979
H	 1.3151390405	-3.5527994092	 0.1020978675	 0.101283
H	 3.2787008074	-1.194787522	-0.0404424152	 0.120335
H	 3.4602474323	-2.6804658046	 0.8991039568	 0.138957
H	 3.4760418632	-2.744725065	-0.8753324335	 0.112014
H	 0.4346303651	-1.844053161	 3.0411394143	 0.213338
