20
gdb 86223	2.27864	1.32287	0.91625	4.709	79.88	-0.2722	0.0184	0.2906	1315.7949	0.170746	-403.180708	-403.171395	-403.170451	-403.215427	34.256	
C	-0.1710009193	 1.4874172995	 0.0831175455	-0.402395
C	 0.0291949489	-0.013757646	-0.0169081581	 0.137377
C	 0.8143785422	-0.5151207142	-1.2295607006	-0.242561
C	 1.3322302743	-1.8793373002	-0.7497437258	-0.015421
C	 2.5697995197	-2.4162657366	-1.4630066262	-0.419709
C	 1.559980123	-1.6005909712	 0.7669754432	-0.00276
O	 0.8144462206	-0.44245466	 1.1115241193	-0.274687
C	 1.1670396191	-2.7458225522	 1.6070517272	 0.267534
N	 0.8693976005	-3.6570742072	 2.2523747071	-0.32666
H	 0.7910013985	 2.0074153174	 0.0438502273	 0.122663
H	-0.7967273102	 1.8425557458	-0.7415578147	 0.119551
H	-0.6644231034	 1.7459575767	 1.0237671643	 0.134408
H	-0.9499342264	-0.517900479	 0.0201352177	 0.080384
H	 0.2027802793	-0.5920730047	-2.1321067984	 0.111118
H	 1.6510241198	 0.1633097884	-1.4378308629	 0.104225
H	 0.5213887355	-2.610358548	-0.8405171553	 0.104161
H	 3.4010390056	-1.7053075668	-1.3971388189	 0.121383
H	 2.8986824356	-3.3645082152	-1.0258582233	 0.135189
H	 2.3622685927	-2.5939199926	-2.522393502	 0.126659
H	 2.6218266442	-1.397423534	 0.9631040945	 0.119541
