18
gdb 100398	2.46044	0.98195	0.80958	7.0887	75.92	-0.2617	0.0011	0.2628	1448.4652	0.145476	-435.281086	-435.270607	-435.269662	-435.317373	36.818	
C	-0.1919704124	 1.0142760933	 0.2059941867	-0.381723
C	 0.2453879567	-0.4658726713	 0.2077772177	-0.140131
N	 0.8263493112	-0.8508974627	-1.0672153316	-0.301981
C	 0.0897049148	-1.328168223	-1.9968634638	 0.361469
N	-1.2555900491	-1.5765562632	-1.9677819977	-0.549357
C	 0.7967598909	-1.7113183669	-3.2908848469	-0.106732
O	 2.1721011534	-1.5092447258	-3.2103086202	-0.418261
C	 1.2405347997	-0.6907879647	 1.2731987955	 0.296778
N	 1.9960216343	-0.8536960143	 2.1313759952	-0.321572
H	 0.6584059996	 1.6504653661	-0.0479498451	 0.153917
H	-0.9739156506	 1.1684084623	-0.5430524128	 0.116577
H	-0.5770104742	 1.3086625368	 1.1856189527	 0.139068
H	-0.6214060943	-1.0929165257	 0.4760192759	 0.109077
H	-1.8434261435	-1.142474405	-1.2774509699	 0.268058
H	-1.7163755136	-1.8321120029	-2.8253938639	 0.267986
H	 0.5626753078	-2.7669169094	-3.5090911227	 0.110622
H	 0.3568065751	-1.1155495767	-4.1095515803	 0.102815
H	 2.315927484	-1.1514119771	-2.3156969989	 0.293389
