18
gdb 56957	2.23355	1.18472	0.85714	3.2269	79.07	-0.2505	-0.029	0.2216	1355.2261	0.144824	-401.896382	-401.886716	-401.885771	-401.931656	34.865	
C	-0.0451075833	 1.4958019035	 0.0013025252	-0.397442
C	 0.069967051	-0.0312839357	 0.1850417817	-0.16706
C	 0.7484483086	-0.3769993261	 1.4329131945	 0.330459
C	 1.2899657665	-0.6529087006	 2.4698033725	-0.465415
C	-1.3161326868	-0.6680988466	 0.1332191225	-0.00149
N	-1.8815586965	-0.904630354	-1.1836560881	-0.340024
C	-1.5914662647	-2.0728204066	-0.3188893965	-0.1275
C	-0.5211036661	-2.989284053	-0.8046812646	 0.179114
O	-0.449847015	-4.150662938	-0.4919667677	-0.256226
H	 0.9436417225	 1.9605263361	 0.0059054684	 0.130704
H	-0.5347097199	 1.7162968117	-0.9512941026	 0.130476
H	-0.6320251495	 1.940450365	 0.8109352931	 0.124589
H	 0.6528277188	-0.4258844308	-0.6549862163	 0.115155
H	 1.7783419218	-0.9076001839	 3.3777734652	 0.200866
H	-1.9813517145	-0.3146190656	 0.9209317327	 0.104643
H	-2.8809928556	-0.7237338549	-1.2057715736	 0.245857
H	-2.4132791989	-2.5870081808	 0.1732768308	 0.107683
H	 0.2077430817	-2.5210001498	-1.5008295174	 0.08561
