19
gdb 86677	2.42922	1.35729	1.03545	4.1516	76.69	-0.2364	-0.0248	0.2116	1204.1799	0.15825	-419.162354	-419.153312	-419.152368	-419.196711	33.281	
C	-1.0228546279	 1.2398381916	 0.2040465642	-0.391456
C	-0.1659663211	 0.0012172336	 0.0058411604	-0.023321
N	 0.9844681711	 0.1741664267	-0.9243285695	-0.34645
C	 1.9181954503	-0.5336489411	-0.0175311124	-0.117322
C	 3.2101786335	 0.2122516685	 0.2363131385	 0.159741
O	 4.221035017	-0.2959986459	 0.6479520361	-0.249574
C	 0.8447160901	-0.4119900898	 1.0880089385	 0.310344
C	 0.9655116945	 0.0737426745	 2.4792964942	-0.303841
N	 0.6788034461	-1.3457302454	 2.1808550423	-0.352891
H	-0.4002396667	 2.0985652638	 0.4691093002	 0.12569
H	-1.5660154013	 1.482500715	-0.715348281	 0.121425
H	-1.7653226611	 1.0815055098	 0.9948091969	 0.110922
H	-0.8038559508	-0.8571900176	-0.2593075445	 0.071407
H	 0.870690181	-0.2507531428	-1.837331648	 0.224803
H	 2.1354650068	-1.5826005755	-0.2534283361	 0.095463
H	 3.1307488057	 1.3047970274	 0.0341938349	 0.077999
H	 1.9453338447	 0.2542460021	 2.9128552838	 0.136534
H	 0.1691239132	 0.7015019052	 2.8708254886	 0.117665
H	-0.3079105651	-1.5508604501	 2.3247543028	 0.232861
