18
gdb 94095	4.48326	0.97781	0.84637	0.7146	77.21	-0.214	-0.0128	0.2012	1361.352	0.149613	-435.321009	-435.312467	-435.311523	-435.354489	31.531	
C	-0.8795512239	 1.171699939	-0.3121390447	-0.385201
C	-0.0391451016	-0.099596943	-0.351282144	 0.064114
C	 1.4480018458	 0.1349607121	-0.76060219	-0.192428
N	 2.137395192	-0.8228667209	 0.1074466045	-0.34744
C	 1.2482653658	-1.1032999995	 1.118473014	 0.488657
N	 1.6736129785	-1.7924394768	 2.2558930407	-0.387466
C	 2.9631456754	-2.0300259079	 2.6430138077	 0.162604
O	 3.9597031714	-1.6934211075	 2.0388566645	-0.317246
N	 0.0234373958	-0.7626299406	 0.9680360706	-0.366962
H	-0.4563077803	 1.8905407483	 0.3970928161	 0.114458
H	-0.9212653533	 1.6439748604	-1.2997609853	 0.10853
H	-1.9009861605	 0.9444946328	 0.0045287731	 0.125713
H	-0.5007027371	-0.8032883345	-1.0599656259	 0.081811
H	 1.6398950837	-0.0706697772	-1.8167169418	 0.112159
H	 1.7590011145	 1.1689280877	-0.5476253221	 0.099364
H	 3.1153882369	-0.7385638287	 0.3483911135	 0.266899
H	 0.9228070154	-2.0581565182	 2.8763478847	 0.272769
H	 3.0010023816	-2.5817460655	 3.5998463444	 0.099665
