15
gdb 4770	4.59276	1.45133	1.11813	2.7234	63.55	-0.2389	0.0026	0.2415	1028.7965	0.118691	-399.835056	-399.827124	-399.82618	-399.868005	27.701	
C	-0.3273725532	 1.3827233188	 0.1321720115	-0.491053
C	-0.0923005906	-0.0826602001	-0.0040216582	 0.256176
C	 0.3573520302	-0.7981508647	-1.0610911755	-0.124426
O	 0.4066350335	-2.124944941	-0.7010715636	-0.175441
C	-0.023430793	-2.1370632012	 0.5756453472	 0.365344
C	-0.1094306431	-3.4290204664	 1.3241754198	-0.139278
O	-0.5802435753	-3.2179716388	 2.6309371776	-0.421143
N	-0.3328611251	-0.9728635943	 1.0470292092	-0.373521
H	 0.2825626388	 1.8022533809	 0.9390328965	 0.141984
H	-0.0809637183	 1.9074383595	-0.7941957506	 0.12736
H	-1.3745570592	 1.588667384	 0.3772396893	 0.141986
H	 0.6660336627	-0.5615764255	-2.0644413396	 0.147138
H	-0.7736813264	-4.11839061	 0.7797968158	 0.121722
H	 0.8846358714	-3.9027906292	 1.3420913127	 0.121622
H	-0.7316835126	-2.2668201422	 2.7203427376	 0.301529
