23
gdb 91735	2.94402	1.33088	1.25661	1.2955	83.92	-0.2572	0.0793	0.3365	1146.4332	0.208653	-388.317216	-388.308948	-388.308003	-388.349578	33.901	
C	-0.3221953714	 1.5312966425	 0.002642459	-0.421149
C	 0.025298285	 0.0430620639	 0.0076120744	 0.067119
C	 0.789405194	-0.4553658387	-1.2648530926	-0.245685
C	 1.9535169729	-1.296193972	-0.6901929753	-0.000887
C	 1.344046112	-1.8512927711	 0.6159802916	-0.228516
C	 0.9430367132	-0.4605477046	 1.1533617135	-0.014641
C	 2.3024750107	 0.2777395263	 1.1168168402	-0.254206
C	 3.0122476219	-0.3246589215	-0.1392457215	 0.14526
O	 4.1739621598	-1.0782056645	 0.1899043762	-0.451497
H	 0.5630283348	 2.1612303261	-0.1358492655	 0.112935
H	-1.0132990254	 1.7630407955	-0.8151024912	 0.112598
H	-0.8051537725	 1.8339450103	 0.9387010478	 0.109269
H	-0.9161913472	-0.5138932678	 0.0887625441	 0.0669
H	 0.14418218	-1.0615318093	-1.9070498763	 0.094695
H	 1.1542376977	 0.3792400056	-1.8746941648	 0.089844
H	 2.3797895831	-2.0205581302	-1.385512026	 0.063467
H	 0.4875755704	-2.5120704434	 0.4502486205	 0.084291
H	 2.0827010623	-2.3659084778	 1.2351359778	 0.103047
H	 0.4602626981	-0.4391470605	 2.1333436126	 0.050782
H	 2.2052371514	 1.3653930294	 1.0734706459	 0.093485
H	 2.8913800503	 0.0336583882	 2.0072125681	 0.091574
H	 3.2657424988	 0.4494460981	-0.8786131167	 0.054136
H	 4.7806653	-0.4969795145	 0.6592174581	 0.277179
