18
gdb 45239	3.36422	1.66778	1.50116	3.8326	74.51	-0.2321	0.0235	0.2555	925.7108	0.152674	-401.979706	-401.973554	-401.972609	-402.009981	26.48	
O	-0.0271587895	-0.0655072392	-0.0154931275	-0.383296
C	-0.015729889	 1.1443101451	-0.0365902139	 0.389344
N	-1.1202871551	 1.9837662954	-0.0947342675	-0.300853
C	-0.69326165	 3.3429636018	 0.2506658764	-0.018814
C	-0.1091588002	 3.3262275261	 1.701303587	-0.224776
C	 1.340723578	 2.9805820808	 1.3125340462	-0.035847
C	 1.6598621048	 4.1656987485	 0.3591768138	-0.239334
C	 0.6377929353	 3.460478572	-0.5555530941	-0.021119
C	 1.1615905287	 2.101930539	-0.0067101384	-0.135838
H	-2.0115973272	 1.6204006777	 0.2129922223	 0.243957
H	-1.4671012755	 4.0807991743	 0.0422466906	 0.079712
H	-0.1643391831	 4.2954492236	 2.2057581621	 0.100858
H	-0.6084801877	 2.5793425956	 2.3235274732	 0.102668
H	 2.0222739686	 2.6645223656	 2.1004275337	 0.077093
H	 1.4496268348	 5.178747495	 0.7156245115	 0.091864
H	 2.6685362676	 4.1175385956	-0.0577391192	 0.105771
H	 0.5431095125	 3.6548756906	-1.6233213815	 0.077283
H	 2.0936838569	 1.7113058526	-0.4082926447	 0.091328
