17
gdb 74361	3.99898	0.8896	0.76119	4.2933	71.05	-0.2309	-0.0148	0.2161	1433.6911	0.136155	-455.176844	-455.16793	-455.166986	-455.212364	31.434	
N	 0.1287970266	 1.3398483299	 0.0909708042	-0.573532
C	 0.0045164458	-0.0178585564	 0.0300453453	 0.476483
N	-1.0601743337	-0.6976198802	 0.2112168843	-0.357703
C	-0.7066923666	-2.0967635818	-0.0488757446	 0.000158
C	-1.5662594901	-2.7002366524	-1.1766830967	-0.281911
C	-3.0419597624	-2.6967235682	-0.8356038926	 0.157682
O	-3.7397709448	-3.6799263168	-0.8426174048	-0.247048
C	 0.8123458656	-2.0544528356	-0.3950589439	-0.125409
O	 1.1572481646	-0.6572792806	-0.3065357161	-0.250566
H	 1.0554490156	 1.686542684	 0.2818408593	 0.266368
H	-0.6179104127	 1.8072826195	 0.579663786	 0.271434
H	-0.8732435028	-2.6895729211	 0.8596841975	 0.092689
H	-1.4249228169	-2.0896777956	-2.0796101447	 0.117738
H	-1.26372063	-3.729202784	-1.3955271386	 0.113762
H	-3.4472202108	-1.6994322452	-0.5659524445	 0.100657
H	 1.4349398929	-2.6089050997	 0.3120674868	 0.120757
H	 1.0324780298	-2.3992525158	-1.4102768369	 0.118441
