16
gdb 21158	3.204	1.90874	1.22942	2.5689	68.13	-0.1866	0.0466	0.2332	963.9421	0.133141	-376.103608	-376.095503	-376.094559	-376.136168	29.335	
C	 0.069040441	 1.3914407941	 0.1859582506	-0.336419
N	-0.002609654	 0.0276093623	-0.3158673618	-0.384341
C	-1.1317926625	-0.7273352961	-0.0642714011	 0.442982
C	-1.2313419087	-2.1022019977	 0.109586744	 0.017863
N	-0.094163777	-2.9615260032	 0.1305963611	-0.625646
C	-2.6184089311	-2.3340677898	 0.2673592169	-0.052268
N	-3.3308473756	-1.2167502269	 0.2104043967	-0.251261
N	-2.3956216923	-0.2436570146	 0.001121843	-0.276552
H	 1.0646966239	 1.790535443	-0.0193322303	 0.133832
H	-0.6462404429	 2.0306620347	-0.3444284558	 0.125519
H	-0.1286839527	 1.4784657938	 1.2657345493	 0.119001
H	 0.819312839	-0.5321129696	-0.1233443437	 0.248863
H	-0.1117892314	-3.581727565	 0.9334902639	 0.237248
H	-0.0494664825	-3.5515960931	-0.6949792976	 0.238453
H	-3.1195810207	-3.2784383867	 0.4324448312	 0.09663
H	-2.7012335926	 0.7074722747	-0.1003822366	 0.266096
