17
gdb 42358	2.88743	1.11372	0.933	1.614	74.21	-0.2377	-0.0306	0.2071	1283.9444	0.133409	-421.781832	-421.772576	-421.771632	-421.817832	32.421	
O	-0.0821225298	-0.7223452708	 0.1172020997	-0.290326
C	 0.0521125773	 0.4715210839	 0.0225691282	 0.358933
C	 0.9403869608	 1.2751417928	 0.9877746803	-0.417925
C	 2.0606458286	 1.8995901077	 0.2969141327	 0.295457
C	 2.9802180332	 2.3931388706	-0.2990399593	-0.45826
C	-0.673950207	 1.2951704622	-1.0378546361	 0.053279
C	-1.9836703867	 0.7072147744	-1.5875955726	-0.292917
C	-2.6442552142	 1.9322617114	-0.922669662	-0.061109
O	-1.3685904317	 2.4108109208	-0.4250752625	-0.298543
H	 0.3105153508	 2.0459700594	 1.4484170493	 0.167588
H	 1.2873089348	 0.5902006518	 1.7667497611	 0.150387
H	 3.7972154932	 2.8383189356	-0.8108222837	 0.203164
H	 0.0562715914	 1.6379885752	-1.7829780929	 0.113363
H	-2.0576074966	 0.6638513486	-2.6740556324	 0.116935
H	-2.2356813925	-0.2643345201	-1.1627837654	 0.136765
H	-3.0991870213	 2.6552301246	-1.6087095242	 0.110779
H	-3.3441916302	 1.7225715419	-0.1060711902	 0.112429
