21
gdb 74796	2.58189	1.63989	1.45817	1.7066	82.32	-0.2284	0.0204	0.2487	1039.0077	0.185368	-387.115211	-387.107533	-387.106588	-387.146905	31.363	
C	-0.0898778244	 1.512756971	 0.0463272726	-0.506922
C	-0.077399635	 0.0221276019	-0.0250107626	 0.344834
C	-0.0940043982	-0.7850549545	-1.0850456699	-0.204445
C	 0.0287117261	-2.217930173	-0.590526533	 0.040111
C	 1.5030798686	-2.6662520862	-0.4839786104	-0.196374
C	 2.3157291032	-1.6464737889	 0.348126985	-0.205629
C	 1.5325678798	-1.1187598424	 1.5738781568	-0.202846
C	 0.0522577793	-0.8778951649	 1.2041525185	-0.011313
O	-0.4745183585	-2.1266865371	 0.7494038264	-0.259358
H	 0.81558301	 1.89714582	 0.5336168868	 0.129271
H	-0.1536236161	 1.9635717703	-0.94764227	 0.126828
H	-0.9384408996	 1.8744897862	 0.6409043368	 0.129756
H	-0.1071850766	-0.495714862	-2.1286374641	 0.093353
H	-0.5776816012	-2.9454080447	-1.1383377101	 0.073587
H	 1.5098151868	-3.6486215356	 0.0014441839	 0.102822
H	 1.9511275915	-2.7895984738	-1.4770909134	 0.088994
H	 3.2608843596	-2.0941156068	 0.672205022	 0.092423
H	 2.5812109407	-0.8002844229	-0.2933708938	 0.101795
H	 1.5464197587	-1.8564612144	 2.3838947784	 0.10411
H	 2.0000753683	-0.2049003533	 1.9601743574	 0.088952
H	-0.5329048728	-0.5470697088	 2.0685502727	 0.070051
