23
gdb 123078	9.15082	0.39921	0.38806	0.9979	93.36	-0.2427	0.0624	0.305	2862.1216	0.202438	-388.26929	-388.257312	-388.256367	-388.30921	39.924	
C	 0.0953211848	 1.4839351543	 0.0089893573	-0.382267
C	-0.0060912242	-0.043267691	 0.0017671264	-0.182492
C	-1.4487784692	-0.5297832253	 0.012939252	-0.031297
O	-1.4545620358	-1.9418473639	 0.0053861275	-0.244243
C	-2.748833339	-2.4972439918	 0.01484962	-0.044659
C	-2.6029723762	-4.022726995	 0.0050186198	-0.35111
C	-3.8918197475	-4.7038908427	 0.0136562407	 0.038467
C	-4.9702135335	-5.2393455523	 0.0211967572	 0.073131
C	-6.2672126713	-5.9014579899	 0.0304776869	-0.496422
H	 1.1397020394	 1.808698206	 0.0007812704	 0.117273
H	-0.3948768326	 1.9210906251	-0.8679789059	 0.116222
H	-0.3780351042	 1.9116091901	 0.8997763922	 0.116221
H	 0.4924466789	-0.4541194541	-0.8836596629	 0.10638
H	 0.5092265919	-0.463543766	 0.873050524	 0.106379
H	-1.9747029854	-0.1496937974	 0.9065176705	 0.082735
H	-1.9916491016	-0.1401509183	-0.8662792453	 0.082736
H	-3.3083969203	-2.1783119522	 0.9092544989	 0.094153
H	-3.3255692669	-2.1685231474	-0.8649862989	 0.094153
H	-2.0217139344	-4.3088973528	-0.8800705403	 0.133166
H	-2.0047742274	-4.3185904225	 0.8755240185	 0.133168
H	-6.1566259889	-6.9915986343	 0.0243676546	 0.147221
H	-6.846618802	-5.6339670684	 0.9212085097	 0.145544
H	-6.8633898847	-5.6257761401	-0.8465844433	 0.145538
