19
gdb 81358	2.56991	1.45841	1.35648	1.2696	70.17	-0.247	0.0532	0.3002	1041.7625	0.160414	-460.137631	-460.129515	-460.128571	-460.169809	32.569	
O	-0.0285716304	 1.4002919681	-0.1047749204	-0.453147
C	 0.0712306854	-0.0059711295	-0.0203464871	 0.152713
C	 0.1391950302	-0.5911054397	 1.4247702096	-0.095335
C	-1.3870306394	-0.2957056538	 1.5092526902	-0.253022
C	-1.3413109948	-0.6531945877	-0.0087022694	-0.04362
C	-1.0089971228	-2.1434961369	 0.0490356714	 0.048677
O	-0.5064925147	-2.609240882	-1.202864342	-0.435704
C	 0.1360686635	-2.106133945	 1.1524808811	 0.113077
O	 1.3527302859	-2.6261992002	 0.6747591486	-0.453306
H	 0.8343817528	 1.7683354214	 0.109421653	 0.283703
H	 0.7941388357	-0.3912161176	-0.74761025	 0.068977
H	 0.8556993767	-0.2245909796	 2.1609889797	 0.059995
H	-1.9959540032	-0.9240250437	 2.167192418	 0.085526
H	-1.6039529904	 0.757343828	 1.6735731095	 0.122586
H	-2.1103627971	-0.3396187198	-0.713687422	 0.072372
H	-1.8706787214	-2.7451341495	 0.3556885828	 0.075763
H	-0.6759242569	-3.5539152951	-1.264759206	 0.295909
H	-0.1460126698	-2.6669558728	 2.0513615668	 0.072335
H	 1.2374969308	-2.7158953946	-0.2830166236	 0.2825
