19
gdb 96992	2.84752	1.34886	1.11204	1.2288	78.76	-0.2387	0.0286	0.2673	1174.3533	0.159344	-419.183111	-419.17403	-419.173086	-419.217206	33.205	
C	-0.2529519718	 1.4448184045	-0.1255041182	-0.338581
N	-0.3455950674	 0.0036978237	-0.3190063302	-0.343202
C	 0.5634347013	-0.5903230474	-0.9398912321	 0.404363
O	 1.7170848834	-0.1035906919	-1.5457714464	-0.290108
C	 2.0211120373	-1.4040522434	-2.1388975134	 0.084179
C	 2.9985533775	-2.2053135635	-1.2643795557	-0.233489
C	 1.7915162706	-2.7893193765	-0.4662914241	-0.277229
C	 0.7880115946	-2.0242220564	-1.3861109126	 0.182993
N	-0.264143895	-2.8069524014	-1.960652996	-0.598806
H	 0.5374381057	 1.922621029	-0.7162801312	 0.126678
H	-1.2142853917	 1.9023208193	-0.3815630682	 0.123349
H	-0.0701764692	 1.6578877048	 0.934239133	 0.127085
H	 2.1422337136	-1.3348024429	-3.2193579959	 0.092815
H	 3.5506984586	-2.9657828484	-1.8211359914	 0.112668
H	 3.705004696	-1.5877034885	-0.7069963098	 0.117922
H	 1.6867087898	-3.8693222225	-0.5920438895	 0.115814
H	 1.7312976188	-2.5459558674	 0.5958275359	 0.116409
H	-0.6728297866	-3.4120453511	-1.255334868	 0.238212
H	-1.0122329154	-2.2095652102	-2.2999035164	 0.238929
