17
gdb 8097	2.82125	2.12467	1.5278	3.0395	70.63	-0.2546	0.0228	0.2774	895.4827	0.141335	-363.847564	-363.839739	-363.838795	-363.879327	29.626	
C	 0.0385569864	 1.5990873796	 0.0379604363	-0.42002
C	 0.0739224169	 0.0881647825	 0.0533201563	-0.067784
C	 1.3167458551	-0.7608381369	-0.2791523373	-0.275289
C	 2.5002812986	-0.1543249098	 0.39095118	 0.442603
N	 3.6723315402	 0.1300342947	 0.048778043	-0.560418
O	 1.8801405556	-0.0492335955	 1.6372354992	-0.303157
C	 0.7053729313	-0.7474345619	 1.114127306	 0.4331
C	 0.1028770266	-1.7930742725	 1.9893558956	-0.489096
H	 0.9166377242	 2.0203922282	 0.5311246644	 0.142709
H	 0.0054863718	 1.9770558423	-0.9884623217	 0.126484
H	-0.8504635544	 1.9663892255	 0.5615688895	 0.120559
H	-0.8168318716	-0.3878183381	-0.3557512823	 0.098238
H	 1.3327231292	-1.5125095669	-1.0551134249	 0.11686
H	 4.2041802485	 0.5009011542	 0.8382341983	 0.227556
H	-0.3291674293	-1.3410518123	 2.8889082939	 0.138607
H	-0.6962574751	-2.3166913635	 1.4571313314	 0.130789
H	 0.8552617761	-2.5236216595	 2.3009182223	 0.138259
