18
gdb 78853	2.70113	1.859	1.50957	1.693	73.32	-0.2159	0.0708	0.2867	939.5159	0.148242	-401.885463	-401.878236	-401.877292	-401.916634	29.812	
C	 0.0694371014	 1.5419252021	 0.0139177319	-0.39282
C	 0.0321892418	 0.0186508622	-0.0348234617	 0.040569
C	 0.8326272585	-0.602252609	-1.1686838633	-0.123328
C	 1.3010970722	-1.9898100375	-0.748669555	-0.214334
C	 1.2018834688	-1.9147141676	 0.8032906988	-0.057686
C	 2.1341356483	-0.7569608914	 0.840844038	-0.163071
N	 0.701365086	-0.5708618202	 1.1429214815	-0.117007
C	 2.2496848934	-0.8016517433	-0.7187096586	 0.386164
O	 3.3403362099	-0.45547341	-1.4815967993	-0.461719
H	 1.102498945	 1.9041217073	 0.0214108111	 0.124046
H	-0.4331514209	 1.9694710698	-0.8592958377	 0.112318
H	-0.4302990591	 1.9104609546	 0.9139076738	 0.12391
H	-1.0057405144	-0.3345943665	-0.0408044981	 0.078629
H	 0.6388017437	-0.4059138148	-2.2161579854	 0.096228
H	 1.2666274191	-2.8688486606	-1.3758627313	 0.09324
H	 1.0484818588	-2.7362600643	 1.4912211537	 0.093378
H	 2.8911264676	-0.4495807726	 1.5524563826	 0.09218
H	 4.0466446798	-1.087840768	-1.3086766208	 0.289303
