20
gdb 126333	2.06067	1.48417	0.92665	1.5776	82.83	-0.1878	0.0393	0.227	1312.2719	0.172212	-399.351999	-399.342379	-399.341435	-399.386779	34.972	
C	 0.0057569302	 1.5706850957	 0.1283669277	-0.366276
C	-0.057209569	 0.0391404989	-0.0212472268	-0.322087
C	 0.6635170723	-0.4825326735	-1.2281763236	 0.136323
C	 0.1453380947	-0.871836616	-2.4454839571	-0.114966
N	 1.1829070121	-1.268362475	-3.2164430891	-0.208404
N	 2.3810439626	-1.1592291644	-2.5863644135	-0.318012
C	 2.0672967949	-0.6902712147	-1.3811016211	 0.340978
N	 3.033786457	-0.5081863008	-0.3999533568	-0.379035
C	 4.4307931884	-0.5807092544	-0.7990659236	-0.310671
H	 1.0404368375	 1.926926655	 0.185766606	 0.109304
H	-0.4583593025	 2.0647900395	-0.7307360055	 0.119442
H	-0.5116574091	 1.9008201973	 1.0351779985	 0.110145
H	 0.3622838762	-0.4272368576	 0.8799381601	 0.106362
H	-1.1073707831	-0.271792331	-0.0602849269	 0.101485
H	-0.8731647439	-0.9031349747	-2.8020829386	 0.126252
H	 1.1597744225	-1.6228742281	-4.1552914186	 0.267696
H	 2.8296317437	 0.267504893	 0.2123663954	 0.233957
H	 4.6414154668	-1.5752601257	-1.1999311101	 0.144309
H	 4.7025285928	 0.1500891057	-1.575247719	 0.113013
H	 5.058232756	-0.4187178591	 0.0810832225	 0.110184
