19
gdb 87509	3.51772	1.37728	1.28209	1.2795	79.87	-0.2163	0.0017	0.218	1066.9529	0.160858	-381.988652	-381.981067	-381.980123	-382.020424	30.655	
C	-0.037958614	 1.5193915671	-0.1056439969	-0.391713
C	 0.0088776536	 0.0194870618	 0.0476580535	-0.110048
N	 1.3497628336	-0.625973158	-0.0914747866	-0.415055
C	 0.6648192285	-0.6601617575	 1.171910149	 0.4738
C	 1.162096604	-0.1689425992	 2.5626614746	-0.146494
N	-0.134807039	-0.75395984	 3.0622272166	-0.301813
C	 0.1784498128	-1.8385437321	 2.0644665436	-0.164048
C	 1.539069077	-2.3867931607	 2.5454517875	-0.102809
C	 2.1956829929	-1.2690469588	 2.875776589	-0.074779
H	 0.8504534231	 1.9779539662	 0.3361740203	 0.123575
H	-0.0743327467	 1.8040727194	-1.1626621545	 0.117361
H	-0.924359837	 1.929811998	 0.3894788152	 0.123396
H	-0.8329842869	-0.5130754249	-0.395068683	 0.084319
H	 1.2880841185	-1.5182559626	-0.5754847568	 0.228714
H	 1.3844138681	 0.8712557488	 2.7961946414	 0.072481
H	-0.0255895224	-1.1036765429	 4.0163150482	 0.20166
H	-0.6185421068	-2.526017158	 1.7788804623	 0.067669
H	 1.8632103661	-3.4176355262	 2.5463364936	 0.105404
H	 3.2105360746	-1.1278943706	 3.2184803931	 0.108381
