15
gdb 33804	3.63691	1.55396	1.38158	1.8866	74.44	-0.2263	-0.0245	0.2018	943.4226	0.112034	-383.417724	-383.410845	-383.409901	-383.4486	28.599	
C	-0.0090879594	-1.1798005436	 0.0391092381	-0.320102
C	-0.018916857	 0.0209926345	 0.0409138407	 0.052169
C	-0.0054651726	 1.4660918315	-0.0046184179	 0.231116
O	-0.6079384179	 2.0888427989	 1.1510213043	-0.255897
C	-0.3860818155	 3.4360178495	 0.7039735485	-0.062487
C	 1.1446529214	 3.3962648312	 0.4642925547	-0.085364
C	 1.388090263	 2.171061405	 0.0181670243	-0.11363
C	-1.0738446787	 3.3806271702	-0.6838685725	-0.085379
C	-0.8366153565	 2.1553664875	-1.1331680968	-0.113633
H	-0.0076047368	-2.2418287036	 0.0509118532	 0.189249
H	-0.7639563222	 4.1590765047	 1.4242646557	 0.086653
H	 1.8194738997	 4.2312650091	 0.5844380205	 0.116251
H	 2.3037497321	 1.7103631349	-0.3202456387	 0.122404
H	-1.5708690981	 4.2073669394	-1.1701941712	 0.11625
H	-1.0839703916	 1.6864331407	-2.0734420329	 0.122401
