14
gdb 35674	4.90953	1.02787	0.96721	4.1806	67.67	-0.2881	-0.0017	0.2865	1179.3204	0.10013	-436.645814	-436.63771	-436.636765	-436.679436	28.937	
C	 0.1878515844	-1.1901354325	 0.0978446755	-0.4385
C	 0.0461584431	 0.0017954945	 0.0591970408	 0.347991
C	-0.1504539787	 1.4577056374	 0.0056067021	-0.013287
O	-0.7490704241	 1.9649366306	 1.1729548714	-0.21885
C	 0.3225168181	 2.2080813779	 2.0679853985	-0.135051
C	 1.4231513298	 2.7351101338	 1.1180413412	-0.027802
O	 1.1144541614	 2.120312607	-0.1269842855	-0.253266
C	 1.3995382346	 4.202537179	 0.9830176332	 0.27917
N	 1.3931835898	 5.3546967151	 0.902479237	-0.311403
H	 0.3116032713	-2.2452613884	 0.1267572074	 0.211775
H	-0.7831817356	 1.7359504057	-0.842451876	 0.137899
H	-0.0040611033	 2.9299795862	 2.8158165574	 0.152044
H	 0.658871899	 1.2830209547	 2.5533321804	 0.126138
H	 2.4241425301	 2.4290806191	 1.4383131664	 0.143141
