23
gdb 73833	2.28846	1.60489	1.07408	0.1253	92.79	-0.2065	0.0336	0.2401	1226.6434	0.20691	-351.174062	-351.16498	-351.164036	-351.207377	35.613	
C	 0.1131037038	 1.5717060278	-0.0415281304	-0.485333
C	 0.006339117	 0.0726259029	 0.0653845017	 0.195635
C	-1.1331789999	-0.6363813529	-0.0108733185	 0.242601
C	-2.5143942841	-0.0556676504	-0.1833081445	-0.495405
C	-1.1206643559	-2.1297578366	 0.0531576806	-0.092328
C	-0.2764091432	-2.9335160981	-0.9278239177	-0.295632
C	 0.1303317284	-2.8385276366	 0.5165551885	-0.022933
C	 1.2768123818	-1.9635109699	 0.9758875502	-0.222246
C	 1.345927217	-0.6246477156	 0.2239977489	-0.303527
H	 0.8102583074	 1.8515853122	-0.84312631	 0.118623
H	-0.8356786544	 2.069593912	-0.2440791976	 0.117679
H	 0.5247986527	 1.9993902213	 0.8827163668	 0.119053
H	-2.5311481677	 1.0334771647	-0.2270853534	 0.11816
H	-2.9813304428	-0.4364610531	-1.1010916493	 0.12383
H	-3.1668724736	-0.3647659967	 0.6439896806	 0.120728
H	-2.0717990752	-2.5768110993	 0.3280332869	 0.072109
H	-0.6727111432	-3.8779611678	-1.2854942777	 0.105186
H	 0.2824927634	-2.3751695451	-1.670762128	 0.11351
H	-0.0221182497	-3.735274623	 1.1108156687	 0.078757
H	 1.1397565361	-1.7601728755	 2.0459638768	 0.098284
H	 2.2330984744	-2.4913029102	 0.8786834621	 0.093431
H	 1.7963644251	-0.7780202012	-0.7677080092	 0.105975
H	 2.0413092924	 0.0419600711	 0.7491273644	 0.093843
