19
gdb 48413	3.00775	1.08001	0.8913	4.1703	76.45	-0.2446	-0.0198	0.2248	1329.9198	0.157429	-423.00139	-422.992318	-422.991374	-423.036071	32.957	
O	-0.5749049892	 0.7152927726	-0.8268902635	-0.277352
C	-0.0827141998	 1.2680127165	 0.1295513966	 0.091728
C	 1.260080525	 1.9245998472	 0.1121603031	 0.260736
C	 1.7416819357	 2.5312579998	 1.4204447163	-0.34673
C	 2.0435141551	 1.496799373	 2.4817552479	 0.10441
C	 1.7897967807	 1.7395570167	 3.9063263036	-0.181884
O	 0.9153650223	 0.9077641125	 3.140249369	-0.230797
C	 2.2697512756	 1.3171802747	-0.8558408637	-0.283082
C	 1.6141563248	 2.60724539	-1.2074684548	-0.300198
H	-0.6186432696	 1.3256782454	 1.0988896432	 0.099162
H	 2.6496505435	 3.1184434187	 1.2356172027	 0.106714
H	 0.9889166973	 3.2275383926	 1.8106842439	 0.110046
H	 2.8191928505	 0.7748270564	 2.2206977602	 0.097741
H	 2.3827154088	 1.224050589	 4.6601660026	 0.118585
H	 1.3691742711	 2.694160191	 4.2204842457	 0.11567
H	 3.310528136	 1.3275062954	-0.5502161026	 0.115288
H	 1.943452149	 0.4276487587	-1.382151116	 0.142256
H	 0.8452567445	 2.5878119047	-1.9710312781	 0.140626
H	 2.1901355789	 3.5241102452	-1.1437199159	 0.11708
