13
gdb 3121	6.04295	2.211	1.90681	4.5343	59.04	-0.2626	-0.0035	0.2591	671.8379	0.103247	-303.463214	-303.457301	-303.456357	-303.492835	22.067	
N	 0.1064723118	-1.1433557057	 0.0080281857	-0.334824
C	 0.0464309766	 0.0120249699	-0.009375262	 0.216289
C	-0.0745175147	 1.4383976467	-0.0173811494	 0.202908
C	 0.2814243507	 2.2720785578	-1.1932218812	-0.261575
N	 1.1318327562	 2.3860146412	-0.0054769124	-0.144166
C	 0.3650440322	 3.256204459	 0.9618605777	-0.151721
C	-0.821617364	 2.2614650811	 1.0365462189	-0.306297
H	 0.7720592815	 1.7738390842	-2.0226894923	 0.14786
H	-0.3735589816	 3.0973975444	-1.4672977669	 0.124146
H	 0.921245425	 3.3494071746	 1.8950055362	 0.129803
H	 0.1566404082	 4.2536174021	 0.5637429418	 0.117824
H	-1.8161682446	 2.6113873211	 0.7498642824	 0.120443
H	-0.8844682373	 1.7533430537	 1.9989798115	 0.139311
