18
gdb 96717	2.46077	1.11474	0.77459	3.9507	83.41	-0.231	-0.0728	0.1582	1449.4157	0.145833	-435.286657	-435.276561	-435.275617	-435.322671	35.188	
C	-0.2398993774	 1.6515443728	 0.8082947324	-0.326857
N	-0.0662019165	 0.2611802655	 0.4599554703	-0.286203
C	-0.9874289653	-0.609885668	 0.3317760994	 0.239402
N	-0.6670210731	-1.9106714079	-0.0081289637	-0.285259
C	 0.6020784646	-2.394422854	-0.2361424714	 0.099307
N	 0.7761034127	-3.6179108505	-0.5447857187	-0.465004
C	-2.5184219329	-0.4934563339	 0.494030423	 0.361495
C	-3.1636879518	 0.8183468294	 0.8649463932	-0.490883
O	-3.1899789919	-1.4867053028	 0.3151560595	-0.301988
H	 0.7466414038	 2.1226963745	 0.8338747109	 0.129465
H	-0.8441080648	 2.2097348517	 0.0806581642	 0.120721
H	-0.6920236218	 1.7981461591	 1.7983653631	 0.120766
H	-1.4455377881	-2.5514948682	-0.0933680755	 0.275664
H	 1.368956582	-1.6265300006	-0.1197474879	 0.127476
H	 1.7684113246	-3.8043317786	-0.6771279574	 0.226417
H	-2.7914618236	 1.1824220066	 1.8270513896	 0.153065
H	-2.9414320832	 1.5906099623	 0.1226877218	 0.153076
H	-4.2414510072	 0.6628011226	 0.9225124972	 0.149343
