21
gdb 110420	4.49518	1.0846	0.99742	0.8956	83.44	-0.2347	0.0923	0.327	1282.7379	0.182058	-387.031597	-387.023011	-387.022067	-387.064528	33.271	
C	 0.1974884787	 1.3070021069	-0.0563721195	-0.238842
O	-0.1893112961	-0.0106360922	 0.2591102495	-0.256129
C	 0.6252472655	-0.6128539727	 1.2379136441	 0.163927
C	 0.1798307338	-2.0478585024	 1.4599912449	-0.142701
C	 1.1629121386	-2.5685858891	 0.4333577157	-0.112482
C	 1.9525576243	-1.2214295048	 0.688369849	-0.112629
C	 2.5889049797	-1.8788187244	 1.9395508566	-0.289275
C	 1.4133781995	-2.8611384014	 1.8942064262	 0.338497
C	 1.2874638637	-4.1601047329	 2.6329713483	-0.50453
H	 1.205925359	 1.3550340075	-0.4942148958	 0.103532
H	-0.5187648303	 1.6883062268	-0.7883208056	 0.125288
H	 0.1791305766	 1.9597726794	 0.8308616438	 0.102524
H	 0.7187306015	 0.0558917062	 2.1106808265	 0.049246
H	-0.8248058412	-2.3965407642	 1.6635727818	 0.084409
H	 1.0321588391	-3.2098419624	-0.4258208662	 0.087016
H	 2.5537435739	-0.6765617647	-0.0364602611	 0.069885
H	 3.5315718789	-2.384404937	 1.7066143591	 0.09412
H	 2.7231496329	-1.2500727466	 2.8293546948	 0.083154
H	 1.1705785936	-3.9986366872	 3.7112676458	 0.118972
H	 0.4178066311	-4.7299949219	 2.2883078273	 0.119231
H	 2.175024167	-4.7858854429	 2.4843910246	 0.116787
