17
gdb 20860	3.04886	1.85383	1.26342	3.1752	69.83	-0.2494	-0.0011	0.2483	984.6746	0.141988	-363.873781	-363.865653	-363.864709	-363.90672	29.111	
C	-0.1555848719	 1.5417007494	 0.0585497422	-0.379392
C	 0.104827102	 0.0278538758	-0.0233718563	-0.290535
C	 0.7504041018	-0.5241182832	 1.2126836541	 0.321334
N	 2.0285220758	-0.8220773047	 1.2063039772	-0.206179
O	 2.3213310173	-1.2868703376	 2.4852110381	-0.170934
C	 1.1979644964	-1.2548175596	 3.2172702662	 0.000477
C	 0.1522143974	-0.783844765	 2.4912103789	 0.079852
C	-1.27190454	-0.5968303152	 2.9096484198	-0.513972
H	 0.7817148089	 2.0866963445	 0.2021174784	 0.134463
H	-0.6229950318	 1.9009283829	-0.8630890472	 0.118945
H	-0.82070927	 1.7924867776	 0.8907317743	 0.12053
H	-0.840874705	-0.4985625307	-0.2009090479	 0.108711
H	 0.7576091827	-0.1895737853	-0.8734890692	 0.129861
H	 1.2891956607	-1.601210302	 4.2358724663	 0.144241
H	-1.5577042857	 0.4608573281	 2.9286252734	 0.137346
H	-1.9612605705	-1.1038205223	 2.2252660909	 0.134591
H	-1.442739978	-1.0015839626	 3.9107368807	 0.130661
