19
gdb 87979	2.96145	1.18281	1.00608	0.9135	71.9	-0.2309	0.0678	0.2986	1225.6143	0.158408	-460.137364	-460.128521	-460.127577	-460.171344	33.665	
O	-0.0556622357	 1.3642330021	-0.1273582094	-0.418247
C	-0.0545170478	-0.0311400848	-0.0727349961	 0.025208
C	-0.4451362116	-0.7412386254	 1.2141861231	-0.410331
C	-1.3887092708	-0.7110222081	 0.0509325097	 0.433258
C	-2.6953725445	 0.0755099258	-0.0003732262	-0.324747
C	-3.5841899431	-0.7727564034	-0.9306766337	 0.111131
O	-4.3081979259	 0.0681391252	-1.8103401729	-0.427268
C	-2.5517720408	-1.6806113537	-1.6292861794	-0.131625
O	-1.5643482514	-1.9304568539	-0.6413056872	-0.282041
H	 0.6671412895	 1.688325804	 0.420216709	 0.28955
H	 0.6823055618	-0.5302563388	-0.7018181581	 0.093412
H	 0.0453122498	-1.6819202799	 1.4404863245	 0.122245
H	-0.6957892786	-0.1243262983	 2.0715905598	 0.114797
H	-3.1444410429	 0.2099640564	 0.9861162983	 0.107239
H	-2.5436962137	 1.0629501169	-0.4425705545	 0.142803
H	-4.2686791654	-1.392920061	-0.3349674428	 0.073483
H	-4.9376079561	-0.4741900627	-2.2957101553	 0.284775
H	-2.9468445407	-2.6448155555	-1.961267661	 0.097713
H	-2.1380123521	-1.1407397148	-2.496001588	 0.098646
