19
gdb 67790	3.10906	1.972	1.4682	0.5386	82.61	-0.2126	0.0273	0.2399	935.4032	0.16105	-348.71159	-348.704798	-348.703854	-348.742066	29.483	
C	-0.0074539377	 1.454445754	 0.0288198427	-0.486445
C	-0.0382402044	-0.0615199447	-0.0179313934	 0.321065
C	-1.2517966875	-0.6788604916	-0.5778135127	-0.147732
C	-1.319543247	-2.0117025296	-0.6373004033	-0.087963
C	-0.1686323439	-2.7695895546	-0.1353523466	-0.092017
C	 1.264767362	-2.2545237694	-0.3053177142	-0.106303
C	 0.6457729912	-2.2842351782	 1.0688004882	-0.106351
C	 0.7144673944	-0.7452426188	 1.1339499851	-0.123939
C	 1.3339872026	-0.7154781313	-0.241965872	-0.123981
H	 0.9292372984	 1.8231246833	 0.4586849438	 0.114461
H	-0.1037523648	 1.8786486871	-0.9767712754	 0.119819
H	-0.8309308055	 1.8436582768	 0.6377859147	 0.119825
H	-2.0531540124	-0.0340525295	-0.9247086771	 0.081947
H	-2.1790416109	-2.5393272377	-1.035847119	 0.088121
H	-0.2319894607	-3.8522644569	-0.1873741466	 0.08376
H	 2.0368219878	-2.8808392333	-0.7318544588	 0.088239
H	 0.848242861	-2.9378989925	 1.9066565868	 0.088238
H	 0.9813176952	-0.1877192182	 2.0224048463	 0.084629
H	 2.1668254222	-0.130753895	-0.6105723986	 0.084627
