16
gdb 66417	3.28543	1.22667	1.021	1.9536	72.45	-0.2454	-0.0345	0.2109	1153.1713	0.122066	-437.877911	-437.869374	-437.868429	-437.91136	30.831	
C	-0.2915761207	 1.4166389991	-0.1226154891	-0.515854
C	-0.0118557309	-0.045382622	 0.023383545	 0.177473
C	 0.4829113762	-1.1216690812	-0.9463108034	-0.089841
C	 1.2644378542	-1.8620953903	 0.1478552068	-0.369277
C	 0.782393641	-0.74936057	 1.1266105922	 0.394969
O	 1.0763558055	-0.4422022071	 2.2419671317	-0.293143
N	-0.8929664579	-1.1024312994	-0.5168815893	-0.106838
C	-1.9708122554	-0.8666715872	-1.3559716463	 0.13372
O	-2.08178339	-1.3109766865	-2.4726410613	-0.289458
H	 0.6125696227	 1.9942864671	 0.0894824682	 0.147756
H	-0.6296185686	 1.6572765827	-1.1350262868	 0.144078
H	-1.0634950254	 1.7399237323	 0.583260233	 0.150207
H	 0.7335058043	-0.9975896028	-1.9913455779	 0.137832
H	 0.9544905671	-2.8875884915	 0.3548696902	 0.143679
H	 2.351264861	-1.8136505558	 0.0340676916	 0.140583
H	-2.7653123631	-0.2906988472	-0.8467362246	 0.094115
