19
gdb 97309	3.23828	1.06361	0.82066	2.342	83.3	-0.2389	-0.0117	0.2272	1412.8875	0.160457	-419.265966	-419.257135	-419.256191	-419.299838	32.07	
C	 0.4811096335	 1.574598989	-0.5217687217	-0.310782
N	 0.844208448	 0.212409844	-0.8562658466	-0.241642
C	 0.1454673617	-0.7149788903	-0.3480693075	 0.098563
N	 0.4200893307	-2.0462865495	-0.6019957321	-0.115375
C	 1.5022622976	-2.488097145	-1.4768144068	-0.155653
C	 1.6043527319	-3.9973557795	-1.1746307308	-0.234692
C	 0.1985199536	-4.3795604839	-0.6852223652	-0.336924
C	-0.3696116025	-3.0836189624	-0.1145101685	 0.418821
O	-1.3304039142	-2.9464158217	 0.6069604608	-0.370774
H	 0.2569702254	 2.1309126941	-1.4394740573	 0.127129
H	-0.3861669044	 1.6520797421	 0.1526647529	 0.102944
H	 1.3332746231	 2.0766046992	-0.0487299911	 0.126896
H	-0.7128808281	-0.5847600272	 0.3193203254	 0.126395
H	 1.2453598621	-2.2872064954	-2.524261323	 0.120074
H	 2.4144438429	-1.9315760541	-1.2535500816	 0.137106
H	 1.9302925821	-4.5668878248	-2.0466811209	 0.114749
H	 2.334867419	-4.1640466836	-0.3774101904	 0.120829
H	-0.4533921176	-4.69437434	-1.5091792321	 0.136043
H	 0.174930955	-5.1699395208	 0.0666599163	 0.136292
