17
gdb 72535	2.73973	1.7399	1.73356	2.3949	67.1	-0.2436	-0.0015	0.242	886.4955	0.137323	-458.955281	-458.948179	-458.947235	-458.986255	29.047	
O	-0.0837761038	 1.3942827181	 0.0362613949	-0.492656
C	 0.0304707834	-0.0069958523	-0.0233265835	 0.268547
C	 0.7501155384	-0.59943647	 1.2174768012	-0.096503
O	 0.7339956297	-2.0246725131	 1.1497252211	-0.264266
C	 0.0531149309	-2.4681052606	-0.0186482794	 0.153855
O	-1.2991925338	-2.0329740393	 0.019087903	-0.267386
C	-1.3923804775	-0.6073136853	-0.0022608247	-0.066977
C	 0.7339223498	-1.8996731508	-1.2431449696	-0.073914
C	 0.7198207889	-0.5670037382	-1.2440512557	-0.167449
H	 0.8020989355	 1.7719795498	 0.0078354413	 0.282632
H	 1.790710112	-0.2472009203	 1.2635809645	 0.088182
H	 0.2263533291	-0.2726518193	 2.1245358541	 0.110881
H	 0.0304901576	-3.5558412169	 0.0305342788	 0.092457
H	-1.9145645168	-0.2691047214	 0.901062879	 0.111791
H	-1.9572252768	-0.2822085512	-0.8838463132	 0.107027
H	 1.160577904	-2.5359462806	-2.0085334788	 0.112606
H	 1.1226695094	 0.0813256916	-2.0147878929	 0.101172
