21
gdb 89008	3.81588	0.8879	0.8414	2.5009	79.25	-0.2353	0.0743	0.3096	1462.7082	0.18168	-424.182103	-424.172989	-424.172045	-424.217055	34.369	
O	 0.0684874776	 1.1883724241	 0.2734922456	-0.433693
C	 0.0330594632	-0.1969565207	 0.1336853752	 0.119697
C	-0.8306087506	-1.0257946567	 1.0635098104	-0.350447
C	-1.226334279	-0.8201424231	-0.3881497831	 0.050323
O	-2.2138117419	 0.1149320877	-0.7065268032	-0.275167
C	-3.5447376858	-0.3333058772	-0.5524698951	 0.177914
C	-4.2438622088	-0.2224183523	 0.8301310422	-0.24053
C	-5.5158710083	 0.2538058158	 0.074494383	-0.221188
C	-4.6104033755	 0.6113722703	-1.137737943	-0.249611
H	-0.7718256859	 1.5139470914	-0.0760659836	 0.29204
H	 0.9878306785	-0.6047204778	-0.1854604159	 0.099078
H	-0.4898417503	-2.0092667105	 1.3701499603	 0.110902
H	-1.3891537617	-0.4736124648	 1.8104173007	 0.123553
H	-1.1751872721	-1.666295608	-1.0730968272	 0.091442
H	-3.6400730484	-1.3491559055	-0.9602425031	 0.072708
H	-4.3083728747	-1.1158421212	 1.454508804	 0.099973
H	-3.8001198896	 0.5923002096	 1.4095149416	 0.108224
H	-6.1922053054	-0.5750536041	-0.1508237901	 0.106765
H	-6.0951058621	 1.0617516583	 0.5242656349	 0.105252
H	-4.2577173492	 1.6451944575	-1.079791935	 0.111724
H	-4.9746483004	 0.4140958471	-2.1480110185	 0.101041
