17
gdb 36666	3.22018	0.7969	0.67912	5.0566	79.93	-0.2616	0.0216	0.2832	1594.3686	0.13506	-380.825044	-380.815822	-380.814878	-380.860081	33.119	
C	-0.1624171526	-1.2081618045	 0.2548737175	-0.433582
C	-0.0687244445	-0.0122323718	 0.1772410511	 0.37569
C	 0.021342625	 1.4160581661	 0.0479304252	-0.253924
N	 0.7615356887	 2.1601415125	 1.097148292	-0.322276
C	 1.3062881495	 2.1221665672	-0.263379444	-0.021283
C	 2.6122685743	 1.384069637	-0.4364426283	-0.20347
C	 3.7800010749	 2.1879674075	 0.1729731259	-0.332408
C	 5.0668341356	 1.51529031	 0.0176125265	 0.25664
N	 6.0778954998	 0.9722950066	-0.1177901597	-0.305238
H	-0.2417961274	-2.2643357292	 0.3342825654	 0.205314
H	-0.8776906707	 1.8863971359	-0.3450583882	 0.116605
H	 0.2924043789	 3.0436156426	 1.278579867	 0.240937
H	 1.2023764542	 3.0232194218	-0.8679622662	 0.095451
H	 2.5489838171	 0.4089366467	 0.0523642167	 0.143248
H	 2.7976743883	 1.2044604447	-1.5007133166	 0.123717
H	 3.8502172021	 3.1786254847	-0.2921899908	 0.144987
H	 3.5868162067	 2.3475828221	 1.2392333565	 0.16959
