22
gdb 58532	2.06399	1.41528	1.36542	2.3368	82.31	-0.2612	0.0311	0.2922	1160.3088	0.193156	-404.358985	-404.349108	-404.348164	-404.393381	37.207	
C	-0.0094882369	 1.5978250081	 0.0021848114	-0.402673
C	 0.0119693441	 0.059725019	-0.0107938109	-0.022098
C	 0.6058409437	-0.4301220456	-1.3418594754	-0.412889
C	 0.7402292521	-0.5155453655	 1.2318379737	 0.177171
C	 0.1973009046	 0.0339623234	 2.5549298629	-0.459302
C	 0.9583167024	-2.0544711691	 1.2475849831	-0.132978
O	 2.4054912498	-1.8613270757	 1.1621021657	-0.262028
C	 2.2626731351	-0.4915264976	 1.1563410545	 0.4258
N	 3.1268827922	 0.4177037829	 1.1103590484	-0.55653
H	 1.0090211795	 1.9944312202	 0.061131172	 0.151257
H	-0.4694362364	 1.9743566228	-0.9168019655	 0.108644
H	-0.5817912034	 1.9984288352	 0.8424595001	 0.112288
H	-1.0258746105	-0.2996078926	 0.0525241695	 0.072434
H	 1.6318075334	-0.0690289965	-1.4654199626	 0.136996
H	 0.6183363942	-1.5200600281	-1.4298511594	 0.112169
H	 0.0141791672	-0.0440924712	-2.1773877152	 0.113469
H	-0.8878783161	-0.1052279183	 2.6168293848	 0.115844
H	 0.6550286551	-0.478992258	 3.406251011	 0.120449
H	 0.4153462975	 1.0986739458	 2.6573109875	 0.144843
H	 0.6897701107	-2.5591015233	 2.1793341509	 0.114349
H	 0.5896390866	-2.6229149473	 0.3920025325	 0.117472
H	 4.0728782651	 0.0334889513	 1.0713849911	 0.225313
