15
gdb 123606	4.05533	1.74013	1.33561	4.147	69.39	-0.242	0.0095	0.2515	905.9311	0.117574	-412.981315	-412.975272	-412.974328	-413.011745	23.873	
C	 0.0427941233	 1.4592180174	 0.0107527115	-0.248129
C	 1.2842738079	 0.6505913687	 0.0592802507	-0.034868
C	 1.9326009507	 0.3386435313	 1.4214876141	-0.201949
N	 0.8383026881	-0.3775591609	 2.0454505622	 0.047775
N	 0.6237221138	-0.9270004127	 3.2637252514	-0.277094
C	-0.59938452	-1.4217495476	 3.0983924302	 0.022357
N	-1.1749970552	-1.2289956538	 1.8682561673	-0.367198
C	-0.2257496202	-0.5671878542	 1.2457284793	 0.433334
N	-0.0512484601	-0.0242393349	-0.0446720391	-0.190103
H	-0.299478742	 1.9444685082	 0.921014425	 0.141602
H	-0.2337128918	 1.95695947	-0.9127961153	 0.139176
H	 1.9116928003	 0.5786646593	-0.8214812998	 0.121635
H	 2.8167781564	-0.2971458026	 1.3095450884	 0.142351
H	 2.2122744865	 1.2307141295	 1.9897615109	 0.143996
H	-1.1009912076	-1.9493286175	 3.8960526732	 0.127115
