19
gdb 69740	3.35772	1.55784	1.34018	1.7045	79.41	-0.2347	0.0284	0.2631	1017.5933	0.159977	-385.868579	-385.86108	-385.860135	-385.900175	30.175	
C	-0.0900882236	 1.527207554	 0.0543659105	-0.504997
C	 0.1440795742	 0.0520874721	 0.0167222868	 0.408934
O	-0.7616247997	-0.796459574	 0.7376576396	-0.276241
C	 0.6377613472	-0.9111070943	 1.0189292228	-0.058098
C	 1.2725172964	-1.8085398523	-0.0811834222	-0.095731
C	 0.6072597745	-3.1085802018	-0.4197921624	-0.067783
C	-0.2255698835	-2.9824997774	-1.4537974524	-0.047764
C	-0.268198254	-1.5844775355	-2.0372957627	-0.278026
C	 0.7177990034	-0.7942163505	-1.1483602424	-0.097922
H	 0.8037434542	 2.0716107078	-0.2674577272	 0.12248
H	-0.9120331117	 1.8083492001	-0.6144395779	 0.12958
H	-0.3523887966	 1.8471289596	 1.0664025147	 0.133297
H	 0.9450234591	-0.7735113503	 2.0505942732	 0.095317
H	 2.3623298735	-1.8509715958	 0.0063834689	 0.073576
H	 0.7713507691	-4.0239209137	 0.1381729609	 0.090698
H	-0.8342012051	-3.7854816342	-1.8577297917	 0.089551
H	 0.0267824009	-1.5786233324	-3.0941082416	 0.098404
H	-1.2833813134	-1.1701477739	-1.9933346615	 0.112554
H	 1.4917813751	-0.2646639773	-1.7070546252	 0.072173
