17
gdb 49104	2.27546	1.3494	0.86351	1.4833	81.19	-0.2604	-0.1003	0.1601	1280.178	0.135366	-421.868753	-421.860184	-421.85924	-421.902534	30.544	
O	 0.0214997053	-0.0605756482	-0.0345669907	-0.254899
C	 0.0084194043	 1.1501078539	 0.0157554486	 0.065483
C	 1.240064396	 1.9555979368	 0.039189858	 0.147666
C	 1.334623563	 3.3071955999	 0.0508679347	 0.147663
C	 2.775226188	 3.7608133392	 0.028340894	-0.304093
C	 3.5621717901	 2.4695217009	 0.3605247084	-0.228319
C	 2.6035045166	 1.3062781145	 0.0071342105	-0.304093
C	 0.2271523965	 4.276604585	 0.0427692537	 0.065481
O	 0.4087291059	 5.4743594278	 0.0132516997	-0.254898
H	-0.9507893453	 1.7043833087	 0.0490806859	 0.083289
H	 3.0177543931	 4.1513815366	-0.9692031169	 0.129758
H	 2.9575551352	 4.5835759562	 0.724823233	 0.133664
H	 4.5146460721	 2.4074669114	-0.1697232745	 0.110933
H	 3.7857242591	 2.4446277795	 1.4315948321	 0.115654
H	 2.6686656266	 0.4542911547	 0.6891475762	 0.133664
H	 2.7904916012	 0.9029566585	-0.9972686454	 0.129758
H	-0.7999247978	 3.8607882347	 0.0677179525	 0.083289
