23
gdb 109591	1.89098	1.60895	1.14193	2.4807	82.28	-0.2448	0.0661	0.311	1228.1387	0.204028	-425.409325	-425.398946	-425.398002	-425.444134	38.593	
C	 0.0816752436	 1.3551717925	-0.1415042847	-0.240323
O	 0.045502833	-0.0248652079	 0.1614024456	-0.255142
C	-1.2453253171	-0.6159074901	 0.0754234955	 0.071516
C	-1.5037260298	-1.3175499515	-1.2994504773	-0.0147
C	-0.9571256888	-0.7474827591	-2.5978187212	-0.416652
C	-0.8376826296	-2.5943886042	-0.6898079002	 0.112038
O	 0.5476333183	-2.6960674631	-0.9438042456	-0.438717
C	-1.1895833538	-2.0280311208	 0.72254346	-0.021468
C	-0.271353972	-2.2916920811	 1.9037351107	-0.407784
H	 1.1107016716	 1.6909744293	 0.0094521059	 0.128623
H	-0.2114997048	 1.5652556977	-1.1782213121	 0.114877
H	-0.579319799	 1.9232121413	 0.5296054729	 0.111175
H	-2.0018086559	 0.090395418	 0.4438153692	 0.055255
H	-2.5819010468	-1.4948784026	-1.3888949317	 0.072554
H	 0.1156970293	-0.5516872226	-2.5295244786	 0.119372
H	-1.1056100128	-1.4583303619	-3.4175338021	 0.119755
H	-1.4615128309	 0.1854825642	-2.8716795827	 0.108485
H	-1.2664023393	-3.5621730343	-0.9636642329	 0.070681
H	 0.9427133696	-1.8521190095	-0.6878646566	 0.287907
H	-2.2161269878	-2.3236500524	 0.9663384538	 0.074835
H	 0.7618796747	-2.0233157028	 1.6767110797	 0.123105
H	-0.5833688893	-1.7126292533	 2.7794331157	 0.109556
H	-0.2917590624	-3.3520032758	 2.1758308369	 0.115051
