19
gdb 63046	2.62974	2.03827	1.55694	1.875	73.83	-0.2131	0.0652	0.2783	915.7234	0.161493	-419.138673	-419.131361	-419.130416	-419.169741	30.605	
C	-0.0273531833	 1.5202457058	-0.0013135533	-0.460414
C	 0.0609251472	 0.0008501979	-0.0083140493	 0.459838
O	-1.2400473836	-0.5760108547	-0.1007605651	-0.495744
C	 1.0572636647	-0.6272260345	-1.0157654469	-0.132455
N	 2.3239983692	 0.0840236206	-0.6171300455	-0.338629
C	 2.2372925626	-0.7948478957	 0.5799535749	-0.001701
C	 1.4785750487	-1.9210256099	-0.142296105	-0.018519
N	 0.608202009	-2.0997730214	 1.0238433028	-0.312738
C	 0.7872576263	-0.6350628351	 1.2142635988	-0.067228
H	 0.960384071	 1.9712922946	 0.0934622088	 0.148912
H	-0.4741491337	 1.8882176889	-0.9341551961	 0.097771
H	-0.6630987511	 1.8460908017	 0.8279286287	 0.116902
H	-1.6776767018	-0.1869431961	-0.864656284	 0.277613
H	 0.78912927	-0.6512605714	-2.0723868907	 0.057908
H	 3.0874990692	-0.2770162243	-1.189636539	 0.216946
H	 3.0930851616	-0.9170034733	 1.2407268458	 0.082277
H	 1.9202513528	-2.7850873004	-0.6409072643	 0.07139
H	-0.3566837486	-2.3420371953	 0.8050109394	 0.228455
H	 0.5985703798	-0.2190251272	 2.2038817502	 0.069415
