19
gdb 72289	3.1003	1.58466	1.33118	0.4742	74.38	-0.2334	0.0786	0.3119	1002.8048	0.161337	-422.993965	-422.98664	-422.985696	-423.025228	30.07	
O	-0.1038426271	 1.4347418585	-0.0509132795	-0.463785
C	 0.008558806	 0.053907048	-0.0719355829	 0.382034
C	 0.6587276267	-0.7260375717	-1.217957514	-0.307392
C	-0.4030170425	-1.8590213914	-0.9918302985	-0.037201
C	 0.1702681509	-3.1102556603	-0.3325168312	-0.085904
O	 1.1274863818	-2.7688816462	 0.65938106	-0.24435
C	 0.6174280908	-1.9346854598	 1.6860667039	-0.106923
C	-0.2114236788	-0.7668312247	 1.1831819954	-0.110513
C	-1.1409322892	-0.9383568096	 0.0059222936	-0.149745
H	 0.6747878103	 1.7954824531	 0.3873116462	 0.284179
H	 0.4845299072	-0.2070651677	-2.1638218798	 0.10426
H	 1.7134638378	-0.9973251762	-1.1307054869	 0.102182
H	-0.978917402	-2.1131893763	-1.8835966195	 0.074623
H	-0.6410947	-3.7206782316	 0.1002656961	 0.08555
H	 0.7112955799	-3.7287273026	-1.0558037423	 0.105429
H	-0.0084998709	-2.5283788341	 2.3768566802	 0.08605
H	 1.4925245359	-1.5914120064	 2.2493307984	 0.103435
H	-0.6356164315	-0.1591218366	 1.9794431812	 0.090017
H	-2.2086162151	-0.7653290245	 0.0559054096	 0.088058
