20
gdb 82165	2.71628	1.64139	1.27994	2.752	77.26	-0.2303	0.0682	0.2986	1053.2302	0.17248	-403.118629	-403.110678	-403.109734	-403.150526	32.518	
C	-0.0488603033	 1.5293271769	 0.0267671382	-0.505541
C	 0.1329636316	 0.0350879911	-0.0259245485	 0.345729
N	-0.5251335929	-0.8199336387	 0.9978469116	-0.391578
C	 0.9536351871	-0.7348206649	 0.9392947722	-0.126811
C	 1.5479898196	-1.9705449809	 0.2548272068	 0.121303
O	 1.2071400121	-3.1721811098	 0.9204367099	-0.43969
C	 1.0901963646	-1.8790858976	-1.2140658635	-0.064029
C	-0.3756231311	-2.003947534	-1.5508690125	-0.298742
C	 0.2414407971	-0.6384586724	-1.3908517834	-0.086451
H	 0.7218630611	 2.0375258521	-0.562922959	 0.12807
H	-1.0239200266	 1.8229720932	-0.3785170665	 0.12912
H	 0.0168117397	 1.9005115217	 1.0549828484	 0.113762
H	-0.8691452754	-0.2361139195	 1.7569310697	 0.227372
H	 1.4813451088	-0.2733298464	 1.7687289221	 0.083968
H	 2.6414017077	-1.9158390994	 0.2872806515	 0.082166
H	 0.2590200173	-3.1098785532	 1.0937014238	 0.288232
H	 1.8031795964	-2.1823717179	-1.972538204	 0.082495
H	-0.6124658484	-2.3282707039	-2.5586936102	 0.104018
H	-1.0733377273	-2.3302952164	-0.7904277176	 0.128898
H	 0.3448788918	 0.01135463	-2.252809009	 0.077708
