21
gdb 60804	1.99887	1.41729	1.02931	3.0006	79.25	-0.2394	-0.026	0.2134	1275.5205	0.1782	-424.267982	-424.257109	-424.256165	-424.304093	38.388	
C	-0.4766529548	 1.4232419946	-0.1588170052	-0.43199
C	-0.1950743493	-0.0838618835	-0.0279295311	-0.061927
C	 0.3946377386	-0.5967430435	-1.3281802921	 0.16159
O	 1.4012978811	-1.2544046028	-1.4210142699	-0.256547
C	 0.6913523098	-0.4823868226	 1.1645228625	-0.075186
C	 0.1827140613	 0.0745961502	 2.5083284252	-0.418615
C	 0.7382270574	-2.0137689729	 1.2868756856	 0.419593
C	 2.0815445043	-2.632805162	 1.603492056	-0.488589
O	-0.2702620019	-2.6727159251	 1.1645604152	-0.334422
H	 0.4529932517	 2.0026898867	-0.1749461222	 0.126762
H	-1.0187894551	 1.6367659413	-1.0861569408	 0.123224
H	-1.0895477956	 1.7856882378	 0.6689302313	 0.133865
H	-1.1563048249	-0.6091154969	 0.0768785215	 0.125218
H	-0.1821775658	-0.3124090146	-2.2379907333	 0.08292
H	 1.7079647492	-0.1139322796	 0.9884376055	 0.084209
H	 0.8016312787	-0.2818002578	 3.3382689334	 0.120838
H	 0.2116336821	 1.1669614817	 2.5245082243	 0.12224
H	-0.8453400021	-0.2512032172	 2.6948048221	 0.135466
H	 2.5703366993	-2.1125210536	 2.4345614954	 0.128468
H	 1.9657075754	-3.6915248181	 1.8385775381	 0.1367
H	 2.7242749205	-2.5164811621	 0.7241710685	 0.166183
