18
gdb 36023	1.79557	1.65809	1.02014	1.7814	81.76	-0.2424	0.0396	0.282	1209.1238	0.14463	-364.712281	-364.702605	-364.70166	-364.747528	35.708	
C	-1.6399259663	 0.2738583077	 0.6041134628	-0.464244
C	-0.879156456	 1.0075088131	 0.0318260847	 0.332813
C	 0.0316292072	 1.9516775866	-0.6091167289	-0.448815
C	 1.4366709701	 1.9816190263	 0.0180502087	 0.334962
C	 2.4963403449	 1.1259314539	-0.6759912915	-0.407686
C	 2.1158554905	-0.2697241185	-0.8648353836	 0.309959
C	 1.7971761116	-1.414982915	-1.039491802	-0.445904
C	 1.87393755	 3.2356600459	 0.6883637834	-0.283687
N	 1.5513041751	 2.0343625599	 1.476374946	-0.328858
H	-2.3032198115	-0.3986235308	 1.0890804007	 0.198549
H	 0.1176485273	 1.7148089862	-1.6761229846	 0.142182
H	-0.4122450924	 2.9529713889	-0.5546688343	 0.132467
H	 2.7266435602	 1.5721705297	-1.6534743835	 0.127123
H	 3.4134101775	 1.1801423794	-0.0792982261	 0.140847
H	 1.5122576213	-2.4281705955	-1.1784917596	 0.195917
H	 2.9241662008	 3.5177478304	 0.6948984124	 0.116149
H	 1.1839247138	 4.0758872573	 0.6956826798	 0.111539
H	 0.6277985158	 2.1047550946	 1.8976880055	 0.236688
