15
gdb 33914	4.22341	1.27981	1.17565	1.9346	70.57	-0.2555	-0.0059	0.2496	1028.1551	0.114051	-416.733656	-416.726789	-416.725845	-416.764985	26.768	
N	 0.1215802969	-1.1699266168	-0.1244484782	-0.340389
C	 0.0808802196	-0.015866454	-0.0365716587	 0.165405
C	 0.0207410244	 1.3999595758	 0.0926237835	 0.224455
N	 0.1974634496	 2.3025297487	-1.0721846623	-0.345368
C	 1.1381661648	 2.4175909063	 0.0462727525	-0.123702
C	 0.4379810912	 3.2330597889	 1.1726120854	 0.127131
O	-0.4337595873	 4.2868042012	 0.7557789712	-0.283015
C	-1.5842902642	 3.3957075373	 0.7483418702	-0.088645
C	-0.7113717901	 2.2034779864	 1.2008043559	-0.15292
H	 0.6548357218	 1.7722311055	-1.8133792081	 0.255182
H	 2.1994392848	 2.2536227195	-0.0969088617	 0.120508
H	 1.0670211916	 3.4817222436	 2.0299849456	 0.094946
H	-2.3266255165	 3.7108415134	 1.4894253295	 0.109153
H	-2.0377071245	 3.3191797777	-0.2424242026	 0.130142
H	-0.9818593921	 1.6411308765	 2.0906593777	 0.107119
