18
gdb 103057	2.49873	1.48654	1.11637	4.5436	76.36	-0.252	0.0191	0.2711	1123.8	0.148925	-398.080103	-398.071582	-398.070637	-398.113288	32.1	
N	 0.3858621887	 1.3396767413	-0.5014041129	-0.500642
C	-0.0513208998	 0.0358064557	-0.0170724745	-0.254289
C	 0.8155568846	-0.5761770879	 1.0897332226	 0.135575
C	 0.8197696339	 0.2532222131	 2.2814522186	 0.272892
N	 0.7653578097	 0.9436701022	 3.207296275	-0.344006
C	 1.0201404213	-2.0305270423	 1.343931567	-0.054134
C	 0.9999520146	-2.8575030406	 0.060855087	-0.270394
C	 2.1268940612	-1.919116647	-0.4408327352	-0.165943
N	 2.172570221	-1.1677797145	 0.8695802144	-0.164579
H	 0.3634718142	 2.0168959672	 0.2559923964	 0.247778
H	 1.3521449937	 1.2933416927	-0.8121768203	 0.236841
H	-1.0694671143	 0.1364122316	 0.3741647786	 0.131574
H	-0.1155940756	-0.6497510884	-0.8646717315	 0.120259
H	 0.9857219874	-2.4283603859	 2.353093055	 0.117948
H	 1.347230688	-3.8788289228	 0.2231047943	 0.126204
H	 0.059776165	-2.8926603403	-0.4950855653	 0.11945
H	 3.0844076221	-2.4227062125	-0.5798205609	 0.129397
H	 1.9283100743	-1.2985131017	-1.3184171081	 0.116069
