21
gdb 64424	2.36489	1.68387	1.30032	1.9465	77.2	-0.2448	0.0755	0.3203	1072.4951	0.18347	-424.220626	-424.212221	-424.211277	-424.252948	33.972	
C	-0.0754150961	 1.5848602704	-0.0095318177	-0.411724
C	 0.0472820815	 0.0658083136	-0.0137054791	 0.341928
O	-1.286117382	-0.4512370905	-0.0090785362	-0.474085
C	 0.7390415816	-0.4498456788	-1.2861276629	-0.135146
O	 0.8050174959	-1.8668745101	-1.2430185044	-0.257699
C	 1.7730751666	-2.3238727327	-0.3037000715	-0.101934
C	 1.6208683253	-1.707688478	 1.0857838838	-0.068813
C	 2.2600670629	-0.3737696505	 1.3958063278	-0.309756
C	 0.7680552731	-0.4618261483	 1.2224345253	-0.03228
H	 0.9100739009	 2.0585131745	 0.0082445512	 0.112907
H	-0.6182515233	 1.9258812509	-0.8963778658	 0.118997
H	-0.6319915024	 1.9118230905	 0.87352829	 0.124806
H	-1.2000966757	-1.3904025127	-0.2185992303	 0.279159
H	 0.1265152332	-0.1894829031	-2.1535619648	 0.114348
H	 1.7415012996	-0.0138199073	-1.4212335426	 0.086873
H	 1.6383785649	-3.4075400392	-0.251854193	 0.112623
H	 2.7814642548	-2.1313497907	-0.7046994572	 0.094876
H	 1.5773158145	-2.4246275841	 1.8991499635	 0.091147
H	 2.6466540604	-0.2070604679	 2.3953026495	 0.11234
H	 2.8505167658	 0.0938054979	 0.6131827189	 0.109845
H	 0.1630901086	-0.375175664	 2.1198485655	 0.091587
