21
gdb 121888	2.57997	0.95719	0.81864	2.9984	76.21	-0.2525	-0.0227	0.2298	1493.8938	0.179018	-461.374361	-461.363565	-461.362621	-461.411437	38.055	
C	-1.0044750297	 0.7692907303	 0.6928217423	-0.386134
C	 0.0479566024	-0.2692491628	 0.3127776006	-0.052685
O	-0.4527499615	-1.597033488	 0.2339125041	-0.242774
C	-1.2357761907	-1.8993768922	-0.9035693504	-0.110017
C	-2.7340318921	-2.1340712433	-0.5814507564	 0.020233
O	-3.4282208599	-2.2367745637	-1.794801035	-0.432716
C	-2.9478153853	-3.4112536335	 0.2412488565	 0.37023
C	-2.4759650976	-3.4464589108	 1.670278674	-0.486932
O	-3.5026782243	-4.3495094901	-0.2953162923	-0.325196
H	-0.5364729782	 1.753280693	 0.8026144978	 0.119419
H	-1.7823330988	 0.8552415703	-0.0722868287	 0.129106
H	-1.4801860167	 0.5069305994	 1.6426377722	 0.122938
H	 0.5265932316	 0.0048546999	-0.6394910322	 0.098699
H	 0.8330437765	-0.3044011137	 1.0748908708	 0.111336
H	-1.1952406394	-1.0956477119	-1.6485695713	 0.11557
H	-0.8343645888	-2.8056475492	-1.3754999007	 0.112277
H	-3.10116636	-1.2769046996	 0.0033203202	 0.08662
H	-3.7594584634	-3.1512761893	-1.8122797653	 0.293276
H	-3.0881011017	-2.7589929063	 2.266808687	 0.143839
H	-2.5737971475	-4.4557797513	 2.0719017874	 0.140239
H	-1.445903265	-3.086652517	 1.7364824792	 0.172673
