13
gdb 49338	2.35113	1.85846	1.04485	3.8697	62.29	-0.2762	-0.0539	0.2224	1035.7855	0.089401	-489.947531	-489.939937	-489.938992	-489.980209	26.92	
N	 0.0645104988	 1.3325151055	 0.0101650711	-0.524013
C	 0.0492522926	 0.0799396782	 0.0036532971	 0.495303
O	 1.1415605892	-0.7472513748	-0.0080216081	-0.249852
C	 0.7485805748	-2.1152787117	-0.0128923238	-0.21837
C	-0.77013578	-2.0925278712	-0.002594625	 0.413467
O	-1.5300626073	-3.0224462453	-0.0028729289	-0.33676
N	-1.1085205596	-0.7321785218	 0.0069568432	-0.219987
C	-2.4622110007	-0.3145234369	 0.0186490104	 0.172837
O	-2.8319265767	 0.8210498862	 0.0277165208	-0.242724
H	 1.0249417204	 1.6737755369	 0.0056188321	 0.242676
H	 1.1248736076	-2.6184534327	-0.90938195	 0.1634
H	 1.13672059	-2.6282147597	 0.872953119	 0.163386
H	-3.1158778589	-1.2007534328	 0.0181379623	 0.140638
