18
gdb 48795	2.82012	1.44682	1.1492	2.7085	78.55	-0.2375	-0.0352	0.2024	1100.3789	0.147414	-401.897574	-401.889598	-401.888654	-401.929991	30.825	
O	-0.1129929651	 0.1998460992	-0.7898830021	-0.290455
C	 0.0776047325	 0.9796838264	 0.1207630981	 0.050603
C	 1.2230062227	 1.8913837388	 0.1731581184	 0.160693
N	 2.0644687847	 2.0852155695	-1.037394977	-0.360446
C	 2.6724030581	 1.4223329037	 0.102773377	-0.071936
C	 3.0966150987	 2.4927461948	 1.1186286037	-0.311012
C	 1.6211426845	 2.9580999995	 1.174652359	 0.31992
C	 1.0846831199	 4.3500970615	 1.2911645469	-0.309789
C	 0.8645126826	 3.3524661515	 2.4091161499	-0.340745
H	-0.6082506541	 1.0260607334	 0.9922940299	 0.079372
H	 1.7601501589	 1.358540869	-1.6901884998	 0.251121
H	 3.0117128103	 0.3949790579	 0.0450801115	 0.118259
H	 3.4442312869	 2.0673438508	 2.06328187	 0.111703
H	 3.8264475753	 3.2143183932	 0.7424010848	 0.117403
H	 1.7953843218	 5.1529693204	 1.4566347002	 0.119111
H	 0.2357762642	 4.6259654569	 0.6746784216	 0.120311
H	-0.1383195751	 2.9651072844	 2.5560644656	 0.118725
H	 1.4285861232	 3.474742729	 3.3282855925	 0.117164
