19
gdb 13640	4.43348	0.98689	0.88199	1.1081	80.47	-0.2227	0.0577	0.2804	1367.6802	0.163416	-327.870188	-327.860578	-327.859634	-327.906536	33.149	
C	 0.0179673297	 1.2906940663	 0.432751836	-0.496733
C	-0.0122775456	-0.1204712533	 0.0747652994	 0.066605
C	-0.0305593881	-1.2870806458	-0.2229200149	 0.069982
C	-0.0857676877	-2.7030583871	-0.5794487112	-0.387779
C	-1.4110559575	-3.3598818518	-0.2055859553	 0.038456
C	-1.4732494525	-4.8151355673	 0.113301859	-0.264417
N	-1.7314625802	-3.8154540569	 1.1432934573	-0.069457
C	-0.7596059857	-3.6689929003	 2.2164145531	-0.314091
H	 0.8836292431	 1.5242803276	 1.0625759739	 0.146103
H	 0.0753821179	 1.9275996211	-0.4569916264	 0.146268
H	-0.8815264066	 1.5792730732	 0.9878869235	 0.148311
H	 0.0514994092	-2.8153693911	-1.6635465879	 0.130321
H	 0.7514660117	-3.2392601121	-0.1190663657	 0.12504
H	-2.2624064312	-2.9043332797	-0.7090646821	 0.096196
H	-2.3198031884	-5.4241463046	-0.1940365551	 0.112723
H	-0.5230088134	-5.3497189296	 0.1512167084	 0.100926
H	 0.2751760256	-3.9271274644	 1.9403660276	 0.096588
H	-0.7696228593	-2.6352560707	 2.5739713301	 0.132986
H	-1.054151831	-4.3230777334	 3.0433328205	 0.12197
