16
gdb 126457	4.61026	1.0396	0.85722	5.4642	75.17	-0.265	-0.0821	0.1829	1307.7627	0.123706	-437.901374	-437.893242	-437.892298	-437.934526	29.948	
C	 0.1220615011	 1.5651872478	 0.0074917346	-0.377516
C	-0.011045537	 0.0430841278	 0.0031292016	-0.269879
C	-1.4272660433	-0.4823584224	 0.0133091747	 0.335672
N	-2.3852108402	 0.3835315429	 0.0246638579	-0.113786
O	-3.6901872253	-0.0899552045	 0.0340289419	-0.266239
C	-4.0392145228	-1.4351743286	 0.0317351393	 0.446189
O	-5.2073467065	-1.7160427949	 0.041566998	-0.331762
C	-2.9220369959	-2.3707120889	 0.0192805444	-0.224415
C	-1.661279031	-1.9092909033	 0.0102125862	-0.109684
H	 1.1783846409	 1.8471450794	-0.000497115	 0.113149
H	-0.3623611025	 2.0059453035	-0.8670203832	 0.13897
H	-0.3473534713	 1.9995854355	 0.8932973327	 0.138977
H	 0.4946683362	-0.3808011222	-0.8756581279	 0.125039
H	 0.509544199	-0.3871036548	 0.8700876479	 0.12504
H	-3.1760760619	-3.4237106863	 0.0178507199	 0.143095
H	-0.8075879995	-2.5801795411	 0.0006437872	 0.127151
