19
gdb 122794	4.73859	0.58388	0.52662	1.7513	75.12	-0.2532	-0.0971	0.1562	2061.2918	0.154719	-460.169258	-460.158593	-460.157648	-460.206755	35.557	
C	-0.1494432004	 1.4934167063	-0.1764909504	-0.384366
C	 0.1706016276	 0.0034476506	-0.0342661066	-0.183505
C	 0.5906723348	-0.6262843553	-1.3541976516	-0.031262
O	 0.8672217302	-1.9985294396	-1.1324000322	-0.233143
C	 1.2612561131	-2.6722582485	-2.28396597	-0.160505
C	 1.536994328	-4.1267575401	-1.9662782258	 0.262074
O	 1.4331895906	-4.63642937	-0.8791986072	-0.252263
C	 1.983576301	-4.9941456674	-3.1505296925	 0.078962
O	 2.1148638781	-4.5736850707	-4.2702782735	-0.216789
H	 0.7188316269	 2.0569941634	-0.5354484231	 0.117462
H	-0.9690321056	 1.6611839882	-0.88395355	 0.117454
H	-0.4483334838	 1.9222569898	 0.7839968067	 0.120926
H	 0.9757236731	-0.1466295312	 0.6936572244	 0.112455
H	-0.7009509262	-0.5398007658	 0.3476927485	 0.112431
H	-0.2089514228	-0.5172085576	-2.106939469	 0.088625
H	 1.484128975	-0.1195660402	-1.7578136601	 0.088637
H	 0.4968233191	-2.6375813868	-3.0819402619	 0.125128
H	 2.1739674554	-2.2444792012	-2.738132584	 0.125126
H	 2.172144506	-6.0498469738	-2.862210972	 0.112555
