16
gdb 24222	3.92504	1.62488	1.25357	1.1695	74.13	-0.2026	0.0164	0.219	965.4729	0.127613	-400.738852	-400.732564	-400.73162	-400.769351	25.814	
C	 0.0420123263	 1.4691556175	-0.0021339848	-0.245575
C	 1.2830015077	 0.6569381746	 0.0594933952	-0.016689
C	 1.9475328043	 0.3495077715	 1.4236956712	-0.384685
C	 0.8130558585	-0.3887101979	 2.0540069364	 0.310656
C	-0.2482628512	-0.5605668341	 1.2351988376	 0.243227
C	-1.2358073574	-1.2775479152	 1.9776795681	-0.342223
C	-0.6652191728	-1.4748081019	 3.2033504833	-0.015917
O	 0.5947149268	-0.9355492367	 3.2720235946	-0.196892
N	-0.0626353555	-0.0092284203	-0.0689431275	-0.193852
H	-0.3084886754	 1.9476254003	 0.9088493403	 0.120441
H	-0.2079217092	 1.9867097558	-0.9240280591	 0.119073
H	 1.907824195	 0.5974409528	-0.8250484291	 0.101781
H	 2.8474921099	-0.263377747	 1.2874111412	 0.122969
H	 2.2514850038	 1.2564931513	 1.9597035838	 0.125013
H	-2.2163779355	-1.6040158001	 1.670222169	 0.118406
H	-1.0042859854	-1.9651384806	 4.1007351097	 0.134269
