16
gdb 16204	3.16139	2.31311	1.52755	2.5689	65.94	-0.2464	0.0162	0.2626	831.8892	0.133262	-379.918918	-379.912103	-379.911159	-379.949956	26.039	
N	-0.1323966808	 1.2191018151	-0.3308234227	-0.56932
C	-0.0584150114	-0.0093395208	-0.0430736188	 0.374175
O	 1.0805785504	-0.7078768256	 0.2061018072	-0.243793
C	 0.7620108795	-2.0734099805	 0.5606571596	-0.092523
C	-0.6515712262	-2.3309398393	 0.0178364025	-0.320153
C	-1.2339388759	-0.9302225159	 0.0335710807	 0.265698
C	-2.4424243003	-0.4813195231	 0.7824403801	-0.277153
N	-2.4580478179	-0.585419281	-0.6803269887	-0.36079
H	 0.7857175506	 1.6625837454	-0.3309533282	 0.226838
H	 1.5308030851	-2.7129040116	 0.1233283498	 0.126181
H	 0.8046868508	-2.1657629057	 1.6521407994	 0.118125
H	-0.6145202872	-2.7062934682	-1.0097423562	 0.127998
H	-1.208825794	-3.0471838671	 0.6241610186	 0.118488
H	-3.0444839779	-1.2214536105	 1.3035669617	 0.119232
H	-2.4090773617	 0.5061120329	 1.2332625917	 0.134886
H	-2.3240000731	 0.3447450759	-1.0789758066	 0.252109
