18
gdb 65483	3.15377	1.21981	1.03791	4.1958	77.03	-0.2514	0.0106	0.262	1198.7751	0.145886	-401.933068	-401.924333	-401.923388	-401.966727	32.998	
C	-0.5458800936	 1.6527484524	-0.0102353211	-0.438461
C	 0.0141147407	 0.2383330121	-0.0710964637	 0.259681
C	 0.8481789892	-0.147991376	-1.3297422109	-0.409415
C	 1.9823048423	-0.3357166962	-0.3319403085	 0.458255
C	 2.9799910076	-1.4351543317	-0.2066800005	-0.328642
C	 3.4284639411	 0.0075261002	-0.418785502	-0.335483
O	 1.1765913321	 0.0808333491	 0.78106823	-0.320611
C	-1.019526079	-0.75247872	 0.2759049237	 0.263252
N	-1.8377510784	-1.5268300661	 0.5335812252	-0.335825
H	 0.2397616197	 2.3635622482	-0.277756913	 0.132452
H	-1.3852773136	 1.7652238314	-0.7029546573	 0.138479
H	-0.895335791	 1.8776553728	 1.0007616808	 0.148923
H	 0.5177851868	-1.0438111548	-1.8555152925	 0.137093
H	 0.971351625	 0.6756411978	-2.0356365094	 0.12308
H	 3.1215793549	-1.8599385141	 0.7810803608	 0.134855
H	 3.0814871932	-2.1398025099	-1.025767738	 0.121375
H	 3.8381009077	 0.291764042	-1.3828834798	 0.119504
H	 3.8641853452	 0.5225594828	 0.4306691662	 0.131489
