21
gdb 107634	2.43811	1.56047	1.14875	1.5648	77.76	-0.2368	0.0699	0.3067	1144.3252	0.182649	-424.213531	-424.204561	-424.203616	-424.246811	34.654	
C	-0.3674468519	 1.3482663472	-0.3378182798	-0.261192
O	 0.1139827591	 0.0483418604	-0.026681435	-0.298648
C	 0.8139732503	-0.5638361474	-1.0580145391	 0.42767
C	 0.0454907497	-1.1845487978	-2.2076589971	-0.37101
C	 0.7615422652	-2.057753966	-1.1936436493	-0.097986
C	 2.1538407409	-2.5627887039	-1.551421315	-0.225379
C	 2.8984398002	-1.3112681516	-2.0652641776	-0.25983
C	 2.2440755765	-0.1119252876	-1.3399176807	 0.073413
O	 2.3729729918	 1.1242911208	-2.03025416	-0.435327
H	 0.4501537664	 2.0390694161	-0.5708953593	 0.132586
H	-1.059483212	 1.3224997663	-1.1924561131	 0.09942
H	-0.9069169924	 1.7018078274	 0.543988133	 0.12117
H	-1.0345685707	-1.1462704032	-2.1201846154	 0.11919
H	 0.4131489088	-1.1234275621	-3.2282615599	 0.099995
H	 0.1435136403	-2.6326143408	-0.5134410884	 0.093852
H	 2.6379225019	-2.9521925517	-0.6483898195	 0.106575
H	 2.1441399955	-3.3748224305	-2.2865086349	 0.099689
H	 3.9770019455	-1.3533083261	-1.8981594844	 0.107276
H	 2.7545059612	-1.1876135241	-3.1453229712	 0.095467
H	 2.7257823225	 0.0628020816	-0.3709981888	 0.097531
H	 1.8788595513	 1.0459640729	-2.8542974444	 0.275541
