18
gdb 80503	2.18137	1.48166	1.23408	5.7058	77.89	-0.2444	-0.0009	0.2435	1113.3826	0.14822	-398.088276	-398.079463	-398.078519	-398.121456	33.208	
C	-0.1708777157	 1.5333759772	-0.1302240615	-0.433627
C	 0.0237627533	 0.0480989126	 0.075716622	-0.015716
N	 1.2176745382	-0.7263930979	-0.288224496	-0.171299
C	 2.4273044585	 0.0941142295	 0.074984945	-0.202806
C	 2.0686954975	 0.0637962457	 1.5991697641	-0.043417
N	 1.9794827931	 1.202785657	 2.4782311343	-0.522751
C	 0.7600302113	-0.6236813483	 1.1859240577	 0.175282
C	 0.1899700113	-1.7224166015	 1.907781767	 0.215033
N	-0.2655788457	-2.5934038788	 2.5187127417	-0.340798
H	 0.6944830323	 2.1400675179	 0.1387724397	 0.116911
H	-0.396546079	 1.7301925323	-1.1836962759	 0.139611
H	-1.0229464019	 1.8775729584	 0.4638099283	 0.143102
H	-0.8594956124	-0.5200601539	-0.2125805259	 0.121905
H	 3.3324005117	-0.4605165082	-0.1768153149	 0.120823
H	 2.4660610189	 1.0742322074	-0.4077614409	 0.108848
H	 2.7050389391	-0.6767058894	 2.0897237708	 0.118114
H	 2.8970283419	 1.4986684752	 2.7915015334	 0.23756
H	 1.5268440975	 1.9979276149	 2.0445922209	 0.233224
