19
gdb 40322	3.19461	1.2697	1.07168	2.0565	74.64	-0.2426	0.0696	0.3121	1170.1423	0.160169	-419.121402	-419.113028	-419.112084	-419.154905	31.56	
C	 0.5485881315	 1.501712104	 0.312027308	-0.228059
N	 1.2114562364	 0.350184957	-0.3218696328	-0.317869
C	-0.1728816023	 0.2130667508	 0.1412535391	-0.096021
C	-0.4226274063	-0.7120689765	 1.3062694798	 0.376027
C	 0.5204360286	-1.8053226637	 1.5936830516	-0.210297
O	 0.5150058885	-0.6032079336	 2.379223205	-0.275144
C	-1.8629062657	-0.8081044207	 1.7289949971	-0.066946
C	-2.2210121612	-1.2020377156	 3.1095817246	-0.246404
N	-2.4120277746	 0.1920024459	 2.6649522142	-0.325416
H	 0.9427369171	 1.7540413503	 1.2908675205	 0.135357
H	 0.2493097705	 2.3448508242	-0.3043651757	 0.113664
H	 1.2312284601	 0.4646405247	-1.3312321787	 0.234781
H	-0.9613648375	 0.1888843826	-0.6088575797	 0.086591
H	 0.1655281447	-2.6950668172	 2.1103437212	 0.110581
H	 1.3938005523	-1.91977306	 0.9572919567	 0.135458
H	-2.5463038627	-1.0615803729	 0.9201432475	 0.089721
H	-3.1374974591	-1.7556596339	 3.2914261512	 0.115576
H	-1.4049287236	-1.4068331946	 3.795462624	 0.127612
H	-1.6396926467	 0.7479149692	 3.0287406266	 0.240787
