18
gdb 34493	4.24826	1.01048	0.87943	1.0226	92.54	-0.2174	-0.0245	0.1929	1321.9544	0.147962	-364.773591	-364.765283	-364.764339	-364.806698	32.051	
C	 0.0492212327	-1.1939541815	-0.0239442527	-0.411146
C	-0.0140545901	 0.0099993891	-0.025865553	 0.20905
C	-0.03057881	 1.4235254328	-0.0146096082	 0.17079
C	-1.0804309729	 2.2178028689	-0.2865295241	-0.258072
C	-0.7412198308	 3.6502346161	-0.1384588722	 0.350958
C	-1.5426614247	 4.72862518	-0.7732404279	-0.297612
N	-1.5991927109	 4.5401860883	 0.684438534	-0.351724
C	 0.7772917563	 3.7042908256	 0.0624201664	-0.302558
C	 1.2002392942	 2.2424622225	 0.3571079248	-0.33203
H	 0.089647319	-2.2548726432	-0.0240868536	 0.19171
H	-2.072862403	 1.8699355712	-0.5506869946	 0.100711
H	-1.0450651497	 5.6406489574	-1.0948007041	 0.11911
H	-2.4018896635	 4.4474866096	-1.3780477654	 0.111282
H	-2.456854384	 4.0549415419	 0.9410399965	 0.229378
H	 1.2611901942	 4.0596598403	-0.8526649931	 0.110042
H	 1.0371391174	 4.3954295255	 0.8665005196	 0.120958
H	 1.4521360375	 2.0811656992	 1.4121460649	 0.121633
H	 2.0767936182	 1.9344794462	-0.2211519571	 0.117521
