16
gdb 66076	2.81219	1.20823	1.11015	1.2054	69.99	-0.268	-0.0544	0.2136	1135.7074	0.122059	-437.879323	-437.870364	-437.86942	-437.913681	31.377	
C	-0.1459810773	 1.5797794834	 0.0162418887	-0.458994
C	-0.0482148097	 0.0494589722	 0.0244947846	 0.057236
C	 1.185168711	-0.501072284	-0.7535983238	-0.09437
O	 1.8823363643	-0.7947240611	 0.4692363986	-0.260094
C	 0.7158804752	-0.5790879993	 1.256205488	 0.025169
C	 0.9147444885	 0.3118814076	 2.4634860585	 0.137776
O	 1.928631329	 0.9059715817	 2.7100970389	-0.231105
C	-1.32622359	-0.5733333369	-0.2881810717	 0.246135
N	-2.3414916508	-1.0697351336	-0.5320297472	-0.330742
H	 0.8207437894	 2.0124716502	 0.2852979128	 0.158622
H	-0.4227393257	 1.9302897315	-0.9818164393	 0.144738
H	-0.9003123924	 1.9368013973	 0.7222136482	 0.14409
H	 0.9814433984	-1.4023825321	-1.3421882255	 0.128985
H	 1.7141455562	 0.2362872745	-1.3652852279	 0.128147
H	 0.2520319904	-1.5206354441	 1.5889491086	 0.112537
H	 0.0145962735	 0.3744437429	 3.1174843885	 0.091871
