22
gdb 100716	2.50624	1.04928	0.97517	2.9707	79.89	-0.2278	0.0391	0.2668	1377.4221	0.191621	-441.51287	-441.501594	-441.50065	-441.550008	39.752	
C	-0.0634482165	 1.5360498634	 0.0705706606	-0.398262
C	-0.0537075642	 0.0128377052	-0.1046648833	 0.024637
C	-1.4555788378	-0.5954156076	-0.006629542	-0.085722
O	-2.3227488083	 0.0220592022	-0.9531154141	-0.415709
N	 0.6530239594	-0.4039597721	-1.3262420193	-0.089231
C	 0.308130373	 0.2319031685	-2.5928979505	-0.355131
C	 1.6819243067	-1.3052533693	-1.1963650501	 0.403271
C	 2.467298659	-1.6494371698	-2.4554324838	-0.501512
O	 1.9677687441	-1.8230745347	-0.1260780342	-0.384404
H	 0.9555314994	 1.9320469722	 0.0399097944	 0.118906
H	-0.6591138666	 2.0351248454	-0.6969842152	 0.132096
H	-0.4978618505	 1.7921118498	 1.041850659	 0.117108
H	 0.5239131799	-0.4362160997	 0.7060006216	 0.127518
H	-1.3833224095	-1.6782460952	-0.1800156827	 0.10181
H	-1.8281444295	-0.4411962038	 1.018693348	 0.089181
H	-3.1768153658	-0.4170945981	-0.9128735488	 0.290841
H	 0.886348468	 1.1483353042	-2.7754628059	 0.11716
H	 0.4817504009	-0.4502502887	-3.4259413064	 0.127844
H	-0.7524025808	 0.4811268085	-2.5839900572	 0.163512
H	 2.8442005535	-0.7591921528	-2.9675967717	 0.13265
H	 3.3048496911	-2.276702606	-2.1524562873	 0.144866
H	 1.8526536243	-2.2064847215	-3.1705006212	 0.13857
