20
gdb 104261	2.18119	1.34067	1.12924	4.8957	79.99	-0.2284	0.0161	0.2445	1210.0951	0.170909	-399.305822	-399.296193	-399.295249	-399.34016	35.508	
C	-0.0119221632	 1.4791181008	 0.1145971769	-0.330985
N	-0.1263644276	 0.0519638302	-0.1657836449	-0.306117
C	 0.6679514126	-0.4461119965	-1.2735917047	 0.314686
C	 0.2490651964	 0.1880271803	-2.5912472189	-0.450912
C	 2.2120822645	-0.5603890905	-1.0017721826	-0.21844
N	 1.9959271448	-1.9517001319	-0.5426134603	-0.310111
C	 0.7028942328	-2.0208304718	-1.252353215	-0.195206
C	-0.3574432254	-2.7476885108	-0.5532939321	 0.31406
N	-1.1870888283	-3.3372353483	-0.0058827967	-0.332164
H	 1.0247810459	 1.8460266466	 0.2116740739	 0.098379
H	-0.5021001181	 2.0642021006	-0.6693253674	 0.128663
H	-0.5317323055	 1.6918083559	 1.0522137429	 0.129372
H	 0.0998472804	-0.4770797691	 0.6699594276	 0.23723
H	 0.5000702453	 1.2526785599	-2.615861693	 0.127083
H	 0.7606352534	-0.2874128547	-3.4325990924	 0.11535
H	-0.8313566834	 0.0889560364	-2.7323703013	 0.138843
H	 2.8095669434	-0.4689100735	-1.9193879102	 0.093323
H	 2.6303423891	 0.1017819709	-0.2373037122	 0.109821
H	 2.6855355623	-2.6377692584	-0.8282308123	 0.229558
H	 0.7637989605	-2.4113154761	-2.2781741375	 0.107568
