22
gdb 96082	2.60829	1.50448	1.10773	2.5483	82.51	-0.2359	0.0723	0.3082	1186.3751	0.195233	-404.341882	-404.333136	-404.332192	-404.374728	34.598	
C	 0.0443588114	 1.5363148864	-0.0148286124	-0.40372
C	 0.0450129391	 0.0138160624	 0.0050789887	 0.138493
O	 0.6477549521	-0.4203452357	-1.2046120203	-0.254228
C	 0.8102127925	-1.8236144166	-1.2634751496	-0.07679
C	 1.8813573554	-2.3123464667	-0.2835105303	-0.260186
C	 1.660373739	-1.7255916248	 1.1114130983	 0.325616
C	 1.7749301556	-2.6927807168	 2.2692939831	-0.480437
N	 2.2156553657	-0.3640613003	 1.2787820463	-0.356881
C	 0.7555113343	-0.5470864101	 1.2274691328	-0.096946
H	 1.0738180271	 1.9025913074	 0.0046466169	 0.140531
H	-0.4449917205	 1.9022562479	-0.9212831579	 0.119854
H	-0.4892063757	 1.9330069089	 0.8547204508	 0.105319
H	-0.9963346029	-0.359019878	 0.0362438845	 0.056792
H	-0.1507256851	-2.3233874405	-1.0491693291	 0.079512
H	 1.0860923443	-2.0605319047	-2.2952662866	 0.103621
H	 1.8580485501	-3.4074933942	-0.2439681253	 0.090606
H	 2.8721335171	-2.0142640602	-0.639963228	 0.116912
H	 2.7771367631	-3.1366043869	 2.3081464184	 0.123685
H	 1.5882071831	-2.1923106823	 3.2258176627	 0.109218
H	 1.0553594446	-3.5137246112	 2.1746115563	 0.12239
H	 2.5111402122	-0.2272666505	 2.2428445331	 0.221633
H	 0.1949342874	-0.4360536538	 2.1553715178	 0.075004
