18
gdb 83623	3.0221	1.50595	1.13053	4.7859	80.26	-0.223	-0.0179	0.2051	1080.618	0.149546	-401.953635	-401.945906	-401.944961	-401.985805	30.182	
C	-0.1591116607	 1.5743768352	 0.1856141563	-0.392186
C	-0.0561895852	 0.0539034161	 0.0151689025	-0.139498
C	 0.7085118828	-0.4425859935	-1.2223324912	-0.083548
C	 1.5512508037	 0.3123784154	-2.3149566541	-0.211232
N	 2.7257089786	-0.5042200394	-1.8450654804	-0.374119
C	 2.0559776183	-0.7945000406	-0.6752954989	 0.392773
C	 2.1323612231	-0.9305071962	 0.6616607748	-0.392224
C	 0.8101354882	-0.5347335327	 1.1934817648	 0.393492
O	 0.4509800888	-0.5141083783	 2.3497292629	-0.358168
H	 0.8270038696	 2.0499241466	 0.1457271191	 0.112506
H	-0.7860232241	 2.020506544	-0.5926853606	 0.112223
H	-0.5975429918	 1.801688837	 1.1608638383	 0.142895
H	-1.0617628736	-0.3731877778	 0.0695639366	 0.090169
H	 0.2109098111	-1.2982888991	-1.6855415195	 0.110004
H	 1.2826337905	 0.147885664	-3.3607143888	 0.120125
H	 1.6808458234	 1.3809630138	-2.1182902348	 0.123514
H	 3.6766674272	-0.1566220572	-1.8506080847	 0.24773
H	 2.9932108302	-1.1032004871	 1.2909840178	 0.105544
