16
gdb 61099	2.36372	1.24314	1.0273	3.4935	80.47	-0.2774	0.0083	0.2858	1206.3855	0.120298	-363.554936	-363.545066	-363.544122	-363.589477	35.909	
C	-0.0571794317	 1.5646743602	 0.0529699774	-0.41047
C	-0.0401634388	 0.0138362663	 0.0292506124	-0.164201
C	 0.7110476228	-0.4939638098	 1.1860044173	 0.330376
C	 1.3578445352	-0.8952331091	 2.1147950474	-0.442827
C	-1.413943167	-0.5053269969	 0.0573705755	 0.364668
C	-2.5416001623	-0.9170782037	 0.0556368394	-0.468342
C	 0.6887835882	-0.5034307168	-1.2619894036	-0.349625
C	 0.0659552207	-0.0399544201	-2.4986433748	 0.274243
N	-0.4169620525	 0.3366414708	-3.4783316099	-0.309894
H	 0.9665663325	 1.9483711341	 0.0394519529	 0.12948
H	-0.5978158621	 1.9456503818	-0.8163362755	 0.155174
H	-0.5513469105	 1.9166726858	 0.9598592211	 0.144297
H	 1.9130799784	-1.2537392672	 2.9465627804	 0.205882
H	-3.538691941	-1.2836806717	 0.057922491	 0.209244
H	 1.7283968878	-0.1619547254	-1.2349360162	 0.162034
H	 0.7001529903	-1.5965624884	-1.2529514949	 0.169961
