19
gdb 109407	2.28788	1.41571	1.04834	3.8337	76.61	-0.2329	-0.0096	0.2233	1206.9962	0.157241	-423.015927	-423.006643	-423.005699	-423.050062	34.385	
C	 0.0131405506	 1.5864616487	-0.1224121251	-0.382005
C	 0.0491113081	 0.0761035495	 0.1419015927	-0.21502
C	-1.3336633739	-0.5600434095	 0.0164021658	-0.15883
C	-2.0423679568	-0.6718257299	-1.3635840429	 0.432173
O	-2.3943263407	 0.1563619475	-2.1597332433	-0.329814
C	-2.2587120309	-2.1436046637	-1.2353739587	-0.272076
C	-0.9074185532	-2.8252130287	-0.9514705198	-0.357436
C	-1.5323808037	-2.0753047363	 0.157932921	 0.406857
O	-1.8864762773	-2.595012222	 1.3806529502	-0.455256
H	 1.0166432278	 2.019291403	-0.070822719	 0.109464
H	-0.4058044069	 1.7985862289	-1.1099530291	 0.146049
H	-0.610986077	 2.0988433197	 0.6178967851	 0.115444
H	 0.7433011272	-0.4024937027	-0.5596985775	 0.095194
H	 0.442448462	-0.1210465354	 1.1471546228	 0.105009
H	-2.0425356362	-0.0571235225	 0.6884472829	 0.110255
H	-3.1010026482	-2.720062258	-1.5979422519	 0.111646
H	-1.0016089721	-3.9077468404	-0.8906371545	 0.116978
H	 0.0033728674	-2.4984720559	-1.446515983	 0.128556
H	-1.6704627859	-3.5323754122	 1.4038984144	 0.292811
