19
gdb 1316	3.15426	2.51068	2.04398	1.2493	67.11	-0.2513	0.076	0.3273	769.6888	0.170399	-310.918831	-310.910861	-310.909916	-310.95008	30.701	
C	-0.6348943131	 1.2787165383	-0.0414396672	-0.423704
C	 0.1315943045	-0.0343274392	-0.0606021786	 0.033112
C	 1.5247849492	-0.1179796891	-0.7433928245	-0.239744
C	 1.9686468921	-1.1101007082	 0.364453585	-0.273987
C	 0.773331982	-0.6119194104	 1.2358868977	 0.40575
C	 1.1830804397	 0.4214651281	 2.2806202593	-0.447647
O	-0.0570879401	-1.6056849378	 1.8121197744	-0.478894
H	-0.0217231367	 2.103315383	 0.3374938882	 0.10907
H	-0.9619594867	 1.55079695	-1.0511088008	 0.113179
H	-1.5293661075	 1.2073060794	 0.5870467873	 0.120795
H	-0.507858469	-0.8290636515	-0.4600669346	 0.08385
H	 1.55586973	-0.4684983914	-1.7771020113	 0.096836
H	 2.0648580398	 0.8325190071	-0.6858282366	 0.096037
H	 1.8071968813	-2.1500914047	 0.0701468067	 0.103745
H	 2.9765169947	-1.0031099325	 0.7755746776	 0.085631
H	 1.7998855605	 1.215727228	 1.8491724598	 0.119063
H	 0.3032616971	 0.8786814965	 2.7431570616	 0.123213
H	 1.7770259382	-0.0561249393	 3.0706386308	 0.103052
H	 0.3512694639	-1.9035841563	 2.6323420252	 0.270642
