18
gdb 71858	3.02715	1.59217	1.28056	2.7696	76.05	-0.2424	-0.0205	0.2219	1023.9294	0.148635	-401.947327	-401.939893	-401.938949	-401.978998	29.55	
C	-0.0590494381	 1.5082855079	 0.0497846689	-0.493431
C	 0.0616543094	 0.0158885153	-0.0508184488	 0.350865
C	-0.1068548679	-0.7936163952	-1.331141406	-0.31368
C	-0.6513708186	-1.9229822758	-0.4201542852	-0.000903
C	 0.4269357243	-2.9273926051	-0.0429350859	-0.330199
C	 1.4228096463	-2.0549179667	 0.729794518	 0.412862
O	 2.5471213222	-2.3391623892	 1.0562942343	-0.325362
C	 0.6872317333	-0.7914723028	 1.0547618547	-0.201265
N	-0.7666672499	-0.9352426488	 0.7594190681	-0.183109
H	 0.8301472117	 1.9974881656	-0.3630982899	 0.130917
H	-0.9316636151	 1.8620653562	-0.5097521229	 0.127149
H	-0.1710359829	 1.8233898599	 1.0908133804	 0.134573
H	-0.8899359369	-0.360101342	-1.9580952069	 0.114555
H	 0.7723081097	-1.0005116612	-1.9493678682	 0.10781
H	-1.6159121272	-2.3509205268	-0.6861745055	 0.091055
H	 0.0369640861	-3.6898707968	 0.6429559797	 0.137408
H	 0.8983629294	-3.4354979814	-0.8878675647	 0.129969
H	 0.9457376342	-0.2629060531	 1.9653599098	 0.110788
