16
gdb 8093	2.91437	1.98642	1.50453	3.2171	66.01	-0.2369	-0.0059	0.2311	881.3504	0.129078	-383.731839	-383.724117	-383.723173	-383.763584	29.243	
C	-0.0135198013	 1.5354877085	 0.0528959571	-0.492657
C	 0.0082995713	 0.0355895537	 0.0089536784	 0.294204
C	-1.2544099475	-0.8455165638	-0.0823595895	-0.403172
C	-0.6265590553	-1.7542734894	 0.9977236546	 0.441597
O	-1.0684707446	-2.6400034025	 1.6749216997	-0.326804
C	 0.6492834405	-0.974272073	 1.0491367041	-0.299903
C	 1.1853797391	-0.7731914538	-0.3643862246	 0.066153
O	 1.0818242498	-1.7427882642	-1.3629462022	-0.41786
H	 0.9749986038	 1.9434470905	 0.2858144089	 0.123819
H	-0.3230891784	 1.9453666589	-0.9156307295	 0.134088
H	-0.7177261123	 1.900169032	 0.8082197662	 0.127781
H	-2.1514722959	-0.3569787976	 0.3097490831	 0.124431
H	-1.4681580253	-1.2949144704	-1.053457302	 0.134549
H	 1.2754824291	-0.8117320697	 1.9192106428	 0.103772
H	 2.1293009912	-0.2241347788	-0.3682317991	 0.096069
H	 1.6388261259	-2.4899911007	-1.1196442078	 0.293932
