19
gdb 17792	5.83687	1.0677	1.05777	0.7585	72.26	-0.2267	0.0814	0.3081	1172.5928	0.166623	-364.969603	-364.961828	-364.960884	-365.002434	29.067	
O	-0.0955579658	 1.4910471952	-0.5597634404	-0.422946
C	-0.1192659283	 0.0786710199	-0.7090750384	-0.063073
C	-1.4029908519	-0.4332651822	-0.0619008709	-0.247909
C	-1.4788860737	-1.949361437	-0.0833755552	 0.08882
C	-2.8007329854	-2.756133896	 0.0014643267	-0.083555
C	-3.022733721	-2.3286823221	-1.4644546392	-0.174691
N	-1.5202639854	-2.6757652594	-1.459051982	-0.158086
C	-1.965731695	-3.8922521764	-0.6260331103	-0.164911
H	 0.6804438541	 1.8267528837	-1.017508455	 0.285341
H	-0.09978621	-0.2186633101	-1.7675031553	 0.108528
H	 0.7537889833	-0.3882719882	-0.2238143935	 0.082692
H	-1.4225200927	-0.1009471205	 0.9836081487	 0.109115
H	-2.2544931816	 0.0445463987	-0.5536523721	 0.108599
H	-0.6628377534	-2.3566696252	 0.5267098074	 0.06898
H	-3.5236172264	-2.8058001009	 0.824106947	 0.062429
H	-3.611515997	-2.9929892756	-2.1029967254	 0.099253
H	-3.2441997504	-1.2857934752	-1.691001256	 0.104414
H	-1.1608155566	-4.3340450218	-0.0316729118	 0.098175
H	-2.4891841428	-4.6495266471	-1.2155774744	 0.098825
