22
gdb 95161	2.69802	1.40129	1.06886	2.5655	82.53	-0.2352	0.0725	0.3077	1219.9934	0.195056	-404.341668	-404.332876	-404.331932	-404.374633	34.684	
C	 0.0305305496	 1.5394889476	 0.0893763139	-0.403014
C	 0.0027732302	 0.0196939086	 0.0277976468	 0.140749
C	 0.6431680225	-0.5360707719	-1.2535925767	-0.255694
C	 0.8872867449	-2.0437001986	-1.1707260378	 0.317831
C	 0.4964663694	-2.8492329887	-2.3904237722	-0.479721
N	 2.1355814914	-2.4066695547	-0.4622605731	-0.357298
C	 0.8376653808	-2.6794299608	 0.1758980065	-0.083431
C	 0.4969063705	-1.8427803178	 1.391141514	-0.086173
O	 0.685156652	-0.4600829341	 1.179352548	-0.250273
H	 1.064888765	 1.896763697	 0.0914011148	 0.127769
H	-0.4846127903	 1.9710865949	-0.7744136463	 0.110395
H	-0.4567023032	 1.8954665854	 1.0009775135	 0.119797
H	-1.0461628046	-0.3273326515	 0.0712981739	 0.054858
H	-0.0104275867	-0.3076968384	-2.1033718302	 0.089836
H	 1.5999780142	-0.0323173124	-1.4283207692	 0.111495
H	 1.0605731909	-2.5198982813	-3.2715011134	 0.123538
H	 0.6929572295	-3.9167432327	-2.2418177991	 0.109282
H	-0.5686679772	-2.733338143	-2.6202203304	 0.121949
H	 2.512884113	-3.2683061512	-0.851009093	 0.221292
H	 0.5006029213	-3.7139317477	 0.23309762	 0.076404
H	-0.5511948154	-2.0480684125	 1.6753672859	 0.08019
H	 1.1370105723	-2.1131967662	 2.2376929243	 0.110219
