16
gdb 68966	2.67269	1.66342	1.26839	2.0138	75.27	-0.2415	0.0081	0.2496	1010.894	0.122996	-400.715783	-400.707727	-400.706783	-400.74804	31.096	
C	-0.0460306857	 1.5226747333	-0.1087740798	-0.470399
C	 0.0342421485	 0.0323520435	 0.0090878785	 0.355178
C	-0.7875964357	-0.7967039301	 0.9437335766	-0.367941
C	 0.7339250786	-0.7974591971	 1.1089491137	 0.108074
N	 1.4168341343	-1.8696775209	 0.4055570629	-0.299805
C	 1.1566326851	-1.6925473947	-0.8263122339	 0.076858
O	 0.4046473165	-0.6258093154	-1.2003073085	-0.243361
C	 1.3415824462	-0.2453765213	 2.2799074683	 0.217878
C	 1.8336259975	 0.2487549342	 3.2594982629	-0.389755
H	 0.8725627413	 1.924321781	-0.5458037507	 0.137547
H	-0.8910380792	 1.8228923176	-0.736733138	 0.13478
H	-0.1780488121	 1.9639839273	 0.8821241459	 0.139401
H	-1.3430986651	-0.2531889035	 1.6990497068	 0.13425
H	-1.2461023523	-1.7129608266	 0.587220015	 0.128524
H	 1.4885537746	-2.323797428	-1.6412627345	 0.147352
H	 2.2769021275	 0.6714598005	 4.1268682748	 0.19142
