16
gdb 65633	3.37414	1.30944	1.20239	3.5135	68.98	-0.2629	-0.0021	0.2608	1053.4617	0.123843	-437.848827	-437.840773	-437.839829	-437.881855	29.908	
O	-0.1654156277	 1.3060379685	 0.1424842803	-0.443958
C	 0.0131479449	-0.0789937784	 0.0511321147	 0.261751
C	 0.3666511597	-0.8815100549	 1.3604849292	-0.318223
C	-0.9171802294	-1.7371014114	 1.1921269014	-0.069446
C	-2.1572828768	-1.1241096253	 1.8621296768	-0.081899
O	-2.3845450853	-0.2497947072	 0.7260010506	-0.275165
C	-1.3415958332	-0.8670891839	-0.0251508446	 0.07808
C	 0.9008829865	-0.4389340268	-1.0640734337	 0.21998
N	 1.6081554873	-0.71945088	-1.9349680781	-0.331775
H	 0.7003220907	 1.729759541	 0.1645431078	 0.296352
H	 1.3055434578	-1.4340564443	 1.307479591	 0.128874
H	 0.3716025537	-0.2393145503	 2.2444872755	 0.119911
H	-0.810776499	-2.8189867056	 1.1695167815	 0.093893
H	-2.9983246184	-1.8145757598	 1.9981124813	 0.111734
H	-1.9903908681	-0.5661771873	 2.7909245223	 0.111309
H	-1.6635318425	-1.2138814042	-1.0094989561	 0.098584
