23
gdb 105250	1.96341	1.45471	0.98585	1.6364	85.76	-0.2545	0.0844	0.3389	1320.6708	0.204036	-388.263166	-388.253062	-388.252118	-388.29817	37.606	
C	 0.9575132826	 1.5056702414	 0.2522526225	-0.376972
C	 0.131325034	 0.2506874819	-0.0612839662	-0.264883
C	 0.5755581085	-0.4787509115	-1.3220083857	 0.316787
C	 1.7827694489	-1.3879276826	-1.2773173916	-0.342364
C	 0.4064075552	-1.9827697244	-1.4580135533	-0.034643
C	-0.231168028	-2.8634997551	-0.4060101312	-0.418821
C	 0.3469829938	 0.314538116	-2.5803712717	 0.012008
C	 1.4013260422	 1.074609294	-3.2679203849	-0.177271
O	 0.9361008576	-0.175435514	-3.785366107	-0.239743
H	 2.0165730714	 1.2563535802	 0.3764215361	 0.117312
H	 0.88339965	 2.2481735031	-0.5481066765	 0.118593
H	 0.6124569556	 1.9786543177	 1.1769402863	 0.110938
H	 0.182955724	-0.4308311622	 0.7928041471	 0.098018
H	-0.9274239807	 0.5288874913	-0.1603338782	 0.094508
H	 2.4527137593	-1.396145019	-2.1298021725	 0.121497
H	 2.2668967886	-1.5185394012	-0.3138463412	 0.10111
H	 0.1969211768	-2.2989290642	-2.4768601418	 0.099018
H	 0.0650124637	-2.5836438903	 0.608860562	 0.115162
H	-1.3253169385	-2.8255449447	-0.4568348885	 0.115886
H	 0.0694814806	-3.9069219423	-0.552639678	 0.11887
H	-0.6806219367	 0.6651052731	-2.7089584583	 0.087514
H	 1.1443537447	 1.9489827192	-3.8642749559	 0.113061
H	 2.4131742563	 1.0613104136	-2.8667351614	 0.114413
