20
gdb 92161	2.25735	2.02965	1.51209	1.411	77.7	-0.2101	0.0728	0.2829	974.9192	0.172451	-403.105028	-403.097226	-403.096281	-403.136695	31.685	
C	 0.0008872172	 1.4386080219	-0.0022482827	-0.503099
C	 0.0327506115	-0.0698965142	 0.0227655041	 0.375991
C	-0.3144825779	-0.7919804478	-1.2823864671	-0.117078
C	-0.058670218	-2.2826662344	-1.1463038067	-0.186954
N	-0.7666737265	-2.2775782337	 0.1945537526	-0.129878
C	 0.2325103681	-2.109115945	 1.2651406935	-0.196815
C	 0.9919417169	-0.7819556085	 0.9690550676	 0.006016
O	 2.256204694	-0.9542341031	 0.3290089915	-0.432916
C	-1.2294014571	-0.881814131	-0.0844132296	-0.096577
H	 0.9616608281	 1.842430323	-0.3389032792	 0.132327
H	-0.772924603	 1.8102940009	-0.6819141958	 0.1162
H	-0.2048870811	 1.8486950058	 0.9933066608	 0.114304
H	-0.4457220467	-0.2303029498	-2.2001533312	 0.083737
H	-0.6300886361	-2.8804115515	-1.8628362295	 0.10228
H	 0.9800843002	-2.62160918	-1.1179421631	 0.112252
H	-0.2988115176	-2.0329178295	 2.2210708364	 0.099207
H	 0.9047412247	-2.9720743032	 1.3115884794	 0.095708
H	 1.1235906994	-0.1888097657	 1.8873539137	 0.057064
H	 2.8704540908	-1.3110993533	 0.9781418863	 0.28174
H	-2.2428717369	-0.5494304508	 0.1062107789	 0.086493
