21
gdb 114541	3.50239	1.19168	1.06661	2.6782	77.83	-0.2435	0.0796	0.3231	1201.4087	0.185026	-424.211864	-424.203959	-424.203015	-424.244306	31.822	
O	 0.1200665148	 1.3338695048	 0.160211067	-0.427078
C	 0.0505721594	-0.0704445996	 0.0322112275	-0.070411
C	-1.3879263635	-0.5552872037	-0.0992666162	 0.126082
C	-1.5109915584	-2.0873413639	-0.2534463469	-0.249463
C	-2.817201462	-2.579823569	 0.3896637706	-0.021908
C	-3.9125657929	-1.4798679543	 0.241460614	-0.253356
C	-3.2135075521	-0.803059635	 1.4525458827	 0.136523
C	-2.7813213782	-2.2216851329	 1.9037280957	-0.228156
O	-2.0710849959	-0.0517757262	 1.061162443	-0.310029
H	-0.5107865806	 1.5626548234	 0.853420864	 0.291832
H	 0.6170767388	-0.3431584121	-0.8651366232	 0.103286
H	 0.5149124445	-0.5796878404	 0.8934345821	 0.083952
H	-1.8291913836	-0.0690185924	-0.9809061722	 0.081359
H	-1.4820743276	-2.3324149577	-1.3210175565	 0.102588
H	-0.6600459838	-2.5959512889	 0.2178784694	 0.100202
H	-3.0560074359	-3.6051512701	 0.0994802266	 0.065026
H	-3.9911958371	-0.9236298515	-0.695596482	 0.101623
H	-4.8998650366	-1.8517498008	 0.5254309857	 0.102022
H	-3.7871386957	-0.1654262558	 2.1279361246	 0.074376
H	-3.5672404337	-2.7302503944	 2.4684411669	 0.097232
H	-1.8278646999	-2.2986824395	 2.4331537671	 0.094299
