25
gdb 110353	2.82402	1.05387	0.92359	0.0943	93.13	-0.2428	0.0869	0.3297	1456.9105	0.22865	-352.337604	-352.327627	-352.326683	-352.372215	38.455	
C	-0.4422272297	 1.2701909409	 0.090237502	-0.371656
C	-0.0917056212	-0.1916726769	 0.3936009975	-0.207605
C	-1.3125884077	-1.0917231834	 0.3781274998	-0.009525
C	-1.9592195938	-1.6751492563	-0.8524036672	-0.067719
C	-1.3171069836	-2.5862684771	 0.2015970857	-0.089554
C	-0.2722477752	-3.0702202821	-0.8204291084	 0.007916
C	-0.3102335215	-4.5723928775	-1.0823665242	-0.410123
C	-0.9292739441	-2.1293490854	-1.9030840982	 0.008062
C	-1.5421982664	-2.7921435582	-3.1323609255	-0.410575
H	 0.4460107562	 1.9091902335	 0.1209401953	 0.107734
H	-0.8942854378	 1.3673718017	-0.9025159303	 0.117961
H	-1.1606696632	 1.6634777681	 0.8182685539	 0.111227
H	 0.6557526628	-0.541411545	-0.3256437891	 0.099136
H	 0.3860584818	-0.2574690504	 1.3799573942	 0.092775
H	-2.0639197318	-0.7790986931	 1.1040601969	 0.077216
H	-3.0119879577	-1.522586262	-1.0673966343	 0.072532
H	-1.8013489313	-3.238091301	 0.9218645747	 0.073035
H	 0.7585242095	-2.789944892	-0.5709909919	 0.062244
H	-1.3260663847	-4.9304913408	-1.2760084344	 0.11516
H	 0.3151804222	-4.8500011918	-1.9372019035	 0.111203
H	 0.0653874247	-5.1151694433	-0.2076441818	 0.110876
H	-0.2591499792	-1.3298332913	-2.2430428747	 0.062213
H	-2.2712196937	-3.5634311853	-2.8652420383	 0.115327
H	-2.0663703302	-2.044946194	-3.7388147842	 0.110786
H	-0.7776617342	-3.2543478273	-3.7654461141	 0.111354
