17
gdb 79692	2.74712	1.76011	1.39363	1.0547	71.41	-0.2489	-0.0074	0.2415	957.2837	0.136419	-421.790284	-421.783029	-421.782084	-421.821823	28.741	
C	-0.3068840654	 1.6442505678	 0.0049486513	-0.446642
C	 0.0447610685	 0.1593069064	 0.0646772593	 0.041313
C	 1.0519086385	-0.5518174203	-0.9087180641	-0.215339
C	 2.4385177635	-0.0351854477	-0.497911177	 0.035187
O	 2.4825883135	 1.2024883226	 0.2186916134	-0.24406
C	 2.3308663829	-0.0013614746	 0.9769937549	 0.035187
C	 0.8976061818	-0.503332085	 1.2053395814	-0.215338
C	 0.9716843566	-1.686850446	 0.174673726	 0.420579
O	 0.9100718951	-2.8731869304	 0.197384862	-0.306768
H	 0.5623458193	 2.2927774996	 0.0534380053	 0.157073
H	-0.8515881311	 1.8504455534	-0.923175626	 0.116817
H	-0.9796982156	 1.8907879133	 0.8339082432	 0.116819
H	-0.8959360276	-0.4012423472	 0.0088772634	 0.099385
H	 0.8333266715	-0.7216670066	-1.9601110364	 0.08604
H	 3.3329938307	-0.311574846	-1.0443988483	 0.116853
H	 3.1356366231	-0.249566525	 1.6595379543	 0.116852
H	 0.5281843348	-0.6257853943	 2.2205179172	 0.08604
