23
gdb 105624	1.91261	1.33928	1.18197	0.6626	91.84	-0.2503	0.0517	0.302	1277.6659	0.20376	-351.123226	-351.112972	-351.112027	-351.15775	39.169	
C	 0.0655785961	 1.6240186533	 0.1179913397	-0.394645
C	-0.0445887708	 0.1036220296	-0.0280013284	-0.229207
C	 0.6837971356	-0.4638519213	-1.26579627	 0.127625
C	 2.2457151497	-0.4708995455	-1.0885106536	-0.254836
C	 2.1726677747	-1.9544127375	-0.6506190463	-0.245367
C	 0.7612800896	-2.0463978777	-1.2867091628	 0.017441
C	-0.3199166335	-2.8833522866	-0.6218282204	-0.419873
C	 0.1779731505	 0.1334673327	-2.4909886499	 0.270377
C	-0.2396849824	 0.6036003085	-3.5176109558	-0.458465
H	 1.1083934265	 1.9468441719	 0.2037255836	 0.115456
H	-0.370239694	 2.1324487763	-0.7464315725	 0.132835
H	-0.4606146929	 1.9640897356	 1.0152199775	 0.110116
H	 0.3625697263	-0.3799575551	 0.8679349097	 0.09458
H	-1.1017682322	-0.1801849757	-0.0820707945	 0.104291
H	 2.7550847307	-0.3445103221	-2.0458197657	 0.111154
H	 2.6535304825	 0.2497739957	-0.3759227414	 0.100926
H	 2.9381081783	-2.6305418689	-1.0379142261	 0.097458
H	 2.1392209271	-2.0633523248	 0.4378451791	 0.100011
H	 0.8609921982	-2.3512283882	-2.3331578539	 0.082159
H	-0.4509437627	-2.6233599406	 0.4330971262	 0.114316
H	-1.2860540177	-2.7594417863	-1.1232416004	 0.121781
H	-0.0574534805	-3.9461810246	-0.6688910571	 0.114621
H	-0.6037434592	 1.0226076114	-4.422698247	 0.187247
