19
gdb 94738	2.74888	1.55133	1.26997	2.0216	70.81	-0.2498	0.0517	0.3015	1055.6243	0.158836	-460.147456	-460.139036	-460.138092	-460.180167	32.23	
C	 0.1258777725	 1.5942270676	 0.0153026654	-0.410246
C	 0.1679777814	 0.0790639413	-0.0324816384	 0.113958
O	 1.0704463589	-0.3346194234	-1.0692632859	-0.265632
C	 1.3802760824	-1.6948266315	-0.827256656	-0.149942
C	 1.4984820663	-1.8289045958	 0.6997659221	 0.304463
O	 1.1288018647	-3.0793325968	 1.216552471	-0.480077
C	 2.7123186124	-1.1151511254	 1.3428982296	-0.116538
O	 1.8929049767	-0.0005027692	 1.7515867012	-0.288193
C	 0.6969958348	-0.6142546105	 1.2258975101	 0.069269
H	 1.100522815	 1.982920209	 0.3168628303	 0.142354
H	-0.1323110504	 1.9949892221	-0.9682622189	 0.1249
H	-0.6259244664	 1.9319625475	 0.7351097668	 0.116511
H	-0.836200729	-0.3307155749	-0.2419193872	 0.0675
H	 0.573909364	-2.3645236426	-1.1705342632	 0.09364
H	 2.2991992017	-1.934648572	-1.3718141975	 0.103612
H	 1.6936158755	-3.7541470425	 0.8242079757	 0.284423
H	 3.1282990201	-1.6553045673	 2.2018086361	 0.101439
H	 3.5163974697	-0.8065024646	 0.664044255	 0.102256
H	-0.0565301704	-0.7940124013	 1.9982525738	 0.086305
