23
gdb 105102	2.60414	1.15951	0.99516	1.7383	84.77	-0.2419	0.0831	0.325	1329.6231	0.205668	-388.253863	-388.244305	-388.243361	-388.289349	35.639	
C	 0.0900132969	 1.5181522327	 0.2725862035	-0.40496
C	-0.0267638349	 0.0267211192	-0.0571877199	-0.258871
C	 0.7049271884	-0.4647696127	-1.3088382752	 0.367319
C	 0.5011079769	 0.2691766797	-2.6155206558	-0.314481
C	 1.8341039272	 0.34494329	-1.9120724543	-0.305164
C	 0.8716688064	-1.9711819309	-1.4184715899	-0.097683
C	 1.5793512247	-2.7036524534	-0.2513216311	-0.087869
O	 0.3719733415	-3.4080686221	 0.1026076808	-0.276021
C	-0.3242399804	-2.8856436012	-1.0472122013	-0.091086
H	 1.1173172533	 1.8012275638	 0.5210919631	 0.120815
H	-0.2444482878	 2.15451051	-0.5533218975	 0.118461
H	-0.5337890572	 1.7579225787	 1.138953708	 0.116181
H	 0.3246824799	-0.5455245341	 0.8098780808	 0.112253
H	-1.0904637089	-0.2225410924	-0.1612982198	 0.102777
H	 0.430011567	-0.3164970076	-3.5263011509	 0.107939
H	-0.1199269533	 1.1584495336	-2.617382302	 0.111067
H	 2.1090516	 1.2865886311	-1.4522915747	 0.112501
H	 2.6728060717	-0.1931807928	-2.3416747141	 0.105957
H	 1.3037570873	-2.2072256625	-2.394302579	 0.070243
H	 2.379671555	-3.3911951112	-0.5555430205	 0.094055
H	 1.9488680668	-2.0757072311	 0.5683514152	 0.100909
H	-1.2613618731	-2.3905335815	-0.7699650009	 0.102144
H	-0.5448403172	-3.6707384154	-1.7825212045	 0.093514
