22
gdb 77417	1.87105	1.62098	1.58346	1.6877	86.53	-0.197	0.0806	0.2776	1108.4483	0.192313	-367.131432	-367.121835	-367.120891	-367.165187	36.734	
C	-0.0678228762	 1.6289256198	-0.032122027	-0.392651
C	 0.1526837606	 0.1189903226	 0.0567391128	-0.118382
C	 1.390176335	-0.7161280452	-0.2065988787	 0.279544
C	 1.4744078159	-1.7892024797	-1.2554177418	-0.49438
C	 2.6795410574	-0.1594933046	 0.4670300723	-0.113334
N	 2.3903426082	 1.1223910129	 1.1612980006	-0.342736
C	 2.0333039481	-0.1757503351	 1.790797929	-0.113349
C	 0.7145864666	-0.7333101492	 1.1774403644	 0.279548
C	-0.0498351116	-1.82799625	 1.8673197135	-0.494384
H	 0.7050761783	 2.1209518068	-0.6243581029	 0.123699
H	-1.0373929507	 1.8291875245	-0.5026029205	 0.089029
H	-0.0634583885	 2.1014494856	 0.9511840963	 0.123712
H	-0.6949541366	-0.4249822744	-0.3637544733	 0.0784
H	 1.800801809	-1.3808391216	-2.2205968402	 0.119077
H	 2.1875731287	-2.5742526068	-0.9742777582	 0.112064
H	 0.5017136101	-2.266127046	-1.4126269847	 0.116727
H	 3.6883682374	-0.4274940079	 0.178311431	 0.087482
H	 3.2655101871	 1.4235064445	 1.5921816933	 0.224574
H	 2.4288647639	-0.4591617595	 2.7583334785	 0.087483
H	-0.6139480165	-1.442277924	 2.7263083072	 0.119077
H	-0.7674477474	-2.2985155272	 1.1876500182	 0.116732
H	 0.6182518614	-2.6141326353	 2.24094755	 0.112067
