19
gdb 88499	2.25997	1.4437	1.1993	3.096	80.47	-0.2328	0.0272	0.26	1140.7337	0.158897	-382.036284	-382.0273	-382.026355	-382.070109	33.501	
C	 0.2935159255	 1.5312261507	-0.531759421	-0.334383
N	 0.1084179025	 0.1424258194	-0.1279581947	-0.085369
C	 1.2699000883	-0.73920531	-0.1241237534	-0.272617
C	 0.624370434	-0.3277974431	 1.1547598905	-0.069369
C	 1.3167417182	 0.5560645551	 2.1699468688	 0.192295
C	 0.4376246251	 1.3557267204	 3.1318198797	-0.285872
C	 1.1821251717	 0.1648097517	 3.6410396137	-0.304838
C	 2.5767124237	 1.1502399587	 1.8030956719	 0.237134
N	 3.5936269334	 1.6236195667	 1.51635586	-0.368215
H	 1.273483669	 1.9588712402	-0.2782492794	 0.132093
H	 0.1691708124	 1.5914650272	-1.6172157415	 0.129332
H	-0.4847080397	 2.1469029846	-0.0697943889	 0.122442
H	 1.1178485938	-1.7388233026	-0.5233307994	 0.117571
H	 2.2440295012	-0.3034917866	-0.3418718182	 0.134543
H	-0.0472617304	-1.0333076113	 1.6426534472	 0.093412
H	 0.7798169751	 2.3419716508	 3.4209398798	 0.143819
H	-0.6313935515	 1.2703014711	 2.9729338988	 0.137977
H	 0.6330483608	-0.7481387294	 3.8424671283	 0.134826
H	 2.0434924368	 0.3275643764	 4.2770077277	 0.145218
