19
gdb 93758	2.4583	1.41842	1.04057	3.0634	80.5	-0.231	-0.0492	0.1818	1197.0807	0.159496	-423.071093	-423.062306	-423.061362	-423.104608	33.185	
C	-0.1402244414	 1.5504604944	 0.0067810674	-0.478852
C	-0.0897535843	 0.0514827285	-0.0241974708	 0.324178
C	-0.2268406075	-0.6454632417	-1.1675130928	-0.247581
C	-0.1061438895	-2.1055413742	-1.235447179	 0.353165
O	-0.132654523	-2.719874913	-2.2882091853	-0.354174
C	 0.1691071143	-2.8574646177	 0.0770124539	 0.037384
O	 1.5844155969	-3.0060637765	 0.2023716704	-0.441334
C	-0.3304495724	-2.0962524735	 1.2956405437	-0.24072
C	 0.1625084598	-0.6445970069	 1.2901180926	-0.29249
H	 0.7791961386	 1.9570083557	 0.4468985206	 0.138265
H	-0.2659676527	 1.978119816	-0.9903642578	 0.132229
H	-0.9647981364	 1.8963150638	 0.6429896159	 0.135811
H	-0.3906009892	-0.1437728806	-2.1173057884	 0.096077
H	-0.3173833418	-3.8399824155	 0.0029284015	 0.079908
H	 1.8961904933	-3.4219430509	-0.6098758068	 0.293621
H	-1.4266820381	-2.1109448788	 1.2850282085	 0.107318
H	-0.0037594237	-2.6112922454	 2.2044474573	 0.111431
H	 1.2431981854	-0.6237817844	 1.4868807401	 0.141618
H	-0.3039378582	-0.0779258592	 2.104252739	 0.104148
