21
gdb 89307	2.59009	1.59543	1.25498	2.0314	78.1	-0.2405	0.084	0.3244	1097.5055	0.181963	-424.227676	-424.218988	-424.218043	-424.260167	34.98	
C	 0.0224469405	 1.4682729738	 0.165293131	-0.497032
C	-0.0254501756	-0.021539405	-0.0189107169	 0.423953
C	 0.6551713873	-0.7766667737	-1.1857041852	-0.323729
C	 0.7024254219	-1.860432356	-0.0907900293	 0.374509
C	 1.7362277935	-2.9453717576	-0.0051345563	-0.499816
O	 0.8346308651	-0.7827162706	 0.9102791172	-0.381306
C	-0.7887767605	-2.2257106202	 0.14944189	 0.138697
O	-0.9616882875	-2.8817553955	 1.3867927318	-0.446919
C	-1.3664045272	-0.7745950098	 0.1181962466	-0.303652
H	 1.0453052909	 1.842445998	 0.0672786263	 0.126292
H	-0.6026564156	 1.9635673928	-0.5849670491	 0.122988
H	-0.3531595643	 1.7451226255	 1.1559536609	 0.127953
H	 0.0843575996	-0.9652665646	-2.0993667813	 0.092119
H	 1.6486611255	-0.3835267342	-1.4104672036	 0.104505
H	 2.7459868625	-2.5267252537	-0.0183349963	 0.124034
H	 1.6023256116	-3.5258093429	 0.9119191772	 0.134502
H	 1.6316043765	-3.6286572785	-0.854716169	 0.122228
H	-1.2054742797	-2.8869697438	-0.6147115811	 0.080372
H	-0.5060164733	-2.3245394696	 2.0327646482	 0.279616
H	-1.8848889949	-0.5433830775	 1.0522016946	 0.102337
H	-2.0469579164	-0.5863130668	-0.7169623554	 0.098347
