19
gdb 113360	2.25352	1.14089	0.85912	3.3136	73.43	-0.2531	-0.041	0.2121	1396.9229	0.155805	-460.146541	-460.136338	-460.135394	-460.182587	35.648	
C	-0.3222345195	 1.4003000198	 0.3918575614	-0.377354
C	 0.4003130493	 0.1251887024	-0.0641250819	-0.229076
C	 0.9148969037	-0.66258308	 1.1165975832	 0.043669
O	-0.0137287066	-1.4361209847	 1.868750756	-0.284214
C	 1.040162838	-2.1423569778	 1.1847708003	 0.226895
C	 0.5770985847	-3.1015967609	 0.1143363246	-0.149906
O	-0.0105965241	-4.2478909438	 0.7096852708	-0.416986
C	 2.1068139002	-2.6871683555	 2.1078692711	 0.116337
O	 2.4024377323	-2.1781523262	 3.1570267505	-0.248028
H	 0.3441867118	 2.0469385448	 0.9721967153	 0.12407
H	-0.6820343922	 1.9728734416	-0.4675119073	 0.119225
H	-1.1814805567	 1.1523761904	 1.0218690103	 0.136588
H	-0.2766510246	-0.4882988764	-0.664727537	 0.109253
H	 1.2535121051	 0.3862178069	-0.7029605701	 0.110131
H	 1.6194521717	-0.1233734002	 1.7540660078	 0.111861
H	-0.1109696319	-2.6080788553	-0.5817527739	 0.103014
H	 1.4347418692	-3.4646048601	-0.4633169819	 0.117983
H	-0.7463698562	-3.9371485725	 1.2500801714	 0.298187
H	 2.6263933858	-3.5938240124	 1.7302723392	 0.088351
