18
gdb 94183	2.19476	1.56603	1.3315	3.6294	67.95	-0.2422	0.0179	0.26	1054.6123	0.146981	-476.248168	-476.239112	-476.238168	-476.281643	34.765	
N	 0.2215705549	 1.1232185176	-0.03949121	-0.527421
C	 0.0525562041	-0.2114123579	-0.1518977183	 0.414206
O	 0.9677408195	-0.991025373	-0.3958514748	-0.409867
C	-1.3824916271	-0.7039246997	 0.0155406924	 0.23608
O	-2.1171278206	 0.3110954963	 0.6696589062	-0.497554
C	-1.9536246731	-1.2836579414	-1.3208170292	-0.282129
C	-1.5498444363	-2.7060333787	-0.859994492	-0.260681
C	-1.4164559467	-2.1680181218	 0.5937810832	 0.121409
O	-0.3910803462	-2.6171751266	 1.4184808816	-0.434775
H	 1.1569074399	 1.4937540954	-0.0731774584	 0.263892
H	-0.5450161113	 1.6946087956	 0.2740669407	 0.279427
H	-3.0434974942	 0.0528010103	 0.6879962435	 0.284125
H	-3.0390648174	-1.1404781428	-1.3526043441	 0.093842
H	-1.524751465	-0.9064275868	-2.2503816615	 0.119595
H	-2.2617194199	-3.5154754476	-1.0313341757	 0.098149
H	-0.5713050597	-2.9886333763	-1.2505744537	 0.12851
H	-2.3542526304	-2.2932210274	 1.1487547262	 0.076322
H	 0.4307575593	-2.4055885352	 0.948403054	 0.296872
