16
gdb 9097	6.22831	0.82946	0.75394	0.9872	62.68	-0.2615	-0.0405	0.2209	1415.3502	0.125324	-420.878689	-420.869206	-420.868262	-420.914554	31.014	
C	-0.2729000358	 1.3639575891	 0.0131523315	-0.407457
C	-0.0325563518	-0.1446194334	 0.0025864321	 0.046366
O	 0.6491993653	-0.6208762938	-1.144288053	-0.264478
C	-0.1057735709	-0.6487719061	-2.3302374877	-0.152233
C	 0.6883794262	-1.4151761196	-3.3763459611	 0.141466
O	 0.3360049562	-1.5355325866	-4.5183809469	-0.233124
C	 0.8065075859	-0.5983442505	 1.1953924065	 0.1486
O	 0.7260445063	-0.1196541391	 2.2946518543	-0.240143
H	 0.6623891397	 1.8949787713	-0.1859180471	 0.134815
H	-1.0132618858	 1.6608153592	-0.733805611	 0.122326
H	-0.6343353154	 1.6573011289	 1.0014516501	 0.150522
H	-1.001616282	-0.6709659723	 0.0970295788	 0.10041
H	-1.0729636234	-1.1600248844	-2.1841020743	 0.124705
H	-0.3253069248	 0.3558930578	-2.7207265114	 0.132823
H	 1.6274877283	-1.8629792044	-2.9834466522	 0.098849
H	 1.4963629622	-1.4361234859	 0.9546997215	 0.096551
