19
gdb 76649	3.00509	0.85496	0.8534	3.0162	72.61	-0.2372	-0.0057	0.2315	1470.0456	0.156012	-460.155299	-460.145237	-460.144292	-460.191791	35.968	
C	-0.1122455222	 1.5061352979	-0.1198241082	-0.473253
C	 0.0821533965	 0.000486279	-0.080879613	 0.380652
O	 1.0935977481	-0.5209115375	-0.4909037088	-0.292233
C	-1.0761855698	-0.7970881571	 0.5107555869	-0.330549
C	-0.9020390601	-2.2913086186	 0.3674759054	-0.090062
C	-1.6692599197	-3.2531788037	 1.2382018204	 0.00203
O	-2.5855083566	-2.6637051215	 2.1330832585	-0.424968
C	-2.0265530053	-3.1308646668	-0.222914034	 0.075945
O	-3.2426312794	-2.5183574221	-0.5272622524	-0.427197
H	 0.8118359652	 1.9925523153	-0.4339645026	 0.141153
H	-0.912126907	 1.7559697112	-0.8266253561	 0.144485
H	-0.4234991768	 1.8865804784	 0.858865403	 0.134664
H	-1.1740628808	-0.4962082637	 1.5630061936	 0.134454
H	-2.0061443185	-0.4668729047	 0.030027343	 0.129411
H	 0.109702592	-2.5890345667	 0.113293185	 0.116745
H	-1.1636912498	-4.1373584716	 1.6201709778	 0.094739
H	-3.1667581048	-3.3589058487	 2.4605403245	 0.298056
H	-1.7849658781	-3.9290096702	-0.9177285467	 0.102638
H	-3.6424589929	-2.2862047888	 0.3232375537	 0.283291
