17
gdb 53737	3.86125	0.73035	0.65199	3.4482	81.64	-0.2514	-0.0203	0.2311	1701.6851	0.134601	-417.984656	-417.974766	-417.973822	-418.020852	34.814	
C	 0.0478462396	 1.4777729804	 0.1988937703	-0.460931
C	 0.0127281683	-0.0272873224	-0.0053172733	 0.083664
C	 0.6612414803	-0.6089667978	-1.2231157399	-0.257546
N	 1.2791523008	-0.7995918266	 0.0922469464	-0.327178
C	-1.1425106495	-0.689366137	 0.5468521574	 0.058964
C	-2.133118578	-1.2042719655	 1.0031065598	 0.091528
C	-3.3484658776	-1.7824907704	 1.5555632202	 0.24951
N	-3.232793019	-3.1081639793	 1.866151488	-0.520483
O	-4.3726086008	-1.1449982762	 1.7103647626	-0.335214
H	 0.9271283618	 1.9102770452	-0.2893797915	 0.114324
H	-0.8456505054	 1.9478202275	-0.2219553482	 0.144913
H	 0.0853488682	 1.722946785	 1.2647467132	 0.139306
H	 0.2508670647	-1.5085913637	-1.6706417352	 0.131326
H	 1.1060177328	 0.0922281521	-1.9249905099	 0.119973
H	 2.048482124	-0.1439858703	 0.2132583763	 0.234959
H	-2.3430943205	-3.5749385212	 1.8332277559	 0.268251
H	-4.0076754396	-3.5526066397	 2.3310636181	 0.264634
