21
gdb 76549	2.41626	1.21489	1.13883	1.2794	78.92	-0.2415	0.0634	0.305	1227.593	0.180946	-424.195179	-424.185424	-424.18448	-424.229559	36.611	
C	-0.2382926528	 1.4547154454	-0.0822739102	-0.405749
C	-0.0067158982	-0.0384599404	-0.0203471706	-0.111648
C	 1.3683666405	-0.6204177945	-0.2232116363	-0.000909
O	 2.4108112307	 0.2894205562	-0.4390567538	-0.418802
C	 0.7311713918	-0.6853589407	 1.1343980817	 0.263546
C	 1.1827247999	-0.0059189747	 2.4326634796	-0.304359
C	 0.3659671007	-1.0735603223	 3.2214719854	-0.255209
C	 0.235207	-1.9135072704	 1.9168195189	 0.077578
O	-1.0049925824	-2.4855626411	 1.5834962974	-0.427584
H	 0.6516150797	 2.0027927897	 0.2328427858	 0.134958
H	-0.4712425751	 1.7667555331	-1.1057535075	 0.120966
H	-1.0761058436	 1.7560406893	 0.5565814029	 0.106145
H	-0.8103984765	-0.6479601548	-0.4298667761	 0.087573
H	 1.4459783511	-1.5475672652	-0.7937290641	 0.083901
H	 3.1755802901	-0.0103683811	 0.0632961943	 0.287645
H	 2.2618076183	-0.0825562647	 2.6037768996	 0.091603
H	 0.8906737613	 1.036478384	 2.5777665891	 0.107677
H	 0.8444883039	-1.5499510528	 4.0799992634	 0.101437
H	-0.6100089682	-0.68975464	 3.5355230635	 0.097125
H	 0.9519112299	-2.7415918516	 1.8854118467	 0.086054
H	-1.6609159614	-1.7794792535	 1.5839308105	 0.278053
