15
gdb 48567	3.67718	1.57764	1.29257	2.4167	72.4	-0.2298	-0.0276	0.2022	945.217	0.112111	-420.589567	-420.582603	-420.581658	-420.620801	27.241	
O	-0.3175079745	 0.5785892135	-0.8369973293	-0.295529
C	 0.1662122026	 1.0494903472	 0.1735639178	 0.03966
C	 1.2456611197	 2.0301833796	 0.1802559207	 0.182878
C	 1.7418526462	 2.7791195712	 1.3376824744	-0.155636
C	 2.5808675823	 3.7535780317	 0.9424558468	-0.105795
C	 2.8025568884	 3.5961270279	-0.5296610123	 0.012264
O	 3.621194844	 2.3270723917	-0.6675477413	-0.271147
C	 2.464342055	 1.6504571364	-0.9549538296	 0.10981
C	 1.5800229168	 2.8029537671	-1.0834858452	-0.195652
H	-0.1819995105	 0.7286902208	 1.1809141101	 0.069606
H	 1.5105081477	 2.5090586486	 2.3613830591	 0.113742
H	 3.1634805177	 4.4089805888	 1.57461498	 0.114075
H	 3.2617364946	 4.3938754887	-1.1082896881	 0.101188
H	 2.4821117189	 0.6350844635	-1.3257187555	 0.15445
H	 0.842931901	 3.0795664232	-1.8269901176	 0.126087
