19
gdb 78531	2.38842	1.60317	1.263	3.2228	75.39	-0.2271	0.0568	0.2839	1090.9814	0.156989	-422.955388	-422.946771	-422.945826	-422.987935	33.954	
C	-0.121796852	 1.4976417225	 0.0119376749	-0.500982
C	 0.1087074886	 0.0253233313	-0.0318479461	 0.432185
O	-0.8394192076	-0.8406253554	 0.6496303905	-0.318318
C	 0.5738476692	-0.9514886406	 0.9471246487	-0.108059
C	 1.3015009774	-1.7908115459	-0.1451172962	 0.219848
C	 2.6935387036	-2.3081129133	 0.0752834159	-0.493004
C	 0.3740675421	-2.2254657516	-1.2500185267	 0.105887
O	-0.8946744655	-2.7743234661	-1.1529723198	-0.430762
C	 0.7678749558	-0.7657975543	-1.19764196	-0.272026
H	 0.7996771638	 2.0371142845	-0.2299439693	 0.130756
H	-0.8846236809	 1.7924049622	-0.7176166527	 0.136472
H	-0.4576043165	 1.80140669	 1.0067528584	 0.136817
H	 0.8646472907	-0.8558407045	 1.9876335343	 0.107155
H	 2.6963180991	-3.1432028105	 0.786855915	 0.126819
H	 3.1292154758	-2.6697629616	-0.8613873543	 0.124745
H	 3.3593506479	-1.5320352968	 0.4725967258	 0.116616
H	 0.9246886196	-2.7443100456	-2.0339926618	 0.104136
H	-1.3409267415	-2.2689136822	-0.4594560913	 0.293515
H	 1.3156811003	-0.2719697819	-1.9925810255	 0.0882
