21
gdb 113582	4.33549	0.91338	0.83873	2.476	78.85	-0.2451	0.0801	0.3252	1452.4464	0.182272	-424.217362	-424.208289	-424.207345	-424.251792	33.622	
C	-0.0526794118	 1.4919438461	-0.3958865715	-0.375613
C	-0.0100701201	 0.1593396768	 0.3621442863	-0.214406
C	-1.3570083371	-0.5220094477	 0.3810524628	-0.013855
O	-1.7844135892	-1.1537342249	-0.8382342741	-0.293157
C	-1.5533053874	-1.9743082617	 0.311550307	 0.39328
C	-0.4567242862	-3.0390446227	 0.2298385209	-0.322898
C	-1.1087666797	-4.2433899078	 0.9336006516	-0.083854
O	-2.5105315234	-4.0699281295	 0.7671511682	-0.243246
C	-2.7589292003	-2.6833534179	 0.9287137843	-0.153703
H	 0.9307050942	 1.9707560974	-0.4073890077	 0.114264
H	-0.3679061039	 1.3329562256	-1.4313319313	 0.135735
H	-0.7595452021	 2.189058201	 0.0670822976	 0.11595
H	 0.7257282147	-0.5070779881	-0.0991545608	 0.105569
H	 0.3126694734	 0.3265250444	 1.3984098645	 0.099637
H	-2.1479139321	 0.0622788386	 0.8619060759	 0.081269
H	-0.2571617362	-3.2543769395	-0.8233162583	 0.128771
H	 0.4808651606	-2.7342874188	 0.7007583921	 0.108998
H	-0.8357922087	-5.2085243005	 0.5012499547	 0.114525
H	-0.8470178659	-4.2560720493	 2.0048429859	 0.088988
H	-2.8515488292	-2.4271525952	 1.9982992241	 0.088773
H	-3.6896330398	-2.4254445063	 0.4182320777	 0.12497
