15
gdb 127955	3.14652	1.3689	0.95955	2.3819	76.2	-0.2212	-0.0664	0.1548	1167.7428	0.113665	-446.298648	-446.289997	-446.289053	-446.332623	30.432	
C	-0.0361283734	 1.4250694422	-0.1522430981	-0.329054
N	 0.0972725442	-0.0163857178	-0.061858282	-0.356527
C	 0.6476518443	-0.5181749836	 0.9663661381	 0.468624
N	 0.7447719836	-1.9323694173	 0.9884293064	-0.236014
N	 1.2727413443	-2.6632474184	 1.9459456328	-0.026191
N	 1.7571491804	-2.0847247429	 2.9727326181	-0.277889
C	 1.6817236891	-0.6758798482	 2.991920565	 0.479562
N	 2.2195661035	-0.1607204329	 4.1123837413	-0.540363
N	 1.1729374605	 0.1016271771	 2.0804399425	-0.383702
H	 0.4704540768	 1.7800049037	-1.0581685019	 0.117949
H	-1.0959619718	 1.6848783126	-0.2642718421	 0.117925
H	 0.3685881208	 1.9651196558	 0.7109112303	 0.124402
H	 0.3763918078	-2.445276726	 0.1991383744	 0.28477
H	 2.596797065	-0.7813521159	 4.8061043425	 0.280296
H	 2.2201259949	 0.8340295416	 4.2525273528	 0.276212
