15
gdb 44489	3.90064	1.6297	1.5015	2.634	62.96	-0.2657	0.0001	0.2658	869.1563	0.115717	-457.778442	-457.772633	-457.771689	-457.80857	24.085	
O	-0.0115428532	 0.0200401022	 0.1984910284	-0.330323
C	 0.0034233113	 1.1940760418	-0.004718142	 0.437025
O	-1.1551993086	 1.938591897	-0.1599861197	-0.236466
C	-0.7661488397	 3.2473366375	-0.5390148822	 0.084515
C	 0.0321288281	 4.1298791975	 0.4883674215	 0.034876
C	 0.9312725233	 3.1014899348	 1.1891965814	-0.228621
C	 1.1531235255	 2.1866863834	-0.0714905024	-0.213346
C	 0.6483819849	 3.219355178	-1.1359435491	 0.060266
O	 0.8860445745	 4.5432427404	-0.6198209558	-0.291858
H	-1.5578541857	 3.7462998671	-1.0909225771	 0.116527
H	-0.3994145501	 4.9540252347	 1.0529118028	 0.095267
H	 1.8592785293	 3.5696428582	 1.5204953131	 0.128655
H	 0.4647908584	 2.5783676495	 2.0265562559	 0.130796
H	 2.1318437878	 1.7315263181	-0.1863398192	 0.105956
H	 0.8930149842	 3.0762450398	-2.1865829554	 0.106732
