18
gdb 9843	3.54959	1.47881	1.18551	2.5247	63.44	-0.2555	0.0767	0.3322	1033.2695	0.152347	-422.052521	-422.043942	-422.042998	-422.085372	32.169	
C	 0.1250667314	 1.5414066757	-0.1763309317	-0.474256
C	-0.027753075	 0.0413986858	-0.0783625263	 0.379107
C	 1.0723325883	-0.8369076834	-0.4973278779	-0.227045
O	 0.8131555963	-0.6036470611	 0.9001382939	-0.288985
C	-1.4494106892	-0.522151769	-0.0846857652	 0.028438
O	-1.4349478703	-1.9120216525	 0.2213913854	-0.445552
C	-2.3893509299	 0.1838637106	 0.9055825691	-0.070121
O	-3.6344254886	-0.4753938175	 0.9488631145	-0.425026
H	 1.1817076067	 1.8159611166	-0.2145142403	 0.130924
H	-0.3646757894	 1.9194969414	-1.0801611614	 0.130006
H	-0.3235969465	 2.0427664627	 0.6861491166	 0.140191
H	 0.8557663439	-1.8447423156	-0.8414276903	 0.130388
H	 1.9942644783	-0.3943477561	-0.8698067435	 0.118446
H	-1.8733213636	-0.4353272859	-1.0927137439	 0.100192
H	-0.7779365319	-2.0075117072	 0.9282444557	 0.293591
H	-1.9069979516	 0.2122788941	 1.8989582242	 0.086903
H	-2.5791569606	 1.2171565287	 0.5978488662	 0.105806
H	-3.4196955984	-1.4178098073	 0.9546973348	 0.286992
