13
gdb 3275	5.95197	2.60187	2.12262	3.5174	54.85	-0.2383	0.017	0.2553	616.8234	0.10361	-340.591587	-340.585985	-340.585041	-340.620934	21.251	
N	-0.1147230952	 1.2102702394	-0.5164631029	-0.546969
C	-0.0603786072	 0.0425322451	-0.0723990154	 0.481735
O	 1.0017146554	-0.6696060171	 0.4788153707	-0.274199
C	 0.2067763128	-1.8883855106	 0.573255887	 0.098962
C	-0.5237942765	-2.0503371087	 1.9181824964	-0.188238
N	-1.6128613731	-1.1444469667	 1.445348259	-0.315418
C	-1.0353710716	-1.1132133809	 0.0709348868	-0.150888
H	 0.7806595695	 1.6924598648	-0.4182198763	 0.230322
H	 0.7056771592	-2.7312686287	 0.0983898342	 0.101349
H	-0.8422688646	-3.0857470793	 2.0890652476	 0.107083
H	 0.0123615016	-1.6869685965	 2.7999395491	 0.12392
H	-2.5313875813	-1.5687360131	 1.4750813604	 0.230586
H	-1.6827573891	-1.3706342877	-0.7659042266	 0.101754
