20
gdb 77862	2.03525	1.52293	1.47159	4.1674	82.58	-0.2809	0.0303	0.3112	1082.7817	0.171193	-366.004111	-365.995239	-365.994294	-366.037197	33.855	
C	-0.2439768129	 1.5741279444	-0.0411495023	-0.426607
C	 0.0467810695	 0.0776173851	-0.0371252411	-0.005639
C	 0.6181148918	-0.6083403155	-1.2888354623	-0.09064
C	 2.0498625274	-0.2288910502	-1.6085471621	-0.162368
C	 2.6384681656	 1.0808474152	-1.4948450329	 0.304699
N	 3.1396855644	 2.1234599614	-1.4517458657	-0.362823
C	 1.7692337448	-1.1961210109	-0.4763817318	-0.090659
C	 1.2413091392	-0.5323066251	 0.8059461175	-0.005634
C	 2.1533003854	 0.3500744105	 1.6507947806	-0.426614
H	 0.6284636898	 2.1748163402	-0.3030706957	 0.152012
H	-1.0369657796	 1.8047896375	-0.7610840252	 0.116082
H	-0.5911946692	 1.8985072799	 0.9457949333	 0.115471
H	-0.8689646894	-0.4514488244	 0.2456803957	 0.083391
H	 0.023674188	-1.0798912078	-2.0631070189	 0.098411
H	 2.414297922	-0.7416867308	-2.4959091478	 0.13556
H	 2.1983592768	-2.190292157	-0.5282571588	 0.098402
H	 0.8327160519	-1.3203277343	 1.4466933378	 0.083391
H	 2.5927698139	 1.1718189685	 1.0831821806	 0.152002
H	 1.5971277828	 0.7812343279	 2.4902082428	 0.11548
H	 2.9736514876	-0.2431176547	 2.0697074662	 0.116082
