19
gdb 53965	3.0385	1.05308	0.9844	2.1215	77.8	-0.2457	-0.0182	0.2274	1291.0418	0.153918	-423.018396	-423.00772	-423.006776	-423.054499	38.835	
C	-0.0038403439	 1.4661250665	-0.3467988589	-0.476329
C	 0.0310062619	 0.0235278367	 0.0997605297	 0.37753
O	 1.0463560665	-0.5306916335	 0.4557900647	-0.323338
C	-1.2987940807	-0.7574728636	 0.1131356686	 0.237157
C	-1.7014459846	-0.9961924868	 1.5778867212	-0.420882
O	-2.2708596369	 0.0252741382	-0.561381243	-0.470334
C	-1.0688596958	-2.1008152216	-0.6392670925	-0.368077
C	-2.3068732975	-2.8562869599	-0.7733288145	 0.268261
C	-3.3658268975	-3.4183210458	-0.8779065031	-0.430093
H	 0.9912162831	 1.9007425942	-0.2483231272	 0.133917
H	-0.3491625495	 1.5245463335	-1.3835696442	 0.154169
H	-0.7327387966	 2.0303389805	 0.2431816741	 0.148762
H	-1.9145135664	-0.0417838268	 2.0673736256	 0.124666
H	-2.6017467655	-1.6165072229	 1.6219988316	 0.126855
H	-0.8978542616	-1.5006726969	 2.1202311177	 0.138467
H	-3.0619079355	-0.5201299938	-0.6544997695	 0.286202
H	-0.6695636331	-1.8787788425	-1.6359183213	 0.137263
H	-0.3038067195	-2.6763158477	-0.1104093834	 0.154387
H	-4.2792788669	-3.9513140778	-0.9764522154	 0.201416
