19
gdb 74976	2.65245	1.62843	1.61398	2.0706	75.65	-0.2332	0.0146	0.2478	978.9209	0.161535	-423.036303	-423.028855	-423.027911	-423.067895	29.697	
C	-0.0205986807	 1.4958775875	 0.0530894138	-0.508817
C	-0.0021242429	 0.0046948898	-0.0405868928	 0.362646
C	-0.0220583185	-0.7545169995	-1.1389040354	-0.209621
C	 0.0077815015	-2.2293857041	-0.820224685	-0.12737
C	 1.2679066826	-2.4867659914	 0.0347436706	-0.056593
O	 1.220609661	-1.6559755524	 1.1995409141	-0.264768
C	 0.0451281633	-0.8581243721	 1.209874852	 0.091143
O	-1.1058734346	-1.6891096676	 1.2647087298	-0.264756
C	-1.1948183935	-2.5216460973	 0.1035981314	-0.056598
H	 0.8693734072	 1.8714533634	 0.5737114311	 0.133669
H	-0.0553962148	 1.9575807286	-0.9376492635	 0.124717
H	-0.8897129035	 1.8465254547	 0.6239035364	 0.133653
H	-0.055857063	-0.3750355279	-2.1547381318	 0.088707
H	-0.007708359	-2.8742098664	-1.70107224	 0.074445
H	 1.3032041652	-3.5352251351	 0.3597127322	 0.100183
H	 2.1821232821	-2.2634442386	-0.5291541496	 0.098371
H	 0.0631937393	-0.2927208673	 2.1422799742	 0.082434
H	-2.1450475274	-2.3245363417	-0.4081301795	 0.098366
H	-1.1823634042	-3.5704590925	 0.4290940619	 0.100188
