21
gdb 120093	3.45786	1.09957	0.98467	1.1032	82.6	-0.204	0.0762	0.2802	1308.1159	0.1819	-387.003407	-386.99477	-386.993826	-387.037177	33.31	
C	 0.0033954771	 1.4841051633	 0.0422165751	-0.390382
C	-0.1591017012	 0.0329918384	-0.3752265735	-0.03743
O	 1.0904350237	-0.4403804586	-0.8580467508	-0.248987
C	 1.0547999788	-1.7897778193	-1.2062272116	 0.130202
C	 0.5412251325	-2.4059459707	-2.4809223213	-0.129967
C	 0.9488753004	-1.7182818661	-3.8110254408	-0.057842
C	 1.7645371249	-0.456916733	-3.6670975797	-0.303524
C	 2.4121127922	-1.7945747029	-3.4257573246	-0.04996
C	 2.0401424787	-2.4803732683	-2.0835875689	-0.137681
H	 0.7700437424	 1.5775865106	 0.8165771155	 0.127498
H	 0.3011588905	 2.1016876179	-0.8101110425	 0.127903
H	-0.9397642373	 1.873500967	 0.4374309222	 0.114651
H	-0.4830053285	-0.5815144675	 0.4814046142	 0.087312
H	-0.9277206369	-0.0693436571	-1.1562766779	 0.097362
H	 0.7870742049	-2.4215088043	-0.3517058213	 0.085807
H	-0.1924398058	-3.2034682771	-2.461138664	 0.083367
H	 0.4927993525	-2.0017036056	-4.7506416446	 0.085705
H	 2.0366843282	-0.014206855	-4.6219796362	 0.102346
H	 1.6056470751	 0.2465210661	-2.8640612226	 0.140084
H	 3.240426236	-2.1536378102	-4.0223289717	 0.086073
H	 2.5951165518	-3.3389437676	-1.7240659947	 0.087465
