14
gdb 7418	2.92194	1.77556	1.34914	5.8214	54.98	-0.2545	-0.0069	0.2476	908.099	0.10675	-453.055468	-453.04719	-453.046246	-453.088434	30.242	
N	-0.0820046969	 1.3941245522	-0.3652580456	-0.529542
C	 0.0823101257	 0.0945723468	 0.0895966413	 0.34353
O	 1.0988885975	-0.2996389372	 0.6047541732	-0.321399
C	-1.2022299763	-0.7552603598	-0.0053162146	-0.035957
O	-0.9124966677	-2.0879107874	-0.2504394878	-0.414849
C	-1.9833061823	-0.6455913194	 1.3309395727	 0.381793
N	-2.304409225	 0.602871629	 1.7446096708	-0.515935
O	-2.2953754897	-1.6677371645	 1.9130961107	-0.367697
H	 0.7684063379	 1.939685391	-0.4001282475	 0.265496
H	-0.7269164139	 1.5589312718	-1.1238223778	 0.261915
H	-1.8508574311	-0.3442380988	-0.7980403782	 0.091005
H	-1.2799962412	-2.5669998322	 0.5138686312	 0.300853
H	-1.8397278238	 1.4008947403	 1.3393607727	 0.269984
H	-2.7212598731	 0.700861998	 2.656940599	 0.270804
