23
gdb 118879	2.77668	1.15734	0.99757	1.0065	86.06	-0.2389	0.0894	0.3282	1339.3026	0.204382	-388.262666	-388.253093	-388.252149	-388.297018	36.765	
C	-0.2101117844	 1.5275511335	 0.1344306782	-0.381243
C	-0.0406948147	 0.0214592563	 0.0093427047	-0.049475
O	-1.3246256226	-0.5514179649	-0.158404144	-0.297553
C	-1.4059430635	-1.9612521859	-0.0420185287	 0.432466
C	-0.594954509	-2.6822327404	-1.1166703996	-0.456632
C	-1.1909504505	-2.5588911481	 1.4036849609	-0.300649
C	-2.6414279409	-3.0495383803	 1.3800023564	-0.038744
C	-3.5697681997	-1.8828125057	 1.2039191883	-0.285752
C	-2.8629234212	-2.4292736141	-0.0023037077	-0.082592
H	 0.7633346802	 2.0148703686	 0.2464318453	 0.11062
H	-0.7001054043	 1.9312158979	-0.7562918176	 0.126119
H	-0.8266555326	 1.7746029466	 1.0034459921	 0.122253
H	 0.6106388489	-0.2139127486	-0.8463724839	 0.088214
H	 0.4486203196	-0.3840958326	 0.9092157374	 0.0868
H	 0.4806742166	-2.5263496531	-0.9892909595	 0.114866
H	-0.7832143998	-3.7589118799	-1.0742669083	 0.118803
H	-0.8824636926	-2.3207928015	-2.1097165281	 0.119649
H	-0.4460900202	-3.3580657739	 1.4200504695	 0.097747
H	-0.9529573499	-1.8348685665	 2.1894489357	 0.094161
H	-2.9838692315	-4.0088989284	 1.7472463879	 0.082097
H	-4.628975182	-2.1138075826	 1.2555550153	 0.106944
H	-3.3010951364	-0.9027456698	 1.5873112265	 0.114528
H	-3.3985557593	-2.8243316866	-0.8578322806	 0.077369
