16
gdb 124302	4.69425	0.93066	0.81602	5.2414	70.68	-0.2502	-0.0238	0.2265	1367.1206	0.123098	-437.899732	-437.891253	-437.890309	-437.934339	29.878	
C	 0.3015392755	 1.424879041	 0.1320938871	-0.476778
C	-0.1492540322	-0.0227751823	 0.118658676	 0.390657
O	-0.7570111729	-0.5188896518	 1.0364198805	-0.281363
C	 0.1871985039	-0.8086073504	-1.1555390098	-0.466039
C	 0.1201648865	-2.2945575125	-1.0130669427	 0.173768
C	 1.0256492594	-3.2214602803	-1.4238271654	-0.013544
O	 0.6104604359	-4.4619038057	-1.1351242154	-0.164588
N	-0.6268268361	-4.3825368522	-0.4991652441	-0.136331
C	-0.9020387989	-3.1052894368	-0.4322915802	-0.025982
H	 1.3948273161	 1.4678940759	 0.2051734163	 0.147484
H	 0.0253428443	 1.9307873216	-0.799393919	 0.138549
H	-0.1363532063	 1.9436414259	 0.9853424074	 0.148975
H	-0.5273383551	-0.4527298708	-1.9146380921	 0.146771
H	 1.1711456851	-0.4987826648	-1.5246129376	 0.124865
H	 1.9808530445	-3.1479731002	-1.9214336768	 0.146413
H	-1.8161932599	-2.7835205865	 0.0421883658	 0.147144
