18
gdb 79119	5.1792	1.21139	1.11887	3.2006	77.75	-0.2535	0.0224	0.2759	1115.231	0.149716	-401.921171	-401.914118	-401.913174	-401.952422	28.546	
C	-0.1446746148	 1.575734621	 0.014614554	-0.434695
C	 0.0201000795	 0.0627834521	 0.0250640813	 0.00639
C	 1.2256129713	-0.6091873565	-0.6860795246	-0.082684
C	 2.1481394304	-0.2174480995	 0.5028956348	 0.104801
O	 3.1320522083	-1.2418089706	 0.7078879565	-0.266482
C	 2.3969810136	-2.3940034813	 0.5205873392	 0.422115
N	 2.8151781839	-3.5802248157	 0.5943388327	-0.561457
C	 1.0232218329	-1.8830495176	 0.2180026774	-0.134335
C	 0.8059685641	-0.642130201	 1.1635027822	-0.082689
H	 0.7859406506	 2.1064374669	 0.2353984441	 0.118305
H	-0.4967207762	 1.9179787309	-0.9644920143	 0.123455
H	-0.8875728272	 1.887298969	 0.7567366748	 0.123455
H	-0.9332768357	-0.4268179588	-0.1999647907	 0.077068
H	 1.481269016	-0.6067955464	-1.7465931944	 0.085227
H	 2.600055597	 0.7626676174	 0.6228832253	 0.09808
H	 3.8117717439	-3.5955764078	 0.8201758195	 0.223561
H	 0.225366814	-2.5947045152	 0.0243060881	 0.094657
H	 0.5790494182	-0.6776265268	 2.2299465141	 0.085228
