16
gdb 124909	3.79059	1.55393	1.272	5.3147	75.	-0.2452	-0.0094	0.2357	986.1806	0.125732	-396.862855	-396.855803	-396.854858	-396.894234	27.34	
C	-0.0401060944	 1.5542096509	 0.0556228484	-0.487243
C	 0.007051481	 0.0611751988	 0.0700368826	 0.361597
C	-0.831661087	-0.8784535667	 0.8979012598	-0.302327
C	 0.6907475064	-0.9529575777	 0.9968350147	-0.270899
C	 1.182011972	-1.646974681	-0.2595529667	 0.253045
C	 1.4703181651	-2.6854533769	-1.1119284455	-0.180318
N	 1.0406843323	-2.3056577796	-2.364213783	-0.180645
N	 0.4421786034	-1.1404988386	-2.3249828576	-0.177624
N	 0.5995213824	-0.7198912743	-1.0535840617	 0.038635
H	 0.9278389379	 1.9757664505	-0.2300102649	 0.143131
H	-0.793984024	 1.9132482799	-0.65284591	 0.148872
H	-0.3065923929	 1.9306155499	 1.04726071	 0.133839
H	-1.3377105995	-0.4195298549	 1.7439370966	 0.129179
H	-1.3770613212	-1.6885891728	 0.4249236615	 0.144497
H	 1.2421853716	-0.7593392015	 1.9052394811	 0.121653
H	 1.9624374569	-3.6308496961	-0.9589231855	 0.124609
