19
gdb 108803	3.41273	1.0081	0.83027	2.9708	78.63	-0.2483	-0.0262	0.2221	1405.542	0.15789	-423.059802	-423.050576	-423.049632	-423.094266	33.959	
C	 0.0617762659	 1.5181456676	 0.2077763447	-0.377597
C	-0.0319952721	 0.0068645752	-0.0683467345	-0.285683
C	-1.436987391	-0.5157973005	-0.0681293988	 0.321565
C	-2.0933586255	-1.0490843995	-1.106414993	-0.209719
C	-3.5143455167	-1.4173740132	-0.7757095599	 0.026037
O	-3.9267465095	-2.6827697579	-1.2376365913	-0.442422
C	-3.4856752035	-1.3514508076	 0.7609610838	 0.35849
O	-4.2240788218	-1.9928316453	 1.4633024914	-0.315773
C	-2.2998938431	-0.487409134	 1.1814090632	-0.419741
H	 1.1046609836	 1.8480222701	 0.1961634108	 0.120546
H	-0.4835205978	 2.0888588475	-0.550406568	 0.123394
H	-0.3563545614	 1.7745437829	 1.1863859383	 0.121127
H	 0.4350962665	-0.22079165	-1.0328142784	 0.108699
H	 0.5490691437	-0.5276771405	 0.6965447072	 0.10915
H	-1.6825128143	-1.1797873348	-2.1010433874	 0.105343
H	-4.20931651	-0.6358384985	-1.1409377729	 0.091714
H	-4.4827931015	-3.0497705444	-0.5356514049	 0.292362
H	-1.8130997214	-0.8874045764	 2.0783220511	 0.13405
H	-2.6471344301	 0.5235550495	 1.4372267385	 0.138458
