21
gdb 108270	2.31572	1.63261	1.16767	1.0525	84.85	-0.2213	0.0215	0.2429	1131.5032	0.183556	-387.069876	-387.061384	-387.06044	-387.102713	33.364	
O	-0.1153982341	 1.5329345798	-0.1828433159	-0.426958
C	 0.0180469935	 0.1339602416	 0.0415649745	-0.144238
C	-1.3818523716	-0.4680584807	 0.0585093959	 0.328887
C	-2.0026201507	-0.5382517857	-1.3871352546	-0.280161
C	-1.5543768848	-2.0472312744	-1.4769281089	-0.328684
C	-1.4359614663	-1.9769323319	 0.0292163581	 0.25562
C	-1.8609970359	-2.5154510621	 1.1670425198	-0.231335
C	-2.0472185496	-1.4121308429	 2.2086264693	-0.246024
C	-2.1704732144	-0.1163269333	 1.3394126213	-0.298565
H	 0.7637191448	 1.9226464654	-0.1829345831	 0.285848
H	 0.6258348266	-0.3349835731	-0.7486540301	 0.079918
H	 0.5175610298	-0.0681339157	 1.0024946657	 0.085889
H	-3.0905506045	-0.4436491728	-1.3696656488	 0.104065
H	-1.5859193567	 0.1491372115	-2.1264504705	 0.107677
H	-2.2580128118	-2.7721189018	-1.8928136006	 0.108593
H	-0.5974914151	-2.1523911321	-1.9984103172	 0.109919
H	-2.1429794539	-3.5479482833	 1.3405395703	 0.089158
H	-2.9401665625	-1.5801391324	 2.8207417058	 0.099633
H	-1.204325726	-1.353750912	 2.911795821	 0.101141
H	-1.798848191	 0.7812233854	 1.841109819	 0.102812
H	-3.225019086	 0.0540156507	 1.0978949989	 0.096805
