15
gdb 75082	2.32408	1.82706	1.03377	4.6213	70.99	-0.2418	-0.0266	0.2152	1080.8071	0.114237	-450.174114	-450.166084	-450.16514	-450.206895	29.627	
N	 0.1041430856	 1.3429468664	 0.1029257271	-0.583579
C	 0.0197132621	-0.0296653271	 0.0018008865	 0.450077
N	-1.0724025941	-0.6939520693	-0.0002775452	-0.329419
C	-0.7011375943	-2.1012046057	-0.0256436288	-0.291679
C	 0.8269489329	-2.1612933906	-0.0864445861	 0.400055
O	 1.5555997761	-3.1090410798	-0.1212830443	-0.314663
N	 1.2104694409	-0.7852074235	-0.0536235914	-0.167816
C	 2.4985136082	-0.2608604506	 0.0920008499	 0.060489
N	 3.5404303661	-0.9188115011	-0.1981351104	-0.403925
H	 0.7681556658	 1.7871327613	-0.5169058226	 0.261376
H	-0.8140744953	 1.7637141099	 0.0414853347	 0.270952
H	-1.0505913492	-2.6357236777	 0.8660730755	 0.148248
H	-1.1337140638	-2.6144209278	-0.8920683886	 0.148024
H	 2.4747069828	 0.7558264221	 0.4990374763	 0.116121
H	 4.3681342961	-0.3650487366	 0.0197186074	 0.235738
