14
gdb 125338	5.52843	1.31374	1.06858	7.6512	69.93	-0.2366	-0.0105	0.2262	1054.1725	0.103305	-429.042577	-429.035579	-429.034635	-429.073931	26.321	
C	-0.0166427128	 1.4859089112	 0.0564818437	-0.501054
C	-0.00144076	 0.0002538817	-0.0471693659	 0.329008
C	-0.048485487	-0.803898781	-1.1476658436	-0.215709
N	-0.0039081208	-2.1097960502	-0.6696068156	 0.047756
N	-0.0082265616	-3.4017928319	-1.0941451777	-0.175804
N	 0.0606732136	-4.1082041346	-0.0018714093	-0.103926
N	 0.1104677328	-3.3549419582	 1.1329093369	-0.362645
C	 0.0683089286	-2.1159121092	 0.678636854	 0.540329
N	 0.0710929531	-0.8152962689	 1.0880105396	-0.456313
H	 0.893702343	 1.8656556434	 0.5343632589	 0.147061
H	-0.0839037308	 1.9287757496	-0.9389595174	 0.15363
H	-0.8727591402	 1.8398591514	 0.6421592067	 0.146817
H	-0.1081278904	-0.5614369502	-2.1931812082	 0.164739
H	 0.1180076623	-0.5024939931	 2.0414247377	 0.286111
