15
gdb 12599	3.12575	2.12326	1.32637	1.272	62.53	-0.2596	-0.0415	0.2182	886.1922	0.118476	-399.838822	-399.831235	-399.830291	-399.871263	27.269	
C	-0.2213877006	 1.5489314148	-0.0254618064	-0.390114
C	 0.0717517819	 0.0485362325	 0.009370861	-0.221993
C	 0.8402095662	-0.4925911584	-1.1753628736	 0.415659
N	 0.6326686316	-0.1898189538	-2.3800734684	-0.526824
O	 1.8070026636	-1.3782949162	-0.7594153978	-0.242886
C	 1.9125276335	-1.4265259065	 0.6623866357	-0.197802
C	 0.9013912852	-0.4134622034	 1.2000044504	 0.37855
O	 0.8053312542	-0.0596277003	 2.3435390615	-0.298238
H	 0.7057974348	 2.1245642993	-0.092459196	 0.128898
H	-0.8328436197	 1.7880306172	-0.8971380372	 0.148682
H	-0.7465852391	 1.8457951014	 0.8852863003	 0.137425
H	-0.8787257126	-0.5033945032	 0.0680475051	 0.144982
H	 1.282488227	-0.6814898219	-2.9962324239	 0.227288
H	 1.6835155858	-2.4361446844	 1.0239746137	 0.146735
H	 2.9302578882	-1.168391797	 0.9735132455	 0.14964
