21
gdb 112830	2.92456	1.1635	0.94409	0.9526	77.91	-0.2554	0.0776	0.3329	1304.6064	0.18272	-424.220723	-424.211732	-424.210788	-424.254471	34.131	
C	 0.033656963	 1.5784605367	 0.0152619154	-0.402996
C	 0.0317491441	 0.048545784	 0.019197753	-0.005034
C	 0.7426878778	-0.5858040299	-1.2047310672	-0.228973
C	 1.2924122224	-1.955764285	-0.7323378947	-0.003715
C	 2.5456444071	-2.407248408	-1.4694647577	-0.092569
O	 2.2135620975	-2.5575666979	-2.8430956373	-0.423995
C	 1.5025342005	-1.7548195763	 0.7587520494	 0.0145
O	 2.1909791858	-0.5336845825	 1.0812679191	-0.268014
C	 0.7589359604	-0.5726323821	 1.2002996967	 0.043234
H	 1.0606094191	 1.9566928262	 0.0449937212	 0.129021
H	-0.4468717479	 1.9709590094	-0.8867240483	 0.114266
H	-0.5015094048	 1.9828983936	 0.8811651032	 0.109472
H	-1.007225544	-0.3089055016	 0.0634935721	 0.072599
H	 0.082648234	-0.6813003103	-2.0684643618	 0.107979
H	 1.5791880608	 0.0516745594	-1.5067024552	 0.109288
H	 0.5251867613	-2.7320795822	-0.8599291302	 0.080668
H	 3.3365348846	-1.6550917072	-1.3254833105	 0.100212
H	 2.9088863191	-3.3572600344	-1.0435410744	 0.080882
H	 3.0175961386	-2.769484738	-3.3258283592	 0.286826
H	 1.7217696916	-2.5961025373	 1.4129190226	 0.088579
H	 0.3778060591	-0.4605982364	 2.213361344	 0.08777
