21
gdb 63250	2.54854	1.41091	1.15834	1.5685	85.56	-0.2391	0.0143	0.2534	1169.9788	0.182469	-387.095253	-387.086273	-387.085329	-387.128442	35.452	
C	-0.4801812707	 1.5459950601	 0.0603189989	-0.416506
C	-0.0351884623	 0.0675822557	-0.0164875238	 0.271804
O	-1.1968147044	-0.7674526181	 0.1442072669	-0.476856
C	 0.5920754304	-0.2219994021	-1.3694934643	-0.07529
C	 1.8368324835	 0.0355761209	-1.7612385025	-0.080074
C	 2.9191107794	 0.6318739279	-0.8959571549	-0.265871
C	 3.2471354665	-0.2163297926	 0.3416618417	-0.241169
C	 2.1313016004	-0.3987648812	 1.3364206655	-0.075582
C	 0.8131098987	-0.2794188339	 1.1891455977	-0.033603
H	 0.3729855481	 2.2234047669	-0.0263101705	 0.12518
H	-1.1770070136	 1.7756670576	-0.7553000845	 0.102084
H	-0.9849130361	 1.7342322062	 1.0127164244	 0.121569
H	-1.8549090801	-0.4723427533	-0.4944534873	 0.273435
H	-0.1020354972	-0.6641145231	-2.0818114837	 0.077824
H	 2.1097601539	-0.2113286756	-2.7846467301	 0.087552
H	 3.8315965248	 0.7591302024	-1.4870162674	 0.097176
H	 2.6292381592	 1.6379590411	-0.5642533541	 0.112204
H	 3.6017977586	-1.2068131085	 0.0197503233	 0.11484
H	 4.0981780856	 0.2394932515	 0.8647686169	 0.100226
H	 2.4754872232	-0.6800139166	 2.3310169142	 0.085307
H	 0.1877270221	-0.4558015453	 2.0615333035	 0.09575
