17
gdb 10814	4.87811	1.49444	1.19084	4.2592	71.28	-0.2386	-0.0317	0.2069	999.3232	0.144147	-363.915627	-363.908196	-363.907252	-363.947203	28.297	
C	 0.0387694018	 1.5910534306	-0.0059069958	-0.404004
C	-0.0085029622	 0.0579909926	 0.0071246729	-0.026279
C	 0.6319823187	-0.5286247834	-1.2576562652	-0.167729
N	 0.7753532705	-1.9735910643	-1.1413726863	-0.340923
C	 1.3015197827	-2.5648918328	-0.0155618461	 0.392883
O	 1.7094844511	-3.7137023757	-0.0078509384	-0.380494
C	 1.2785582617	-1.7105725607	 1.2006244033	-0.16568
C	 0.6630340981	-0.5264344888	 1.2260578971	-0.053343
H	 1.0722918262	 1.9534304609	-0.0211576676	 0.125322
H	-0.4733233126	 1.9927552533	-0.8860629446	 0.119508
H	-0.4485017176	 2.0043222207	 0.8824609207	 0.121884
H	-1.0650828447	-0.2520920978	 0.0318554727	 0.103586
H	 0.011603112	-0.3084796166	-2.1316707278	 0.111912
H	 1.6083298633	-0.0414849097	-1.4185485677	 0.103217
H	 0.9172786991	-2.5097116655	-1.9852497523	 0.244425
H	 1.7443285392	-2.1493519017	 2.0754002555	 0.113664
H	 0.6061390627	 0.0444788789	 2.1507926497	 0.102052
