19
gdb 66575	3.25707	1.84122	1.53209	1.1481	85.63	-0.1912	-0.0298	0.1614	933.7785	0.159792	-348.637208	-348.630265	-348.62932	-348.6679	29.487	
C	 0.0365595806	 1.4590943599	-0.0953099643	-0.515522
C	 0.1189862071	-0.0352206751	-0.0960168764	 0.30875
C	-0.9506297728	-0.9277335913	 0.7011908053	-0.115905
C	 0.5407946447	-0.9924239141	 0.9755222205	-0.150669
C	 0.5361566585	-2.1173854987	-0.1006481422	-0.09119
C	-0.9832980326	-2.3518741628	 0.0350560562	-0.022314
C	-1.4266614968	-2.5476345182	-1.4588761477	-0.262465
C	-0.6253219501	-1.4113455662	-2.1035935597	-0.128534
C	 0.3174023766	-1.0525854636	-1.2100127685	 0.009104
H	 1.0071979457	 1.90836106	-0.3316746439	 0.126345
H	-0.6889349419	 1.8192115051	-0.8334006518	 0.124247
H	-0.2720165383	 1.8305865992	 0.8877466519	 0.120933
H	-1.7216280452	-0.4374035673	 1.2853054501	 0.081207
H	 1.1049553084	-0.8574270314	 1.8880490622	 0.086277
H	 1.2710955261	-2.9122352868	-0.2126052548	 0.070873
H	-1.3310449161	-3.1182595047	 0.736276412	 0.060123
H	-1.1984073316	-3.5780612379	-1.7680912262	 0.105604
H	-2.4936452765	-2.3904922851	-1.6586911337	 0.103936
H	-1.1113916657	-0.7095052009	-2.7748574889	 0.0892
