17
gdb 68099	2.52211	1.69007	1.32567	1.0147	67.64	-0.2343	-0.0155	0.2188	992.6299	0.135354	-458.964008	-458.955744	-458.954799	-458.996361	31.994	
O	 0.2189278605	 1.3705946623	-0.0520728544	-0.480494
C	 0.1380312524	-0.0058986811	-0.0373586766	 0.310287
C	-1.2119244356	-0.8335993408	-0.0296381898	-0.35975
C	-0.2825280634	-2.0015658518	 0.4993481083	 0.310226
O	-0.7292043265	-3.1280075356	 1.1574297475	-0.48048
C	 0.6286949808	-2.2354373903	-0.7193587513	-0.260204
C	 0.941390895	-0.7516727054	-1.118356528	-0.260212
C	 0.4150280511	-0.8415078413	 1.2161663896	 0.283944
O	 0.6880172721	-0.5915869987	 2.358990203	-0.350186
H	 0.1397736488	 1.683148385	 0.8576660518	 0.29522
H	-1.9332094456	-0.482499874	 0.7107118558	 0.112272
H	-1.6762383122	-0.9977949924	-1.0037620794	 0.116221
H	-0.8271539199	-2.9075882656	 2.0919867621	 0.295235
H	 1.5214191912	-2.8045033011	-0.4490954953	 0.117511
H	 0.0990026647	-2.7819414581	-1.5037283884	 0.116449
H	 0.580574849	-0.4972857877	-2.1181441486	 0.116443
H	 2.0053189277	-0.5083575737	-1.0664759361	 0.117517
