19
gdb 74552	3.70214	1.23284	1.19233	1.408	76.41	-0.2125	0.0535	0.266	1131.6803	0.159614	-419.220574	-419.211884	-419.21094	-419.253302	33.695	
C	-0.0804469142	 1.5626054658	 0.049588823	-0.460912
C	 0.0357619105	 0.053684581	 0.0459888613	 0.258709
C	-1.1665083645	-0.6711989093	-0.5330227047	-0.449202
C	 1.3500114766	-0.6378303482	-0.2295283111	 0.009179
O	 2.5443750429	 0.1200303091	-0.0722308331	-0.244099
C	 2.5901228357	 0.4419004846	 1.2553122949	 0.442355
N	 3.6263483556	 1.2700020534	 1.5935816268	-0.580079
N	 1.6639771223	 0.0079795935	 2.0240409259	-0.344041
C	 0.7493634224	-0.7037626564	 1.1677075345	-0.074857
H	 0.7666454624	 2.0501082314	 0.5341472032	 0.140856
H	-0.1496901784	 1.946509754	-0.9746717252	 0.113364
H	-0.9865993584	 1.8694472642	 0.5837530457	 0.116708
H	-1.3512530253	-0.3627595519	-1.5686958204	 0.116774
H	-1.026101034	-1.7572816132	-0.5298164686	 0.113489
H	-2.0682576989	-0.4523634266	 0.0499844503	 0.121286
H	 1.4592137214	-1.4375636374	-0.9524719843	 0.100457
H	 4.4536232147	 1.1711071885	 1.0242813737	 0.262646
H	 3.8017545308	 1.3085465303	 2.586025195	 0.268793
H	 0.2770215583	-1.5833109929	 1.592137673	 0.088573
