14
gdb 4368	3.86365	1.84999	1.25242	4.3372	68.52	-0.2068	-0.0093	0.1975	902.5925	0.109579	-378.778292	-378.771515	-378.770571	-378.80882	26.68	
N	 0.0076153107	 1.3977986114	-0.1609783843	-0.592208
C	 0.0202925843	 0.0085954719	-0.0654204617	 0.301136
C	-1.1746612526	-0.722386944	 0.0225445215	-0.069025
N	-1.2204773088	-2.0508691442	 0.0571927895	-0.251604
C	-0.0817141915	-2.7367205891	 0.0081742582	-0.072822
C	 1.1631387465	-2.105276043	-0.0774665041	 0.358203
O	 2.2725545787	-2.8919952089	-0.1190009765	-0.437263
C	 1.2150925507	-0.7162219253	-0.1135528157	-0.30649
H	 0.839218253	 1.8609011938	 0.175348106	 0.247671
H	-0.8294730469	 1.8360972542	 0.1951081633	 0.251989
H	-2.1265747918	-0.1957828626	 0.0635020833	 0.088107
H	-0.1336565272	-3.8208118123	 0.0384243099	 0.107815
H	 3.0559664209	-2.3363274794	-0.1875003563	 0.297159
H	 2.169836234	-0.1994821228	-0.1846610729	 0.077332
