18
gdb 23037	4.10279	0.95582	0.93782	1.7044	77.85	-0.239	-0.0034	0.2356	1308.873	0.146089	-439.046903	-439.037794	-439.03685	-439.081639	32.834	
C	 1.2438200963	 0.6288767841	 0.2433991713	-0.471675
C	-0.0160752003	-0.1827854837	 0.1585908589	 0.36668
N	-0.9930388763	-0.1065908034	 0.9785879322	-0.177143
O	-0.7412343199	 0.8202598211	 2.0000452114	-0.396798
C	-0.1959201682	-1.1838171377	-0.963678659	 0.002186
O	 0.0227435784	-0.5386041707	-2.2242252163	-0.275449
C	 0.9645627009	-1.2709595737	-3.0057807703	-0.11477
C	 1.4585917148	-2.3626039159	-2.0989132479	-0.103946
C	 0.8015207104	-2.3182776405	-0.9465226304	-0.091386
H	 1.9637281471	 0.3141762117	-0.5126490847	 0.124566
H	 1.0197692404	 1.6904365992	 0.0966247881	 0.148499
H	 1.6912954978	 0.5364877247	 1.2376386615	 0.141711
H	-1.5501628755	 0.7731754816	 2.5205687695	 0.306458
H	-1.2280012332	-1.5587778645	-0.9015510918	 0.09767
H	 0.4773590157	-1.6743654317	-3.908506315	 0.107624
H	 1.7648632443	-0.5962722171	-3.3441348827	 0.109041
H	 2.2205582743	-3.075329755	-2.3881610357	 0.110577
H	 0.912481263	-2.9809878785	-0.0982515589	 0.116156
