16
gdb 13996	4.16456	1.47539	1.26334	1.6249	71.53	-0.2443	0.0384	0.2827	973.7019	0.129301	-346.528495	-346.520842	-346.519898	-346.560619	28.499	
C	-0.0239158165	-1.1905505659	 0.0110405546	-0.459208
C	-0.0321350564	 0.0124198967	 0.0407296039	 0.328004
C	-0.0145673293	 1.444432971	 0.0645281867	-0.256205
C	 0.545263848	 2.1886254115	 1.2758601013	-0.352499
C	 1.3097067235	 2.1766619034	-0.0001188501	 0.29171
C	 2.6776637856	 1.5847099705	-0.3121942778	-0.136143
O	 2.9670432128	 2.6851869623	-1.2062615474	-0.275435
C	 1.7022484704	 3.3219193698	-0.9272347061	-0.13682
H	-0.0286546273	-2.2520076844	-0.0117654926	 0.198514
H	-0.8456662433	 1.9275045787	-0.4435456605	 0.115506
H	 0.0390035203	 3.1028559476	 1.5689384955	 0.122305
H	 0.9135658305	 1.5863684154	 2.0994103869	 0.13126
H	 3.3828807292	 1.5435956361	 0.5279260924	 0.102988
H	 2.6686919673	 0.6175902917	-0.8291124811	 0.117353
H	 1.0912286173	 3.4446157969	-1.8309798814	 0.105409
H	 1.8315387779	 4.2994686088	-0.4430933643	 0.10326
