19
gdb 31261	2.10639	1.55319	0.94622	0.8635	80.14	-0.1634	0.0557	0.2191	1263.619	0.159511	-419.213242	-419.203664	-419.20272	-419.248225	34.639	
C	-0.2802734115	 1.081127609	 0.0314211384	-0.316617
N	-0.1144843239	-0.3583075597	-0.0824105259	-0.402123
C	 0.686723693	-0.8246050944	-1.1426727257	 0.207252
C	 1.1613985615	-2.1148612724	-1.2597145379	 0.250655
N	 1.859377757	-2.2160948805	-2.4436714823	-0.293972
C	 1.8467875989	-1.0044978239	-3.0823299552	-0.095329
C	 1.1250924297	-0.1228191146	-2.3063529227	-0.235307
O	 1.0559672373	-3.1759975029	-0.4157914069	-0.277629
C	-0.2388444295	-3.7878509118	-0.4087623271	-0.253728
H	 0.6686382729	 1.6401097286	 0.0906895102	 0.104768
H	-0.8355024999	 1.4585184681	-0.8338566322	 0.128673
H	-0.8698913736	 1.302926438	 0.9248952281	 0.115477
H	 0.1798227563	-0.7695886382	 0.7945063905	 0.230908
H	 2.355085651	-3.0409829244	-2.7318319654	 0.26007
H	 2.3572758689	-0.8616594053	-4.0201997167	 0.113408
H	 0.9332282524	 0.9110850181	-2.5453678323	 0.088697
H	-0.4776609161	-4.2132080737	-1.3914353099	 0.113965
H	-0.2027579646	-4.5870505433	 0.3352199173	 0.123766
H	-1.0122599799	-3.0614506766	-0.1360169941	 0.137067
