16
gdb 27922	2.45175	1.33276	0.86808	4.7004	77.06	-0.1993	-0.0229	0.1764	1262.8638	0.123798	-437.943559	-437.934717	-437.933773	-437.977198	32.123	
C	-0.0403124276	 1.5033796957	 0.0709034095	-0.507962
C	 0.0128322481	 0.0166333528	-0.0463482622	 0.231543
C	-0.0107191912	-0.8374856215	-1.1409536941	 0.131462
C	-0.0992719682	-0.4508560796	-2.5366642255	 0.069392
O	-0.117128347	-1.2270432922	-3.4717166423	-0.301656
C	 0.0688360804	-2.1916399217	-0.656695047	-0.413846
C	 0.1370925828	-2.1064341771	 0.7018006281	 0.401252
O	 0.2259237206	-3.0118567801	 1.7048572969	-0.432368
N	 0.1036129517	-0.7798068928	 1.0690940997	-0.34627
H	 0.8558289772	 1.9043403718	 0.5607259736	 0.135663
H	-0.1117678728	 1.9654923837	-0.9144841318	 0.151306
H	-0.9081011234	 1.8336017434	 0.655413875	 0.135605
H	-0.1526419408	 0.6465096931	-2.7185316592	 0.047037
H	 0.0723085873	-3.0793465542	-1.2676353044	 0.118397
H	 0.24127461	-3.8927650111	 1.3179562584	 0.312976
H	 0.140210713	-0.4619010004	 2.0235803554	 0.267467
