21
gdb 103739	2.64708	1.27126	1.01374	2.3489	80.92	-0.2478	-0.0255	0.2224	1256.5941	0.178377	-424.221708	-424.211188	-424.210244	-424.256766	38.172	
C	 0.0171652382	 1.2447907349	-0.3285753192	-0.247853
O	-0.1451951268	-0.0038522153	 0.3200182179	-0.277913
C	-1.3964085533	-0.6052859017	 0.1336306567	 0.398588
C	-2.5180025381	 0.0471978399	 0.9106784831	-0.470952
C	-1.6430311829	-1.257990442	-1.1897189711	-0.375519
C	-1.2873301332	-2.144151942	 0.0009649271	 0.161476
C	 0.0809098262	-2.7940809127	 0.0810152272	-0.478571
C	-2.3925731608	-2.9683805924	 0.5645468895	 0.096784
O	-3.5739518377	-2.8063346821	 0.3601352797	-0.273041
H	 1.0604163574	 1.5365434658	-0.1879795061	 0.130212
H	-0.1941927764	 1.1736336558	-1.4045344411	 0.110909
H	-0.6258900844	 2.0233261869	 0.102888646	 0.115703
H	-2.6961102421	 1.0622605735	 0.5403066953	 0.117348
H	-3.4460018842	-0.5143468585	 0.8074729617	 0.159862
H	-2.254993774	 0.1145492028	 1.9710718479	 0.123173
H	-2.6672020659	-1.3311946914	-1.5405896829	 0.136452
H	-0.8831298164	-1.1565720172	-1.9570871013	 0.117884
H	 0.8621210824	-2.0876325741	-0.1971081242	 0.139804
H	 0.2915718815	-3.137263186	 1.1003380649	 0.121668
H	 0.1400564659	-3.6630930183	-0.5835336874	 0.119224
H	-2.0449800756	-3.7980005758	 1.2211972263	 0.07476
