19
gdb 77901	2.07417	1.57494	1.37281	1.7594	70.92	-0.2454	0.0624	0.3078	1064.6336	0.157285	-460.120333	-460.110753	-460.109808	-460.154143	35.968	
C	-0.0471575037	 1.5953789099	-0.0196303339	-0.440316
C	 0.1244644922	 0.0913790398	 0.1215336611	-0.081845
C	 1.3551609602	-0.7280707812	-0.195977082	-0.149801
C	 2.650519787	-0.0962352223	 0.3051845939	 0.090782
O	 3.0012489172	 1.1656912319	-0.2228407736	-0.437994
C	 2.0679584259	-0.0837415552	 1.7648693548	 0.008093
O	 2.0829910699	 1.1459108087	 2.4625617417	-0.442521
C	 0.7697461802	-0.6867039856	 1.2374269147	 0.317568
O	 0.1070413347	-1.7143645648	 1.890039569	-0.460152
H	 0.8877412096	 2.1351628084	 0.1299586109	 0.133462
H	-0.3832445349	 1.8382742393	-1.0333645013	 0.125403
H	-0.8092953592	 1.9717534529	 0.6737354572	 0.106649
H	-0.762080178	-0.4564231131	-0.1990485115	 0.095124
H	 1.3121979748	-1.5459124808	-0.9044947487	 0.095363
H	 3.4929918292	-0.7952794443	 0.2190122394	 0.076301
H	 3.3852587917	 1.6608370786	 0.5128962448	 0.284225
H	 2.5882563617	-0.8030059352	 2.4016413917	 0.101577
H	 1.4107156857	 1.7172216016	 2.0790158896	 0.289072
H	-0.6521451541	-1.3458756087	 2.3539005723	 0.289007
