19
gdb 98622	4.15035	1.04989	0.96246	2.5894	78.46	-0.2316	0.0159	0.2475	1289.7211	0.160112	-419.186471	-419.177612	-419.176668	-419.220906	32.365	
C	 0.310166952	 1.5623166155	 0.3265358102	-0.334716
N	 0.2616447254	 0.1236288318	 0.1596690528	-0.326453
C	-0.1225869947	-0.468551424	-1.0108432396	 0.438088
O	-0.4595901011	 0.1771847861	-1.9926475552	-0.39278
C	-0.0885252981	-1.9714867553	-0.9472064424	-0.114253
C	-0.9542757694	-2.8903672052	-1.7287327294	-0.045561
C	-1.2786459922	-2.4012133253	-3.1393246	-0.238981
C	 0.251983204	-2.2950756563	-3.3434538255	-0.146493
N	 0.5384981691	-2.8590395867	-1.9655294807	-0.162548
H	-0.0855430422	 2.0082955838	-0.5864381369	 0.172484
H	-0.2995418468	 1.8821548913	 1.1784793696	 0.126083
H	 1.3368493087	 1.915066042	 0.4782161197	 0.127784
H	 0.5729286922	-0.4600131804	 0.9175965934	 0.248957
H	 0.1590801741	-2.3556797585	 0.0409864688	 0.082309
H	-1.4319411901	-3.7298858555	-1.2303061562	 0.093008
H	-1.735752863	-3.1849280032	-3.7466894086	 0.102068
H	-1.8567022934	-1.4815124924	-3.2170369858	 0.132042
H	 0.6507872045	-2.9944179126	-4.0806331312	 0.106363
H	 0.6558443509	-1.2983133551	-3.5153776128	 0.132599
