21
gdb 104746	2.17163	1.20189	1.01301	0.7546	86.1	-0.2319	0.0494	0.2813	1323.1477	0.179016	-387.039183	-387.028739	-387.027795	-387.074506	38.411	
C	-0.6855316114	 1.4719390868	 0.6624994806	-0.378459
C	-0.0573070415	 0.1896972659	 0.105545941	-0.258447
C	 0.8786883179	-0.4717429404	 1.0980955576	 0.436849
C	 0.3355918692	-1.3656868609	 2.1617856597	-0.335709
C	 1.1590718184	-1.9785813743	 1.0262705251	-0.294356
C	 0.5510510999	-2.8227129669	 0.0434649472	 0.340652
C	 0.0445285625	-3.5323784647	-0.7866788861	-0.463917
O	 1.9580090442	 0.3052566295	 1.536050024	-0.280291
C	 2.9351894163	 0.5817979176	 0.5483357401	-0.253687
H	 0.0850817205	 2.1909510188	 0.9543342753	 0.127326
H	-1.3321147515	 1.9453888622	-0.0821186726	 0.110075
H	-1.2907933539	 1.2596652462	 1.5499541498	 0.118158
H	-0.8329179802	-0.5304464264	-0.1712253359	 0.115157
H	 0.4860144227	 0.4096991002	-0.8216640488	 0.100884
H	 0.8114558073	-1.3246455849	 3.1342690703	 0.126904
H	-0.7291389517	-1.5680751432	 2.1675273578	 0.124361
H	 2.1742692253	-2.2466074077	 1.3043285101	 0.116377
H	-0.4003758714	-4.1595826997	-1.5184827235	 0.192679
H	 3.3071350926	-0.3394325844	 0.0787669434	 0.112712
H	 2.5566076226	 1.246403456	-0.2395203834	 0.114349
H	 3.7620006821	 1.0816890401	 1.0580500783	 0.128384
