18
gdb 126609	5.27195	0.79059	0.73005	3.2837	75.38	-0.2243	0.002	0.2263	1567.233	0.148208	-435.273273	-435.264387	-435.263443	-435.308018	32.051	
C	 0.0449392735	 1.4948493139	-0.1214646887	-0.382098
C	 0.3018438441	-0.0136201184	-0.100228866	-0.176136
C	 0.5103673322	-0.5359429558	 1.3256743605	-0.143627
N	 0.7319402041	-1.9725055455	 1.3775620237	 0.086615
C	 1.8578676347	-2.6727196535	 1.0657040944	-0.202937
C	 1.4720295126	-3.9824823505	 1.2399314073	 0.36837
O	 2.2113758583	-5.0949547825	 1.0714838789	-0.427449
N	 0.1794087874	-4.0220298519	 1.6319985911	-0.286143
N	-0.2704881912	-2.7910087553	 1.7129867255	-0.15609
H	 0.8873135587	 2.0503963565	 0.3054291948	 0.119038
H	-0.1034703159	 1.8510983308	-1.1444937731	 0.124705
H	-0.849983109	 1.7536805748	 0.454548005	 0.124943
H	-0.5422298625	-0.5509779501	-0.5461794661	 0.125752
H	 1.1835237798	-0.2538718126	-0.7059651036	 0.108192
H	 1.3632252556	-0.0385769473	 1.8002586281	 0.122619
H	-0.3743637023	-0.3487156331	 1.9388032205	 0.144423
H	 2.7830171232	-2.2101862535	 0.7718792999	 0.142688
H	 1.6360982265	-5.841151916	 1.2834218179	 0.307135
