17
gdb 84588	2.29926	2.03634	1.30173	3.4629	72.67	-0.2519	-0.0325	0.2194	975.8467	0.136717	-421.840195	-421.832782	-421.831838	-421.871998	29.392	
O	 0.3716960009	 0.9434874812	-0.9111953956	-0.43766
C	 0.0784317211	-0.2092502911	-0.1498919739	 0.100281
C	 0.599542354	-0.1987024413	 1.279190023	-0.104728
C	-0.2998729527	-0.6133590046	 2.1716559887	-0.080061
C	-1.6371130904	-0.9414582862	 1.5524981449	-0.090016
C	-2.732372749	 0.1573483771	 1.7774697693	-0.338686
C	-2.2328239995	 0.789267299	 0.4748174274	 0.404411
O	-2.2775497582	 1.8990173407	 0.0160481068	-0.314177
C	-1.432607605	-0.4648373923	 0.0764094605	-0.188571
H	-0.2603292975	 1.6340351624	-0.6702237776	 0.295683
H	 0.5338640719	-1.0397652792	-0.7055676888	 0.09354
H	 1.6175987496	 0.1041596464	 1.4974679606	 0.10686
H	-0.1283714212	-0.6968740991	 3.2400778395	 0.101407
H	-1.9641686156	-1.9692414127	 1.7222298294	 0.087546
H	-3.7499553533	-0.233313902	 1.6673286946	 0.131413
H	-2.6814830058	 0.7790304551	 2.6748932627	 0.129395
H	-1.9163737193	-1.0480346334	-0.7093764013	 0.103362
