17
gdb 35466	3.26391	1.50313	1.40279	4.8864	75.49	-0.2454	-0.0008	0.2446	969.5941	0.139636	-380.872917	-380.866082	-380.865138	-380.904103	27.741	
N	-0.0781926913	-1.163631048	-0.2140019024	-0.334083
C	-0.0501401384	-0.01671786	-0.0752785104	 0.312843
C	-0.0073900302	 1.4458273336	 0.0476608696	-0.159824
N	-0.5687293196	 1.9206691257	 1.3426458382	-0.290757
C	 0.524655971	 2.7797513968	 1.9191878388	-0.052031
C	 1.1633911161	 3.4131302282	 0.6634878823	-0.221431
C	 1.4609339639	 2.0255713666	 0.0464755076	-0.071352
C	 2.1778299318	 1.3550637954	 1.2101251857	-0.076915
C	 1.6223194732	 1.8120122089	 2.3357315455	-0.038973
H	-0.5615406952	 1.8591978001	-0.8031574781	 0.119358
H	-1.3833059992	 2.4960737338	 1.1555349213	 0.226141
H	 0.1261517051	 3.4384906321	 2.6895174148	 0.0754
H	 0.4626201589	 4.0209080957	 0.0809555201	 0.090247
H	 2.0740372675	 3.9801338526	 0.8644933712	 0.110746
H	 1.9429443512	 1.9828610957	-0.9288205514	 0.084332
H	 2.9180054714	 0.5733769752	 1.1037793505	 0.116421
H	 1.806094834	 1.4825392978	 3.3493673368	 0.109878
