23
gdb 107661	3.01092	1.22946	1.03548	1.4494	85.19	-0.235	0.0847	0.3197	1272.0389	0.207101	-388.289492	-388.280663	-388.279719	-388.322695	34.843	
C	-0.4069760259	 1.4597380515	-0.0223779186	-0.378385
C	 0.2087112785	 0.0572812477	 0.0622069312	-0.254411
C	 0.8044210118	-0.4334523697	-1.2501497818	 0.317464
C	-0.1610865135	-1.0503948151	-2.2460433593	-0.345948
C	 0.805321848	-1.9272127047	-1.485969289	 0.058932
O	 1.8294544153	-2.5543168314	-2.2060631932	-0.259764
C	 3.0684476708	-1.8609940751	-2.2115003589	-0.057784
C	 2.8946578713	-0.4339942733	-2.7223943891	-0.226793
C	 2.0076804224	 0.3604483525	-1.750816965	-0.270869
H	 0.3433751841	 2.2145437068	-0.2778327887	 0.117635
H	-1.1914410473	 1.4996988931	-0.7855994869	 0.118113
H	-0.8532678826	 1.7489026145	 0.9340912556	 0.111183
H	 0.9877825676	 0.0455594711	 0.8369785716	 0.092792
H	-0.5604169674	-0.651699264	 0.3929426347	 0.092454
H	-1.2151316117	-1.0808861692	-1.9884098554	 0.103501
H	 0.0413531678	-0.9343549413	-3.3053497883	 0.111841
H	 0.410624833	-2.5662565484	-0.6978999324	 0.084871
H	 3.5120283982	-1.8482624048	-1.2013831228	 0.08341
H	 3.7271971529	-2.4445331237	-2.8610163654	 0.104516
H	 3.8698979078	 0.0547503931	-2.8238120741	 0.09583
H	 2.4484982986	-0.4742201541	-3.7230078785	 0.10636
H	 1.6874479071	 1.3046787506	-2.2062390081	 0.100042
H	 2.615615283	 0.6302344437	-0.8757810177	 0.095011
