16
gdb 51688	3.39523	1.03211	0.89776	3.7572	67.71	-0.2805	-0.008	0.2725	1282.6342	0.124465	-475.072218	-475.064051	-475.063107	-475.106172	29.147	
N	 0.0511648702	 1.2035473395	 0.0142776378	-0.529032
C	 0.0490787248	-0.0524790601	-0.0262588683	 0.422208
C	-0.974806139	-0.9396945347	-0.6986657837	-0.305412
C	-0.7206978761	-2.3113722326	-0.0572331901	-0.258778
C	 0.760950166	-2.2169923235	 0.3058009417	 0.195024
O	 1.5258467211	-2.6397156334	-0.8192624483	-0.195753
C	 2.8346694418	-2.919975697	-0.603420862	 0.176745
O	 3.5782407643	-3.213876138	-1.4864961599	-0.261304
O	 1.0114694566	-0.8515862167	 0.5724900867	-0.233702
H	 0.8670496977	 1.5539607239	 0.5185254257	 0.230262
H	-1.9825095497	-0.5512055029	-0.5543859923	 0.144433
H	-0.7722149876	-0.9620935129	-1.7739852173	 0.154857
H	-1.3061512408	-2.4307693013	 0.8583710644	 0.127287
H	-0.9151465737	-3.1598991276	-0.712767082	 0.136214
H	 1.062509954	-2.7847578914	 1.190742089	 0.10597
H	 3.1169341505	-2.858805561	 0.4643518485	 0.090982
