15
gdb 130349	3.10959	1.62125	1.16625	1.7909	66.85	-0.2315	-0.0175	0.214	1004.7196	0.115173	-453.910813	-453.903683	-453.902739	-453.942751	27.121	
N	-0.1897699532	 1.5251543121	-0.1385090965	-0.501518
C	 0.0417649727	 0.0848275204	 0.0060890652	-0.148241
C	-1.3090598682	-0.7078284425	 0.0214338633	-0.102706
O	-1.4792635178	-1.3852950198	-1.2619685972	-0.285939
C	-0.2561389944	-1.3832705234	-1.8373621888	 0.229964
C	 0.396598815	-1.894246688	-2.9071112392	-0.085236
O	 1.6816445291	-1.4332781529	-2.8687119393	-0.178875
N	 1.8682185289	-0.6104646231	-1.7538837319	-0.24003
C	 0.7038751858	-0.6009555789	-1.1654295108	 0.299365
H	 0.7042869092	 2.009102745	-0.1364451992	 0.244033
H	-0.602395081	 1.7129622749	-1.0497009556	 0.235637
H	 0.5784118359	-0.0710504126	 0.9453439491	 0.115217
H	-1.3069694383	-1.4745396433	 0.8022599821	 0.127289
H	-2.1594815449	-0.0397992698	 0.1660445639	 0.13647
H	 0.1515793012	-2.5426129681	-3.7303951151	 0.154569
