18
gdb 56210	4.91927	0.74148	0.68218	1.5593	69.36	-0.2501	0.0566	0.3066	1631.057	0.147237	-476.243795	-476.234457	-476.233513	-476.280054	32.612	
N	-0.1656267878	 1.2933509466	-0.0174376727	-0.563318
C	 0.0543281133	-0.0557288519	-0.0391480524	 0.497743
O	 1.1373116252	-0.5904679465	-0.0819003469	-0.397668
O	-1.1320027555	-0.713821146	-0.0458610285	-0.259986
C	-1.0326691234	-2.1410707897	-0.0832638943	-0.061805
C	-2.430871626	-2.7000101619	-0.1992278427	 0.137367
C	-2.5559625004	-4.2387610058	-0.1675731093	-0.303008
C	-3.472185172	-3.991033968	 1.0478350622	-0.057801
O	-3.2022778284	-2.5736003087	 1.0178659208	-0.290572
H	 0.6312675078	 1.8653089216	 0.2033150363	 0.268158
H	-1.0743763289	 1.6269677639	 0.2566046225	 0.266516
H	-0.4262157035	-2.4501138484	-0.9425091445	 0.121046
H	-0.5454578481	-2.5040194757	 0.8277742466	 0.118519
H	-2.9480231262	-2.2175421111	-1.0395868095	 0.082744
H	-3.0158706207	-4.7020366369	-1.0408670203	 0.115674
H	-1.6230831238	-4.7572547429	 0.0655573944	 0.115787
H	-4.5347233257	-4.2072729313	 0.8785467833	 0.103043
H	-3.1648790458	-4.4483157373	 1.9952186252	 0.107564
