20
gdb 121549	4.53456	0.45634	0.43534	4.1467	89.36	-0.2657	0.0223	0.288	2512.4524	0.169023	-366.00917	-365.998347	-365.997403	-366.048632	36.787	
C	-0.0175749276	 1.4946548334	 0.4921943873	-0.386414
C	-0.0331965861	 0.0679158298	-0.0625356512	-0.162644
C	-1.4160971416	-0.5856957832	 0.013439986	-0.154015
C	-1.4227753288	-2.0223626165	-0.547305727	-0.359499
C	-2.7316449137	-2.6614504157	-0.4785645486	 0.053906
C	-3.8215477576	-3.16500817	-0.4065142739	 0.119636
C	-5.1407911628	-3.7872644329	-0.328108349	-0.473559
C	-5.4360831089	-4.3501394849	 0.9971125296	 0.278756
N	-5.6803004488	-4.7959313621	 2.0337987285	-0.302821
H	 0.9812973667	 1.9365216139	 0.4260700801	 0.114937
H	-0.7060168617	 2.1423267971	-0.0617218092	 0.116316
H	-0.3214917186	 1.5132748259	 1.5445032731	 0.118316
H	 0.307863519	 0.0754350517	-1.1064490392	 0.096626
H	 0.6896956419	-0.5485204108	 0.4881991234	 0.098644
H	-1.7624638748	-0.6081987212	 1.0534977573	 0.111779
H	-2.1452596006	 0.017071736	-0.5412529166	 0.106194
H	-1.0791643864	-2.010030695	-1.5902735369	 0.13039
H	-0.6942833839	-2.6328933615	 0.0024901199	 0.134615
H	-5.927331661	-3.0608480107	-0.5708847693	 0.17917
H	-5.2332385348	-4.593454203	-1.0675793442	 0.179666
