11
gdb 131997	4.22019	1.34964	1.08059	5.3638	61.34	-0.2752	-0.1094	0.1658	1007.9882	0.066219	-484.77182	-484.765119	-484.764175	-484.804119	23.368	
O	-0.0138281897	 0.1800298707	-0.6097904924	-0.328642
N	-0.0351926692	 1.2287869086	 0.0059701754	 0.423477
O	 0.8825365411	 1.7522837247	 0.6112598238	-0.332563
C	-1.3369049165	 1.9652477089	 0.0269972393	 0.47196
N	-1.253263055	 3.2769247757	-0.1217312188	-0.231986
C	-2.43258067	 3.8840886164	-0.1061045523	-0.001294
C	-3.6025578332	 3.1464673442	 0.095022512	 0.031517
N	-3.5785728278	 1.8257722807	 0.2582678012	-0.151222
N	-2.401753763	 1.2051874125	 0.2032745801	-0.191796
H	-2.447171621	 4.9612990969	-0.2461943678	 0.156451
H	-4.5803120958	 3.6143875608	 0.1325146397	 0.154098
