19
gdb 11902	4.71747	1.44989	1.26235	1.7364	78.1	-0.2242	0.0205	0.2447	1022.5464	0.166781	-327.916375	-327.908828	-327.907883	-327.948115	29.553	
C	 0.0451548697	 1.5952389443	-0.0179254372	-0.396654
C	 0.0298577939	 0.0633446237	 0.028751329	-0.017172
C	 0.7072868572	-0.6125799875	-1.1965321758	-0.324524
C	 1.4669932858	-1.8155841222	-0.6263432779	 0.332184
C	 1.3432203517	-3.1891746329	-1.1930230369	-0.290248
N	 2.6027931455	-2.4360166265	-1.3305018729	-0.364242
C	 1.5749853214	-1.5471369761	 0.8333876854	-0.123055
C	 0.7938869154	-0.5310088029	 1.1964883467	-0.0812
H	 1.072289381	 1.9730555358	-0.0673725775	 0.117531
H	-0.4955825588	 1.9690138164	-0.8940401655	 0.112762
H	-0.4276002102	 2.0234946042	 0.872450184	 0.112581
H	-1.020179318	-0.2599820823	 0.0923438844	 0.081202
H	-0.0034186641	-0.8844086514	-1.9820502348	 0.097774
H	 1.4300472171	 0.0883852651	-1.6345921197	 0.103166
H	 1.4001162595	-4.0591052888	-0.5434472845	 0.114492
H	 0.7088079804	-3.3193773081	-2.0668727066	 0.10761
H	 2.6718570361	-2.0495859677	-2.269713567	 0.22665
H	 2.2018749703	-2.1477464747	 1.4818863911	 0.100316
H	 0.6721901362	-0.1615054583	 2.2094241256	 0.090829
