19
gdb 57317	3.06024	1.03792	0.93009	3.7185	74.29	-0.248	-0.0224	0.2256	1325.3692	0.157453	-456.38592	-456.37593	-456.374986	-456.42089	36.661	
C	 0.3094277698	 1.509054918	 0.2095029686	-0.386756
C	 0.1275326067	-0.0091917583	 0.0924561578	 0.279958
C	 0.6400753422	-0.7350186877	 1.334767974	-0.424759
O	-1.2881597829	-0.2170260652	-0.0688169323	-0.467148
C	 0.8744557693	-0.4949512143	-1.1672072053	 0.322225
N	 2.1067574854	-0.7880475985	-1.1199453309	-0.513941
N	 0.0456137563	-0.5031177571	-2.3042733381	-0.337826
C	 0.4139294822	-0.8023560984	-3.588757197	 0.1624
O	 1.5284651266	-1.1055377321	-3.9545620789	-0.302277
H	 1.370100582	 1.7528694659	 0.2984954115	 0.14235
H	-0.091235033	 2.0148367906	-0.6738230384	 0.120044
H	-0.2247771275	 1.8785653884	 1.0889112746	 0.123981
H	 0.1452317185	-0.3417066784	 2.2271278489	 0.117855
H	 0.4425654926	-1.8110937962	 1.2643020091	 0.110363
H	 1.7195664999	-0.6117217344	 1.4260937161	 0.159963
H	-1.480947069	-1.1299771459	 0.1723112757	 0.284987
H	 2.4544315141	-1.0377074317	-2.0465227945	 0.251627
H	-0.9260263134	-0.2960845076	-2.1103759896	 0.263865
H	-0.4457700198	-0.7354028869	-4.2832003514	 0.093089
