19
gdb 87841	2.83663	1.34383	1.15026	2.1481	75.78	-0.2285	0.0699	0.2984	1127.1608	0.157806	-422.966422	-422.957745	-422.9568	-422.999329	33.922	
O	 0.0867976168	 1.280107907	 0.1387277188	-0.419223
C	-0.0094220086	-0.1132762096	 0.0339436828	 0.012971
C	-0.5131029326	-0.8258097826	 1.2576780257	-0.367897
C	-1.3689121732	-0.7551274104	 0.0253157663	 0.281038
C	-2.7562792758	-0.0907175349	-0.0840607245	-0.314618
C	-3.241101578	-1.3210076236	-0.8706279631	-0.103719
C	-2.3881092869	-1.520833783	-2.1070984518	-0.347406
C	-1.8578680729	-1.9546429726	-0.7690009513	 0.325487
O	-1.5325333914	-3.2658670105	-0.4703571154	-0.45628
H	-0.1597718076	 1.6587966807	-0.7115619167	 0.284838
H	 0.788818634	-0.5890106022	-0.5393289411	 0.072822
H	-0.0771148553	-1.7861028455	 1.5127015044	 0.118828
H	-0.7883005499	-0.2002700328	 2.1006495032	 0.121157
H	-3.2465520797	 0.0269900337	 0.8851825707	 0.111955
H	-2.8011474205	 0.8636906958	-0.6204248756	 0.088503
H	-4.2136952346	-1.7868001611	-0.7778006964	 0.095967
H	-2.71374644	-2.337844486	-2.7442444202	 0.111428
H	-1.9638330977	-0.6706450939	-2.6383286211	 0.096596
H	-0.8548424662	-3.5599473084	-1.0880537746	 0.287554
