16
gdb 47575	2.92978	1.69241	1.23096	4.0114	65.15	-0.2569	0.0345	0.2914	987.8022	0.126195	-475.036401	-475.029111	-475.028167	-475.068321	28.06	
O	-0.0614616428	-0.1060116187	 0.0400186738	-0.366193
C	-0.0351889132	 1.0954049435	 0.0471935314	 0.440331
N	-1.1395948275	 1.8994498219	 0.094996622	-0.328059
C	-1.1235271927	 3.3259691952	 0.1236105892	-0.012955
C	-1.5800196264	 4.0309980395	 1.3897681676	-0.337141
C	-0.1246696058	 3.9709847696	 1.0554342897	 0.113633
O	 0.6426917916	 3.1115858436	 1.8420623571	-0.237651
C	 1.6318451157	 2.4262288477	 1.1159469378	-0.004136
O	 1.1387344989	 1.8212927586	-0.0645768208	-0.241119
H	-2.018280385	 1.407447483	 0.1496008403	 0.259855
H	-1.3155583387	 3.8225583411	-0.8247755202	 0.10843
H	-2.0978695763	 4.9779020928	 1.2924079694	 0.125926
H	-1.9059661407	 3.3999042599	 2.2082599428	 0.137689
H	 0.3892806932	 4.8674440557	 0.711858647	 0.100861
H	 2.4280957793	 3.0978136682	 0.7708591814	 0.112113
H	 2.0297903502	 1.6757011584	 1.8070268117	 0.128418
