19
gdb 56029	3.64241	0.98707	0.90742	2.3719	71.98	-0.2524	0.0122	0.2645	1346.2062	0.158655	-460.206847	-460.197605	-460.196661	-460.24284	32.226	
C	 0.1025313082	 1.3834474926	-0.5310567685	-0.478748
C	 0.0731295398	-0.0586971222	-0.0862719359	 0.427486
O	 0.2158461964	-0.4482573698	 1.0457717802	-0.355495
O	-0.1411926474	-0.8791266964	-1.1384429738	-0.2576
C	-0.2184874199	-2.2911004026	-0.8343339719	 0.098215
C	-0.7626755656	-2.9942807463	-2.0800300473	-0.245333
C	 0.5252388905	-3.3295204487	-2.837089043	-0.072103
O	 1.4440662694	-3.7039877358	-1.8203269122	-0.254919
C	 1.1900611467	-2.9076042084	-0.6663263706	-0.078879
H	 0.8923592942	 1.5302896888	-1.2732291271	 0.150547
H	-0.8448802964	 1.6484847984	-1.0087814238	 0.149892
H	 0.2777682564	 2.0253945127	 0.331224456	 0.149548
H	-0.8326959427	-2.4125099179	 0.0576002212	 0.10791
H	-1.2744729003	-3.9152986739	-1.7857412888	 0.114593
H	-1.4599269989	-2.3618109338	-2.6322815721	 0.114441
H	 0.4300574558	-4.1688763661	-3.5306360461	 0.110575
H	 0.8861663488	-2.4517519271	-3.3967031179	 0.096325
H	 1.9363822339	-2.1094585623	-0.566285474	 0.10696
H	 1.255012891	-3.5511214512	 0.2162639756	 0.116584
