17
gdb 49626	4.93583	0.99771	0.92338	3.9396	75.97	-0.241	0.0027	0.2436	1261.7363	0.135929	-417.943822	-417.93599	-417.935046	-417.97647	29.593	
O	 0.1561240552	 0.0807967036	 0.4672791302	-0.295896
C	 0.087062193	 1.203031697	 0.026108748	 0.133893
N	 1.1177164691	 1.8724979732	-0.6087745084	-0.073367
C	 2.492893249	 1.8404887324	-0.1540722833	-0.027579
C	 3.361614375	 2.3473810849	-1.319182607	-0.347695
C	 2.5500304881	 3.6727976115	-1.2646961232	 0.368325
C	 3.0899634074	 5.0380449494	-1.4283653496	-0.313436
N	 2.0553242953	 4.5091051667	-2.3434351717	-0.356788
C	 1.6998572493	 3.1281136276	-0.1343023459	-0.135262
H	-0.8483038237	 1.7941829371	 0.0106792255	 0.088652
H	 2.7747294743	 1.1980386553	 0.6691038025	 0.128722
H	 4.4120060362	 2.4829804964	-1.0514270052	 0.118705
H	 3.2829062173	 1.7602738229	-2.2376290314	 0.120195
H	 2.7545723275	 5.8465839821	-0.7838436559	 0.123487
H	 4.1125943874	 5.1376531774	-1.7846075498	 0.11641
H	 2.4701157347	 4.2291634549	-3.2288264626	 0.236866
H	 1.258821505	 3.6577443877	 0.7019641078	 0.11477
