17
gdb 50940	1.72621	1.63183	0.90579	0.9819	70.12	-0.2545	-0.0482	0.2063	1248.1434	0.135326	-455.143709	-455.134714	-455.13377	-455.178259	31.725	
O	 0.0643113649	 0.8519673367	 1.3907292592	-0.32396
C	-0.0241868961	 1.4149263023	 0.3186107541	 0.156884
N	 1.0223477649	 1.6892059855	-0.50441984	-0.275881
C	 2.3506028859	 1.1793631238	-0.2473971713	-0.101773
C	 3.0709481972	 0.9923924354	-1.5735626634	 0.160808
O	 2.5938468947	 1.2895794106	-2.6395437892	-0.254201
C	 3.1941192523	 2.0784295872	 0.6538739938	 0.00587
C	 3.0682297006	 1.9687673689	 2.1260368113	-0.239957
N	 4.2933530926	 1.5049733232	 1.4477178891	-0.322926
H	-0.9848791723	 1.7726775818	-0.0980199899	 0.089478
H	 0.8475744471	 1.9912635879	-1.4538112418	 0.263256
H	 2.2717121885	 0.1977549821	 0.2448292603	 0.118482
H	 4.0991448555	 0.5869021061	-1.4868845843	 0.111945
H	 3.4267176392	 3.0485528412	 0.2186592142	 0.103383
H	 3.1991616479	 2.8562330047	 2.7377108866	 0.125826
H	 2.3605929317	 1.2402001734	 2.5073519263	 0.151071
H	 4.2812566554	 0.4888131691	 1.3835877851	 0.231695
