14
gdb 80322	3.70887	1.25289	1.20078	4.467	68.68	-0.2401	-0.0518	0.1882	1033.8475	0.101945	-432.857517	-432.849888	-432.848944	-432.889667	28.474	
O	-0.2006037451	 1.444726367	 0.0199705794	-0.419544
C	-0.0800233248	 0.0637556731	-0.0212688073	 0.08523
C	-1.3422805491	-0.755293597	 0.0466819183	-0.085539
N	-2.5450795219	-0.0997244867	-0.3839453038	-0.328817
C	-2.3213623813	 0.3709542132	-1.661849621	 0.295266
N	-1.246072864	-0.0263335417	-2.2505082883	-0.301593
C	-0.4926335647	-0.7313698437	-1.2508047719	-0.09137
C	-3.3016773704	 1.2122124721	-2.2862273806	 0.257878
N	-4.1068021891	 1.8972336153	-2.7532184049	-0.317958
H	 0.2606215086	 1.8155868062	-0.7410685921	 0.301567
H	 0.7693793899	-0.3563342371	 0.5153473062	 0.106521
H	-1.4553579781	-1.5941222616	 0.7227141314	 0.116546
H	-3.1212866493	 0.4170803894	 0.2629455143	 0.270941
H	 0.1299149193	-1.5483649085	-1.5939155498	 0.110873
