16
gdb 86776	2.70348	1.10961	1.03413	3.7629	71.34	-0.254	-0.0016	0.2524	1212.6394	0.123798	-434.056233	-434.047117	-434.046173	-434.091456	31.667	
O	 0.5212581863	 1.1107406571	 0.5120150587	-0.430266
C	 0.0286237985	-0.1352029635	 0.108117388	 0.06569
C	-1.5071958655	-0.2002705713	-0.1621966289	-0.207055
N	-1.1707932003	-0.727160912	-1.5015924681	-0.087549
C	-1.9863656728	-0.7663212824	-2.6871691586	-0.314207
C	-2.4287133112	 0.565446112	-3.1465992276	 0.261389
N	-2.7723009957	 1.6186375866	-3.4740726146	-0.294245
C	 0.1875387658	-0.4474016858	-1.3798866687	 0.3483
N	 1.1994425277	-0.3535779826	-2.1291906209	-0.561274
H	 1.275359115	 1.3102940234	-0.0563118169	 0.30475
H	 0.3765741564	-0.9436215445	 0.7638654925	 0.101276
H	-2.1026355864	-0.8828767995	 0.4497070789	 0.116809
H	-1.9546011699	 0.7986169946	-0.1814145152	 0.140092
H	-1.4179209595	-1.2472843718	-3.490660806	 0.16755
H	-2.8737352627	-1.3850379925	-2.512126567	 0.168711
H	 0.9937598544	-0.5025026078	-3.1175977155	 0.220029
