18
gdb 72669	2.30167	1.52141	1.45517	4.6298	76.14	-0.2689	-0.002	0.2669	1037.0211	0.147165	-401.934931	-401.926488	-401.925544	-401.967987	31.716	
C	-0.2621087517	 1.5318035532	 0.0973112087	-0.496577
C	-0.0295294122	 0.0443067276	 0.0058629802	 0.224577
C	-1.2619718543	-0.9118399123	 0.0092418088	-0.279757
C	-0.6644426428	-1.7166100713	 1.2032133136	-0.273619
C	 0.6140842502	-0.8490805101	 1.1348486047	 0.285139
O	 1.5874606592	-1.3675965641	 0.210257591	-0.325169
C	 1.136072087	-0.4852717398	-0.8498635914	-0.11942
C	 1.1987171647	-0.3378322903	 2.361625204	 0.233226
N	 1.6303823194	 0.0995685037	 3.3413284752	-0.343414
H	 0.6699633894	 2.0721240067	 0.2909576243	 0.136005
H	-0.6840260685	 1.9107105761	-0.8412735053	 0.128029
H	-0.9666205024	 1.7768309959	 0.8986046575	 0.130943
H	-2.1988495944	-0.405453508	 0.2501918326	 0.114264
H	-1.4028397705	-1.4747177399	-0.9165011595	 0.111275
H	-1.2196690265	-1.5872739627	 2.1346390955	 0.125535
H	-0.4675215723	-2.7777872105	 1.042939169	 0.127499
H	 0.8722495826	-1.0368039443	-1.7593138165	 0.10922
H	 1.900266913	 0.2654831401	-1.0872421223	 0.112246
