17
gdb 2319	6.57686	1.30051	1.18578	2.9462	65.59	-0.2438	-0.0181	0.2258	1008.4053	0.146821	-309.71775	-309.709804	-309.70886	-309.750545	27.944	
C	 0.0812425328	 1.5710665983	-0.1818614624	-0.404244
C	-0.0449071618	 0.0826366535	 0.0586479223	-0.001706
C	 1.1404191929	-0.8382774793	-0.0914052299	-0.291901
C	 0.531476702	-0.6090921054	 1.2762871079	-0.005299
C	 1.2906654353	 0.1291165124	 2.3645874333	-0.29881
C	 2.2574440869	-0.7900164092	 3.0828947819	 0.166216
O	 2.3090734865	-0.94109975	 4.2762225307	-0.240093
H	 1.0636279458	 1.9539388872	 0.1095333122	 0.115409
H	-0.0517436312	 1.8008761241	-1.2445965586	 0.121324
H	-0.6750951155	 2.1331581601	 0.3771641901	 0.120826
H	-0.9948961044	-0.3295863133	-0.2720178205	 0.088842
H	 1.0085338274	-1.8029308203	-0.5687171942	 0.114743
H	 2.1020033966	-0.3748530638	-0.2934657879	 0.109615
H	-0.0705077889	-1.4290864263	 1.6600161119	 0.094441
H	 1.8860281034	 0.9399802312	 1.9240953114	 0.115844
H	 0.6193675495	 0.5717680954	 3.1072805651	 0.120697
H	 2.9433476828	-1.3470797647	 2.4031096366	 0.074097
