21
gdb 107291	3.20631	1.26414	1.11314	1.4844	81.58	-0.2334	0.071	0.3045	1178.4428	0.183571	-387.031688	-387.023509	-387.022565	-387.064396	32.674	
O	 0.1589000028	 1.3741414455	 0.230307914	-0.415418
C	 0.0603968888	-0.0109561533	-0.0836015436	-0.17816
C	-1.354605448	-0.5061904915	-0.0765524936	 0.338789
C	-2.0277038591	-0.9800301418	 1.1882454427	-0.355871
C	-1.9008493296	-1.939606864	 0.0375192902	-0.125245
C	-2.9220782479	-1.6554534137	-1.0875149402	-0.009462
C	-4.335536865	-1.1117723869	-0.7161252381	-0.243127
C	-3.793514347	 0.3530932871	-0.82212267	-0.244311
C	-2.3848639844	-0.1986773076	-1.1934899036	-0.067057
H	-0.3019454857	 1.5071630791	 1.0655296384	 0.279639
H	 0.5002081028	-0.1100109123	-1.0826947872	 0.105905
H	 0.6685121114	-0.6245812495	 0.6023921994	 0.080395
H	-1.3486466779	-1.1803285138	 2.0128590322	 0.107961
H	-2.9914129739	-0.5969715308	 1.5081149837	 0.113334
H	-1.3494730758	-2.8668486221	 0.1486124743	 0.084299
H	-2.8569364934	-2.3419950447	-1.9318645073	 0.06596
H	-5.0950776592	-1.3451340151	-1.466194124	 0.098782
H	-4.721740828	-1.4157962837	 0.2604377492	 0.099257
H	-4.2545210547	 0.9257437479	-1.6304386428	 0.0999
H	-3.8451729099	 0.9562695144	 0.0883631939	 0.096593
H	-1.9294757965	 0.1716558869	-2.1126389476	 0.067836
