15
gdb 131362	3.43639	1.57425	1.08691	2.3888	73.75	-0.1993	-0.0004	0.1989	1037.2921	0.115777	-416.832199	-416.825295	-416.82435	-416.863227	27.535	
O	 0.0887228637	 1.3595368224	-0.0018364749	-0.428029
C	 0.0724454377	 0.0116352773	 0.059924256	 0.253504
N	 0.0781467284	-0.7312944794	-1.0436238703	-0.33507
N	 0.0573744117	-2.0250403688	-0.5926868578	-0.348766
C	 0.0394999648	-2.0795590549	 0.7504529422	 0.359469
C	 0.0482971947	-0.7813509511	 1.2262034191	 0.174531
C	 0.0288049619	-0.8334970412	 2.6851174097	-0.214295
C	 0.0089278968	-2.1239721761	 3.0747543402	-0.091595
C	 0.0134889696	-3.0707498633	 1.875076901	-0.416013
H	 0.103501381	 1.5966932829	-0.9378562161	 0.301394
H	 0.057785011	-2.7679839147	-1.2686776342	 0.27064
H	 0.0302284438	 0.0265358019	 3.3411908844	 0.10695
H	-0.0083861336	-2.4859501945	 4.0938734461	 0.098047
H	-0.8742494225	-3.716242937	 1.8605167341	 0.134622
H	 0.8861419011	-3.7366037835	 1.8833124306	 0.134611
