16
gdb 273	7.4215	1.74761	1.51679	0.18	53.18	-0.2583	0.0719	0.3302	802.5075	0.141169	-308.764658	-308.756772	-308.755828	-308.796363	27.553	
C	-0.0226848135	 1.5433836751	 0.0472158079	-0.399907
C	-0.0123311042	 0.0148028493	 0.0311230063	 0.133801
O	 0.7311344289	-0.5070404461	 1.1339065405	-0.429938
C	-1.4256747379	-0.5748152527	-0.0238316816	-0.176654
C	-1.4364513705	-2.0955462993	-0.1056188396	-0.072986
O	-2.7923755079	-2.5207993194	-0.1214657391	-0.424818
H	 0.9987141287	 1.9286345818	 0.1077912106	 0.123035
H	-0.4960448649	 1.947572001	-0.85334269	 0.117145
H	-0.5826633292	 1.9180192031	 0.9134416357	 0.106651
H	 0.5480856309	-0.3258938822	-0.849327053	 0.087908
H	 0.3050553978	-0.196570812	 1.9410543949	 0.275608
H	-1.9881580602	-0.2647643236	 0.868103377	 0.092635
H	-1.9634781285	-0.166495355	-0.8878549109	 0.103938
H	-0.9067263378	-2.4194573023	-1.0171018491	 0.081543
H	-0.8901649266	-2.5103090276	 0.7527063706	 0.097493
H	-2.8029259551	-3.48219173	-0.1227744402	 0.284547
