16
gdb 11314	5.38934	1.26435	1.09312	3.2499	70.65	-0.248	-0.0654	0.1827	1069.2196	0.129596	-383.76009	-383.752258	-383.751314	-383.79272	27.871	
C	 0.127953458	 1.5498711496	-0.0557491226	-0.391471
C	-0.0324309012	 0.0326147255	 0.0599309884	 0.109264
O	 0.5458413199	-0.6102293949	-1.0795938109	-0.283399
C	 1.4604682925	-1.6298364573	-0.6795205318	-0.162648
C	 1.5263804786	-1.5221120432	 0.8220726922	 0.213085
C	 2.3928647505	-2.3448003412	 1.6665678802	 0.072404
O	 3.1427003202	-3.1932266806	 1.2360495944	-0.263338
C	 0.670675277	-0.5831800861	 1.2362784594	-0.202706
H	 1.1863577485	 1.8250908611	-0.0602901223	 0.125186
H	-0.3257431057	 1.8965062695	-0.9878393347	 0.135582
H	-0.3671474334	 2.0565943068	 0.7790288164	 0.115228
H	-1.1107867025	-0.2030381312	 0.1007126528	 0.092813
H	 1.1028830152	-2.6191321719	-1.0008184153	 0.119543
H	 2.436590988	-1.4669464029	-1.1547672979	 0.124448
H	 2.3178032966	-2.1365856434	 2.7565335458	 0.073931
H	 0.4863834278	-0.2892151697	 2.2631255658	 0.122075
