19
gdb 100358	2.62726	1.15711	0.97628	1.6697	67.89	-0.2481	-0.0428	0.2053	1247.5225	0.156511	-497.297034	-497.286925	-497.285981	-497.332001	36.855	
O	 0.0667956197	 1.3680472907	 0.4113036059	-0.431139
C	 0.0500090848	-0.0096857888	 0.0456272403	-0.120975
C	-1.399531383	-0.5291568805	-0.0233309078	 0.315884
O	-2.1072973455	-0.0833125531	 1.1237472935	-0.476565
C	-2.1107709584	 0.0045325248	-1.2889621246	-0.114054
O	-1.6401301471	-0.5855147717	-2.4834018698	-0.432332
C	-1.3666399648	-2.0766670312	 0.0046344761	-0.305034
C	-2.7109527015	-2.7055961074	-0.2804739201	 0.142087
O	-3.1804170544	-2.7888222054	-1.3941560647	-0.252364
H	-0.0701197181	 1.8955006135	-0.381703307	 0.298276
H	 0.5536756674	-0.1855049728	-0.9120523922	 0.122352
H	 0.5958687539	-0.5349394634	 0.8357132497	 0.112287
H	-1.7425757802	 0.7905891909	 1.3253526027	 0.288827
H	-3.191268098	-0.1264761553	-1.1571820013	 0.112369
H	-1.9337116758	 1.0852098079	-1.3648547831	 0.080321
H	-2.0865271368	-1.4428210369	-2.5473255825	 0.296781
H	-0.6717371013	-2.4191316856	-0.7688006162	 0.136772
H	-1.0026974964	-2.3905467613	 0.9865179245	 0.119618
H	-3.2748367343	-3.0960124744	 0.5905533068	 0.10689
