20
gdb 93152	2.18511	1.72158	1.21527	2.6091	81.25	-0.2554	-0.0029	0.2525	1102.7446	0.172014	-403.158412	-403.149637	-403.148693	-403.192335	33.055	
C	-0.1755450406	 1.5325385155	 0.1358489591	-0.39721
C	 0.0104409544	 0.0109063073	-0.0025623474	-0.016262
C	 0.6891560564	-0.374973979	-1.3416844811	-0.292854
C	 2.0269810104	 0.2722743569	-1.5990008566	-0.044301
C	 3.0630657928	 0.2071537143	-0.7645616351	-0.06226
C	 3.036549532	-0.539309237	 0.5439765133	-0.140648
O	 2.0031030151	-0.1465833929	 1.4658166097	-0.259728
C	 0.7087358368	-0.5469163769	 1.2215454876	 0.344859
N	 0.0733120617	-1.256085508	 2.0566004016	-0.476999
H	 0.7871844212	 2.0455687702	 0.1931615838	 0.131983
H	-0.724904125	 1.9269358233	-0.7255315783	 0.109768
H	-0.744180011	 1.7687666692	 1.0394693001	 0.12854
H	-0.9746698818	-0.4630564051	 0.0052486054	 0.10353
H	 0.7953243731	-1.4688376215	-1.3759929291	 0.119523
H	-0.0025934287	-0.1143996261	-2.1488678365	 0.107165
H	 2.135168854	 0.8324644531	-2.5243706395	 0.096528
H	 3.9962014583	 0.7007523596	-1.0219494261	 0.095527
H	 2.9544378808	-1.6232340648	 0.3701409171	 0.114594
H	 3.9637637252	-0.3689915615	 1.0951123848	 0.121767
H	 0.6922358952	-1.5021903165	 2.8335256673	 0.216478
