16
gdb 48112	3.18966	1.22127	1.11946	1.8427	69.85	-0.2474	-0.1021	0.1453	1120.4264	0.123235	-437.844678	-437.836566	-437.835622	-437.878335	29.302	
O	 0.4896325495	 1.9346103934	-2.3681394248	-0.211844
C	 0.8466344047	 1.2756869915	-1.4284377668	 0.100617
C	 1.2499732407	 1.8765941121	-0.0740205823	 0.289412
O	 1.4261156681	 1.1157251894	 0.853162432	-0.287582
C	 1.4272016257	 3.370415465	-0.0049516599	-0.048885
C	 1.4615852477	 4.0635005453	 1.3766287136	-0.282627
C	 2.8974975893	 4.4646762888	 1.0461773364	-0.00448
C	 3.7277524339	 3.2868947486	 0.7513809499	-0.246059
N	 2.860753475	 3.8107534989	-0.3325745698	-0.156925
H	 0.8856338319	 0.1659707396	-1.4338460672	 0.10936
H	 0.771230099	 3.8498769506	-0.7318060294	 0.118466
H	 0.7674006261	 4.9026796167	 1.434262175	 0.11987
H	 1.3323970629	 3.421075767	 2.2506228493	 0.126531
H	 3.3147866923	 5.4574433099	 1.1754220213	 0.102912
H	 4.7773993926	 3.4546320498	 0.5322798538	 0.129215
H	 3.5018319706	 2.3291233833	 1.211807189	 0.142019
