21
gdb 95352	3.31657	1.21875	0.97941	1.8518	77.11	-0.2417	0.0713	0.313	1230.6725	0.18487	-424.217383	-424.209142	-424.208198	-424.250599	32.138	
O	 0.7455878766	 0.1642725202	-1.0938066506	-0.438355
C	 0.0233545365	-0.2560873738	 0.0556113788	 0.151772
C	 0.8649511633	-0.1213490337	 1.356178571	-0.227412
C	 0.0300445512	 0.2675811253	 2.5948217755	-0.225975
C	-1.3121066648	-0.4631505507	 2.6160263519	-0.045611
C	-2.4870402807	 0.274762842	 3.2904681082	-0.095157
O	-3.0477250324	 0.6421649688	 2.0109280909	-0.295534
C	-2.1191648229	-0.2204118905	 1.3140959489	 0.139057
C	-1.3382069118	 0.4461654252	 0.1856712631	-0.269818
H	 0.9020984803	 1.1113441404	-1.0088238226	 0.273713
H	-0.1681578129	-1.3195481642	-0.133415955	 0.089434
H	 1.402604792	-1.0584786914	 1.535308563	 0.105755
H	 1.6358493768	 0.6394782047	 1.1856113752	 0.093008
H	 0.596415287	 0.0761521609	 3.5124571065	 0.097172
H	-0.1620215039	 1.3470533005	 2.5755641582	 0.104317
H	-1.1896640153	-1.511672295	 2.8994932027	 0.072429
H	-3.1674296533	-0.369219542	 3.8635786747	 0.095927
H	-2.2341850453	 1.1536498012	 3.8964024273	 0.099752
H	-2.6312790669	-1.1200497003	 0.9438417335	 0.073388
H	-1.1996007238	 1.5080300227	 0.4244369833	 0.095645
H	-1.8720752397	 0.39010368	-0.7671089545	 0.106492
