20
gdb 120595	3.87451	0.77172	0.71921	1.2036	84.45	-0.2395	0.0366	0.2761	1643.4871	0.167708	-403.077225	-403.066763	-403.065819	-403.113125	37.399	
C	 0.0904529926	 1.3400316771	 0.2046502961	-0.225258
O	 0.0127848264	-0.0643765649	 0.1649081088	-0.234422
C	-1.2800466867	-0.5315622195	-0.1581117289	-0.06553
C	-1.2298638009	-2.0377234019	-0.1628451686	-0.060697
N	-1.6007590926	-2.7396152329	 1.0691745933	-0.360356
C	-2.4509091763	-2.9110544554	-0.1371336193	 0.126489
C	-3.8597314323	-2.3503851969	-0.0390722112	-0.457211
C	-2.3517302623	-4.1631002437	-0.8489339037	 0.278395
C	-2.2918731953	-5.2171760251	-1.4260399693	-0.450638
H	 1.1212970773	 1.6035126507	 0.4532687131	 0.128192
H	-0.1679365356	 1.7921821619	-0.7666595906	 0.102235
H	-0.5794064264	 1.7657172247	 0.9685888496	 0.105915
H	-2.0163897228	-0.1731562483	 0.5760811235	 0.09672
H	-1.5844564776	-0.1589023576	-1.1523342127	 0.088035
H	-0.3873636199	-2.4288558523	-0.7290810336	 0.102182
H	-1.0152695678	-3.5602928022	 1.2019186394	 0.240302
H	-3.874373742	-1.4450291482	 0.5694899601	 0.130122
H	-4.2560772495	-2.1209804495	-1.0328375546	 0.12606
H	-4.5216941487	-3.0851285255	 0.4284867085	 0.132217
H	-2.2317404996	-6.1441613804	-1.94049976	 0.197247
