21
gdb 40429	3.34339	1.21702	1.11069	1.6206	82.1	-0.2427	0.0876	0.3303	1192.9337	0.184334	-387.066469	-387.058457	-387.057513	-387.09931	31.758	
C	-0.1054021902	 1.4721500019	-0.131641737	-0.279332
C	 1.2762440609	 0.8918922665	 0.0474754646	-0.274205
C	 0.0679105868	-0.0148374649	 0.0738994914	-0.086386
C	-0.368872122	-0.7250730683	 1.3167170821	 0.35613
C	-0.3988343062	-2.2369389577	 1.3500087681	-0.339746
C	-1.6907977643	-1.46192366	 1.4202670781	-0.102472
C	-2.2122997815	-1.1828624612	 2.8155917138	-0.093293
O	-1.0743288341	-0.7685744804	 3.5679005062	-0.257944
C	-0.1811577038	-0.0906845399	 2.6907849523	-0.162596
H	-0.514509979	 2.0662473914	 0.6777256542	 0.114991
H	-0.3976177792	 1.8147182509	-1.1182475188	 0.11104
H	 1.9374949386	 0.8461641345	-0.8108257171	 0.111774
H	 1.7858584595	 1.0890331527	 0.9847432743	 0.115252
H	-0.0727995155	-0.6148776542	-0.8214678207	 0.078792
H	-0.1776668231	-2.7528071067	 0.4216623794	 0.107346
H	-0.0557033556	-2.744802035	 2.2464725786	 0.119559
H	-2.3881291629	-1.4881974621	 0.5909023014	 0.086633
H	-2.9812733438	-0.3932500474	 2.7844468131	 0.089222
H	-2.6345528388	-2.0546816547	 3.3271944938	 0.106811
H	 0.8264841404	-0.211394795	 3.1029598831	 0.107649
H	-0.4110283962	 0.9866127594	 2.6525380692	 0.090775
