19
gdb 12231	3.41544	1.51512	1.18275	2.301	74.8	-0.2433	0.0348	0.2782	1088.2257	0.164053	-365.071234	-365.062097	-365.061152	-365.105183	32.326	
C	 0.2038140654	 1.4177896263	-0.0815584631	-0.338603
N	 0.4068430136	-0.0206855517	 0.0220914969	-0.333798
C	 0.562896187	-0.6920060527	-1.0215367191	 0.467386
O	 0.5875508073	-0.3019602655	-2.3517209482	-0.285801
C	 0.8701442683	-1.6741391597	-2.7932794419	 0.136121
C	 2.1704114264	-1.7577056876	-3.5626416273	-0.400937
C	 0.8045571886	-2.1586356267	-1.313704047	-0.171917
C	 2.0097803741	-2.8139553259	-0.6505046562	-0.406673
H	 0.9464439076	 1.9297704136	 0.5402685567	 0.123722
H	 0.2708029737	 1.8081871949	-1.1039102487	 0.12419
H	-0.7813622259	 1.6727126208	 0.3254837552	 0.125147
H	 0.0351864527	-2.0307956709	-3.4052281165	 0.089478
H	 3.0086689623	-1.3706302491	-2.9776967386	 0.129059
H	 2.3853451655	-2.7960577049	-3.8361669308	 0.123221
H	 2.0985591547	-1.1717392804	-4.4837625277	 0.132456
H	-0.0933072526	-2.7555004257	-1.1258736941	 0.103447
H	 2.9263748528	-2.2397553931	-0.8087179356	 0.12446
H	 1.8431250313	-2.8765535255	 0.4283352809	 0.141905
H	 2.168279327	-3.8282804164	-1.0304279749	 0.117134
