19
gdb 50626	3.06671	1.20189	0.90117	2.6954	77.85	-0.2511	-0.028	0.2231	1272.3273	0.159021	-423.033542	-423.024967	-423.024023	-423.067493	31.695	
O	-0.9041913031	 1.3793732657	-0.2723882942	-0.247708
C	 0.2021993031	 0.9112436772	-0.2198239825	 0.146827
C	 1.4644779659	 1.7140803377	 0.0893120984	 0.017065
C	 1.2134199268	 2.7989491935	 1.1366616195	-0.192219
C	 2.2937435287	 3.8817685943	 1.2016440734	-0.275156
C	 3.7198794143	 3.437054285	 1.4086442041	-0.050591
C	 4.3270554043	 2.3132370289	 1.024885164	-0.060023
C	 3.7816443466	 1.1248029571	 0.2724289167	-0.129597
O	 2.432277154	 0.7712321951	 0.4985787925	-0.253185
H	 0.4068158285	-0.165057726	-0.4097611257	 0.094392
H	 1.7660081564	 2.1786348203	-0.8702971479	 0.09049
H	 0.2446476024	 3.2593810815	 0.9173455974	 0.121954
H	 1.1258736226	 2.2973023858	 2.1069176636	 0.112824
H	 2.2565145422	 4.4787101035	 0.2761316442	 0.115875
H	 2.0289041781	 4.5845882873	 2.0004106593	 0.108645
H	 4.3454265583	 4.1775890027	 1.9044517698	 0.091033
H	 5.3938792431	 2.2294758444	 1.2276292725	 0.090305
H	 3.9489373068	 1.2805068519	-0.8104896448	 0.10114
H	 4.3554079209	 0.2340896643	 0.5489209697	 0.117931
