19
gdb 14185	2.74827	2.23076	2.11884	1.9112	75.76	-0.2235	0.0902	0.3137	823.8801	0.165031	-327.844398	-327.836898	-327.835953	-327.875453	29.738	
C	 0.0184190516	 1.5301253918	-0.0086389324	-0.525858
C	 0.021573736	 0.0235412526	-0.0443690254	 0.283329
C	 0.5195760539	-0.9395083377	-1.1192794437	-0.235573
N	 0.0217052466	-1.9368076454	-0.0802218764	-0.188456
C	 0.5185044118	-0.9883350808	 1.038350505	-0.036808
C	-0.8257941694	-1.0585129597	 1.7617011495	-0.30823
C	-1.1596794007	-0.9744156118	 0.2650754705	 0.335528
C	-2.4937072611	-1.093562827	-0.4107025115	-0.519716
H	 1.0351695502	 1.92879557	-0.098203833	 0.121868
H	-0.573853128	 1.9422498392	-0.8335245079	 0.120654
H	-0.4063958114	 1.9063082125	 0.9287918511	 0.119311
H	-0.0175848827	-0.9863693491	-2.0731133804	 0.09297
H	 1.6000786905	-0.9995998742	-1.2931794339	 0.093028
H	 1.5324336004	-1.0930089567	 1.4300749787	 0.075118
H	-1.0595318619	-2.0087939965	 2.2506479435	 0.102729
H	-1.1057454081	-0.2047896969	 2.3847529782	 0.093358
H	-3.158556058	-0.2814469439	-0.0968411632	 0.121547
H	-2.3977319026	-1.0499881027	-1.5007190241	 0.123146
H	-2.9704930669	-2.0442371536	-0.1507301646	 0.132055
