17
gdb 51212	3.3685	1.35808	1.27324	3.7631	73.34	-0.2416	0.0176	0.2592	1036.6531	0.136641	-417.930762	-417.923225	-417.922281	-417.963819	28.624	
O	 0.6140617633	 2.3168605972	-1.3482980243	-0.313564
C	 0.2247769699	 1.9013327742	-0.2800541922	 0.128975
N	 0.9728021899	 1.1634434313	 0.5939052332	-0.434232
C	 2.3039047872	 0.7254470176	 0.305561768	 0.3828
C	 2.8284344783	-0.4742788526	-0.4808756671	-0.226247
N	 4.1291927384	 0.1892704397	-0.0384142805	-0.154855
C	 3.4825869413	 1.5885761539	-0.2301864129	-0.012783
C	 3.9342150123	 2.0371521425	 1.1633458523	-0.26339
C	 3.4807411617	 0.581992357	 1.314569211	-0.061069
H	-0.794942656	 2.0917657858	 0.1109316341	 0.07867
H	 0.5169921246	 0.8100646769	 1.4218586511	 0.246883
H	 2.6847410648	-1.4751618074	-0.0603467784	 0.09781
H	 2.6852897792	-0.4772510392	-1.5648834474	 0.119237
H	 3.5257615815	 2.0961639744	-1.1917867477	 0.108593
H	 5.0034437247	 2.2228623556	 1.2875500584	 0.113641
H	 3.3264252313	 2.7990790537	 1.6557824946	 0.106428
H	 3.5402555574	-0.0961415406	 2.1687356579	 0.083103
