14
gdb 28164	5.32542	1.3124	1.05987	1.5604	70.01	-0.2124	0.0016	0.214	1066.0705	0.102624	-436.713988	-436.707122	-436.706177	-436.745334	25.928	
C	 0.0958724458	 1.4348880625	 0.0515645408	-0.488225
C	-0.0755403989	-0.0379062721	-0.0014400711	 0.3516
C	-1.14624774	-0.8501045494	-0.2480142495	-0.408448
C	-0.6400304412	-2.1934803836	-0.1490982854	 0.19968
C	 0.6711292758	-2.0429852087	 0.1442860217	 0.38971
O	 1.2978846343	-3.221222656	 0.2718064802	-0.209701
C	 0.2436599108	-4.1020348449	 0.0282156317	 0.032313
N	-0.9047557411	-3.5602214479	-0.2218834529	-0.333676
O	 1.0926083955	-0.7856483901	 0.2509187067	-0.239401
H	 0.825278861	 1.7847915116	-0.687888028	 0.142622
H	-0.8608229599	 1.9189513592	-0.15685975	 0.141461
H	 0.4407183636	 1.7676449407	 1.037277516	 0.142613
H	-2.1452293475	-0.5080333531	-0.4668713385	 0.124544
H	 0.5035479518	-5.1466138282	 0.0754811483	 0.154907
