21
gdb 22776	2.68983	1.01057	0.77665	0.8077	84.97	-0.2191	0.0072	0.2263	1511.2781	0.180065	-420.345772	-420.335612	-420.334668	-420.381003	37.021	
C	-0.0304972922	 1.5093409227	 0.0755471646	-0.382902
C	-0.1327215651	-0.0084208731	-0.0568387931	-0.123261
N	 0.5981246454	-0.4969005313	-1.211898435	-0.090881
C	 0.0252163806	-0.2293501999	-2.5576635033	-0.270648
C	 0.3160514353	-1.6714193777	-2.8995652322	 0.401904
N	 0.3808750799	-2.3970720312	-3.9307605221	-0.245095
O	 0.0405258233	-1.6660599499	-5.0852798599	-0.392855
C	 0.6160209198	-1.9713544704	-1.4456352781	-0.030652
C	 1.90548928	-2.6894240815	-1.080490948	-0.391069
H	 1.0153515176	 1.8179759086	 0.1597252278	 0.126155
H	-0.4616788937	 2.0115987586	-0.7970430034	 0.120096
H	-0.5721992461	 1.8574092952	 0.9602429511	 0.113527
H	 0.2946775639	-0.4858825207	 0.8333110804	 0.102758
H	-1.2004053334	-0.3070393712	-0.0947170927	 0.073443
H	-1.0552137297	-0.0074563831	-2.5540487228	 0.108538
H	 0.5388802312	 0.538194814	-3.1450334153	 0.129041
H	 0.1478259888	-2.3237953768	-5.7806716165	 0.307252
H	-0.2456442423	-2.4724495905	-0.9691725802	 0.07743
H	 2.7608064601	-2.2026504897	-1.555696993	 0.124506
H	 2.0583142617	-2.6783484967	 0.0036712632	 0.115698
H	 1.8660654947	-3.7322195855	-1.4099135615	 0.127014
