20
gdb 31336	3.16378	1.2423	0.96505	1.9604	88.42	-0.1923	0.0561	0.2485	1281.4718	0.172461	-366.022046	-366.01343	-366.012485	-366.056514	31.947	
C	-0.1836470888	 1.5875953373	 0.0053491445	-0.357635
C	 0.083957007	 0.0727434981	 0.0463580424	-0.294495
C	 0.7373060796	-0.4544129109	-1.198725578	 0.072057
C	 2.0601777458	-0.7777709589	-1.4169546757	 0.277654
C	 3.5193351399	-1.0333786334	-1.0676134219	-0.384836
C	 3.6471546914	-1.5230134245	-2.56291007	-0.168273
N	 2.2222469883	-1.1902192571	-2.7043568699	 0.018744
C	 1.0376125537	-1.1691955215	-3.3830792356	-0.161894
C	 0.1059750768	-0.7038679308	-2.4668118595	-0.215556
H	 0.7506058142	 2.1452187411	-0.1157335606	 0.112285
H	-0.8329539855	 1.8471089491	-0.8368465998	 0.116632
H	-0.6690086225	 1.9294306418	 0.9259463063	 0.102383
H	 0.7143230633	-0.1574024795	 0.9135312888	 0.09153
H	-0.8655777491	-0.4511654974	 0.2146289317	 0.099376
H	 4.1253966503	-0.1556728283	-0.8262353106	 0.120103
H	 3.7114463363	-1.8106036473	-0.3226877488	 0.121165
H	 4.3092154204	-0.9316970899	-3.2023248748	 0.123131
H	 3.8696890436	-2.5869118233	-2.6877568206	 0.124466
H	 0.9376075531	-1.4597393015	-4.4159594948	 0.115971
H	-0.9432651679	-0.5517574831	-2.6790434832	 0.08719
