17
gdb 47026	3.76352	1.33608	1.0331	5.4431	76.48	-0.2554	-0.0401	0.2152	1121.2224	0.137937	-421.855368	-421.848166	-421.847221	-421.887061	28.176	
O	 0.0115249215	-0.0253524873	-0.1464268733	-0.338607
C	 0.0023534006	 1.1657482704	 0.0231607716	 0.442934
O	-1.2037932335	 1.8125022831	 0.1101746742	-0.250227
C	-1.2645232572	 3.1605789012	 0.6175249007	-0.100023
C	-0.2317861292	 4.0181582625	-0.0885499472	-0.076698
C	 0.4907583786	 5.2299552455	 0.5925918404	-0.252224
C	 1.8659551361	 4.5933882712	 0.1823174563	-0.321933
C	 1.0987472433	 3.3133147596	-0.0428948673	 0.377832
C	 1.2251903122	 1.9995029386	 0.118962811	-0.422169
H	-2.2962785914	 3.4807610197	 0.455037812	 0.123116
H	-1.0693013828	 3.146259361	 1.698387503	 0.108274
H	-0.5467327804	 4.2627636962	-1.1094266485	 0.102377
H	 0.2661474777	 6.2227567606	 0.2005133694	 0.114653
H	 0.3525792334	 5.2293827748	 1.6765978101	 0.118587
H	 2.2479327745	 5.024778361	-0.7491283527	 0.129136
H	 2.674282794	 4.5771271422	 0.9167972265	 0.12581
H	 2.1579701126	 1.4753614695	 0.2896755038	 0.119161
