18
gdb 25956	4.52845	0.97465	0.82984	2.4371	79.58	-0.1938	-0.0226	0.1711	1380.5203	0.147793	-402.012894	-402.004219	-402.003275	-402.047138	31.979	
C	 0.1526859448	 1.4361118345	-0.1991935737	-0.474532
C	 0.0287628637	 0.0244004971	 0.3344473577	 0.395396
O	 0.7916270054	-0.4076081408	 1.1726919038	-0.309216
C	-1.1413648582	-0.7976478679	-0.2057597887	-0.439475
C	-0.9543777564	-2.2821091831	-0.2302462028	 0.316778
C	-1.4441558408	-3.2231011109	-1.1124210302	-0.235387
C	-1.014427536	-4.5007003225	-0.65850892	-0.144214
C	-0.274729208	-4.2998697762	 0.4843412851	-0.09622
N	-0.2567471403	-2.9548199537	 0.7424065555	-0.273557
H	 0.8898637507	 1.9943125679	 0.3787910597	 0.145453
H	 0.4643740284	 1.4003467378	-1.2500086964	 0.151081
H	-0.8157347881	 1.9474637918	-0.1738348362	 0.140864
H	-1.9913680036	-0.5092808621	 0.4386987934	 0.143291
H	-1.411773658	-0.4452678783	-1.2059017435	 0.126778
H	-2.050904801	-3.014337824	-1.981108208	 0.081891
H	-1.2256643681	-5.4542629253	-1.117416127	 0.088256
H	 0.2421146466	-4.9944452189	 1.1269168312	 0.1113
H	 0.295489289	-2.4703696052	 1.4324042201	 0.271514
