20
gdb 12883	2.44481	2.18463	1.6734	1.3032	73.96	-0.2424	0.0808	0.3232	908.7652	0.177857	-349.005758	-348.997575	-348.996631	-349.03791	31.504	
C	 0.0185582036	 1.6331635451	 0.0710056858	-0.425617
C	 0.0960123213	 0.1209322435	 0.1035085795	-0.069228
C	 1.290339063	-0.7344313396	-0.309323398	-0.09915
C	 2.6881252121	-0.1350651225	-0.3678903123	-0.218454
C	 2.9481983079	 0.4983708907	 1.0278045161	-0.222589
C	 1.9155440137	-0.1350491357	 1.9937086187	-0.279921
C	 0.816578497	-0.7335191382	 1.1208212158	 0.381372
O	 0.1634739145	-1.8689928937	 1.6196964124	-0.469507
H	 0.9337352257	 2.1202717763	 0.4113181602	 0.120955
H	-0.1810498244	 1.9880948804	-0.9465582812	 0.118854
H	-0.7983615593	 1.9935270858	 0.7069976161	 0.11341
H	-0.836735177	-0.3523606973	-0.1981539446	 0.084817
H	 1.0727049662	-1.5881610658	-0.9420383059	 0.086402
H	 3.4052331137	-0.9403414018	-0.5629116136	 0.102559
H	 2.8121060142	 0.5962141505	-1.1743387967	 0.096233
H	 3.9730808325	 0.3203811281	 1.3651434016	 0.098915
H	 2.8275263336	 1.5836961746	 0.987339849	 0.106597
H	 2.3580322551	-0.9664210435	 2.5529014961	 0.108725
H	 1.5434331452	 0.5863754132	 2.7308908816	 0.088091
H	-0.5032235085	-1.5745765201	 2.2494686095	 0.277538
