20
gdb 100651	2.50574	1.09443	0.96879	4.224	75.51	-0.2757	0.0181	0.2938	1331.952	0.16735	-440.297868	-440.286972	-440.286027	-440.33341	39.472	
C	-0.0554734339	 1.6103644627	 0.1156817495	-0.390507
C	-0.006627598	 0.0836478869	 0.0052688336	-0.212371
C	-1.4028119579	-0.5365767425	-0.0945785898	 0.110827
O	-2.0832302196	-0.1674126597	-1.2809665372	-0.424798
C	-1.394320761	-2.0912860466	 0.0825835297	 0.178173
C	-0.5751269567	-2.8188996797	-0.9878536175	-0.41787
O	-0.8206700501	-2.4442983055	 1.3361443708	-0.440311
C	-2.7986615739	-2.5665565328	 0.0365176768	 0.260791
N	-3.8906633999	-2.9435292414	 0.0611955309	-0.33682
H	 0.9523193875	 2.0350186481	 0.1265301316	 0.117191
H	-0.6027985101	 2.0468506075	-0.7245006628	 0.129337
H	-0.5597209171	 1.9218021494	 1.0367781342	 0.12018
H	 0.5767243725	-0.2042460467	-0.8805024615	 0.092907
H	 0.5081625397	-0.3502939136	 0.8678873763	 0.12108
H	-2.0240689892	-0.139387939	 0.7201047019	 0.091721
H	-1.4757401251	-0.2686184744	-2.0217982005	 0.286554
H	 0.4760842072	-2.5363658188	-0.9018359239	 0.138335
H	-0.655923809	-3.8980042126	-0.8453283864	 0.150599
H	-0.941542153	-2.5744626811	-1.9875637044	 0.129884
H	-1.3972087423	-2.12264003	 2.0391720686	 0.295098
