17
gdb 46599	2.80218	1.78328	1.42658	4.4527	71.16	-0.2472	0.0058	0.253	945.8501	0.138097	-421.827498	-421.820529	-421.819585	-421.858755	27.744	
O	-0.0698404613	-0.0165621613	 0.1805394834	-0.341761
C	-0.0095351283	 1.1692816295	 0.0355651796	 0.388515
O	-1.1503432454	 1.9453666587	-0.0739285254	-0.23839
C	-0.8736628985	 3.256785475	-0.6242533719	-0.155344
C	 0.6265017646	 3.4307066564	-0.5326083288	 0.205647
C	 1.239560393	 3.2695257704	 0.8168524615	-0.35728
C	 1.1697555345	 2.0676794328	-0.093282528	 0.09773
C	 2.2549589147	 2.1037926525	-1.1846562547	-0.291988
C	 1.6800791843	 3.4853538577	-1.6594556369	-0.283819
H	-1.2210777159	 3.278111994	-1.6637012696	 0.118522
H	-1.4558121173	 3.9793155297	-0.0449622725	 0.123823
H	 2.219933053	 3.6902181488	 1.0187314901	 0.126147
H	 0.561880013	 3.2739001094	 1.6635514026	 0.139868
H	 3.2855533946	 2.0960009052	-0.820653277	 0.112996
H	 2.1406224018	 1.3123075715	-1.9264982464	 0.129241
H	 1.2299316829	 3.4282325052	-2.6530709198	 0.115811
H	 2.3596035604	 4.3416935143	-1.6332608162	 0.110281
