17
gdb 72070	2.8384	1.68592	1.40807	3.1769	74.65	-0.2338	-0.0271	0.2068	960.2144	0.135943	-421.786877	-421.779487	-421.778543	-421.818445	29.377	
O	-0.4626792573	 1.1231059334	 0.0398514438	-0.463674
C	-0.0498371772	-0.1705319491	 0.077979582	 0.416211
C	 0.8984964629	-0.8376421539	-0.9135618639	-0.278845
C	 0.248130236	-2.1892773322	-0.4881186109	-0.154034
C	 0.6296280209	-2.3189889904	 1.0142731273	-0.226726
C	-0.2313231148	-1.0754375983	 1.2510984676	-0.168471
C	-1.0337702068	-1.4039228047	-0.0364914281	 0.197978
C	-2.3987648042	-1.1169851107	-0.3627737972	-0.017831
O	-2.9829106873	-0.1475853149	 0.117105589	-0.333044
H	-1.4224840098	 1.1149232309	 0.2277283239	 0.308949
H	 0.6377102088	-0.5600728972	-1.937212706	 0.117122
H	 1.9766562189	-0.7221476295	-0.7540397298	 0.102668
H	 0.2744418723	-3.0491415983	-1.1524969498	 0.085998
H	 0.1847618952	-3.2043492231	 1.4749995854	 0.112364
H	 1.6941738	-2.2573604627	 1.2643825342	 0.100746
H	-0.669303955	-0.7168735686	 2.1737986469	 0.114014
H	-2.8996648425	-1.7656611809	-1.1088833144	 0.086573
