20
gdb 8484	2.99668	1.92294	1.4547	1.8073	75.46	-0.2364	0.0887	0.3252	969.2818	0.174785	-348.992357	-348.983543	-348.982599	-349.024911	33.329	
C	-0.0674576384	 1.5600997622	 0.0711357498	-0.408018
C	 0.0037643584	 0.0435376787	-0.0391812392	-0.026503
C	 1.0929396969	-0.5878034598	-0.9825197558	-0.3104
C	 1.6694457049	-1.3207187972	 0.2396466727	 0.355105
C	 2.435586925	-2.6028821197	 0.2795471438	-0.500976
O	 2.0292574279	-0.2897282712	 1.1815226633	-0.329819
C	 0.6560233509	-0.7230951683	 1.1348559438	 0.343462
C	 0.0208982099	-1.1764111492	 2.4093982473	-0.50589
H	 0.9085439925	 1.962563166	 0.3564713532	 0.132275
H	-0.3595878071	 2.0121654895	-0.8827441611	 0.111285
H	-0.8004703406	 1.8724682565	 0.82351381	 0.109473
H	-0.981740519	-0.3770635643	-0.2677178526	 0.068308
H	 0.6679728498	-1.2547860203	-1.7373405721	 0.097808
H	 1.782967246	 0.1122985956	-1.4618731881	 0.101563
H	 3.4352657553	-2.4707093493	-0.1504500741	 0.130162
H	 2.5558182513	-2.9508578122	 1.3091577743	 0.129704
H	 1.9235310488	-3.3801460843	-0.2972299511	 0.120808
H	-0.2063113442	-0.3212194514	 3.0565564177	 0.130619
H	-0.9178411287	-1.7038084915	 2.2097337989	 0.120777
H	 0.6887111302	-1.8447396097	 2.9599201094	 0.130258
