18
gdb 55393	3.40438	1.22015	0.94558	3.1496	73.66	-0.2414	0.0166	0.258	1217.4222	0.148489	-439.127345	-439.118806	-439.117862	-439.161141	32.012	
N	 0.6539076708	 0.0360209367	 0.8022499292	-0.520413
C	-0.1724213418	 0.3220472487	-0.2324970707	 0.366224
O	 0.0242036008	 1.2004754502	-1.0517404489	-0.378654
C	-1.4329928349	-0.5446884856	-0.3075446607	 0.024448
C	-1.6460619643	-1.1051231947	-1.7179716911	-0.246115
C	-2.7539850389	-2.1231654134	-1.6947011721	-0.075287
C	-3.186908188	-2.6610321188	-0.557067222	-0.065114
C	-2.5669383017	-2.3255783625	 0.7707719726	-0.123468
O	-1.3559830987	-1.5966708572	 0.6471282978	-0.27697
H	 1.5157399575	 0.5470374665	 0.8917836022	 0.259785
H	 0.4480400339	-0.7422199272	 1.4050096496	 0.27281
H	-2.2812066699	 0.1147574785	-0.0595483106	 0.099507
H	-1.8745079457	-0.2783900275	-2.3969975764	 0.132901
H	-0.714412934	-1.5545237744	-2.0874440204	 0.119245
H	-3.2015897108	-2.4064802532	-2.6433633856	 0.094784
H	-4.0092206916	-3.3710414328	-0.5404879333	 0.094376
H	-3.2856981325	-1.7679251105	 1.3985702582	 0.102675
H	-2.3122040502	-3.2404142129	 1.3190277422	 0.119267
