21
gdb 122456	3.58451	0.66209	0.59589	4.6902	84.83	-0.2741	0.0168	0.2909	1905.9302	0.182107	-383.267017	-383.25694	-383.255996	-383.303326	35.835	
C	-0.0289789365	 1.5527649104	-0.2871948051	-0.381932
C	-0.0299237819	 0.077402216	 0.1211283844	-0.166698
C	-1.4138974072	-0.5721404548	 0.0203697532	-0.160767
C	-1.4143797466	-2.0521754039	 0.4241555698	-0.204635
C	-2.7846363329	-2.6749181538	 0.3071275723	-0.010417
N	-3.21182958	-3.0939044751	-1.0291354539	-0.310485
C	-2.9996725825	-4.1280290195	 0.0058010874	-0.205125
C	-1.8951343757	-5.0345278183	-0.1987242873	 0.332194
N	-1.0143029553	-5.7718526774	-0.3302192041	-0.336389
H	 0.971416856	 1.9886732963	-0.2051274782	 0.114
H	-0.3621685448	 1.6766731933	-1.3235319001	 0.116052
H	-0.7012056462	 2.1406209448	 0.3479762973	 0.112327
H	 0.6751386953	-0.479438788	-0.5095332073	 0.103092
H	 0.3422859108	-0.0197737012	 1.14969135	 0.095605
H	-2.1223965322	-0.0179372453	 0.6525578385	 0.08772
H	-1.7872187881	-0.4870310869	-1.0082256917	 0.110023
H	-0.7152849488	-2.6106788208	-0.2075078048	 0.126843
H	-1.0637769313	-2.1601811416	 1.4589060843	 0.105165
H	-3.5457386918	-2.2406198535	 0.9557797709	 0.098071
H	-4.2096732692	-2.955493284	-1.1650146684	 0.245058
H	-3.8708419112	-4.6023872566	 0.4497124827	 0.130298
