23
gdb 107643	2.9642	1.26007	1.03881	0.2968	91.3	-0.2267	0.0245	0.2512	1276.622	0.20747	-351.165379	-351.156547	-351.155603	-351.198701	34.855	
C	 0.2732845133	 1.498308722	-0.3300583977	-0.380884
C	-0.1176234996	 0.0772352893	 0.0943518117	-0.252982
C	 0.6460985621	-0.4460933433	 1.3067240106	 0.350253
C	 2.0294477645	-1.0204533246	 1.058837167	-0.327448
C	 0.8806963942	-1.9360485257	 1.4229632944	-0.084378
C	 0.8203307696	-2.5823476397	 2.8065656711	-0.227833
C	-0.18083484	-1.876887573	 3.7412184626	-0.256359
C	-0.0100093202	-0.3772861015	 3.6942204088	-0.056411
C	 0.3877137976	 0.2616354705	 2.5929047095	-0.145628
H	 1.3441440634	 1.5641576577	-0.5499828015	 0.116646
H	-0.2735888998	 1.800457078	-1.2287792658	 0.109669
H	 0.0486683595	 2.2312672446	 0.4511350792	 0.118001
H	-1.194654981	 0.0411697673	 0.3041116911	 0.096212
H	 0.0548966474	-0.6067782064	-0.7461734619	 0.09054
H	 2.3984430143	-1.0327079577	 0.0375188853	 0.102161
H	 2.7939462611	-0.8562447684	 1.8114906173	 0.107176
H	 0.4811818501	-2.537543403	 0.6112414463	 0.076454
H	 0.5618816181	-3.6422952262	 2.7111327338	 0.09385
H	 1.8104253312	-2.5482874106	 3.2754745691	 0.100743
H	-1.2103921135	-2.1398284845	 3.4566557768	 0.107932
H	-0.0542418121	-2.2408437914	 4.7670078015	 0.096966
H	-0.2182048629	 0.1852498052	 4.6009114721	 0.083268
H	 0.5106987927	 1.3421545415	 2.6053148289	 0.082054
