16
gdb 550	17.20216	1.14331	1.10143	0.0002	53.58	-0.2614	0.0773	0.3388	1019.4799	0.141711	-308.757991	-308.749984	-308.74904	-308.79022	26.875	
O	-0.0612108992	 1.4339662151	 0.0102352718	-0.422348
C	 0.017730647	 0.0161339996	 0.0019551418	-0.07137
C	-1.4020811211	-0.533731904	 0.0125374468	-0.169442
C	-1.4437848379	-2.0633934771	 0.004804246	-0.169442
C	-2.8635963449	-2.613259888	 0.0154071936	-0.07137
O	-2.7846541202	-4.0310920098	 0.0071337344	-0.422348
H	 0.8339706799	 1.7847299109	 0.0033259767	 0.284844
H	 0.5503129016	-0.3486285655	-0.8918527763	 0.084466
H	 0.5671637877	-0.358040301	 0.8815629314	 0.084465
H	-1.9169497798	-0.141874003	 0.8985787566	 0.104694
H	-1.933671331	-0.1325210452	-0.8593288083	 0.104692
H	-0.9289287612	-2.455251907	-0.8812438311	 0.104693
H	-0.9121820122	-2.4646035349	 0.8766634766	 0.104693
H	-3.3961658119	-2.2484941667	 0.9092221853	 0.084466
H	-3.413042309	-2.2390891439	-0.8641933677	 0.084465
H	-3.6798369075	-4.3818553496	 0.0139047526	 0.284844
