20
gdb 107556	2.45052	1.5861	1.12229	1.6426	80.57	-0.2181	0.0195	0.2376	1137.1349	0.170854	-403.129997	-403.121125	-403.120181	-403.163299	33.868	
C	-0.0158899666	 1.51636798	-0.0906694956	-0.492834
C	-0.0175001165	 0.0206573569	-0.0616630786	 0.285385
C	 0.0038299582	-0.8259540443	-1.0944658828	-0.204912
C	-0.0224162607	-2.2623669071	-0.6295671943	-0.212662
N	-0.0115940746	-2.204706825	 0.8515203973	-0.145687
C	 1.1987332797	-1.6079625206	 1.4268005274	-0.28705
C	-0.0241724228	-0.7700112801	 1.2180395385	 0.22026
C	-0.8815912781	-0.3429691683	 2.3885185471	-0.168549
O	-0.408141951	 0.8513040413	 2.9982955045	-0.412713
H	 0.8798599884	 1.9209144632	 0.3954253254	 0.125243
H	-0.0518244117	 1.8912493408	-1.1169243442	 0.117631
H	-0.8674745031	 1.9271101663	 0.4616086999	 0.142856
H	 0.0511204382	-0.540372637	-2.139688169	 0.09241
H	-0.9290059108	-2.7888679405	-0.9575535938	 0.113386
H	 0.8306018396	-2.8508329953	-0.991719799	 0.111403
H	 1.4511534331	-1.9847768423	 2.4164342165	 0.107544
H	 2.0493521441	-1.4181405573	 0.7753576875	 0.1113
H	-1.9006058182	-0.1205570032	 2.0544185802	 0.112279
H	-0.9425826992	-1.1751865141	 3.1043413876	 0.102229
H	 0.497260062	 0.6875609066	 3.2833554453	 0.282481
