17
gdb 17572	3.52445	2.42197	1.95146	3.0293	67.11	-0.2272	0.0772	0.3044	755.7309	0.14345	-363.797969	-363.791614	-363.79067	-363.827947	26.342	
C	-0.0055051594	 1.5055280077	 0.0964366806	-0.504696
C	 0.0176012265	 0.0087390288	-0.0154083568	 0.419674
C	 0.9074390302	-0.8099077538	-1.0067530279	-0.265164
C	 0.7205393437	-1.8135822447	 0.1629085303	 0.053312
O	 0.7089956656	-0.6820472863	 1.0689694508	-0.293678
C	-0.7858410934	-2.1621165213	 0.0314545582	-0.055327
N	-1.6058386551	-1.5737619563	 1.1155265992	-0.317587
C	-1.3174960609	-0.7907111364	-0.1077891592	-0.107638
H	 1.0087660302	 1.9097894671	 0.1527846212	 0.127022
H	-0.5087415779	 1.9462574231	-0.7706457072	 0.118111
H	-0.5495479263	 1.8059078764	 0.9974525014	 0.140346
H	 0.507338863	-1.063095961	-1.9935506738	 0.088201
H	 1.925415761	-0.4208693503	-1.0681655752	 0.106187
H	 1.4380069527	-2.5909315956	 0.4224142303	 0.082655
H	-1.1302755677	-3.0185456505	-0.5354788168	 0.092227
H	-2.5488893552	-1.9503706974	 1.0220094221	 0.227457
H	-2.1072371669	-0.4981036293	-0.7897642873	 0.088898
