19
gdb 39332	2.74701	1.85624	1.3414	1.4647	73.81	-0.2385	0.0793	0.3177	985.0386	0.16186	-423.021813	-423.014689	-423.013745	-423.053449	28.622	
C	-0.0122816003	 1.4330578815	-0.1667477655	-0.369116
C	 1.35811462	 0.7698530997	-0.0319557039	-0.124921
C	 1.9774862795	 0.692056167	 1.3650462986	-0.23966
C	 1.3163553806	-0.5409099607	 2.0426341379	-0.227682
C	-0.0501641861	-0.7357446188	 1.3484522252	 0.036072
O	-0.3532167547	-2.0849428733	 0.9793507091	-0.269152
C	-0.09008969	-2.1960700174	-0.4045684376	-0.003336
O	-0.3632969553	-0.9338839318	-0.9793399157	-0.274936
C	 0.0791803144	-0.0357155916	-0.0077400999	 0.426438
H	-0.3973374833	 2.036252155	 0.6518051135	 0.111076
H	-0.2724329979	 1.7960170059	-1.1557182134	 0.125875
H	 1.9971128764	 0.7812165098	-0.9071045079	 0.095605
H	 3.0639468505	 0.5809793084	 1.3165278295	 0.107207
H	 1.7819435604	 1.6076358916	 1.93561097	 0.102932
H	 1.9129016036	-1.4370706689	 1.8428138427	 0.112653
H	 1.2320366093	-0.442062357	 3.1281531767	 0.100338
H	-0.8858059742	-0.3743554908	 1.9567338758	 0.087618
H	 0.9651010636	-2.4723453755	-0.5805879699	 0.082727
H	-0.7573923365	-2.942611763	-0.8424782851	 0.120263
