17
gdb 94347	2.63922	1.29583	1.10734	2.1913	75.76	-0.2285	0.0422	0.2707	1149.9608	0.133104	-421.748204	-421.739134	-421.73819	-421.782323	33.399	
O	 0.0753974908	 1.2258068598	-0.3642569097	-0.422164
C	 0.0609941576	-0.107576655	 0.0770362031	-0.03607
C	-0.027683537	-0.359427355	 1.6054910092	-0.106227
O	-1.2807773449	-1.0732117236	 1.445708632	-0.310728
C	-1.315710447	-0.7511306419	 0.0627053142	 0.45995
C	-2.5312432857	-0.2972543833	-0.6536490595	-0.349063
C	-1.9252984051	-1.67480977	-0.9690228073	-0.305715
C	-1.2364098068	-1.91455208	-2.1996543897	 0.339079
C	-0.6279866877	-2.1017167613	-3.2214321178	-0.465909
H	 0.9705493441	 1.4526906468	-0.6302871089	 0.293167
H	 0.8203679577	-0.7126338799	-0.4301645197	 0.096091
H	 0.7431791362	-0.9904387029	 2.0595032276	 0.10662
H	-0.1549117673	 0.564611697	 2.1801658531	 0.111939
H	-3.4671218145	-0.2995783537	-0.1061622837	 0.129412
H	-2.4112529397	 0.4894836178	-1.3895234664	 0.141803
H	-2.4650587563	-2.5195788826	-0.550067988	 0.123215
H	-0.1106861144	-2.2729468422	-4.1324618883	 0.194599
