18
gdb 67577	2.94654	1.99339	1.49881	2.8354	74.36	-0.2284	0.0743	0.3027	903.718	0.149892	-401.8651	-401.858473	-401.857529	-401.895566	28.393	
O	-0.059801694	 1.3787124936	 0.0983013364	-0.492412
C	 0.0083003241	-0.0118415443	 0.0468324617	 0.468245
C	 0.9295975524	-0.7547359309	 1.0147778008	-0.158847
N	 0.1879201008	-1.5971225273	 1.9890698918	-0.334003
C	 0.625903167	-2.1567918823	 0.6808052933	-0.066492
C	-0.4150154132	-1.9858495594	-0.4193498174	-0.018251
C	-1.3390756883	-0.7809439981	-0.0383174874	-0.077997
C	-1.4479243251	-0.411576664	-1.540007686	-0.264738
C	 0.0337684723	-0.7956364447	-1.3380781257	-0.135356
H	 0.8215942625	 1.735340066	-0.0529361538	 0.280354
H	 1.9209156481	-0.3835674476	 1.2539543018	 0.080082
H	 0.8423792275	-1.9089672595	 2.706047685	 0.225057
H	 1.3717715655	-2.9428445157	 0.6509951606	 0.087801
H	-0.8692431168	-2.8631870003	-0.8788089941	 0.0698
H	-2.1190124063	-0.7824802757	 0.7201790961	 0.085816
H	-2.0460167676	-1.0818530928	-2.1633176046	 0.085109
H	-1.6553269674	 0.6357290578	-1.7642154243	 0.105637
H	 0.8377064384	-0.8065619648	-2.0784410742	 0.060196
