23
gdb 57387	2.68242	1.31753	1.21113	1.6935	84.84	-0.245	0.0778	0.3228	1198.7254	0.203511	-388.268357	-388.2586	-388.257656	-388.302444	37.873	
C	 0.1925161305	 1.5218996516	 0.0684269966	-0.414004
C	 0.0241522683	-0.0075265236	 0.0636213611	 0.126023
C	 0.5526287196	-0.5906105883	 1.3880541033	-0.413395
C	-1.4667181699	-0.3667879063	-0.1083651608	-0.410971
C	 0.7906173741	-0.6074996684	-1.0959355257	 0.467799
C	 1.0933757982	-2.0948766588	-1.3942620758	-0.30633
C	 2.3718886241	-1.6321665784	-2.1770225262	-0.23775
C	 1.9855706639	-0.1848463474	-1.8557596514	-0.063545
O	 0.6663898962	 0.0183057775	-2.3858951191	-0.305325
H	 1.2360045329	 1.8035826489	 0.2448688247	 0.106966
H	-0.1188956803	 1.9506079747	-0.8865242303	 0.132873
H	-0.4123138597	 1.9661837126	 0.8654134969	 0.106167
H	 0.025333015	-0.1409390689	 2.2357725827	 0.112625
H	 0.4035109318	-1.6732971477	 1.4433503204	 0.113867
H	 1.6217855695	-0.3878134537	 1.5122549134	 0.110933
H	-1.8584410511	 0.0413270629	-1.0447939568	 0.129119
H	-1.6162224695	-1.451703837	-0.1231876259	 0.112025
H	-2.0592444194	 0.0406615687	 0.717564093	 0.108081
H	 1.3383807103	-2.6863437324	-0.5098849459	 0.106399
H	 0.3232914742	-2.6076266826	-1.9750076751	 0.107517
H	 3.2974966061	-1.9507125325	-1.6913489204	 0.103156
H	 2.4155359079	-1.8740823216	-3.2415807008	 0.109752
H	 2.6174560573	 0.6920646607	-1.768853518	 0.098017
