13
gdb 1706	4.48113	2.21534	1.90956	2.2355	54.18	-0.2692	0.0157	0.2849	688.6646	0.102327	-340.611734	-340.60485	-340.603906	-340.642831	24.183	
N	-0.0110107948	 1.5040002511	-0.0336616569	-0.541027
C	-0.0042666542	 0.0472761659	-0.0071336558	 0.091256
C	 0.1289891798	-0.5264155425	 1.4317099089	-0.078221
O	-1.2444720612	-0.94511627	 1.4446348625	-0.258126
C	-1.4338287219	-0.55835384	 0.0748070385	-0.078224
C	 0.8802733959	-0.5568377458	-1.011677708	 0.223067
N	 1.588325866	-0.9905925918	-1.8169912838	-0.33483
H	 0.9301958953	 1.8594932219	 0.115594343	 0.246152
H	-0.299001583	 1.8343631555	-0.9515093248	 0.246151
H	 0.8226398802	-1.3685291542	 1.5321857829	 0.120984
H	 0.3435351046	 0.2378670973	 2.1858062241	 0.120917
H	-2.2281470181	 0.1853086678	-0.0470309698	 0.120916
H	-1.6108337287	-1.418260395	-0.5806564509	 0.120986
