21
gdb 114629	2.54238	1.23541	0.97104	2.0217	78.95	-0.2299	0.0774	0.3073	1313.7792	0.180272	-424.172418	-424.162796	-424.161852	-424.207133	35.374	
C	-0.0367171772	 1.6347577685	-0.3923768316	-0.378857
C	-0.0240698125	 0.2135064963	 0.1819071619	-0.206394
C	-1.3766270796	-0.4641038586	 0.0702376618	 0.08751
O	-1.8530589549	-0.6038058512	-1.3081757042	-0.309838
C	-2.1481310233	-1.9852738574	-1.0907267487	 0.017696
C	-0.8862541361	-2.7624880361	-0.8215768895	-0.365203
C	-1.558584994	-1.9746374103	 0.2885963669	 0.334856
O	-2.0335251437	-2.5479823243	 1.4431049615	-0.277244
C	-1.0146663306	-2.9398647612	 2.3516450317	-0.255694
H	 0.950111412	 2.100488151	-0.3151874464	 0.110761
H	-0.3266790866	 1.6168621309	-1.4464822993	 0.139368
H	-0.7510730963	 2.2711723762	 0.1413288793	 0.114551
H	 0.7307580814	-0.3904090495	-0.3338635292	 0.099613
H	 0.2568908825	 0.2372702159	 1.2433638476	 0.097779
H	-2.134082745	 0.0828126279	 0.6491455091	 0.085009
H	-3.0657447333	-2.389038855	-1.5005572939	 0.114044
H	-1.0354654692	-3.8343564231	-0.7277642366	 0.118928
H	 0.0512488616	-2.4568650683	-1.2767445849	 0.114436
H	-1.5118362457	-3.4230450154	 3.1954043747	 0.129893
H	-0.3160290112	-3.648385404	 1.8868616128	 0.11489
H	-0.4442652682	-2.0765889221	 2.7211239471	 0.113897
