22
gdb 53282	2.50825	0.95642	0.79844	1.5011	93.14	-0.219	0.042	0.2611	1571.3084	0.191229	-367.168954	-367.158033	-367.157088	-367.207375	38.77	
C	 0.1923488543	 1.5148683673	-0.708540658	-0.499538
C	 0.0970555249	 0.0764217952	-0.5065754686	 0.039292
C	 0.0236859954	-1.1137113221	-0.3271844248	 0.114577
C	-0.03758991	-2.5426191661	-0.1684397403	-0.188292
C	-0.3337087106	-3.1397868186	 1.1767670619	-0.246279
N	-1.3015272622	-3.2567143772	 0.1023113698	-0.080853
C	-2.5422642486	-2.4803268931	 0.2194894483	 0.084992
C	-3.1176139307	-2.2566642786	-1.1797873394	-0.386702
C	-3.5104819713	-3.2512705683	 1.1187489211	-0.38463
H	 1.2331703878	 1.8234501865	-0.857082333	 0.150759
H	-0.3763063486	 1.8359260482	-1.5884223394	 0.148963
H	-0.1947049789	 2.0652040811	 0.1562022854	 0.148773
H	 0.6234467889	-3.0959355435	-0.8323594912	 0.109782
H	 0.1627567557	-4.056675095	 1.4843703808	 0.115078
H	-0.5375009696	-2.4328395466	 1.9798299774	 0.114562
H	-2.3429147643	-1.4964784841	 0.6765218201	 0.068605
H	-2.4191105123	-1.6897290607	-1.8011792318	 0.122564
H	-3.3133598629	-3.2164811623	-1.6684657837	 0.118778
H	-4.0566269861	-1.6969454502	-1.1244429462	 0.106465
H	-3.0898352458	-3.4001020062	 2.1182818476	 0.111114
H	-4.4522577644	-2.7042129881	 1.2259726258	 0.109992
H	-3.7275181605	-4.2358408777	 0.6924103582	 0.121999
