16
gdb 62360	2.38045	1.81631	1.18182	1.8827	76.03	-0.2523	-0.0042	0.2482	1032.5392	0.122646	-400.65546	-400.647308	-400.646364	-400.687839	31.448	
C	-0.0783240693	 1.5460859408	-0.0051196373	-0.481312
C	-0.0301593624	 0.0170767461	-0.0042557014	 0.206675
C	-1.3120430526	-0.5740401523	-0.3484643815	 0.232296
C	-2.3809979481	-1.0435062533	-0.6351899475	-0.427161
C	 1.235512802	-0.6598034116	-0.655255279	-0.189083
N	 2.0246152635	-0.1332035057	 0.538933894	-0.328661
C	 0.7498267002	-0.6740654857	 1.1780457155	-0.189077
C	 0.9562273946	-1.8910055611	 0.2422178869	 0.441966
O	 1.0925184916	-3.0723763838	 0.2691336726	-0.324136
H	 0.8937978158	 1.9640499358	 0.2556347284	 0.149979
H	-0.373392295	 1.9088924784	-0.9938400952	 0.129443
H	-0.8255255755	 1.8956175539	 0.713058623	 0.129442
H	-3.3204208126	-1.470709843	-0.8867980379	 0.198783
H	 1.5942451248	-0.5667235618	-1.6786090246	 0.106397
H	 2.8225766375	-0.7390069893	 0.7456182975	 0.238051
H	 0.5545162254	-0.5972537574	 2.2460154665	 0.106396
