17
gdb 6343	5.2759	1.05747	0.89554	5.704	67.2	-0.2415	-0.0178	0.2237	1290.6015	0.13953	-401.068565	-401.058976	-401.058032	-401.104357	32.227	
C	-0.0838251332	 1.4708115413	 0.226423677	-0.37161
C	 0.1392576067	-0.0182664114	-0.0231782562	-0.315118
C	 0.7317298462	-0.2947024266	-1.4054693099	 0.432965
O	 0.9916656241	 0.5677780226	-2.2033745757	-0.299735
N	 0.9372591368	-1.6642580607	-1.6372555094	-0.385215
C	 1.4609952377	-2.2809505386	-2.7849929311	 0.412721
C	 1.5278700931	-3.7964080826	-2.6524096824	-0.501617
O	 1.8179570928	-1.6826510406	-3.7655329752	-0.293269
H	 0.8565801514	 2.0218621651	 0.1532252064	 0.138315
H	-0.7655831937	 1.8910928651	-0.5165024764	 0.138316
H	-0.5075848271	 1.6332063625	 1.2211983223	 0.110371
H	 0.8121922458	-0.4453716446	 0.7328300503	 0.122275
H	-0.8030955749	-0.5756997687	 0.0665688314	 0.122253
H	 0.6759076748	-2.2817663063	-0.8832182906	 0.249029
H	 0.5314446869	-4.218942284	-2.4831532338	 0.140929
H	 1.9415760838	-4.2070492702	-3.5724496181	 0.15853
H	 2.1620400686	-4.0882036524	-1.8081983085	 0.14086
