16
gdb 78062	2.08118	1.72128	1.64344	4.9331	70.02	-0.2494	-0.0578	0.1915	959.5278	0.122482	-437.868179	-437.859828	-437.858884	-437.901138	30.283	
C	-0.1106897056	 1.6727399771	 0.0675044028	-0.425802
C	 0.1123694754	 0.1683152707	 0.002533118	-0.113094
C	 0.758589626	-0.5603977599	-1.1816238977	-0.069163
C	 2.2410199747	-0.4518072681	-1.2960878721	-0.106119
C	 3.0395681048	 0.7588795417	-0.9390297817	 0.147985
O	 3.0261356303	 1.3061535909	 0.1349080894	-0.239664
N	 1.6726193565	-1.376624194	-0.280617541	-0.185173
C	 1.167567496	-0.5690016984	 0.853450832	 0.403827
O	 1.4071058711	-0.6938309563	 2.007696888	-0.288613
H	 0.8026171042	 2.2364886297	-0.1183887378	 0.145758
H	-0.8699692739	 1.9781090647	-0.6596222478	 0.120021
H	-0.4732387092	 1.9437750615	 1.0635050764	 0.14199
H	-0.8367258503	-0.3431044205	 0.213560603	 0.126104
H	 0.2015351022	-1.0549395814	-1.96992324	 0.12063
H	 2.663122998	-1.001158213	-2.1357236935	 0.120548
H	 3.6753796299	 1.1335804254	-1.7700219382	 0.100767
