15
gdb 42783	2.6123	1.70231	1.44967	3.9885	72.49	-0.2473	-0.063	0.1843	935.0069	0.114106	-420.659216	-420.652441	-420.651497	-420.6904	26.727	
O	-0.0319879424	 0.0275307963	 0.045519664	-0.294931
C	-0.0362258938	 1.2151289851	-0.005320224	 0.428447
C	-1.1250386835	 2.3265098796	 0.0892995578	-0.19237
C	-0.0136238248	 3.1471425195	 0.8173899503	-0.244312
C	 1.0458129076	 2.3245792303	 0.00774998	-0.250879
C	 1.1525746306	 2.9088400494	-1.4121566083	 0.409246
O	 2.2116378851	 3.0809585125	-1.9713550169	-0.33643
C	-0.1719279661	 3.1844512933	-2.0167766258	-0.182611
C	-1.2704779609	 2.8679028801	-1.312043649	-0.04737
H	-2.07106939	 2.1123424812	 0.5839954753	 0.098439
H	-0.0292923969	 4.2238981075	 0.6401751779	 0.124612
H	 0.0351529081	 2.9330698941	 1.8869775917	 0.127143
H	 2.0323723696	 2.1118837769	 0.4162136505	 0.111509
H	-0.1987783698	 3.5899163206	-3.0213600184	 0.121992
H	-2.2668557027	 2.9656366738	-1.7301134349	 0.127516
