22
gdb 122824	4.7622	0.55678	0.54931	2.2121	80.96	-0.2463	0.0644	0.3107	2140.5391	0.192628	-441.537608	-441.526296	-441.525352	-441.576448	38.362	
C	-0.2779501227	 1.3104572867	-0.7192748714	-0.38016
C	-0.141039133	-0.0125192781	 0.0390056699	-0.160624
C	-1.4530680035	-0.7998698989	 0.1123860735	-0.16348
C	-1.3072978532	-2.1227819419	 0.8748120135	-0.167396
N	-2.5401140681	-2.884018113	 0.96486694	-0.362427
C	-2.8441776827	-3.8694921528	 0.0775355402	 0.518087
O	-2.1063652495	-4.3097218762	-0.77707927	-0.418915
O	-4.1106614132	-4.3131223357	 0.2992550278	-0.267402
C	-4.5265985591	-5.3739984765	-0.5615599496	-0.231031
H	 0.6743838289	 1.8481886183	-0.7589677649	 0.112804
H	-0.609279015	 1.1424061716	-1.7498273384	 0.117739
H	-1.0120334213	 1.9676328452	-0.2397995687	 0.113041
H	 0.6256035483	-0.6336598447	-0.4423247404	 0.103376
H	 0.2234219136	 0.1842971595	 1.0563157786	 0.093864
H	-2.2261835504	-0.1850641412	 0.5942940444	 0.085888
H	-1.8151734153	-1.0187127142	-0.8997620689	 0.111462
H	-0.5802912069	-2.7664506582	 0.3731269446	 0.143688
H	-0.9369011811	-1.9340925081	 1.8899662235	 0.102237
H	-3.2879442289	-2.5535688896	 1.5525639534	 0.249103
H	-5.5496097305	-5.6103587042	-0.2661902762	 0.126561
H	-4.4966817638	-5.0627554245	-1.6091610148	 0.136469
H	-3.8852785029	-6.2510358734	-0.4401085061	 0.137117
