17
gdb 38579	2.85224	2.23163	2.05917	1.7706	68.57	-0.2113	0.0749	0.2863	784.4474	0.140022	-421.796409	-421.790882	-421.789937	-421.825926	24.539	
C	-0.0337380114	 1.5622033341	 0.0607381527	-0.258233
C	 1.5170019986	 1.4862795914	-0.0041186667	 0.073997
O	 2.085765601	 1.319612899	 1.2908058916	-0.26332
C	 1.6639616243	 0.12235221	 1.8973903169	 0.054128
C	 1.8376925532	-1.1424217724	 1.1122576153	 0.050157
O	 2.218235055	-0.9267151321	-0.2273808534	-0.246782
C	 1.3637501054	 0.0909075987	-0.6941157525	 0.079949
C	-0.0233142934	 0.0099665347	 0.0232935558	-0.083426
C	 0.4344293217	-0.5851578825	 1.3480332639	-0.1587
H	-0.4607262589	 2.0543449275	 0.9363409326	 0.108443
H	-0.4557729991	 1.9934443214	-0.8511512535	 0.103163
H	 2.082018259	 2.2802269836	-0.4938262634	 0.08035
H	 1.8465528421	 0.137837401	 2.9656210289	 0.105171
H	 2.2236124254	-2.0664651267	 1.5245679881	 0.102781
H	 1.3764235987	 0.1124890467	-1.7838481845	 0.089266
H	-0.8496611583	-0.5356533189	-0.4340467799	 0.070727
H	-0.2755711531	-1.0551268455	 2.017694558	 0.09233
