19
gdb 56690	2.60407	1.33704	1.1368	2.0159	76.72	-0.2504	0.0209	0.2714	1151.8163	0.156531	-422.974168	-422.9646	-422.963655	-423.008177	36.434	
O	-0.034661995	 1.4550678973	 0.2558729528	-0.419776
C	 0.0659917614	 0.0477064893	 0.0821425105	-0.092215
C	 0.723427943	-0.3012350523	-1.1828705108	 0.250487
C	 1.3226693161	-0.5847126809	-2.1873756285	-0.432913
C	 0.7713952196	-0.6654844564	 1.2644104115	 0.412242
O	 0.7393203276	-2.0581811441	 1.0511056136	-0.479646
C	 2.1394702003	-0.0374639001	 1.6761398523	-0.290898
C	 1.4392417553	 0.6318000816	 2.89072525	-0.204447
C	 0.1980834822	-0.26982304	 2.6465070911	-0.263896
H	 0.8195276809	 1.8418845771	 0.0352450288	 0.291985
H	-0.9665713595	-0.3208254404	 0.0639085973	 0.127256
H	 1.8227870565	-0.8278523673	-3.0928389683	 0.206441
H	 1.1328913348	-2.2341017519	 0.1866188567	 0.277573
H	 2.834060463	-0.8271482099	 1.9717437379	 0.109804
H	 2.6407568815	 0.6108817504	 0.9502961964	 0.082485
H	 1.9374584276	 0.5266807767	 3.8562949108	 0.099001
H	 1.2196683813	 1.6869276656	 2.7199873924	 0.106694
H	-0.7796851601	 0.2163493595	 2.6481018028	 0.107756
H	 0.1699003035	-1.1454350942	 3.2985705927	 0.112067
