12
gdb 17148	4.43796	1.99402	1.62081	0.1531	61.25	-0.2526	-0.0027	0.2499	759.7604	0.081388	-381.177085	-381.17094	-381.169996	-381.207252	24.019	
C	-0.03756287	-1.141173587	 0.0797891906	-0.372315
C	-0.044488328	 0.0609726301	 0.070499238	 0.061859
C	-0.0330872755	 1.4838920825	 0.0296759144	 0.403283
O	-0.7162654661	 2.275995327	 1.0514951635	-0.344187
C	-0.1594064968	 3.3035362708	 0.1909321278	 0.021154
C	 1.1499267323	 2.5195447639	-0.1297728477	 0.000405
O	 1.008818113	 2.6389427979	-1.5677763757	-0.317475
C	-0.3670020439	 2.5029799183	-1.1311344942	 0.000402
H	-0.0342574635	-2.2035568838	 0.0924601117	 0.195756
H	-0.3303345644	 4.3503000897	 0.4325500462	 0.113579
H	 2.1427023116	 2.5364571422	 0.3177016876	 0.118769
H	-1.1687300286	 2.5002993782	-1.8682557323	 0.118769
