17
gdb 44865	3.39638	1.64506	1.51388	4.3444	69.98	-0.2539	0.016	0.2698	913.7106	0.139842	-421.857368	-421.851201	-421.850257	-421.887715	26.102	
O	-0.0119348751	 0.025385346	 0.0416949914	-0.350243
C	 0.0261334676	 1.2192965346	 0.0141724486	 0.452245
O	-1.0994734018	 2.0075329454	 0.0394725455	-0.244466
C	-0.6314130514	 3.3944808149	 0.0420568744	 0.083227
C	 0.5901263128	 3.29318847	-0.8830495742	-0.265559
C	 1.2254953894	 2.1812841144	-0.0241290691	-0.17749
C	 1.2211293944	 2.7806690389	 1.398686691	-0.024527
C	 1.2971020935	 4.274307659	 1.5904882303	-0.329736
C	-0.0504405823	 3.6140626762	 1.4380987256	-0.030443
H	-1.4633946168	 4.0241898397	-0.2680613783	 0.091954
H	 0.307952362	 2.9494380938	-1.8801725755	 0.123567
H	 1.178746934	 4.2045979839	-0.9744794749	 0.115343
H	 2.1475282766	 1.7138008666	-0.3621511714	 0.094305
H	 1.493734451	 2.1277771659	 2.2188731337	 0.111355
H	 1.5441279727	 4.597417805	 2.5963393112	 0.123851
H	 1.6959616404	 4.9258309067	 0.8224862766	 0.119946
H	-0.733560667	 3.5738020191	 2.277617075	 0.10667
