17
gdb 85462	2.46284	1.44053	1.07476	3.7244	73.87	-0.2806	0.0017	0.2823	1141.6049	0.136615	-418.045091	-418.036691	-418.035747	-418.078367	31.07	
C	-0.1780626611	 1.5023479051	-0.024686348	-0.426759
C	 0.1376087532	 0.0108801956	-0.0301000881	-0.006849
C	 1.0093987443	-0.4945087979	-1.1887685614	-0.31482
C	 1.619693594	-1.761997603	-0.6400093304	 0.417683
N	 2.1143563302	-2.7115925332	-1.298827246	-0.529058
O	 1.5420256379	-1.7393918614	 0.741974984	-0.232694
C	 0.946917197	-0.5163020034	 1.1860619619	-0.055732
C	 1.9976180191	 0.416531274	 1.634784861	 0.288689
N	 2.8112999812	 1.1584061809	 1.9844765075	-0.319365
H	 0.736110085	 2.1029622868	-0.0237519577	 0.148694
H	-0.7590131257	 1.7672783354	-0.9127123226	 0.130934
H	-0.7678891427	 1.7825354224	 0.8539216153	 0.128662
H	-0.79851433	-0.5592460174	-0.0261683978	 0.105467
H	 0.4626202824	-0.6887078118	-2.1114283955	 0.145489
H	 1.8082144663	 0.2224696848	-1.4153897694	 0.146826
H	 2.4712817974	-3.4415796028	-0.6800267054	 0.231282
H	 0.3080341314	-0.7477909841	 2.0427944926	 0.141553
