21
gdb 103290	2.41448	1.50588	1.2573	1.3755	78.72	-0.2257	0.0799	0.3056	1136.3506	0.180033	-424.17582	-424.166269	-424.165325	-424.209633	35.892	
C	-0.4956413385	 1.1286591696	 0.1488472954	-0.254531
O	 0.3710660569	 0.0275380879	-0.0763347001	-0.280535
C	 0.8381405547	-0.5763183665	 1.0952286535	 0.417789
C	 2.0699223082	 0.0836144893	 1.6844679235	-0.454974
C	-0.109783222	-1.2028402874	 2.0745824897	 0.000051
O	-1.2902463379	-1.6786925431	 1.4364632545	-0.306869
C	-0.5105693373	-2.6699855611	 0.6917124662	 0.147393
C	-0.8283737299	-2.7413126443	-0.786970561	-0.416362
C	 0.8023350493	-2.0821838049	 1.2175424577	-0.235233
H	-0.0029587065	 1.9341803442	 0.7113438335	 0.103292
H	-0.7732170916	 1.5143437207	-0.8349826346	 0.12328
H	-1.3994932598	 0.8140137418	 0.6831030913	 0.132514
H	 1.8787472453	 1.137106912	 1.9125861382	 0.122376
H	 2.3795088141	-0.4079605787	 2.6117392203	 0.119026
H	 2.9019851971	 0.0345184853	 0.9752012459	 0.129476
H	-0.1523148765	-0.9992865865	 3.1401270811	 0.097083
H	-0.683414734	-3.6470628053	 1.1633569366	 0.081134
H	-0.6262116621	-1.7903594665	-1.2778826405	 0.14901
H	-0.2184756247	-3.522112648	-1.2551517782	 0.113057
H	-1.8806256099	-3.009298582	-0.9299013202	 0.119567
H	 1.6798327848	-2.6607090964	 1.4778170072	 0.093456
