21
gdb 87494	2.9119	1.38997	1.13806	1.6245	83.72	-0.2527	0.098	0.3507	1176.2888	0.181862	-387.025098	-387.016543	-387.015599	-387.057809	33.676	
C	-0.0387984367	 1.5782624241	-0.0862730414	-0.414044
C	-0.0601569556	 0.0791561897	 0.0584471287	-0.086151
O	 1.2184250658	-0.6005865048	-0.1063959793	-0.327638
C	 0.5920739898	-0.6292088181	 1.1519941776	 0.544161
C	 1.1595511303	-0.2379774013	 2.5284726739	-0.167028
C	-0.1925170607	-0.7800606022	 3.089146013	-0.228593
C	 0.2493427277	-1.8417699175	 2.0334648176	-0.169827
C	 1.6911697359	-1.7123308162	 2.6443339374	 0.051135
C	 2.9239137732	-2.1773663463	 1.8848939269	-0.445826
H	 0.7923936201	 2.011801729	 0.4755585735	 0.125944
H	 0.0697299901	 1.864287235	-1.1377979877	 0.128825
H	-0.9746986034	 2.0113524029	 0.2838592245	 0.121101
H	-0.8759030266	-0.4276095444	-0.4607203748	 0.091588
H	 1.6756002843	 0.6796154069	 2.8124409586	 0.074412
H	-0.1722565798	-1.1121829111	 4.1292262838	 0.096176
H	-1.0911526443	-0.201078204	 2.8643594741	 0.093025
H	-0.2759963471	-2.7537937088	 1.7485755849	 0.074976
H	 1.7314579215	-2.0556417611	 3.6848888319	 0.061027
H	 2.920918136	-1.8559179865	 0.8426741002	 0.153137
H	 3.8317587609	-1.7880372438	 2.3597065695	 0.111568
H	 2.9915959984	-3.2710654115	 1.904573857	 0.112031
