23
gdb 122935	4.09704	0.58024	0.52704	1.8754	84.35	-0.252	-0.0217	0.2303	2145.4185	0.20202	-425.438222	-425.42676	-425.425816	-425.476411	39.192	
C	-0.0382236329	 1.4856861734	-0.065235376	-0.382175
C	-0.063376901	-0.0387100826	 0.069684233	-0.183665
C	-1.4639835154	-0.6131211197	-0.0915764861	-0.03039
O	-1.4005890596	-2.0180699482	 0.0436344135	-0.257471
C	-2.6540742095	-2.6500061836	-0.1013002302	-0.051003
C	-2.4521636517	-4.1509410303	 0.0813213374	-0.10097
C	-1.919252651	-4.5175888619	 1.4786360387	-0.401811
C	-3.7185047343	-4.9248990007	-0.2127447991	 0.15331
O	-4.7697351128	-4.4376888813	-0.5450356756	-0.24724
H	 0.9774173184	 1.873854042	 0.0531197139	 0.117553
H	-0.4034644067	 1.8059248083	-1.0472640503	 0.117363
H	-0.6668907791	 1.9645379656	 0.6936203846	 0.117045
H	 0.5894249936	-0.4980991289	-0.6814570721	 0.105898
H	 0.3263465749	-0.3404997462	 1.048762727	 0.104916
H	-2.1440682302	-0.1870021885	 0.6666122731	 0.084599
H	-1.8782868843	-0.3436237896	-1.0787178002	 0.085122
H	-3.3728605473	-2.2725644736	 0.6447127262	 0.094789
H	-3.0867281413	-2.443345664	-1.0918297772	 0.100987
H	-1.7083390702	-4.4910601958	-0.6563543815	 0.107359
H	-1.7471056093	-5.5946322208	 1.5705346427	 0.117244
H	-0.9771464446	-3.9971202175	 1.6579800076	 0.146475
H	-2.6291915024	-4.2189843652	 2.257618069	 0.124633
H	-3.6147342337	-6.028587821	-0.0890246085	 0.077431
