20
gdb 87259	3.70354	0.87321	0.83401	4.0497	78.12	-0.2539	0.0266	0.2805	1474.2714	0.167985	-440.27007	-440.259796	-440.258852	-440.306023	36.286	
C	 0.6997083567	 1.1310296491	-0.3667096231	-0.426622
C	 0.3247842017	-0.2226924341	 0.1790136499	 0.02986
O	 1.381954316	-1.0704138833	 0.6502851464	-0.295972
C	 0.3963549074	-0.6154608271	 1.5998972563	 0.366038
C	 0.8916736976	 0.3042394046	 2.6923598254	-0.470211
C	-0.5392048324	-1.7187751813	 2.0606419441	-0.154344
O	 0.0407711431	-2.5252875961	 3.0844576532	-0.187185
C	 0.9150752411	-3.475409241	 2.6779332515	 0.129766
N	 1.5224116179	-4.1688684506	 3.5390544542	-0.443081
H	 1.418986122	 1.6473378709	 0.2707379361	 0.131594
H	 1.1447483353	 1.0219330018	-1.3611047596	 0.134849
H	-0.1928620928	 1.7578862876	-0.4677290371	 0.125453
H	-0.4083836728	-0.7539974448	-0.4338899983	 0.083925
H	 0.0678554472	 0.9056620344	 3.0922492747	 0.122355
H	 1.3038629705	-0.2866462666	 3.5146195493	 0.155894
H	 1.6701353398	 0.9736970939	 2.3257287477	 0.130829
H	-1.4437550903	-1.2936879149	 2.5059796864	 0.122712
H	-0.8310648981	-2.338955756	 1.2043380371	 0.110042
H	 1.0063189178	-3.547194467	 1.5878953466	 0.105416
H	 2.1224790322	-4.8462362096	 3.0728300791	 0.228681
