21
gdb 99669	2.53728	1.10367	0.81408	3.1439	83.76	-0.2465	0.0302	0.2767	1448.9753	0.182948	-383.264327	-383.25456	-383.253616	-383.299637	35.204	
C	-0.1949038244	 1.4859915552	 0.0935432829	-0.329152
N	 0.2427299415	 0.0973409445	-0.0288449675	-0.272725
C	 0.7408054465	-0.4986515405	 1.2038327667	-0.139103
C	-0.2820701744	-0.5483331479	 2.281308016	 0.26841
N	-1.1188090634	-0.5835746119	 3.0791696712	-0.335326
C	 1.29784155	-1.8996730212	 0.9430886147	 0.046384
C	 2.5517719603	-2.020211095	 0.0372950118	-0.227532
C	 3.0881084103	-3.1169231456	 0.9982576478	-0.217229
C	 2.0842611563	-2.6176414176	 2.0743324779	-0.235837
H	 0.6624528955	 2.1124960265	 0.362974511	 0.126823
H	-0.5652857646	 1.8279900647	-0.8763685005	 0.127183
H	-0.9836540088	 1.6466445407	 0.8454167729	 0.125247
H	-0.5139714663	-0.4730298279	-0.3933457677	 0.227614
H	 1.5587201295	 0.1370369675	 1.5694207194	 0.119119
H	 0.4883976567	-2.5405962648	 0.5751384075	 0.081367
H	 2.3952843434	-2.2834122939	-1.0101852718	 0.104518
H	 3.1560805913	-1.1087165334	 0.0766087874	 0.103733
H	 2.8395797098	-4.1224917316	 0.6479274754	 0.106847
H	 4.1501646711	-3.0918267202	 1.2505274886	 0.102096
H	 2.5468470421	-1.8977747358	 2.7575245186	 0.105249
H	 1.5504076777	-3.3619190019	 2.6679649678	 0.112316
