16
gdb 33757	2.45828	1.66197	1.27287	4.4303	74.57	-0.277	0.0176	0.2946	1014.1664	0.124937	-400.685489	-400.678191	-400.677247	-400.717232	28.421	
N	 0.0273332605	-1.1064873079	-0.0421887796	-0.349985
C	 0.0113536552	 0.0495321025	-0.0123360705	 0.16008
C	-0.007479531	 1.4871669676	 0.004006826	 0.117629
C	-0.6912139802	 2.4372644098	 1.0485058618	-0.26209
C	-0.0290255292	 3.3965294633	 0.0052607775	-0.17046
C	 1.2178114782	 2.4593170894	 0.0456979869	-0.256291
C	-0.580835477	 2.4480998927	-1.0691975014	 0.513196
C	-0.7043600801	 2.4178008799	-2.5156936402	-0.312309
O	-1.8564867838	 2.4225893717	-1.6227516328	-0.290706
H	-1.7807914155	 2.4124247026	 1.07801026	 0.134287
H	-0.2471435988	 2.4296974123	 2.0458258026	 0.113219
H	-0.0394012278	 4.4838446443	 0.0072434145	 0.100249
H	 1.7778454765	 2.4533304878	 0.982021895	 0.11815
H	 1.8733028279	 2.4543643801	-0.8270938013	 0.116224
H	-0.5755876615	 3.3283679852	-3.0974192359	 0.129719
H	-0.5545414234	 1.4861489188	-3.0575238926	 0.139087
