20
gdb 102702	2.14504	1.16176	1.11301	3.7646	73.65	-0.253	0.0218	0.2748	1268.8684	0.169054	-477.397044	-477.386769	-477.385825	-477.433159	36.079	
C	 0.466589132	 0.6298151189	-0.3304878112	-0.244535
O	-0.0670447037	-0.50530468	 0.3238014783	-0.251017
C	-1.4439770618	-0.744803749	 0.1148385068	 0.107985
C	-1.8667640793	-0.7543881759	-1.3706471939	-0.093065
O	-1.0023525718	-1.4773517303	-2.2141198324	-0.416795
C	-1.7362110746	-2.0696448832	 0.8146969763	-0.112039
O	-1.1776640606	-3.1773563839	 0.1051488364	-0.209836
C	 0.1184380164	-3.4838752193	 0.3565824616	 0.146122
N	 0.7265525323	-4.2538549409	-0.434145662	-0.453209
H	 1.4837436618	 0.7581570675	 0.0474421113	 0.126444
H	 0.503563905	 0.4889564403	-1.4163001744	 0.141639
H	-0.1095721559	 1.5386782331	-0.0985148054	 0.101754
H	-2.0501395851	 0.031727485	 0.6201671079	 0.066201
H	-2.908032198	-1.1157256835	-1.4200581197	 0.0905
H	-1.8748965371	 0.2714329335	-1.7527426218	 0.109851
H	-0.9477267582	-2.3823413519	-1.8827492216	 0.309393
H	-1.3477547727	-2.0382797539	 1.8400834736	 0.117202
H	-2.8133571784	-2.2504261132	 0.8503908963	 0.122811
H	 0.5073462909	-3.0209241978	 1.269866515	 0.108411
H	 1.6725949687	-4.4244551356	-0.1003377911	 0.232183
