18
gdb 15139	8.31793	0.71874	0.70151	2.7598	70.38	-0.2532	-0.0258	0.2275	1582.9228	0.151226	-384.920701	-384.911775	-384.910831	-384.955857	30.696	
O	-0.3005298325	 1.0127671504	 1.1133263703	-0.232663
C	 0.0240915227	 1.2863414862	-0.012749275	 0.153602
C	 1.3973517568	 1.7605380757	-0.4285293117	-0.279959
C	 1.3421451949	 3.0824300295	-1.1937003295	-0.064393
O	 2.625159974	 3.3217281331	-1.7394663561	-0.247439
C	 2.7079036978	 4.5240018924	-2.4411878458	 0.144916
C	 2.9680629405	 5.8021568229	-1.6842300845	-0.287368
C	 4.0583535271	 5.1549847543	-2.5167852444	-0.286114
H	-0.7034522387	 1.1953896439	-0.8542220375	 0.072663
H	 2.037743797	 1.8377529247	 0.4529974383	 0.130052
H	 1.8236998914	 1.0049371343	-1.1032771602	 0.132998
H	 0.5883762383	 3.0275345359	-1.9977924755	 0.091435
H	 1.0464913786	 3.9055733719	-0.5260298252	 0.106914
H	 2.0609541972	 4.5736528675	-3.3183709714	 0.084205
H	 2.5128971651	 6.7211805698	-2.0364783664	 0.115088
H	 3.0630317479	 5.7229903093	-0.6069736864	 0.12151
H	 4.8542561954	 4.6513599771	-1.9804682333	 0.127988
H	 4.3592025666	 5.623630651	-3.4467121457	 0.116567
