17
gdb 33028	4.73467	0.86123	0.77627	2.4736	76.41	-0.2495	-0.0396	0.2099	1434.568	0.138022	-418.05349	-418.04524	-418.044296	-418.087408	29.557	
O	-0.0675309114	 1.457243276	 0.0107009075	-0.414099
C	 0.0339643782	 0.0452295308	 0.0026942999	-0.061465
C	-1.3911794578	-0.5162694013	 0.0118686577	-0.304793
C	-1.4107721946	-2.0212086371	 0.004228424	 0.212497
C	-1.4164814476	-2.7665750325	-1.1756385004	-0.040751
N	-1.4032718743	-4.1001258265	-1.1997983511	-0.247021
C	-1.3845027775	-4.7021318627	-0.009881165	 0.0763
N	-1.3869341257	-4.112525136	 1.1863554574	-0.247014
C	-1.400372432	-2.7787823813	 1.1762422575	-0.040824
H	 0.8207053983	 1.825776509	 0.0053687649	 0.290316
H	 0.566194255	-0.3198385188	-0.8903702577	 0.09404
H	 0.5811242911	-0.3288499606	 0.8829053302	 0.094051
H	-1.9055947345	-0.1318768869	 0.8989788898	 0.12089
H	-1.9205310764	-0.1226745624	-0.8623311285	 0.120928
H	-1.4406808949	-2.2642119266	-2.1421400542	 0.113464
H	-1.370972615	-5.7893901497	-0.0156251574	 0.120013
H	-1.4112510808	-2.2864852436	 2.1481488756	 0.113468
