18
gdb 17290	3.1004	2.44482	1.86042	1.9178	70.26	-0.2434	0.0662	0.3096	796.008	0.154455	-347.745296	-347.738503	-347.737558	-347.77572	27.562	
C	-0.0016891115	 1.5353406815	-0.0304482684	-0.497073
C	-0.0038336833	 0.0251246992	-0.0026826939	 0.313821
C	-1.347158652	-0.7358776304	 0.0837623716	-0.147149
O	-0.865942721	-1.5389236605	 1.1934950796	-0.3011
C	 0.3851362408	-0.8070892881	 1.236817196	 0.066706
C	 1.5791323334	-1.4298130072	 0.4836994377	-0.057593
C	 1.1014427431	-2.1627219715	-0.7347790408	-0.300976
C	 1.1525618813	-0.662246187	-0.7810788871	-0.114245
H	 0.9999068293	 1.9298214069	 0.1739897146	 0.120945
H	-0.3079165719	 1.9118714195	-1.0140330327	 0.12033
H	-0.6876463127	 1.9491771303	 0.7160785928	 0.119163
H	-2.1955522983	-0.1096323654	 0.3898509091	 0.096019
H	-1.6427048306	-1.3470316573	-0.7771163964	 0.099729
H	 0.591644185	-0.3740536513	 2.2192549252	 0.072534
H	 2.5679653817	-1.5791579275	 0.9003286548	 0.083639
H	 1.8818266284	-2.6574202542	-1.30425717	 0.110692
H	 0.1624794242	-2.7038472419	-0.7017906057	 0.130557
H	 1.7760816241	-0.1400824852	-1.4980658162	 0.084
