20
gdb 116071	2.55094	1.28669	0.90294	5.0508	76.26	-0.2488	0.0583	0.3071	1314.5542	0.172345	-440.349059	-440.340047	-440.339103	-440.383265	33.25	
C	-0.0394086903	 1.5573237623	-0.0253513217	-0.389977
C	-0.005382422	 0.0268944057	-0.0317881574	-0.189424
C	 0.7395472865	-0.557390797	-1.2273108461	 0.148723
C	 0.8129077182	-2.0791040185	-1.2311509831	-0.227847
C	 1.566573663	-2.5330665229	-2.4770935753	-0.165654
N	 1.0741505811	-1.7933004412	-3.6270499286	-0.360068
C	 0.3150372716	-0.6532255694	-3.6230392036	 0.458953
O	-0.123691438	-0.1468769028	-4.6262052689	-0.39552
O	 0.0485698561	-0.1030864489	-2.4083145393	-0.256968
H	 0.9724952306	 1.9747735317	 0.0235851704	 0.112499
H	-0.5162181163	 1.9366664808	-0.9319616196	 0.148533
H	-0.5960628391	 1.9300600384	 0.8392441916	 0.113499
H	 0.4788098656	-0.3447591316	 0.8797971799	 0.096713
H	-1.0267165456	-0.3728761577	-0.0352032966	 0.109194
H	 1.7604306063	-0.1445693888	-1.2557452649	 0.083705
H	 1.3222626428	-2.4388768351	-0.3325440558	 0.111235
H	-0.2051211783	-2.4846820732	-1.2297517739	 0.119668
H	 2.6454969664	-2.3664454746	-2.3407429259	 0.109698
H	 1.425465005	-3.6062593074	-2.6476074749	 0.115297
H	 1.2485551465	-2.1458402697	-4.5536957465	 0.257741
