17
gdb 122733	4.92735	0.49144	0.4581	6.1153	84.62	-0.2443	-0.041	0.2033	2258.2584	0.135171	-417.97251	-417.962527	-417.961583	-418.008859	34.107	
O	-0.1246552003	 1.4432139484	-0.0669068726	-0.42132
C	 0.0119688735	 0.028918036	 0.0122708929	-0.091313
C	-1.3908953925	-0.5549416457	 0.0070919118	-0.109854
N	-2.0531572863	-0.2246321345	-1.2497034646	-0.296254
C	-3.4633298328	-0.5947867208	-1.2590827772	-0.299724
C	-4.1129130369	-0.2066767242	-2.5043025198	 0.025995
C	-4.6580305097	 0.1319818042	-3.5273814582	 0.117542
C	-5.2730922232	 0.5113078421	-4.6856809101	 0.204394
N	-5.7977775225	 0.8345481939	-5.6704870556	-0.33733
H	 0.7361507377	 1.8247918701	-0.2596020096	 0.294998
H	 0.5709974803	-0.3651907917	-0.8480669485	 0.105419
H	 0.5327254775	-0.2726340526	 0.9333401039	 0.094171
H	-1.3279931936	-1.6459677979	 0.1073309937	 0.106128
H	-1.935088872	-0.1754411079	 0.8919280621	 0.092524
H	-1.9574565362	 0.7750766868	-1.4000101597	 0.238811
H	-3.5396703113	-1.6860450659	-1.1498845485	 0.148489
H	-4.0425223018	-0.1664737402	-0.41720956	 0.127323
