19
gdb 114847	3.00035	1.47393	1.31938	2.437	68.87	-0.261	0.0718	0.3328	1027.967	0.162287	-460.163705	-460.156249	-460.155305	-460.195966	29.391	
O	 0.0771888964	 1.3710365762	 0.1886558819	-0.427199
C	 0.0141091928	 0.0042763843	-0.1843151484	-0.076487
C	-1.4020481617	-0.5737711213	-0.0690034072	-0.030616
C	-1.4553429821	-2.1325618342	 0.0190497171	-0.259861
C	-2.0976469621	-2.3152079001	 1.4110667618	 0.043169
C	-1.1157044739	-1.840547022	 2.5037820194	-0.090129
O	-1.1548076622	-0.4098060018	 2.334097364	-0.287846
C	-2.0952092487	-0.2169172998	 1.2683017767	 0.173007
O	-3.0494988653	-1.2372458054	 1.4458813225	-0.244041
H	 0.0159257181	 1.3891680108	 1.1504920965	 0.292937
H	 0.3564190458	-0.0508279782	-1.223191839	 0.108438
H	 0.7091046209	-0.5977799746	 0.4182826354	 0.088386
H	-2.0189778273	-0.2014967942	-0.8919879999	 0.086597
H	-2.0930964391	-2.5649323233	-0.7542469533	 0.112988
H	-0.466854232	-2.5964854461	-0.0524253237	 0.102168
H	-2.591252663	-3.2664818273	 1.6032024717	 0.090723
H	-1.4602515848	-2.0960077622	 3.511568755	 0.112783
H	-0.0964668083	-2.2152227202	 2.3608678028	 0.104074
H	-2.5478190035	 0.7690392693	 1.3549179767	 0.100907
