18
gdb 56986	2.88674	1.24673	0.98541	5.2789	75.75	-0.2376	0.0287	0.2663	1205.4958	0.1491	-398.082981	-398.074475	-398.073531	-398.116434	31.95	
N	 0.0311524955	 1.4062424928	 0.2246695177	-0.508863
C	-0.0678832023	-0.0407991061	 0.0111946262	-0.140582
C	-1.4854389592	-0.4385596789	 0.0289832134	 0.295627
N	-2.5912277374	-0.7720858391	-0.0084010386	-0.329225
C	 0.5878613072	-0.5760855407	-1.2756008525	 0.009321
C	 2.1521275323	-0.4410431569	-1.4056902744	-0.268777
C	 2.2268095809	-1.9652626598	-1.5378016245	-0.037447
N	 1.6441583306	-2.5068274941	-0.2880428223	-0.331578
C	 0.7511197986	-2.0990058894	-1.4010707655	-0.06195
H	 1.0108350667	 1.6606564995	 0.3063088441	 0.238867
H	-0.3374385022	 1.9039570998	-0.5813284862	 0.2356
H	 0.4187967796	-0.5382737535	 0.8574888855	 0.15153
H	 0.0845509923	-0.1527405867	-2.1495069946	 0.087372
H	 2.4474282859	 0.0955326736	-2.309062249	 0.110778
H	 2.6844341116	-0.0285641899	-0.5435233692	 0.104806
H	 2.9267572021	-2.5477142725	-2.1231488117	 0.100852
H	 1.7227474688	-3.5223213553	-0.3254913566	 0.235692
H	 0.059868049	-2.8022519629	-1.8471473017	 0.107978
