23
gdb 103758	2.55464	1.20445	0.97384	1.4518	82.71	-0.2429	0.071	0.3139	1330.1853	0.202536	-425.401823	-425.390928	-425.389984	-425.437025	40.509	
C	-0.3936960767	 1.2119074649	 0.3200797674	-0.245873
O	 0.3783095705	 0.0723416191	 0.0001271828	-0.280882
C	 0.825913338	-0.6707082305	 1.1076696548	 0.418729
C	 1.9234535107	 0.0074954187	 1.9003719019	-0.475997
C	-0.2059974038	-1.5360908531	 1.8035409244	-0.405654
C	 0.8288144204	-2.1671898825	 0.8833387271	 0.224883
C	 0.3597626446	-2.6956250547	-0.4610068063	-0.453734
C	 1.9369129039	-3.0419993853	 1.4787215715	-0.149969
O	 2.1136571572	-2.9575055559	 2.8852568404	-0.405845
H	 0.1940738301	 1.9861505479	 0.8321558261	 0.109731
H	-0.7577030189	 1.622168206	-0.6252711885	 0.123628
H	-1.2552542048	 0.9558896502	 0.953544071	 0.104842
H	 1.566884389	 0.9397125717	 2.3515276724	 0.109783
H	 2.2808169186	-0.6417226116	 2.7001353679	 0.150976
H	 2.7647642779	 0.2536335307	 1.2433034825	 0.117383
H	-0.1097217545	-1.6682891091	 2.8765534068	 0.099998
H	-1.2280277293	-1.4922808056	 1.4414205937	 0.109949
H	-0.3420037155	-2.0086134936	-0.9333951951	 0.132571
H	 1.2061569898	-2.8239206993	-1.1466789469	 0.115395
H	-0.1236293092	-3.6726209516	-0.3445039936	 0.106521
H	 1.7426849642	-4.0846527182	 1.1834835783	 0.091455
H	 2.9035490853	-2.7637102219	 1.0435121382	 0.117064
H	 1.3295994224	-3.3316326166	 3.2989631732	 0.285047
