25
gdb 60160	3.92425	0.7109	0.64771	1.4367	89.87	-0.2524	0.077	0.3294	1829.6077	0.227467	-389.488952	-389.478288	-389.477344	-389.525226	39.954	
C	-0.0346062513	 1.5633561617	-0.0569343103	-0.387993
C	 0.0366951743	 0.034416623	 0.0617783715	 0.041085
C	 0.830597608	-0.368942576	 1.3124124964	-0.377071
C	-1.3786966669	-0.5728658121	 0.0260449944	-0.191029
C	-1.4591380292	-2.0941598203	-0.0729605118	 0.033526
C	-1.3003626323	-2.9895345948	 1.1946482714	-0.240631
C	-2.4244971714	-3.8916169489	 0.6545313174	 0.137372
O	-3.3105018041	-4.3605663373	 1.6453585236	-0.433375
C	-2.8676569104	-2.7268631015	-0.2713088709	-0.284474
H	 0.9664099111	 2.006980715	-0.0802392889	 0.107152
H	-0.5601736298	 1.8708875565	-0.9672580692	 0.10725
H	-0.568260702	 1.9973567281	 0.7974261623	 0.110933
H	 0.5787875908	-0.3442329042	-0.8176194068	 0.06762
H	 0.3160919292	-0.0412775003	 2.223961255	 0.10965
H	 0.9704044207	-1.4507859271	 1.3800815091	 0.117661
H	 1.8231785783	 0.0942042038	 1.3096886812	 0.105639
H	-1.9403826615	-0.2391940371	 0.9111429937	 0.086183
H	-1.9076742416	-0.1517244361	-0.8406605497	 0.088709
H	-0.7833621784	-2.4450047141	-0.8626454402	 0.064936
H	-0.3318222935	-3.4486254709	 1.4040916684	 0.096414
H	-1.6512545452	-2.469076871	 2.091476814	 0.109684
H	-2.0127906885	-4.7241566425	 0.0649914958	 0.062366
H	-3.9770236382	-4.9093534773	 1.2199062379	 0.279705
H	-3.6373935342	-2.1317855261	 0.2316369766	 0.101583
H	-3.196196704	-2.9576242005	-1.2885048209	 0.087104
