18
gdb 74834	2.63717	1.6065	1.11929	3.6378	79.19	-0.2335	0.0033	0.2368	1105.2928	0.148561	-401.970318	-401.962425	-401.961481	-402.002663	30.502	
C	 0.1249565184	 1.4904610143	-0.0941405387	-0.481575
C	 0.012746701	 0.0004312051	 0.0430082863	 0.298173
C	-1.0966461929	-0.688777921	-0.2454116612	-0.168413
C	-1.1428693759	-2.1601742241	-0.0655738172	-0.072206
C	-0.7175461167	-3.1228716483	-1.1464876622	-0.237406
N	 0.1386781126	-2.8461501642	-0.0044196916	-0.091356
C	 1.3138585476	-2.0982699196	-0.164636892	 0.359276
O	 2.258895338	-2.4877065806	-0.8068734525	-0.33332
C	 1.2484215411	-0.7456360985	 0.5331986276	-0.392997
H	 0.9080343	 1.7599407992	-0.8138982375	 0.136347
H	-0.8152939064	 1.9393336937	-0.4247021105	 0.125386
H	 0.4095446538	 1.9501943524	 0.8609520497	 0.131281
H	-2.0011006361	-0.1839159558	-0.5735893272	 0.09351
H	-1.8847365095	-2.5304671651	 0.6435796844	 0.106538
H	-1.1554632361	-4.1165671996	-1.1848934118	 0.125941
H	-0.4079329301	-2.7110215816	-2.1029663594	 0.135412
H	 2.1661178581	-0.200514693	 0.3024862737	 0.129373
H	 1.204997893	-0.8776870032	 1.62247659	 0.136037
