20
gdb 14058	3.11144	1.57951	1.39445	2.0284	75.09	-0.2378	0.0704	0.3082	1013.4072	0.176189	-348.971112	-348.962428	-348.961484	-349.00417	31.811	
C	-0.0785734566	 0.8126772252	-2.0919800718	-0.411171
C	 0.0358560727	-0.3177339645	-1.0913672248	-0.083498
C	 1.3213109277	-0.6379544864	-0.3441869402	-0.083495
C	 2.603596802	 0.1445157926	-0.5329479511	-0.411171
C	 0.1441286445	-0.0537646522	 0.3834507643	 0.274282
C	 0.0421681297	 1.275414112	 1.1285236615	-0.137524
O	-0.7252023445	 0.6499323246	 2.1806975522	-0.277199
C	-0.6694754106	-0.6399571509	 1.5319743551	-0.140685
H	 0.489396696	 1.695641413	-1.7858547185	 0.117669
H	 0.2904929744	 0.5085246489	-3.0775776055	 0.119417
H	-1.1225737162	 1.1231090026	-2.210735426	 0.120811
H	-0.5601615407	-1.190667177	-1.3526682821	 0.081932
H	 1.4831116166	-1.6996701143	-0.1649984378	 0.081932
H	 2.4201629242	 1.2146568165	-0.663632835	 0.117669
H	 3.2601908385	 0.0313436911	 0.3368129592	 0.120811
H	 3.1556278485	-0.2052456257	-1.4121804987	 0.119417
H	 0.9854142603	 1.694637104	 1.5040740565	 0.098189
H	-0.5248523989	 2.0708457216	 0.6262523814	 0.098189
H	-1.6702147278	-1.0126664076	 1.273189557	 0.097211
H	-0.1582484199	-1.3893313637	 2.1520112345	 0.097212
