20
gdb 53976	2.61636	1.12548	0.9561	2.2839	77.78	-0.2519	-0.0221	0.2298	1315.1716	0.166426	-440.308689	-440.297909	-440.296964	-440.345277	38.264	
C	-0.0650732099	 1.4095312506	-0.4801184275	-0.47513
C	-0.034375234	 0.018335929	 0.1049871864	 0.367011
O	 0.9526744879	-0.4564901857	 0.6172045706	-0.317613
C	-1.3234434339	-0.8429727276	 0.0492595105	 0.2415
C	-1.0144207322	-2.106353683	-0.7660140307	-0.417236
C	-1.7386110169	-1.1676233779	 1.4910156183	-0.417176
O	-2.3118271866	-0.022503375	-0.6089944005	-0.23172
C	-3.5538046248	-0.5021166845	-0.8078304954	 0.121455
N	-4.413459908	 0.2229328261	-1.3833853482	-0.444471
H	 0.915092778	 1.8704217542	-0.3558815884	 0.135581
H	-0.3421120864	 1.3713675265	-1.5380537892	 0.156231
H	-0.8387561041	 2.0106332755	 0.0072009106	 0.156173
H	-0.1387129678	-2.5986923161	-0.3385710309	 0.152012
H	-1.8525390136	-2.8086199445	-0.7487963821	 0.116796
H	-0.7995294485	-1.8482116724	-1.8069961707	 0.133501
H	-2.026843632	-0.2557620042	 2.021953821	 0.133521
H	-2.5805374322	-1.8650398584	 1.5174200043	 0.116831
H	-0.8926904309	-1.6231590979	 2.0095668048	 0.151966
H	-3.7147729376	-1.5202108663	-0.4376140318	 0.092054
H	-5.2953830965	-0.2799781585	-1.457515041	 0.228714
