20
gdb 19658	4.19293	1.96387	1.85393	0.1465	77.88	-0.2669	0.0943	0.3612	831.9621	0.180294	-311.841396	-311.834992	-311.834048	-311.87148	27.102	
C	-0.2114226659	 1.6215109844	-0.0399621615	-0.434302
C	 0.0433492151	 0.1208951899	 0.000253384	 0.052927
C	 1.1082781187	-0.5875963781	-0.8959778668	-0.061606
C	 2.4149663206	 0.134459935	-0.5138574286	-0.207704
C	 2.3877257549	-0.3181191442	 0.963197974	-0.040171
C	 2.5492493522	-1.8535406834	 0.7991089277	-0.237636
C	 1.1447083866	-1.7574873762	 0.1874929703	-0.02168
C	 0.8186692889	-0.5624227525	 1.1382476837	-0.039892
H	 0.6854794909	 2.2084221218	 0.1760815158	 0.116252
H	-0.5884624449	 1.9338721726	-1.020833589	 0.112311
H	-0.966004668	 1.899101139	 0.7046767305	 0.112619
H	-0.9107149803	-0.4095615586	-0.1155450969	 0.065622
H	 0.916871124	-0.7858463688	-1.9509048676	 0.052972
H	 3.2944691134	-0.2458207558	-1.0420601647	 0.088799
H	 2.3710216675	 1.215014228	-0.6655977496	 0.09041
H	 2.9702328808	 0.245693198	 1.6911696855	 0.056724
H	 3.3901796988	-2.2207919583	 0.200811981	 0.084246
H	 2.5171305234	-2.3854994297	 1.7548725582	 0.092407
H	 0.4757148187	-2.6046436977	 0.039585222	 0.06054
H	 0.4387329648	-0.6892653053	 2.1523182117	 0.057162
