17
gdb 45333	2.48602	1.84125	1.14984	5.6506	75.58	-0.248	-0.0099	0.2381	1043.9238	0.138351	-418.04392	-418.036593	-418.035649	-418.075953	28.379	
N	 0.0747399505	 1.1458168133	 0.6591345626	-0.490954
C	 0.1297191074	 0.0294647769	 0.0662806241	 0.328778
C	 1.2513125076	-0.6343261767	-0.7471675763	-0.304204
C	 0.9653289509	-2.1507399554	-0.6339371173	-0.246323
C	-0.5701532137	-2.1821262272	-0.5829775086	 0.04084
C	-1.3472446565	-2.9424369184	 0.5245798582	-0.404488
C	-1.5735533084	-1.5539006632	 1.1686197627	 0.404126
O	-2.0474226756	-1.1343522797	 2.1775542297	-0.302761
N	-0.919377941	-0.9091822199	 0.0838483182	-0.105633
H	 0.9608633448	 1.6421217882	 0.5630219628	 0.221599
H	 1.1840307781	-0.3028164461	-1.7908274163	 0.132823
H	 2.2337723431	-0.3388821616	-0.3719884093	 0.125392
H	 1.384570999	-2.7330847612	-1.4571762092	 0.11347
H	 1.3820157703	-2.538343077	 0.3024770278	 0.115657
H	-1.0089222496	-2.2658291979	-1.5824086647	 0.093248
H	-2.2560532115	-3.4625099582	 0.2161237511	 0.138908
H	-0.7433042753	-3.606323136	 1.1472283444	 0.139524
