15
gdb 35659	4.15866	0.93311	0.80064	3.5762	78.92	-0.2859	-0.064	0.2219	1345.8404	0.114271	-379.716866	-379.708908	-379.707964	-379.749948	28.796	
N	-0.1694966203	-1.1578968969	-0.1959248159	-0.31268
C	-0.0990126571	-0.0070760583	-0.1205529266	 0.267814
C	-0.0124831238	 1.4499800764	-0.019051516	-0.177817
C	-0.6273068794	 2.0213302195	 1.2963091743	-0.235458
C	 0.2450947521	 3.2484272074	 1.6458485855	-0.320105
C	 1.5414097593	 2.9614450701	 0.9080011741	 0.1954
C	 1.4091536866	 1.9793382337	 0.0095285052	-0.150298
C	 2.729267693	 3.709105179	 1.1366966236	 0.21078
N	 3.6784553458	 4.3374372975	 1.349489422	-0.32168
H	-0.528494678	 1.863831638	-0.8980573767	 0.146851
H	-1.6849036789	 2.2627962666	 1.1813578962	 0.130217
H	-0.5390950243	 1.2675367286	 2.0820710703	 0.143495
H	-0.1926426936	 4.186261163	 1.282336342	 0.136206
H	 0.3946149186	 3.365457909	 2.7224238705	 0.140139
H	 2.1828256	 1.6188821564	-0.6556116087	 0.147136
