15
gdb 105607	2.28151	1.47499	1.28435	2.051	62.28	-0.2559	-0.0564	0.1995	1044.7791	0.10984	-494.905408	-494.896519	-494.895575	-494.939516	30.538	
C	-0.1227684143	 1.435645486	 0.0353440129	-0.275871
O	 0.0854507824	 0.0192036483	 0.106122313	-0.286745
C	 0.6799050787	-0.5609812342	-1.0009672556	 0.132157
C	 0.443080734	-2.0859503623	-1.0980637888	-0.127031
O	-0.2065265359	-1.9284236304	-2.4001132144	-0.228681
C	-0.1345147533	-0.5659798294	-2.3395209367	 0.394765
O	-0.5897875481	 0.2327298747	-3.0900034411	-0.309624
C	 2.1427751053	-0.191483812	-1.2324514279	 0.126509
O	 2.7562336797	 0.589908251	-0.5588236818	-0.247353
H	 0.8275955768	 1.9743804001	 0.0264015371	 0.14872
H	-0.7125862836	 1.7015646386	-0.8483866217	 0.14332
H	-0.6825606354	 1.6943886626	 0.9354407641	 0.137422
H	 1.3195879837	-2.7309884794	-1.1777696814	 0.137242
H	-0.2568307431	-2.4468546989	-0.3442276518	 0.153997
H	 2.6090523831	-0.7245037344	-2.0924798259	 0.101171
