17
gdb 8505	3.83094	2.08516	1.62043	1.3973	68.54	-0.2316	0.066	0.2976	839.5306	0.140879	-363.76057	-363.753256	-363.752312	-363.791543	28.574	
C	 0.0258334918	 1.4515171297	-0.090735034	-0.533828
C	 0.0126381715	-0.0442291867	-0.0544782798	 0.307623
N	 0.5903299326	-0.9309144779	-1.1235022099	-0.407159
C	 0.0610429261	-1.921896649	-0.1232229746	 0.307623
C	 0.1511135903	-3.4083291987	-0.2686581011	-0.533828
C	 0.4937910383	-1.0137094992	 1.0699699699	 0.024959
O	-0.7957857203	-1.0717085547	 1.74615205	-0.334687
C	-1.1463878303	-1.0289629526	 0.3316968541	-0.008171
H	 1.047167393	 1.8266753798	-0.2076981173	 0.134867
H	-0.5749493244	 1.8348259499	-0.9227101221	 0.121963
H	-0.3893696892	 1.8471366035	 0.841558623	 0.138991
H	-0.0090550378	-0.9159545958	-1.9541278341	 0.201771
H	 1.1901714539	-3.7208843498	-0.4108376626	 0.134867
H	-0.2413903806	-3.8918538684	 0.6314666104	 0.138992
H	-0.4307492094	-3.7602262662	-1.1275249723	 0.121963
H	 1.4072423481	-1.0119144637	 1.664125142	 0.097122
H	-2.2012301936	-1.0457798501	 0.0482819283	 0.086932
