21
gdb 58782	2.50775	1.25054	1.19525	1.6842	79.29	-0.2397	0.0757	0.3154	1198.8985	0.180678	-424.1951	-424.185438	-424.184494	-424.229229	36.881	
C	 0.1787181941	 1.3862005362	 0.2886418725	-0.409652
C	-0.095825036	-0.0907170094	-0.0133967084	 0.007948
O	-1.4939100644	-0.3285818807	-0.1806978724	-0.440829
C	 0.5731108457	-0.5514345653	-1.2756376672	 0.359533
C	 2.0299705106	-0.9614474135	-1.3266576769	-0.415813
C	 0.9682496006	-1.9504169075	-1.7301525134	 0.346055
O	 0.7763475323	-3.1373889018	-1.0440871752	-0.464803
C	 0.4650195006	-1.6753912374	-3.1488728187	-0.286216
C	 0.1005202903	-0.2188621197	-2.7002599819	-0.286874
H	 1.2500523145	 1.5651943122	 0.4214396943	 0.11959
H	-0.1822494063	 2.017601038	-0.5291597784	 0.125687
H	-0.3292556071	 1.6963129067	 1.2097486917	 0.100905
H	 0.2912370605	-0.7033910984	 0.8176815187	 0.067832
H	-1.9492895117	 0.0404985997	 0.5824012332	 0.279463
H	 2.7090115717	-0.5156970208	-2.0516986872	 0.097789
H	 2.4744489003	-1.1710645703	-0.3576012824	 0.107846
H	 1.5522789947	-3.6932864967	-1.1753627817	 0.283499
H	 1.1904310346	-1.7862590527	-3.9624766438	 0.085203
H	-0.4259227247	-2.2630790366	-3.3801221631	 0.112987
H	-0.971063341	-0.0227258164	-2.7453479238	 0.122184
H	 0.6402227706	 0.5891963043	-3.2048266759	 0.087665
