19
gdb 70998	3.18782	1.54693	1.41947	1.3886	75.83	-0.237	0.0443	0.2813	996.7801	0.159438	-422.908693	-422.901341	-422.900397	-422.939871	30.523	
C	 0.005718891	 1.5858495105	 0.1491645517	-0.481188
C	-0.0054237469	 0.0914174756	 0.0037494173	 0.371007
C	-1.3590929327	-0.7768019197	-0.2237271296	-0.359805
C	-0.2408678376	-1.8015886396	-0.6029571854	 0.357865
C	 0.4600486724	-1.9336509166	 0.7720126968	-0.124605
O	 0.5847447135	-0.5453166373	 1.1268650478	-0.285217
O	 0.1870943088	-2.8057502561	-1.562526009	-0.357422
C	 1.3297207606	-1.9032201307	-1.8657451597	-0.188727
C	 0.4966725941	-0.7052673365	-1.2909278488	-0.085969
H	 1.0329512731	 1.9400447498	 0.2772280937	 0.135713
H	-0.4249211395	 2.0634433495	-0.734212545	 0.1222
H	-0.5724838705	 1.8877475438	 1.0279288445	 0.132113
H	-1.962849815	-0.9445671362	 0.673175121	 0.103907
H	-1.9641983296	-0.4325693963	-1.0608287091	 0.115462
H	-0.1534434446	-2.4672279326	 1.5066923733	 0.105008
H	 1.4467098527	-2.4031257263	 0.7255157835	 0.106562
H	 2.2269567753	-2.2120839064	-1.3242625245	 0.119879
H	 1.5239582765	-1.8674113829	-2.9397981641	 0.120238
H	-0.1062932815	-0.3388220922	-2.1246589843	 0.092979
