20
gdb 106139	2.51407	1.52987	1.22837	2.0974	78.88	-0.2258	0.0703	0.2961	1108.5917	0.171317	-403.072337	-403.063812	-403.062868	-403.10554	32.769	
C	-0.0716118486	 1.4675442592	 0.0609870244	-0.508898
C	 0.0236086214	-0.0283153525	 0.00348374	 0.245624
C	 0.9034953594	-0.9011278922	-0.8794138456	-0.224001
N	 0.0280334573	-2.0935546996	-0.5462619843	-0.221898
C	 0.3260694405	-2.274272111	 0.9313828683	-0.181806
C	-0.3491405818	-0.9437360475	 1.200031797	-0.174537
C	-1.058463773	-1.0663977341	-0.1207677174	 0.334022
C	-2.4682999468	-1.1582680751	-0.5873344115	-0.221321
O	-3.0409518435	-2.418878882	-0.2694684203	-0.413105
H	 0.8251370516	 1.9029935848	 0.516848138	 0.125011
H	-0.1786366968	 1.8985925424	-0.9408825727	 0.121866
H	-0.9322988656	 1.7920220592	 0.655328388	 0.122603
H	 0.8010565275	-0.6582811994	-1.9414312239	 0.103693
H	 1.9647934463	-1.0330604636	-0.6357392188	 0.093927
H	-0.2456373612	-3.1226636727	 1.3158094347	 0.111626
H	 1.388752343	-2.4077511484	 1.1650612125	 0.095186
H	-0.7292369862	-0.5242136077	 2.1238952862	 0.089989
H	-3.0815544216	-0.3974250558	-0.0922354543	 0.11485
H	-2.5190020564	-0.9670740751	-1.6717451472	 0.093913
H	-2.4590283853	-3.0827067289	-0.6583188632	 0.293258
