24
gdb 5853	2.86953	1.35045	1.19508	1.4242	81.11	-0.259	0.0675	0.3265	1195.0564	0.220411	-351.419918	-351.409218	-351.408274	-351.454588	40.213	
C	-0.0036907836	 1.6362278708	 0.0559427948	-0.376298
C	-0.0030483463	 0.1053250085	-0.0103151869	-0.214698
C	 0.6735833418	-0.5371730092	 1.2096201453	 0.141199
O	 0.0208689948	-0.1234026959	 2.4128877529	-0.441936
C	 0.8413316256	-2.0870048569	 1.1587845129	 0.257245
C	 1.6557709609	-2.4941883343	-0.0834771975	-0.414494
C	 1.6152274566	-2.5193971848	 2.4195694859	-0.406
C	-0.5242322479	-2.7987932563	 1.1367671441	-0.424967
H	 1.0189880899	 2.0292974059	 0.0440984427	 0.113851
H	-0.5373175776	 2.068537931	-0.7959280803	 0.106697
H	-0.4790149074	 1.985554469	 0.9759442396	 0.125328
H	-1.0372012081	-0.2596374151	-0.0834021484	 0.087239
H	 0.500668939	-0.220693648	-0.9259172983	 0.101345
H	 1.6837594174	-0.1137997766	 1.2986843357	 0.077656
H	-0.9139369117	-0.3401017208	 2.3279796103	 0.277282
H	 2.5925043161	-1.9282314998	-0.1469839979	 0.109266
H	 1.9170188242	-3.5567273217	-0.0337658248	 0.109775
H	 1.1032762362	-2.3376665948	-1.0146203302	 0.111763
H	 1.1025636155	-2.1863665945	 3.3244676216	 0.12563
H	 1.7201566079	-3.6090398097	 2.4559143792	 0.100479
H	 2.6223370675	-2.0869260739	 2.4277720099	 0.104505
H	-1.1062732087	-2.5493392319	 0.24380192	 0.111312
H	-0.3877547123	-3.8851472092	 1.1441576538	 0.114337
H	-1.1224477398	-2.5460884918	 2.0190442355	 0.103484
