17
gdb 2045	4.2706	2.91806	2.21666	1.3896	64.29	-0.2543	0.0767	0.331	662.4966	0.148719	-309.665941	-309.659399	-309.658455	-309.695711	26.324	
C	-0.1445137114	 1.5540803278	-0.0360286335	-0.486043
C	 0.0140863806	 0.038392134	-0.0110790785	 0.486145
O	-1.2667683744	-0.5520488692	-0.1633784871	-0.486544
C	 1.2081001783	-0.6552366712	-0.7670911795	-0.111548
C	 2.1396346432	-0.1487998227	 0.3723946603	-0.235078
C	 0.8595067917	-0.6701763147	 1.089140488	-0.082969
C	 0.944677101	-1.9018249348	 0.1321069597	-0.223739
H	 0.7875986302	 2.1005712413	 0.1086627094	 0.123582
H	-0.5581104731	 1.8704780171	-1.0027540892	 0.105631
H	-0.85072956	 1.8621199464	 0.7412168666	 0.127625
H	-1.697797449	-0.1345816633	-0.9158281252	 0.275155
H	 1.4104654112	-0.6416181886	-1.8404380565	 0.060603
H	 3.0377047485	-0.747926665	 0.5383047923	 0.093809
H	 2.3723357039	 0.9149443713	 0.4265547541	 0.088877
H	 0.6555268959	-0.6765933727	 2.1614138824	 0.06732
H	 0.0259259416	-2.4554865447	-0.044022348	 0.113995
H	 1.802698852	-2.5601969609	 0.2878054748	 0.083178
