16
gdb 48813	3.09918	1.46641	1.18664	3.2786	70.73	-0.2592	-0.0295	0.2297	1037.916	0.124762	-437.887947	-437.880403	-437.879459	-437.920316	28.304	
O	-0.323539228	 0.1005918597	 0.1793377645	-0.258621
C	-0.084360043	 1.2586680634	-0.0344001533	 0.117492
C	 1.2692747209	 1.8672663038	-0.0674003377	 0.321893
C	 1.422079754	 3.3190128045	 0.3622861865	-0.341359
C	 1.5460259447	 2.9594920369	-1.0865040479	-0.119397
C	 2.9023252792	 2.9058443406	-1.7736278335	-0.177072
N	 3.8490678564	 1.9336341857	-1.2483042567	-0.262869
C	 3.4865144431	 1.1068903993	-0.3685400429	 0.117147
O	 2.2886863646	 0.9692889826	 0.2625952144	-0.245563
H	-0.8891011006	 2.0043811167	-0.2361541009	 0.073553
H	 0.5367131301	 3.8460977445	 0.7009455914	 0.132662
H	 2.329222113	 3.537029714	 0.9161216572	 0.145885
H	 0.7114469184	 3.2307902199	-1.7270238825	 0.108461
H	 2.7496745083	 2.6712706911	-2.8340314998	 0.129604
H	 3.3810550472	 3.8930727136	-1.7496828763	 0.123248
H	 4.1749284917	 0.3563375336	 0.0121067575	 0.134935
