21
gdb 98667	4.36011	0.86621	0.76008	3.7615	81.97	-0.2291	0.061	0.2901	1560.7573	0.182349	-420.434479	-420.424268	-420.423324	-420.470664	35.777	
C	-0.2364923312	 1.3590540529	-0.098445638	-0.322247
N	-0.0448030866	-0.0786074141	-0.0724928795	-0.353262
C	 0.6064931236	-0.7100974785	-1.1124028591	 0.450821
O	 1.2068286249	-0.1202075582	-1.996581556	-0.413745
N	 0.5356799051	-2.0860056744	-1.0669475305	-0.122366
C	 0.4544502108	-2.9677197205	 0.1080772806	-0.202817
C	 1.2673201911	-4.0373146847	-0.6813508602	 0.010142
C	 0.4933905775	-5.2820188236	-1.091447365	-0.400701
C	 1.4606170182	-2.9621127863	-1.7942116756	-0.172776
H	 0.5566929284	 1.7848782479	-0.7134463241	 0.167556
H	-1.2022034222	 1.650170155	-0.533338515	 0.117182
H	-0.1705699063	 1.7696411251	 0.9138114289	 0.117312
H	-0.7114681756	-0.6229073656	 0.4509994593	 0.240767
H	 0.9603573096	-2.5647550072	 0.9947803106	 0.109648
H	-0.5656401997	-3.2632371625	 0.3865264978	 0.100231
H	 2.1997159033	-4.3149122917	-0.1851239273	 0.08367
H	-0.4452551625	-5.0136234751	-1.5890645499	 0.124052
H	 1.0765905852	-5.8953423479	-1.7865161833	 0.121427
H	 0.2486528108	-5.9025871934	-0.2226068872	 0.116869
H	 1.1153668553	-3.2450561676	-2.7944111602	 0.109974
H	 2.4693149805	-2.5440667398	-1.8763423163	 0.118263
