21
gdb 120509	4.58631	0.70193	0.65486	2.3326	80.97	-0.247	0.0117	0.2587	1722.0355	0.182302	-424.227487	-424.217852	-424.216908	-424.262744	35.529	
O	-0.1463675948	 1.5080645406	 0.0846956813	-0.420051
C	 0.0187529326	 0.0987898819	 0.0328611248	-0.079486
C	-1.3678749132	-0.5288902854	-0.0400786342	-0.178645
C	-1.3568958254	-2.0649722239	-0.0654748928	-0.034627
C	-2.7667912819	-2.6995611215	 0.0585255746	-0.266378
C	-2.759528724	-3.9633580555	-0.8398938591	 0.10908
O	-3.9873066417	-4.2112085305	-1.5129315683	-0.433689
C	-1.5834532359	-3.7126185815	-1.7560612971	-0.130522
C	-0.8359628801	-2.6901346176	-1.3453304083	-0.064916
H	 0.72542989	 1.9123987573	 0.116698301	 0.285309
H	 0.6193254614	-0.1956222536	-0.8426888225	 0.085216
H	 0.5457123274	-0.2742732874	 0.927039383	 0.084199
H	-1.9399472456	-0.1831621567	 0.8294019996	 0.106927
H	-1.8844589974	-0.1455837706	-0.9286193471	 0.101953
H	-0.7308959676	-2.4089476709	 0.7731653703	 0.079639
H	-3.0537428926	-2.9106255393	 1.0914554563	 0.102107
H	-3.513407451	-2.0060757133	-0.348669825	 0.095752
H	-2.5990972433	-4.8720830018	-0.245209856	 0.093136
H	-4.1392982521	-3.4704191378	-2.1107342132	 0.272281
H	-1.3947405325	-4.3386190794	-2.6215118952	 0.097404
H	 0.0715114076	-2.3482091029	-1.8324068423	 0.095312
