16
gdb 7742	3.53116	1.80804	1.23347	5.5506	70.19	-0.2142	-0.0043	0.2099	944.9022	0.133532	-379.977989	-379.970717	-379.969772	-380.009213	28.246	
N	 0.0430116718	 1.4027453725	 0.0749784575	-0.567788
C	-0.0146455622	 0.0277502575	 0.0665201537	 0.365571
C	-1.1638796395	-0.6822210634	 0.0587227861	-0.287338
C	-1.1888130453	-2.1481768993	 0.0408770051	 0.393713
O	-2.2124962698	-2.8015078011	-0.0904046299	-0.3981
N	 0.0511723866	-2.767786696	 0.1419241885	-0.337012
C	 1.1795190692	-2.065587457	 0.7288662903	-0.169758
C	 1.3158312828	-0.6862022706	 0.0827738014	-0.290101
H	 0.8969552163	 1.8314543436	-0.245244753	 0.254072
H	-0.7909319231	 1.8998410528	-0.1991080555	 0.258176
H	-2.1341084622	-0.2009582199	 0.008361653	 0.085167
H	-0.025983061	-3.7591519934	 0.3186697652	 0.238445
H	 1.0635738789	-1.9397445577	 1.8179842746	 0.105537
H	 2.0894738732	-2.649484178	 0.5612900281	 0.10975
H	 1.6762325488	-0.7888476451	-0.9500488555	 0.128089
H	 2.0563345155	-0.093131835	 0.6304984103	 0.111577
