19
gdb 72874	2.86186	1.32192	1.08252	1.5369	76.23	-0.2445	-0.0268	0.2177	1159.3241	0.157941	-423.005075	-422.996472	-422.995528	-423.038937	31.88	
C	-0.3800949437	 1.5352026051	-0.2842859199	-0.501212
C	-0.0086935591	 0.088679769	-0.0562661122	 0.308886
C	-1.1271368094	-0.918442841	 0.2953089129	-0.122143
O	-0.3996072342	-1.4075437388	 1.4505486474	-0.289672
C	 0.6684704067	-0.4805365102	 1.2285184502	 0.058576
C	 1.8227129009	-1.0865313994	 0.3523794586	-0.101893
C	 1.124800927	-0.5356479535	-0.9202276605	-0.317766
C	 3.1658944781	-0.4909747827	 0.6744679676	 0.130229
O	 3.7023944011	 0.3920274404	 0.0517261586	-0.242502
H	 0.5096103307	 2.1728654117	-0.2986279268	 0.1327
H	-0.8893449539	 1.6580564446	-1.2478731893	 0.123446
H	-1.0519725894	 1.9044900781	 0.49811323	 0.120137
H	-2.0776691808	-0.4599161058	 0.5964078476	 0.103177
H	-1.3252849798	-1.7097146437	-0.4383824524	 0.101495
H	 0.9342285118	 0.0858022878	 2.1264753275	 0.081578
H	 1.8695519901	-2.1729060356	 0.4718243533	 0.100642
H	 0.8078834016	-1.2799201628	-1.6544893947	 0.1014
H	 1.7488001442	 0.21326183	-1.4131058353	 0.131603
H	 3.6384692381	-0.9059454832	 1.5940444874	 0.081321
