16
gdb 4922	6.64378	1.27241	1.08656	1.058	68.48	-0.1913	0.0198	0.2111	1088.2019	0.130853	-379.957566	-379.949439	-379.948495	-379.990362	28.857	
C	 0.1033649132	 1.403552404	-0.0944967387	-0.327999
N	-0.0187880265	-0.0367604189	 0.0103601353	-0.374349
C	 0.6033417148	-0.6662664577	 1.0688740032	 0.295989
C	 1.0703910092	-0.173156418	 2.2485742226	-0.141957
O	 1.5469921184	-1.2485605608	 2.9782156978	-0.179109
C	 1.350793734	-2.3191557152	 2.1848646312	 0.394783
C	 1.7780589719	-3.6497034754	 2.6914749137	-0.488379
N	 0.7975804447	-2.041894184	 1.0430140036	-0.366023
H	 1.1478475286	 1.7550260742	-0.1137294112	 0.111807
H	-0.3990313093	 1.7437495439	-1.0024868203	 0.127134
H	-0.3943458709	 1.8794844981	 0.7583176171	 0.132106
H	 0.1000018409	-0.5450397375	-0.8538155275	 0.244091
H	 1.1355467986	 0.7934495766	 2.7117464896	 0.129295
H	 2.8528284512	-3.6655631568	 2.9004963736	 0.143849
H	 1.2588304296	-3.9011001654	 3.6221025379	 0.145058
H	 1.5495885715	-4.406241177	 1.9406656219	 0.153704
