15
gdb 10115	2.69525	1.5134	1.10273	3.173	65.63	-0.2709	0.0108	0.2816	1072.6397	0.11622	-399.746769	-399.737843	-399.736899	-399.781024	30.85	
O	 0.204915763	 1.5562826409	-0.0350810072	-0.410451
C	 0.3320987947	 0.1719030721	-0.2315014806	-0.065635
C	-0.9648210182	-0.5808551861	 0.1067804436	-0.101943
O	-1.1983062872	-0.2769011307	 1.4954881263	-0.204352
C	-2.2309106047	-0.9045843633	 2.1044602602	 0.132687
N	-2.4447684313	-0.695342856	 3.3285117105	-0.435945
C	-2.0910320211	-0.1879064253	-0.7376327054	 0.361516
C	-3.0178566249	 0.1120292331	-1.4404709728	-0.46566
H	-0.0898788002	 1.6831397186	 0.8746572184	 0.300526
H	 0.5753765797	 0.0104778274	-1.2852791685	 0.124278
H	 1.1346282583	-0.2635813687	 0.3831861058	 0.104218
H	-0.7829378388	-1.6600403657	-0.0009736077	 0.113198
H	-2.8029646307	-1.5586127639	 1.4358731314	 0.103515
H	-3.2482591667	-1.2373861845	 3.6395917546	 0.233486
H	-3.833132072	 0.3912515822	-2.0619424287	 0.210562
