15
gdb 53760	7.42933	0.49509	0.46682	4.3683	77.71	-0.2648	-0.0318	0.233	2164.5983	0.111086	-416.828196	-416.818049	-416.817105	-416.865626	33.41	
N	-0.0177829235	 1.3477724452	 0.0082577885	-0.520329
C	 0.0600169935	-0.0133063824	 0.0013726843	 0.268356
O	 1.1080825097	-0.6287418901	-0.0107769675	-0.331667
C	-1.2370680995	-0.6793171433	 0.0100411615	 0.108583
C	-2.2758364556	-1.2904814435	 0.0166164118	-0.003831
C	-3.5045811259	-2.0694339996	 0.0242121745	-0.360805
C	-3.2178327635	-3.5940469129	 0.0136720494	-0.324895
C	-4.4513128166	-4.3762949783	 0.0210622044	 0.256426
N	-5.4399905861	-4.9740624467	 0.0276036944	-0.296899
H	 0.8395639842	 1.8755914974	 0.0029953261	 0.269438
H	-0.8998051465	 1.8287355788	 0.0183955514	 0.26823
H	-4.1019099298	-1.8188903002	 0.9083490681	 0.161129
H	-4.1184764826	-1.8099184646	-0.8458698948	 0.161116
H	-2.6312315833	-3.8555799023	-0.8723907147	 0.172564
H	-2.6147271944	-3.8646068074	 0.8858494426	 0.172585
