19
gdb 63420	3.11144	1.20441	1.0996	3.4257	81.32	-0.2389	-0.0059	0.233	1185.5437	0.159128	-382.090289	-382.0813	-382.080356	-382.12385	34.161	
C	 0.104501525	 1.5850328884	-0.0348026618	-0.398855
C	-0.0721597321	 0.0598808223	 0.0491813755	 0.237367
C	-1.5693303398	-0.3009359014	 0.1452614003	-0.426682
N	 0.5949377233	-0.5790774227	-1.1163164297	-0.338551
C	 1.3651742615	-1.7509369437	-0.679184814	-0.153839
C	 1.4926993119	-1.5319694995	 0.8163017187	-0.08683
C	 0.7016723559	-0.5398406994	 1.2020499141	-0.067466
C	 0.7052361189	-3.0426571895	-0.9766444189	 0.257446
N	 0.170729863	-4.0356827318	-1.2334369422	-0.332518
H	 1.1643290339	 1.8420945747	-0.1009248446	 0.122482
H	-0.3972578006	 1.9774649436	-0.9253443113	 0.115448
H	-0.3273555986	 2.0807198194	 0.8413516368	 0.109591
H	-2.1118176745	 0.0864479062	-0.7248592422	 0.116643
H	-1.7089357751	-1.3847353859	 0.1882482515	 0.136145
H	-2.024367471	 0.1392958324	 1.0386151196	 0.119044
H	-0.0527249106	-0.7991038499	-1.8623960182	 0.230355
H	 2.3469766942	-1.7776789457	-1.1738356339	 0.127793
H	 2.1341703269	-2.1458343125	 1.4340921117	 0.122296
H	 0.5868906478	-0.1775887851	 2.2167675385	 0.110131
