17
gdb 86131	2.55494	1.53467	0.99249	2.5507	72.48	-0.2328	-0.069	0.1637	1156.096	0.135989	-455.170593	-455.161648	-455.160704	-455.204531	32.096	
C	-0.0377373263	 1.4049130821	 0.0924545853	-0.339089
N	 0.00582618	-0.0382528435	 0.0681594485	-0.081925
C	-1.1809256087	-0.8312304257	-0.2421895332	-0.207852
C	-0.7244795592	-2.2740471895	 0.0361803542	 0.045599
O	-1.3482370981	-3.237255575	-0.7645675415	-0.432736
C	 0.7783211458	-2.1846338467	-0.1941367156	 0.290942
O	 1.4891363651	-3.1061477878	-0.5068712848	-0.323646
C	 1.1822336094	-0.737184614	-0.0421324989	 0.29213
N	 2.3575444965	-0.2403053836	-0.0313796601	-0.560167
H	 0.9192341568	 1.7716085348	 0.4662847187	 0.171998
H	-0.2046382707	 1.8265783458	-0.9090138475	 0.128126
H	-0.8458769889	 1.7441032083	 0.7492337768	 0.1263
H	-2.0218271982	-0.5170563038	 0.3832736229	 0.120949
H	-1.4836355601	-0.7429029514	-1.2957023914	 0.125736
H	-0.8671661361	-2.4847653854	 1.111448281	 0.111597
H	-0.6784050784	-3.9094887178	-0.9533572927	 0.298587
H	 3.0349812211	-1.0009190369	-0.1008564017	 0.233451
