16
gdb 6654	7.44936	0.8144	0.74428	1.9138	67.88	-0.2698	0.0129	0.2827	1463.297	0.127102	-383.747084	-383.737654	-383.73671	-383.783093	31.591	
C	-0.1802161323	 1.4555527132	 0.0116575854	-0.478961
C	 0.074746901	-0.0321247664	 0.001413859	 0.425861
O	 1.1549004044	-0.5636951313	-0.0122904671	-0.344023
O	-1.092501601	-0.7157809182	 0.0091288325	-0.239581
C	-0.9756985453	-2.1471305909	 0.0002479385	-0.054963
C	-2.4010514067	-2.7030704364	 0.0101193217	-0.356096
C	-2.4105153448	-4.1599701231	 0.0025662066	 0.283774
C	-2.3895276405	-5.3611721289	-0.0043529956	-0.439064
H	 0.7711476529	 1.9858192426	 0.0040073658	 0.14995
H	-0.7743607395	 1.7407267812	-0.8611537827	 0.150294
H	-0.7550789469	 1.731759707	 0.9001368158	 0.150303
H	-0.4277699621	-2.4684406756	-0.889823041	 0.134404
H	-0.4118240692	-2.4780789329	 0.8767341361	 0.134364
H	-2.9262631552	-2.3252453198	 0.8955157922	 0.141729
H	-2.9420247509	-2.3158742062	-0.8616470027	 0.141738
H	-2.3828850441	-6.4228736843	-0.0108606746	 0.200271
