15
gdb 48397	2.3215	1.69848	1.20153	2.5876	69.77	-0.2623	-0.061	0.2013	1021.3348	0.111991	-416.770252	-416.762303	-416.761359	-416.803084	28.962	
O	-0.1352189086	 0.0820909722	-0.3833717618	-0.239429
C	 0.0035488133	 1.1751376737	 0.0957977358	 0.117373
C	 1.3227927822	 1.9466765697	 0.0429098864	 0.039783
C	 2.5782384303	 1.2170457129	-0.5292670543	-0.213896
N	 2.7097138518	 2.185092047	-1.6730291599	-0.11219
C	 1.4631986323	 2.0696970751	-2.4491351906	-0.251418
C	 1.4462737301	 2.8664472175	-1.2067956278	-0.073129
C	 1.5445118868	 2.6479027817	 1.296549173	 0.232747
N	 1.6886235626	 3.1955049896	 2.3045365348	-0.321744
H	-0.8353385975	 1.7221335623	 0.5734968969	 0.115523
H	 3.4453526666	 1.2820452611	 0.1265847428	 0.147056
H	 2.3986099341	 0.1821332357	-0.8283067238	 0.144128
H	 1.4949175932	 2.6268817029	-3.3797542813	 0.139324
H	 0.9493030124	 1.1136517951	-2.4974168672	 0.147691
H	 1.3381436004	 3.9443111234	-1.1670886128	 0.128181
