13
gdb 133503	2.47798	1.39677	1.10464	3.5575	47.67	-0.2871	-0.002	0.2851	1043.2753	0.084834	-621.423548	-621.41499	-621.414045	-621.457319	30.981	
N	 0.0297271888	 1.2789057872	-0.0686194406	-0.516683
C	 0.0630400119	-0.0704681417	-0.0508153967	 0.383403
O	 1.0792239162	-0.7365716222	-0.1370791172	-0.369727
C	-1.2955982361	-0.8116155188	 0.0263469309	-0.104515
O	-1.062990916	-2.1805630859	-0.0055191146	-0.418303
C	-2.0666599135	-0.4518287475	 1.3028581166	 0.266974
F	-2.4431281111	 0.8528583226	 1.2712054052	-0.097935
F	-3.1736703454	-1.1782194151	 1.4200422862	-0.052602
F	-1.3274108759	-0.6296524151	 2.3995419263	-0.066956
H	 0.9073531206	 1.7737638677	-0.0474972455	 0.274787
H	-0.8138279397	 1.7746897674	 0.1658462094	 0.275466
H	-1.9286357522	-0.4934677976	-0.8157891479	 0.12111
H	-0.0908882275	-2.260697551	-0.0239704923	 0.304981
