19
gdb 76827	2.75536	1.52467	1.21407	0.3142	77.65	-0.2306	0.0091	0.2397	1074.6058	0.160184	-423.003574	-422.995322	-422.994377	-423.036379	31.917	
O	 0.1136438622	 1.369700477	 0.0156244847	-0.431384
C	 0.0729977664	-0.0347386987	-0.0452712333	 0.058408
C	 0.1748643572	-0.6719586634	 1.4124162112	 0.026463
O	 0.7887778718	 0.1119585752	 2.4033247984	-0.433428
C	-1.3321511874	-0.738612503	 1.3611394765	 0.23074
C	-2.4165397069	-0.2928804181	 1.9892743789	-0.237266
C	-3.4772607648	 0.0836758584	 0.9581418024	-0.236748
C	-2.6468692859	 0.2980937087	-0.3514338646	-0.242086
C	-1.3957625333	-0.5768657128	-0.1377952838	-0.059797
H	 0.9064396257	 1.5992743209	 0.516626247	 0.28502
H	 0.7813201754	-0.429589651	-0.7859746792	 0.061994
H	 0.6895989176	-1.6371529972	 1.3953045132	 0.099625
H	 0.1854588448	 0.8439101761	 2.5794438786	 0.282793
H	-2.5360742307	-0.1268510925	 3.0541530652	 0.096186
H	-4.228943551	-0.7088959249	 0.8352710643	 0.105841
H	-4.0271170756	 0.9849283032	 1.2506400584	 0.103038
H	-3.208785606	 0.0461761546	-1.2548264876	 0.092331
H	-2.3451735196	 1.3469942642	-0.4221668361	 0.124931
H	-1.4158567001	-1.5134349267	-0.7055628543	 0.073339
