23
gdb 60141	3.23338	1.03812	0.97493	1.0187	86.11	-0.2321	0.0853	0.3174	1373.3744	0.204739	-388.259343	-388.24979	-388.248846	-388.294262	36.209	
C	 0.5605403617	 1.3573508104	 0.4960973324	-0.389135
C	 0.0661644931	-0.0277837566	 0.0712919954	 0.154113
C	 0.6368780025	-0.4569442954	-1.2753251895	-0.390652
O	 0.432268465	-1.0471110561	 1.0023769896	-0.266502
C	-0.2757648964	-1.0394240687	 2.2032790476	 0.148174
C	 0.135496255	-1.9499946959	 3.3062866382	-0.125495
C	 1.6644208848	-2.0578230486	 3.3756816474	-0.216924
C	 1.7594484671	-0.5092007791	 3.5500687183	-0.221833
C	 0.2308958239	-0.4096866442	 3.472064888	-0.105076
H	 1.6537015705	 1.3715925728	 0.5539489806	 0.120207
H	 0.2456443886	 2.1118477237	-0.2323623359	 0.109973
H	 0.1593321023	 1.6410614852	 1.4722067248	 0.123455
H	-1.0347910538	-0.0020604255	 0.0019460167	 0.063284
H	 1.7291393516	-0.5101209425	-1.2234845738	 0.121805
H	 0.2596422002	-1.4443396566	-1.553754536	 0.120785
H	 0.362655048	 0.2576285596	-2.0571051412	 0.11063
H	-1.3566774415	-0.9567174075	 2.0694910059	 0.078691
H	-0.5605065743	-2.6522476803	 3.7511772871	 0.082111
H	 2.0075319513	-2.5946767045	 4.2623802502	 0.097843
H	 2.1461342002	-2.4822103304	 2.4916236822	 0.108657
H	 2.1484599328	-0.2283751321	 4.5309376707	 0.098924
H	 2.31167848	 0.0378603155	 2.7812623839	 0.099719
H	-0.3852398826	 0.2591992069	 4.0635012473	 0.077245
