16
gdb 17069	3.9723	1.46711	1.2728	0.4774	61.1	-0.2398	0.0632	0.303	969.3084	0.129437	-420.786449	-420.778777	-420.777833	-420.818532	28.569	
O	-0.0304176671	 1.4082036858	-0.3000087367	-0.427637
C	 0.0363642111	 0.0426650241	 0.0996545784	-0.127643
C	-1.376167595	-0.4950140007	 0.0765264087	 0.04097
C	-2.0051449892	-0.8570261647	-1.2953361943	-0.005021
O	-1.1057099096	-2.0291882166	-1.3931835311	-0.314586
C	-1.5928876619	-2.031613472	 0.0059511624	-0.006456
C	-3.0106107383	-1.8064379395	-0.5649246711	 0.122345
O	-3.9816968766	-1.3164304198	 0.3131897224	-0.425295
H	 0.8673055269	 1.7501329877	-0.3406170411	 0.287031
H	 0.6640002831	-0.5483197444	-0.5790198219	 0.106268
H	 0.4476121421	-0.0518939304	 1.1180589177	 0.082314
H	-2.0365021605	 0.0412146309	 0.7601770918	 0.099204
H	-2.1289432627	-0.2425759592	-2.1869486082	 0.095431
H	-1.2304284138	-2.8217916301	 0.6645857039	 0.093372
H	-3.3583388589	-2.6315656466	-1.1953753986	 0.086776
H	-4.7748519796	-1.1141056245	-0.1925477722	 0.292926
