23
gdb 93834	2.24989	1.44669	1.07625	1.823	81.82	-0.244	0.0759	0.3199	1246.8652	0.20595	-425.452197	-425.442773	-425.441828	-425.485693	36.941	
C	 0.0679081483	 1.5145946982	 0.0606710327	-0.400955
C	 0.0668711194	-0.0046381928	-0.01282825	 0.147615
C	 0.640880166	-0.5505790971	-1.3264601931	-0.208915
C	 0.7963136011	-2.077919682	-1.2706958976	-0.238135
C	 1.5363168969	-2.4971301408	 0.0099102873	 0.144289
O	 2.8926776505	-2.0679061944	-0.0088759513	-0.448426
C	 0.8094745578	-1.9034180223	 1.229328935	 0.102122
C	 1.4516375718	-2.2577241998	 2.5615575541	-0.403634
O	 0.8272966473	-0.4788812947	 1.1034941521	-0.288646
H	 1.08759591	 1.9015604863	-0.0336849722	 0.1199
H	-0.5379999628	 1.938301927	-0.7458392002	 0.115077
H	-0.338736427	 1.8522382188	 1.0176045867	 0.123172
H	-0.968458349	-0.3738783384	 0.0985421439	 0.063484
H	-0.0037878069	-0.2566148802	-2.1620764687	 0.095763
H	 1.6195102825	-0.0868222481	-1.5031846801	 0.100573
H	-0.1922579613	-2.5562888683	-1.2814677421	 0.090286
H	 1.3439847862	-2.442755253	-2.144899058	 0.103566
H	 1.5615759954	-3.5900683899	 0.0877753751	 0.075025
H	 2.8788925891	-1.1377102336	 0.2499694192	 0.282707
H	-0.2374666311	-2.251775471	 1.2198350108	 0.062144
H	 2.5093332926	-1.9843443457	 2.5632971535	 0.128953
H	 0.9479380973	-1.7308915493	 3.3759209742	 0.119448
H	 1.3777540256	-3.3345653885	 2.7417766187	 0.114584
