21
gdb 110555	3.10847	1.24227	1.04982	1.4464	83.77	-0.2599	0.0768	0.3366	1221.6309	0.182027	-387.010662	-387.001989	-387.001045	-387.043986	33.589	
C	-0.1012209856	 1.5120790229	-0.3347159909	-0.526344
C	-0.0713129532	 0.0137597884	-0.1714791541	 0.354521
C	 0.3386890039	-0.988092449	-1.2754417451	-0.305378
C	 0.0026748176	-1.8771432921	-0.072909356	-0.037677
C	 0.6099843629	-0.862931515	 0.9559295998	-0.120074
C	-0.6600062816	-0.9420070587	 1.8327169176	 0.026853
C	-1.0329657132	 0.1562106936	 2.8075950647	-0.128894
O	-2.3586047252	-0.1094997632	 3.2541506688	-0.422343
C	-1.1871732836	-0.9642717235	 0.380279454	-0.088796
H	 0.8902474397	 1.8850648937	-0.6172768011	 0.118079
H	-0.7972473222	 1.7951516975	-1.1329326235	 0.120208
H	-0.4072344074	 2.0379637938	 0.573123299	 0.122464
H	-0.3254720017	-1.0576711395	-2.1443038391	 0.086133
H	 1.3864697705	-0.96217458	-1.595998979	 0.084418
H	 0.0350436904	-2.9633520177	 0.0228004026	 0.067244
H	 1.6580793079	-0.8151423671	 1.2617553443	 0.06139
H	-0.7769094219	-1.9069611759	 2.3431330264	 0.069273
H	-0.3220119613	 0.1469283259	 3.6511049449	 0.080859
H	-0.9682418657	 1.1484093523	 2.3410334889	 0.084024
H	-2.5981038213	 0.5627352111	 3.898597606	 0.284828
H	-2.2169162593	-1.0312145176	 0.0250222019	 0.069213
