19
gdb 31970	4.82652	0.87665	0.78493	0.3066	81.11	-0.1689	0.0622	0.2311	1496.8524	0.159693	-419.219023	-419.209527	-419.208583	-419.253922	34.366	
C	-0.529098388	 1.042766533	 0.2845174518	-0.322303
N	 0.8226912252	 0.5131093281	 0.0632164829	-0.387574
C	 0.9466714063	-0.4127520534	-0.9906306848	 0.282923
C	 1.2331061815	-0.2949067315	-2.327414973	-0.21747
C	 1.2566970732	-1.6112179858	-2.8974056093	-0.294403
C	 0.9660750739	-2.4808841206	-1.8733268996	 0.411563
N	 0.7763573405	-1.7639902824	-0.7243767724	-0.355907
O	 0.8420476054	-3.8255847052	-1.7911061457	-0.263108
C	 1.0433670073	-4.5135680425	-3.0122453601	-0.24323
H	-0.9501344913	 1.5601315989	-0.5913661588	 0.107323
H	-1.2026556167	 0.2200747564	 0.5419272294	 0.124965
H	-0.5091397862	 1.7376534662	 1.1297848156	 0.114082
H	 1.4770085115	 1.2742181149	-0.0682936165	 0.230953
H	 1.4018652034	 0.6320027292	-2.85478872	 0.081236
H	 1.4502388746	-1.8693626224	-3.9253069134	 0.08981
H	 0.6535141543	-2.1598929533	 0.1916238857	 0.259662
H	 2.0543222912	-4.338543077	-3.4024388456	 0.124746
H	 0.9130277068	-5.5750667175	-2.7967362575	 0.132205
H	 0.312450817	-4.1988094851	-3.7683126486	 0.124526
