22
gdb 11568	3.47913	1.22321	0.9694	0.9785	79.28	-0.2349	0.0882	0.323	1285.0669	0.198185	-350.191436	-350.181821	-350.180877	-350.226144	35.275	
C	 0.1354979807	 1.5052831442	-0.2434055774	-0.384669
C	-0.000372255	 0.0098899331	 0.0511063432	-0.174566
C	-1.4501700431	-0.4772236739	 0.0817954506	 0.15322
C	-1.5486248981	-1.9926787259	 0.2691931654	-0.401961
O	-2.0957194309	 0.2379247003	 1.1375698284	-0.261621
C	-3.4870119503	 0.245496564	 1.090491265	 0.155016
C	-4.2845436174	-0.7248426128	 1.9288198089	-0.283919
C	-4.1866119373	 0.7385414075	 2.3149745756	-0.297889
H	 1.1848940669	 1.8152218055	-0.2334457224	 0.10729
H	-0.2751388276	 1.7528837949	-1.2290831913	 0.106878
H	-0.404520896	 2.0936657528	 0.5021450071	 0.133485
H	 0.5416661294	-0.5749183196	-0.7017205645	 0.091386
H	 0.4573262999	-0.224337853	 1.0205445569	 0.101658
H	-1.9357908133	-0.2038568879	-0.8713069859	 0.060486
H	-1.0421821746	-2.5111747245	-0.5514657863	 0.110822
H	-1.0751287664	-2.2914919921	 1.2102378424	 0.117687
H	-2.5895320506	-2.3243244313	 0.2874917775	 0.122915
H	-3.8967590853	 0.5275789308	 0.1193045187	 0.080241
H	-5.2239804546	-1.1043300752	 1.5407580666	 0.10862
H	-3.7218355307	-1.4275650772	 2.5321636997	 0.118513
H	-3.5548751586	 0.9829445846	 3.1614216097	 0.124132
H	-5.0560793471	 1.3752259758	 2.1969873422	 0.112275
