15
gdb 14907	4.7251	1.49814	1.21778	3.6112	67.05	-0.2716	-0.0073	0.2643	951.284	0.120618	-362.677243	-362.670301	-362.669357	-362.708563	25.827	
N	-0.0678363685	-1.1675598846	-0.0578246853	-0.319348
C	-0.028857116	-0.0128448003	-0.02799066	 0.257518
C	 0.0114887717	 1.449644722	 0.0275425012	-0.196075
C	-0.7038289042	 1.9650334217	 1.300706388	-0.092008
O	-0.526175977	 3.3569683108	 1.4207302938	-0.244522
C	 0.821297997	 3.7217846186	 1.6616150893	-0.121515
C	 1.7947772192	 2.9982919218	 0.7751821691	-0.081371
C	 1.4377693609	 1.9711535449	 0.0110207959	-0.057
H	-0.5306537264	 1.8244462674	-0.8517731069	 0.143359
H	-1.7793427163	 1.7852370575	 1.2412992877	 0.130675
H	-0.3075715355	 1.4315523152	 2.1778515804	 0.113992
H	 0.8768333098	 4.8026882199	 1.4896755807	 0.128607
H	 1.0848369651	 3.5528905537	 2.7213940617	 0.110784
H	 2.8211350105	 3.3544603642	 0.7840315292	 0.109184
H	 2.1479982297	 1.4681899572	-0.6363843048	 0.117721
