20
gdb 107926	3.021	1.37433	1.23671	1.239	78.72	-0.1964	0.0901	0.2865	1114.5673	0.170126	-403.058782	-403.050299	-403.049355	-403.091827	32.598	
C	 0.0909413901	 1.2872832255	-0.1525702198	-0.25708
O	-0.048376173	-0.0691977277	 0.2385758108	-0.27941
C	-1.3363433261	-0.5335250599	 0.1506611062	 0.414871
C	-2.5129371495	-0.2704133948	 1.0932149002	-0.327251
C	-3.1770050114	-1.4835893314	 0.3645064806	-0.027866
C	-1.7343229843	-1.9745486099	-0.0405984687	-0.185718
C	-1.9570259649	-1.0400097787	-1.192319334	-0.100422
N	-3.4075522068	-1.0984694118	-1.0610846052	-0.071853
C	-4.1982749142	 0.0841129031	-1.368989372	-0.327529
H	 1.1541337556	 1.529223033	-0.0918025864	 0.127752
H	-0.2611532372	 1.444926167	-1.1812882248	 0.110225
H	-0.4662637098	 1.9592645728	 0.5148343317	 0.114162
H	-2.2503129558	-0.5448927009	 2.1182723652	 0.10768
H	-3.0310372488	 0.693765363	 1.0872278787	 0.09082
H	-3.9579397952	-2.0667490652	 0.8499622812	 0.078485
H	-1.2088343041	-2.9129481636	 0.0509554359	 0.10393
H	-1.4313664836	-0.9747711121	-2.1377817327	 0.095279
H	-4.2254716456	 0.2163652293	-2.4560220977	 0.119625
H	-5.2270124977	-0.0725292286	-1.0272824256	 0.118365
H	-3.8247847177	 1.0216002911	-0.9266035335	 0.095936
