19
gdb 91716	2.59653	1.53244	1.44047	2.7924	73.45	-0.2321	-0.0171	0.2149	1021.3038	0.160901	-423.061029	-423.053445	-423.052501	-423.093092	30.203	
C	-0.2248473143	 1.5634857336	-0.0246970037	-0.421856
C	 0.0379756192	 0.0583811678	-0.0104444086	 0.044327
C	 0.802197322	-0.5006840277	-1.253287866	-0.266375
C	 1.9205506991	-1.3357371431	-0.5734128401	-0.032855
O	 1.3079302721	-1.7797244594	 0.6434425062	-0.264381
C	 0.925814089	-0.4824327056	 1.1424430904	 0.048319
C	 2.289305753	 0.2300571811	 1.2203258839	-0.346763
C	 2.9559079771	-0.3292289324	-0.0501623066	 0.421302
O	 4.0157790426	-0.0305444651	-0.5291921538	-0.319517
H	 0.6919247913	 2.1406011507	-0.1826689081	 0.122783
H	-0.9162755266	 1.8262362721	-0.8314667329	 0.123755
H	-0.6753938294	 1.8984214856	 0.9161849342	 0.118258
H	-0.9219178666	-0.4607688788	 0.0711316899	 0.086906
H	 0.1672960836	-1.1425986392	-1.8674651751	 0.115451
H	 1.2068216423	 0.2878402781	-1.8950413305	 0.11738
H	 2.3281929844	-2.1703539922	-1.1400167007	 0.099727
H	 0.4118956957	-0.6012618617	 2.0963020132	 0.084702
H	 2.278421501	 1.3213596765	 1.2210041902	 0.129795
H	 2.8433567445	-0.1061665004	 2.1023811382	 0.139042
