15
gdb 85489	2.54237	1.44281	1.09092	4.6159	65.13	-0.2649	-0.0129	0.252	1088.422	0.113664	-453.989125	-453.981056	-453.980112	-454.022056	29.685	
N	 0.1829609598	 1.1501713361	-0.770414907	-0.522431
C	-0.0018454687	-0.0512014646	 0.011284418	 0.002505
C	 0.3788235733	-0.0908207747	 1.5031459234	-0.392632
C	-0.5314361099	-1.1689042675	 2.071957288	 0.439172
O	-0.431688023	-1.8005553112	 3.0761067077	-0.308188
O	-1.5851732051	-1.3653752617	 1.2014018111	-0.213521
C	-1.4978947658	-0.4739360617	 0.0879948148	-0.039885
C	-2.3824515984	 0.6855635764	 0.2980059654	 0.290256
N	-3.0453447072	 1.6159042182	 0.4701477158	-0.316439
H	-0.1950287056	 1.9642078271	-0.2945143923	 0.248871
H	 1.1669253128	 1.32216654	-0.9421794492	 0.244069
H	 0.5166070317	-0.8668806011	-0.5040284265	 0.117289
H	 1.423908441	-0.3248281905	 1.7079999524	 0.145733
H	 0.1387946673	 0.8605270936	 1.9937616374	 0.151864
H	-1.8216740223	-1.0077562383	-0.8076650089	 0.153338
