21
gdb 36891	3.57069	1.05161	0.97812	1.5677	82.02	-0.248	0.0927	0.3407	1301.5286	0.183339	-387.033541	-387.025235	-387.024291	-387.067142	31.984	
C	 0.1376806618	 1.4965669711	 0.5702704791	-0.270179
C	 0.0625971624	 0.0867133095	 0.030878701	 0.118335
C	-1.2072638973	-0.5397069698	-0.355511089	-0.186608
O	-0.2982666313	-0.0568445489	-1.3474507472	-0.228129
C	 1.4511550909	 2.1814602181	 0.2314365114	 0.005667
C	 1.8504259185	 2.6771059311	-1.1325557571	-0.049421
C	 0.657577418	 3.2790546102	-1.8868507077	-0.230538
C	 0.4498896022	 4.2925265832	-0.7136005265	-0.230122
C	 1.6380835742	 3.6630041962	 0.0266077736	-0.087843
H	-0.7168844306	 2.0578826918	 0.1811944995	 0.106426
H	 0.0199817151	 1.464035121	 1.6621730843	 0.098619
H	 0.8756761449	-0.5757302271	 0.3360553978	 0.087548
H	-1.3192251683	-1.6222572998	-0.3103876414	 0.112299
H	-2.1341318664	 0.0246787675	-0.2573803725	 0.110803
H	 2.2989105678	 1.7425233292	 0.7567131119	 0.080838
H	 2.7781529432	 2.358173312	-1.5932030579	 0.07904
H	 0.9522335333	 3.781490363	-2.810563147	 0.098637
H	-0.156650997	 2.5847030242	-2.1106363857	 0.113655
H	 0.6541100147	 5.3199349848	-1.0229635618	 0.1008
H	-0.5166889575	 4.2802911717	-0.198180533	 0.091781
H	 2.3756683913	 4.2181269112	 0.5952050483	 0.078392
