21
gdb 70295	3.52763	1.28274	1.17053	1.3271	82.28	-0.2159	0.0927	0.3086	1159.0274	0.182506	-387.071097	-387.062861	-387.061917	-387.103384	33.419	
C	-0.5872755472	 1.4573079505	 0.1724271348	-0.481758
C	 0.070996973	 0.1115183496	-0.0057742033	 0.310386
C	-0.534907028	-1.1366456977	 0.6239506379	-0.371482
C	 0.8027591934	-0.615124556	 1.089498288	 0.072802
O	 1.9711343811	-1.2208976961	 0.5965194962	-0.292449
C	 1.8616188917	-1.258986144	-0.8151789091	 0.445101
C	 3.0785925486	-1.691833209	-1.5595602691	-0.347445
C	 1.8734518321	-2.6144647482	-1.4746774665	-0.316794
C	 0.9215316612	-0.1360121003	-1.2484743733	-0.363629
H	 0.1389372658	 2.271452717	 0.0632572462	 0.116543
H	-1.3798738175	 1.6169958429	-0.5683103856	 0.117922
H	-1.0438516971	 1.5471647406	 1.1633559116	 0.114943
H	-1.3807617949	-0.9876341	 1.2876400759	 0.106567
H	-0.5641760561	-2.0605516353	 0.0569065844	 0.120605
H	 0.9389637969	-0.2253894468	 2.0916598641	 0.096365
H	 3.3023214814	-1.2106910127	-2.5059180434	 0.113348
H	 3.9474211606	-1.9519004287	-0.9654163887	 0.125078
H	 1.9567609776	-3.4758508909	-0.821527847	 0.120276
H	 1.2730625432	-2.7672295983	-2.3661972452	 0.107358
H	 0.3402352119	-0.4102951807	-2.134565936	 0.10374
H	 1.4828514324	 0.7768971841	-1.4848948619	 0.102523
