19
gdb 100397	2.43829	0.98085	0.81148	4.3126	81.26	-0.247	0.0169	0.2638	1474.8325	0.156065	-419.172818	-419.162159	-419.161215	-419.209036	38.593	
C	-0.0977754717	 1.0144444638	-0.2209223701	-0.37721
C	-0.29657216	-0.4821971574	 0.102759446	-0.176008
N	 0.5432023691	-0.8739768602	 1.2309522648	-0.296351
C	 1.7214247916	-1.3262092267	 1.0435411204	 0.354374
N	 2.3663806228	-1.5548377985	-0.1482991914	-0.550878
C	 2.502768148	-1.7153266237	 2.2930609235	-0.10782
O	 1.7439525306	-1.5351236017	 3.4474217723	-0.421382
C	-1.7026827671	-0.757964814	 0.4144632542	 0.338542
C	-2.8636299234	-0.9648967066	 0.6430754842	-0.442449
H	 0.9407120493	 1.2071994785	-0.5086888891	 0.105287
H	-0.7543037744	 1.3226186951	-1.0387804781	 0.127249
H	-0.3274961348	 1.6153998728	 0.6618178134	 0.142634
H	-0.052342422	-1.0672220664	-0.800521544	 0.089925
H	 2.0585631571	-1.0738880999	-0.9766066341	 0.265586
H	 3.3562563999	-1.7384945254	-0.1157223487	 0.261384
H	 2.8227674726	-2.7656926613	 2.1864739689	 0.105912
H	 3.4244559525	-1.1078749877	 2.3260600049	 0.096366
H	 0.8938540246	-1.186070102	 3.1186706663	 0.289961
H	-3.8858050347	-1.1588733287	 0.8553104965	 0.194877
