18
gdb 74886	2.86205	1.5727	1.10881	3.7676	79.5	-0.2331	-0.0255	0.2076	1101.9819	0.14935	-401.991641	-401.983657	-401.982713	-402.024055	31.046	
C	-0.0007533848	 1.5236026149	 0.049834513	-0.467799
C	-0.0129706187	 0.0229788897	 0.0067481924	 0.190571
C	-1.1251514505	-0.7193205867	 0.1084682106	-0.162733
C	-1.1296144177	-2.1936492201	 0.0349047016	-0.089762
C	-0.7229147754	-2.9016170571	-1.2552032814	-0.306534
C	 0.2201967637	-2.8627577807	-0.0813388597	 0.021515
N	 1.3541084642	-1.9949207523	-0.0720960624	-0.343881
C	 1.3266379673	-0.6226914433	-0.1303109932	 0.347968
O	 2.3534385309	 0.0275048889	-0.2547793437	-0.377597
H	 0.6312948624	 1.8842819499	 0.8674687103	 0.14124
H	 0.4295200836	 1.934789774	-0.8690562593	 0.140983
H	-1.0106084329	 1.9217087225	 0.1775018183	 0.109514
H	-2.0849503382	-0.2294161564	 0.2593810507	 0.097172
H	-1.8872931858	-2.6914720076	 0.6313872821	 0.099763
H	-1.2137481793	-3.8407567718	-1.485054104	 0.118907
H	-0.4884959349	-2.2748042669	-2.1080299132	 0.127283
H	 0.383140304	-3.7853758624	 0.4667132264	 0.106446
H	 2.2713931621	-2.3941206245	-0.2067442186	 0.246944
