15
gdb 19345	4.24383	1.83593	1.52215	3.2521	66.85	-0.2363	-0.0248	0.2114	831.6701	0.118682	-362.582966	-362.576388	-362.575444	-362.613625	25.532	
O	-0.0787733655	 0.0114234506	 0.0228368407	-0.276643
C	 0.0181487109	 1.2175301368	-0.0180062752	 0.061973
C	 1.2799306477	 1.9451202012	 0.0750801095	 0.239492
C	 1.3748869019	 3.4289417576	 0.3768330146	-0.360368
C	 1.8408358873	 2.962187459	-0.9511601199	-0.027449
N	 3.1522058102	 2.2291438358	-1.0631926986	-0.139211
C	 3.8101865926	 2.1400420409	 0.2590581736	-0.253047
C	 2.653708516	 1.2660455977	-0.0077465321	-0.088447
H	-0.8770860057	 1.8687290499	-0.1475276661	 0.063882
H	 0.4144654646	 3.9359057636	 0.3398356328	 0.134375
H	 2.0276590445	 3.797207568	 1.1592647667	 0.131933
H	 1.385372213	 3.2812101629	-1.8796796503	 0.126318
H	 4.7910135102	 1.681177414	 0.1771646123	 0.135572
H	 3.7707416203	 2.964055847	 0.961963509	 0.123703
H	 2.7287979221	 0.196068925	-0.1591590768	 0.127916
