23
gdb 95307	2.5414	1.66018	1.43677	1.3665	83.36	-0.2362	0.0745	0.3108	1058.0281	0.209845	-388.31628	-388.308533	-388.307589	-388.347951	32.34	
C	-0.217537341	 1.5636455093	 0.0492820805	-0.411659
C	 0.0219487225	 0.0495935888	-0.0285055372	 0.019593
C	 0.6633526687	-0.365706371	-1.3698853479	-0.081217
O	 2.0726996646	-0.1781142863	-1.4069998114	-0.275731
C	 2.7608510518	-0.7098969723	-0.2721850014	 0.135137
C	 2.3503244797	-2.1628088952	 0.0607361446	-0.236872
C	 1.1211311094	-2.0174218004	 1.0099110242	-0.230534
C	 0.8931005419	-0.4864128259	 1.134597072	 0.000159
C	 2.3285913776	 0.0542991366	 0.9855234412	-0.226326
H	 0.6930820257	 2.1281566919	-0.1704907536	 0.128472
H	-0.9760216286	 1.8710519074	-0.6783440673	 0.110166
H	-0.5690694213	 1.861991444	 1.0429516529	 0.108173
H	-0.9551387018	-0.4496402192	 0.0273575124	 0.065867
H	 0.417088476	-1.4163602775	-1.5861887664	 0.085411
H	 0.2638559892	 0.2331669456	-2.1945489755	 0.100584
H	 3.8213466459	-0.612199768	-0.5155784057	 0.06973
H	 2.1344627982	-2.732303312	-0.8467116038	 0.108252
H	 3.1803065851	-2.6664606254	 0.5646341199	 0.097658
H	 0.2348227647	-2.5354386939	 0.6307435919	 0.09475
H	 1.3412116958	-2.4429294827	 1.9937300455	 0.095482
H	 0.4302914266	-0.2199537942	 2.0896382213	 0.056003
H	 2.9460325783	-0.2330602531	 1.8450120369	 0.087366
H	 2.3993656611	 1.1364286837	 0.8605931071	 0.099534
