16
gdb 77184	3.03922	1.18004	0.98019	4.4708	65.86	-0.2525	0.0096	0.2621	1194.3159	0.123104	-475.003852	-474.995081	-474.994137	-475.038327	30.941	
O	 0.4705635201	 1.1685997114	 0.3076132185	-0.423607
C	 0.0650746953	-0.1393866504	 0.0465532066	-0.008744
C	-1.4734413808	-0.5018394832	 0.0375103134	-0.030991
N	-1.242603063	-1.0750531484	-1.2939352725	-0.331031
C	 0.047354081	-0.6162886532	-1.4313273676	 0.372297
O	 0.7996011731	-0.5409946183	-2.3647461151	-0.356565
C	-1.9539601149	-1.4451231075	 1.1107961426	 0.060665
C	-2.5580513175	-2.7534767032	 0.8262892494	-0.174614
O	-1.2076452576	-2.6504087212	 1.2768004186	-0.226351
H	 0.4154957976	 1.678937999	-0.5075701716	 0.298008
H	 0.6171749335	-0.8151729771	 0.7043268226	 0.138919
H	-2.094186717	 0.4022547733	 0.0240182958	 0.088368
H	-1.8950432057	-1.378305821	-2.0023994299	 0.253672
H	-2.2194856797	-0.9499105008	 2.0463033816	 0.106876
H	-3.2597255146	-3.1898301284	 1.5355025241	 0.121813
H	-2.67421096	-3.0775121711	-0.2064229263	 0.111286
