20
gdb 91131	2.77493	1.71033	1.4625	0.3052	77.6	-0.2109	0.051	0.2619	992.9276	0.172698	-403.068432	-403.060978	-403.060033	-403.100182	29.935	
C	 0.1582683138	 1.6070839187	-0.1916335278	-0.426393
C	 0.0507681889	 0.1033599389	 0.0199155877	 0.026398
C	 0.8251530386	-0.8744046942	-0.9148284043	-0.203174
N	 1.2900523672	-1.6833145857	 0.2633930661	-0.148655
C	 2.693899656	-1.4864199941	 0.7731051088	-0.034574
C	 3.6069897959	-0.4714337079	 0.0846802714	-0.097814
O	 2.9587154803	 0.6304674308	 0.7667200911	-0.290143
C	 2.2221068056	-0.2757092405	 1.6244245496	 0.082463
C	 0.7757020271	-0.6068965	 1.1920985845	-0.009925
H	 1.199768516	 1.9291181373	-0.2262343264	 0.146246
H	-0.3325562135	 1.8963359112	-1.1279755299	 0.1098
H	-0.3404010193	 2.1506181907	 0.6189121573	 0.111483
H	-1.006178423	-0.181129787	 0.0540471276	 0.081107
H	 0.2174660579	-1.4662618135	-1.6059318268	 0.101759
H	 1.6212909023	-0.3924457603	-1.4901791429	 0.103502
H	 3.1387463101	-2.4067715457	 1.1534376895	 0.08697
H	 4.6555983546	-0.5659079295	 0.3977095115	 0.103897
H	 3.5718980812	-0.3782033128	-1.0057693061	 0.11161
H	 2.4339725193	-0.099077713	 2.6829675217	 0.076964
H	 0.1541221011	-0.9456322634	 2.0299819174	 0.068479
