16
gdb 4776	5.90202	1.21764	1.08231	2.0019	67.89	-0.1984	0.025	0.2234	1095.8809	0.130184	-383.770175	-383.76217	-383.761226	-383.802915	29.164	
C	 0.0039601525	 1.5613342421	 0.1866396355	-0.370978
C	-0.0456440599	 0.0512321114	-0.1039918902	-0.291291
C	-1.4311804403	-0.4938670284	-0.1684080156	 0.41049
C	-2.1618063422	-1.0688846299	-1.1652894224	-0.436783
C	-3.4439053666	-1.3739580134	-0.5978960828	 0.307742
O	-4.5136493629	-1.9580298727	-1.203164757	-0.440547
C	-3.403988579	-0.9640370141	 0.6980535787	-0.120794
O	-2.1728665973	-0.4241698026	 0.9665865432	-0.186959
H	 1.0393285496	 1.9102270248	 0.2454758311	 0.112391
H	-0.5050773617	 2.1274558025	-0.5993117249	 0.121057
H	-0.4878332988	 1.7877493198	 1.1364182809	 0.134098
H	 0.4465826451	-0.1662577693	-1.057329443	 0.111452
H	 0.5203411318	-0.4835466454	 0.6699841091	 0.118095
H	-1.8318623783	-1.2551987701	-2.1766272666	 0.101
H	-4.2831452774	-2.1492693628	-2.1164125693	 0.300063
H	-4.1137319046	-0.9832764218	 1.5056474932	 0.130965
