15
gdb 54496	2.64017	1.63661	1.13074	1.8836	66.63	-0.2502	-0.007	0.2432	1033.7599	0.113223	-453.975783	-453.967774	-453.96683	-454.008522	30.049	
N	 0.0658144537	 1.1486837477	-0.5418810301	-0.550735
C	 0.0587120168	-0.0213397038	 0.1509991589	 0.326498
O	 0.9880973636	-0.4346858045	 0.8198881495	-0.378736
C	-1.224125121	-0.7673565978	 0.0075736753	 0.069328
C	-1.7613354394	-1.6760214733	 1.1268291148	-0.321197
C	-1.4635238725	-2.2649163348	-0.2011729849	-0.034857
N	-2.4921310258	-1.9397643746	-1.1977402252	-0.351255
C	-2.3307015677	-0.5593149583	-1.0073240779	 0.382794
O	-2.8498564112	 0.4000569775	-1.5134684733	-0.36698
H	 0.8716756439	 1.747340833	-0.4675921141	 0.263389
H	-0.762884094	 1.4766249825	-1.0154022581	 0.281875
H	-1.0217263506	-1.8439532438	 1.9041122427	 0.160062
H	-2.7882020152	-1.5592871709	 1.459582635	 0.127936
H	-0.7080632226	-3.0106461411	-0.4064280882	 0.140877
H	-3.3891142981	-2.4053643879	-1.2715635642	 0.251001
