19
gdb 34599	3.63944	1.17479	0.98793	0.9242	90.28	-0.2235	-0.0112	0.2123	1228.1262	0.160328	-348.732686	-348.724629	-348.723684	-348.765158	32.026	
C	 0.2132724211	-1.0293545837	 0.6688787237	-0.423534
C	 0.0725733368	 0.1103202586	 0.3026259584	 0.228917
C	-0.0349139675	 1.4545555788	-0.1556025921	 0.134538
C	-1.154857793	 2.1672783697	 0.0487010523	-0.143466
C	-1.3697023351	 3.5734079701	-0.429656015	-0.273257
C	-0.0930244423	 4.3039575039	-0.8041469951	-0.023532
C	 1.0430401427	 4.3851468	 0.1871178592	-0.288667
C	 1.1723715909	 3.5159971546	-1.039997194	-0.022392
C	 1.1620772474	 2.0037503519	-0.910447184	-0.318854
H	 0.3192056637	-2.0333632676	 0.9970900468	 0.190694
H	-1.9803952735	 1.6978345911	 0.5759251806	 0.093209
H	-2.0409260988	 3.5454234637	-1.3022486864	 0.116518
H	-1.9210825116	 4.1375828426	 0.3357148306	 0.109551
H	-0.2460433092	 5.1781721372	-1.4296456317	 0.08057
H	 1.6228619136	 5.3002657065	 0.2340579218	 0.107694
H	 0.9113080842	 3.8883501238	 1.1434009427	 0.116828
H	 1.8354527177	 3.8846289768	-1.8170319277	 0.079838
H	 2.0816335297	 1.65593881	-0.4234196665	 0.116129
H	 1.1714045131	 1.5512548119	-1.9119089335	 0.119217
