17
gdb 126940	6.36709	0.79824	0.71796	4.9726	71.75	-0.2041	0.0451	0.2491	1542.7668	0.137574	-451.35642	-451.3475	-451.346556	-451.390507	32.286	
C	-0.0653580079	 1.5041700018	-0.0386494859	-0.401345
C	-0.0642139337	-0.0168969797	-0.1433830799	-0.131216
N	-1.3940682396	-0.5485539578	 0.1203890659	-0.395876
C	-1.6402114465	-1.8924377506	 0.0492200703	 0.492216
N	-2.8393665815	-2.4463178912	-0.0801221711	-0.450183
C	-2.5454008065	-3.7774088106	-0.0428047389	 0.426496
O	-3.5028155443	-4.7112273991	-0.1420908994	-0.412767
N	-1.2800903747	-4.1066149201	 0.0903342182	-0.305318
N	-0.6969310841	-2.8518516713	 0.1407335043	-0.274207
H	 0.9387605595	 1.8988723266	-0.2129123061	 0.131035
H	-0.7321011032	 1.9480643627	-0.7861737645	 0.126567
H	-0.3987999201	 1.8252269744	 0.9521125512	 0.137927
H	 0.3089101959	-0.3280707887	-1.1325396563	 0.108949
H	 0.6269533286	-0.4290672535	 0.6036510203	 0.113211
H	-2.1657364746	 0.0004020735	-0.2300297994	 0.254578
H	-4.33752109	-4.2349993262	-0.2211324618	 0.306934
H	 0.2953967626	-2.7722013202	 0.2699464133	 0.273001
