15
gdb 49691	2.57257	1.32485	1.02233	3.2921	75.32	-0.2372	-0.0333	0.2039	1154.7088	0.110139	-420.548467	-420.540281	-420.539337	-420.58153	30.29	
O	-0.0426778768	 0.024183512	 0.3309251263	-0.264767
C	-0.0198027095	 1.1892803059	 0.0139575926	 0.154335
C	 1.2373159838	 1.9782601472	-0.0750801054	-0.18278
C	 1.5880783705	 2.9424093846	-1.207327943	-0.204991
C	 0.361626422	 3.7179844159	-1.6638414823	-0.107663
O	 0.0413479851	 4.0843484996	-0.2920337785	-0.317477
C	 1.2623840968	 3.4849600041	 0.1682620415	 0.2659
C	 2.0281650261	 4.1230956437	 1.1784809176	 0.241733
C	 2.6718738837	 4.6564364283	 2.0429951095	-0.393598
H	-0.9510842679	 1.7456774348	-0.2099755726	 0.099006
H	 2.1073455798	 1.4557512564	 0.310069303	 0.127304
H	 2.5396251774	 2.8779198698	-1.7159472036	 0.128957
H	 0.6175098241	 4.6107097433	-2.2434981718	 0.129357
H	-0.4509503633	 3.1742598701	-2.1547602578	 0.121693
H	 3.2385879582	 5.1305000242	 2.8063056846	 0.202991
