16
gdb 47349	2.98692	1.27857	0.93722	3.7318	71.87	-0.2569	0.0002	0.2571	1190.8639	0.126369	-434.073978	-434.066066	-434.065121	-434.106891	29.353	
N	-0.0418394864	 1.2884682809	 0.2235783387	-0.491281
C	-0.0107056046	 0.0608733389	-0.0620598493	 0.41019
C	-1.2736662714	-0.7697106466	-0.0917318014	-0.242414
N	-1.1715971682	-1.8485640047	-1.0715201579	-0.317171
C	-0.0174419714	-2.6820410114	-0.7836741845	-0.189699
C	 1.2125798996	-1.8024564446	-1.0224208761	-0.003095
O	 1.1837610796	-0.5987135514	-0.2419482101	-0.264473
C	 2.4561482804	-2.5054272539	-0.6873925749	 0.28217
N	 3.4199395598	-3.0948783662	-0.4497593099	-0.306614
H	 0.9039035306	 1.6748381663	 0.2530424288	 0.229984
H	-1.4366959191	-1.1433861937	 0.9371787317	 0.116302
H	-2.1018709966	-0.1054845313	-0.3400387873	 0.147534
H	-2.0217701303	-2.3994707704	-1.0758557048	 0.237774
H	 0.0125018384	-3.0705586181	 0.2499526456	 0.112127
H	 0.0173153931	-3.5313162488	-1.4711908096	 0.133825
H	 1.2388058665	-1.5273159351	-2.0848475089	 0.144842
