17
gdb 3550	4.87976	2.79189	2.49675	0.2579	66.76	-0.2433	0.0989	0.3422	636.57	0.150143	-272.533448	-272.52758	-272.526636	-272.562685	23.884	
C	-0.0096411102	 1.5912954662	 0.0323810577	-0.421708
C	 0.0985911415	 0.0720256262	-0.0068464824	 0.047063
C	 0.8125689368	-0.6482337455	-1.152509656	-0.072631
C	 2.3006704737	-0.7774516159	-0.7784887235	-0.059451
C	 2.4952923481	-0.1423344633	 0.5960049111	-0.230382
C	 1.0832833834	-0.697633619	 0.9312380424	-0.076064
C	 1.2810629176	-1.7506182842	-0.2361625105	-0.079504
H	 0.9548495714	 2.0782563982	-0.1351221548	 0.117746
H	-0.6955264441	 1.9482444223	-0.7442344528	 0.111739
H	-0.3991953988	 1.9343204027	 0.9980135783	 0.110279
H	-0.897052368	-0.3717263928	 0.1131117026	 0.067367
H	 0.4956019217	-0.7388758717	-2.1844985662	 0.07659
H	 3.0454478656	-0.9607324206	-1.5427773655	 0.079761
H	 3.2672520007	-0.671715001	 1.1620810599	 0.095909
H	 2.6646130241	 0.9371067748	 0.6785157321	 0.085779
H	 0.8035652296	-0.9173630889	 1.9601536962	 0.062507
H	 1.1975949569	-2.8258398977	-0.2939140386	 0.085001
