17
gdb 39145	3.5555	1.40101	1.25437	2.6911	67.43	-0.2516	0.0699	0.3215	1021.1642	0.136374	-458.916215	-458.908919	-458.907975	-458.948369	27.767	
C	-0.0491040249	 1.4737924164	-0.0676367024	-0.12645
O	 1.3783861514	 1.6111001439	 0.107500446	-0.272846
C	 1.5210735912	 0.2119619044	 0.4187404591	-0.134443
C	 0.0630588964	-0.0621653798	-0.0351305987	 0.357108
O	-0.8141478488	-0.6974604476	 0.8745680023	-0.30361
C	-1.1434240519	-2.0151246586	 0.4339330515	-0.124004
C	-0.8405410954	-2.0336793868	-1.0468560583	 0.022641
O	-1.4466422439	-0.9429275825	-1.7471043589	-0.251899
C	-0.0804677373	-0.8164119357	-1.3352476712	-0.053588
H	-0.6153787282	 1.8684516386	 0.7847733337	 0.11293
H	-0.4049030846	 1.9318695451	-0.9960871385	 0.115425
H	 2.3344470454	-0.2589654326	-0.1470070238	 0.099483
H	 1.6632579424	 0.0307785335	 1.4920176516	 0.106621
H	-0.5369158719	-2.7746118131	 0.9506866726	 0.102727
H	-2.1988297837	-2.1931437188	 0.6637923048	 0.124952
H	-0.732344813	-2.9658876174	-1.5936022113	 0.109403
H	 0.660071617	-0.7202592392	-2.1238524785	 0.115549
