20
gdb 40458	3.87538	1.35203	1.26032	0.9628	82.5	-0.2219	0.0879	0.3098	1072.4009	0.172314	-365.924918	-365.917606	-365.916662	-365.956742	30.072	
C	-0.1312948078	 1.3417475342	-0.3045726646	-0.235592
C	 1.2543899882	 0.9261325784	 0.0462226686	-0.235416
N	 0.1561048346	-0.0390873647	 0.0698067287	-0.170511
C	-0.2694969833	-0.5304889618	 1.3435097664	 0.378793
C	 0.3772258242	-1.8483800304	 1.8580249125	-0.273531
C	-0.9543224168	-2.1036509323	 2.5568042282	-0.056886
C	-1.472492363	-0.7451208586	 3.0520403003	-0.064251
C	-0.4467910335	 0.3145598633	 2.6555909963	-0.293316
C	-1.6937637039	-1.1753880381	 1.6238982304	-0.14092
H	-0.6532139665	 1.9806938255	 0.4033075943	 0.114063
H	-0.4150591056	 1.486549887	-1.3430918453	 0.116565
H	 2.0012024432	 0.7718482299	-0.7273024316	 0.116672
H	 1.6476460346	 1.2763631438	 0.998437699	 0.116687
H	 0.5371031787	-2.5419561462	 1.0290496005	 0.105336
H	 1.290343663	-1.7628924774	 2.4595577287	 0.081437
H	-1.314685554	-3.0275820942	 2.9900957644	 0.083711
H	-2.2111500251	-0.6834812203	 3.8406063472	 0.084254
H	 0.4354836477	 0.4639228483	 3.2894526836	 0.086008
H	-0.9365702218	 1.2749166821	 2.4718861641	 0.097571
H	-2.5829777029	-1.2965811886	 1.0233383383	 0.089324
