19
gdb 71845	2.80003	1.92086	1.6371	1.6291	78.62	-0.2323	0.0039	0.2361	918.4656	0.160973	-385.856153	-385.849234	-385.84829	-385.886843	29.351	
C	 0.0457298429	 1.5680445573	-0.0077048593	-0.509638
C	-0.0326660707	 0.0609609406	-0.0717537206	 0.315066
C	 0.2687592607	-0.7259220717	-1.3535346209	-0.281815
C	-0.6002438205	-1.891296679	-0.7716651851	-0.146982
C	 0.3247956824	-2.7334495268	 0.0618804583	-0.048198
C	 0.9218276872	-2.076568315	 1.0611023097	-0.079564
C	 0.3556417919	-0.7018615952	 1.2769195156	-0.003026
O	-1.0821346706	-0.9146537958	 1.5532082415	-0.291735
C	-1.3092720745	-0.7746144924	 0.1619419911	 0.087024
H	 1.0871203607	 1.9112007885	-0.0301135794	 0.118444
H	-0.4726857589	 2.0276958353	-0.8560856101	 0.115045
H	-0.4116424263	 1.9449381402	 0.9132620754	 0.128598
H	-0.2226573451	-0.2403726517	-2.2039505192	 0.096494
H	 1.303476505	-0.9641636568	-1.613661162	 0.095016
H	-1.2294820569	-2.453228367	-1.4613496284	 0.06499
H	 0.5051994205	-3.7763684239	-0.1759242159	 0.096807
H	 1.6487230784	-2.5056774929	 1.7404374661	 0.095401
H	 0.8291651263	-0.1091597387	 2.0615822861	 0.071225
H	-2.3355992726	-0.502400225	-0.0945875331	 0.076848
