18
gdb 23420	3.49319	1.24871	1.03646	1.812	75.51	-0.2186	0.0054	0.224	1159.1618	0.149961	-435.192342	-435.184408	-435.183464	-435.224994	30.66	
O	-0.1974912998	 1.3372490412	 0.18603058	-0.393655
N	-0.0497541985	-0.0582996148	 0.3167445274	-0.241804
C	-1.0996086628	-0.6719449275	-0.0508232205	 0.451785
C	-2.4396832918	-0.1248019675	-0.5054727301	-0.273588
N	-3.4391461515	-1.1355055191	-0.0948167365	-0.304449
C	-2.7570812158	-2.4244727346	 0.0532107334	-0.00552
C	-2.5870497399	-3.2626794296	-1.2416743521	-0.161972
N	-1.2005085732	-2.7571360365	-1.3855491118	-0.317148
C	-1.2126717833	-2.1695394396	-0.0172261127	-0.123326
H	 0.6416405199	 1.6623087185	 0.5293182104	 0.30498
H	-2.655910167	 0.853649665	-0.0733370317	 0.130755
H	-2.4380404706	-0.0097663586	-1.5966699933	 0.137561
H	-3.8225657565	-0.8647454599	 0.8025327518	 0.22362
H	-3.1520496481	-2.9699984572	 0.9103367502	 0.077913
H	-2.6677162122	-4.3425166437	-1.0586708511	 0.09064
H	-3.2506072411	-2.9925473636	-2.0698873185	 0.108208
H	-0.4854482961	-3.4560395775	-1.5434781785	 0.22115
H	-0.5633955116	-2.6433984651	 0.7230434238	 0.074851
