17
gdb 71526	2.57278	1.55913	1.4356	1.0339	80.23	-0.2275	0.0164	0.2439	1006.5665	0.135273	-380.726788	-380.718866	-380.717922	-380.75891	31.193	
C	 0.0152830078	 1.4651151673	-0.039552365	-0.530374
C	 0.0374391019	-0.0297945507	-0.0523341586	 0.315279
N	 0.660300575	-0.8719294015	-1.1249313	-0.375049
C	 0.0964019283	-1.8776140982	-0.1758394492	-0.092558
C	 0.4886092647	-1.0224581707	 1.0631067805	-0.068002
N	-0.8635247884	-1.0221164016	 1.7072905426	-0.385011
C	-1.1716808377	-1.0243147626	 0.2343483473	 0.249119
C	-2.4819924277	-1.0338401744	-0.3325936289	 0.073407
C	-3.5709581467	-1.0429181646	-0.8457611631	-0.389217
H	 1.0312648898	 1.8641623506	-0.1181019678	 0.134659
H	-0.574044477	 1.856838113	-0.8753164546	 0.128224
H	-0.4337340556	 1.8168293206	 0.8938601443	 0.147263
H	 0.0951521681	-0.8330812027	-1.9778432625	 0.21247
H	 0.1631949343	-2.9572370597	-0.3220289745	 0.087408
H	 1.4252881038	-1.0227415934	 1.6179437718	 0.092655
H	-1.0680579105	-1.9426843745	 2.105719175	 0.21338
H	-4.5356819402	-1.0489324967	-1.2900183674	 0.186347
