12
gdb 132846	3.19653	1.52963	1.03456	2.4949	64.87	-0.2724	-0.0912	0.1812	1024.0092	0.078354	-476.832233	-476.825361	-476.824416	-476.864049	24.597	
F	-0.0991469554	 0.0531762099	 0.006433786	-0.018626
C	-0.0578329599	 1.3640036695	 0.0119308443	 0.332349
N	-1.2149761033	 1.9849358519	 0.0300270664	-0.304436
C	-1.1649432043	 3.3208656205	 0.0358326516	 0.092161
N	-0.0729791016	 4.0848403257	 0.0252850847	-0.258721
C	 1.0828912811	 3.4199623531	 0.0071183549	-0.013789
C	 1.1794512666	 2.0286301175	-0.0007724165	-0.037397
C	 2.5064547536	 1.3732126837	-0.0208925174	 0.090308
O	 2.7060241662	 0.1847546562	-0.0286972766	-0.249858
H	-2.1219490573	 3.8354339838	 0.0507680548	 0.144315
H	 1.9927371528	 4.0184086869	-0.0018055571	 0.13871
H	 3.3477390714	 2.1027203913	-0.0286157852	 0.084983
