20
gdb 106705	2.46879	1.51197	1.20261	1.4248	79.12	-0.2311	0.0713	0.3024	1129.2544	0.170232	-403.084421	-403.075674	-403.07473	-403.117603	33.905	
C	 0.2524082111	 1.4751561488	 0.2412555587	-0.376476
C	-0.1608740646	 0.0336104391	-0.0867535459	-0.290689
C	 0.5453775588	-0.5122205416	-1.2922504201	 0.317606
C	 1.9612365485	-1.0399318155	-1.300870967	-0.398518
C	 0.8303794012	-1.9210701017	-1.7905911355	 0.30506
O	 0.5087830811	-3.1358563092	-1.2096240472	-0.464755
C	 0.3997700666	-1.4627236428	-3.158980299	-0.103976
C	-0.9342675587	-0.8205233092	-3.1066546142	-0.247588
N	 0.2301106371	-0.027883163	-2.6651063489	-0.15353
H	 1.3216725187	 1.5342416275	 0.4680954556	 0.117491
H	 0.0548812324	 2.1377320538	-0.6065015869	 0.134096
H	-0.3000865629	 1.8539629915	 1.1064873139	 0.108921
H	 0.0459621665	-0.6242143956	 0.765521433	 0.108796
H	-1.2451589036	-0.0102318251	-0.2506945059	 0.100377
H	 2.6950512498	-0.629371721	-1.9897191587	 0.11222
H	 2.344715657	-1.3125404728	-0.3212988508	 0.111204
H	 1.2683834903	-3.7235119454	-1.2859849086	 0.28675
H	 0.910264617	-1.6683737717	-4.0955260643	 0.092204
H	-1.3569234119	-0.4664152508	-4.0421960526	 0.117963
H	-1.6601967445	-1.1551393956	-2.3697113055	 0.122845
