14
gdb 3006	7.37301	1.55423	1.4241	1.9444	55.35	-0.2666	-0.0386	0.228	838.978	0.113153	-361.698233	-361.691131	-361.690186	-361.729684	24.989	
O	 0.1030003976	 1.420277024	-0.2063410693	-0.418468
C	 0.0536331868	 0.0343893496	-0.3501631352	-0.134459
C	-1.2321204799	-0.5410941601	 0.2160285954	 0.357857
O	-2.0799710413	 0.2086519046	 0.6670422902	-0.354108
C	-1.4165797572	-2.0164672597	 0.1929591533	-0.105657
C	-1.932087604	-2.642465764	 1.4567510867	-0.215081
N	-2.7913626509	-2.5346952407	 0.2897148635	-0.298887
H	-0.748882945	 1.6650091202	 0.1890082702	 0.296225
H	 0.1162786113	-0.2683065323	-1.410405464	 0.121578
H	 0.9040753831	-0.4529522635	 0.1556081909	 0.121916
H	-0.7433175299	-2.5846893822	-0.4422104721	 0.106266
H	-1.6025029081	-3.6465930741	 1.7065578911	 0.133184
H	-2.1040620345	-1.9757784243	 2.2969482118	 0.137651
H	-3.405498538	-1.7282466075	 0.4087652775	 0.251984
