18
gdb 67741	3.40034	1.55761	1.35165	2.2489	76.26	-0.2251	-0.0026	0.2225	996.232	0.147377	-401.903117	-401.895486	-401.894542	-401.934463	31.307	
C	-0.0607723644	 1.4975610767	 0.0042641703	-0.484764
C	-0.0619757029	-0.0019914611	-0.1247024923	 0.317447
C	 0.8589710084	-0.7008760232	-1.0619613717	-0.139174
C	 0.460265573	-1.9649575324	-1.2467516952	-0.201703
C	-0.7020448814	-2.2408394148	-0.3249161585	 0.353862
O	-1.5161299755	-3.3433166445	-0.576552741	-0.489802
C	-0.1260724306	-2.1590915076	 1.1234950937	-0.169629
N	-0.4118172031	-0.6998329421	 1.2156534126	-0.192613
C	-1.2858249927	-0.8224830161	 0.0092573492	-0.174538
H	 0.9116619406	 1.8590595444	 0.3553059124	 0.12451
H	-0.2704536953	 1.9702202869	-0.9614254612	 0.117866
H	-0.816871936	 1.8200337486	 0.7237651116	 0.133263
H	 1.7532401482	-0.2379167527	-1.4611852286	 0.10316
H	 0.9861621135	-2.7508546429	-1.7764341967	 0.106298
H	-1.7587616366	-3.3327459292	-1.5087178156	 0.281236
H	-0.796229949	-2.6655075989	 1.8227013707	 0.123946
H	 0.9108459571	-2.4685828953	 1.2878815702	 0.098785
H	-2.3183006933	-0.4845384757	-0.0232878897	 0.09185
