18
gdb 106637	2.70363	1.29944	1.04551	1.3278	74.38	-0.261	0.0183	0.2793	1189.6275	0.146236	-439.058296	-439.049229	-439.048285	-439.092282	33.488	
C	 0.0375156749	 1.5448485029	-0.0029768296	-0.489749
C	 0.0359144364	 0.046661405	 0.0621365283	 0.10152
C	 1.2146401762	-0.8508567054	-0.3556066851	-0.367725
C	 0.6390042944	-0.9773306657	 1.009060541	 0.40136
C	 1.2968198522	-0.9211367963	 2.3481278374	-0.176707
O	 1.9266042889	-2.1444905809	 2.6903373216	-0.405509
O	-0.5612645063	-1.8113455064	 0.9141561691	-0.323754
C	-1.1718360758	-0.8344423291	 0.124805259	 0.407459
N	-2.3510780645	-0.7441521081	-0.2878383029	-0.557555
H	 1.0320162411	 1.9474631994	 0.2112256838	 0.121662
H	-0.2527109046	 1.8851037811	-1.0022258677	 0.144304
H	-0.67032483	 1.9731905397	 0.7127869091	 0.136096
H	 1.078764186	-1.6514926777	-1.0756950153	 0.130221
H	 2.1601386642	-0.3202784013	-0.424600938	 0.127086
H	 2.0830478194	-0.1597996528	 2.333036707	 0.120527
H	 0.5547522313	-0.6249354784	 3.1045717839	 0.105151
H	 1.2425429564	-2.8228752096	 2.7081854009	 0.295775
H	-2.9113600201	-1.5462357561	 0.0051063175	 0.229839
