19
gdb 31563	3.30051	1.09461	0.83179	1.261	81.65	-0.1569	0.0698	0.2267	1391.0135	0.158769	-419.23094	-419.220879	-419.219935	-419.26578	36.163	
C	-0.5479235919	 0.5725248637	 0.4438904814	-0.242948
O	 0.5167173132	 0.882466806	-0.4369353073	-0.261641
C	 0.8057698759	-0.0816075774	-1.3397118348	 0.424965
C	 0.2908946151	-1.3325389751	-1.5868996384	-0.36992
C	 1.04606234	-1.8663982745	-2.6850834957	 0.177502
N	 0.7703784192	-3.1094267889	-3.2987069244	-0.609717
C	 1.9876155468	-0.9364119247	-3.0606972568	 0.242447
C	 3.0185697161	-0.9416498776	-4.1368666501	-0.510339
N	 1.8102100109	 0.1693101007	-2.2231331459	-0.395557
H	-1.4806446455	 0.4012108832	-0.1086034854	 0.126393
H	-0.3201369975	-0.3203895322	 1.0402550027	 0.123799
H	-0.6662678179	 1.4328433653	 1.1043040702	 0.131593
H	-0.5292562803	-1.8118922643	-1.0784389846	 0.085268
H	 0.6569821016	-3.8473685949	-2.6126240915	 0.23463
H	 1.5052684005	-3.3874489863	-3.9381157122	 0.229264
H	 3.178738458	-1.9591984316	-4.5075114174	 0.119621
H	 2.7478483567	-0.3247617014	-5.0056735803	 0.123778
H	 3.9907773157	-0.5817432206	-3.7748613677	 0.11683
H	 2.3621866034	 1.0084470508	-2.2241421118	 0.254033
