15
gdb 44343	4.5793	1.45799	1.40532	4.1936	68.47	-0.2416	-0.0324	0.2092	914.7716	0.115193	-420.629205	-420.623295	-420.622351	-420.65932	24.691	
O	-0.0266693649	 0.0519837609	-0.0491392257	-0.337303
C	 0.0386142617	 1.2415193513	-0.0088913678	 0.446715
O	-1.0618903455	 2.0759828709	 0.0017440678	-0.24684
C	-0.4472492309	 3.3720431324	 0.0551139061	 0.114455
C	 0.7534028875	 3.3437955368	-0.958801442	-0.09367
C	 1.5646302731	 4.5619780501	-0.5404887447	-0.106045
C	 1.5430065097	 4.5171592813	 0.793922273	-0.106044
C	 0.7200083275	 3.2745290745	 1.1031033096	-0.093629
C	 1.2083188562	 2.2074313469	 0.0427657016	-0.193552
H	-1.197681719	 4.160632805	 0.0694892946	 0.104812
H	 0.5894882393	 3.1278908878	-2.0138959881	 0.088084
H	 2.000907902	 5.2921414296	-1.2062831418	 0.117133
H	 1.9567222147	 5.2005376654	 1.5209659732	 0.117133
H	 0.5223033352	 2.9884962111	 2.135482153	 0.088094
H	 2.2111577032	 1.7866876459	 0.0449122512	 0.100659
