18
gdb 31962	4.56378	0.93699	0.81974	0.3447	76.23	-0.2114	0.0276	0.2389	1438.6612	0.147631	-439.124175	-439.115138	-439.114194	-439.158606	31.965	
C	 0.276609185	 1.5459917337	-0.0761299736	-0.373375
C	-0.0169670837	 0.0440729517	 0.0850075126	-0.297517
C	 0.5464501268	-0.5438683629	 1.3272980374	 0.334255
C	 0.0471314715	-1.1232680269	 2.4406843811	-0.210885
N	 1.0833153431	-1.488860347	 3.3065690123	-0.387245
C	 2.1407224815	-1.108251691	 2.6671855381	 0.49316
O	 3.4155061702	-1.2013592784	 3.0137740455	-0.250121
C	 3.6424344283	-1.8174644408	 4.2861449244	-0.235428
O	 1.9307731694	-0.5302719108	 1.4709595511	-0.226226
H	 1.3542399726	 1.7307563529	-0.0913960672	 0.134101
H	-0.1474295958	 1.923632649	-1.0112468244	 0.114669
H	-0.1519778812	 2.1181525691	 0.7520717322	 0.122936
H	-1.0980736942	-0.1296575187	 0.1019950884	 0.117991
H	 0.371593674	-0.4963278645	-0.7884122158	 0.118486
H	-0.9855815255	-1.3105498476	 2.6898584636	 0.11832
H	 3.2549179698	-2.8399697301	 4.2915483218	 0.144646
H	 4.7234024169	-1.8158007289	 4.4246457096	 0.137461
H	 3.1511567813	-1.248916079	 5.0805440629	 0.144772
