20
gdb 105901	2.15299	1.81868	1.22625	1.1679	79.2	-0.2289	0.0649	0.2937	1094.788	0.170474	-403.050997	-403.042513	-403.041569	-403.083964	32.784	
C	 0.0293538606	 1.5051568332	 0.0164312496	-0.381641
C	 0.0158701862	-0.0268777101	 0.0869814234	-0.332589
C	 0.6792355055	-0.5576189869	 1.3260084899	 0.3731
C	 0.339180342	-0.2807244999	 2.79228106	 0.066484
O	-0.8685568411	-0.8615246228	 3.2167669361	-0.445355
C	 1.6223078457	-1.1173618882	 2.8296194455	-0.059328
C	 1.2057284063	-2.0058614988	 1.6220445504	-0.115155
C	 2.5222754739	-1.6481292809	 0.944125037	-0.195322
N	 2.200065317	-0.3209546424	 1.6291198381	-0.203307
H	 1.0542793718	 1.8839911748	 0.0628474537	 0.136681
H	-0.4280809177	 1.857324927	-0.9126900209	 0.110881
H	-0.5278227621	 1.9444942487	 0.8500579116	 0.120077
H	-1.0160490837	-0.3995744638	 0.0690116516	 0.11548
H	 0.5118036465	-0.4471656478	-0.7970233282	 0.101608
H	 0.450265172	 0.7632394158	 3.1157418361	 0.077196
H	-0.9358330107	-0.7621112816	 4.1713726551	 0.287615
H	 2.2702843477	-1.3897472993	 3.66535049	 0.074765
H	 0.6356236809	-2.9385038314	 1.6334688956	 0.071538
H	 3.4390606138	-2.1140806656	 1.3208475781	 0.097651
H	 2.5534780353	-1.5843440899	-0.1483305726	 0.09962
