19
gdb 59499	3.82339	0.80442	0.71553	5.4281	76.89	-0.2649	0.038	0.3029	1571.9951	0.158008	-419.19455	-419.184599	-419.183655	-419.230805	35.433	
C	-0.0618203262	 1.5367345385	-0.1988949704	-0.418583
C	 0.0234456833	 0.0490450661	 0.1354386795	 0.141526
O	 0.7426612989	-0.1876047876	 1.3454904626	-0.432815
C	-1.3509494511	-0.5951477163	 0.1906865886	-0.052794
N	-1.8391057057	-1.2505101408	-1.0345897104	-0.32976
C	-1.5573258601	-2.0646138388	 0.1535007881	-0.016382
C	-0.4006422524	-3.0507618552	 0.0644013932	-0.337192
C	-0.8487654817	-4.3807204642	-0.3473798268	 0.252386
N	-1.2236410746	-5.4274732266	-0.6619523976	-0.306413
H	 0.937538877	 1.9780264249	-0.2323755485	 0.129177
H	-0.5462951738	 1.6873168609	-1.1685658609	 0.133303
H	-0.649497613	 2.0731679156	 0.5573129149	 0.106023
H	 0.6068491897	-0.4538087495	-0.6414098743	 0.099557
H	 0.3182105602	 0.31716473	 2.0481688072	 0.279477
H	-2.0777473197	-0.0365974356	 0.7835695974	 0.081044
H	-2.8383660815	-1.1160183284	-1.1579133426	 0.241107
H	-2.4079418528	-2.44363428	 0.7161236406	 0.104911
H	 0.340721339	-2.6933898209	-0.6546804357	 0.160988
H	 0.0999610043	-3.1248697721	 1.0358583749	 0.164441
