23
gdb 61536	2.8063	0.91271	0.79687	2.794	86.67	-0.2435	-0.0184	0.2251	1537.308	0.203015	-388.292913	-388.282316	-388.281372	-388.329647	38.654	
C	-1.5879074074	 1.8685054906	-0.298797758	-0.413476
C	-1.3233638679	 0.36175684	-0.153450527	-0.04618
C	-0.1491406726	-0.1808602541	-1.0097025152	-0.298774
C	-0.2689818206	-0.0133250067	-2.5257039268	 0.380384
C	 0.2620092855	 1.287931739	-3.1050796644	-0.465177
C	-0.0521063692	-1.248470476	-3.374293024	-0.307979
C	-1.4386408111	-0.673601635	-3.2211526956	-0.296673
C	-1.0122126728	 0.0462068479	 1.2973825445	 0.157767
O	-1.5617238314	-0.794367197	 1.9612185138	-0.250201
H	-0.6863070712	 2.456424877	-0.0928407548	 0.119491
H	-1.9263251559	 2.1086585029	-1.308777538	 0.136124
H	-2.3681375927	 2.1954645976	 0.3964639286	 0.124432
H	-2.2307703688	-0.1965903175	-0.4056639223	 0.094431
H	 0.7874526711	 0.2865678155	-0.6743700999	 0.097389
H	-0.0541580746	-1.2481283162	-0.7781484773	 0.111253
H	 1.3268579831	 1.4101862472	-2.8730790609	 0.115595
H	 0.1592319414	 1.29771645	-4.1948768429	 0.113442
H	-0.261763382	 2.1667377341	-2.7187512056	 0.116795
H	 0.4508386997	-1.1273705793	-4.3281232775	 0.109152
H	 0.1671811914	-2.1860133637	-2.8743326332	 0.111674
H	-2.1503266049	-1.22831662	-2.618604425	 0.114715
H	-1.8831742141	-0.1664197151	-4.0711311075	 0.109974
H	-0.1888243348	 0.6669116289	 1.7292066891	 0.065842
