22
gdb 78770	2.63174	1.54848	1.28292	0.7738	86.71	-0.1993	0.0916	0.2909	1125.9644	0.192935	-367.156853	-367.147847	-367.146903	-367.189647	35.61	
C	-0.0537714923	 1.5303120662	 0.0749859122	-0.335392
N	 0.1037219107	 0.0838990711	 0.0040665085	-0.108928
C	 0.796328764	-0.4938678281	-1.1377390615	-0.062374
C	 1.3844089413	-1.6024382894	-0.3290817106	-0.210367
C	 2.3284493825	-0.5366575266	-0.8650169823	 0.325143
C	 3.3536400227	-0.6492643925	-1.9528185431	-0.506173
C	 2.4995408946	 0.0523334289	 0.53501378	-0.336377
C	 1.1198644011	-0.6037230647	 0.8699539473	 0.337723
C	 0.7111116631	-0.9378501328	 2.2773771765	-0.500806
H	 0.8577436304	 2.1082040389	-0.144760635	 0.098715
H	-0.8225321953	 1.8351740913	-0.6436086739	 0.117503
H	-0.4077227219	 1.8094030228	 1.0730982569	 0.11601
H	 0.3834386381	-0.5091206691	-2.140359104	 0.086244
H	 1.3411027801	-2.6782661212	-0.4233164507	 0.088854
H	 2.9626467086	-1.2124029319	-2.8078053033	 0.11667
H	 3.6548842299	 0.3392497571	-2.3195473755	 0.11867
H	 4.2575048499	-1.1640788196	-1.605802276	 0.115975
H	 3.3018845275	-0.4603237515	 1.0749710385	 0.093784
H	 2.6124732894	 1.1349083871	 0.6646554761	 0.08313
H	 0.581533125	-0.0260650289	 2.872588465	 0.118514
H	-0.2362232891	-1.4845325214	 2.2850547932	 0.127015
H	 1.4739213699	-1.5495809156	 2.7697388518	 0.116467
