16
gdb 49315	3.46115	1.23133	0.94488	3.4656	69.12	-0.2576	-0.0674	0.1902	1185.4635	0.124728	-475.026654	-475.018689	-475.017745	-475.059834	28.717	
O	-1.026431377	 1.3600817619	 0.2731343184	-0.242346
C	 0.1268707013	 1.0605062187	 0.426209231	 0.131074
C	 1.2962569216	 1.9228743671	 0.014990829	 0.281664
N	 2.4460878093	 1.4404513634	 0.2475381672	-0.280672
C	 3.6957711036	 2.1543851748	 0.0740099409	-0.160073
C	 3.8561823102	 3.0167439251	-1.1751010004	-0.102779
O	 2.9431747635	 4.1037461912	-1.2031329432	-0.211504
C	 1.6543526941	 3.7336556346	-1.5406630214	 0.008602
O	 0.9062929703	 3.1151730084	-0.4944258377	-0.243809
H	 0.4608981939	 0.1125575522	 0.891220654	 0.103767
H	 3.8314059913	 2.7987461315	 0.9547933573	 0.137346
H	 4.5091138035	 1.4196886393	 0.0935657015	 0.117613
H	 4.8584358489	 3.4549108279	-1.1864626337	 0.121556
H	 3.7357868927	 2.4026958214	-2.0812869617	 0.10363
H	 1.0984261363	 4.6435446939	-1.7676586064	 0.136227
H	 1.6571229964	 3.0489667687	-2.4040916547	 0.099704
