18
gdb 103695	2.2956	1.34967	1.	2.4753	73.61	-0.2766	0.0148	0.2913	1209.1292	0.144763	-439.075359	-439.065325	-439.064381	-439.110004	36.421	
C	-0.0701139982	 1.5703796002	 0.1484280956	-0.454813
C	-0.0632379887	 0.0573902309	 0.0482913086	 0.292089
C	-1.3423494232	-0.5386079078	-0.5037734809	-0.154264
O	-1.4675400437	-0.0942733396	-1.8475507439	-0.420989
C	 1.2263232888	-0.6474073545	-0.2906340675	-0.365873
C	 0.6769718719	-0.7202372984	 1.1277676989	 0.194231
O	 1.2781819714	 0.0440518773	 2.1309721042	-0.443129
C	 0.1489324332	-1.9847540107	 1.599169198	 0.255402
N	-0.2448637922	-2.9978472497	 1.9963172339	-0.358715
H	 0.8713288444	 1.9522243084	 0.5438082276	 0.129702
H	-0.2417299818	 1.9920681718	-0.8451232428	 0.141843
H	-0.8758667933	 1.9108425756	 0.8075543671	 0.122785
H	-1.3098401006	-1.6358141548	-0.4494397859	 0.106735
H	-2.1934540364	-0.2026573521	 0.1092703912	 0.099597
H	-2.3110749599	-0.4063781441	-2.1879432037	 0.292625
H	 1.1873326921	-1.5410755054	-0.9030370155	 0.136722
H	 2.1189354481	-0.0421894735	-0.4059320134	 0.127818
H	 2.0896702081	-0.4004124335	 2.4024670587	 0.298232
