17
gdb 78877	2.85008	1.79732	1.36603	1.8131	71.99	-0.2374	0.0578	0.2952	955.7676	0.137086	-417.904937	-417.897644	-417.8967	-417.936465	28.885	
O	-0.2491904418	 1.5093340546	 0.0233013631	-0.425345
C	-0.1023047856	 0.116542562	 0.0958676879	 0.13636
C	 0.1058878756	-0.6008213338	 1.4248864281	-0.104933
C	-1.2264036592	-0.8331231627	 2.0578392625	-0.158244
N	-0.7381172031	-1.7639026324	 0.9727124906	-0.164331
C	-1.3918108022	-0.7164374453	 0.0009499068	-0.144143
C	-2.280599154	-0.2647393285	 1.1503566088	 0.442648
C	-3.7366090369	-0.4313282396	 1.3189447876	-0.327043
N	-3.1198045729	 0.9124881931	 1.2237221236	-0.369591
H	 0.6173839787	 1.9037714724	-0.1124393186	 0.286198
H	 0.6307947362	-0.2599678325	-0.629633513	 0.082045
H	 1.0332682966	-0.7633033119	 1.9636656293	 0.093181
H	-1.3299634329	-1.1701186175	 3.083618768	 0.098432
H	-1.8005205592	-1.0344774952	-0.9552092333	 0.088535
H	-4.3654788109	-0.7036972449	 0.4753225137	 0.121503
H	-4.0986002866	-0.7794953462	 2.2839275898	 0.112634
H	-3.0517053417	 1.3544028383	 2.137007345	 0.232093
