17
gdb 33181	5.56075	0.80351	0.72061	5.2312	74.15	-0.1987	0.0217	0.2204	1521.0142	0.13616	-455.153535	-455.14471	-455.143766	-455.18861	31.659	
O	-0.5260152396	 1.5634784988	 0.2067142817	-0.426008
C	-0.0261589773	 0.244406429	 0.2861345521	-0.047238
C	-1.0723308519	-0.7658804783	-0.1843629585	-0.149201
N	-1.5062626954	-0.3659222363	-1.5166096688	-0.42951
C	-2.2338367905	-1.1514543657	-2.1876435491	 0.545553
N	-2.738857862	-0.9441838057	-3.4546166226	-0.376084
C	-3.4739462391	-2.0567349505	-3.8541005805	-0.091724
C	-3.4329337423	-2.9272772362	-2.8409065641	-0.03909
O	-2.6833346895	-2.3991888111	-1.8019007857	-0.218322
H	-0.9616581651	 1.6021854438	-0.655939749	 0.283746
H	 0.8860984516	 0.125735043	-0.3224956243	 0.076922
H	 0.2417377134	 0.056103612	 1.3316456447	 0.093997
H	-0.6519703487	-1.7824055216	-0.1687909656	 0.092873
H	-1.9210343629	-0.7548300559	 0.5155933746	 0.102254
H	-2.5341764169	-0.1208808364	-3.9901848753	 0.276027
H	-3.956932168	-2.1178551088	-4.8136820318	 0.153602
H	-3.8533568758	-3.9044960202	-2.6872058977	 0.152203
