21
gdb 38299	2.66839	1.93178	1.69315	1.2598	80.6	-0.2366	0.0706	0.3072	928.0895	0.187155	-387.047957	-387.041513	-387.040569	-387.078196	28.843	
C	 0.0634037456	 1.4475490617	-0.3001042977	-0.246575
C	 1.5843219108	 1.2744337372	-0.0180047955	 0.141912
C	 1.1513777999	 0.1667777726	 0.9861862209	-0.246573
C	-0.0940864986	-0.0594832476	 0.0734389218	-0.028787
C	 0.1810543821	-1.0301188086	-1.1257320666	-0.028788
C	 0.5562294019	-0.2910313607	-2.4480325119	-0.246575
C	 2.0215306947	-0.2679429745	-1.9235335584	 0.141912
C	 1.6441980756	-1.5717823561	-1.1617172072	-0.246573
O	 2.3799359418	 0.8469566098	-1.1165858352	-0.287268
H	-0.3729939566	 2.0772766364	 0.4806884799	 0.095568
H	-0.2640237085	 1.8253061519	-1.2666517027	 0.098526
H	 2.1283595525	 2.1346057979	 0.3783149947	 0.07406
H	 1.8361369774	-0.6470200951	 1.2163220369	 0.098526
H	 0.8495624348	 0.6380723324	 1.9260936156	 0.095566
H	-1.0214884711	-0.3431973509	 0.5753604928	 0.061413
H	-0.6160118408	-1.7736276872	-1.191863712	 0.061413
H	 0.4934921407	-0.9794995702	-3.2958017108	 0.095568
H	 0.0714369681	 0.641873936	-2.7287228788	 0.098526
H	 2.8255974027	-0.3250953728	-2.6605224324	 0.07406
H	 2.1715867226	-1.8304068897	-0.2456936703	 0.098526
H	 1.7160415341	-2.4186793625	-1.8503686531	 0.095566
