18
gdb 81133	3.27656	1.1224	0.99645	2.989	76.19	-0.2682	0.035	0.3032	1212.6135	0.147952	-401.913357	-401.90506	-401.904116	-401.946706	31.53	
O	 0.1334802692	 1.4007028008	-0.1961387339	-0.4484
C	 0.0359629201	 0.016235578	-0.0343153926	 0.140845
C	-0.0048879633	-0.660012302	 1.3692719345	-0.103027
C	-1.4770809536	-0.162884569	 1.5067213868	-0.288413
C	-1.3569101585	-0.6962531425	 0.0455170873	 0.297049
C	-2.423886298	-0.6946555649	-1.0335762795	-0.474068
C	-3.6439823213	-1.3857995464	-0.6195047602	 0.261043
N	-4.5954803613	-1.9375327503	-0.264884268	-0.312067
C	-0.5845618296	-1.9069375388	 0.6406323944	-0.255969
H	-0.3346354527	 1.8430436246	 0.5192381142	 0.286654
H	 0.737630405	-0.4210035745	-0.7503662932	 0.086521
H	 0.7701751706	-0.6483232896	 2.1349003222	 0.084211
H	-2.1231122616	-0.7348477294	 2.1763488454	 0.117561
H	-1.654056294	 0.9086593341	 1.6446389576	 0.081786
H	-2.6748938584	 0.3389852181	-1.3011166418	 0.157866
H	-2.0397335495	-1.1709408728	-1.9435592485	 0.155171
H	 0.0877896465	-2.4437928527	-0.0348372119	 0.097567
H	-1.1710469095	-2.5910879828	 1.2560646971	 0.11567
