19
gdb 37878	2.92082	2.13069	2.10192	1.4149	75.52	-0.2452	0.084	0.3291	809.4815	0.164768	-385.873709	-385.868318	-385.867374	-385.903038	25.013	
C	-0.0554367425	 1.566095229	 0.000570704	-0.248612
C	 1.4901561451	 1.5549414453	-0.0182923692	-0.046023
C	 2.1131181578	 0.8828454179	 1.2678391474	-0.082807
C	 1.0086117638	 0.4761038856	 2.2521285462	-0.217364
C	 0.3555121414	-0.6135709404	 1.376817921	 0.061487
O	 1.4877349504	-1.4580060388	 1.1080285265	-0.259057
C	 2.3041712296	-0.4823233092	 0.4766897964	 0.085603
C	 1.4508188675	 0.12749201	-0.6460392007	-0.037973
C	 0.0103798685	 0.0114791626	-0.0170974284	-0.051961
H	-0.596207487	 2.0663414693	 0.8095980436	 0.092568
H	-0.4361158672	 1.9449672029	-0.9526875356	 0.09849
H	 2.0412097048	 2.3952313792	-0.4408313987	 0.059998
H	 2.9865362627	 1.3660868325	 1.7032650015	 0.065868
H	 1.4160546749	 0.016690349	 3.1565794149	 0.101766
H	 0.3496207271	 1.2970456527	 2.539592968	 0.099971
H	-0.4369838427	-1.2029374094	 1.8373529334	 0.071765
H	 3.3003911141	-0.8752900755	 0.2824530616	 0.073019
H	 1.5840110041	-0.1071718657	-1.701278109	 0.063394
H	-0.7583803624	-0.5451744069	-0.5532657129	 0.069868
