14
gdb 46093	4.99069	1.03397	0.8849	1.4082	68.98	-0.2861	-0.0724	0.2138	1207.2819	0.102198	-436.7355	-436.728007	-436.727062	-436.76793	27.406	
O	-0.0448255739	 0.0399445792	 0.4557240756	-0.321795
C	-0.0142049501	 1.1677347082	 0.0456156386	 0.425115
O	-1.1824634601	 1.8322378546	-0.1928430017	-0.238093
C	-1.1396510226	 3.0334032891	-0.9602914678	-0.085005
C	-0.0688743933	 4.003117053	-0.4250550048	-0.225229
C	 1.2450247309	 3.2561231094	-0.3240640442	-0.050787
C	 1.2398008543	 1.9346814476	-0.1514444034	-0.204774
C	 0.0285013752	 5.1798979767	-1.2894064452	 0.267349
N	 0.0981174634	 6.1024694419	-1.9809978751	-0.303397
H	-0.9239841038	 2.7997937558	-2.0095633614	 0.139655
H	-2.1375138738	 3.4688612	-0.8945258016	 0.149835
H	-0.3651498259	 4.3501702993	 0.575782928	 0.161609
H	 2.1674820065	 3.8245271249	-0.3800150516	 0.144318
H	 2.1499579133	 1.3554933904	-0.0545147453	 0.141199
