14
gdb 3564	5.38794	3.07656	3.05458	1.5021	55.34	-0.234	0.0775	0.3114	532.7787	0.116425	-324.500475	-324.495728	-324.494784	-324.528642	20.008	
C	-0.0785656608	 1.6131054907	-0.033613277	-0.228941
C	 1.4479069558	 1.374655494	-0.0185825956	 0.064064
O	 1.1992874653	 0.2000414369	 0.8366242431	-0.305231
C	-0.0003143659	 0.0702093891	-0.0101390416	 0.064064
C	 0.64675607	-0.3060725699	-1.3644746603	-0.039789
N	 0.6511066973	 0.787913823	-2.365838106	-0.33415
C	 1.7460187034	 0.6840574797	-1.370883174	-0.039789
H	-0.4167394484	 1.9947814225	 0.9287198956	 0.106687
H	-0.5401275413	 2.1200759654	-0.8777925618	 0.12738
H	 2.1755056892	 2.0735398065	 0.3915423641	 0.07891
H	-0.7685273449	-0.5782183774	 0.408706989	 0.07891
H	 0.758901507	-1.3386522293	-1.6707256172	 0.098295
H	 0.9849269942	 0.4115623126	-3.2523449413	 0.231294
H	 2.7593081092	 0.4631579461	-1.6823876071	 0.098295
