16
gdb 46008	4.93938	0.98965	0.83282	3.1525	81.41	-0.2424	-0.0274	0.2151	1306.4446	0.12474	-400.767354	-400.758992	-400.758047	-400.800945	30.925	
O	 0.0193855271	-0.0273637585	 0.4782946996	-0.380455
C	-0.0199087611	 1.1551791905	 0.1950304158	 0.401916
C	-1.3390349896	 1.8646957379	-0.0762574044	-0.373967
C	-1.2438446148	 3.3179623793	-0.4135738095	-0.154174
C	-0.0863045917	 3.987496707	-0.4817425066	 0.14208
C	 1.2422460857	 3.319132146	-0.2191323857	-0.246207
N	 1.1114866135	 1.911709958	 0.1042761745	-0.327083
C	-0.0182182011	 5.3708359745	-0.8045774726	 0.234031
C	 0.0981515371	 6.539452802	-1.0727054795	-0.414674
H	-1.8418259939	 1.3099071805	-0.879472462	 0.149132
H	-1.973470159	 1.7099035249	 0.8065123476	 0.149133
H	-2.1716659768	 3.8463542584	-0.6115829427	 0.106483
H	 1.8828192449	 3.4457168561	-1.1040504696	 0.132402
H	 1.7492542297	 3.8497323784	 0.5999266548	 0.1324
H	 1.9584419469	 1.3947202748	 0.2929353663	 0.249263
H	 0.1791347631	 7.5711144503	-1.3111208758	 0.199721
