21
gdb 98274	2.82006	0.98817	0.85175	2.5707	75.66	-0.266	0.0133	0.2792	1448.8615	0.17922	-461.401809	-461.390676	-461.389732	-461.4391	38.924	
C	 0.203988092	 1.3443088526	 0.1911307308	-0.241435
O	 0.3718453211	-0.0737198261	 0.0620221922	-0.235076
C	 0.4812004318	-0.5293344642	-1.2033129053	 0.451026
O	 0.4639002338	 0.1917334684	-2.1715696118	-0.37271
C	 0.5780873555	-2.0436807628	-1.2379064748	-0.124714
C	-0.8460069548	-2.6221658396	-1.3522570371	-0.403509
C	 1.4788750042	-2.5147817001	-2.4020859644	 0.148922
C	 2.9148440134	-2.0048578222	-2.2886445107	-0.425273
O	 1.4483018181	-3.9350623589	-2.5152315457	-0.432254
H	 1.0608275709	 1.8742258739	-0.23255698	 0.140209
H	-0.7009202247	 1.6747242503	-0.3250489758	 0.1412
H	 0.126161068	 1.5378674961	 1.2610079596	 0.132906
H	 1.017784306	-2.3746742452	-0.2888395283	 0.082062
H	-1.3437011542	-2.2383567944	-2.2485938675	 0.131391
H	-0.7919035547	-3.7090810526	-1.4310640449	 0.134869
H	-1.4489775912	-2.3539060168	-0.4805673448	 0.119851
H	 1.0396378695	-2.1468846113	-3.3347904673	 0.109262
H	 3.5155193368	-2.4009269363	-3.1116720893	 0.126144
H	 2.951178077	-0.9133261246	-2.3276885439	 0.138587
H	 3.372314248	-2.3291349496	-1.3443825236	 0.102445
H	 1.9606864637	-4.2982461267	-1.7840756876	 0.276096
