19
gdb 77978	2.45379	1.55527	1.28673	1.3701	76.06	-0.2299	0.0057	0.2356	1064.7672	0.158219	-423.008294	-422.999417	-422.998473	-423.041101	34.458	
C	-0.1058435581	 1.5536202456	 0.1467915172	-0.406519
C	 0.0867127993	 0.0608568874	-0.0028705306	-0.063979
C	 0.7387822216	-0.6432106479	-1.1878783485	-0.117995
C	 1.6688979509	 0.1227329032	-2.121073081	 0.058686
O	 0.9761584756	 1.2102925719	-2.7368500022	-0.428667
C	 2.8065336917	 0.561556483	-1.2065541748	-0.112694
C	 2.6564281553	 0.0978800937	 0.033063684	-0.148718
C	 1.3905874989	-0.6934354501	 0.1751864237	 0.333399
O	 1.4200604364	-1.8858073697	 0.9035676284	-0.468902
H	 0.7714901518	 2.1149058639	-0.1756513096	 0.126231
H	-0.9508172059	 1.8922327692	-0.4601738661	 0.124481
H	-0.3161443812	 1.8098386919	 1.1919527517	 0.099689
H	-0.751799079	-0.5259394348	 0.3700960677	 0.086567
H	 0.2329806365	-1.5198341854	-1.572683578	 0.092389
H	 2.0474812249	-0.5542061134	-2.9045665407	 0.074949
H	 1.5936314185	 1.6561751943	-3.3257395919	 0.281142
H	 3.6075140203	 1.2068793954	-1.5532044267	 0.091669
H	 3.3279706631	 0.2719352313	 0.867279569	 0.095692
H	 1.2206675595	-1.6784501796	 1.8225177984	 0.28258
