16
gdb 125860	3.23909	1.77714	1.22387	3.7498	76.05	-0.2344	-0.0383	0.196	983.4862	0.127909	-396.967655	-396.960774	-396.95983	-396.998986	26.545	
C	-0.0607348062	 1.5668751995	 0.0709488401	-0.393277
C	 0.0078168905	 0.0373092502	 0.0290028178	-0.050444
C	 0.8061345164	-0.5363139866	-1.135082198	-0.090907
C	 1.840003239	-1.2819572914	-0.7059076251	-0.200477
C	 1.8149380847	-1.2751527265	 0.7514436373	 0.380749
N	 2.4617079551	-1.7412818024	 1.8082149489	-0.369044
C	 1.7254566197	-1.2133345346	 2.8314928961	 0.016902
N	 0.6799733341	-0.4630754465	 2.4810156414	-0.280211
N	 0.7629938635	-0.5234520952	 1.1381799329	 0.065348
H	 0.9438547143	 1.9964623393	 0.0424820735	 0.137534
H	-0.6290059146	 1.9421176747	-0.7846174908	 0.127115
H	-0.5552288245	 1.891659423	 0.9897059123	 0.151138
H	-1.0092234974	-0.3763699527	 0.0319251388	 0.126664
H	 0.535600672	-0.3328810818	-2.1621013131	 0.121771
H	 2.5700005284	-1.801909596	-1.3083191253	 0.133436
H	 1.9636476151	-1.385625883	 3.8707194731	 0.1237
