18
gdb 100386	2.7497	1.14037	1.01668	3.0065	69.35	-0.2527	-0.0442	0.2085	1222.6448	0.145028	-476.250186	-476.240215	-476.239271	-476.285116	35.504	
C	 0.121672173	 1.5603889786	-0.0531999567	-0.423407
C	 0.0344015247	 0.0258614381	 0.0240300302	 0.146028
C	 0.6694773078	-0.4975280199	 1.3353738558	-0.103988
O	 2.0097983115	-0.1127697428	 1.4855531504	-0.416441
N	-1.3551193289	-0.4520474435	-0.0004754322	-0.320185
C	-2.2898014294	-0.1470062145	-0.9424255039	 0.161821
O	-2.1119136065	 0.5582573349	-1.9133911636	-0.329311
C	 0.7653835979	-0.5706804183	-1.1869901626	 0.148237
O	 1.8722298875	-1.0548214418	-1.1361107593	-0.270794
H	 1.1552990257	 1.8655381982	 0.1214772252	 0.144674
H	-0.2243578199	 1.9290412055	-1.0193057273	 0.156609
H	-0.5086037287	 1.9964847385	 0.728176092	 0.124589
H	 0.114055542	-0.0781294039	 2.1824195952	 0.114056
H	 0.5528419465	-1.5945790381	 1.3668668986	 0.09162
H	 2.4817428455	-0.5194612275	 0.744742883	 0.299588
H	-1.6279572694	-1.1068740042	 0.7176983119	 0.252816
H	-3.2622221693	-0.628880297	-0.7177447206	 0.089532
H	 0.2005431001	-0.5211989022	-2.1369216761	 0.134556
