21
gdb 87409	3.29423	1.37318	1.30004	0.2676	86.26	-0.2331	0.098	0.3311	1099.791	0.183378	-349.888727	-349.88098	-349.880036	-349.920625	31.768	
C	-0.1518188968	 1.4994511002	 0.0355305099	-0.403666
C	-0.035991585	-0.008516966	 0.0820016027	-0.073134
C	 1.3063252882	-0.6862120719	-0.1650827017	-0.387219
C	 0.6832664028	-0.7027039392	 1.1969254879	 0.441605
C	 1.3215311913	-0.1808503617	 2.4654462329	-0.161585
C	 0.4248923939	-0.6411795124	 3.6320335483	-0.072671
C	-0.7436194393	-1.420381116	 3.027919003	-0.228689
C	 0.2897420084	-1.9557889468	 1.9944885016	-0.165211
C	 1.4370045941	-1.5809604591	 3.0258652168	-0.072333
H	 0.7333807996	 1.9761518158	 0.4694633659	 0.111513
H	-0.2511179521	 1.8618972208	-0.9939418864	 0.113287
H	-1.0234724997	 1.8509864229	 0.5991120579	 0.115511
H	-0.8982134256	-0.5386735602	-0.3193204812	 0.075528
H	 1.3227265895	-1.6040687252	-0.7452849373	 0.103989
H	 2.1700251547	-0.0465632607	-0.3260658082	 0.104534
H	 2.0208711968	 0.6368943298	 2.5845339287	 0.08191
H	 0.4735903663	-0.1469911212	 4.5943622464	 0.081809
H	-1.084969934	-2.2073812378	 3.7065459926	 0.093743
H	-1.6054107097	-0.8694612972	 2.6331115591	 0.087553
H	 0.1492129958	-2.9137016442	 1.496804486	 0.066455
H	 2.2746076107	-2.1231060199	 3.4393574851	 0.08707
