17
gdb 19643	4.81841	1.77344	1.67248	1.7155	70.43	-0.2113	0.0697	0.281	844.3827	0.141946	-326.60724	-326.600365	-326.599421	-326.638297	26.749	
C	-0.0052043661	 1.4959960064	-0.1961917598	-0.377771
C	-0.0575661339	 0.0045008877	 0.1609622099	-0.325264
C	-1.431310686	-0.5634495888	 0.0561989864	 0.420926
C	-2.3215712674	-0.9379954561	-1.1068179731	-0.166178
C	-3.5271705419	-0.4676070969	-0.2590349371	-0.048807
C	-3.2037228738	-1.4590291393	 0.7991895232	-0.04955
C	-1.9851783678	-1.9651171097	-0.0092644198	-0.190274
N	-2.6311807919	-0.0681166804	 0.8835909327	-0.214108
H	 1.0045256093	 1.895731914	-0.064766586	 0.109914
H	-0.3052651803	 1.6616951174	-1.235827419	 0.115303
H	-0.6851059338	 2.0658582935	 0.4437549318	 0.139455
H	 0.6067844837	-0.5714919812	-0.4965638765	 0.102369
H	 0.3110700487	-0.1459445482	 1.1842849102	 0.109873
H	-2.1244219877	-0.9886340511	-2.1683912884	 0.092332
H	-4.4386574586	 0.0700657298	-0.4920434867	 0.094302
H	-3.7995633529	-1.886938679	 1.5967272157	 0.094599
H	-1.4895664498	-2.9213414479	-0.1014739834	 0.092879
