17
gdb 36457	3.65365	1.00641	0.86671	4.6687	73.31	-0.2639	0.0262	0.2901	1311.0252	0.135984	-417.966984	-417.958548	-417.957604	-418.000885	30.562	
N	 0.1328721781	-1.1814392557	-0.4625319546	-0.297956
C	 0.0678875179	-0.0350342418	-0.3362570857	 0.26928
C	-0.0085516443	 1.4132059307	-0.1571942442	-0.359794
C	 1.3629322232	 2.0421338669	 0.1174290879	 0.062634
O	 2.2276792776	 1.9874213489	-1.0308099432	-0.288214
C	 2.4166770102	 3.4253661398	-1.0454411322	-0.126905
C	 1.4505138514	 3.5714130434	 0.1239315363	 0.264281
C	 0.4103043738	 4.5767714152	 0.423303141	-0.304804
N	 1.6318144336	 4.4688113338	 1.2481027341	-0.350413
H	-0.4424749548	 1.8662405638	-1.054272093	 0.158081
H	-0.6829089019	 1.6247418745	 0.6816083375	 0.148523
H	 1.8254599581	 1.5608072343	 0.990997676	 0.100487
H	 3.4502237791	 3.7095737728	-0.8177091917	 0.122308
H	 2.1117896493	 3.8677402336	-2.000547539	 0.1149
H	 0.3405796948	 5.4822723651	-0.1734378033	 0.131644
H	-0.5356790693	 4.2356685215	 0.8376212072	 0.118427
H	 1.4332898232	 3.9975222731	 2.1280585368	 0.237522
