17
gdb 60750	4.64633	0.85716	0.73022	1.9221	79.17	-0.2541	-0.0184	0.2357	1491.7338	0.133643	-418.002013	-417.992103	-417.991159	-418.03784	34.67	
C	-0.0185395615	 1.4874656694	-0.0159067187	-0.348542
N	-0.0047963932	 0.0261403528	 0.0215317331	-0.126061
C	 0.0007945236	-0.6152940472	 1.2629331101	 0.101831
N	-0.0059114403	 0.038388753	 2.3524487339	-0.475724
C	 0.0036484313	-0.7720341778	-1.1242231959	 0.443018
O	 0.0150831654	-1.9807590889	-1.0742831592	-0.331695
C	-0.0024059222	 0.0014416029	-2.4515904536	-0.538632
C	 0.005293463	-0.8652459474	-3.6179185743	 0.333516
C	 0.011358184	-1.5502217174	-4.6031190112	-0.411176
H	 0.8691533177	 1.8819288715	-0.5188264536	 0.134755
H	-0.9125866116	 1.8650869162	-0.5204664105	 0.134771
H	-0.0227219998	 1.8317593557	 1.0171272133	 0.182762
H	 0.0111546013	-1.6982648542	 1.1476620776	 0.148357
H	-0.0001706096	-0.6021358296	 3.1433449382	 0.234458
H	-0.8806347971	 0.6595677422	-2.4749307644	 0.159148
H	 0.8649965558	 0.6738705006	-2.4740142974	 0.159209
H	 0.0168896431	-2.170738822	-5.4647314275	 0.200006
