18
gdb 96928	2.51318	1.34678	1.11926	1.3526	75.98	-0.242	0.0154	0.2574	1181.2334	0.145248	-439.046737	-439.037385	-439.036441	-439.080902	33.976	
C	-0.1069688332	 1.4335491192	 0.0733301758	-0.340633
N	-0.0485757198	-0.020562032	 0.1376196146	-0.350202
C	-1.0927509785	-0.684256891	-0.0327367492	 0.388872
O	-2.418259523	-0.2726615831	-0.2428386027	-0.28468
C	-2.8878682065	-1.6298586978	-0.0170600869	-0.020227
C	-2.3493897917	-2.5377989079	-1.0839935204	-0.068945
C	-2.1634219429	-2.1496031531	-2.5335373814	-0.423864
C	-1.4435642518	-2.1345961769	 0.0668866131	 0.225663
O	-0.7828116565	-3.0788612757	 0.8068474919	-0.440823
H	 0.4809096831	 1.7773294581	-0.7849331645	 0.132579
H	-1.1231956696	 1.8346278788	-0.0127946357	 0.13052
H	 0.3653829302	 1.8483843656	 0.969900072	 0.127755
H	-3.7665735073	-1.7523442576	 0.600998753	 0.124453
H	-2.6774269467	-3.564149617	-0.917799547	 0.110055
H	-1.9312287927	-1.0865540114	-2.627337262	 0.13946
H	-1.3505383543	-2.722844635	-2.9893944464	 0.129101
H	-3.077750016	-2.3457413586	-3.1031431932	 0.121877
H	-0.429050823	-2.6462606245	 1.5935752892	 0.299038
