19
gdb 34491	4.17714	1.00267	0.87595	0.9305	95.63	-0.2119	-0.0138	0.1981	1350.5988	0.159128	-348.730889	-348.722419	-348.721475	-348.76405	33.02	
C	 0.0579927021	-1.1904169098	-0.0478803417	-0.419411
C	-0.0113450996	 0.013377208	-0.0346376999	 0.208423
C	-0.0337902768	 1.4266265349	-0.007625755	 0.168029
C	-1.0904547756	 2.2205795021	-0.2506358312	-0.241143
C	-0.760245358	 3.6551361676	-0.103315757	 0.365074
C	-1.5321759242	 4.7369717363	-0.8239199557	-0.31667
C	-1.689133805	 4.5835569522	 0.6638271076	-0.308244
C	 0.767843388	 3.7068164364	 0.0518188191	-0.314432
C	 1.1928529559	 2.2493622829	 0.3687793799	-0.327573
H	 0.1028694295	-2.2508850979	-0.0617799351	 0.187734
H	-2.0840742168	 1.8670629309	-0.5016925184	 0.099879
H	-0.966837654	 5.5865270266	-1.1942719129	 0.113428
H	-2.3568424091	 4.4389810248	-1.4632516146	 0.114042
H	-2.6190597305	 4.1753814	 1.0455068388	 0.114932
H	-1.2280931079	 5.3248971616	 1.3085609126	 0.114815
H	 1.222762467	 4.0296013922	-0.8907464506	 0.109121
H	 1.0873624876	 4.4118114446	 0.8239232189	 0.102072
H	 1.4270667855	 2.1061833175	 1.4311558163	 0.11572
H	 2.0817533721	 1.9393942292	-0.189192881	 0.114203
