15
gdb 2167	3.76965	2.8961	1.75351	2.7236	56.55	-0.2511	-0.0276	0.2234	706.8248	0.125666	-345.687671	-345.681103	-345.680159	-345.718144	24.687	
O	 0.4045664018	 1.132606509	 0.5985856669	-0.444261
C	-0.0669885837	-0.0574941073	 0.0359540747	 0.076714
C	-1.5623189231	-0.1031034175	-0.2975108615	-0.240484
C	-1.6560579814	-1.2916912799	-1.284803917	-0.222359
C	-0.3827063751	-1.1842289628	-2.1550037767	-0.318729
C	 0.582686707	-0.3539448234	-1.3159121532	 0.373733
O	 1.650262778	 0.1038112417	-1.6435223075	-0.331217
H	 1.2441082224	 1.3169691609	 0.1501120649	 0.290585
H	 0.1659173997	-0.9238019176	 0.6874714471	 0.089075
H	-2.1964413689	-0.2256446967	 0.5827234485	 0.11212
H	-1.8420784708	 0.8368624885	-0.7876829237	 0.114192
H	-1.6548461331	-2.2354312164	-0.7289318919	 0.111571
H	-2.5729980387	-1.2700881325	-1.8769573642	 0.112112
H	 0.0590355503	-2.1450177115	-2.434536855	 0.135167
H	-0.5615008844	-0.6390215746	-3.0887877712	 0.141781
