15
gdb 129364	6.32551	0.75929	0.69693	2.3534	70.01	-0.2707	-0.0194	0.2512	1528.5586	0.11259	-453.926733	-453.918434	-453.91749	-453.962632	28.164	
N	 0.0299927531	 1.2565300077	 0.4081913798	-0.433145
C	 0.0005397795	 0.0334062671	 0.1046580083	 0.140021
O	-1.1337197269	-0.6752412125	 0.286211322	-0.188661
C	-1.0791251092	-2.0498780071	-0.0956086217	-0.195546
C	-2.4509755984	-2.6231015345	 0.06133887	 0.380977
N	-2.598397847	-3.8355486006	 0.5396981269	-0.199653
O	-3.9638409109	-4.0832949711	 0.5162497026	-0.159965
C	-4.5928976616	-3.0010956792	 0.03315302	 0.085027
C	-3.6999012893	-2.0307521962	-0.280831193	-0.318433
H	 0.9510970392	 1.6428510017	 0.2127356563	 0.232805
H	 0.8278054677	-0.5584634573	-0.3114106556	 0.089893
H	-0.7539343036	-2.1328411758	-1.1422393259	 0.1289
H	-0.3746223496	-2.6100854128	 0.529425086	 0.141003
H	-5.6681746221	-3.0701625071	-0.022485439	 0.156595
H	-3.8826628908	-1.0451929423	-0.6725738267	 0.140182
