14
gdb 1396	6.64815	1.44006	1.23893	3.4211	63.59	-0.2801	0.0192	0.2994	915.137	0.111784	-287.427777	-287.419963	-287.419019	-287.459713	27.582	
C	 0.0227958264	 1.5780129829	 0.0155891886	-0.393929
C	 0.0141602916	 0.0385466518	-0.0228457314	-0.162448
C	-1.431846458	-0.5361359784	 0.0298658092	-0.333017
C	-2.1351112082	-0.1684038275	 1.2564183033	 0.261615
N	-2.6741302448	 0.1296517868	 2.2342744051	-0.308885
C	 0.6902927874	-0.474694515	-1.2115064763	 0.310949
C	 1.2258288882	-0.8918486934	-2.2031896385	-0.44455
H	 1.0489415644	 1.9521629209	 0.0060577415	 0.135874
H	-0.4966019224	 1.9888358412	-0.8553912121	 0.1303
H	-0.4725519756	 1.9385145992	 0.9211283572	 0.14567
H	 0.5435042646	-0.331936096	 0.8641864735	 0.130104
H	-2.0020915992	-0.1727552775	-0.8318687876	 0.161274
H	-1.3990172179	-1.6273103909	-0.0451249286	 0.163719
H	 1.7137180135	-1.2606895641	-3.071570424	 0.203325
