20
gdb 89162	2.23857	1.5476	1.31339	1.0208	75.67	-0.223	0.0719	0.2949	1095.0381	0.169998	-440.234333	-440.225462	-440.224518	-440.267372	34.505	
C	-0.0062276149	 1.5283223417	 0.0755251008	-0.322792
N	 0.0113466149	 0.0829193437	 0.1443243046	-0.109556
C	-1.2561665373	-0.6259321634	 0.4547881174	-0.250412
C	-0.4306168102	-1.6103654951	 1.3000419145	 0.372123
O	-0.9331973781	-2.1165360166	 2.4960853263	-0.483883
C	 0.5206959936	-2.5579834036	 0.4593100773	 0.057427
O	 0.2259689135	-2.6899069992	-0.907145275	-0.431097
C	 1.7272171659	-1.6243717926	 0.8110553502	-0.263089
C	 0.7203911351	-0.5664282578	 1.2904957108	-0.031184
H	 1.0110192222	 1.9050172205	-0.0751151955	 0.122905
H	-0.6134909218	 1.8500216784	-0.7772693145	 0.122183
H	-0.4178630685	 2.0027158104	 0.98495787	 0.096882
H	-1.9319964602	-0.0460133416	 1.1024437704	 0.094991
H	-1.8032907124	-0.9978661809	-0.4181930548	 0.101948
H	-1.4257156771	-2.9217414284	 2.3000337456	 0.283205
H	 0.5786767091	-3.5688355563	 0.8733924047	 0.082656
H	 0.2728756952	-1.7953954156	-1.2731631583	 0.285641
H	 2.3325118878	-2.0246818253	 1.6298696035	 0.105893
H	 2.3755218711	-1.3513768518	-0.0253407231	 0.099105
H	 0.9420463921	 0.0890842535	 2.1381536152	 0.067053
