19
gdb 82880	2.72923	1.74248	1.39404	0.6923	74.31	-0.2425	0.0755	0.318	978.2525	0.161055	-422.990792	-422.983483	-422.982538	-423.021919	30.72	
O	 0.0781049564	 1.4882530099	-0.0558946318	-0.443757
C	 0.0195586238	 0.0847477063	 0.023839414	 0.142087
C	 0.1368805935	-0.6396539869	 1.404350933	-0.139133
C	-0.9210510118	 0.1109731236	 2.2328691993	-0.204533
C	-2.1090344766	-0.3428948589	 1.354413302	-0.047365
C	-2.0816894886	-1.8836821176	 1.5759300991	-0.303703
C	-0.7734122607	-1.7791421152	 0.7852294519	 0.419651
O	-0.0616842679	-2.8494050664	 0.2590621324	-0.487767
C	-1.3591224553	-0.558897259	-0.0293898503	-0.134798
H	 1.0029030224	 1.7551539807	-0.0402344453	 0.281202
H	 0.676390624	-0.3913171706	-0.7154764103	 0.07584
H	 1.1018347901	-0.8789407634	 1.8499854644	 0.06202
H	-1.0084244097	-0.2389407794	 3.2649600469	 0.087553
H	-0.7521388422	 1.1893624684	 2.2255460127	 0.106602
H	-3.0417710841	 0.2142440058	 1.404314253	 0.068206
H	-2.0771355186	-2.2639163048	 2.6028201804	 0.091193
H	-2.8492158235	-2.4014609837	 0.9894721672	 0.084877
H	-0.66823037	-3.3916810234	-0.25650618	 0.279858
H	-1.9610193412	-0.6552842152	-0.9323111387	 0.061968
