15
gdb 44583	3.21575	1.63983	1.4744	4.2365	63.03	-0.254	-0.0077	0.2463	904.8822	0.114174	-457.764505	-457.758004	-457.75706	-457.795609	25.623	
O	-0.3353989648	 0.3265468697	 0.6225546719	-0.314534
C	-0.112118947	 1.3830943673	 0.1312915872	 0.41242
O	-0.9809262366	 2.1852168347	-0.5754434203	-0.25083
C	 0.0195915639	 3.2538283916	-0.730604339	 0.064039
C	-0.130263699	 4.443528549	 0.1852313918	-0.088161
C	-0.5802452699	 4.1572854022	 1.6114296926	-0.333499
C	 0.8792090472	 4.2228064813	 1.2946382375	 0.105092
O	 1.5943022589	 3.0236975666	 1.0856466236	-0.249714
C	 1.0805407831	 2.3619847241	-0.0405997925	-0.076853
H	 0.1334740503	 3.5062586459	-1.7834731327	 0.107051
H	-0.3071404117	 5.4187534525	-0.2491176555	 0.103978
H	-1.0063036145	 4.9906114336	 2.1589401353	 0.127393
H	-1.0351474717	 3.1981247944	 1.8294513471	 0.154232
H	 1.5110353879	 5.0036853239	 1.7007896906	 0.114091
H	 1.8987588638	 1.9446747732	-0.6325879578	 0.125294
