22
gdb 111295	3.06294	1.19312	1.02946	2.2426	83.35	-0.2197	0.0733	0.293	1282.8759	0.1926	-404.299291	-404.28942	-404.288476	-404.333692	36.667	
C	-0.0018215895	 1.3771769431	 0.0450818425	-0.23913
O	 0.0026387339	 0.005464276	-0.2812505679	-0.23566
C	-1.2319369996	-0.6257130276	-0.0890086447	 0.167976
C	-1.3543352973	-2.0108492132	-0.7020180005	-0.171261
N	-0.4299063688	-2.9128354346	 0.0358526766	-0.359879
C	-1.7615064734	-2.6066229645	 0.6063117396	 0.349102
C	-2.7603733777	-3.6738515814	 0.9299407119	-0.509638
C	-1.5888944628	-1.25334755	 1.3288789188	-0.090812
C	-0.5493932223	-1.176850703	 2.4383449523	-0.406418
H	 0.9951271413	 1.7659690612	-0.1764781614	 0.126878
H	-0.7407478512	 1.933450958	-0.5539735183	 0.10065
H	-0.2196408776	 1.5548239657	 1.1080974093	 0.108052
H	-2.051516242	 0.0237395069	-0.4320038665	 0.06072
H	-1.6695336422	-2.2547756033	-1.7101224042	 0.086373
H	-0.5003069688	-3.8244888232	-0.4169910038	 0.221641
H	-2.8246001379	-4.4130236354	 0.1234601434	 0.116017
H	-2.4900040764	-4.2068733323	 1.8493114272	 0.129003
H	-3.759175248	-3.2478728953	 1.0756821551	 0.122856
H	-2.5568899913	-0.872812855	 1.6717803132	 0.06265
H	 0.4213420999	-1.5152738894	 2.072664565	 0.149735
H	-0.4429900726	-0.1541612574	 2.8144358851	 0.10677
H	-0.8401409256	-1.8086166352	 3.2855259973	 0.104372
