17
gdb 44776	2.39268	2.17836	1.58405	3.5189	72.42	-0.2409	-0.0126	0.2282	890.9524	0.137053	-421.735888	-421.729209	-421.728265	-421.766669	27.58	
O	 0.1320575302	 0.1131824736	 0.1024237314	-0.343959
C	 0.0484143992	 1.3078270482	 0.0338726256	 0.437225
C	-1.2066240129	 2.1936321323	 0.034143543	-0.32552
C	-0.4855972378	 3.5316961827	-0.093967349	-0.109589
C	 0.6954843342	 3.3799785445	 0.9956681868	-0.333255
C	 1.2123782207	 2.3135320087	-0.0621815302	 0.100338
C	 2.1522611573	 1.8391064743	-1.1984632014	-0.191345
O	 1.140971929	 2.3614061162	-2.160341571	-0.322536
C	 0.7146777939	 3.2713455226	-1.0850770471	 0.146913
H	-1.8534670605	 1.9463589348	-0.8124698283	 0.138706
H	-1.7848007407	 2.0882755586	 0.9564755342	 0.126499
H	-1.0813804171	 4.4423762629	-0.142170082	 0.084534
H	 1.3294639095	 4.2631553285	 1.0670843368	 0.127669
H	 0.4032837842	 3.0323458288	 1.989575352	 0.121537
H	 3.0975858175	 2.3791335233	-1.3076196399	 0.113704
H	 2.2808630843	 0.7597979572	-1.2976925719	 0.14193
H	 1.3053377589	 4.1903989829	-1.1767455092	 0.087147
