22
gdb 102474	2.16778	1.08294	0.83102	3.8012	80.92	-0.2363	0.0296	0.2659	1510.7893	0.19143	-441.510602	-441.499085	-441.49814	-441.548392	39.366	
C	-0.4265687567	 0.9152685533	 0.6342098696	-0.388142
C	-0.1760860721	-0.477914874	 0.053506035	-0.17956
C	 0.4962497351	-0.4400741474	-1.3261420326	 0.033586
O	 1.7341695562	 0.2004286081	-1.1722562716	-0.225918
C	 2.431884691	 0.4341826697	-2.3781001971	-0.242567
C	 0.6585486415	-1.8800880617	-1.8642555383	 0.373105
O	 1.6572641141	-2.5435310552	-1.6579202419	-0.373113
N	-0.4245064036	-2.3419428542	-2.5555633616	-0.309972
C	-0.5046567464	-3.6934369514	-3.0748234016	-0.334536
H	 0.5107516632	 1.469306941	 0.718707468	 0.140098
H	-1.1050178049	 1.4947706295	-0.0024870642	 0.106053
H	-0.8786504329	 0.8469578381	 1.6282655014	 0.111754
H	 0.4743926533	-1.0578681238	 0.7174114644	 0.126361
H	-1.1184551365	-1.0312212016	-0.0338449915	 0.091213
H	-0.139446281	 0.1326901376	-2.0292741448	 0.049917
H	 3.3298832597	 1.0000312235	-2.1197007848	 0.127293
H	 2.728571221	-0.5034690628	-2.8632536286	 0.130875
H	 1.8294083913	 1.0306646565	-3.0819939446	 0.095026
H	-1.2004562299	-1.7189025309	-2.707856625	 0.245106
H	-0.6185727011	-3.6966201803	-4.1646070242	 0.125156
H	 0.4283422095	-4.1941687274	-2.8133082716	 0.172643
H	-1.3431607009	-4.2440940969	-2.6337024442	 0.125621
