13
gdb 132662	3.16638	1.43488	0.98825	1.2635	66.52	-0.2094	-0.0403	0.1691	1077.1392	0.090246	-494.094062	-494.086791	-494.085847	-494.125618	28.189	
N	-0.016656584	 1.4005163362	-0.0809166044	-0.573582
C	-0.0246308576	 0.0177913192	-0.0321504576	 0.241223
N	-1.1817862014	-0.6360016717	 0.0014655945	-0.296496
C	-1.1604170407	-1.9707547194	-0.0215573852	-0.100834
C	 0.0419985899	-2.6704207901	-0.0693589597	 0.390742
O	 0.0483665568	-4.0209686544	-0.0919241705	-0.422395
N	 1.2132857361	-2.0289933595	-0.0871715169	-0.383556
C	 1.1677394225	-0.7254015234	-0.0708427557	 0.272048
F	 2.3268020053	-0.0618082831	-0.0768456326	-0.074429
H	 0.8176553251	 1.8411707731	 0.2753215974	 0.259136
H	-0.8761230274	 1.819042649	 0.2438274788	 0.259277
H	-2.1085131871	-2.4964002711	 0.0044302401	 0.125739
H	 0.9741072627	-4.2955728249	-0.1206584383	 0.303126
