15
gdb 27113	3.18532	1.32594	0.98771	2.0002	70.19	-0.2025	-0.0354	0.1671	1130.0028	0.112724	-453.981906	-453.973606	-453.972661	-454.01546	29.828	
N	-0.2024229422	 1.3259173996	-0.4183199438	-0.59729
C	-0.1010694967	-0.0117985231	-0.1047196072	 0.221459
C	-1.0731257751	-0.9695704063	-0.0067668728	 0.235885
C	-2.5610765194	-0.9397294662	-0.0999542846	-0.391852
C	-2.9183370278	-0.2784176146	-1.4230276444	 0.153653
O	-3.1238372173	 0.9048847677	-1.5362471158	-0.247108
O	-0.4289338848	-2.1724805192	 0.235933347	-0.177548
C	 0.8725658858	-1.8504854169	 0.2914731133	 0.06889
N	 1.1403630429	-0.5983159413	 0.0997288221	-0.299898
H	 0.5294650291	 1.9005225931	-0.0292823258	 0.258132
H	-1.1268044543	 1.7260424691	-0.3568349668	 0.263756
H	-2.9437696738	-1.9638253429	-0.0667933901	 0.134757
H	-3.0168551462	-0.3613872032	 0.7133063828	 0.131257
H	-2.9095561833	-0.9503822746	-2.3076154911	 0.095419
H	 1.5669836831	-2.6524194713	 0.4881830273	 0.150488
