20
gdb 120290	3.31245	0.97563	0.94313	1.8704	79.73	-0.2132	0.0117	0.2249	1342.2568	0.171664	-403.116448	-403.10783	-403.106886	-403.150479	32.464	
O	-0.5013974119	 1.403235934	 1.1909958815	-0.420916
C	-0.6948225226	 0.0001818495	 1.2830848618	-0.075209
C	-1.2396371177	-0.4808053161	-0.0585025114	-0.208353
C	-1.3975025767	-1.9830692247	-0.0896484671	 0.000586
C	-2.664426287	-2.7218470939	 0.2340907873	-0.091166
C	-3.9442015158	-1.9651802011	 0.1947849184	-0.071025
C	-4.1690949512	-1.4997304373	-1.0347972847	-0.083726
C	-3.0563671715	-1.9228504683	-1.9679155306	-0.208031
N	-2.111525209	-2.7178157725	-1.1472443544	-0.134287
H	-0.1652872646	 1.7166735153	 2.0355472741	 0.285613
H	 0.2507339079	-0.5183680708	 1.5119758477	 0.085092
H	-1.4085017787	-0.2551012844	 2.0828110471	 0.089049
H	-2.1858069586	 0.0304029661	-0.2495541847	 0.116221
H	-0.5396471419	-0.1717290577	-0.8455314173	 0.110986
H	-0.4791335701	-2.5069233645	 0.1794020484	 0.087305
H	-2.6130181265	-3.6548943992	 0.7914937132	 0.088843
H	-4.5808491894	-1.8278261944	 1.0601418707	 0.09967
H	-5.0046928325	-0.8827178577	-1.3449451199	 0.100507
H	-3.4245591543	-2.5505112226	-2.7901900996	 0.112983
H	-2.5451788078	-1.0686085494	-2.4323248705	 0.11586
