21
gdb 80649	2.55518	1.64959	1.24824	1.4201	83.67	-0.2317	0.0149	0.2465	1089.5876	0.18418	-387.091961	-387.08379	-387.082846	-387.124116	33.088	
C	-0.0354628545	 1.5270849977	 0.059246576	-0.480014
C	-0.0167710768	 0.0286353907	-0.0221482697	 0.269183
C	-0.011585444	-0.6781554774	-1.157188382	-0.168103
C	-0.0027081037	-2.1895579158	-1.0861886301	-0.046493
C	-1.0629549347	-2.6295875924	-0.0267680692	-0.228153
C	 0.0145644089	-2.2621232285	 1.0334406625	-0.04004
C	 1.0750469133	-2.6245329624	-0.04738689	-0.229442
C	 0.0055127703	-0.7453704831	 1.2905303451	 0.06152
O	 1.0942294272	-0.3408829083	 2.1241924137	-0.439988
H	 0.7992944198	 1.8949222973	 0.6653195577	 0.131809
H	 0.0201454929	 1.9845634233	-0.9323126998	 0.114633
H	-0.9515719773	 1.8838508172	 0.5485380508	 0.121456
H	-0.0277627211	-0.1891797291	-2.1278719918	 0.081338
H	-0.0093118941	-2.6623993589	-2.0693438511	 0.057796
H	-2.0113259284	-2.0861779149	-0.0122218745	 0.09428
H	-1.2527819562	-3.7066245936	-0.0487955237	 0.095132
H	 0.0310992098	-2.8030025735	 1.9820938089	 0.066513
H	 1.2633434764	-3.7012177497	-0.0713391046	 0.096969
H	 2.0294870631	-2.0890066799	-0.0603379245	 0.078256
H	-0.8846037351	-0.4887524676	 1.8813881722	 0.086755
H	 1.907278684	-0.5267172811	 1.6407894142	 0.276592
