20
gdb 37039	2.90916	1.73834	1.3674	1.5141	83.1	-0.2292	0.0347	0.2639	1009.7029	0.174059	-365.989906	-365.982706	-365.981762	-366.02114	30.001	
C	-0.040343162	 1.5424248123	-0.008052671	-0.304807
C	 1.5295045623	 1.5853625067	-0.0229047031	-0.304812
C	 1.5366740002	 0.053058325	 0.1091240041	 0.284677
C	 2.3804724879	-0.8460528294	 0.9684296598	-0.353731
C	 1.5220422575	-1.8798392696	 1.666851568	-0.039979
C	 0.1883551165	-1.9163298229	 1.67941662	-0.039977
C	-0.7383140208	-0.93139225	 0.9978081697	-0.353725
C	 0.0387338361	 0.0120831252	 0.1232467894	 0.284667
N	 0.7936890001	-0.5668608125	-0.9886809105	-0.384894
H	-0.4546863842	 2.0321749705	 0.8771397285	 0.105313
H	-0.5656146756	 1.9223696331	-0.8915882658	 0.093449
H	 2.0164281816	 1.9929653505	-0.9160293278	 0.093451
H	 1.9331225114	 2.0975061119	 0.8545346416	 0.10531
H	 3.1631417261	-1.3472424287	 0.3827271966	 0.110481
H	 2.9094735412	-0.24560141	 1.722519854	 0.105505
H	 2.067246366	-2.6519918823	 2.2049452286	 0.082096
H	-0.3035884228	-2.7168572124	 2.2272846085	 0.082096
H	-1.5032800209	-1.4749357696	 0.4266700922	 0.110482
H	-1.2850841527	-0.3603899843	 1.7620289404	 0.105504
H	 0.769772422	 0.0207518365	-1.8202322431	 0.218895
