21
gdb 57785	3.42475	0.71497	0.62738	1.848	90.45	-0.2352	0.0374	0.2726	1842.5508	0.180164	-387.05504	-387.044377	-387.043433	-387.092402	38.238	
C	-0.0296978435	 1.6259149567	 0.3237487743	-0.381096
C	-0.006402779	 0.1271246449	-0.0118099697	-0.017493
O	 0.8248281861	-0.5963135431	 0.8973472611	-0.416404
C	-1.3604464596	-0.4296860147	-0.0763434513	 0.074938
C	-2.4792997315	-0.882871629	-0.0845016752	 0.047039
C	-3.8072731965	-1.421341261	-0.0957580096	-0.191794
C	-4.2805627223	-2.277176438	-1.2662270431	-0.285169
C	-4.0523563987	-2.9214578063	 0.0682978064	 0.017322
C	-2.9074327069	-3.8822726932	 0.2854280477	-0.40704
H	 0.9951941362	 2.0028029145	 0.3748821581	 0.122856
H	-0.581573665	 2.1871983078	-0.435912504	 0.12303
H	-0.5154107453	 1.7934236067	 1.2904994324	 0.114894
H	 0.482496427	-0.0042605863	-0.985225404	 0.113332
H	 0.3395890591	-0.6709869456	 1.7265491623	 0.279867
H	-4.5613594896	-0.7762098491	 0.3465106285	 0.106661
H	-5.2954830672	-2.1253715351	-1.6165015819	 0.115631
H	-3.55467384	-2.469082104	-2.0486200101	 0.124405
H	-4.9505617984	-3.1536653826	 0.6346923001	 0.089854
H	-2.0168451503	-3.5648619533	-0.2634136784	 0.133933
H	-2.638179697	-3.9442930554	 1.3452590406	 0.11871
H	-3.1767771375	-4.8887980238	-0.0524759942	 0.116526
