24
gdb 6473	3.56281	1.24437	1.14051	0.0582	85.35	-0.2738	0.0805	0.3543	1223.7619	0.222323	-314.277944	-314.268337	-314.267393	-314.311713	36.734	
C	 0.1155537901	 1.5180826341	-0.171804683	-0.387964
C	-0.0188017897	 0.0131980812	 0.0896428293	-0.236229
C	-1.4562739142	-0.5190760123	 0.0850172271	 0.37262
C	-2.3035715328	 0.0979209738	 1.2021228227	-0.445895
C	-2.1953957716	-0.4941592006	-1.2937065194	-0.269975
C	-2.6588523046	-1.9589920437	-1.0578797118	 0.060365
C	-2.6056490445	-2.9366594822	-2.2221148211	-0.407255
C	-1.5877112873	-2.0762527733	 0.0622186342	-0.28271
H	 1.1686055888	 1.810456514	-0.2311826079	 0.110347
H	-0.3597338198	 1.7997625809	-1.1180532399	 0.116661
H	-0.3456158455	 2.11452784	 0.6212820398	 0.116722
H	 0.5529906805	-0.5308564618	-0.6735245412	 0.085214
H	 0.4502041585	-0.2345387279	 1.0524987718	 0.088517
H	-2.4120881264	 1.1804042653	 1.0784220439	 0.112778
H	-3.311450962	-0.3300626454	 1.2183935143	 0.110074
H	-1.8508880936	-0.0851917553	 2.1839547033	 0.107965
H	-2.9704804822	 0.2649617909	-1.4346586639	 0.087923
H	-1.4900938722	-0.4264859041	-2.1297000713	 0.087616
H	-3.6632480861	-1.9690191726	-0.6209638913	 0.068506
H	-1.6097220576	-2.9472986705	-2.6804194153	 0.108019
H	-2.832084575	-3.9584663876	-1.896425875	 0.111385
H	-3.3273730837	-2.6689639612	-3.0024139514	 0.111217
H	-0.672826899	-2.5543543454	-0.3048574918	 0.086827
H	-1.88153853	-2.5650773665	 0.9960856679	 0.087274
