19
gdb 70384	2.39125	1.56504	1.32817	1.7736	81.12	-0.2359	0.0287	0.2646	1075.2781	0.155935	-385.819037	-385.809834	-385.80889	-385.852189	35.539	
C	-0.1315096055	 1.5724220386	 0.0647293757	-0.498909
C	 0.0006143518	 0.0786602857	 0.0358032342	 0.235111
C	-0.8206724647	-0.8606220021	 0.9049083361	-0.361024
C	 0.6726945625	-0.9118907076	 0.9534420947	 0.069172
O	 1.1707131434	-1.7105115081	-0.1246661566	-0.32561
C	 0.6562029675	-0.7451126269	-1.1064896125	 0.140655
C	-0.2243738573	-1.4009120403	-2.1640570573	-0.44609
C	 1.7736087833	-0.0351351557	-1.7269167168	 0.34429
C	 2.6793935929	 0.5525922023	-2.255462757	-0.453394
H	 0.7815713517	 2.0564578738	-0.2939740816	 0.135763
H	-0.9640560443	 1.9110861674	-0.5635722418	 0.121546
H	-0.3268609973	 1.9238963895	 1.0827360562	 0.119494
H	-1.3053869174	-0.3602470585	 1.7385686982	 0.113107
H	-1.3710143398	-1.7024694381	 0.4965069001	 0.114397
H	 1.2972419405	-0.799899945	 1.8320731588	 0.104437
H	-1.0721781215	-1.9111460854	-1.702795672	 0.122443
H	-0.5980937389	-0.6463518798	-2.8624932922	 0.128858
H	 0.3583753403	-2.132883199	-2.730009199	 0.138268
H	 3.4884675928	 1.0616722991	-2.7185651472	 0.197488
