17
gdb 127645	3.10434	1.25601	1.01347	2.2001	80.25	-0.2362	0.0187	0.2549	1184.2393	0.136063	-380.858667	-380.84988	-380.848935	-380.892822	31.76	
C	 0.296386017	 1.3257659035	 0.164569851	-0.339069
N	 0.1076728427	-0.1089938564	 0.0927266042	-0.007106
N	-0.016067095	-0.7038931592	-1.1133122517	-0.265829
C	-0.2070814833	-1.9912120208	-0.8395739644	-0.001734
C	-0.2104816047	-2.2341778247	 0.54680575	-0.311788
C	-0.0051507623	-0.9940034217	 1.1205290406	 0.374659
C	 0.0793032177	-0.593112751	 2.5684768116	-0.46952
C	 1.4012736259	-0.1186535054	 2.9812294339	 0.312488
C	 2.4863250328	 0.2779975903	 3.3119478877	-0.453287
H	 1.1341061022	 1.5679221149	 0.8230170337	 0.154277
H	 0.5064702634	 1.6732896807	-0.8460758714	 0.161676
H	-0.6054224193	 1.8269141972	 0.5344081453	 0.134051
H	-0.3325761967	-2.6959965978	-1.6483830636	 0.110268
H	-0.3355886654	-3.1717659878	 1.064611611	 0.101856
H	-0.6663667237	 0.1817784512	 2.7946971952	 0.144013
H	-0.1996996776	-1.4619950725	 3.1741377651	 0.152099
H	 3.4478257362	 0.6171790294	 3.6090527019	 0.202947
