18
gdb 87664	3.2737	1.28758	1.06988	4.0641	84.32	-0.2254	-0.0313	0.194	1169.4236	0.147909	-401.962037	-401.953962	-401.953018	-401.994588	31.327	
C	-0.0397961657	 1.5289962334	 0.0862985023	-0.404721
C	 0.038561315	 0.0204756335	 0.023691329	-0.071598
C	 1.3582457847	-0.6804696598	-0.1965774331	-0.353578
C	 0.6870560801	-0.7542344052	 1.1557533492	 0.406183
O	 1.2711337362	-0.0170895008	 2.2089640488	-0.251351
C	 1.0950227962	-0.695300283	 3.3905735154	 0.3658
N	 1.5412573581	-0.1970064599	 4.4679037539	-0.530952
C	 0.3693253832	-1.9389896799	 3.077678295	-0.211386
C	 0.1324610049	-1.9730959705	 1.7622425884	-0.15422
H	 0.8256790891	 1.945368394	 0.6063895789	 0.144214
H	-0.0766110231	 1.9546343971	-0.9219994857	 0.119568
H	-0.9367757809	 1.8533193373	 0.6234595364	 0.125954
H	-0.8301635931	-0.4672359967	-0.4120638439	 0.093393
H	 1.3954439801	-1.5784002631	-0.8036875863	 0.119927
H	 2.2490689402	-0.0625073948	-0.2348703765	 0.137754
H	 1.3332917354	-0.8188251869	 5.2468724798	 0.219081
H	 0.0958278702	-2.669565014	 3.8253699489	 0.119296
H	-0.3785110006	-2.7395637508	 1.1948074996	 0.126635
