17
gdb 5327	4.60642	1.55472	1.20024	1.498	71.08	-0.1863	0.0295	0.2158	995.4528	0.142671	-363.871619	-363.863789	-363.862844	-363.903952	28.93	
C	 0.0254252616	 1.4098041139	 0.193792129	-0.333362
N	-0.0017656641	 0.0416292409	-0.2983299923	-0.154421
C	 1.2151266281	-0.7064341866	-0.050558789	-0.330218
C	-1.1843693688	-0.6724524063	-0.10041536	 0.293104
C	-1.3229936352	-2.005335418	 0.1810363801	-0.116295
O	-2.6486346134	-2.348217003	 0.2257334754	-0.152796
C	-3.3531758798	-1.2199324937	-0.0091263305	 0.015941
C	-2.5285438199	-0.162273982	-0.2151092652	-0.295768
H	 0.9242190826	 1.9073172506	-0.1824421857	 0.120818
H	-0.8398010915	 1.9637541832	-0.1762853749	 0.129519
H	 0.0297834984	 1.4758491488	 1.295584137	 0.106762
H	 1.333388037	-1.0055433407	 1.00638972	 0.103872
H	 1.2202937445	-1.6134570869	-0.6631449722	 0.129739
H	 2.0789863957	-0.0993520296	-0.3340453872	 0.119482
H	-0.6275720037	-2.806597362	 0.354474098	 0.124553
H	-4.4260640587	-1.3227465895	-0.0001872747	 0.131846
H	-2.8328806327	 0.8484524107	-0.4329869377	 0.107226
