21
gdb 53347	4.59078	0.72511	0.65643	0.2972	95.14	-0.2285	0.0312	0.2597	1781.7801	0.181552	-349.957585	-349.947542	-349.946598	-349.994195	35.906	
C	 0.5421968702	 1.5901291428	-0.6128917843	-0.498189
C	 0.2542738904	 0.2025793082	-0.2769021395	 0.074886
C	 0.0184585916	-0.9471338197	-0.0045811079	 0.054322
C	-0.2758245553	-2.3315274088	 0.3382102566	-0.160861
C	 0.3831969091	-2.8345996786	 1.6612909548	-0.256823
C	-0.6123405161	-3.8507733702	 2.1606765506	-0.168144
C	-1.7954733586	-3.7623318384	 1.5488957243	 0.332396
C	-3.0249876253	-4.5689131658	 1.8236286854	-0.49349
C	-1.790159329	-2.6531527118	 0.5170780372	-0.30215
H	 1.6168987305	 1.7526946317	-0.7528094057	 0.14495
H	 0.0408611679	 1.8887281035	-1.5405433173	 0.144748
H	 0.2062815841	 2.2715939856	 0.1768218894	 0.14426
H	 0.0946011386	-2.9788839574	-0.466920361	 0.100832
H	 1.3833517624	-3.2448593668	 1.4849416473	 0.104825
H	 0.5053553845	-2.0095400874	 2.3760564699	 0.111971
H	-0.3859245475	-4.5425887045	 2.9657573267	 0.082852
H	-2.8563890326	-5.3067161034	 2.6129497293	 0.121892
H	-3.8599028708	-3.9261437318	 2.1319680858	 0.124713
H	-3.3611806822	-5.1010472577	 0.9244306931	 0.123248
H	-2.3390483238	-1.7759373799	 0.8863149187	 0.111385
H	-2.2621496581	-2.9387390197	-0.4299497433	 0.102376
