14
gdb 12657	3.3053	1.98383	1.29568	2.998	58.02	-0.2437	-0.1002	0.1435	881.3078	0.106356	-419.708062	-419.700751	-419.699806	-419.739818	26.807	
O	 0.3608874113	 1.153834781	 0.6130958165	-0.436356
C	-0.0389336646	-0.0614903906	 0.0534600124	 0.061072
C	-1.5458036175	-0.1759934632	-0.2559804017	-0.260587
C	-1.6368852221	-1.3586280113	-1.2483740419	-0.341541
C	-0.3569350974	-1.2808103903	-2.0748861996	 0.33087
O	-0.1068693908	-1.8042443438	-3.1252376543	-0.272857
C	 0.6001966089	-0.3356030045	-1.295876085	 0.271298
O	 1.6087759569	 0.1776051667	-1.7049195339	-0.298063
H	 1.1790389588	 1.4064052921	 0.1604990233	 0.296806
H	 0.2386431685	-0.912916331	 0.7072219166	 0.102496
H	-2.145888091	-0.3207067937	 0.6436061011	 0.125239
H	-1.8729112165	 0.7542058445	-0.7324031004	 0.129239
H	-1.6383777904	-2.3214338334	-0.7199558815	 0.145183
H	-2.5214099741	-1.3450427825	-1.8885224015	 0.147201
