20
gdb 35059	2.29058	1.47872	1.43554	4.0712	81.89	-0.2769	0.0278	0.3047	1068.3151	0.174456	-366.039408	-366.031522	-366.030578	-366.07178	31.024	
N	-0.3359222722	-1.1259412146	-0.1519296962	-0.360271
C	-0.2021714104	 0.022767818	-0.0914215234	 0.306424
C	-0.0557477421	 1.4463965428	-0.0126802446	-0.197183
C	 0.4828629398	 2.1096276839	 1.2596761448	-0.046807
C	 0.9229775705	 1.2664555578	 2.4564420636	-0.231415
C	 2.4232975473	 0.9319567672	 2.4265564588	-0.185898
C	 2.8296878618	 0.3370043367	 1.073823205	-0.216188
C	 2.6233517123	 1.3525852492	-0.0655336279	-0.220882
C	 1.3125445106	 2.1209850006	 0.0033401771	-0.036678
H	-0.8416350726	 1.9799122524	-0.5376257171	 0.128683
H	-0.0312223047	 3.0327722387	 1.5067201729	 0.099312
H	 0.6794604686	 1.8080517212	 3.3753406485	 0.101476
H	 0.3485212324	 0.3331464134	 2.4882934637	 0.126486
H	 3.0076465316	 1.842638979	 2.6162672594	 0.092682
H	 2.6570013544	 0.2332386546	 3.23656477	 0.098983
H	 3.8820685526	 0.034874389	 1.0883033757	 0.095522
H	 2.2467636631	-0.5703823175	 0.8856204103	 0.132593
H	 3.4278611374	 2.0975206367	-0.0155770128	 0.104064
H	 2.7200344204	 0.8603339378	-1.0400605698	 0.111451
H	 1.3206714995	 3.0526182332	-0.555177628	 0.097647
