13
gdb 129728	3.35461	1.30922	0.94643	5.0614	67.26	-0.2402	-0.0281	0.2121	1123.339	0.091579	-448.951572	-448.943651	-448.942706	-448.984036	29.022	
N	-0.2733429616	 1.41876477	-0.1114275954	-0.634026
C	-0.0659359156	 0.0173124623	-0.0597087212	-0.085932
C	-1.1032852938	-0.8878632136	-0.1539370008	 0.480042
O	-2.4170099333	-0.6858002288	-0.3007245081	-0.423783
N	-0.5695740277	-2.1257182358	-0.071165533	-0.270854
N	 0.7750991083	-2.1115109456	 0.0747482768	-0.301881
C	 1.0832399192	-0.8120102237	 0.0816759778	 0.218509
C	 2.4261291058	-0.3650424596	 0.2175902897	 0.240208
N	 3.4932580576	 0.0703272916	 0.3244297562	-0.343832
H	 0.2218634216	 1.8481269726	-0.8871329519	 0.256914
H	 0.0436894303	 1.881700784	 0.7350292006	 0.256897
H	-2.5307982749	 0.2770465026	-0.3340536266	 0.316553
H	-1.055086446	-3.0068741161	-0.1042458243	 0.291184
