18
gdb 71916	2.50639	2.02966	1.46627	3.9283	75.23	-0.2291	-0.0041	0.225	945.6793	0.148782	-401.924313	-401.916926	-401.915982	-401.955861	29.17	
C	-0.0093775874	 1.5835731409	 0.0173401999	-0.508072
C	 0.07069564	 0.078254867	 0.0687814347	 0.179019
C	-1.2595016947	-0.7660123635	 0.1600917498	-0.268874
C	-0.574051297	-1.8315404359	 1.0578741769	-0.054621
C	 0.372842091	-2.7721822285	 0.2771312851	-0.194175
N	 1.3886391018	-1.6557528063	 0.1472141161	-0.17208
C	 0.6389438213	-0.8572541186	 1.1889864615	-0.044017
C	 0.9642808528	-0.7280045367	-0.8765400837	 0.363626
O	 1.1984786059	-0.7210170511	-2.048923402	-0.325642
H	 0.9791897732	 2.0407419503	 0.1258505755	 0.130061
H	-0.4202196121	 1.9064578477	-0.9452988698	 0.139981
H	-0.6561856642	 1.9755313838	 0.8094767269	 0.117323
H	-1.9905602704	-0.2002393663	 0.744605968	 0.114827
H	-1.7235361469	-1.0848912415	-0.7780378236	 0.114233
H	-1.1544785752	-2.2399838246	 1.8847019584	 0.078783
H	 0.7816720366	-3.5774509455	 0.8934998652	 0.120007
H	 0.039270035	-3.1816408113	-0.6811568648	 0.125333
H	 1.1611919905	-0.5520870398	 2.0931712759	 0.084289
