15
gdb 2164	3.87419	3.13354	1.80854	3.8231	58.06	-0.2323	0.0627	0.295	693.8648	0.127706	-341.886905	-341.880196	-341.879252	-341.917425	24.201	
C	-0.0530422108	 1.3986101295	 0.0301266474	-0.337818
N	-0.020801336	-0.0380631603	 0.1579561343	-0.0973
C	-1.1873332294	-0.861022718	-0.0984768501	-0.158143
C	-0.6140151665	-2.2838183207	 0.0607547904	-0.172537
N	 0.7771160817	-2.0694552245	-0.3112992509	-0.351925
C	 1.147528229	-0.7477595903	-0.0759270451	 0.448709
O	 2.2749173561	-0.3015215378	-0.0838536706	-0.422605
H	 0.9710447082	 1.7620935859	 0.1314512567	 0.163989
H	-0.448069565	 1.7161895114	-0.9467965937	 0.112821
H	-0.6747616795	 1.8454421221	 0.8137708716	 0.119845
H	-1.9968030834	-0.6554998861	 0.6090799755	 0.113682
H	-1.5765414837	-0.7000928616	-1.1171045385	 0.104212
H	-0.7200475202	-2.6293259917	 1.0992260497	 0.108994
H	-1.1083647778	-3.0048522039	-0.5955085979	 0.117094
H	 1.4750992173	-2.765751884	-0.1017528486	 0.250981
