21
gdb 57955	3.83711	0.77081	0.72008	2.0844	78.92	-0.2442	-0.0163	0.2278	1654.8511	0.179333	-424.228317	-424.217856	-424.216912	-424.265549	36.717	
C	 0.0511506744	 1.6847139515	-0.129104573	-0.386507
C	-0.0343983023	 0.1749410579	 0.1182685973	-0.060317
C	 0.6079071703	-0.622828498	-1.0363793369	-0.38766
C	 0.6768155285	-0.2089793479	 1.4184127884	 0.381921
O	 1.6974655514	 0.337692871	 1.7727546421	-0.316195
C	 0.0536825015	-1.338347797	 2.2293323991	-0.354082
C	 0.9072136529	-1.7792794104	 3.3919340492	 0.116118
C	 0.6891539319	-1.278323374	 4.751123285	-0.166798
O	 0.2587942729	-2.5896759415	 4.3748195023	-0.247103
H	 1.095452703	 2.0064380659	-0.1371950314	 0.140279
H	-0.4046138326	 1.9437012845	-1.0895166017	 0.110518
H	-0.4645244529	 2.2476364613	 0.654969068	 0.115454
H	-1.0856305069	-0.129449716	 0.1986438472	 0.079066
H	 1.6650409458	-0.3585858401	-1.1380973028	 0.136683
H	 0.5415106542	-1.70374878	-0.8754348831	 0.11755
H	 0.1044767928	-0.3935925997	-1.9802868422	 0.122442
H	-0.9305290311	-1.0070849755	 2.5867649322	 0.13292
H	-0.1526738954	-2.1850347313	 1.5599110801	 0.130916
H	 1.9127699322	-2.1068636634	 3.1307105247	 0.104487
H	 1.5199548935	-1.239697983	 5.4534238718	 0.119906
H	-0.1088266939	-0.5603877244	 4.9375551036	 0.110404
