17
gdb 50328	3.46903	1.3742	1.3025	3.5449	70.86	-0.2351	-0.0161	0.219	1008.8907	0.13691	-421.797678	-421.790655	-421.789711	-421.829516	27.493	
O	 0.0081870967	-0.0917934719	 0.1057594664	-0.258465
C	 0.0033612979	 1.1096453671	 0.0168165112	 0.154304
C	 1.2540145681	 1.9696089262	-0.0178695164	-0.088705
C	 1.2642226362	 2.9629310885	-1.224919656	-0.251087
C	 0.9704667259	 4.3103149907	-0.5762438694	 0.090962
O	-0.3481486686	 4.2089295102	 0.0674045274	-0.306743
C	 0.3076978644	 4.0048007316	 1.3200719349	 0.096798
C	 1.6726902027	 4.3125111666	 0.7984412738	-0.161502
C	 1.3350327352	 2.8906287327	 1.2104079884	-0.105592
H	-0.9435730948	 1.688646398	-0.0389104726	 0.095967
H	 2.1116073932	 1.2927366912	-0.0438259534	 0.092628
H	 2.2467712601	 2.9682686867	-1.7084691152	 0.112411
H	 0.5155859919	 2.7170201233	-1.9846993719	 0.120132
H	 1.0348949487	 5.1914602383	-1.215756784	 0.088282
H	-0.2201948755	 4.2816660399	 2.2248172342	 0.111526
H	 2.4840938546	 4.9297934604	 1.1562743221	 0.105418
H	 1.7332940634	 2.5028118705	 2.1409814506	 0.103669
