15
gdb 49353	1.8153	1.48135	1.1037	2.7212	78.7	-0.2483	-0.0315	0.2168	1159.634	0.108836	-383.413859	-383.40478	-383.403835	-383.447977	33.055	
O	 0.0351408338	-0.0427494854	-0.3727019742	-0.263865
C	 0.0272364929	 1.084137919	 0.0565359685	 0.166206
C	 1.2382609034	 1.9486270551	 0.0744282136	-0.152513
C	 1.1113869983	 3.4567299778	-0.1588152833	-0.23397
C	-0.155549997	 4.0730709965	-0.4208069838	 0.34204
C	-1.2006146493	 4.6173953593	-0.6576322989	-0.439767
C	 1.4657529061	 2.9316544077	 1.2262860822	-0.23397
C	 0.5457211744	 3.0339766503	 2.3202319198	 0.34204
C	-0.1986655826	 3.1327745894	 3.2586682751	-0.439768
H	-0.8909038719	 1.5482262483	 0.4673733457	 0.104981
H	 2.1222383121	 1.4710160697	-0.3327881333	 0.123065
H	 1.9452617833	 3.8890612799	-0.7041261888	 0.136639
H	-2.1277796471	 5.0930836473	-0.8624558626	 0.206122
H	 2.5094625537	 3.0530670005	 1.50115107	 0.136639
H	-0.8624906102	 3.2182372547	 4.0832284099	 0.206122
