20
gdb 47645	2.24543	1.71207	1.14148	2.5966	81.2	-0.2531	-0.006	0.2472	1116.4622	0.17328	-403.153859	-403.145636	-403.144692	-403.186767	31.992	
N	 0.0433001265	 1.3600830589	 0.1336965265	-0.468144
C	 0.0280627738	 0.0969957755	 0.0502395481	 0.347602
C	-1.2840165207	-0.6605244734	-0.0045388415	-0.245676
C	-1.9306032876	-0.7167589175	-1.4027805943	-0.187801
C	-0.9981369101	-1.2576609893	-2.5134216118	-0.261012
C	-0.3172092388	-2.5350511122	-2.1076730798	-0.030106
C	 0.821208203	-2.5906423448	-1.4131871941	-0.072946
C	 1.6409966175	-1.3821887703	-1.029296838	-0.135705
O	 1.1900311299	-0.6433735021	 0.1269213444	-0.262016
H	 1.0109500419	 1.6898056419	 0.1680282414	 0.21724
H	-1.1213921562	-1.6704719912	 0.3764815475	 0.115153
H	-1.9763693633	-0.1496917895	 0.6695566215	 0.126345
H	-2.8292338877	-1.3412286594	-1.3360169864	 0.09975
H	-2.2585200677	 0.2887650097	-1.6858954923	 0.120419
H	-1.5801157399	-1.4055055237	-3.4289245085	 0.102379
H	-0.2509716368	-0.4875952407	-2.7387831412	 0.112832
H	-0.8400294258	-3.4630788588	-2.3318355551	 0.093963
H	 1.2053084694	-3.555364125	-1.0927076474	 0.094612
H	 2.6526385386	-1.6898986124	-0.7571171585	 0.119569
H	 1.7244063339	-0.6847490557	-1.8728416806	 0.113541
