17
gdb 21184	3.30151	1.82481	1.19586	2.3182	71.54	-0.1857	0.0374	0.2231	1000.9435	0.143524	-360.059661	-360.051398	-360.050454	-360.09228	30.084	
C	 0.0531708886	 1.448326215	 0.0727449314	-0.322923
N	-0.1307272459	 0.012040063	-0.026794772	-0.388322
C	 0.5566405148	-0.6493209278	-1.0489296227	 0.173369
C	 1.1959238759	-0.1170946572	-2.1530785187	-0.118925
N	 1.6471712351	-1.1852132207	-2.8721158218	-0.19748
N	 1.3540119818	-2.365473057	-2.3065496513	-0.283366
C	 0.6863812668	-2.058719409	-1.195274966	 0.283289
C	 0.1711948602	-3.1164521153	-0.2738879181	-0.508528
H	 1.1096331576	 1.7564623979	 0.1522642299	 0.105142
H	-0.3699600834	 1.9348431874	-0.8135912064	 0.128999
H	-0.4861944415	 1.8233159505	 0.9459638183	 0.121168
H	-0.0265491765	-0.4534926402	 0.8645306434	 0.232141
H	 1.3552132443	 0.8977115269	-2.4771610558	 0.120753
H	 2.1465243546	-1.1710822628	-3.7433566107	 0.268463
H	 0.6432936213	-3.0646869378	 0.7161336253	 0.115927
H	-0.9101679467	-3.0210009795	-0.1205542748	 0.128821
H	 0.3769785329	-4.1040107434	-0.6918684601	 0.141473
