17
gdb 33224	5.49411	0.79206	0.72578	2.7271	71.08	-0.206	0.0394	0.2454	1517.5258	0.137114	-455.160982	-455.15239	-455.151445	-455.195449	30.982	
O	 0.5712046716	 0.1861519044	-1.0905944671	-0.416244
C	-0.0663274377	 0.2068983093	 0.1698686405	-0.067545
C	-1.5700031508	 0.3720683956	 0.0454968586	-0.088044
O	-2.0519632401	-0.7784613177	-0.6560258796	-0.288022
C	-3.3726510711	-0.7685375144	-0.9283912689	 0.407847
C	-4.4125561855	 0.0917628285	-0.6860098144	-0.220303
N	-5.5801630335	-0.4370954947	-1.2075036917	-0.247974
C	-5.2490457093	-1.5807415872	-1.7454477049	 0.008306
N	-3.9070219335	-1.8367252436	-1.6053962224	-0.336352
H	 0.1350277685	-0.4997729122	-1.6079333437	 0.289943
H	 0.1482178843	-0.7045614225	 0.7499188145	 0.099148
H	 0.3425708233	 1.0590463194	 0.7219929694	 0.118526
H	-2.0492940001	 0.4341594715	 1.031859628	 0.112864
H	-1.8131113504	 1.2754991275	-0.5283761544	 0.122835
H	-4.3968119134	 1.0415640435	-0.1777353642	 0.107923
H	-5.912368637	-2.2688042566	-2.2470163172	 0.129632
H	-3.3932912552	-2.6435080408	-1.9175986424	 0.267459
