23
gdb 116294	2.33515	1.23803	0.91066	0.6026	82.08	-0.2537	0.0847	0.3384	1392.0704	0.20571	-425.438786	-425.428763	-425.427819	-425.474158	36.211	
C	-0.0874016271	 1.692891193	 0.0536870717	-0.386921
C	-0.0302283221	 0.1785952959	 0.279348594	-0.190385
C	-1.3543626837	-0.5282510118	-0.01538319	-0.008511
C	-1.8249380871	-0.5171982138	-1.4831428969	-0.247613
C	-2.8163358188	-1.6908503537	-1.5262773545	-0.081118
O	-2.5060760091	-2.5354704454	-0.4053576597	-0.268352
C	-1.3746509807	-2.0349617066	 0.2708426717	 0.212619
O	-0.1780865352	-2.5980191368	-0.2083890998	-0.248075
C	-0.0810428158	-3.9922090738	 0.0080266697	-0.239276
H	 0.8663905992	 2.1641502256	 0.3103017552	 0.112443
H	-0.304824276	 1.9368002294	-0.9914874907	 0.116879
H	-0.8644840918	 2.1590416166	 0.670480093	 0.110934
H	 0.7550857205	-0.2671180463	-0.3387272262	 0.114558
H	 0.2527014899	-0.0214030123	 1.3208375195	 0.093034
H	-2.1440202202	-0.0869895276	 0.6078180003	 0.0755
H	-2.2884254758	 0.4250456571	-1.7828158551	 0.10215
H	-0.9720450592	-0.7044438864	-2.1427148626	 0.114945
H	-3.8547672342	-1.3550214091	-1.4149072129	 0.100313
H	-2.7462531589	-2.2706622777	-2.453252912	 0.103405
H	-1.5050080469	-2.294448738	 1.3323061052	 0.064622
H	 0.8858130221	-4.3126833137	-0.3866497748	 0.122084
H	-0.1257770979	-4.2342278832	 1.0813358628	 0.102455
H	-0.8834842213	-4.5353204212	-0.5046489481	 0.124311
