21
gdb 73130	2.42699	1.76204	1.5364	1.7666	80.37	-0.2402	0.0761	0.3164	1007.3854	0.184067	-387.078804	-387.071023	-387.070079	-387.110659	31.728	
C	 0.2362999627	 1.5519623753	-0.0430289297	-0.465002
C	 0.021923893	 0.052423355	 0.0288475418	 0.437827
O	-1.3109301819	-0.2603360335	 0.5461937159	-0.326995
C	-0.7654077971	-1.0154170099	 1.6450330336	-0.093345
C	 0.6830577283	-0.7547252884	 1.189997851	-0.110133
C	 1.5083974365	-1.903050927	 0.5746718223	-0.257134
C	 1.2437789223	-1.8714215483	-0.9305572497	-0.030186
C	-0.1610689021	-2.0706288042	-1.4275592484	-0.294146
C	 0.3744423678	-0.6709174741	-1.2667444599	-0.075309
H	 1.2597243195	 1.781673714	-0.3595658363	 0.115743
H	-0.4535480209	 1.9996191283	-0.7662517783	 0.126956
H	 0.0580124216	 2.0180087548	 0.9300703519	 0.116581
H	-1.0411324934	-0.578253621	 2.6128818849	 0.09679
H	-1.0868137232	-2.065820298	 1.6301887319	 0.092779
H	 1.2652438867	-0.1626770928	 1.8985254804	 0.074685
H	 2.5753487276	-1.7381944428	 0.7585773292	 0.100451
H	 1.2593462496	-2.8722002724	 1.0237463691	 0.101087
H	 2.0554875241	-2.1608279429	-1.5896288652	 0.081218
H	-0.2827533505	-2.4404442704	-2.4398754723	 0.106953
H	-0.9377423865	-2.3906856928	-0.7425864154	 0.125534
H	 0.5532847259	-0.0732180085	-2.1538911769	 0.075645
