21
gdb 59135	4.06072	1.06785	0.98511	1.4102	82.99	-0.2544	0.078	0.3325	1285.3394	0.182304	-387.011854	-387.003479	-387.002535	-387.044877	32.948	
C	 0.0496820861	 1.5648657679	-0.0609491993	-0.402167
C	 0.059147848	 0.046372875	 0.1243636361	 0.10668
O	 0.7149898022	-0.32342127	 1.3393147388	-0.434201
C	-1.3391248968	-0.5548570876	 0.0639502125	-0.016344
C	-2.0451041167	-0.7620621163	-1.2966457218	-0.057158
C	-1.2393112989	-2.0729559025	-1.6156021985	-0.041441
C	-2.521052758	-2.8768021832	-1.9077701535	-0.268431
C	-2.9053519538	-1.9493085229	-0.7399435424	-0.046165
C	-1.4961379932	-2.0844983074	-0.0650549064	-0.046755
H	 1.0644104358	 1.9644474311	 0.0174619088	 0.121871
H	-0.3608198557	 1.8430830158	-1.0372757902	 0.116882
H	-0.5678058863	 2.0455308094	 0.7086485327	 0.103345
H	 0.6784998124	-0.4035434466	-0.6606301642	 0.083587
H	 0.2012534182	 0.0439635477	 2.067437515	 0.273284
H	-1.9768318233	-0.0972360366	 0.8367140679	 0.04601
H	-2.3775731619	-0.0192235573	-2.0247182599	 0.066449
H	-0.2704957676	-2.1339808799	-2.1123927434	 0.07314
H	-3.0122263811	-2.6910059842	-2.8687233361	 0.089898
H	-2.4883739996	-3.9503196487	-1.694640246	 0.091573
H	-3.8570532954	-1.8521229175	-0.2142486936	 0.066539
H	-1.1865664744	-2.8653696563	 0.6305878637	 0.073404
