21
gdb 75305	2.34731	1.91146	1.27708	1.5642	83.43	-0.2246	0.0173	0.2419	1069.4656	0.18291	-387.09362	-387.085354	-387.08441	-387.125695	33.479	
C	 0.0131173013	 1.5193276533	 0.0014468865	-0.505314
C	 0.0060287037	 0.0185887101	 0.0009754944	 0.321938
C	-0.0526232933	-0.724656181	-1.1077073779	-0.164877
C	-0.0261609158	-2.2334938781	-1.0104919188	-0.262174
C	 0.1110450202	-2.6215778758	 0.4667629518	 0.091027
C	 1.226990891	-1.8247084095	 1.1727426244	-0.27972
C	 0.088455721	-0.7770999937	 1.3129690905	 0.315519
C	-0.0655152891	 0.0038962674	 2.5965354222	-0.4917
O	-0.8826991257	-1.8769928673	 1.2241905553	-0.325411
H	 0.9293101836	 1.923523201	 0.4510438736	 0.122615
H	-0.0569195551	 1.9076125983	-1.01850263	 0.120341
H	-0.8235173068	 1.9317100695	 0.5781113203	 0.127834
H	-0.1259012297	-0.2663604758	-2.0909991352	 0.081044
H	-0.9473764732	-2.6648798231	-1.4245941053	 0.112297
H	 0.8037474858	-2.6520774406	-1.5968807299	 0.101471
H	 0.0396443786	-3.6990460291	 0.6384230168	 0.070767
H	 1.490947906	-2.2695203649	 2.1348910273	 0.099352
H	 2.1215215543	-1.5474574035	 0.6118410211	 0.096119
H	 0.7246227733	 0.7544563464	 2.699611442	 0.118325
H	-1.0316763536	 0.5176315317	 2.629277867	 0.128169
H	-0.0130032765	-0.6763254254	 3.4503115239	 0.122377
