20
gdb 6232	2.1041	2.09785	1.6113	1.7253	71.85	-0.2334	0.0706	0.3041	964.5292	0.173108	-386.131502	-386.121536	-386.120592	-386.164933	37.203	
C	-0.0799935098	 1.5288789477	-0.0652959072	-0.425265
C	 0.027683263	 0.0243341846	 0.0513141798	-0.143414
C	 1.3475077877	-0.7110882238	-0.1905109944	 0.342667
C	 1.3760061614	-1.9879195856	-0.9972974876	-0.447112
O	 2.5039543135	 0.0791189812	-0.3306092018	-0.462559
C	 0.7576756962	-0.6782604212	 1.1919702334	 0.333932
C	 1.4250022114	 0.0921964624	 2.3086051332	-0.447333
O	 0.2151764039	-1.9108311472	 1.6086532683	-0.465531
H	 0.8860084908	 2.0113959261	 0.1004364243	 0.128342
H	-0.4253078578	 1.8165091246	-1.0650699031	 0.11187
H	-0.7935809358	 1.9415680974	 0.6566020254	 0.114075
H	-0.8471106392	-0.5257329802	-0.2890390635	 0.079528
H	 1.3662139398	-1.7654431637	-2.0720448759	 0.0986
H	 2.2862296539	-2.5548958384	-0.776826366	 0.124238
H	 0.5150217047	-2.6163408088	-0.7666961213	 0.135482
H	 2.5532575464	 0.3637489975	-1.2500759274	 0.281241
H	 1.9489387096	 0.9737021153	 1.9393390189	 0.13734
H	 0.6837970861	 0.4144583693	 3.0507006496	 0.099808
H	 2.1512722917	-0.5510567909	 2.8148274356	 0.126343
H	-0.5508312375	-1.7181409866	 2.1606160397	 0.277745
