16
gdb 39714	3.52339	1.78002	1.56766	2.1969	71.37	-0.2381	-0.0135	0.2246	871.7757	0.126927	-396.847548	-396.841273	-396.840328	-396.877971	25.865	
C	 0.0825428109	 1.4272356123	-0.036991198	-0.329305
N	 1.2840050616	 0.5658090349	 0.0599055437	-0.373789
C	-0.0309704608	-0.0430011563	 0.0139686031	 0.43742
C	-0.680865221	-0.8863412883	 1.0803625083	-0.13539
C	-1.5798172742	-1.4997979962	 0.0655497082	-0.042659
C	-0.6635311435	-0.9507750595	-1.0754286951	-0.17291
N	 0.3335649671	-2.0111155808	-1.3366528729	-0.193286
C	 0.353927812	-2.6876304956	-0.2599820244	 0.051367
N	-0.6164220233	-2.3719580483	 0.7513915562	-0.165761
H	-0.1186357047	 2.0295085164	 0.845194271	 0.12445
H	-0.1383684124	 1.9200619691	-0.9809571161	 0.118287
H	 1.7460435201	 0.4803045333	-0.8424295346	 0.243784
H	-0.8348724318	-0.6447269027	 2.1240347473	 0.113781
H	-2.639206839	-1.7253035869	 0.0769160886	 0.107661
H	-1.0711959919	-0.5006179777	-1.9778388645	 0.082896
H	 1.052654441	-3.4932573139	-0.0607610807	 0.133455
