18
gdb 55471	3.44623	1.06428	0.98075	2.8926	68.28	-0.2501	0.0192	0.2693	1238.6871	0.149257	-476.254265	-476.24564	-476.244696	-476.288383	31.583	
N	 0.1415790446	 1.1108142685	 0.6848110023	-0.526511
C	-0.0056232852	 0.0622282566	-0.1734397642	 0.399527
O	 0.877238788	-0.2898909215	-0.9354606388	-0.373054
C	-1.3528990072	-0.6476110596	-0.1241276937	-0.123277
C	-2.0369341209	-0.5858678756	-1.5053204813	-0.09236
O	-3.2069469345	-1.3877497644	-1.5180286122	-0.237174
C	-2.9123567849	-2.7180192865	-1.1833779183	 0.01282
O	-2.3812111931	-2.8421848253	 0.109206425	-0.237196
C	-1.1567294856	-2.1362049681	 0.2292285585	-0.092397
H	 1.01658969	 1.609618854	 0.6853507604	 0.263429
H	-0.5857651346	 1.4019278238	 1.3130179348	 0.26253
H	-2.0201931598	-0.1961122875	 0.6179741108	 0.077658
H	-2.3524213102	 0.4314253665	-1.7511313872	 0.114606
H	-1.3204333584	-0.9247619251	-2.2684550763	 0.119085
H	-3.8545333352	-3.2688531829	-1.1976289937	 0.118119
H	-2.2042668221	-3.1417258756	-1.9214324099	 0.080476
H	-0.392487236	-2.5590890664	-0.4398504407	 0.119104
H	-0.823206825	-2.2621927509	 1.2625376645	 0.114613
