15
gdb 72575	2.54776	1.99657	1.52204	2.497	59.3	-0.2805	-0.0042	0.2763	876.0959	0.114227	-494.93991	-494.933139	-494.932195	-494.970831	27.052	
O	 0.0919656731	 1.3709755894	 0.0855750276	-0.484929
C	 0.0057288127	-0.0073270297	 0.0654168655	 0.228298
C	 0.646561352	-0.7471953051	 1.2748956515	-0.127768
O	 0.1652980843	-2.098433934	 1.1226642892	-0.250014
C	-0.6503700382	-2.0764357022	-0.0171024041	 0.196095
C	-1.3669242399	-0.7267772417	 0.0322526987	-0.31225
O	 0.2036252753	-1.9388791795	-1.2032666897	-0.231814
C	 0.6268007696	-0.6515104845	-1.1730907092	 0.413944
O	 1.342886147	-0.1248673501	-1.9770018238	-0.369258
H	 0.6507587636	 1.6211960193	-0.6656912771	 0.301137
H	 1.7400079467	-0.7374135396	 1.2579642676	 0.130869
H	 0.2909059394	-0.3180039197	 2.2176459273	 0.12504
H	-1.1977432398	-3.009710203	-0.1093508596	 0.119473
H	-1.9613124469	-0.5924015581	 0.9374658466	 0.128929
H	-1.956089469	-0.5069107615	-0.8589372406	 0.132249
