16
gdb 77798	2.38512	1.50897	1.11054	3.527	73.59	-0.2627	-0.0458	0.217	1110.599	0.122576	-437.866473	-437.85817	-437.857226	-437.899574	30.55	
C	 0.0183974253	 1.5773863545	 0.0647504753	-0.418825
C	 0.0887620743	 0.0677402483	 0.0555833875	-0.084891
C	 1.3269736859	-0.7433653167	-0.2769994775	-0.258827
C	 2.5179765176	-0.1370162715	 0.3952761782	 0.442233
N	 3.6785564608	 0.15340968	 0.0321983282	-0.548173
O	 1.9101344857	-0.0420998036	 1.6499956591	-0.28065
C	 0.7458789284	-0.7305443599	 1.1515301972	 0.340728
C	 0.140164147	-1.8280560422	 1.9185399401	 0.070931
O	 0.486280204	-2.1773844762	 3.0174089607	-0.254105
H	 0.9021822264	 2.0147877533	 0.5324890782	 0.150454
H	-0.056605695	 1.9598096718	-0.9574415827	 0.135226
H	-0.8620598149	 1.9135013257	 0.6207087177	 0.132984
H	-0.8044995833	-0.4271451652	-0.3243603825	 0.114863
H	 1.3453022129	-1.5371850844	-1.0100055245	 0.137189
H	 4.2317566009	 0.5236319068	 0.8067984052	 0.23972
H	-0.698077716	-2.3182988105	 1.3727828398	 0.081144
