12
gdb 26816	3.77573	1.14449	0.87827	5.035	68.9	-0.2099	-0.0352	0.1747	1182.968	0.078264	-468.848678	-468.840716	-468.839772	-468.881125	28.899	
O	 0.0392290927	 1.3603702209	 0.245703768	-0.431871
C	 0.0594708898	 0.0296323928	 0.0398712644	 0.325509
C	 0.1159832735	-0.7639278215	-1.0903377439	 0.220152
O	 0.1681310986	-0.2932389128	-2.3593941982	-0.453536
N	 0.1121837738	-2.071326328	-0.7614347071	-0.363462
C	 0.0543425076	-2.1108617378	 0.5662765492	 0.231429
N	 0.0199953539	-0.8384506974	 1.0900562921	-0.348277
C	 0.0280160452	-3.2605910924	 1.3825851834	 0.235326
N	 0.0045497581	-4.1810660905	 2.0876869742	-0.345797
H	 0.0752002444	 1.7960800695	-0.6139045371	 0.325208
H	 0.2019071583	-1.0585485754	-2.945859346	 0.312246
H	-0.0253895158	-0.5837628174	 2.0638889809	 0.293071
