19
gdb 41355	2.85231	1.85919	1.67361	2.6539	73.41	-0.2451	0.0751	0.3202	902.6199	0.163043	-422.985912	-422.979492	-422.978547	-423.016311	27.493	
C	-0.0088464338	 1.5493134566	 0.2500660896	-0.291936
C	 1.5271727282	 1.4664981738	-0.0910499826	-0.324939
C	 1.1833138547	 0.215239498	-0.9415534467	 0.236133
C	 0.530037671	 0.5768435195	-2.3076186684	-0.104827
O	-0.7439012312	-0.0978637144	-2.2948470574	-0.256227
C	-0.7073143807	-0.8658938201	-1.1173492186	 0.16063
O	 0.3134672853	-1.882809028	-1.2280256026	-0.296745
C	 1.6241086851	-1.2344537979	-1.0688743846	-0.16222
C	-0.0698023116	 0.0249859593	-0.0625734392	 0.005652
H	-0.2759219883	 1.8418599646	 1.2665123524	 0.104258
H	-0.5657932262	 2.1687215515	-0.4543197261	 0.125206
H	 1.9944114487	 2.3130768983	-0.5997313341	 0.103502
H	 2.1136164577	 1.2176811467	 0.7973817012	 0.11185
H	 0.3670359376	 1.6500351329	-2.4461344476	 0.101375
H	 1.135305431	 0.2086445874	-3.1444501679	 0.103771
H	-1.6637707211	-1.3662465964	-0.9778513418	 0.089856
H	 2.2291527576	-1.4747110598	-1.9497668636	 0.102735
H	 2.1182434169	-1.622528326	-0.1701837034	 0.099461
H	 0.1568644592	-0.5518258959	 0.8374672415	 0.092466
