20
gdb 62212	4.50213	0.55228	0.51403	2.691	81.39	-0.2569	-0.0305	0.2263	2057.5287	0.168405	-403.181749	-403.17107	-403.170126	-403.219446	36.302	
C	-0.1239601797	 1.5951110814	-0.1023284078	-0.412719
C	-0.0307884489	 0.0614400675	-0.0354530477	-0.067576
C	 0.7607876944	-0.4487538108	 1.1901632022	-0.202558
C	 2.235403172	-0.030795398	 1.1991438318	-0.190472
C	 2.9927450018	-0.6558686683	 2.3886570978	-0.342392
C	 4.3972114159	-0.254632147	 2.4299412879	 0.257316
N	 5.5042838906	 0.0760265806	 2.4459134335	-0.301092
C	-1.4307718941	-0.522312452	 0.0293420187	 0.158718
O	-1.8772648683	-1.3426184631	-0.7286552889	-0.244207
H	 0.8651830284	 2.0509246858	-0.1901118001	 0.133882
H	-0.7113539036	 1.9132606379	-0.9688379432	 0.134571
H	-0.6026723203	 2.0007357443	 0.7964889	 0.12308
H	 0.430868611	-0.3285810295	-0.9493549968	 0.099717
H	 0.2741872921	-0.0947815448	 2.109995668	 0.104341
H	 0.7018323709	-1.5447057878	 1.2113518642	 0.115574
H	 2.7183819149	-0.3402812988	 0.2656808776	 0.127208
H	 2.3306682219	 1.057530831	 1.2569883186	 0.127791
H	 2.5210374487	-0.3643370594	 3.3346059617	 0.153477
H	 2.944207627	-1.7499084863	 2.338645846	 0.155581
H	-2.0459268247	-0.1264769729	 0.8741676365	 0.06976
