15
gdb 51269	4.65059	1.11031	0.96289	4.2393	68.7	-0.2388	-0.0139	0.2249	1180.685	0.113642	-453.961336	-453.953894	-453.952949	-453.994005	27.634	
O	-0.423730488	 0.0815051158	 0.0852267421	-0.25434
C	-0.0980173271	 1.2361855322	 0.0819240667	 0.156362
N	 1.198546295	 1.7257130408	 0.0686077866	-0.409407
C	 2.3781795932	 1.0064162862	 0.0559110119	 0.523805
N	 2.5583853917	-0.2501536401	 0.1305995273	-0.310415
C	 3.9850975666	-0.4400232454	 0.0142969627	-0.014521
C	 4.6228511073	 0.011492827	-1.2857658508	-0.318603
C	 4.581664281	 0.9498473125	-0.1148482528	 0.054577
O	 3.4671387502	 1.8319045496	-0.0534105944	-0.263929
H	-0.8160736668	 2.0802281527	 0.0879570025	 0.087389
H	 1.316707222	 2.7276795615	 0.0546142918	 0.269381
H	 4.4154443419	-1.2529320749	 0.5856880324	 0.108569
H	 5.5962556217	-0.403036313	-1.524811295	 0.124506
H	 3.9765028516	 0.2013076446	-2.1363414286	 0.13
H	 5.4608193698	 1.3502240805	 0.3716218374	 0.116627
