23
gdb 90434	2.31436	1.4874	1.22655	1.3221	84.75	-0.2452	0.063	0.3082	1168.3077	0.205843	-388.263085	-388.253754	-388.252809	-388.296858	36.405	
C	 0.075386182	 1.5708922876	-0.1821461726	-0.419184
C	 0.0577972108	 0.0559333288	-0.0210596031	 0.061347
C	 0.865650145	-0.8584873356	-0.9882035533	-0.263144
C	 1.1975226276	-1.8079602746	 0.2007320405	-0.031877
C	 2.622590034	-1.6739205447	 0.7608650741	 0.099038
O	 3.599060617	-1.4507988743	-0.2361829039	-0.421489
C	 2.1636786415	-0.4577162944	 1.6502176085	-0.026226
C	 2.8853364957	 0.8673736638	 1.4309394256	-0.414412
C	 0.6823994592	-0.6953577065	 1.1888540014	-0.067416
H	 1.0869549945	 1.9718469231	-0.2717052361	 0.115796
H	-0.4737832056	 1.8624082809	-1.085070361	 0.109233
H	-0.407662819	 2.0661822271	 0.6683328203	 0.108679
H	-0.9899506387	-0.2698209638	-0.0534366563	 0.070708
H	 0.2988372949	-1.3034313781	-1.8093325381	 0.092091
H	 1.7597550147	-0.3899860102	-1.405035539	 0.11803
H	 0.7654192973	-2.8079644161	 0.1495687174	 0.057705
H	 2.9009569549	-2.5381869515	 1.3800389179	 0.060377
H	 4.456323995	-1.3676318997	 0.192724989	 0.283247
H	 2.2455268221	-0.7187380824	 2.7109062622	 0.066564
H	 2.9975892845	 1.1054134949	 0.3712481431	 0.132267
H	 2.3612867391	 1.6949267249	 1.9188732587	 0.115538
H	 3.8941718372	 0.8230227875	 1.8595636336	 0.098479
H	 0.0017301062	-0.9092394167	 2.0156087912	 0.054648
