23
gdb 58432	2.71152	1.31439	1.19944	1.4093	85.32	-0.2549	0.0755	0.3304	1188.6345	0.205627	-388.230998	-388.221753	-388.220808	-388.264609	36.668	
C	 0.2739061522	 1.2980669154	-0.0286798522	-0.412834
C	 0.0476681838	-0.1842098658	 0.2849008267	 0.049004
O	 0.5450590208	-0.5211266466	 1.5819726434	-0.441068
C	-1.4300312379	-0.6282348441	 0.1137661557	 0.396729
C	-2.2298942704	-0.1627632672	 1.3388600241	-0.513676
C	-2.094132985	-0.4787970772	-1.3116750237	-0.086879
C	-1.1639194607	-1.6187236447	-1.8239517735	-0.232671
C	-1.6841106981	-2.088707001	-0.4299289815	-0.086267
C	-3.083895531	-1.6195973318	-0.9246556803	-0.2414
H	 1.3237543695	 1.5542569126	 0.1396813232	 0.121884
H	 0.0257738626	 1.5225969802	-1.0708122146	 0.120461
H	-0.3380911703	 1.9506697287	 0.6050971352	 0.109812
H	 0.6893541694	-0.7647675663	-0.3789615678	 0.084954
H	 0.1506993919	 0.0850561206	 2.2170759076	 0.276903
H	-3.3079647731	-0.2661634348	 1.2249877565	 0.119824
H	-1.9370311246	-0.7339523761	 2.2249972838	 0.12663
H	-2.0431143146	 0.8966984434	 1.5494281009	 0.108915
H	-2.3383945894	 0.4523494003	-1.8282291709	 0.063929
H	-1.5434342631	-2.1844147273	-2.6785412468	 0.087537
H	-0.1028331398	-1.4126341837	-1.9523620519	 0.096707
H	-1.4451463553	-3.0232459063	 0.0811617685	 0.071623
H	-3.8576119958	-1.4178996446	-0.1864148165	 0.091048
H	-3.4986932813	-2.1812508535	-1.765577916	 0.088836
