16
gdb 9123	5.23273	0.78901	0.69447	4.8979	72.85	-0.2535	-0.0438	0.2097	1586.0233	0.12716	-383.721446	-383.711721	-383.710777	-383.758347	32.148	
C	-0.0253860225	 1.5759846993	 0.0108140183	-0.369409
C	-0.0569922991	 0.037108047	 0.0030291367	-0.322691
C	-1.4035711218	-0.5172785906	 0.0125671268	 0.10135
C	-2.521803067	-0.9734827287	 0.0204929067	-0.002423
C	-3.8596419353	-1.5345591974	 0.0299116092	 0.22769
O	-4.0739920513	-2.7236742915	 0.0247825829	-0.264859
C	-4.9654199621	-0.4839785469	 0.0468457498	-0.174251
O	-6.2159714201	-1.1156411957	 0.0549836271	-0.395311
H	 1.0084560429	 1.9322607842	 0.0031401052	 0.12304
H	-0.5357909208	 1.9803107895	-0.8672559999	 0.132146
H	-0.5194562654	 1.9710240871	 0.9023512273	 0.132141
H	 0.4736850135	-0.3438191752	-0.8790091883	 0.144964
H	 0.4898399065	-0.3529937627	 0.8710805539	 0.144963
H	-4.795539432	 0.1528416514	 0.9325705904	 0.114419
H	-4.8124380227	 0.1635353879	-0.834193481	 0.114418
H	-6.8938750628	-0.4339086677	 0.065572875	 0.293813
