14
gdb 46431	4.0486	0.86987	0.76131	4.0855	62.98	-0.2792	-0.0279	0.2514	1398.3306	0.099938	-473.830709	-473.822328	-473.821384	-473.865259	28.457	
O	 0.2037289986	 0.1326244456	-0.3664820289	-0.315964
C	 0.1336822319	 1.2805103054	-0.0669177578	 0.442226
O	-0.9339186494	 1.9687543917	 0.4420147525	-0.232153
C	-0.1394844275	 3.1889198797	 0.629142958	-0.112249
C	 1.0699116815	 2.5114495113	-0.0283315187	-0.050099
O	 2.195146363	 2.4211449238	 0.8002590617	-0.245713
C	 3.2164111571	 1.6043105648	 0.2481263053	-0.205112
C	 4.3692645431	 1.6255360329	 1.1494892396	 0.27122
N	 5.2945198855	 1.6254194217	 1.8394368914	-0.285243
H	-0.5863071923	 4.0304995545	 0.0994697199	 0.139128
H	-0.0010066066	 3.4063083118	 1.6889047773	 0.151757
H	 1.3258506239	 2.8869188152	-1.0294210864	 0.114765
H	 2.8725453254	 0.5695100448	 0.1191100848	 0.179524
H	 3.5298837459	 1.9786166969	-0.7391096388	 0.147913
