21
gdb 64176	2.13173	1.46934	1.34472	1.9396	84.71	-0.2455	0.0531	0.2986	1133.7669	0.179118	-387.051072	-387.041064	-387.04012	-387.084818	39.044	
C	-0.7109211779	 1.3016382163	 0.1315936797	-0.463871
C	 0.0653504136	 0.0111641079	-0.0746396281	 0.396386
O	-0.7643930042	-0.9770073855	-0.6693500806	-0.468348
C	 1.4501630489	 0.0619842464	-0.7838290933	-0.281151
C	 1.9587598954	-1.0287847562	 0.1910402141	-0.252939
C	 0.775841773	-0.6823956116	 1.1614231293	 0.081496
C	 1.2166845944	 0.3113174835	 2.2496953044	-0.447931
C	 0.0741575861	-1.7999974432	 1.7683484048	 0.304263
C	-0.4762148245	-2.7186232759	 2.315673396	-0.459227
H	-0.1076923797	 2.0809694863	 0.6041902439	 0.11657
H	-1.0482124808	 1.6915433298	-0.8373428009	 0.104875
H	-1.597209492	 1.1182982984	 0.7468418875	 0.132444
H	-1.0446192681	-0.6414184356	-1.5280214896	 0.275116
H	 1.4378004699	-0.1849811506	-1.8482432467	 0.092206
H	 1.9587753262	 1.0208551745	-0.650931092	 0.099256
H	 1.8522519316	-2.0316119384	-0.2223356042	 0.122103
H	 2.9623000141	-0.9104707072	 0.6058006971	 0.097891
H	 1.7803428095	 1.1470623857	 1.8236025784	 0.111766
H	 0.3568577199	 0.7137710739	 2.7921482356	 0.126717
H	 1.8619081595	-0.1981293134	 2.97090251	 0.127409
H	-0.9743003947	-3.5355912949	 2.7754426546	 0.184971
