15
gdb 33361	4.39486	0.78433	0.77639	1.5651	81.88	-0.25	-0.0254	0.2246	1483.4108	0.111638	-420.55994	-420.55134	-420.550396	-420.595014	30.174	
C	 0.2519882719	-3.644356863	 0.0602919854	-0.552288
C	 0.1556418555	-2.441003076	 0.0435488679	 0.290808
C	 0.0480978958	-1.0848985861	 0.0263109703	-0.311483
C	-0.0472918448	 0.1214866687	 0.0113037982	 0.520488
C	-0.1684027681	 1.5926825633	-0.0140449429	-0.093589
O	-0.7419546512	 2.0890693389	 1.1731020274	-0.2238
C	 0.3371610166	 2.2506696315	 2.0940050735	-0.107025
C	 1.5971027702	 2.3389652358	 1.1937433703	-0.107043
O	 1.08864486	 2.2171195978	-0.1348957268	-0.223825
H	 0.3352927284	-4.7028856602	 0.0729210417	 0.196254
H	-0.7919820448	 1.9098259978	-0.8556922366	 0.129044
H	 0.1491101952	 3.1605610455	 2.6685552443	 0.124188
H	 0.3933164476	 1.3979128966	 2.7807479655	 0.117038
H	 2.1147237619	 3.2984211621	 1.2637399381	 0.124191
H	 2.3057423356	 1.5320567371	 1.4144021335	 0.117043
