18
gdb 85716	2.06235	1.55173	0.9947	1.1552	85.2	-0.2244	0.0259	0.2502	1221.8853	0.144665	-364.712575	-364.703137	-364.702193	-364.746742	35.034	
C	 0.0148773968	 1.5269313076	 0.0641910522	-0.329613
N	-0.0191236099	 0.0831142636	 0.1011752776	-0.045749
C	-1.2718201314	-0.6003379712	 0.4534883725	-0.178848
C	-0.4466435498	-1.6802745491	 1.2190223969	-0.242664
C	-0.2073276638	-2.9099574239	 0.4967122057	 0.379065
C	-0.0265085438	-3.9407698253	-0.0942282544	-0.475268
C	 0.7112485644	-0.6067551998	 1.1837544837	-0.18489
C	 2.0793107749	-0.9989427137	 0.9064678293	 0.361157
C	 3.2190819336	-1.3164439537	 0.6958706501	-0.428285
H	 1.0397603353	 1.8640077724	-0.1202389018	 0.13337
H	-0.612405594	 1.8900780244	-0.7563527259	 0.125662
H	-0.3410124464	 1.9939979092	 1.0028956508	 0.090075
H	-1.9116554399	-0.0246832238	 1.1432513529	 0.085856
H	-1.867516844	-0.9400904555	-0.397677832	 0.119652
H	-0.8012348665	-1.8943537782	 2.229216222	 0.111819
H	 0.1426988628	-4.8466382559	-0.6214222714	 0.197576
H	 0.6807813634	-0.0374886164	 2.1306425438	 0.084354
H	 4.2215610681	-1.6054569807	 0.4979083381	 0.196733
