18
gdb 113625	3.66286	0.87142	0.8324	3.8732	82.31	-0.2557	-0.0616	0.1941	1460.3181	0.145282	-401.900924	-401.891272	-401.890328	-401.936285	34.576	
C	 0.6908712758	 1.7572865676	 0.0804902072	-0.380219
C	-0.1177099819	 0.4610855582	-0.052545328	-0.194019
C	 0.3360222127	-0.3526003043	-1.2417926009	 0.008159
N	 1.5244304547	-1.1780493705	-1.0722156452	-0.311378
C	 0.2417012274	-1.8580431292	-1.3202227059	-0.172419
C	-0.3347849327	-2.67370126	-0.2025471274	 0.282543
O	-0.047925739	-2.5325177449	 0.9668178784	-0.296395
C	-1.3211901305	-3.6561602656	-0.6299242507	 0.24422
C	-2.1279138315	-4.4721036399	-0.9947444079	-0.418375
H	 1.753623325	 1.5342818131	 0.2156048215	 0.131871
H	 0.5884885408	 2.3896030613	-0.8090533834	 0.106947
H	 0.3551137152	 2.3402991313	 0.9429778176	 0.116471
H	-0.0099996023	-0.1435477626	 0.850631333	 0.144484
H	-1.1840155741	 0.6930952	-0.1689006101	 0.095978
H	 0.2083147552	 0.1425522393	-2.205948787	 0.08994
H	 2.0870862757	-1.2021156957	-1.918426339	 0.239095
H	 0.0555049076	-2.2706246676	-2.3088414527	 0.097793
H	-2.8451283781	-5.1963964006	-1.2965625595	 0.215305
