17
gdb 54224	2.26569	1.51873	1.32337	2.8739	70.66	-0.2391	-0.0226	0.2165	1058.8117	0.133875	-455.150692	-455.141291	-455.140347	-455.185014	34.119	
C	-0.1060357714	 1.5469733814	 0.1536490724	-0.491633
C	 0.0812414737	 0.0680157415	-0.0911221921	 0.357575
O	 1.1589723936	-0.4501656758	-0.2648156715	-0.30128
C	-1.20771822	-0.7733700706	-0.0610299055	 0.226983
O	-2.2939955567	-0.086910985	-0.6273431167	-0.478801
C	-1.0038929844	-2.2638230116	-0.4768556856	-0.210245
N	-1.0975366867	-2.5962167472	 0.9612252594	-0.329337
C	-1.5034434146	-1.3401636668	 1.339778091	 0.315685
N	-2.0293120344	-0.7445786725	 2.3255564656	-0.560362
H	 0.8664891305	 2.0361990804	 0.2121021065	 0.136404
H	-0.7058958095	 1.9835623639	-0.6499015651	 0.154913
H	-0.6653524407	 1.6951619314	 1.0845915171	 0.159049
H	-2.8984806113	 0.1231876486	 0.0966652321	 0.298386
H	-1.838831664	-2.6321185468	-1.0791383676	 0.117792
H	-0.0389715917	-2.5005015432	-0.9251285289	 0.138458
H	-1.3166017291	-3.4818144209	 1.3926980271	 0.247733
H	-2.2361455833	-1.3671506667	 3.1071169318	 0.218679
