18
gdb 7764	3.36561	1.74246	1.20212	3.6742	74.76	-0.2349	-0.0463	0.1885	1004.1947	0.154782	-347.852155	-347.844614	-347.84367	-347.88384	28.962	
C	-0.003970144	 1.5758588052	 0.003235216	-0.401836
C	 0.0127685851	 0.045766883	-0.0212918648	 0.009012
C	 0.7327248925	-0.5023174923	-1.2641078259	-0.248797
C	 0.9184972787	-1.992949018	-1.2128799068	-0.057541
C	 0.8710670388	-2.7044335735	-0.0792794327	-0.137272
C	 0.6774114658	-2.0691999288	 1.2423629554	 0.36367
O	 0.5874212976	-2.7236104947	 2.2620474195	-0.332087
C	 0.6434835956	-0.5445777083	 1.2495084802	-0.305711
H	 1.0133005503	 1.979743098	 0.0663156842	 0.114872
H	-0.4692853799	 1.9823243667	-0.9012457859	 0.11347
H	-0.5645976224	 1.9504897383	 0.8656061377	 0.119069
H	-1.0265347828	-0.3090746537	-0.0691104876	 0.085898
H	 0.1839268179	-0.2292743374	-2.1738421046	 0.111154
H	 1.7203421572	-0.0234739579	-1.3660590303	 0.117514
H	 1.1013228788	-2.5005306053	-2.1579434569	 0.106921
H	 0.9882515817	-3.7836228319	-0.0714863301	 0.105305
H	 1.6846051081	-0.1967443744	 1.335050368	 0.117339
H	 0.1257050711	-0.218185145	 2.1558560946	 0.119019
