18
gdb 51316	3.84016	1.04047	0.84353	3.3021	78.95	-0.2206	-0.0052	0.2153	1325.2196	0.149171	-439.116893	-439.108595	-439.107651	-439.150657	30.714	
O	 1.8748304471	 4.1961982202	 0.0120744063	-0.311661
C	 1.0225415598	 3.3371133381	 0.038227924	 0.151898
N	 1.2117997369	 1.9817129286	-0.0170504761	-0.374559
C	 2.4072761402	 1.2423165074	-0.1206196087	 0.39598
C	 2.3616087498	-0.0913606375	-0.217170637	-0.213617
C	 3.601505472	-0.92740665	-0.3798898433	-0.110045
O	 4.7513798874	-0.1661058853	-0.6829531251	-0.24148
C	 4.860656531	 0.9766597588	 0.1465483091	-0.096522
C	 3.7270474599	 1.9728590793	-0.1097832211	-0.288267
H	-0.0590636803	 3.5682481133	 0.114088134	 0.0809
H	 0.3646798822	 1.4315428842	-0.0081112285	 0.248679
H	 1.4133565295	-0.6236076619	-0.189483697	 0.075913
H	 3.7711071329	-1.5352957776	 0.5295209659	 0.094512
H	 3.4769085854	-1.6339213617	-1.2096983443	 0.117075
H	 4.8617119449	 0.6781500723	 1.2081425089	 0.089795
H	 5.8301312287	 1.4293784508	-0.0771183303	 0.111997
H	 3.8746716115	 2.4936684711	-1.0625064858	 0.131806
H	 3.7271344511	 2.74982025	 0.657804709	 0.137594
