15
gdb 45315	3.62635	1.49425	1.25733	5.4346	65.43	-0.2756	-0.0115	0.2641	977.7115	0.115203	-457.831007	-457.824416	-457.823472	-457.862508	25.258	
O	 0.2130277849	 0.0001474592	-0.3796272579	-0.371217
C	 0.1134018468	 1.148791103	-0.0900484921	 0.491825
O	-0.9768532654	 1.7002901536	 0.5062629679	-0.255017
C	-0.8164287999	 3.1130859102	 0.6733124947	 0.07352
C	-0.9329765282	 3.5198973079	 2.1546946771	-0.285897
C	 0.5015571586	 3.7216893796	 2.5787461787	-0.057274
C	 1.3618597872	 3.633558464	 1.5660144448	-0.094971
C	 0.6634044679	 3.3434120537	 0.2651604866	 0.045071
O	 1.0628366025	 2.0907836031	-0.3160335419	-0.252839
H	-1.542688252	 3.6139974917	 0.0293951431	 0.103817
H	-1.5206940727	 4.4389915632	 2.2684456563	 0.121692
H	-1.4469750778	 2.7421971377	 2.7289760885	 0.14019
H	 0.7733730332	 3.9311721977	 3.6073427034	 0.114334
H	 2.436835929	 3.749522124	 1.6244716697	 0.118303
H	 0.8133558058	 4.1116400514	-0.4980273388	 0.108464
