18
gdb 28305	4.9503	1.22851	0.99645	1.6211	89.46	-0.1813	-0.0083	0.1729	1188.6818	0.149938	-364.866113	-364.858497	-364.857553	-364.898178	29.656	
C	-0.0174905778	 1.5004025385	-0.0096406463	-0.494404
C	 0.0035030469	 0.0008140526	 0.0179985655	 0.302186
C	-0.0285073078	-0.8324746242	-1.0883065829	-0.224514
N	 0.0074673931	-2.1243570464	-0.6400184525	-0.021048
C	 0.0036838075	-3.4662827179	-1.1972595728	-0.241785
C	 0.0650275243	-4.3152958996	 0.0588192837	-0.108279
C	 0.0973184816	-3.5277388991	 1.1491553638	-0.202539
C	 0.0619879354	-2.1380404954	 0.7375762506	 0.39202
C	 0.0609485984	-0.8302568345	 1.1790269144	-0.44193
H	 0.8831231392	 1.9296207577	 0.4456587628	 0.121909
H	-0.0767942647	 1.8747978807	-1.0360010936	 0.114981
H	-0.8758654721	 1.9061448494	 0.5389705041	 0.121829
H	-0.0736208444	-0.5930297454	-2.1393289414	 0.111019
H	-0.903115119	-3.65801527	-1.7859729998	 0.131439
H	 0.8659359239	-3.6338828811	-1.8560908989	 0.131427
H	 0.0787672171	-5.3952498852	 0.0300192538	 0.10628
H	 0.1424950702	-3.8584328521	 2.1775234416	 0.110562
H	 0.0965907683	-0.496390448	 2.2050397777	 0.090848
