21
gdb 41352	2.70182	1.84503	1.6549	1.5203	80.82	-0.2286	0.0765	0.3051	947.411	0.186542	-387.057025	-387.050301	-387.049357	-387.087592	29.339	
C	 0.0530873749	 1.5557666429	 0.2838325552	-0.3008
C	 1.5896590833	 1.3915294582	-0.0618326389	-0.328487
C	 1.1256013115	 0.2347995247	-0.9744701882	 0.454595
C	 0.5463175664	 0.7052512474	-2.3392966443	-0.26109
C	-0.8395290028	-0.0120048425	-2.3875066989	-0.213882
C	-0.7910644993	-0.8671093725	-1.1096915261	-0.115178
C	 0.4166871973	-1.8686447178	-1.2783993219	-0.087575
O	 1.6439085691	-1.0768415086	-1.1756157195	-0.346229
C	-0.0884839592	 0.0398770141	-0.0910982955	 0.032498
H	-0.1934907212	 1.8156364212	 1.3139840746	 0.104197
H	-0.454506379	 2.2495864128	-0.3879680961	 0.112968
H	 2.1139024046	 2.2328358093	-0.5209335136	 0.098147
H	 2.1476774283	 1.0408245695	 0.8095385415	 0.113175
H	 0.4504792766	 1.7909178788	-2.4175159928	 0.094341
H	 1.2203368959	 0.3748047657	-3.1324414344	 0.107735
H	-1.664964401	 0.7055059131	-2.3467115282	 0.096106
H	-0.9775819167	-0.618408213	-3.2875441962	 0.095561
H	-1.7192419638	-1.3775110094	-0.8446560921	 0.06185
H	 0.4275063462	-2.6346490417	-0.4937336718	 0.100902
H	 0.3900498823	-2.367071537	-2.2539853401	 0.100991
H	 0.1946393565	-0.5307392051	 0.7991387974	 0.080176
