16
gdb 2186	3.90717	2.43065	1.6309	2.5704	62.21	-0.2291	-0.0213	0.2078	778.9351	0.134884	-325.771459	-325.763875	-325.762931	-325.802997	27.143	
C	 0.0179919505	 1.5951636392	-0.0366751004	-0.397494
C	 0.080191331	 0.0784777125	 0.0340755587	-0.051037
N	 0.6855712999	-0.6286992487	-1.1250718993	-0.086724
C	-0.2061306391	-1.2540321235	-2.0781647086	-0.326202
C	 1.5073036544	-1.5118859841	-0.268211193	-0.285166
C	 1.1538992718	-0.591368628	 0.9082904814	 0.381072
O	 1.5606426336	-0.4299386006	 2.0190209634	-0.288838
H	 0.9952109946	 2.0072803574	-0.3014514017	 0.128255
H	-0.7082731694	 1.9226945848	-0.7874382803	 0.121127
H	-0.2852929986	 2.0037650393	 0.9321861535	 0.132439
H	-0.909065632	-0.335301394	 0.3070469652	 0.084116
H	-0.8134454749	-0.4905919861	-2.5747080574	 0.125856
H	 0.3741963271	-1.7701990941	-2.8495810958	 0.126379
H	-0.8909971131	-1.990235157	-1.6146304057	 0.093257
H	 1.091021834	-2.5235544504	-0.1205277919	 0.112147
H	 2.56184926	-1.6003599468	-0.5499508078	 0.130813
