18
gdb 16623	3.15565	2.1557	1.47458	1.9838	72.62	-0.2338	0.0071	0.2409	893.6475	0.153614	-347.80222	-347.79461	-347.793666	-347.833718	29.298	
C	-0.0910212908	 1.5447898072	-0.0169719115	-0.396829
C	 0.018715719	 0.0125248137	 0.0028430239	-0.107249
C	 0.803037259	-0.5433488922	-1.1861342872	 0.031417
O	 2.1552213792	-0.085824834	-1.2626385507	-0.263062
C	 1.8909406016	-1.384449565	-0.6678835851	 0.005322
C	 1.7885787912	-1.344857901	 0.8181609139	-0.200605
C	 0.7811302722	-0.5516040932	 1.2043667665	 0.316374
C	 0.4070472174	-0.1957384725	 2.6078206799	-0.491343
H	 0.9067701423	 1.9889154114	-0.0658450515	 0.138321
H	-0.6585077542	 1.8812534758	-0.8904171103	 0.115635
H	-0.599655213	 1.9226551173	 0.8749044308	 0.113104
H	-0.996537435	-0.4120258503	-0.0103958597	 0.079105
H	 0.3123708079	-0.7098531609	-2.1421581656	 0.089725
H	 2.3180161295	-2.225707808	-1.2049491185	 0.093495
H	 2.4687697554	-1.8658233696	 1.4817567005	 0.092548
H	 1.0113679876	-0.7464672064	 3.3334724861	 0.125493
H	 0.5452238877	 0.8755050976	 2.7997268269	 0.134637
H	-0.6505920771	-0.41344185	 2.8049418116	 0.123912
