14
gdb 27321	3.27109	1.40938	0.99104	5.897	67.87	-0.2424	-0.0403	0.202	1117.4617	0.100298	-473.871354	-473.863337	-473.862393	-473.904243	29.256	
C	-0.013328085	 1.4882534034	 0.0710507074	-0.470038
C	-0.0174579001	-0.0033686658	-0.0403964023	 0.402917
N	-0.1684269291	-0.6197142798	-1.1494527753	-0.346344
C	-0.1647891475	-2.0272196598	-1.2027671641	 0.353872
O	-0.3056748453	-2.6334489274	-2.238843254	-0.331047
C	 0.0239448518	-2.7024259717	 0.1020730848	 0.174146
O	 0.0296932578	-4.0521365475	 0.0669183352	-0.401298
C	 0.1736617984	-1.9559753277	 1.2099459454	-0.085971
O	 0.1572534758	-0.5904321732	 1.170241974	-0.198221
H	 0.9344432908	 1.8344649011	 0.4953645155	 0.151925
H	-0.1562944257	 1.922947773	-0.9165636507	 0.164859
H	-0.8113962717	 1.8210552074	 0.7422415797	 0.151897
H	 0.1572247893	-4.4053269043	 0.9554564259	 0.30198
H	 0.3178646804	-2.3314581278	 2.2157916386	 0.131324
