16
gdb 39254	3.0423	1.92642	1.38028	1.0448	68.37	-0.2359	0.0102	0.2461	906.4676	0.126789	-437.878049	-437.871568	-437.870623	-437.90887	25.949	
C	-0.1079190517	 1.427835783	-0.1353395957	-0.378594
C	 1.2985724066	 0.9180175987	 0.0830108315	 0.038431
O	 1.7638725075	 0.8784457115	 1.4094798504	-0.264664
C	 1.4081860281	-0.3865833399	 1.9798313398	-0.091494
C	 0.0816606375	-0.7800220267	 1.3038123329	 0.005333
O	 0.0078595908	-2.1642387457	 0.8926982272	-0.235939
C	-0.056905461	-2.1381063939	-0.4676078976	 0.086929
N	-0.0154876975	-1.0247027411	-1.0803987247	-0.319058
C	 0.1522389894	-0.0477958761	-0.0423905211	 0.324448
H	-0.6109518558	 1.9188166359	 0.6919163358	 0.120462
H	-0.3382274039	 1.8164411726	-1.1220661014	 0.130758
H	 2.0592220976	 1.0348108499	-0.6814984851	 0.111866
H	 2.1642675176	-1.1532875389	 1.7560563449	 0.108634
H	 1.3405612027	-0.2544523573	 3.0620704175	 0.117532
H	-0.7962264276	-0.5685259192	 1.9216138041	 0.100595
H	-0.1367443202	-3.1141044226	-0.9310458986	 0.144759
