15
gdb 2646	19.38515	0.84991	0.82666	0.857	72.41	-0.2467	0.0457	0.2925	1344.9928	0.122228	-271.330291	-271.321533	-271.320589	-271.365191	29.266	
C	-0.0093517458	 1.4890774059	 0.017105737	-0.496893
C	 0.0032053871	 0.0346308169	-0.0509401024	 0.097155
C	 0.0279686448	-1.1677884523	-0.1107567992	 0.033332
C	 0.0179868345	-2.6240258637	-0.1733740501	-0.344109
C	-1.3806419878	-3.2181711723	 0.1442586792	-0.338441
C	-1.3915011516	-4.6736554721	 0.0818796495	 0.294844
C	-1.3669695182	-5.8739621374	 0.0221948555	-0.441185
H	 0.6946518293	 1.8593981201	 0.7705694304	 0.14771
H	 0.2688092402	 1.9359420501	-0.9438333928	 0.147705
H	-1.0036414426	 1.866326164	 0.2809285597	 0.147334
H	 0.3278484911	-2.9648626871	-1.1682580639	 0.138102
H	 0.7463029049	-3.040851681	 0.5321684333	 0.138102
H	-1.6923029542	-2.8822831152	 1.1398927967	 0.140514
H	-2.111002133	-2.8062403327	-0.5615230244	 0.140514
H	-1.3619056487	-6.9345234632	-0.0264525383	 0.195316
