15
gdb 19115	4.62621	2.2365	2.18009	1.5023	62.52	-0.2238	0.0579	0.2817	681.5781	0.120687	-362.559417	-362.553708	-362.552764	-362.588926	23.351	
O	-0.0678690205	 1.5134425484	 0.0128785954	-0.436977
C	 0.0055501197	 0.1143806548	 0.0475240148	 0.139891
C	 0.2127654765	-0.6384636348	 1.3814529915	-0.075007
C	-0.9313069421	-0.2659567636	 2.3287350014	-0.081766
C	-2.0991292453	-0.2575900863	 1.3216574565	-0.078713
C	-1.6625161966	-1.5280113862	 1.9848202365	-0.024713
N	-0.6798475607	-1.7828873643	 0.8429195229	-0.197332
C	-1.3342322918	-0.6273077982	 0.0463481	-0.044266
H	 0.8256166685	 1.8683722125	-0.0219788346	 0.287195
H	 0.6665828671	-0.3002783455	-0.7263388549	 0.08359
H	 1.1952039509	-0.8923324408	 1.7804166429	 0.070534
H	-0.9374401153	 0.3227940677	 3.2356716877	 0.091603
H	-2.990315507	 0.3379276145	 1.463433825	 0.093736
H	-2.1668225517	-2.2906554871	 2.56432014	 0.095723
H	-1.8771863217	-0.865394071	-0.8675636952	 0.076502
