20
gdb 55855	3.1163	1.01229	0.93144	4.0594	76.67	-0.2351	0.0311	0.2662	1360.8728	0.167912	-440.305099	-440.294663	-440.293718	-440.340968	37.783	
C	-0.1777662948	 1.4102435204	-0.0350248841	-0.491051
C	-0.4577789379	-0.0207150999	-0.4727883626	 0.406123
O	-0.194423171	-0.4324250875	-1.5851180144	-0.36083
N	-1.0267630461	-0.8146052873	 0.4931823858	-0.326963
C	-1.1668428834	-2.2297556697	 0.3300485242	 0.00414
C	-2.3389846951	-2.9149274692	 1.0035662456	-0.394114
C	-2.2738668622	-2.804982861	-0.5065181783	 0.425644
C	-3.2349298071	-1.9194641911	-1.2600313007	-0.449468
O	-1.8656827944	-3.9541393246	-1.1995534501	-0.46008
H	 0.8502267787	 1.4806982059	 0.3366085053	 0.148043
H	-0.2654528852	 2.0649161351	-0.9028415357	 0.152249
H	-0.8516254378	 1.7551817368	 0.7544231927	 0.117283
H	-1.09758073	-0.4477726781	 1.4293739297	 0.242354
H	-0.2380808526	-2.7930831107	 0.2781099454	 0.113719
H	-2.1546997977	-3.8850314842	 1.4502246561	 0.117502
H	-3.0513697048	-2.2872880667	 1.5299187939	 0.108806
H	-3.4681513826	-1.0156534526	-0.6922476563	 0.114489
H	-2.7936479674	-1.6253471757	-2.215558143	 0.151003
H	-4.1765205478	-2.448306186	-1.4521299765	 0.100534
H	-2.6382961106	-4.5191450737	-1.311597307	 0.280619
