12
gdb 42242	2.96693	1.27021	1.01754	3.9307	60.44	-0.3087	-0.1133	0.1954	1097.7449	0.076047	-472.654734	-472.646781	-472.645837	-472.688573	27.199	
O	 1.4868933835	 2.3950526218	-1.1953942869	-0.253216
C	 0.4789030161	 1.9781062606	-0.689250605	 0.302813
C	 0.5206951409	 1.1502757234	 0.532766494	 0.23707
N	 0.568780765	 0.4738772079	 1.4691085207	-0.293418
C	-0.9018625362	 2.2186295567	-1.2640326161	 0.02333
C	-1.66355317	 0.970836506	-1.7746159384	-0.442448
C	-2.6594512726	 1.3420353241	-0.6737284871	 0.465386
O	-3.6980233797	 0.9655659547	-0.2552467825	-0.282885
O	-1.907972848	 2.4209416796	-0.2324839422	-0.24086
H	-0.8530563797	 3.0626103394	-1.9534792834	 0.142373
H	-2.0474568334	 1.0305913781	-2.7930563089	 0.170059
H	-1.1738328358	 0.0077402877	-1.6173426539	 0.171796
