19
gdb 32848	6.33478	0.77018	0.69958	2.114	81.86	-0.1652	0.0527	0.2179	1630.1908	0.159768	-419.224664	-419.215201	-419.214257	-419.259507	34.88	
C	 0.1153714913	 1.4300494038	 0.0625526681	-0.394525
C	-0.0780054398	-0.0511969011	-0.2424915354	-0.119923
N	-1.3930042078	-0.4978431877	 0.2211551527	-0.404125
C	-1.7204619643	-1.8379934346	 0.1348575508	 0.47118
C	-2.9073982067	-2.4873509863	-0.0558951553	-0.389692
C	-2.6089319751	-3.8909686891	 0.0628174576	 0.250828
N	-3.5613460498	-4.9200658785	 0.0137509615	-0.606877
C	-1.2732266066	-3.9854459812	 0.2981945895	-0.120155
O	-0.7189430786	-2.7132964593	 0.3514392942	-0.190873
H	 1.1051669652	 1.7616172907	-0.2637202109	 0.121207
H	-0.627454897	 2.0440993376	-0.4603515901	 0.112083
H	 0.0180453271	 1.6212204381	 1.1349919871	 0.130968
H	 0.0624777578	-0.2378835988	-1.319996749	 0.094114
H	 0.6751080998	-0.6454259113	 0.2807396986	 0.133861
H	-2.1472356664	 0.08850636	-0.1094535295	 0.235036
H	-3.8710069916	-2.0389895682	-0.2400806453	 0.084988
H	-4.2761060435	-4.7496266868	-0.6824483954	 0.240866
H	-3.147094605	-5.8277170185	-0.1554999287	 0.239752
H	-0.587460729	-4.8010663387	 0.4425474396	 0.111287
