16
gdb 60710	3.75889	0.62533	0.5763	1.8114	79.12	-0.2599	-0.0395	0.2204	1858.606	0.12119	-400.741679	-400.731521	-400.730577	-400.779958	33.742	
C	-0.1668078782	 1.338380815	 0.9021980957	-0.399135
C	-0.0816178538	 0.2114286625	-0.1560265044	-0.219056
C	 1.0597891184	-0.7383635526	 0.2274937826	 0.170649
O	 2.1167396903	-0.7800638693	-0.339152903	-0.236216
C	-1.3294108113	-0.5377181514	-0.2531041689	 0.10587
C	-2.3407010684	-1.1870343058	-0.3056249835	 0.052313
C	-3.5770699248	-1.961161163	-0.3873448798	-0.472471
C	-4.4688886001	-1.7422943149	 0.7595840165	 0.279666
N	-5.1763910926	-1.5775272656	 1.6568080808	-0.297181
H	 0.7679684904	 1.9047999688	 0.9215588682	 0.138225
H	-0.9878801058	 2.0173255276	 0.6617813253	 0.143652
H	-0.3498137189	 0.9237720631	 1.8976903488	 0.139188
H	 0.1798819897	 0.6426245733	-1.1284715541	 0.130203
H	 0.8337982437	-1.3808018104	 1.107477226	 0.092606
H	-4.1269236502	-1.7091186448	-1.3032507927	 0.185978
H	-3.3556350482	-3.0343861125	-0.4501339875	 0.185711
