19
gdb 110529	3.67299	1.14037	1.08185	0.8279	74.56	-0.2283	0.0667	0.295	1201.9071	0.158504	-422.952465	-422.944206	-422.943262	-422.985329	32.15	
C	 0.0802841902	 1.5129321822	 0.0954762638	-0.381245
C	 0.0267528321	-0.0137661822	-0.0262767516	-0.204838
C	-1.3924956324	-0.564672729	 0.0212127428	 0.039243
C	-1.6465187371	-2.074194958	 0.0085574915	-0.194545
C	-1.5822665022	-2.4924836489	 1.5133517052	-0.015164
O	-1.2692996673	-1.3285571652	 2.2714068407	-0.280533
C	-2.1489231964	-0.5852149182	 1.3857335746	-0.040479
C	-2.8413977174	-1.9524797138	 0.9217745252	 0.321149
O	-4.1217459761	-2.3893801582	 0.7339988245	-0.448987
H	 1.1106384583	 1.8788049433	 0.0529991556	 0.112573
H	-0.4786035206	 1.9980230443	-0.712969075	 0.110466
H	-0.3499452095	 1.8505082902	 1.0446674045	 0.117696
H	 0.4945826847	-0.3250088961	-0.969388503	 0.090426
H	 0.6067067249	-0.4744412146	 0.7797937587	 0.112694
H	-2.0336756831	-0.085651474	-0.7282270142	 0.077334
H	-1.4822871095	-2.7937020384	-0.7838488955	 0.093019
H	-1.268127974	-3.4647901748	 1.8682290668	 0.112057
H	-2.5833645459	 0.2990674694	 1.8479192453	 0.083766
H	-4.5304296088	-2.5225603477	 1.5976841401	 0.295369
