20
gdb 61443	4.22198	0.8333	0.75095	3.2774	76.15	-0.2373	-0.0316	0.2057	1543.9054	0.169479	-440.280322	-440.270604	-440.26966	-440.315722	35.24	
C	 0.0823856195	 1.4900649215	-0.0931390503	-0.473191
C	-0.1846198707	 0.0047230359	 0.0135506977	 0.38921
O	-0.4967984861	-0.5067459216	 1.0724404313	-0.316049
C	-0.0562886611	-0.8104788795	-1.2646311753	-0.320322
C	 0.1465779201	-2.318462151	-1.0221543855	 0.091538
O	-0.9257562073	-2.8616050991	-0.2775122553	-0.446283
C	 0.2377487049	-3.0689754759	-2.3381224228	 0.012701
C	-0.101162895	-4.507301724	-2.410948574	-0.247031
N	-0.9961151816	-3.496532209	-3.0139405454	-0.328542
H	 1.146748668	 1.6561422656	-0.2978377643	 0.149436
H	-0.4713364216	 1.9224859065	-0.9334448592	 0.144942
H	-0.1902479015	 1.9903171271	 0.8366424826	 0.148091
H	-0.9802810443	-0.6577582503	-1.8410006153	 0.145231
H	 0.7546171399	-0.4018641947	-1.8795423552	 0.115425
H	 1.0986580715	-2.4506998894	-0.4792524082	 0.075283
H	-0.9926089811	-2.311653294	 0.5177842325	 0.299385
H	 0.9999041624	-2.6789361518	-3.0111372155	 0.081629
H	 0.4129236141	-5.1482433141	-3.1216010617	 0.110622
H	-0.4263381296	-4.98877973	-1.4947415678	 0.128654
H	-1.7647447504	-3.3459885121	-2.3618660583	 0.239271
