20
gdb 90559	2.78267	1.19266	1.03649	3.3951	81.16	-0.2531	0.0208	0.274	1250.4207	0.170793	-403.114513	-403.105613	-403.104669	-403.148766	33.066	
C	-0.2932140093	 1.5582059345	 0.0579295946	-0.417531
C	 0.157503049	 0.106101489	-0.0482180918	 0.042855
C	 1.4853886547	-0.2578220833	-0.7955130228	-0.260104
C	 1.9419490334	-1.0739031797	 0.4214461986	-0.114032
C	 2.0265658215	-0.205551597	 1.6345870688	 0.113851
O	 2.4133545297	 1.1532900933	 1.5815144716	-0.189485
C	 3.7362688659	 1.3806812878	 1.4330111188	 0.132951
N	 4.1714775106	 2.5649737258	 1.4081553421	-0.444795
C	 0.6700226417	-0.6329134941	 1.2006097697	-0.129279
H	 0.4940216655	 2.1920585447	 0.4692662832	 0.152803
H	-0.5718653386	 1.9460077383	-0.928490585	 0.108655
H	-1.1729380341	 1.6442989923	 0.7058195357	 0.10983
H	-0.6504213896	-0.4920252796	-0.4822624563	 0.077933
H	 1.3193485095	-0.8671703754	-1.6854634224	 0.104342
H	 2.1318802928	 0.5834091596	-1.061732875	 0.111577
H	 2.4234095838	-2.0442769278	 0.3826431388	 0.089288
H	 2.3823539825	-0.7045876233	 2.5342886706	 0.10472
H	 4.3281463223	 0.4602644245	 1.342126499	 0.089278
H	 5.1824581846	 2.5588618554	 1.2887904521	 0.228524
H	 0.0421394141	-1.207828035	 1.8725927	 0.088617
