16
gdb 53763	3.77379	0.63888	0.55808	4.6175	78.71	-0.2679	-0.0612	0.2067	1909.5152	0.120773	-437.861779	-437.851523	-437.850579	-437.899858	33.534	
C	-0.1040899422	 1.1183300946	-0.1750231004	-0.479956
C	-0.2695549893	-0.3831480398	-0.2740048475	 0.256637
O	 0.6188340579	-1.1304816347	-0.6200208338	-0.268428
C	-1.5861574288	-0.8911624993	 0.0780963467	 0.020994
C	-2.67754869	-1.3172399124	 0.3693430585	 0.079811
C	-3.9932342167	-1.8519261663	 0.7038796326	-0.239215
O	-4.001781208	-3.2535228036	 0.9645716188	-0.171008
C	-3.7577133375	-4.0603218273	-0.0972028377	 0.13871
N	-3.7902126072	-5.3094163017	 0.0568017899	-0.430077
H	 0.909087789	 1.3931108501	-0.4713498009	 0.148442
H	-0.8340462768	 1.6219673603	-0.8179525973	 0.147708
H	-0.2982029595	 1.4501221111	 0.8507432754	 0.150798
H	-4.3660422871	-1.3904223069	 1.6227139513	 0.16446
H	-4.703783127	-1.6016604532	-0.0970401715	 0.146888
H	-3.5445397738	-3.5150909754	-1.0255360373	 0.098905
H	-3.5882483429	-5.7761990252	-0.8248699267	 0.235331
