19
gdb 38341	3.8162	1.43126	1.21558	1.231	75.05	-0.2505	0.0939	0.3444	1050.8804	0.161389	-422.970842	-422.96371	-422.962766	-423.002856	28.343	
C	-0.0806148665	 1.5416794929	 0.0721802436	-0.236567
C	 1.4565438086	 1.2842460691	 0.0904984026	-0.116244
C	 1.1623196886	 0.1257792498	 1.0943849176	-0.232283
C	 0.0722660222	-0.0059925897	-0.0136502127	-0.124216
C	 1.2084611054	 0.2607061049	-1.0483100911	 0.480997
C	 0.8755498536	 0.6922918864	-2.4969370788	-0.195968
O	 1.8314338464	 0.0209546083	-3.3042437079	-0.239936
C	 2.1859791855	-1.1203105163	-2.5668704814	 0.001149
O	 2.2077306275	-0.7336814964	-1.2154254543	-0.306911
H	-0.5033230953	 1.9202362574	 1.0050071539	 0.098714
H	-0.5031630264	 2.0644118798	-0.7894553436	 0.096615
H	 2.2550720327	 2.0256948558	 0.1417142639	 0.074797
H	 1.9011369334	-0.6716290032	 1.1571950238	 0.116895
H	 0.8018106083	 0.4322116232	 2.0796452417	 0.089053
H	-0.7254279757	-0.747731424	-0.0808962961	 0.071048
H	-0.1477719985	 0.3925608638	-2.7700609187	 0.101254
H	 0.9835394586	 1.7660017486	-2.66668879	 0.122665
H	 1.4530046022	-1.933850802	-2.7261893243	 0.07958
H	 3.1846349093	-1.4489688186	-2.8676894581	 0.119355
