15
gdb 14290	3.83728	1.77683	1.73446	3.454	60.32	-0.2434	0.0238	0.2672	804.6424	0.119963	-399.820804	-399.813788	-399.812844	-399.852109	26.702	
O	 0.0188538326	 1.3889258968	 0.0601643938	-0.427452
C	-0.0283195746	-0.0005839134	 0.0223728345	 0.116506
C	-1.3563209743	-0.7375764357	 0.0223857782	-0.111125
C	-2.6050743762	 0.0578824122	-0.315888356	-0.349199
C	-2.4198260518	 0.5328556466	-1.7681602326	 0.387057
O	-3.1741913058	 1.2065063086	-2.428420384	-0.361108
N	-1.1814027911	 0.0770428927	-2.1790652027	-0.316819
C	-0.4800416651	-0.7285021792	-1.2231336315	-0.08425
H	-0.1304651659	 1.7147218688	-0.8362622582	 0.293352
H	 0.7742283447	-0.4578807667	 0.5948446895	 0.106365
H	-1.4465431166	-1.6365127276	 0.6196417989	 0.099812
H	-3.5161712367	-0.542094402	-0.2476333819	 0.134324
H	-2.7375613063	 0.9388580696	 0.3193159384	 0.148936
H	-0.8453084086	 0.2660347715	-3.1097189905	 0.25722
H	 0.0349909456	-1.6041273422	-1.6015900259	 0.106382
