17
gdb 15411	4.97007	1.00677	0.93143	2.7698	66.74	-0.2538	-0.0309	0.2229	1242.788	0.140465	-400.961811	-400.953053	-400.952109	-400.996106	30.176	
C	 0.196877117	 0.7677414886	 0.4767651978	-0.232893
O	-0.3268809401	 0.3171220086	-0.7573092268	-0.231674
C	-1.5183169496	-0.4309522464	-0.641264086	-0.083837
C	-1.2625242217	-1.8480092772	-0.1691329837	-0.024781
N	-1.3701958171	-2.1386101964	 1.2554019368	-0.327075
C	-2.3427372509	-2.7669931987	 0.3369915385	-0.133092
C	-3.7580644175	-2.3258267768	 0.4911263057	 0.173025
O	-4.7011591267	-2.9663954168	 0.0997923729	-0.256432
H	 1.0653339285	 1.3884260395	 0.2435200195	 0.127577
H	-0.538280807	 1.3736195841	 1.0276545293	 0.109581
H	 0.5123464742	-0.0586945384	 1.1268960563	 0.115066
H	-2.2322113001	 0.0670734904	 0.0314846023	 0.096397
H	-1.9532961559	-0.4590868673	-1.6465105121	 0.118473
H	-0.4726097001	-2.3465017564	-0.7305132709	 0.106943
H	-0.6781738303	-2.82221518	 1.549864847	 0.245472
H	-2.2375237436	-3.818871858	 0.082714647	 0.110197
H	-3.8806911291	-1.3525794789	 1.0136523465	 0.087052
