24
gdb 104778	2.2115	1.43806	1.06487	1.5503	88.57	-0.2242	0.0806	0.3048	1270.4453	0.217263	-368.375554	-368.365875	-368.364931	-368.409725	37.497	
C	 0.8380999734	-0.1992147499	-1.2906783044	-0.392881
C	-0.0263540351	-0.0898060981	-0.0294089345	-0.23684
C	 0.6270246308	-0.6415040083	 1.2428073654	 0.364024
C	 1.9580389217	 0.030003326	 1.614152282	-0.239496
C	 1.8743740392	 1.5395826805	 1.8649749256	-0.394183
C	-0.3331177978	-0.7590685335	 2.497256263	-0.291409
C	-0.0961048027	-2.2702383435	 2.4972991395	-0.036431
N	-0.5790872375	-2.770318428	 1.1858475208	-0.343139
C	 0.7774157227	-2.1821149544	 1.2990241397	-0.096561
H	 1.1551585604	-1.2337870893	-1.4639624726	 0.115038
H	 0.2771831286	 0.1231891355	-2.1734846428	 0.110643
H	 1.7398717337	 0.4192193665	-1.2332338467	 0.112318
H	-0.3117733346	 0.957105301	 0.1340479136	 0.088538
H	-0.9570354222	-0.6438380361	-0.1842340713	 0.117742
H	 2.3526960463	-0.4641714821	 2.5119209132	 0.089347
H	 2.6924905625	-0.1653866162	 0.8223327818	 0.094084
H	 1.1382745481	 1.7779990431	 2.640295803	 0.116858
H	 2.8413610815	 1.9305675253	 2.1964550393	 0.111102
H	 1.590451641	 2.0874368536	 0.9613370188	 0.121134
H	 0.0682904441	-0.2551330574	 3.3795841021	 0.097151
H	-1.3720117531	-0.45509309	 2.3441954627	 0.100172
H	-0.0414245271	-2.9348117789	 3.3510298771	 0.087469
H	-0.4633343694	-3.783582067	 1.1909678499	 0.224889
H	 1.6555938054	-2.7602194088	 1.032631535	 0.080433
