22
gdb 120914	3.16692	1.01811	0.90181	1.7139	82.99	-0.2281	0.0701	0.2982	1412.7708	0.193366	-404.296687	-404.287125	-404.286181	-404.331552	35.359	
C	-0.1157026963	 1.5361539866	 0.0441612038	-0.386703
C	 0.1454146323	 0.0407915329	-0.0084314944	-0.040586
O	 0.4068126287	-0.4184731679	 1.3073473318	-0.254865
C	 0.6234764694	-1.8048626293	 1.3842644245	 0.139876
C	 2.0104980979	-2.4160494257	 1.0320069149	-0.211658
N	 2.1013588354	-3.0891226316	 2.376741957	-0.152795
C	 2.1095000588	-2.0245632245	 3.4008945261	 0.031092
C	 2.8506722718	-0.7100287927	 3.2914824947	-0.428785
C	 0.8080678388	-2.3652007793	 2.7835304522	-0.105306
H	 0.7560401118	 2.0661422864	 0.4384719081	 0.12697
H	-0.3314108386	 1.9209596827	-0.9570611304	 0.115892
H	-0.9695319716	 1.7527854382	 0.6922931955	 0.128457
H	-0.7273390614	-0.4912901083	-0.4228752123	 0.088929
H	 0.999797285	-0.1790828814	-0.668903995	 0.091326
H	-0.1770155236	-2.3368707359	 0.8500308504	 0.078183
H	 1.9782447694	-3.1708642852	 0.2440769226	 0.108281
H	 2.8186256066	-1.7101710727	 0.8207008708	 0.10602
H	 2.2325041077	-2.4943380273	 4.3762559022	 0.095023
H	 2.5538801846	-0.1269588778	 2.4209826567	 0.140801
H	 2.6357364719	-0.1041534773	 4.1777991251	 0.121232
H	 3.9329330165	-0.8811774641	 3.2623576714	 0.118335
H	 0.0245734649	-2.8715383758	 3.3390984943	 0.090279
