12
gdb 4241	3.9698	2.02811	1.34233	3.2855	59.74	-0.2554	-0.0481	0.2073	825.2523	0.086103	-414.720389	-414.714133	-414.713189	-414.751024	23.439	
N	-0.0616490642	 1.2936069416	 0.3578393217	-0.554525
C	-0.0049629153	 0.0981657309	-0.0405135881	 0.47649
N	-1.1275981089	-0.6936118879	-0.1638555649	-0.394468
C	-1.1957249548	-2.0217825959	-0.5904806723	 0.442133
O	-2.2540406389	-2.607492666	-0.6541059403	-0.36205
C	 0.1178885247	-2.5718644991	-0.9296582916	-0.284653
C	 1.2028396393	-1.8027545382	-0.8092185978	 0.092622
O	 1.1871557186	-0.5143634463	-0.3854708805	-0.226569
H	 0.8641156461	 1.7139520706	 0.3833805618	 0.236778
H	-2.0012935911	-0.251188355	 0.0868230329	 0.28159
H	 0.1816736268	-3.5940687041	-1.2720740565	 0.139084
H	 2.2140268177	-2.1190079607	-1.0352212443	 0.153567
