17
gdb 75533	2.21677	1.76549	1.04593	3.3665	71.67	-0.2491	0.0064	0.2555	1127.1206	0.136685	-455.198455	-455.189954	-455.18901	-455.232158	31.075	
C	 0.010314298	 1.5119980782	 0.0705090279	-0.433311
C	-0.1217880641	 0.0188831075	-0.0268153999	 0.383143
N	-1.2312728782	-0.5565101387	 0.1171166367	-0.278334
C	-1.4583113971	-1.9838574167	 0.1071882809	-0.140703
C	-0.2353347623	-2.8687389165	 0.3395941664	-0.191403
N	 0.737469363	-2.7401128403	-0.7309784012	-0.338709
C	 1.4879231955	-1.6392987337	-0.9856429786	 0.442415
O	 2.4221600064	-1.5976611765	-1.7397889288	-0.357754
O	 1.1508690011	-0.5052016386	-0.260103121	-0.269476
H	 0.7478608572	 1.7726632493	 0.8360717377	 0.143846
H	 0.3773157925	 1.9184111695	-0.877200468	 0.1471
H	-0.9541776309	 1.9528505463	 0.31768239	 0.142092
H	-2.2047357094	-2.1985434471	 0.8826639763	 0.115148
H	-1.9227946006	-2.2563995214	-0.8495289457	 0.122265
H	 0.2214681593	-2.6302637871	 1.3087578941	 0.128966
H	-0.5464346338	-3.9161408276	 0.3757106453	 0.119837
H	 1.0504659036	-3.5633844466	-1.2189835221	 0.264877
