16
gdb 28160	5.14534	1.27558	1.02872	1.2307	78.89	-0.1832	0.0347	0.2179	1124.5413	0.126336	-400.79359	-400.786118	-400.785174	-400.825276	28.924	
C	 0.1067589285	 1.4437457355	 0.0270236745	-0.489695
C	-0.0724645014	-0.0292970964	-0.0074779295	 0.357401
C	-1.158332917	-0.8379087614	-0.1591912339	-0.465488
C	-0.6784712363	-2.1979080168	-0.1034050241	 0.286425
C	 0.6760319467	-2.0549103677	 0.0803589029	 0.389256
N	 1.301374036	-3.2575062689	 0.1565969782	-0.411058
C	 0.3024107085	-4.2240178743	 0.0160222928	-0.070853
C	-0.91874455	-3.6089816503	-0.1447131062	-0.331729
O	 1.1002187358	-0.7812967482	 0.145876298	-0.253679
H	 0.7723765243	 1.7928502041	-0.7715903796	 0.133245
H	-0.8622348338	 1.9317828728	-0.1010821871	 0.134728
H	 0.5348672339	 1.7808441411	 0.9787987597	 0.133245
H	-2.1698687453	-0.4859588409	-0.2938677753	 0.106369
H	 2.2808849473	-3.4320813489	 0.2897386162	 0.267856
H	 0.5617481081	-5.2696560543	 0.0444049483	 0.118488
H	-1.8587107053	-4.1222295955	-0.275116355	 0.095489
