17
gdb 44415	3.59714	1.50137	1.47452	3.497	74.75	-0.2301	0.0206	0.2507	950.129	0.138133	-417.88849	-417.881822	-417.880878	-417.919269	27.739	
N	 0.0481316886	 1.210842509	-0.4121120025	-0.561988
C	 0.0468374324	 0.0158366738	-0.0546813918	 0.394661
O	 1.1306056495	-0.8528589543	 0.2617903863	-0.293477
C	 0.1602492648	-1.6651851328	 1.0363202574	 0.135485
C	-0.6896377932	-2.9938596338	 0.980003935	-0.118328
C	-1.9053653838	-1.9374216884	 1.1706594241	-0.321881
C	-0.9621950735	-1.1030605107	 0.2320925891	 0.131081
N	-0.9211236508	-1.9207161294	-1.0198953903	-0.304322
C	-0.7933606776	-3.3064555671	-0.5048948118	-0.169555
H	 0.9995385822	 1.5697004252	-0.5102789165	 0.236751
H	 0.2025807503	-1.3049745136	 2.0652833841	 0.104984
H	-0.5270835182	-3.8092469589	 1.6841903871	 0.086161
H	-2.8759943923	-2.247212236	 0.7755873886	 0.110108
H	-1.99662352	-1.5687110677	 2.1920622364	 0.124401
H	-1.7858937078	-1.7801598797	-1.5298617408	 0.227088
H	 0.105695218	-3.7935983018	-0.8975891717	 0.117981
H	-1.6571118287	-3.9386550535	-0.7395835226	 0.100849
