21
gdb 82916	2.44216	1.71984	1.35092	1.8922	80.75	-0.2517	0.0839	0.3356	1057.1744	0.18291	-387.082696	-387.074307	-387.073363	-387.115096	33.309	
C	 1.3607413305	 2.5628788143	-0.1227709606	-0.41999
C	 0.9974094472	 1.1115443226	-0.3596635896	-0.012725
C	 2.0042358706	-0.0196166084	-0.4097526332	-0.055072
C	 3.4040225919	 0.2109349537	 0.1664234309	-0.267959
C	 3.1717048147	 0.3916322114	 1.6605107359	-0.013584
O	 2.6435991571	-0.7750245985	 2.3012363189	-0.310806
C	 1.7374440877	 0.3049601018	 1.9879164328	 0.423811
C	 1.0768438448	 0.9696656133	 3.1649315174	-0.48734
C	 0.983087898	 0.040887034	 0.7125223191	-0.139495
H	 2.1592989414	 2.6840787529	 0.6126161302	 0.122857
H	 1.6947725435	 3.0347999733	-1.0536585446	 0.116493
H	 0.4935480073	 3.1272491245	 0.2380317095	 0.117739
H	 0.1903227093	 0.9948768972	-1.0798254367	 0.084916
H	 1.8977496921	-0.7526096264	-1.2010166052	 0.083086
H	 4.0526291108	-0.6522360088	-0.0158618387	 0.112879
H	 3.9019979701	 1.0884871249	-0.2632647682	 0.099082
H	 3.8705360591	 0.9724848261	 2.2598543356	 0.085311
H	 1.7881018415	 1.0995707886	 3.9845502986	 0.127073
H	 0.6754528527	 1.9488526758	 2.8844030795	 0.124017
H	 0.2435797105	 0.3606682899	 3.5328186648	 0.125849
H	 0.1452082991	-0.6484203922	 0.7539036338	 0.083858
