14
gdb 18947	6.80333	1.53746	1.47424	3.0353	66.03	-0.256	0.0191	0.2751	838.2485	0.10878	-341.49266	-341.486696	-341.485751	-341.522781	23.034	
N	-0.0973300576	-1.227756548	-0.1386165682	-0.327566
C	-0.0750617378	-0.0730090638	-0.0873562563	 0.263717
C	-0.0370671301	 1.3766359156	-0.012947915	-0.17261
C	 0.0407534649	 2.0369781891	 1.3783493835	-0.003221
C	 1.5566524855	 1.7408505941	 1.5774940637	-0.07405
C	 1.7842283257	 3.2254417919	 1.8408744724	-0.18524
N	 0.6999934139	 3.2996575212	 0.7670263688	-0.163064
C	 1.3376603085	 2.0700782327	 0.0711898539	-0.003223
H	-0.7459312736	 1.8392626038	-0.7045354936	 0.135317
H	-0.7410045079	 2.120306443	 2.1339300686	 0.104633
H	 2.0190466295	 0.8516542986	 2.013748252	 0.095992
H	 1.4681240319	 3.6350691371	 2.8051607263	 0.112341
H	 2.7352115035	 3.6674096519	 1.528048864	 0.112342
H	 2.0844569337	 2.1924176828	-0.71387001	 0.104632
