15
gdb 32369	4.71174	1.01535	0.83972	6.0785	72.38	-0.2296	-0.0544	0.1751	1284.7473	0.112772	-457.813004	-457.804963	-457.804019	-457.846272	29.23	
O	-0.0103986795	 1.4537668777	 0.0068686136	-0.415526
C	 0.0270015502	 0.0410248195	 0.0019342485	-0.164353
C	-1.3813414249	-0.4905986963	 0.0125107773	 0.137818
C	-2.4581570886	 0.3244047599	 0.0239608043	 0.036663
O	-3.7250830311	-0.1216015592	 0.0335095099	-0.222035
C	-4.0490919442	-1.4908791845	 0.0324262812	 0.424152
O	-5.2127325615	-1.7894891746	 0.0413213155	-0.344504
C	-2.9031669327	-2.3791483544	 0.020149008	-0.257831
C	-1.6368472488	-1.9001507767	 0.0107321704	-0.103094
H	 0.8923430347	 1.7829468319	 0.000121273	 0.297607
H	 0.5534572508	-0.3437397611	-0.8883483752	 0.10618
H	 0.5689251448	-0.3495458153	 0.8803222608	 0.106166
H	-2.3982140833	 1.4041478051	 0.026503951	 0.159546
H	-3.1272644422	-3.4381186096	 0.0190690362	 0.126954
H	-0.7967540138	-2.5905868325	 0.0016578855	 0.112257
