17
gdb 116666	2.78208	0.91317	0.73902	4.0063	75.44	-0.2274	-0.0392	0.1882	1515.2059	0.131983	-455.154748	-455.14439	-455.143446	-455.191371	34.503	
C	-0.4693435003	 1.3741430868	 0.0872528346	-0.312321
N	 0.3958415638	 0.2319762997	-0.1398727538	-0.288724
C	 1.0466466202	-0.3819473935	 0.8798645211	 0.126479
N	 0.8175302014	-0.0937402018	 2.104911433	-0.274632
C	 1.564853906	-0.7912247451	 3.1067766347	-0.144813
C	 3.0769542765	-0.4802071801	 3.1180386236	 0.15174
O	 3.6653825263	 0.0026251621	 2.1902011134	-0.238467
C	 1.0012800695	-0.4941498489	 4.4952248018	 0.133592
O	 1.4603528314	-0.9494554247	 5.5106641379	-0.255303
H	 0.0798799132	 2.2267628187	 0.5052265218	 0.136348
H	-0.9256021913	 1.6674324895	-0.860107975	 0.122319
H	-1.2574737341	 1.1076296745	 0.7961863544	 0.1484
H	 0.750233649	 0.0806799566	-1.0678721157	 0.253528
H	 1.7475624617	-1.1548945573	 0.5446501584	 0.099322
H	 1.5391637189	-1.8955472246	 3.0142450736	 0.124729
H	 3.5781068553	-0.7687575374	 4.0646460658	 0.114355
H	 0.1362335426	 0.2012115254	 4.4770558504	 0.103449
