17
gdb 34988	2.69426	1.69662	1.44803	3.391	75.12	-0.242	0.0051	0.2471	954.9823	0.138505	-380.839897	-380.832826	-380.831882	-380.871305	28.129	
N	-0.3506834952	-1.169779082	-0.3118399226	-0.351917
C	-0.1937880435	-0.0408331779	-0.1088181831	 0.307632
C	-0.039162396	 1.3810398118	 0.0390204469	-0.168217
C	 0.5350142719	 2.0902408291	 1.234482673	-0.046709
C	 1.3413002804	 1.4415412328	 2.3318987473	-0.049041
C	 1.6827934429	-0.0304131751	 2.3302951448	-0.320286
C	 2.6239708148	 0.9490295765	 1.6846784894	-0.032948
C	 2.4925900034	 1.2339638403	 0.1841894283	-0.20303
N	 1.2744457882	 2.06595587	-0.0362777681	-0.10974
H	-0.8075369875	 1.9119418849	-0.5209495642	 0.139649
H	 0.0572386208	 3.0322704612	 1.4927470261	 0.106315
H	 1.3525418807	 1.9704634551	 3.2772688388	 0.097545
H	 1.9887371937	-0.4396119966	 3.2877353268	 0.117003
H	 1.1241383746	-0.7241921372	 1.7188988196	 0.161574
H	 3.5878778566	 1.1294185126	 2.1470908199	 0.095624
H	 3.3427563977	 1.8268292434	-0.1628348599	 0.12318
H	 2.4516869863	 0.3267247112	-0.4280377327	 0.133366
