17
gdb 65998	2.80365	1.3182	1.17535	3.2728	69.1	-0.2391	0.0215	0.2606	1098.4168	0.136102	-455.12734	-455.11874	-455.117796	-455.160799	31.884	
N	-0.1211868236	 1.4823138971	 0.1313362274	-0.575951
C	-0.0126959742	 0.0524604515	 0.0441433685	 0.124885
C	 0.8951949312	-0.6221916717	-1.0668118052	-0.216897
N	 1.6523030752	-1.2315251867	 0.025992977	-0.325064
C	 0.9909957357	-0.6092333348	 1.0556166463	 0.390709
O	 1.145266705	-0.5985573816	 2.2453566682	-0.352477
C	-1.3873398565	-0.5802452528	 0.1284048316	 0.077796
C	-2.4715654011	 0.0134955386	 0.913320503	-0.179731
O	-2.4470974344	 0.1276004294	-0.5205091529	-0.256846
H	 0.7719631792	 1.9433434382	 0.0076058334	 0.235786
H	-0.777151563	 1.8230396087	-0.5643383263	 0.246811
H	 0.4004307672	-1.3375868105	-1.7314490097	 0.114505
H	 1.4628437805	 0.1030405187	-1.6596603086	 0.105498
H	 2.4748324496	-1.8157814421	 0.029635195	 0.253942
H	-1.3980661219	-1.6579354107	-0.0372090467	 0.096536
H	-3.2558734056	-0.6288870374	 1.30891999	 0.118303
H	-2.2829977433	 0.937351196	 1.4516775792	 0.142194
