20
gdb 55634	2.74034	1.07717	0.93444	2.988	82.28	-0.2434	0.0273	0.2707	1352.5537	0.166705	-403.156661	-403.145614	-403.14467	-403.194174	39.708	
C	-0.0016524351	 1.5397366671	-0.1348196638	-0.479445
C	 0.03359131	 0.0318407581	 0.0768964249	 0.422748
O	 0.0964218178	-0.4553355008	 1.1939811701	-0.386222
N	-0.0099164768	-0.7090685327	-1.0669962583	-0.348674
C	 0.0126089155	-2.1886580698	-1.122627581	 0.100094
C	 1.3243677905	-2.7322214876	-0.5107920356	-0.40448
C	-1.2138946089	-2.7754886856	-0.3865341079	-0.404467
C	-0.0508403833	-2.5496005923	-2.5444682993	 0.309656
C	-0.1028447508	-2.8421629493	-3.7088959326	-0.470576
H	 0.8974005817	 1.9749167274	 0.3094704663	 0.153016
H	-0.0626972037	 1.8416506935	-1.1834122361	 0.112269
H	-0.8611511311	 1.9469762423	 0.4040462479	 0.153038
H	-0.0610935065	-0.2324983473	-1.9513941855	 0.250424
H	 1.3836358349	-2.4332396131	 0.5362478435	 0.157772
H	 1.3429991418	-3.8228188947	-0.5812163776	 0.120448
H	 2.1878313285	-2.3344664232	-1.0497326263	 0.117618
H	-2.1388742098	-2.4081974131	-0.8379125191	 0.11763
H	-1.2022286466	-3.866203842	-0.456636845	 0.120441
H	-1.1807652281	-2.4769627612	 0.6617872238	 0.157776
H	-0.14850262	-3.1113770155	-4.7354207184	 0.200934
