19
gdb 72119	2.5057	2.18336	1.62643	1.4091	78.34	-0.2337	0.0157	0.2494	897.666	0.161974	-385.876997	-385.870285	-385.869341	-385.907465	29.165	
O	-0.0715521286	 1.3645986494	 0.0234443384	-0.512996
C	 0.0095854453	-0.0375109929	 0.0437631639	 0.399645
C	 0.6694085033	-0.7288794247	-1.217694087	-0.273065
C	-0.3172946295	-1.8971779085	-1.3390903546	-0.039213
C	-1.6518038899	-1.119176415	-1.4858161299	-0.244178
C	-1.3795207613	-0.7435727974	-0.01588219	-0.045788
C	-0.7557588155	-2.1551788844	 0.1918968557	-0.054891
C	 0.2703145919	-1.9775245026	 1.2712871986	-0.098531
C	 0.673873217	-0.7027524016	 1.2404098986	-0.163018
H	 0.8175274975	 1.718960399	-0.0795417496	 0.275472
H	 0.6195495095	-0.0736501867	-2.0931878672	 0.096521
H	 1.7080018179	-1.017851641	-1.0403063059	 0.087533
H	-0.0516671287	-2.727370223	-1.9930692768	 0.062116
H	-1.6999413701	-0.3236443462	-2.2344406781	 0.094815
H	-2.521281169	-1.775146599	-1.5786047166	 0.093764
H	-2.1355376468	-0.3466942118	 0.6627824868	 0.067925
H	-1.4575276524	-2.9840114623	 0.2844436725	 0.067572
H	 0.6353994424	-2.7629258421	 1.9218616628	 0.096487
H	 1.4459081771	-0.2336139792	 1.8399230083	 0.089831
