10
gdb 132407	2.02685	1.95772	0.99584	2.197	50.68	-0.3106	-0.0483	0.2624	1005.7183	0.055081	-554.073411	-554.067156	-554.066212	-554.104523	22.996	
O	 0.1023127185	 1.2865746976	 0.1032870053	-0.364872
C	 0.0729301572	-0.0363212822	 0.0528144225	 0.47775
N	 0.0722374192	-0.6121605087	-1.1562293752	-0.40384
C	 0.0416415342	-1.9292646866	-1.0985809652	 0.367754
F	 0.0400456942	-2.555364609	-2.247104967	-0.028785
N	 0.0135109698	-2.6946041692	-0.0214348949	-0.369713
C	 0.0180651718	-1.9798489087	 1.0943230527	 0.368077
F	-0.0083394803	-2.6671440967	 2.2062551949	-0.0272
N	 0.0464871136	-0.669297275	 1.2246588442	-0.341238
H	 0.1189474519	 1.6077309386	-0.8101279173	 0.322068
