20
gdb 73409	2.58952	2.25147	1.57638	1.7372	80.16	-0.2273	0.0783	0.3057	918.8471	0.173513	-365.966807	-365.959885	-365.958941	-365.997587	29.247	
C	-0.0098902689	 1.4703315247	 0.0008922978	-0.486103
C	 0.0376746507	-0.0458852821	-0.0133392021	 0.343779
C	 0.6026519489	-0.7019112699	-1.2842064041	-0.271539
C	 0.9356013533	-2.1582958729	-0.8444706783	-0.231165
C	 0.5957074024	-2.1722063589	 0.6446747418	 0.034813
C	 0.7120179124	-0.745963007	 1.222474266	-0.143187
C	-0.7035160125	-0.973224384	 1.8431471743	-0.060794
C	-1.2508485849	-0.7204228335	 0.4921969344	-0.084322
N	-0.893674276	-2.1233026864	 0.9109715822	-0.162271
H	 0.9863276525	 1.8970153531	-0.16129282	 0.113141
H	-0.6656322183	 1.8526842771	-0.7901614823	 0.115272
H	-0.3902867787	 1.8468918319	 0.956554042	 0.117561
H	-0.1176209599	-0.6625533882	-2.1079682217	 0.099425
H	 1.5017239317	-0.173639696	-1.622143053	 0.092621
H	 0.3456084744	-2.9101080571	-1.3774232112	 0.111267
H	 1.9914535425	-2.397188013	-1.0075346278	 0.097703
H	 1.034828789	-2.9840414495	 1.226806105	 0.070613
H	 1.6072309835	-0.3395403978	 1.6904741799	 0.062631
H	-1.1270095486	-0.9257842013	 2.8369953062	 0.094883
H	-2.2722416435	-0.5553396293	 0.169713691	 0.08567
