16
gdb 17585	2.77093	2.43981	1.87003	2.9372	63.84	-0.244	0.0659	0.3099	785.0667	0.129111	-383.676096	-383.668732	-383.667788	-383.707193	28.453	
C	-0.0111585276	 1.5148106391	 0.1000328208	-0.494635
C	-0.023503814	 0.0159112816	 0.0311955798	 0.246527
C	 1.1762388292	-0.8374539825	-0.3368081828	-0.401865
C	 0.5663887043	-0.9835697508	 1.0411960723	 0.343582
O	 1.2453231314	-0.6460132217	 2.1955702244	-0.457649
C	-0.7058572253	-1.8019116134	 0.9620368749	-0.058261
O	-1.8309755073	-0.9608995036	 1.2742150168	-0.244921
C	-1.2592446297	-0.8650430972	-0.0338129775	-0.029649
H	 0.9340734056	 1.8738545436	 0.5188019677	 0.127374
H	-0.134903087	 1.967961794	-0.8900266884	 0.11776
H	-0.8201638549	 1.8719979818	 0.7446559797	 0.136846
H	 1.0988488843	-1.6291421853	-1.0777157393	 0.107649
H	 2.1239264548	-0.3054401155	-0.3483293324	 0.115957
H	 1.9931058793	-1.2437720645	 2.2996964987	 0.288926
H	-0.8524541752	-2.8716638713	 1.0584306025	 0.101144
H	-1.9011075079	-1.0804982443	-0.8803869373	 0.101217
