23
gdb 86360	2.29698	1.1687	0.86723	2.7828	86.45	-0.2465	-0.0182	0.2283	1414.243	0.203845	-388.298358	-388.288208	-388.287264	-388.333739	37.409	
C	-0.9805449114	 0.7029940508	-1.4550524965	-0.422158
C	 0.1594716443	-0.217331292	-1.0424419279	 0.051292
C	 1.6206770377	 0.1823248201	-1.3793013415	-0.245489
C	 2.0731651265	-0.4705740108	-0.0465488785	 0.038239
C	 3.2127757695	 0.1541232059	 0.7441324825	-0.417529
C	 0.591785089	-0.3724906377	 0.4583504602	-0.045751
C	 0.299520707	 0.8262965425	 1.3724159402	-0.29088
C	-1.1351439307	 0.854382303	 1.8474863647	 0.167067
O	-1.8818778808	 1.7947037697	 1.7571388353	-0.246359
H	-0.8551545704	 1.7175052987	-1.0649285856	 0.127057
H	-1.03345114	 0.7727115713	-2.5473875334	 0.112553
H	-1.9492574744	 0.3336361191	-1.1015021916	 0.119149
H	-0.0317732286	-1.221120842	-1.439236631	 0.072616
H	 2.0543272061	-0.1951549639	-2.3091660764	 0.093399
H	 1.7525963666	 1.2703020028	-1.3552212594	 0.095743
H	 2.2996160381	-1.5280051527	-0.2251120739	 0.073951
H	 3.0435485084	 1.2193487148	 0.9327822806	 0.115928
H	 3.3527678695	-0.3402215179	 1.7124846807	 0.113058
H	 4.155051949	 0.065614641	 0.1921412851	 0.116213
H	 0.2188552127	-1.2784187782	 0.9504919898	 0.062827
H	 0.9222515908	 0.7327286851	 2.2750980805	 0.120409
H	 0.5336092553	 1.7885205649	 0.909083963	 0.119677
H	-1.4736359442	-0.0995813444	 2.319307203	 0.068991
