17
gdb 48523	2.87423	1.54327	1.41643	3.9566	81.16	-0.2232	-0.0452	0.178	988.3198	0.13601	-384.599557	-384.592368	-384.591424	-384.631304	28.228	
O	-0.5231411337	 0.1756961972	 0.0388878186	-0.267391
C	-0.2026352763	 1.3400017679	 0.0735274632	 0.027541
C	 1.1504554192	 1.8556790713	-0.1271475583	 0.248343
C	 1.9208531283	 2.8236139701	 0.7705085442	-0.117702
C	 2.9786732669	 1.7006137222	 1.0997984159	-0.260361
C	 2.5066266068	 1.1443183544	-0.2513053349	-0.001293
C	 3.1791882581	 1.5807905847	-1.3347361552	-0.091941
C	 2.4811637466	 2.8073265606	-1.9137849668	-0.26532
C	 1.586549306	 3.16990507	-0.7088573479	-0.104345
H	-0.9520007904	 2.1407758946	 0.2812740138	 0.060387
H	 1.4601934251	 3.4420171828	 1.5380212449	 0.106844
H	 4.0338650885	 1.9745644232	 1.1789607796	 0.109223
H	 2.6538582662	 1.1642328843	 1.9975828246	 0.120483
H	 4.2581397633	 1.4851178635	-1.4179812631	 0.103743
H	 3.2402531239	 3.5618729253	-2.150818982	 0.117573
H	 1.8663383851	 2.6753285558	-2.8146158383	 0.120741
H	 0.8670423364	 3.983329232	-0.7937278283	 0.093475
