18
gdb 112599	3.26989	0.92013	0.84475	4.4582	72.98	-0.2767	0.013	0.2898	1392.438	0.146094	-439.077381	-439.067915	-439.066971	-439.112046	34.501	
O	 0.0512383662	 1.374358816	-0.3230048565	-0.42006
C	 0.0837549864	-0.0037618764	 0.011027946	-0.095035
C	-1.3471532645	-0.4954411934	 0.0602301697	 0.049241
C	-2.1388317833	-0.559899955	-1.2733739038	-0.264998
C	-2.7176955171	-1.9338584252	-0.8389764622	 0.271564
O	-2.7207116815	-2.8826077919	-1.8785422159	-0.455431
C	-1.5850983208	-2.0185697411	 0.2405178283	-0.319012
C	-4.0511042796	-1.8289954794	-0.2257411623	 0.22578
N	-5.0981978464	-1.7840565119	 0.2626898265	-0.338155
H	 0.9555695775	 1.6971069141	-0.3754831211	 0.290466
H	 0.6452398336	-0.5855924182	-0.7394278521	 0.083314
H	 0.5682258614	-0.1724919026	 0.9870197808	 0.09071
H	-1.8979663578	 0.0810515756	 0.8087642252	 0.099916
H	-2.8466150927	 0.2361561948	-1.5018384019	 0.129806
H	-1.4804962254	-0.7223338528	-2.1310099453	 0.12416
H	-3.1062588863	-3.7041037151	-1.5523090261	 0.292389
H	-0.7643508509	-2.6128957229	-0.1718079281	 0.115604
H	-1.8514176688	-2.3917722846	 1.2305615591	 0.119741
