17
gdb 53217	3.33792	0.91122	0.81291	4.6018	78.03	-0.2616	0.0103	0.2718	1453.2896	0.133706	-421.834187	-421.824507	-421.823562	-421.870627	33.085	
C	 0.1866914611	 1.5803829281	-0.200150311	-0.499539
C	 0.1047449366	 0.1355977794	-0.0532623968	 0.057194
C	 0.0418673291	-1.0598701934	 0.0780641719	 0.130478
C	-0.025819032	-2.4963636441	 0.2156772258	-0.0855
O	-0.0483765002	-2.9401991611	 1.628431662	-0.245705
C	-1.2622824077	-3.5589240709	 1.4702953469	 0.457654
O	-1.8938757426	-4.1373438815	 2.2944935848	-0.323359
C	-1.3954399392	-3.2091177669	-0.0132498226	-0.19652
C	-2.6158974295	-2.3987538521	-0.4241637106	-0.41264
H	 1.1285426857	 1.8792263892	-0.6722953056	 0.156168
H	-0.6346358675	 1.9642087076	-0.8146848563	 0.155088
H	 0.1307696203	 2.073682112	 0.7761330096	 0.161435
H	 0.813825371	-2.9831590257	-0.2880035323	 0.120282
H	-1.2887235565	-4.1007903394	-0.6377748874	 0.117787
H	-2.709936047	-1.4906621279	 0.1762405966	 0.138751
H	-2.5522195893	-2.1065302638	-1.4761531765	 0.128145
H	-3.5198676725	-2.9986403195	-0.2872230785	 0.140282
