21
gdb 109305	2.20593	1.38611	1.03945	0.8416	80.56	-0.2351	0.026	0.2612	1244.9168	0.181196	-424.238075	-424.228222	-424.227278	-424.272634	36.954	
C	-0.0387426901	 1.5770665992	-0.0535256826	-0.422308
C	 0.0229749749	 0.0542089995	 0.0467077754	 0.290272
O	-1.3489569958	-0.3572527396	 0.2002776735	-0.469125
C	 0.7002578589	-0.6079114223	-1.1873444004	-0.260338
C	 1.5417839161	-1.7888671439	-0.6451482003	-0.272655
C	 1.6292128177	-1.4986969561	 0.8328138311	-0.169593
C	 0.8461222478	-0.4870408681	 1.2088192924	 0.266742
C	 0.6486002192	 0.0293868345	 2.5977544191	-0.186163
O	 1.3340403762	-0.8014914056	 3.5203143594	-0.419175
H	 0.9659766976	 2.0031882073	-0.1224447421	 0.113751
H	-0.603668206	 1.868695965	-0.9441453182	 0.12254
H	-0.545127134	 2.0043806322	 0.8167233322	 0.119187
H	-1.3442029869	-1.306411492	 0.3664440956	 0.274355
H	-0.0590200135	-0.9042184552	-1.9154489109	 0.103129
H	 1.3560625598	 0.1181243079	-1.6773298263	 0.101519
H	 1.0702944946	-2.7643893012	-0.8288331978	 0.103027
H	 2.5289720337	-1.8430750832	-1.1185417604	 0.10606
H	 2.2440780914	-2.0743932053	 1.5140909546	 0.109012
H	 1.0100851603	 1.0705537304	 2.6591939301	 0.096783
H	-0.433734414	 0.0641350382	 2.8074534713	 0.104678
H	 1.229556842	-0.4206138916	 4.3966543542	 0.288299
