21
gdb 40964	3.27964	1.29566	1.17173	2.1011	77.9	-0.2424	0.0729	0.3154	1141.7837	0.184612	-424.221756	-424.213745	-424.2128	-424.254494	31.419	
C	 0.0110464727	 1.3293810716	-0.362169393	-0.064276
C	 1.4593633369	 1.5306399124	 0.1212143207	-0.359942
C	 1.2983379432	 0.1349944299	 0.7677066245	 0.443562
C	 2.1619455787	-0.991286608	 0.1990097841	-0.252424
C	 1.7394549861	-2.3337097667	 0.8048850248	-0.079519
O	 1.8105703777	-2.3091633833	 2.2209045263	-0.250632
C	 0.9442245767	-1.3309834365	 2.7716992801	-0.07952
C	 1.3142609516	 0.0775630004	 2.2955018326	-0.252439
O	-0.0729370465	 0.0342051772	 0.2646272471	-0.329736
H	-0.7291882623	 2.0292864311	 0.044158878	 0.101928
H	-0.1250140938	 1.2676286508	-1.4487250609	 0.101919
H	 2.2147446731	 1.5889641442	-0.6650030818	 0.107364
H	 1.6109282689	 2.3497073467	 0.827118949	 0.107366
H	 2.0656492926	-1.0209826335	-0.8920602766	 0.094188
H	 3.2138345719	-0.7951362593	 0.4418330785	 0.101096
H	 0.7149058454	-2.572945447	 0.4781425706	 0.104734
H	 2.4009193486	-3.140227843	 0.4762309175	 0.103152
H	-0.0999042224	-1.5455456913	 2.4933938233	 0.104736
H	 1.0334539017	-1.4159252181	 3.8583653619	 0.103154
H	 2.3192847989	 0.3328183535	 2.6542227836	 0.101097
H	 0.6116119806	 0.8123960888	 2.7040260496	 0.094191
