23
gdb 60603	2.56344	1.05578	0.90342	2.6842	86.48	-0.2345	-0.0062	0.2283	1429.7783	0.202751	-388.307911	-388.297032	-388.296088	-388.344522	39.268	
C	 0.8772694229	 0.055390688	 0.1520619271	-0.395262
C	 0.2663072181	-1.0528326136	 1.0193741154	-0.108325
C	-1.249274849	-1.1243761898	 0.846796342	 0.026858
C	-2.1636169456	-1.673664157	 1.9192283735	-0.311616
C	-2.2132962667	-0.2060641868	 1.569249468	-0.012793
C	-1.7741484567	 0.8440560253	 2.5665426265	-0.407672
C	 0.838082192	-2.4244414956	 0.6281620887	 0.398245
C	 1.0569191975	-3.422790409	 1.7486917593	-0.48604
O	 1.0785191551	-2.6960590445	-0.5262723416	-0.31387
H	 1.9581795875	 0.1300219429	 0.3077224762	 0.111687
H	 0.7099376475	-0.1632213623	-0.9052560109	 0.138841
H	 0.4279734192	 1.0234730144	 0.388474847	 0.113381
H	 0.4955949087	-0.8717190486	 2.0757506125	 0.06927
H	-1.529127419	-1.3697460373	-0.1750144325	 0.097787
H	-2.9843966208	-2.3206446247	 1.629275491	 0.113113
H	-1.7178493653	-1.9302731099	 2.8765005821	 0.105843
H	-3.0681096901	 0.0982351532	 0.9700741487	 0.086542
H	-0.9251079782	 0.5090968706	 3.1695657593	 0.116142
H	-1.4822165727	 1.7755059069	 2.0690749819	 0.120407
H	-2.5895921974	 1.0810709436	 3.2588847807	 0.11841
H	 1.8355921072	-3.0524603759	 2.4264495685	 0.137576
H	 0.1452674481	-3.5356703706	 2.3445995417	 0.142879
H	 1.3593569877	-4.3876809994	 1.3396169949	 0.138599
