13
gdb 57246	2.10532	1.43773	1.23129	2.8151	64.05	-0.3106	-0.1184	0.1922	1063.1547	0.085615	-452.760794	-452.751302	-452.750358	-452.795768	32.435	
C	-0.4152774842	 1.6343078677	-0.0438048437	-0.408617
C	 0.0804435717	 0.1894952022	-0.0025216201	 0.106009
O	 0.9519727384	 0.0558569385	 1.1007451443	-0.425196
C	-1.0470583453	-0.7631258435	 0.0858234197	 0.24901
N	-1.9034799359	-1.5360646837	 0.1551971631	-0.304076
C	 0.8618924162	-0.1454684893	-1.3099673043	 0.296919
O	 0.7825793227	 0.4765233336	-2.330342913	-0.248406
C	 1.7674852141	-1.3039047154	-1.1718371527	 0.234083
N	 2.4537540982	-2.2256161697	-1.0427667461	-0.286606
H	 0.4498012758	 2.3003816407	-0.0623372606	 0.153653
H	-1.0172453622	 1.8054663873	-0.9365111173	 0.162374
H	-1.0086001184	 1.83806334	 0.8485413328	 0.154783
H	 1.1358370391	-0.8777215984	 1.2673110778	 0.316071
