21
gdb 32629	2.89571	1.25066	0.95604	3.7811	86.45	-0.2018	0.0389	0.2407	1311.8523	0.182468	-383.329046	-383.319087	-383.318143	-383.364409	35.619	
C	-0.0210522488	 1.5684289241	 0.0441608238	-0.375376
C	-0.0029282283	 0.039726308	-0.0458706721	-0.159443
N	 0.7148604333	-0.4622633894	-1.206265417	-0.033353
C	 0.1600037463	-0.7830761055	-2.4103770658	-0.017152
N	 1.0551541858	-1.1584283571	-3.2907036042	-0.331329
C	 2.2678484	-1.0786255239	-2.636222752	 0.20922
C	 3.5379323839	-1.4435991924	-3.3361898222	-0.489387
C	 2.0857061469	-0.6476736201	-1.3408291725	 0.19485
C	 3.0446471361	-0.4166499055	-0.2213828048	-0.512827
H	 0.9918274184	 1.9726527634	 0.1226623918	 0.132759
H	-0.4908813493	 2.001832598	-0.843421059	 0.133083
H	-0.5855986707	 1.8882492053	 0.9255860022	 0.121491
H	 0.4461054448	-0.3900504059	 0.8551522155	 0.121833
H	-1.0258233878	-0.3451841488	-0.1031916387	 0.123225
H	-0.907324528	-0.7272281687	-2.5730573991	 0.116636
H	 3.6997431539	-0.8074166128	-4.2134997378	 0.130356
H	 4.4074893818	-1.340085263	-2.681451354	 0.110492
H	 3.505657978	-2.4786114693	-3.6938457329	 0.130714
H	 3.0759562153	 0.6308500661	 0.1041428749	 0.127635
H	 2.808680834	-1.0234044773	 0.6622455513	 0.127682
H	 4.0540036043	-0.6872820952	-0.5382292077	 0.138892
