14
gdb 19858	4.16468	2.47446	2.16585	3.0017	59.58	-0.2384	0.0262	0.2647	664.1265	0.110295	-378.675325	-378.669908	-378.668964	-378.704636	21.896	
N	 0.023150561	 1.4122151777	-0.2067652181	-0.319821
C	 1.3195007509	 0.7535332002	 0.0465985112	-0.080092
C	 0.0444825043	-0.0386443361	 0.0495849692	-0.046418
C	 0.4290539805	-0.7256639054	-1.2852382061	-0.033275
N	-0.2830641851	-0.3014965896	-2.4853407218	-0.260714
C	 0.4481260187	 0.6001019856	-3.000566656	 0.136549
O	 1.6618591478	 0.912311092	-2.4594948364	-0.225891
C	 1.7533001218	 0.1049704273	-1.2767014246	 0.077773
H	-0.2566998906	 1.8721764749	 0.6580215216	 0.237497
H	 1.9563391068	 1.0610012675	 0.8666453529	 0.097278
H	-0.5031064697	-0.470538246	 0.877769215	 0.100313
H	 0.513363549	-1.8111122545	-1.2087321172	 0.085328
H	 0.2109972457	 1.1660881249	-3.8944518186	 0.13778
H	 2.7126479088	-0.4124090786	-1.257721081	 0.093693
