18
gdb 4916	6.46852	1.2029	1.03019	1.3999	76.89	-0.1658	0.0566	0.2224	1161.4503	0.154539	-344.016508	-344.007862	-344.006918	-344.049609	31.617	
C	 0.0518758125	 1.4392587644	-0.0273078857	-0.316858
N	-0.1273973668	 0.0013272264	 0.0315941824	-0.380411
C	 0.5642941537	-0.6862419428	 1.0381917859	 0.313806
C	 1.1761301314	-0.1527272209	 2.1537052958	-0.181041
N	 1.6707437218	-1.2119096543	 2.8973432992	-0.311665
C	 1.3995415432	-2.3998316402	 2.2737221687	 0.345126
C	 1.8226227548	-3.7125445023	 2.8464598428	-0.501624
C	 0.7101826677	-2.1054245444	 1.1172872498	-0.346042
H	 1.1083390788	 1.7541589862	-0.0838621161	 0.10017
H	-0.4785975125	 1.8364570013	-0.8964901092	 0.114489
H	-0.3830267104	 1.9009020651	 0.8669068725	 0.125464
H	-0.0097867357	-0.4371273708	-0.8713376437	 0.226505
H	 1.2958433133	 0.864558738	 2.484125939	 0.102601
H	 2.1652915503	-1.1188726698	 3.7662651939	 0.250059
H	 1.3817664425	-3.895334704	 3.8347574726	 0.123944
H	 1.5041708896	-4.5251753938	 2.1895934908	 0.135031
H	 2.9120856673	-3.7858739035	 2.9579945149	 0.122629
H	 0.3391189885	-2.8273000945	 0.4045119263	 0.077818
