16
gdb 50822	5.22257	0.79784	0.76898	2.7241	67.19	-0.2665	-0.0372	0.2293	1448.6427	0.123249	-475.019036	-475.010159	-475.009214	-475.05616	29.724	
N	-0.1426308696	 1.4292827941	-0.310665113	-0.507945
C	-0.0446307342	 0.1795860181	-0.1537542648	 0.423946
O	-1.1499373617	-0.6104045206	 0.0820264593	-0.225205
C	-2.4018332401	-0.0382072493	 0.151197744	 0.169549
O	-3.3575799968	-0.7181213903	 0.3546956075	-0.251328
C	 1.1989016061	-0.6716190886	-0.1844081467	-0.154224
C	 2.1401010363	-0.3716243834	-1.3808394943	-0.084724
O	 3.0368080234	 0.3837974955	-0.5415761634	-0.268814
C	 2.3771449448	-0.0983370212	 0.646489987	-0.084728
H	 0.7730977349	 1.847016851	-0.4740041426	 0.248784
H	-2.3808450875	 1.0472383968	 0.0022645211	 0.148245
H	 0.9459628642	-1.7162514935	-0.0140172672	 0.113352
H	 2.6204427113	-1.2664788982	-1.7956883496	 0.115086
H	 1.7231387297	 0.2326249371	-2.1926301687	 0.121459
H	 2.1367482138	 0.709477392	 1.3447904972	 0.12146
H	 2.9661164853	-0.8679523595	 1.1606854543	 0.115088
