18
gdb 40590	5.72721	1.04615	1.02462	1.4168	76.27	-0.2272	0.0637	0.2909	1197.4879	0.147119	-401.802267	-401.795141	-401.794196	-401.83411	28.627	
C	-0.1111578216	 1.537272548	-0.0309927668	-0.276482
C	 1.3145948402	 1.0603972355	 0.1059985554	-0.276481
C	 0.1951254105	 0.0633749283	-0.0315510359	 0.068956
N	-0.1663952083	-0.6780321365	 1.1495725683	-0.134891
C	 0.3448602333	-2.0806652048	 1.2184492567	-0.065476
C	-0.8765112981	-2.5359633239	 2.067272778	 0.074096
O	-1.184895925	-3.693600426	 1.2418115379	-0.325392
C	-0.7577381661	-2.6947078551	 0.2755056178	 0.07043
C	-1.4164536461	-1.4909551748	 1.0494433452	-0.065464
H	-0.5906215471	 1.9308572185	 0.8577189683	 0.119939
H	-0.4177696085	 1.9989481398	-0.9627026515	 0.110924
H	 1.9901291743	 1.1935684517	-0.7313531607	 0.110921
H	 1.7729863056	 1.1402853145	 1.0848219127	 0.119941
H	 0.1143200345	-0.4539870605	-0.991395303	 0.071517
H	 1.3981752323	-2.3427085904	 1.3210909605	 0.094507
H	-0.9999747805	-2.5953095349	 3.146915474	 0.106249
H	-0.7494641165	-2.9719951624	-0.7782650035	 0.102201
H	-2.4159123228	-1.065682527	 0.9551079666	 0.094505
