15
gdb 20565	4.63162	1.54214	1.20246	4.2513	62.25	-0.2556	-0.0019	0.2537	957.8116	0.120124	-395.97921	-395.97178	-395.970835	-396.011353	27.085	
C	 0.1138942137	 1.4332955744	 0.8680169329	-0.406452
C	-0.1328362035	 0.3084323067	-0.1351280612	 0.00293
O	 0.860810026	-0.715143019	-0.0610623367	-0.428996
C	-1.5050312626	-0.2933516144	-0.0021515903	 0.330027
C	-2.7314851735	 0.1432106948	 0.4475763834	-0.170762
N	-3.64270067	-0.8608159656	 0.3016578405	-0.188906
N	-3.0507232204	-1.9013261683	-0.211055855	-0.11435
N	-1.7631781614	-1.5622886421	-0.4019805196	-0.226325
H	 1.1229113045	 1.830763703	 0.7350666985	 0.133694
H	-0.6026186927	 2.2478697262	 0.72674485	 0.134144
H	 0.0088713537	 1.0679866079	 1.8955978196	 0.122983
H	-0.0188217247	 0.7094286537	-1.1503111773	 0.120956
H	 0.9014933937	-1.0163957096	 0.8545584687	 0.285725
H	-3.0105127039	 1.1003904949	 0.8568735323	 0.12186
H	-1.1010195888	-2.2280825026	-0.7693380459	 0.283474
