22
gdb 57445	2.66366	1.10858	0.99195	3.0558	85.3	-0.2328	-0.0275	0.2053	1324.6298	0.190396	-404.32988	-404.319513	-404.318569	-404.365392	38.662	
C	 0.2396156328	 0.5946797415	 0.9535888574	-0.426888
C	 0.1635685543	-0.9230488992	 0.6998650617	 0.267393
C	 1.1592089226	-1.6670573135	 1.5994567122	-0.398096
C	-1.2712948403	-1.3968784347	 1.0051597292	-0.381598
N	 0.4101326313	-1.3743295205	-0.6908095167	-0.082152
C	 0.3138878454	-0.5702112712	-1.8696036324	-0.260635
C	 1.6249359275	-1.2242607455	-1.4922137864	-0.09328
C	 2.7668115414	-0.3311818067	-1.1568439817	 0.144305
O	 3.917818021	-0.6254528415	-1.3729384878	-0.267191
H	 1.2532263557	 0.9900681645	 0.8541525401	 0.118503
H	-0.4187232029	 1.1510179561	 0.2792521625	 0.116711
H	-0.0914033769	 0.8070204187	 1.975061431	 0.121277
H	 0.9302621321	-1.4854392781	 2.6536926757	 0.115893
H	 1.109459222	-2.7435533546	 1.4143454968	 0.126706
H	 2.1872583735	-1.3375898152	 1.4180179774	 0.123506
H	-1.9906926334	-0.9043621297	 0.3427085288	 0.112878
H	-1.3561911693	-2.4755878495	 0.8538805485	 0.122795
H	-1.5457756622	-1.161709828	 2.0382260941	 0.109834
H	-0.2568177083	-0.9778222051	-2.7014753579	 0.126399
H	 0.2743476309	 0.516006517	-1.7823598077	 0.117555
H	 1.9430118856	-2.1317678992	-2.0015545822	 0.109248
H	 2.5005314972	 0.6518404247	-0.7141932325	 0.076836
