20
gdb 77752	1.92684	1.59526	1.41436	4.0908	79.34	-0.2371	-0.0047	0.2324	1109.8587	0.16893	-403.145543	-403.136018	-403.135074	-403.17932	35.413	
C	 0.9499194499	 1.8193305515	-0.7812368502	-0.427744
C	 0.7226355448	 0.3430102829	-0.5459609774	-0.028918
N	 1.8510967179	-0.648950394	-0.5154268916	-0.234518
C	 2.8915206709	-0.0226602685	 0.2807840194	 0.385304
O	 4.0124212849	 0.2486559947	-0.0234865313	-0.309873
C	 2.0632287326	 0.0312392009	 1.5743999288	-0.172903
C	 2.0034586515	 1.265542204	 2.4662266474	-0.426675
C	 0.8974435864	-0.4439618853	 0.6931214797	 0.297355
C	-0.0599856146	-1.5212402213	 1.1115824178	-0.487521
H	 1.8019488866	 2.2206495433	-0.2308458549	 0.142155
H	 1.1371095102	 1.9942741014	-1.8455920903	 0.138951
H	 0.0568186181	 2.3871864483	-0.499604371	 0.125947
H	-0.0683064341	-0.0550855671	-1.1805358992	 0.104569
H	 2.3974112483	-0.8262561497	 2.1744469134	 0.115473
H	 1.6133271255	 2.1414557137	 1.9439729536	 0.12606
H	 1.3647790241	 1.0836951402	 3.3366292209	 0.122901
H	 3.0057047915	 1.5089723393	 2.8322372772	 0.139473
H	-0.7855631081	-1.132549696	 1.8356993696	 0.127433
H	-0.6160150974	-1.9095207302	 0.2536677712	 0.133609
H	 0.468789851	-2.356916998	 1.5821305267	 0.128922
