17
gdb 40905	3.77679	1.288	1.26394	1.4551	67.22	-0.2223	0.0526	0.2749	1044.8562	0.136198	-458.900519	-458.892918	-458.891974	-458.9332	28.059	
C	 0.1873207337	 1.4071687418	-0.2785066371	-0.084364
C	 1.6220280508	 1.4810056883	 0.2930634961	-0.357798
C	 1.2931169074	 0.1013170541	 0.8401103019	 0.379043
O	-0.0213065118	 0.0875453858	 0.2896262747	-0.314112
C	 2.1118709316	-1.1650582229	 0.9192225812	-0.03848
O	 3.512872563	-1.0377061825	 0.9700620535	-0.257584
C	 3.8225717998	-0.165369503	 2.0453376632	 0.028559
O	 2.6941680696	-0.0769222503	 2.9008991162	-0.257584
C	 1.5782416088	-0.5388275126	 2.177737363	-0.038481
H	-0.5244046902	 2.1343335428	 0.1260181785	 0.11355
H	 0.1101543792	 1.3896722188	-1.3706149192	 0.113551
H	 2.4240859658	 1.5074280476	-0.4467378214	 0.125831
H	 1.7903566192	 2.2511520111	 1.0479413144	 0.125831
H	 1.7696566774	-2.0995401163	 0.4905302449	 0.121174
H	 4.6722115937	-0.5701188051	 2.607001046	 0.120956
H	 4.0738271616	 0.8331990064	 1.6549869491	 0.098735
H	 0.7912893005	-0.9513916938	 2.797931525	 0.121173
