17
gdb 34395	2.69536	1.58662	1.31017	1.4487	73.7	-0.2526	0.0292	0.2818	1017.8691	0.135684	-421.777194	-421.769405	-421.768461	-421.809614	30.123	
C	 0.0599630062	-1.2641003454	-0.4444086754	-0.394045
C	 0.0438782384	-0.0977069144	-0.1551618849	 0.232393
C	 0.0485339039	 1.3204731575	 0.1324316295	 0.20866
C	-0.4934070457	 2.2803593527	-0.9822902634	-0.281552
C	 0.8416971043	 3.0778105753	-0.9598531218	-0.257135
C	 1.4113254155	 2.1152656164	 0.1210775328	 0.044216
O	 1.5381500675	 2.6253500954	 1.4289999025	-0.247021
C	 0.2310495504	 2.6742552284	 1.9553461814	 0.003856
O	-0.4715811186	 1.5653179017	 1.4352829721	-0.286022
H	 0.0697355815	-2.2986545057	-0.684309696	 0.19551
H	-0.707373775	 1.7707724314	-1.9225507727	 0.119885
H	-1.3835476398	 2.8268785041	-0.6639128213	 0.116213
H	 1.3990908227	 3.0636898119	-1.8983985171	 0.112186
H	 0.7661472565	 4.1123777262	-0.6179066023	 0.113713
H	 2.3227125088	 1.5733129057	-0.1297405698	 0.103298
H	 0.2790749203	 2.5883769023	 3.0438240507	 0.128211
H	-0.2689379571	 3.6170350265	 1.6715215059	 0.087635
