16
gdb 128029	4.93815	0.92113	0.78007	2.3324	77.37	-0.2137	-0.0018	0.2118	1411.765	0.126591	-430.25165	-430.243353	-430.242409	-430.285087	29.809	
C	 0.0711014555	 1.6198979064	 0.2355223991	-0.312814
N	-0.0287221235	 0.1951664161	 0.00354786	-0.212682
C	 0.5489426403	-0.5727726528	 0.8312916752	 0.098657
N	 0.5412567812	-1.9438608857	 0.7410825837	-0.419356
C	-0.0772749968	-2.7053251218	-0.2355069861	 0.405806
N	 0.0072293555	-4.036886429	-0.1839833052	-0.311634
N	-0.6891948931	-4.412865803	-1.2563402535	-0.073472
N	-1.2131239689	-3.4494639119	-1.9920510675	-0.192714
C	-0.8388392093	-2.3334960075	-1.3634004979	-0.117405
H	 0.6555729475	 1.8838924387	 1.1328028532	 0.09312
H	 0.5359560749	 2.107637205	-0.6296936679	 0.125317
H	-0.9310656303	 2.0521616192	 0.3422052872	 0.125316
H	 1.1147276891	-0.2205291282	 1.70516592	 0.084567
H	 1.0300820956	-2.4657376014	 1.4496410394	 0.263706
H	-0.8068997157	-5.3844791716	-1.4894833123	 0.292305
H	-1.1033847219	-1.3510321624	-1.7066127073	 0.151282
