20
gdb 117044	4.45642	0.72332	0.63197	1.2427	78.49	-0.2376	-0.058	0.1796	1807.4299	0.168489	-440.345745	-440.334877	-440.333933	-440.383129	36.972	
C	 0.032941324	 1.5567520132	 0.04376931	-0.386227
C	-0.0510863551	 0.0302109742	-0.0265359736	-0.171848
C	 0.7414262932	-0.5448175207	-1.1990052328	-0.272951
C	 0.6818079812	-2.0472895959	-1.299695469	 0.28475
O	 0.0704571742	-2.7603191839	-0.5335755275	-0.317318
C	 1.4708245356	-2.6705964508	-2.4771269081	 0.324582
O	 2.0956904562	-1.9801298451	-3.2651874315	-0.374956
N	 1.3690321392	-4.0162996901	-2.4990986309	-0.301823
C	 2.0103723641	-4.8459053881	-3.4956261706	-0.334467
H	 1.0688524451	 1.89374648	 0.1615578562	 0.11607
H	-0.3617641336	 2.0198889124	-0.8674157618	 0.116082
H	-0.5416272631	 1.9448437524	 0.8901935022	 0.11524
H	 0.3169703856	-0.4112960083	 0.9063102505	 0.110238
H	-1.0966575644	-0.2866193937	-0.1103540378	 0.11018
H	 0.4042203793	-0.1387657427	-2.1626016758	 0.141629
H	 1.8022797907	-0.2619261373	-1.156819632	 0.141589
H	 0.8069405232	-4.4212968768	-1.7639769711	 0.265229
H	 1.2734716043	-5.419512697	-4.0685243941	 0.132617
H	 2.554642505	-4.1866269249	-4.1736442433	 0.168771
H	 2.7152797453	-5.5465731968	-3.0347289688	 0.13261
