21
gdb 101586	3.93356	0.7116	0.67137	4.2392	76.42	-0.2616	-0.0237	0.2379	1744.9108	0.179086	-461.381441	-461.370538	-461.369594	-461.418511	38.563	
C	 0.5263490443	 1.5812264283	 0.099181917	-0.382717
C	 0.0370458492	 0.1514633668	-0.1456463643	-0.199721
C	 0.7587908166	-0.537899579	-1.307898309	 0.148017
O	 2.1690137811	-0.5880602378	-1.1052709589	-0.431013
C	 0.1954330443	-1.9498595593	-1.5863263535	-0.321309
C	 0.820687579	-2.5377342347	-2.8357517779	 0.37348
O	 0.4913312216	-2.1826196202	-3.948856784	-0.333901
C	 1.924321606	-3.566414983	-2.6765029488	-0.135977
O	 2.4073896711	-4.0015021813	-3.9101478472	-0.42076
H	 1.6042131106	 1.5991031844	 0.2799664876	 0.127358
H	 0.3268374162	 2.2170322826	-0.76990442	 0.122476
H	 0.0240059713	 2.0261886976	 0.9628747542	 0.114978
H	 0.174065467	-0.4556834377	 0.7620369959	 0.088251
H	-1.0402819816	 0.1510594552	-0.3503444377	 0.105434
H	 0.6317957068	 0.0578667147	-2.2194146811	 0.114447
H	 2.3293077626	-0.970153016	-0.2344354553	 0.279974
H	 0.3761613124	-2.5936950587	-0.7165280113	 0.097221
H	-0.8849571449	-1.8826895081	-1.7483882119	 0.130778
H	 2.7115965026	-3.0900664033	-2.0670078298	 0.121054
H	 1.532348949	-4.4083634442	-2.0807982877	 0.109085
H	 1.9176209448	-3.4795761964	-4.5664694766	 0.292844
