21
gdb 31769	2.90498	1.24845	0.94924	1.4504	87.79	-0.1772	0.0521	0.2293	1304.5305	0.183205	-383.30902	-383.299097	-383.298152	-383.343825	36.42	
C	-0.2266833398	 1.5698645138	-0.0668523259	-0.366695
C	 0.0779585936	 0.059930321	-0.0155050379	-0.299168
C	 0.8008824396	-0.4642972819	-1.2177551484	 0.277824
C	 2.1496820277	-0.6585933301	-1.4188979267	-0.228317
C	 2.3324654637	-1.1625529708	-2.7348264085	-0.215393
C	 1.0856367787	-1.258364781	-3.3106466658	 0.236453
N	 0.6613626334	-1.6482758973	-4.6029008049	-0.609499
N	 0.1527563264	-0.8185564881	-2.3886040088	-0.057451
C	-1.2760629575	-0.7923647374	-2.6206128295	-0.353612
H	 0.6993228348	 2.1431747099	-0.1702726067	 0.123224
H	-0.8663914716	 1.824772189	-0.9179304756	 0.115984
H	-0.735362728	 1.8985823845	 0.8456939127	 0.106951
H	 0.6985235579	-0.1443276345	 0.8636590949	 0.110103
H	-0.8569203585	-0.4939322023	 0.1413365836	 0.097182
H	 2.9204013249	-0.4662184787	-0.6869333386	 0.082916
H	 3.2640367541	-1.4363863739	-3.2071137923	 0.077774
H	 0.4478663267	-2.6406031509	-4.6585369061	 0.240451
H	 1.3864158777	-1.45772728	-5.2839472056	 0.245002
H	-1.4432848677	-0.9072910633	-3.6924237244	 0.157117
H	-1.7914993227	-1.6039766944	-2.0922638393	 0.124944
H	-1.7055853937	 0.1581489863	-2.2938992461	 0.134211
