20
gdb 7165	5.91166	0.83716	0.78515	4.2237	77.02	-0.2351	0.0234	0.2585	1481.435	0.175765	-345.186575	-345.17682	-345.175876	-345.221663	34.041	
C	 0.1074140202	 1.5657951228	 0.0612804624	-0.381691
C	-0.0390688094	 0.0430313795	-0.0155707624	-0.190429
C	 0.6237497467	-0.5306624673	-1.2704570849	-0.108923
N	 0.6648740078	-1.9940401399	-1.2943637175	-0.066992
C	-0.6541702532	-2.6065718887	-1.4133459069	-0.340512
C	 1.5669498789	-2.4647559427	-2.3365336968	-0.277127
C	 1.850907477	-3.9008147618	-2.2183440427	 0.273773
N	 2.0759605932	-5.0312349757	-2.1430534123	-0.309243
H	 1.1611099218	 1.8633749094	 0.0981242472	 0.11752
H	-0.3448511901	 2.0545013878	-0.8087668192	 0.117746
H	-0.3815379174	 1.96276955	 0.9554542274	 0.119245
H	 0.4155916761	-0.4286092828	 0.8629370605	 0.112809
H	-1.1035184772	-0.2148871032	 0.0036425649	 0.103811
H	 0.1217950011	-0.1244406228	-2.17225817	 0.07848
H	 1.6606009621	-0.1739409063	-1.3052748944	 0.099397
H	-1.1833854377	-2.3041069893	-2.3371161343	 0.095206
H	-0.5548048782	-3.695036058	-1.4160764616	 0.148089
H	-1.2736161885	-2.3325177291	-0.5578294626	 0.132033
H	 1.1882320696	-2.2804778323	-3.3618463631	 0.125468
H	 2.5185995472	-1.9286764495	-2.2526123439	 0.15134
