21
gdb 96501	2.20172	1.59284	1.20421	2.7719	78.08	-0.2632	-0.0023	0.2609	1144.1633	0.183773	-424.270065	-424.261277	-424.260333	-424.303521	33.553	
C	 0.0115824889	 1.5914560143	 0.0764507435	-0.4097
C	-0.0211294774	 0.0558430077	 0.0362745747	-0.061607
C	 0.659730871	-0.4984232766	-1.2453629474	-0.197781
C	 1.2372497502	-1.9317986084	-1.1442883165	-0.222487
C	 2.6466884969	-2.0199925088	-0.5168357556	-0.184969
C	 2.7103939338	-1.6501427724	 0.9666119373	-0.094807
O	 2.0251528082	-0.4012712454	 1.1726211633	-0.254083
C	 0.6597675164	-0.55481576	 1.2426435703	 0.409379
O	 0.1214734071	-1.1667870264	 2.1225600172	-0.32586
H	 1.0430534701	 1.9514149791	 0.132049427	 0.135654
H	-0.4454110821	 2.0019902253	-0.829593141	 0.118886
H	-0.5376499811	 1.9801581756	 0.9389991247	 0.127644
H	-1.0605874079	-0.2836555961	 0.0786995632	 0.096013
H	-0.0838899456	-0.4675678603	-2.049350015	 0.10191
H	 1.4654867365	 0.1819718517	-1.5437966696	 0.104285
H	 0.5395039617	-2.582336297	-0.5995751171	 0.112712
H	 1.3021825986	-2.3452603859	-2.1564535668	 0.100289
H	 3.0391523815	-3.0377212793	-0.6349341025	 0.099816
H	 3.3178133158	-1.3565906518	-1.0762871896	 0.105748
H	 2.2517197484	-2.4167601946	 1.6009215922	 0.124936
H	 3.740394389	-1.4981536107	 1.2973074077	 0.114024
