18
gdb 76843	2.44903	1.65075	1.34582	1.6773	72.16	-0.2624	0.0154	0.2778	1018.6469	0.147944	-439.068063	-439.059908	-439.058964	-439.100784	31.374	
C	-0.5192557688	 1.4167950591	-0.0052257468	-0.398935
C	-0.0632118138	-0.0331937704	 0.0074579715	-0.045806
C	 1.1866826237	-0.4337385023	-0.8709046193	 0.118129
O	 1.8704140434	 0.5606813649	-1.5770423064	-0.426448
C	 1.8915037389	-0.9664550907	 0.39824302	 0.054194
O	 2.6642425683	 0.1084577519	 1.0278480618	-0.290592
C	 1.6158414086	 0.391457682	 1.9070900315	 0.442603
N	 1.5676185277	 1.1951724828	 2.8651587161	-0.54216
C	 0.6666080099	-0.596917242	 1.2803124601	-0.184519
H	 0.2974511089	 2.1061571074	 0.2243665035	 0.121767
H	-0.9081483005	 1.6816125	-0.9929550038	 0.125753
H	-1.3095857728	 1.5842212561	 0.7329396563	 0.125435
H	-0.9053945332	-0.6869001608	-0.2377180773	 0.084195
H	 0.943794653	-1.2292770588	-1.5812367473	 0.093361
H	 2.4049272144	 1.0425170182	-0.932344787	 0.293133
H	 2.4422958665	-1.9061786014	 0.4032719342	 0.095864
H	 2.4481876788	 1.700480098	 2.9788882013	 0.230951
H	 0.1259833969	-1.2727280741	 1.9382443115	 0.103075
