19
gdb 93060	2.42803	1.59564	1.18149	2.2825	79.5	-0.2282	-0.0389	0.1893	1090.3948	0.160841	-423.033154	-423.024796	-423.023851	-423.066237	32.692	
O	 0.0896869534	 1.321687174	-0.3148834052	-0.449036
C	 0.0100389093	-0.0771550591	-0.0480675642	 0.070765
C	 0.8389881512	-0.4813879494	 1.1757531401	-0.283293
C	 0.5400816041	 0.2624279824	 2.449635045	-0.095914
C	-0.6504640801	 0.7100794999	 2.8778462467	-0.077365
C	-1.967539726	 0.5817936203	 2.2567399272	-0.089736
C	-2.317655128	 0.0680644385	 1.0682879156	-0.089999
C	-1.4673169076	-0.5087244994	-0.0382477046	 0.058169
O	-2.0405555914	-0.1575241723	-1.2940004057	-0.437433
H	-0.1363275133	 1.7797059319	 0.5045583082	 0.292004
H	 0.4507461902	-0.5525377481	-0.9305337902	 0.099101
H	 0.7304764795	-1.5633026814	 1.3420921048	 0.12161
H	 1.8936407337	-0.3249931938	 0.9240980455	 0.117857
H	 1.3990919002	 0.4481501905	 3.0897312707	 0.096976
H	-0.6607544707	 1.2257953894	 3.8355641242	 0.091012
H	-2.780699012	 0.9589905361	 2.8734184407	 0.091451
H	-3.3730702489	 0.0711368973	 0.8061029109	 0.104805
H	-1.5141386637	-1.6054629052	 0.0082015547	 0.094483
H	-1.7474518898	 0.7502617385	-1.4549967744	 0.284542
