22
gdb 99169	4.31102	0.73006	0.72457	3.2552	84.32	-0.2412	0.0369	0.2781	1700.3358	0.194021	-404.376483	-404.36628	-404.365336	-404.413948	36.06	
C	 0.4124632046	 1.4197281249	 0.2014301623	-0.332932
N	 0.3892045747	-0.0119578882	-0.0234419272	-0.31379
C	 0.503318161	-0.5651122844	-1.2667780005	 0.42484
O	 0.6567041074	 0.1013206398	-2.2764135227	-0.380207
C	 0.4048481403	-2.0899032255	-1.3076459618	-0.35733
C	 1.3764666051	-2.6963876017	-2.3108994245	 0.085982
C	 2.8910089256	-2.7666104643	-1.9636943516	-0.220011
C	 2.9394436429	-4.1570479597	-2.6528054748	-0.207736
C	 1.3951198089	-4.2371061143	-2.5095419775	-0.244919
H	 1.2312786401	 1.7057062908	 0.8711314238	 0.123412
H	 0.5622960359	 1.8951588542	-0.7685921696	 0.171792
H	-0.5310748266	 1.7748190734	 0.6316978743	 0.123366
H	 0.2671436104	-0.6244051617	 0.7651468127	 0.242984
H	 0.5590256355	-2.5239618806	-0.3113741818	 0.083345
H	-0.624884862	-2.3355492337	-1.6021886735	 0.125923
H	 1.2426683964	-2.1859655117	-3.2682594655	 0.099556
H	 3.5369865041	-1.9750988136	-2.3496593199	 0.104777
H	 3.0500831911	-2.8501407609	-0.882407383	 0.087808
H	 3.2437223854	-4.0776719764	-3.700272256	 0.104228
H	 3.5347732481	-4.9405467201	-2.1782025546	 0.092869
H	 1.1059101647	-4.7626534356	-1.592566605	 0.091149
H	 0.8193281464	-4.6515084005	-3.3412444837	 0.094891
