15
gdb 53030	4.24764	1.00393	0.89649	1.2422	76.55	-0.243	0.0075	0.2504	1305.4907	0.109739	-420.479321	-420.471307	-420.470363	-420.513998	29.072	
C	 0.0258752737	 1.4271185986	 0.0589289416	-0.518063
C	 0.0483101612	-0.0255953082	 0.0324730816	 0.357289
C	 0.0712623701	-1.2303436437	 0.015117495	-0.410064
C	 0.075552026	-2.6511869982	-0.0294608257	 0.428356
O	 0.9393367373	-3.437595144	 0.8578222175	-0.349113
C	 0.2593295639	-4.4712348094	 0.1021798641	 0.012512
C	-1.0979014831	-3.709852521	 0.0151195649	-0.004707
O	-1.2060235026	-3.8259286095	-1.4268483571	-0.321634
C	 0.2226945034	-3.6667292331	-1.2322808453	-0.004707
H	 0.723150277	 1.8125766789	 0.810626932	 0.160549
H	 0.31471507	 1.8459404273	-0.91107009	 0.157139
H	-0.9727839694	 1.8039379429	 0.3047431732	 0.157138
H	 0.485762365	-5.5157587963	 0.3057894045	 0.108439
H	-1.9987009957	-3.7467893528	 0.6265431424	 0.113433
H	 0.8848284833	-3.6526292815	-2.0971638586	 0.113433
