16
gdb 17193	5.27979	1.59452	1.44102	3.1886	65.34	-0.2451	0.0741	0.3192	894.3989	0.129339	-383.63556	-383.628678	-383.627734	-383.666282	26.896	
C	-0.0449249434	 1.5874035028	 0.0151688907	-0.433033
C	-0.0231766164	 0.0707150612	 0.0095280473	 0.035786
C	 1.205201458	-0.6534869704	-0.62199532	-0.08877
O	 2.0312702589	-0.1981216923	 0.5266140903	-0.311994
C	 0.7603761096	-0.6664125052	 1.1386409971	-0.088771
C	 0.8395622646	-1.8884294752	 0.2131181979	 0.572672
C	 0.1572687401	-3.1605302857	 0.0313962023	-0.309676
O	 1.5619205819	-3.0624547612	 0.38700195	-0.280856
H	 0.9407493179	 1.9828486326	 0.2671116165	 0.142421
H	-0.3376657494	 1.9740679043	-0.9666687054	 0.117335
H	-0.7702292093	 1.9614971096	 0.7453737362	 0.117335
H	-0.9962571378	-0.3666599449	-0.2395325325	 0.074425
H	 1.6346946546	-0.5715413189	-1.6199641521	 0.10227
H	 0.6640474168	-0.5997411922	 2.2218755344	 0.10227
H	-0.4883446588	-3.5540608874	 0.8146110612	 0.124291
H	-0.0375118573	-3.5409630971	-0.9698226339	 0.124292
