14
gdb 4859	5.71981	1.33964	1.15699	2.4017	59.91	-0.1971	0.053	0.2502	997.5556	0.107776	-415.882058	-415.874432	-415.873488	-415.914574	27.267	
C	 0.1126165434	 1.1360459625	-0.4232863291	-0.248258
O	-0.4450292134	 0.2794446678	 0.5774206383	-0.27213
C	 0.4551450671	-0.4594487824	 1.2614842269	 0.341061
C	 1.0279984476	-1.6762584004	 1.0480490953	-0.197509
N	 1.869515404	-2.0067260798	 2.1064416689	-0.358078
C	 1.7862087863	-0.9989439815	 2.9272979637	 0.448441
O	 2.4149762678	-0.8641068687	 4.1089559393	-0.426419
N	 0.9614312562	-0.0136138526	 2.4879170066	-0.364533
H	 0.67388949	 0.5564089813	-1.1645179867	 0.129154
H	-0.7281876383	 1.637418807	-0.9065727384	 0.133968
H	 0.7781716013	 1.8867846824	 0.0213362105	 0.116531
H	 0.8884785294	-2.337011289	 0.2076014406	 0.111737
H	 2.9305605463	-1.6719821158	 4.2284362429	 0.312534
H	 0.6932485424	 0.8209419889	 2.9811762911	 0.2735
