21
gdb 83322	2.13532	1.69995	1.42228	2.9683	81.98	-0.2257	0.0001	0.2258	1070.2903	0.182957	-387.109262	-387.100514	-387.09957	-387.142083	33.979	
C	-0.1613519116	 1.6035531653	-0.0235880028	-0.439487
C	 0.0272004269	 0.0928416344	 0.0043817318	-0.009159
C	 1.1717998259	-0.5989953373	-0.8220948805	-0.158573
C	 2.4512776954	 0.0591902058	-0.2577602888	-0.231687
C	 2.1045395895	 0.0480829102	 1.2720248222	-0.260111
C	 0.7057040016	-0.6178599317	 1.2444136813	 0.197529
C	-0.0078345348	-0.8773211575	 2.54653142	-0.501913
C	 0.9737918271	-1.7255781288	 0.2057195222	 0.406966
O	 0.8834192102	-2.9183590358	 0.185890695	-0.333985
H	 0.7603048737	 2.1540478246	 0.1793517089	 0.122123
H	-0.5304575997	 1.9252833636	-1.0030451722	 0.123257
H	-0.9014338868	 1.9102692639	 0.72333735	 0.122971
H	-0.9283625667	-0.3975022843	-0.2115306664	 0.086351
H	 1.1008519731	-0.7671345526	-1.8949240455	 0.077631
H	 3.3455510644	-0.5246818319	-0.4900726097	 0.111847
H	 2.6044429708	 1.0682626698	-0.6482084598	 0.105695
H	 2.8153822402	-0.5389927381	 1.8605439752	 0.108367
H	 2.0690366443	 1.0515948368	 1.7053934896	 0.102765
H	-0.2190728294	 0.0562616405	 3.0802343459	 0.116393
H	-0.9565693336	-1.3978194251	 2.3820861614	 0.124552
H	 0.6026527294	-1.5040521517	 3.2054725422	 0.128466
