12
gdb 8626	2.23879	2.1186	1.46962	1.5266	54.83	-0.2673	-0.082	0.1853	859.8544	0.079057	-455.623782	-455.615655	-455.61471	-455.656584	27.816	
O	-0.0083651004	 1.517680861	-0.0783950271	-0.446712
C	-0.0355415217	 0.1375009755	-0.1354090627	 0.112488
C	 0.6983988953	-0.4227941079	-1.3967313647	 0.12185
O	 1.4394872457	 0.2458576165	-2.0514222807	-0.210591
C	 0.6477662703	-0.4795264423	 1.0913989835	 0.118599
O	 1.2144171766	 0.2281589985	 1.8826107631	-0.249184
C	-1.4704797653	-0.39703602	-0.1813693438	 0.095897
O	-1.7200363413	-1.5679463486	-0.3012046288	-0.245293
H	 0.5771029373	 1.7517217533	 0.6602384401	 0.30638
H	 0.4493359849	-1.4787048367	-1.6227788009	 0.126845
H	 0.5766997103	-1.5762724285	 1.1922801825	 0.138364
H	-2.2357367715	 0.4005834691	-0.1015906503	 0.131358
