17
gdb 101996	3.18691	0.67602	0.57944	2.837	82.91	-0.2664	-0.0708	0.1956	1849.8617	0.131749	-421.814041	-421.8035	-421.802556	-421.852091	34.51	
C	 0.0623242379	 1.3881593596	 0.3386350535	-0.395888
C	 0.3025593261	-0.111339987	 0.1544053568	-0.190254
C	 0.6554173077	-0.4916277273	-1.3176195678	-0.257244
C	 2.0355899249	 0.080788874	-1.662034285	 0.172187
O	 2.2066133338	 1.0665249159	-2.3243612981	-0.23617
C	 0.6589849975	-1.9339878199	-1.5000241784	 0.067086
C	 0.6824194862	-3.1338483378	-1.643176398	 0.07131
C	 0.7287076406	-4.5646237472	-1.8114553224	 0.016717
O	-0.2323012526	-5.2542207645	-2.0626696299	-0.22388
H	 0.9344635537	 1.9807873847	 0.0480807798	 0.13969
H	-0.7846328351	 1.7281810334	-0.2658726367	 0.129423
H	-0.1624432938	 1.6087858755	 1.3859023025	 0.124719
H	 1.1116573961	-0.458459569	 0.808059386	 0.118277
H	-0.5885895311	-0.6790496328	 0.4382588033	 0.130317
H	-0.0723527961	-0.0242751743	-1.9909849931	 0.13607
H	 2.8811756307	-0.4846645507	-1.2111099887	 0.095182
H	 1.7402429634	-5.0022635225	-1.6897950939	 0.10246
