15
gdb 131586	4.57482	0.97144	0.80532	2.4443	69.18	-0.2441	-0.034	0.2101	1324.3845	0.113594	-453.969765	-453.961531	-453.960587	-454.003389	29.214	
O	 0.0081523	 1.4262128702	 0.009804602	-0.396355
C	-0.0115240943	 0.0239550367	 0.0027233628	-0.184768
C	-1.458526992	-0.4666602632	 0.0116948024	 0.281803
O	-2.3977380214	 0.2984306434	 0.0228805726	-0.30894
C	-1.641274959	-1.9285712614	 0.0058527254	 0.113124
C	-2.8713180354	-2.57115884	 0.0120537161	-0.089399
N	-2.6110492367	-3.8896971161	 0.0035250325	-0.178
N	-1.2890524664	-4.1802932857	-0.0080296567	-0.220881
C	-0.700138684	-2.992794826	-0.0065492149	-0.097894
H	 0.9268342053	 1.7100244515	 0.0028621801	 0.291984
H	 0.4805658484	-0.4041771672	-0.8881575103	 0.109432
H	 0.4946482758	-0.4132850145	 0.8812184821	 0.109413
H	-3.8705334439	-2.1673803446	 0.0216731007	 0.167922
H	-3.2727018547	-4.6483473294	 0.004789188	 0.283632
H	 0.3787506082	-2.9393969638	-0.0144757629	 0.118926
