23
gdb 122383	4.24546	0.71229	0.69759	1.1161	86.73	-0.2481	0.0874	0.3356	1748.1229	0.205673	-388.247847	-388.238265	-388.23732	-388.283332	35.228	
C	-0.2228099125	 1.2777336945	 0.1395595067	-0.226976
O	 0.1438953609	-0.067022572	-0.0421735112	-0.230469
C	 0.5774051869	-0.6843146711	 1.1508318039	-0.040471
C	 0.9484490547	-2.1312615172	 0.8456417705	-0.241915
C	 1.4631626996	-2.8557335155	 2.0727772004	 0.005953
C	 0.6077461353	-3.4636603825	 3.1567516376	-0.063349
C	-0.6534384376	-4.1264280347	 2.5839807521	-0.22898
C	 0.2478735281	-5.0296165368	 1.6809413296	-0.226869
C	 1.4926832607	-4.3486560295	 2.2658638386	-0.086264
H	 0.6193502519	 1.8870501122	 0.5062066561	 0.100449
H	-0.5416358627	 1.6665608341	-0.8309167351	 0.124304
H	-1.0547435079	 1.3837672113	 0.854735194	 0.100654
H	 1.4462794365	-0.143795726	 1.5675346809	 0.078564
H	-0.2174746647	-0.6465020576	 1.9158546556	 0.087204
H	 0.0706769693	-2.6294361738	 0.4237694942	 0.108876
H	 1.7147031608	-2.1367527711	 0.0608544848	 0.103778
H	 2.354775312	-2.3897083158	 2.4922302638	 0.080624
H	 0.7448030183	-3.1975088337	 4.198598424	 0.078261
H	-1.1967106773	-4.7089682385	 3.3310387752	 0.101602
H	-1.367308293	-3.4669581633	 2.0794679941	 0.096726
H	 0.1784384472	-6.0828981343	 1.9613386537	 0.101195
H	 0.110284175	-4.9545258783	 0.5974630186	 0.097664
H	 2.4138968487	-4.8610232504	 2.5188326219	 0.07944
