20
gdb 33186	5.41908	0.67025	0.63765	2.23	81.95	-0.2344	0.0075	0.2419	1800.4914	0.171738	-403.193586	-403.184507	-403.183563	-403.228701	32.555	
C	-0.1766340874	 1.5765733506	-0.0296885916	-0.383118
C	-0.017451832	 0.0539711997	-0.0182480479	-0.164479
C	 0.7225268823	-0.4790676336	-1.2487853151	-0.157673
C	 0.8791979669	-2.0119828523	-1.2348878151	-0.328435
C	 1.5878295376	-2.5521912521	-2.4248064433	 0.34568
C	 2.7603057614	-3.1994872529	-2.6383345411	-0.198204
N	 2.9176175747	-3.457755656	-3.9968672926	-0.256304
C	 1.8521578372	-2.96196592	-4.5304164223	 0.069408
O	 0.9908739389	-2.393654386	-3.6537390046	-0.180522
H	 0.7978781419	 2.0764347677	-0.0569695428	 0.116083
H	-0.7421397686	 1.9085883465	-0.907314862	 0.116328
H	-0.706610937	 1.9287798691	 0.860631463	 0.11362
H	 0.5201177101	-0.2524098036	 0.8890832197	 0.095873
H	-1.0069265362	-0.4185413962	 0.0420794565	 0.096984
H	 0.1874483049	-0.1836919856	-2.1594436793	 0.110168
H	 1.7167017635	-0.0188101348	-1.3128494019	 0.101776
H	 1.4377940826	-2.3219964176	-0.3447858977	 0.117351
H	-0.113860146	-2.4748479695	-1.1571006712	 0.118343
H	 3.5012688405	-3.5009152707	-1.9148699849	 0.120497
H	 1.5660858448	-2.9451282026	-5.5703764859	 0.146626
