16
gdb 22897	2.3192	1.59254	1.06741	4.1723	69.69	-0.2563	-0.0588	0.1975	1116.9634	0.123942	-475.018995	-475.010576	-475.009632	-475.052445	30.754	
C	 0.1220378793	 1.5882408346	 0.0067387243	-0.398432
C	-0.0131551421	 0.0576096873	 0.0662120486	-0.094021
C	 0.6823131464	-0.6479893682	-1.118002153	-0.097699
O	 1.9816738244	-1.058743435	-0.6546860293	-0.230146
C	 2.0430847492	-1.0959256897	 0.7077572938	 0.409422
O	 3.000137701	-1.5004382575	 1.2986989524	-0.324101
C	 0.7495910675	-0.5296095105	 1.2264870316	 0.220794
N	 0.2950579549	-0.4957033525	 2.418227118	-0.206669
O	 1.1262415744	-1.0650098491	 3.3585711824	-0.345409
H	 1.1728381581	 1.8868052502	-0.069966969	 0.133126
H	-0.4106424574	 1.9887614632	-0.8615928662	 0.12147
H	-0.294813749	 2.0405185969	 0.9102792042	 0.137917
H	-1.0707586841	-0.212567506	 0.1159875663	 0.10753
H	 0.1360666949	-1.5393087743	-1.4447876765	 0.123197
H	 0.8321142656	 0.0091045876	-1.9775744605	 0.126252
H	 0.619860237	-0.9599467171	 4.172794143	 0.316767
