19
gdb 108499	2.79943	1.50039	1.21296	2.6415	75.71	-0.2458	0.0103	0.2561	1079.6548	0.160428	-423.015861	-423.007859	-423.006915	-423.048575	30.913	
O	-0.0306009281	 1.4091821249	 0.325312011	-0.424512
C	 0.0440828393	 0.0197243377	 0.0664313502	-0.125902
C	-1.3519264395	-0.5470917751	-0.1329011429	 0.402397
O	-2.1423388365	-0.2416116301	 1.0660166145	-0.345248
C	-2.5162592165	-1.6307726517	 1.2086111945	-0.081583
C	-1.6466762426	-2.0657444952	 0.0095019519	-0.150556
C	-2.372016935	-2.5084193882	-1.2753617585	-0.28759
C	-2.6043213886	-1.2048736966	-2.0097085877	-0.070732
C	-2.0535620315	-0.1531239492	-1.4032510044	-0.117866
H	-0.653595597	 1.5026847482	 1.0573065239	 0.295634
H	 0.649318155	-0.1093682742	-0.8372839706	 0.108591
H	 0.539651765	-0.5180636305	 0.8907562187	 0.082926
H	-2.221258783	-2.0289285151	 2.1861997547	 0.104365
H	-3.595805992	-1.7780744609	 1.0745357508	 0.10168
H	-0.7997292763	-2.6993370071	 0.2763279504	 0.078951
H	-1.7659240178	-3.2013120109	-1.8733293657	 0.110617
H	-3.3113119595	-3.0350957484	-1.0611352232	 0.109051
H	-3.1605141683	-1.1628518371	-2.9406597373	 0.099432
H	-2.083486627	 0.8738888094	-1.7460774104	 0.110344
