15
gdb 24014	4.27238	1.24761	1.04248	3.4726	78.02	-0.221	0.0111	0.2321	1108.5616	0.113849	-379.632891	-379.625521	-379.624577	-379.665307	27.811	
C	-0.6749892936	-1.3295712125	-0.0895111401	-0.424122
C	-0.329519711	-0.1804885949	-0.0318335766	 0.336312
C	 0.064939913	 1.2125877666	 0.0400914562	-0.17645
C	-0.1370449026	 1.9769740359	 1.4269196931	-0.386141
C	 1.3625321827	 2.1918584164	 1.3561207396	 0.375201
N	 2.4551982886	 2.7836777609	 1.7673595262	-0.366796
C	 3.3781646294	 2.4031196218	 0.800137619	-0.086305
C	 2.8238829115	 1.6142791898	-0.1904816561	-0.1766
N	 1.5169661805	 1.4788613249	 0.2216876511	 0.031805
H	-0.9749334044	-2.347550396	-0.1391185366	 0.21105
H	-0.3456304343	 1.7750086703	-0.8044436161	 0.134409
H	-0.7609298866	 2.8701337916	 1.351564901	 0.138831
H	-0.5011268448	 1.3371873588	 2.2325786515	 0.143135
H	 4.4099138076	 2.7136458302	 0.8751335688	 0.109804
H	 3.2404913639	 1.1412813263	-1.062573431	 0.135867
