19
gdb 88377	2.12791	1.43133	1.16275	4.6144	75.56	-0.2684	0.0246	0.2929	1170.2167	0.157531	-419.192833	-419.182943	-419.181998	-419.227965	36.278	
C	-1.1474052125	 1.4233997902	 0.4254709911	-0.421463
C	-0.4447086811	 0.093475306	 0.2943911221	-0.007028
N	 0.9187858912	 0.0593117531	-0.2672901846	-0.353508
C	 0.6978461116	-0.4329771794	 1.0971722906	-0.045708
C	 1.5321903333	 0.2174028403	 2.2001238145	 0.19617
C	 1.145823248	-0.3354212273	 3.5769448599	-0.407325
O	 2.8939207455	-0.1362219929	 1.9845265315	-0.43963
C	 1.4402761721	 1.6975803907	 2.2355630074	 0.282292
N	 1.4240327335	 2.8504197075	 2.3117676139	-0.354449
H	-0.4583090052	 2.2352558593	 0.6503077448	 0.169156
H	-1.6556789613	 1.657809954	-0.5158729774	 0.121309
H	-1.9085219636	 1.3805714828	 1.2120039313	 0.119941
H	-1.1084341748	-0.7032637709	-0.0444672386	 0.090159
H	 1.0345148882	-0.7087861497	-0.9215721515	 0.238219
H	 0.7059783946	-1.5133257816	 1.2401759348	 0.095272
H	 1.2670880897	-1.4216127191	 3.5709170591	 0.132135
H	 1.7973797207	 0.0852657327	 4.3450496783	 0.148728
H	 0.1080401465	-0.0890764607	 3.8132740134	 0.137021
H	 3.1059333336	 0.1334048951	 1.0807884194	 0.29871
