19
gdb 68238	2.84888	1.86061	1.65835	2.7996	73.49	-0.2328	0.0568	0.2897	915.3297	0.161156	-422.958017	-422.951261	-422.950317	-422.988661	28.847	
C	-0.0135308377	 1.5298989704	 0.0748814259	-0.502562
C	 0.0299191899	 0.0329056751	-0.0724129184	 0.40416
C	 0.965636236	-0.6853707945	-1.0832030409	-0.279519
C	 0.8854965204	-1.7481820813	 0.0364135017	 0.053064
O	 0.7803974904	-0.6495422126	 0.9827422579	-0.28521
C	-0.5443306068	-2.4495480706	 0.0388357817	 0.060674
C	-1.4322566001	-1.8598856286	-1.0832194059	-0.243125
C	-1.4023569367	-0.6853286548	-0.0744145632	 0.017535
O	-1.3467560389	-1.6840074617	 0.9825529874	-0.254289
H	 0.9966639971	 1.9461635887	 0.1136621519	 0.126662
H	-0.5461621318	 1.9821676906	-0.768962782	 0.120293
H	-0.5386625885	 1.8065830367	 0.9954055287	 0.136395
H	 0.6536394436	-0.8972873318	-2.104543315	 0.096275
H	 1.9483036054	-0.2092823943	-1.0856113178	 0.105717
H	 1.7186666221	-2.4202080106	 0.2475113379	 0.078904
H	-0.5251228871	-3.5188748709	 0.2555206232	 0.079513
H	-1.0713778348	-1.7518095044	-2.1044513721	 0.098615
H	-2.4139408652	-2.3361675704	-1.0810013164	 0.111035
H	-2.241900207	 0.005390975	 0.0294068853	 0.075865
