19
gdb 86256	3.00047	1.1915	0.94401	3.0524	81.4	-0.2464	-0.0645	0.1819	1274.5446	0.157525	-423.055537	-423.046355	-423.045411	-423.08975	33.53	
C	 0.1802693604	 1.5354506195	-0.1286417549	-0.392662
C	 0.0087166086	 0.0270222187	 0.0611497884	 0.098537
O	 0.5383230959	-0.6734209665	-1.0644152186	-0.294582
C	 1.4359521278	-1.7178803781	-0.6573263703	 0.037603
C	 2.7486916818	-1.609606184	-1.4269116795	-0.401491
C	 1.5520437489	-1.5351280421	 0.8401728976	 0.2183
C	 2.385386248	-2.3511682344	 1.7258210948	 0.07291
O	 3.084532437	-3.2696287989	 1.3569771844	-0.266545
C	 0.7424770311	-0.5489012142	 1.2375528927	-0.20792
H	 1.2405129155	 1.7975937078	-0.1832799384	 0.12442
H	-0.3026023468	 1.8453834354	-1.0590507926	 0.135042
H	-0.2796505589	 2.085107406	 0.6991005287	 0.114698
H	-1.0703971731	-0.1918455426	 0.1547030666	 0.09086
H	 0.9750974457	-2.6937249567	-0.8792569718	 0.093003
H	 3.2448123206	-0.6594447377	-1.2070218461	 0.111928
H	 3.4112252972	-2.4318260437	-1.1464983322	 0.144272
H	 2.5525293962	-1.6574152142	-2.5014643506	 0.124264
H	 2.328019737	-2.0684278889	 2.8002491991	 0.075739
H	 0.603649097	-0.2043203053	 2.2561740926	 0.121622
