18
gdb 32285	2.83184	1.42194	1.02006	2.7553	84.54	-0.209	-0.0416	0.1673	1181.8189	0.148887	-401.991947	-401.983733	-401.982789	-402.024878	31.293	
C	-0.142437314	 1.5587681373	 0.0182996827	-0.374521
C	 0.0703218988	 0.0341894131	 0.0342084112	-0.2715
C	 0.766292784	-0.4843452996	-1.1962353235	 0.205276
C	 2.060364379	-0.8843440556	-1.20627411	-0.165801
C	 2.6889385549	-1.3585531163	-2.4090362338	-0.183976
C	 1.9531180238	-1.4015702487	-3.5303068337	 0.067145
O	 0.6571676884	-1.0225751051	-3.5688754399	-0.233396
C	-0.0082997526	-0.5533500029	-2.434527908	 0.334962
N	-1.2328738737	-0.2194027428	-2.5183655552	-0.53729
H	 0.8137296974	 2.0883312458	-0.0459601477	 0.108351
H	-0.7593878563	 1.8475985699	-0.8349460033	 0.148096
H	-0.647884465	 1.8813339053	 0.9337951766	 0.110845
H	 0.6595462999	-0.247080592	 0.9141345679	 0.092366
H	-0.9054982842	-0.4555938082	 0.1174773431	 0.127508
H	 2.6386727254	-0.8472851109	-0.2878454065	 0.105477
H	 3.7232213183	-1.6744648507	-2.42459025	 0.111399
H	 2.2984857626	-1.7341186274	-4.5012400297	 0.135248
H	-1.5797693667	-0.3534489115	-3.4679802904	 0.219811
