18
gdb 86723	2.98019	1.13219	0.89497	2.3654	79.83	-0.2174	-0.0092	0.2082	1300.771	0.147404	-439.12424	-439.115206	-439.114261	-439.158305	32.832	
C	-0.1468770997	 1.5300557808	 0.1159411765	-0.490907
C	-0.0729116167	 0.0416425504	 0.0253259163	 0.178855
C	-0.0197328944	-0.7227801281	-1.0727920951	-0.090892
N	 0.0496637754	-2.0908312357	-0.7779363891	-0.059895
C	-0.0906406163	-2.2748418405	 0.6723663233	-0.215421
C	 0.0743146418	-0.8422846471	 1.2507846247	 0.029885
O	 1.3159826226	-0.6301659197	 1.9186423174	-0.425266
C	 0.1769972612	-3.0829168371	-1.7056326908	 0.142136
O	 0.2563641702	-2.9053335392	-2.9031751369	-0.329151
H	 0.676725552	 1.924480125	 0.7222539384	 0.136027
H	-0.1020806844	 1.9973126961	-0.8713813552	 0.128432
H	-1.076210378	 1.8560024579	 0.60103992	 0.129215
H	-0.0238526374	-0.437282278	-2.1148513494	 0.15591
H	-1.0815518135	-2.6789953393	 0.9068721194	 0.125448
H	 0.6701649638	-2.9480743028	 1.0747007766	 0.130949
H	-0.679924588	-0.6469415016	 2.0189540939	 0.097966
H	 2.0049645591	-0.605312387	 1.2440931813	 0.280821
H	 0.2015576623	-4.0841141042	-1.2336092414	 0.075888
