17
gdb 112380	3.29577	1.20776	0.91563	0.8842	72.75	-0.2451	-0.0132	0.2319	1242.8364	0.136578	-455.189307	-455.180716	-455.179772	-455.223322	31.18	
C	 0.0559731848	 1.4487004036	 0.054706493	-0.248852
O	-0.1442847893	 0.0428147891	 0.0987107703	-0.242789
C	 0.6301379341	-0.6251346132	 1.0596508243	 0.003357
C	 0.1071226014	-2.0529215465	 1.267323653	-0.312892
C	 1.3374005768	-2.940429082	 1.2967238248	 0.387913
N	 1.3407625101	-4.1553785567	 1.6553603473	-0.525046
N	 2.4031163751	-2.1544144066	 0.8470987688	-0.35697
C	 2.1000360635	-0.823197049	 0.6213771361	 0.397308
O	 2.8591527085	 0.0029745183	 0.1762084676	-0.354795
H	 1.0818384698	 1.7025038105	-0.2280281959	 0.148266
H	-0.6404732596	 1.8371406752	-0.6915271981	 0.128921
H	-0.1719376372	 1.9082192556	 1.0289058261	 0.104918
H	 0.6471731085	-0.059025557	 2.0058365812	 0.098004
H	-0.4926830695	-2.1868569372	 2.1673923522	 0.141868
H	-0.5114275587	-2.324135202	 0.4061923084	 0.157315
H	 2.2711208946	-4.5723793147	 1.5898877231	 0.212553
H	 3.3326460172	-2.5145222277	 0.6818051279	 0.260922
