20
gdb 100282	2.08534	1.40189	1.16623	3.9711	70.85	-0.2425	0.0214	0.2639	1174.0277	0.16797	-477.442661	-477.43183	-477.430886	-477.478138	39.262	
C	 0.0861525381	 1.3677332814	 0.1202220589	-0.271479
O	-0.0336991295	-0.0464730054	 0.0127348971	-0.299672
C	-1.3671135704	-0.5867681845	 0.029289175	 0.197068
C	-1.1800914201	-2.1087075461	 0.0262374582	-0.41393
C	-2.1255752443	-0.1328098815	 1.2890594746	-0.078087
O	-1.4071918992	-0.4588283609	 2.4645407886	-0.43392
C	-2.1623901312	-0.190973594	-1.2331905196	 0.371068
N	-1.3967603441	 0.006020758	-2.3396263572	-0.522334
O	-3.3761729273	-0.1091233532	-1.2285906852	-0.372803
H	 1.1397289906	 1.5981220327	-0.0558348947	 0.131852
H	-0.5217023116	 1.8933415022	-0.6265511806	 0.127549
H	-0.188287809	 1.7342364725	 1.1173834569	 0.124678
H	-0.7444812253	-2.4252846658	 0.9759386903	 0.135175
H	-2.1471156907	-2.6019420619	-0.0999418873	 0.138656
H	-0.5193800795	-2.4107841881	-0.7900156626	 0.116556
H	-2.3392877513	 0.9441640896	 1.2308304043	 0.094702
H	-3.0883995217	-0.6437834421	 1.3307300554	 0.133636
H	-0.4775443842	-0.2739781386	 2.2866518834	 0.288519
H	-0.3986440077	-0.1077697251	-2.2970926753	 0.269587
H	-1.8507344615	 0.1862207308	-3.2195400003	 0.263177
