17
gdb 103588	2.92946	1.30603	1.16774	3.9864	70.68	-0.2701	-0.0494	0.2207	1118.7042	0.134327	-459.007936	-458.999287	-458.998343	-459.041262	31.977	
C	 0.0696062036	 1.3815609467	 0.0873731854	-0.256049
O	 0.0377432091	-0.035469555	-0.040765066	-0.262024
C	 0.6294079418	-0.5706234875	-1.1876840492	 0.403402
C	-0.0010473804	-0.0869833963	-2.4940848421	-0.443675
O	 2.0348995993	-0.2451485389	-1.2264733954	-0.254253
C	 2.7943972397	-1.3808546624	-1.0836079271	 0.409726
O	 3.9907492978	-1.3624253877	-1.0736535137	-0.337413
C	 1.859583825	-2.5321130521	-0.970807233	-0.233575
C	 0.6141347713	-2.0766557196	-1.025313723	-0.101139
H	 1.08612762	 1.7684730395	-0.0366014539	 0.14154
H	-0.5995330454	 1.8758488935	-0.6281839501	 0.114849
H	-0.2782093595	 1.5993456561	 1.0988307607	 0.135647
H	 0.1821766824	 0.9796466728	-2.6393383117	 0.140838
H	 0.4347959185	-0.6243843878	-3.3391707786	 0.137111
H	-1.0796469514	-0.2652028425	-2.474641786	 0.130457
H	 2.2128517263	-3.5458823445	-0.8525202777	 0.139125
H	-0.3132860182	-2.6284151543	-0.9512972386	 0.135433
