21
gdb 80453	2.22822	1.51883	1.32989	2.9733	81.94	-0.2326	-0.0111	0.2215	1117.6445	0.182741	-387.118965	-387.110036	-387.109092	-387.1525	34.068	
C	 0.0876613004	 1.6712281477	-0.1250875289	-0.423877
C	 0.0829590532	 0.1585293403	-0.0732607255	 0.001284
C	 0.6388707202	-0.7413266935	-1.138600366	-0.070266
C	 1.5769940738	-0.1208674809	-2.1835151372	-0.270688
C	 2.9250541452	 0.1436790416	-1.468780383	-0.059365
C	 3.6647861796	 1.4362005701	-1.8073521314	-0.411404
C	 2.6572383432	-0.0422230275	 0.0368828562	 0.38521
O	 3.444042662	 0.2290198876	 0.9116906497	-0.337999
C	 1.3168500226	-0.6896001103	 0.2221733828	-0.176764
H	 0.9822043735	 2.0804469848	-0.5997978886	 0.129515
H	-0.7808311387	 2.0391824119	-0.6829580499	 0.11968
H	 0.0372181332	 2.0900564526	 0.8851230418	 0.130316
H	-0.802610752	-0.2418779084	 0.4153868815	 0.094442
H	 0.057466042	-1.6094789785	-1.4278853848	 0.08884
H	 1.706636901	-0.803202492	-3.0270797934	 0.105893
H	 1.1591882354	 0.8053712379	-2.5938549145	 0.106152
H	 3.5939332259	-0.6994756683	-1.6983451857	 0.110119
H	 3.0226489489	 2.3133290606	-1.6715545757	 0.121184
H	 4.5298559363	 1.5494488839	-1.1484909142	 0.14074
H	 4.0120410843	 1.4363441931	-2.844856778	 0.113074
H	 1.2368426299	-1.4600082629	 0.9799390948	 0.103914
