17
gdb 67863	2.52262	1.69936	1.42038	4.1157	72.93	-0.2508	-0.0075	0.2433	985.3848	0.136657	-421.8733	-421.865645	-421.8647	-421.905297	29.366	
C	-0.1059787176	 1.5183559421	 0.0753512785	-0.47744
C	 0.0054813401	 0.0035187681	-0.0139021241	 0.067085
C	-1.291549287	-0.7575135246	-0.1553447826	-0.125096
C	-1.3770230052	-1.787445799	 0.6876130795	-0.063368
C	-0.1647406768	-1.9162099154	 1.5811005418	-0.291845
C	 0.7756710223	-0.833269162	 1.0486173141	 0.086925
O	 1.6768092443	-1.3341015214	 0.0008778335	-0.267512
C	 1.0888401212	-0.5511053877	-0.962518259	 0.441164
O	 1.4118028533	-0.4290073442	-2.0994722403	-0.331719
H	 0.8690292705	 1.9804576275	 0.2572947854	 0.129721
H	-0.496081842	 1.92324657	-0.8635268847	 0.141686
H	-0.7859185453	 1.8120934593	 0.880844695	 0.126311
H	-2.0363844786	-0.4794430599	-0.8919011488	 0.10913
H	-2.2129472356	-2.4759262773	 0.7408342688	 0.106821
H	-0.4141610405	-1.7557986516	 2.6375320824	 0.116886
H	 0.3128060799	-2.901076343	 1.5146621651	 0.134405
H	 1.3550998769	-0.2972354109	 1.8011893654	 0.096844
