18
gdb 40464	4.10047	1.28191	1.20814	1.562	74.48	-0.239	0.0701	0.3091	1063.7048	0.148696	-401.8507	-401.843573	-401.842629	-401.882551	28.227	
C	 0.2691641318	 1.4992440915	 0.0461330055	-0.179408
O	 1.1813537606	 0.4492170143	-0.2699187138	-0.232967
C	-0.1824859856	 0.0999690708	 0.0013312895	-0.084854
C	-0.4481039791	-0.693865173	 1.2303053691	 0.327028
C	 0.3419916236	-0.4686689254	 2.5501072291	-0.2994
C	-0.0001403475	-1.9205937897	 2.871159018	-0.037243
C	-0.2363715029	-2.2538020393	 1.4502319649	-0.103115
N	-1.3937529862	-2.2399457596	 2.38671471	-0.149965
C	-1.8717702877	-0.9664999557	 1.7576465511	-0.195434
H	 0.4282952293	 1.982860119	 1.0085086092	 0.116431
H	 0.0208680356	 2.1693288387	-0.7757254814	 0.118033
H	-0.7343044929	-0.2191196081	-0.8850126182	 0.092693
H	 1.4098951863	-0.3524445972	 2.3533371782	 0.126264
H	-0.0106434371	 0.3222993208	 3.2217007133	 0.093068
H	 0.3787707527	-2.5478980816	 3.6666662706	 0.102167
H	 0.0397430028	-3.0860437285	 0.8163874872	 0.100736
H	-2.3155749653	-0.2344535672	 2.4432719127	 0.097567
H	-2.5877587485	-1.2209831599	 0.971074085	 0.1084
