23
gdb 114954	5.04725	0.74004	0.66764	1.4994	88.6	-0.2225	0.037	0.2594	1739.8739	0.205387	-388.307412	-388.29736	-388.296416	-388.342768	37.03	
C	-0.0855958653	 1.5176030294	-0.0503544648	-0.382763
C	 0.0307100202	-0.0093509027	-0.0140202176	-0.187233
C	 0.6913548824	-0.5485470165	 1.2577713515	 0.056631
C	-0.0799995759	-0.2643258061	 2.5775551747	-0.266995
C	 0.211294232	-1.4793628241	 3.4235833791	-0.15858
C	 0.7482110157	-2.470528413	 2.7120782442	 0.315639
C	 1.1261715039	-3.8307614749	 3.1983827726	-0.177763
O	 0.8195152408	-3.9584621388	 4.5753332502	-0.41411
C	 0.9057309995	-2.0861766093	 1.256873494	-0.337619
H	 0.9002879029	 1.9904917045	 0.0243048941	 0.111987
H	-0.5480558572	 1.858875951	-0.9818535259	 0.109175
H	-0.6947712442	 1.8926154088	 0.7786564949	 0.119149
H	-0.967811301	-0.4570523618	-0.1142840489	 0.091423
H	 0.6040252965	-0.3493061673	-0.8866326362	 0.090663
H	 1.6808838008	-0.0820631517	 1.3534512283	 0.07061
H	 0.2323089977	 0.6732407095	 3.0517730074	 0.09895
H	-1.1619830674	-0.1667264266	 2.3957632654	 0.097796
H	-0.0286121739	-1.5449630768	 4.4773977035	 0.101896
H	 0.5947731867	-4.5905824319	 2.5961563634	 0.090984
H	 2.2028602851	-3.9957588153	 3.01037424	 0.091404
H	 1.0971920266	-4.8325184452	 4.8627477421	 0.288008
H	 0.1488243515	-2.5954722548	 0.6397372698	 0.097
H	 1.8794091327	-2.3696724164	 0.8371788181	 0.09375
