16
gdb 67284	3.17434	1.93806	1.75423	0.6149	66.03	-0.2207	0.0406	0.2613	820.9561	0.126534	-437.788609	-437.782577	-437.781633	-437.818597	25.916	
O	-0.0760273502	 1.4409334646	 0.0044638756	-0.482803
C	-0.0006100342	 0.0688205667	 0.0013293884	 0.439571
C	 0.7609068849	-0.8654814938	-1.0112531588	-0.148406
N	 1.6863784229	-1.2706970432	 0.0650182473	-0.290402
C	 0.6750111831	-0.874952363	 1.0648101051	-0.148403
C	-0.6140819315	-1.8108531404	 0.9740780851	 0.093459
O	-0.3884765457	-2.8290616257	-0.0279369224	-0.294505
C	-0.530923254	-1.8016854378	-1.0358475681	 0.093459
C	-1.2574620626	-0.8408814672	-0.0548209428	-0.163098
H	 0.8197546378	 1.7963609827	 0.0430294153	 0.29142
H	 1.1980598221	-0.5709296873	-1.9672921262	 0.071063
H	 1.8715547718	-2.2748787395	 0.068097946	 0.221389
H	 1.03158706	-0.5892867575	 2.0563350212	 0.071064
H	-1.0669502603	-2.1956420483	 1.8881509503	 0.081538
H	-0.9065890041	-2.1779626462	-1.9876733299	 0.081538
H	-2.29981588	-0.535046494	-0.096551896	 0.083116
