13
gdb 131105	3.27722	1.22516	1.02064	1.9645	63.94	-0.2817	-0.037	0.2446	1121.8797	0.088302	-452.69303	-452.685044	-452.6841	-452.726471	28.387	
O	 0.0634043139	 1.5120565653	-0.0620317679	-0.391394
C	 0.0470272909	 0.1030841641	 0.0027505426	-0.152041
C	 0.6436919555	-0.5325344453	-1.1812917392	 0.322051
C	 1.151182286	-1.027307082	-2.150902806	-0.460129
C	 0.7242675162	-0.4161696928	 1.2528158181	 0.367034
N	 1.5676307924	 0.3147896955	 1.9279238497	-0.181364
O	 1.9714384065	-0.5322511747	 2.9661149403	-0.14961
C	 1.3091996758	-1.6755262779	 2.7850297844	 0.108311
N	 0.5249199726	-1.683527222	 1.7554055571	-0.298545
H	 0.9796822775	 1.8022313757	 0.0245678395	 0.302565
H	-1.0095763872	-0.1834839662	 0.0619748863	 0.150736
H	 1.5901195299	-1.4679231696	-3.0121711229	 0.208584
H	 1.4840079399	-2.46452773	 3.501746958	 0.173801
