17
gdb 2486	4.74271	2.92135	2.50464	0.2996	67.22	-0.2419	0.093	0.3349	632.1206	0.149594	-272.538255	-272.532309	-272.531365	-272.567413	24.402	
C	-0.042298581	 1.5597330187	 0.0161325675	-0.50582
C	-0.0743815262	 0.0547575733	 0.0063060896	 0.333831
C	 0.3921156131	-0.7567180541	-1.2400813408	-0.263245
C	-0.5509599862	-1.8536979335	-0.7572580177	-0.057021
C	-0.4874923938	-1.8649745246	 0.7784807747	-0.056998
C	 0.4930757832	-0.7747668752	 1.1977269351	-0.263256
C	-1.3673610096	-0.8770000927	 0.0528750241	-0.125128
H	 0.9908294564	 1.9263902452	-0.023790602	 0.117087
H	-0.5758249398	 1.9771672753	-0.8450485673	 0.114752
H	-0.5027895926	 1.9640488063	 0.924434107	 0.114755
H	 0.0317951757	-0.3025886641	-2.1686110665	 0.091661
H	 1.4643837978	-0.9720320262	-1.3287824901	 0.0823
H	-0.9085554711	-2.7175627457	-1.3029417827	 0.080221
H	-0.7993926105	-2.7369341553	 1.3391166838	 0.080222
H	 1.5688616331	-0.9907972487	 1.194241293	 0.082315
H	 0.2111100709	-0.3345867227	 2.1594766316	 0.091654
H	-2.4282745795	-0.677140476	 0.0981868008	 0.082669
