16
gdb 52596	2.02377	1.1106	0.91609	2.1202	85.92	-0.2446	0.011	0.2556	1386.8777	0.119425	-363.491164	-363.480415	-363.479471	-363.527974	37.802	
C	-0.0268291061	 1.4804280493	 0.0035474085	-0.499659
C	 0.0111555696	 0.0257723829	 0.0012207682	 0.021439
C	 0.0570550598	-1.17717773	-0.0017625968	 0.137742
C	 0.0425635905	-2.6579486349	-0.0003843068	-0.364414
N	-1.3281014957	-3.2232143916	 0.0976218166	-0.507553
C	 0.6501451803	-3.1492123377	-1.2537594779	 0.407201
C	 1.1281315294	-3.5363514262	-2.2839696091	-0.471786
C	 0.8220882327	-3.1486583254	 1.1541676014	 0.407203
C	 1.4416650354	-3.5352901182	 2.1061766383	-0.471788
H	 0.5304558123	 1.8881513665	 0.8538291042	 0.154641
H	 0.4156444349	 1.8879637063	-0.911829517	 0.154667
H	-1.0553009519	 1.8517785515	 0.070387081	 0.150183
H	-1.7523435987	-2.8539529572	 0.9456674225	 0.23806
H	-1.8685569043	-2.8543093656	-0.6816944385	 0.23806
H	 1.5586261367	-3.883330707	-3.1907934623	 0.203002
H	 1.996675155	-3.8818437828	 2.9427852376	 0.203002
