25
gdb 64193	2.44178	1.32923	1.27876	0.0557	92.03	-0.261	0.0778	0.3389	1215.7353	0.228879	-352.345992	-352.336536	-352.335592	-352.379441	37.825	
C	-0.5637295236	 1.4246069832	 0.1881455398	-0.457189
C	-0.0251590965	 0.0125452193	-0.0187129206	 0.25788
C	-1.1012393322	-0.8861272895	-0.6376948642	-0.432252
C	 1.3297412991	-0.1028718386	-0.785726715	-0.254972
C	 1.8132800623	-1.1392109193	 0.260100645	-0.288385
C	 0.6714395751	-0.6767887032	 1.2062340288	 0.369866
C	 1.1307941162	 0.1289870994	 2.4559575038	-0.282341
C	 0.9050662338	-1.1470806	 3.308789355	-0.215226
C	 0.0109165124	-1.6982854399	 2.1664611741	-0.290548
H	 0.1959041299	 2.0910087322	 0.6087094762	 0.111065
H	-0.8915746275	 1.855788044	-0.7653014096	 0.108531
H	-1.4273670939	 1.4314524797	 0.8643881411	 0.10767
H	-1.4279151647	-0.4853346061	-1.6041963873	 0.107688
H	-0.7351340425	-1.9038679076	-0.8077347321	 0.110028
H	-1.9833333445	-0.9544339732	 0.0086635755	 0.109827
H	 1.2806356276	-0.4270231365	-1.8292579921	 0.08874
H	 1.9033194789	 0.8276453339	-0.7401267225	 0.093441
H	 1.6763445528	-2.1703094825	-0.0801416444	 0.096221
H	 2.8367536026	-1.0354446847	 0.6314907237	 0.0921
H	 2.1340570557	 0.5649528952	 2.4358408027	 0.090428
H	 0.4163556292	 0.9143516915	 2.7208350945	 0.097097
H	 1.8234908451	-1.7296097132	 3.4217156746	 0.102004
H	 0.4514715759	-1.0219058684	 4.2948360532	 0.092809
H	-1.0462946519	-1.469712009	 2.3391860318	 0.095602
H	 0.0981227906	-2.7584124969	 1.910747228	 0.089915
