20
gdb 112868	3.30505	1.11321	0.88762	4.198	76.88	-0.2504	0.0189	0.2692	1330.7305	0.172049	-440.319298	-440.310499	-440.309555	-440.352934	33.393	
C	-0.0109522907	 1.5099046596	 0.1659574006	-0.401371
C	 0.0152258897	 0.0106910581	-0.061917	 0.125546
C	 0.9402886524	-0.4873009182	-1.1816886832	-0.262697
C	 1.3559986078	-1.8797897058	-0.6874466324	-0.11854
C	 2.7367682766	-2.379830374	-1.1389712597	-0.067023
O	 3.0257609083	-3.6603478675	-0.6391596967	-0.425561
C	 1.2716465368	-1.7166033004	 0.8180186809	 0.439107
N	 1.8436532655	-2.4746222408	 1.6581611856	-0.567848
O	 0.5190695256	-0.6361600261	 1.1381001964	-0.246673
H	 0.9981085956	 1.8873677162	 0.3568794293	 0.12879
H	-0.4099587748	 2.0153849683	-0.7190850029	 0.12513
H	-0.6440484777	 1.7632834634	 1.0204205678	 0.133628
H	-1.005610955	-0.361913292	-0.2220449946	 0.091874
H	 0.4441502959	-0.4975862581	-2.1542717294	 0.115813
H	 1.818128299	 0.1667065636	-1.2546407996	 0.111215
H	 0.6118706909	-2.6309619063	-0.982907616	 0.112082
H	 2.7622319786	-2.4430360273	-2.2329744357	 0.101556
H	 3.4941892431	-1.6353019201	-0.8365734033	 0.080695
H	 2.8875541069	-3.6035404914	 0.3221660884	 0.298488
H	 1.6652189956	-2.1785874712	 2.6178564645	 0.225789
