18
gdb 72187	3.11329	2.03872	1.64039	1.7999	73.42	-0.2207	0.0686	0.2893	873.4467	0.149405	-401.894269	-401.887738	-401.886794	-401.924705	27.58	
C	 0.0069880591	 1.4819318453	-0.0624792801	-0.494587
C	-0.0478134809	-0.017161034	 0.0035183248	 0.460254
O	 0.2108857072	-0.6810212382	-1.2535146842	-0.342411
C	-0.6780386613	-1.7574318371	-0.836077226	 0.065898
C	 0.1657893696	-2.7839556053	-0.0918856563	-0.158679
N	 0.4746522459	-2.1664252005	 1.2138409843	-0.118394
C	-0.6542444298	-1.350858886	 1.6305847166	-0.074939
C	 0.642298437	-0.703174321	 1.2227788399	-0.110903
C	-1.2983550981	-0.8788068084	 0.3012178914	-0.176352
H	 1.0266707167	 1.8125366847	-0.2902801582	 0.131784
H	-0.6587418966	 1.8568200161	-0.8447688086	 0.127821
H	-0.2873658741	 1.9213972799	 0.8958475239	 0.124682
H	-1.2927933559	-2.1264066701	-1.6598009728	 0.079562
H	-0.3804716652	-3.7141092656	 0.1018028457	 0.102828
H	 1.0834486586	-3.0120002957	-0.6396013978	 0.120202
H	-1.11755973	-1.4885925056	 2.5996582365	 0.095453
H	 1.456017051	-0.2987403185	 1.8163605912	 0.088972
H	-2.3166511932	-0.50666691	 0.2320609499	 0.078811
