19
gdb 69594	3.44161	1.30285	1.19212	1.5909	75.24	-0.2341	0.0769	0.311	1112.2667	0.158721	-422.995196	-422.987128	-422.986184	-423.027557	31.706	
C	 0.0503567898	 1.5483943363	 0.1686195358	-0.463703
C	 0.1396933707	 0.0548369242	 0.0488957474	 0.456721
C	-0.8714027424	-0.8736300081	 0.6629522797	-0.361706
C	 0.5802797527	-0.8903896133	 1.1373065025	-0.223625
C	 1.4658374944	-1.8834993793	 0.4520355371	 0.442191
C	 2.6983116293	-2.4244928958	 1.0325487046	-0.256924
O	 1.5305879637	-3.2434353527	 0.8799830983	-0.279523
C	 1.2652080876	-1.6436466679	-1.0494229415	-0.181213
O	 0.7112634173	-0.3418178687	-1.1840270387	-0.29838
H	 1.0410915636	 2.0038267774	 0.0747936749	 0.125269
H	-0.5880716882	 1.9568108533	-0.6215410889	 0.131591
H	-0.3769813718	 1.833042611	 1.1336925311	 0.11883
H	-1.5977943737	-0.4415234866	 1.3426996316	 0.115861
H	-1.2389153976	-1.719456916	 0.091958415	 0.124602
H	 0.8262226325	-0.5572075147	 2.1382789711	 0.09223
H	 3.53663465	-2.6790366175	 0.3844020209	 0.114151
H	 2.967210413	-2.1826108403	 2.0606118052	 0.115102
H	 2.1947452642	-1.6864917566	-1.6247749813	 0.114742
H	 0.5836913149	-2.4103988947	-1.4449863346	 0.113784
