14
gdb 21269	3.45138	1.91305	1.24209	3.8111	60.17	-0.2192	0.0109	0.2301	920.4634	0.107607	-415.833484	-415.826002	-415.825058	-415.865298	27.301	
C	 0.0474592537	 1.3588485075	 0.0140379848	-0.255666
O	 0.0185121404	-0.0587017357	 0.0397977272	-0.268101
C	-1.2189879943	-0.6027494194	 0.0382123748	 0.180853
C	-2.4694189921	-0.0743023492	 0.0143651359	-0.05011
O	-3.3835421208	-1.0666709697	 0.0119413726	-0.18462
N	-2.7221896746	-2.3004513256	 0.0265716806	-0.224799
C	-1.4404457417	-2.0173003503	 0.0505801031	 0.334403
N	-0.454004107	-2.9786066386	 0.1406694412	-0.593274
H	 1.0974978792	 1.653471939	 0.0150885761	 0.141095
H	-0.4421456491	 1.7454393114	-0.8898702962	 0.126223
H	-0.4517536759	 1.7769013003	 0.8981752322	 0.128541
H	-2.8548148113	 0.9314615744	 0.0002210115	 0.142542
H	-0.7571651888	-3.8993118728	-0.1447264318	 0.261996
H	 0.4195739323	-2.7050891013	-0.2857795319	 0.260915
