19
gdb 89140	2.08493	1.70628	1.15236	3.74	81.3	-0.2178	0.0285	0.2463	1132.2551	0.158622	-382.043417	-382.034404	-382.03346	-382.076797	33.56	
C	-0.39809287	 1.4291278344	 0.0472493287	-0.347862
N	 0.0843558221	 0.0576670969	 0.0108946953	-0.066502
C	 1.110911625	-0.375764498	-0.9741753047	-0.2458
C	 1.8732952007	-1.091553047	 0.1553923625	 0.286388
C	 2.4772929799	-2.461461214	 0.0650574107	-0.501475
C	 2.3201132541	-0.0544170598	 1.1802129042	-0.249217
C	 2.8142092256	 1.2438825802	 0.8194543299	 0.308877
N	 3.2283681344	 2.2817060845	 0.5148592017	-0.365397
C	 0.8478664181	-0.5014684961	 1.0993405092	-0.06516
H	 0.3931050739	 2.186723553	 0.1339415515	 0.136913
H	-0.9701659242	 1.629113274	-0.8645326417	 0.123742
H	-1.0794578488	 1.5403555235	 0.8971147542	 0.123434
H	 0.6985165055	-1.0537241018	-1.7290026881	 0.11203
H	 1.6581835512	 0.4333617881	-1.4733874801	 0.122861
H	 3.382751085	-2.4536658388	-0.5523185409	 0.134765
H	 2.752939927	-2.8419139961	 1.0534637115	 0.12586
H	 1.7714519195	-3.1688907069	-0.3829107407	 0.131686
H	 2.839409346	-0.4922368301	 2.0290855589	 0.128828
H	 0.3683857551	-0.9104348361	 1.9839783479	 0.106032
