15
gdb 18043	3.59393	2.40422	1.76951	1.6588	61.18	-0.2521	0.0176	0.2697	747.372	0.121596	-399.786074	-399.779868	-399.778924	-399.816603	23.382	
C	 0.0429717179	 1.5258186616	 0.1519137091	-0.072307
O	 1.4565250848	 1.5539931597	-0.1463126176	-0.291671
C	 1.4367352586	 0.1686696926	-0.5449266216	 0.098443
C	 2.4959257917	-0.6799741044	 0.119265665	-0.103098
O	 2.2627293794	-0.8958127165	 1.5165846689	-0.218968
C	 0.9741058215	-0.9996586491	 1.9119477425	 0.134359
N	-0.0902527436	-0.6803762034	 1.3053888622	-0.268455
C	 0.0092727046	-0.018080325	 0.0228022783	-0.041701
H	-0.1840969609	 1.9195387507	 1.146782019	 0.11783
H	-0.5430430274	 2.0588852983	-0.6075180552	 0.1015
H	 1.5182005098	 0.0652421172	-1.6363614446	 0.076965
H	 2.5320843552	-1.6579509065	-0.3796226888	 0.115255
H	 3.4799039263	-0.2101508451	 0.0447198058	 0.134384
H	 0.9301176727	-1.4221087528	 2.9143852584	 0.127557
H	-0.7430976106	-0.4222822773	-0.6567518714	 0.089908
