17
gdb 125061	3.00307	1.39876	1.03734	3.1576	76.38	-0.2336	0.0017	0.2353	1152.5588	0.137296	-414.161977	-414.153792	-414.152847	-414.195785	29.791	
C	-0.249650136	 1.5322656185	 0.0806111807	-0.51274
C	-0.0289551782	 0.0621489955	 0.0091523845	 0.249426
C	 0.2137820239	-0.776480928	-1.0587163516	 0.282643
N	 0.3467208394	-2.0552644893	-0.6010191914	-0.260493
N	 0.2008877873	-2.0659129615	 0.6919981624	-0.124421
N	-0.0259939293	-0.7903171182	 1.0659564627	-0.231114
N	 0.3099778557	-0.3814519054	-2.4054009058	-0.195644
C	 1.2638555394	-1.121320876	-3.2501138314	-0.220548
C	-0.1948809096	-1.3284174668	-3.4150713085	-0.220579
H	 0.5064779829	 2.0315231192	 0.6969441776	 0.136711
H	-0.1904647396	 1.9388568227	-0.9309349953	 0.164908
H	-1.2338341256	 1.7801557082	 0.4939116384	 0.136804
H	-0.1665815915	-0.5855602326	 2.0424492061	 0.277032
H	 1.8156390246	-0.5081081067	-3.9566116052	 0.116691
H	 1.8251616038	-1.9193365568	-2.7736623307	 0.142385
H	-0.6053368216	-2.2643963159	-3.0484683715	 0.142228
H	-0.7254200556	-0.868911297	-4.2439347508	 0.116712
