16
gdb 65757	2.99661	1.20612	1.14621	1.5614	65.25	-0.2686	-0.0083	0.2603	1113.3364	0.123403	-475.071348	-475.062552	-475.061608	-475.105219	31.202	
C	 0.3154994467	 1.6176442706	 0.8658265811	-0.446644
C	 0.1072711644	 0.1442250971	 0.5200821111	 0.119833
C	 0.2580805485	-0.2336016759	-0.9699479671	-0.09212
O	 1.4879393495	-0.9832889178	-0.6584416004	-0.241593
C	 1.3570921724	-0.7436824534	 0.6752900093	 0.437111
O	 2.0194965907	-1.1481477495	 1.576962887	-0.33723
N	-1.0370215106	-0.4410001372	 1.19667916	-0.335198
C	-2.3131450329	-0.1876374827	 0.8017052202	 0.152734
O	-2.6055764725	 0.4818820344	-0.1678060148	-0.329022
H	 1.1932035044	 2.0201221286	 0.3517084541	 0.131938
H	-0.564649927	 2.1897615502	 0.5635544392	 0.159381
H	 0.4653924041	 1.7326956831	 1.942767626	 0.136058
H	-0.5066157043	-0.8970157777	-1.369457672	 0.147116
H	 0.4683102258	 0.5883618967	-1.6540554194	 0.13486
H	-0.8687111113	-0.960655657	 2.0451716458	 0.267177
H	-3.0606558378	-0.6751489296	 1.45616785	 0.0956
