16
gdb 91224	2.10622	1.66267	1.56393	2.5286	64.07	-0.2492	-0.006	0.2432	969.5006	0.124076	-475.019666	-475.01132	-475.010376	-475.052694	31.048	
N	-0.1016292273	 1.4823816872	-0.1793070338	-0.610316
C	-0.0743123784	 0.0619015145	-0.0466711542	 0.120912
C	 0.367042262	-0.7410414057	-1.3197062574	 0.086264
O	 1.6787994751	-1.2110524267	-1.4210015804	-0.422133
C	-0.8385639891	-1.7229836947	-1.1469633207	-0.287334
C	-1.287694047	-0.9253012154	 0.0864880844	 0.071774
O	-0.6803521163	-1.4949315704	 1.2933184793	-0.257224
C	 0.3860776954	-0.6271832581	 1.2474375665	 0.374264
O	 1.2831774125	-0.5364118702	 2.0248327243	-0.331824
H	-0.1246659118	 1.9502015427	 0.7209581192	 0.245348
H	 0.7272139144	 1.806915506	-0.6674574017	 0.249144
H	 0.2124533641	-0.0955428223	-2.1890110058	 0.11484
H	 1.8837393909	-1.7544605311	-0.6516783289	 0.296559
H	-1.53291627	-1.7052004601	-1.9889499129	 0.121022
H	-0.5753442567	-2.7583078421	-0.9196890136	 0.122526
H	-2.3222508678	-0.6349596036	 0.2519270958	 0.106179
