14
gdb 45918	2.98554	1.51018	1.02449	2.8197	68.49	-0.2785	-0.0658	0.2127	1076.2244	0.102773	-470.04514	-470.037606	-470.036662	-470.077779	27.817	
N	-0.1044057674	 1.3445077343	-0.0077413241	-0.502058
C	-0.0148215763	 0.0803524919	 0.0607222714	 0.378379
C	-1.2643743495	-0.76331001	-0.0005752653	-0.152215
O	-1.183342692	-1.9559610809	 0.7814636597	-0.252709
C	-0.0684445254	-2.7313439882	 0.6765252991	 0.292452
N	-0.0523609742	-3.9561653713	 0.9777913199	-0.455238
C	 1.2379661114	-2.0511129129	 0.2910670142	 0.360498
O	 2.2871188769	-2.6341684843	 0.1973675689	-0.306748
N	 1.1514019246	-0.6750195883	 0.1160321479	-0.390889
H	 0.811181857	 1.7982788368	-0.0239958937	 0.219954
H	-2.1042451929	-0.188275059	 0.3848264017	 0.164882
H	-1.4674630732	-1.0246629819	-1.0484407307	 0.142706
H	-0.9905711638	-4.2632289787	 1.2452252446	 0.238116
H	 2.044469265	-0.2125537576	-0.0040982236	 0.26287
