13
gdb 127785	3.69893	1.65181	1.15022	5.9543	67.3	-0.2467	-0.0696	0.177	969.2638	0.091007	-448.865467	-448.858789	-448.857844	-448.896801	24.729	
C	 0.0420308235	 1.4714536697	-0.0304298354	-0.350716
N	 0.0112305359	 0.0303035616	 0.0710756925	-0.161052
N	-0.0579987103	-0.7417131452	-1.0629616417	-0.098373
N	-0.0762938193	-1.9966116351	-0.7817745005	-0.271776
C	-0.0174965363	-2.0973690764	 0.5958852329	 0.433908
N	-0.0003181654	-3.0583570377	 1.4989809142	-0.232059
O	 0.0703857894	-2.3539044559	 2.6940436643	-0.154764
C	 0.0942229328	-1.0125759978	 2.4972506587	-0.039907
C	 0.0390202023	-0.7963730379	 1.1551345372	 0.234729
H	 0.9646724765	 1.871531001	 0.401342092	 0.150145
H	 0.0005183557	 1.721185313	-1.0908619403	 0.175837
H	-0.8175298764	 1.915215337	 0.4814096838	 0.150146
H	 0.1483379617	-0.4079638564	 3.3861320123	 0.163881
