16
gdb 69242	2.94113	1.5831	1.22756	2.8347	70.5	-0.2611	-0.021	0.24	1018.9752	0.124857	-437.925911	-437.918394	-437.917449	-437.957798	28.997	
C	-0.0073606421	 1.4900089172	-0.0501033885	-0.451555
C	-0.0266444232	-0.0190203744	-0.0020738731	 0.324518
C	-0.8097799576	-0.7349390388	 1.0548605005	-0.321242
C	 0.7111201864	-0.75421856	 1.1313715923	-0.224971
C	 1.4617018156	-1.9735532421	 0.7826462739	 0.445735
O	 2.2907473903	-2.5086174734	 1.4585505996	-0.316483
O	 1.1762534045	-2.5211416926	-0.4650934663	-0.219517
C	 0.5239237405	-1.774893822	-1.4151194787	 0.112171
N	-0.0071007337	-0.6391018491	-1.2915995336	-0.280739
H	 0.9013256065	 1.850275455	-0.5416068992	 0.132617
H	-0.867313669	 1.8563775501	-0.6186626207	 0.138084
H	-0.0472631032	 1.9159498526	 0.9563116701	 0.118297
H	-1.3077457246	-0.1411033118	 1.8128233463	 0.134977
H	-1.3240572447	-1.6480643227	 0.7776349545	 0.139444
H	 1.1749518653	-0.1842341635	 1.9272094523	 0.123763
H	 0.526196729	-2.3065922645	-2.3622707092	 0.144899
