12
gdb 3548	5.85186	3.03253	2.62661	4.2036	52.98	-0.25	0.0006	0.2506	536.8954	0.091459	-323.329385	-323.324398	-323.323454	-323.357973	19.383	
O	-0.0307251334	 0.0676672894	 0.055305829	-0.313153
C	-0.0868645946	 1.2552492408	 0.0619355565	 0.445246
C	-1.1657342197	 2.3196576115	-0.0855135687	-0.206697
C	-0.9526368461	 3.1442838285	 1.2197317498	-0.243554
C	 0.4357715936	 3.4622877986	 0.6523189547	-0.030056
C	 0.0228053394	 3.1460847028	-0.7189609913	-0.043448
N	 1.008757558	 2.2252907295	-0.0037960416	-0.201906
H	-2.1504398404	 2.1069470676	-0.4906732974	 0.104811
H	-1.575457015	 4.0415042741	 1.242348263	 0.122013
H	-1.0282366291	 2.6075728351	 2.1705169312	 0.119473
H	 1.1723962111	 4.1690343791	 1.0105975651	 0.118581
H	 0.2286480562	 3.535372803	-1.7043091702	 0.128689
