21
gdb 59870	3.05752	0.89023	0.8332	3.1131	76.06	-0.2638	0.0067	0.2705	1519.1164	0.178959	-461.413518	-461.402613	-461.401669	-461.45024	38.782	
C	-0.0340551611	 1.4983041205	-0.1282869291	-0.397643
C	-0.0304989089	-0.0225021249	-0.0281546362	 0.140438
C	 0.5421014381	-0.5471757359	 1.2791944708	-0.393617
O	-1.4029719143	-0.5156592464	-0.0907540236	-0.253632
C	-1.9466308419	-0.6734865994	-1.2983014803	 0.421687
O	-1.3910740003	-0.4434219594	-2.3502381001	-0.387366
C	-3.3799511619	-1.1945289643	-1.2317320239	 0.046858
C	-4.2986388422	-0.2138594905	-0.4919453185	-0.392348
O	-3.8451795265	-1.4315328051	-2.5369843334	-0.439392
H	 0.9896003959	 1.8786834156	-0.0574842126	 0.123122
H	-0.4524771708	 1.8207131119	-1.0841691665	 0.14268
H	-0.6209411133	 1.9367894203	 0.6849988142	 0.12425
H	 0.5025133274	-0.4466229042	-0.883371159	 0.114337
H	-0.0185042084	-0.1553807428	 2.1334994509	 0.127834
H	 0.5026985976	-1.6391162443	 1.3114817743	 0.127846
H	 1.585844105	-0.2359622724	 1.3804626134	 0.124197
H	-3.3501969618	-2.1409478164	-0.6694065243	 0.098148
H	-5.3168830966	-0.6101685284	-0.4917547846	 0.131488
H	-3.9698793925	-0.0726362171	 0.5405085627	 0.124275
H	-4.3092042367	 0.7547124818	-1.0010241493	 0.123346
H	-3.1288710566	-1.1497476287	-3.1257410352	 0.293493
