17
gdb 90650	3.7923	1.0831	1.01743	1.752	75.89	-0.2443	0.0317	0.276	1202.7141	0.133487	-421.746718	-421.737938	-421.736994	-421.779667	33.927	
O	 0.01947213	 1.3302974622	-0.0209413331	-0.441475
C	-0.01556925	-0.0819265303	-0.0230573189	 0.114787
C	 0.2765248505	-0.7339472731	 1.3713392475	-0.284682
C	-1.1867428104	-1.1837583956	 1.4498111886	-0.128061
C	-1.4714739269	-0.542355034	 0.0830252974	-0.109121
C	-1.527403343	-2.0349618106	 0.2391843681	 0.208976
O	-0.545508285	-2.7954436728	-0.4189576437	-0.462108
C	-2.8413224144	-2.6322593883	 0.2488531448	 0.262467
C	-3.9173302731	-3.1692588584	 0.2675258174	-0.416723
H	 0.9427953047	 1.6023768122	-0.033771309	 0.282891
H	 0.5476902875	-0.4964513955	-0.8671416043	 0.084069
H	 1.0340558919	-1.520858431	 1.4148014764	 0.094423
H	 0.502618901	 0.0477020844	 2.0994981776	 0.107946
H	-1.8049581085	-1.2160468802	 2.3386255474	 0.097218
H	-2.3212273967	 0.0299535043	-0.2666341515	 0.108056
H	-0.4838534947	-3.6455733808	 0.0311664057	 0.286968
H	-4.8719180628	-3.6345574526	 0.2709831896	 0.194369
