18
gdb 70917	3.63776	1.55894	1.34188	1.9113	75.84	-0.2518	0.0063	0.2581	988.1826	0.149137	-401.880507	-401.873522	-401.872578	-401.911439	28.762	
C	 0.0487518966	 1.5082181386	 0.0406424898	-0.510844
C	 0.0070640997	 0.0048451388	 0.0068003426	 0.263903
C	 0.6414044423	-0.9443006752	-1.1169253732	-0.344759
C	-0.0526745213	-1.8753863565	-0.088128619	 0.344424
C	 0.5791089068	-0.9928080111	 1.0413981121	-0.294231
N	-0.5709434678	-3.1977222555	 0.2282208366	-0.36083
C	-1.6625003524	-2.8812277649	 0.8174537566	 0.084964
O	-2.0816314036	-1.5630646237	 0.8732864509	-0.261544
C	-1.2369840984	-0.9404358712	-0.1287427378	 0.066828
H	 1.0823381115	 1.8701001662	 0.0554367322	 0.12469
H	-0.4475409046	 1.9394070411	-0.8350666341	 0.123388
H	-0.4539360284	 1.8894252337	 0.9356047956	 0.12958
H	 0.1992912379	-0.8904922749	-2.1154206095	 0.103489
H	 1.7326376446	-0.9487605985	-1.1526169407	 0.107847
H	 1.6665540095	-1.0312384784	 1.1346957644	 0.094666
H	 0.0850945749	-1.0269529748	 2.0133489674	 0.108186
H	-2.3288494441	-3.5724864435	 1.3211959188	 0.139926
H	-1.8206868031	-0.84435968	-1.0499639027	 0.08032
