23
gdb 73004	2.62327	1.46414	1.16696	0.2109	90.13	-0.2324	0.09	0.3224	1185.7101	0.206249	-351.122431	-351.113635	-351.11269	-351.155593	34.654	
C	-0.0059255279	 1.5698745655	 0.007727104	-0.501387
C	-0.0045484311	 0.0681873169	 0.024399614	 0.269236
C	-0.7723789265	-0.8104105767	-0.9796137705	-0.283513
C	-1.1302615167	-1.8044977434	 0.1721131349	-0.2292
C	-0.3391708222	-0.9321317868	 1.1501124003	-0.172885
C	 1.0736404741	-0.7511503811	 0.6673383435	 0.353345
C	 2.0285442735	-1.8199530936	 0.1043112408	-0.304484
C	 3.0103209946	-1.4824026544	 1.2646434607	-0.208933
C	 2.1819788184	-0.2039163929	 1.5833598312	-0.309848
H	 0.5451274044	 1.9582508677	-0.8586834061	 0.114864
H	-1.0259276077	 1.9680175314	-0.0481371439	 0.113112
H	 0.4633309361	 1.9823397636	 0.906487747	 0.119237
H	-1.6564416454	-0.3128525945	-1.3871628958	 0.09706
H	-0.1859424996	-1.2095032386	-1.8145131459	 0.090557
H	-2.2018100529	-1.8198486014	 0.3839498212	 0.099487
H	-0.7874387777	-2.8387061149	 0.0581287322	 0.092474
H	-0.6055945251	-0.7378437132	 2.184475861	 0.074045
H	 1.658013709	-2.8476898049	 0.0600684097	 0.09769
H	 2.4298246691	-1.5559106963	-0.8798705855	 0.096999
H	 2.9635362686	-2.2172524243	 2.0720045823	 0.103126
H	 4.0577348373	-1.3319315105	 0.9943993311	 0.095461
H	 2.6485932059	 0.7058845348	 1.1907582491	 0.097515
H	 1.9230281617	-0.0302187226	 2.6318084146	 0.096043
