20
gdb 118323	2.37011	1.0849	0.79466	5.2175	79.45	-0.2358	0.0046	0.2404	1472.5621	0.170314	-436.500594	-436.490241	-436.489297	-436.536778	36.821	
C	-0.0504333513	 1.5200666776	-0.0561695168	-0.378957
C	 0.0049476152	-0.0092856814	-0.0263768644	-0.175447
C	-1.3900098994	-0.6417875492	-0.1347845753	-0.189875
N	-1.3956769525	-2.1066141009	-0.0785192054	-0.109212
C	-1.3623147132	-2.6797888678	 1.1958278893	 0.084902
N	-1.0414247331	-3.8800744157	 1.4431884471	-0.420997
C	-1.5145329305	-2.8934558122	-1.2474617337	 0.442721
N	-1.1826110145	-2.2116905631	-2.4131174686	-0.560792
O	-1.9322308288	-4.0248118098	-1.259747271	-0.344735
H	 0.9501058928	 1.9534449719	 0.0265845134	 0.123558
H	-0.4963813114	 1.8854966147	-0.9878131306	 0.120394
H	-0.6516893575	 1.9104198508	 0.7722830641	 0.12176
H	 0.6459603252	-0.3758664023	-0.8390518092	 0.097835
H	 0.4779727769	-0.352590213	 0.9015323616	 0.11311
H	-2.0123179875	-0.2723764852	 0.690251454	 0.115129
H	-1.8829579569	-0.3310732046	-1.0583193121	 0.133907
H	-1.6292102813	-1.9345017299	 1.9576911155	 0.084084
H	-1.1119077213	-4.0518865285	 2.444961457	 0.225668
H	-0.4249628919	-1.5468074168	-2.3833744011	 0.253347
H	-1.157652609	-2.8329895944	-3.2080741637	 0.263602
