16
gdb 66971	2.64665	1.72249	1.2999	2.2095	74.04	-0.2236	0.0228	0.2464	984.4069	0.123489	-400.623288	-400.615723	-400.614779	-400.654983	30.212	
O	-0.2094548995	 1.3442513118	 0.0516844255	-0.458172
C	 0.017204717	-0.0094167765	 0.0171065001	 0.364201
C	-0.160108035	-0.8608383917	-1.2666566665	-0.155385
C	 0.5472682493	-2.1697671198	-0.9874763957	-0.184321
N	 0.0676224489	-2.0764670712	 0.4552856597	-0.181153
C	-1.0106268277	-1.0850861257	-0.0410933179	-0.093373
C	 0.840325648	-0.8587127777	 0.9866712457	-0.207508
C	 2.289383528	-0.875885625	 0.932459158	 0.310046
C	 3.4914725859	-0.8575013937	 0.8856624667	-0.438107
H	 0.5038630229	 1.786388038	-0.4229209849	 0.295167
H	-0.4429623892	-0.3825410482	-2.1966905209	 0.093919
H	 0.0641793059	-3.0301504237	-1.4579336732	 0.111993
H	 1.6326358337	-2.2405529516	-1.1012878137	 0.116104
H	-2.0682231041	-1.1441360787	 0.1690290689	 0.110832
H	 0.5007854797	-0.6926950498	 2.0138395303	 0.115599
H	 4.5530868262	-0.8511959264	 0.851686018	 0.200159
