15
gdb 5394	5.28146	1.64981	1.26736	0.369	72.06	-0.2139	-0.024	0.1899	930.7274	0.121644	-358.907342	-358.900046	-358.899102	-358.939631	25.96	
C	 0.0051327742	 1.4515666062	-0.0028067767	-0.308986
N	-0.0652378831	 0.0080543675	 0.0477675729	-0.342243
C	-1.2263783746	-0.6927481675	 0.0303404527	 0.464025
N	-2.3759450099	 0.0055622839	 0.0617483607	-0.321569
C	-3.4921644226	-0.7206883862	 0.063623728	 0.014305
C	-3.4972210365	-2.1094355484	 0.0304551027	-0.156665
C	-2.2437545456	-2.7183667084	-0.0086991438	 0.013337
N	-1.1051265114	-2.0378174166	-0.0099088471	-0.327556
H	 1.0469332447	 1.7534360542	 0.1241183301	 0.120849
H	-0.3652405713	 1.8528973877	-0.9545589479	 0.129454
H	-0.5920772454	 1.8963882587	 0.7979352143	 0.14508
H	 0.7699877826	-0.5424587581	-0.0535754007	 0.253676
H	-4.4247448899	-0.159570501	 0.0906569565	 0.109249
H	-4.4150865744	-2.6823285575	 0.0300665926	 0.097952
H	-2.1522658069	-3.8028183645	-0.0415429543	 0.109092
