14
gdb 12950	2.62262	2.26734	1.76848	3.634	58.14	-0.2241	0.0062	0.2303	793.2584	0.107507	-415.831682	-415.824289	-415.823345	-415.862976	27.899	
N	-0.1427795493	 1.4949462111	-0.1779574996	-0.600308
C	-0.0643668858	 0.0896088114	-0.0224635158	 0.121218
C	-0.3474180061	-0.8361314614	-1.1890472085	 0.066576
O	 0.611018259	-1.7761533654	-1.5650960981	-0.414019
C	-1.1848271932	-0.9791589478	 0.0469587415	-0.107509
N	-0.4541199353	-1.6647279739	 1.1153631088	-0.341435
C	 0.6230223113	-0.7475398318	 1.0605686969	 0.363461
O	 1.643206202	-0.6793194964	 1.681190983	-0.334957
H	-0.1897930353	 1.959876653	 0.7229294	 0.244925
H	 0.6755026685	 1.8513280462	-0.6617487304	 0.247595
H	-0.8352130579	-0.3085026109	-2.0106171068	 0.10593
H	 0.1682247913	-2.475649508	-2.0580413242	 0.291713
H	-2.254762171	-0.8295273749	 0.1090181558	 0.115983
H	-0.266541388	-2.6603546214	 1.0696231874	 0.240826
