16
gdb 34455	3.70631	1.49941	1.26081	0.6254	74.74	-0.2387	0.0279	0.2667	989.0086	0.124886	-400.65829	-400.651275	-400.65033	-400.689471	28.279	
C	 0.0291830798	-1.1294533271	-0.0085821647	-0.328122
C	 0.0085729804	 0.071987805	-0.0333280335	 0.160598
C	-0.0670079329	 1.5014019094	-0.0383935446	 0.139969
C	-1.2917928079	 2.1808412237	 0.5872108123	-0.161131
O	-1.4315675566	 3.4275663132	-0.0961294083	-0.257408
C	-0.1722148449	 3.6918394394	-0.6867612755	 0.055997
C	 0.9651059646	 3.6547963884	 0.363589861	-0.18517
N	 1.2659556898	 2.2142122844	 0.0420756529	-0.184671
C	 0.392535666	 2.3365269327	-1.1738891727	-0.108032
H	 0.0635896804	-2.1906349302	 0.0090306997	 0.189144
H	-2.1931492902	 1.5817223417	 0.4295556432	 0.126714
H	-1.1615134258	 2.3348430586	 1.6665397348	 0.113637
H	-0.2648374523	 4.5428693336	-1.3593761785	 0.096536
H	 1.8373591301	 4.2475875335	 0.0785563942	 0.120689
H	 0.6959702154	 3.8701800399	 1.4019930542	 0.112492
H	 0.6702946041	 1.9850067039	-2.1594105344	 0.10876
