16
gdb 31354	3.36203	1.21071	0.95143	5.1386	73.66	-0.2462	-0.0405	0.2057	1222.779	0.124763	-437.9448	-437.936671	-437.935727	-437.978472	29.431	
C	 0.3612919694	 0.8848739478	 0.7227791955	-0.385669
C	-0.4172078001	 0.3404915548	-0.4878933755	-0.266659
C	 0.487736995	-0.1970111622	-1.5560553174	 0.40578
N	 0.6363328357	 0.3563315181	-2.6940745433	-0.341264
C	 1.5277747825	-0.1990011976	-3.6510770023	 0.374783
O	 1.6796382328	 0.3164020759	-4.7356445397	-0.340063
C	 2.2272300084	-1.4156564029	-3.2199312609	-0.251888
C	 1.9965160575	-1.9127375191	-2.0010192587	 0.066206
O	 1.1294861048	-1.3330949808	-1.132000103	-0.212674
H	 0.970933723	 0.103123464	 1.183385922	 0.132857
H	 1.0204722323	 1.7053528873	 0.4248640614	 0.137513
H	-0.3340250963	 1.2637729979	 1.4762234694	 0.128804
H	-1.0862484222	-0.464702982	-0.162749668	 0.127324
H	-1.0217121613	 1.1246238591	-0.9460085749	 0.143671
H	 2.9218821616	-1.894544102	-3.8972546865	 0.132158
H	 2.4501765069	-2.799768908	-1.5761303681	 0.149121
