17
gdb 12273	4.0122	1.48036	1.16163	2.6648	67.42	-0.2309	0.0261	0.257	1048.7931	0.141189	-401.005462	-400.99672	-400.995776	-401.039124	29.886	
C	 0.2216593264	 1.3420213637	-0.1387447425	-0.247259
O	-0.2632807907	 0.0508590385	 0.1967495716	-0.243409
C	 0.5026135374	-0.5740773837	 1.1826655781	-0.011821
C	 0.0790210806	-2.0432063071	 1.4488294093	-0.206111
N	 1.4360263769	-2.440052185	 1.0611955939	-0.077391
C	 2.0694848546	-3.7271610816	 0.9486831204	-0.344073
C	 1.8689845735	-1.1816173986	 0.7318115644	 0.389654
O	 2.9018728885	-0.7729738816	 0.2626932001	-0.381737
H	 1.2499330873	 1.2994937954	-0.516231446	 0.145288
H	-0.4382147989	 1.7355100542	-0.9148030749	 0.127944
H	 0.1923459215	 2.0153983228	 0.7318151188	 0.106149
H	 0.5863500949	 0.0452166004	 2.0886921098	 0.087543
H	-0.1877522856	-2.2913302378	 2.4816426553	 0.109938
H	-0.7020643783	-2.3883621068	 0.7635135743	 0.122773
H	 1.5379591838	-4.3771285773	 0.2424974108	 0.130825
H	 3.0856994378	-3.5647454637	 0.5814425819	 0.162368
H	 2.1193812004	-4.2366477317	 1.9186307048	 0.129319
