21
gdb 74489	2.7973	1.33351	1.00784	1.2169	87.63	-0.2217	0.0257	0.2474	1251.8012	0.183138	-387.090284	-387.081727	-387.080783	-387.123166	33.531	
C	 0.0447607752	 1.5077995203	-0.0524152999	-0.47555
C	-0.0229759198	 0.0092319601	 0.0210377363	 0.250051
C	-1.1631284499	-0.6854757287	-0.0047165248	-0.211971
C	-1.182625091	-2.1670829221	 0.0110596056	 0.339571
C	-2.1228190024	-2.8856464401	 0.9615791275	-0.299573
C	-2.3896963563	-2.9087252055	-0.5186214756	-0.315399
C	 0.1905258625	-2.7481453245	-0.2665406005	-0.173816
O	 1.1872280921	-2.0769628701	 0.4845655594	-0.244862
C	 1.3005520945	-0.7145856901	 0.1258169103	-0.156273
H	 0.6476538571	 1.8395403363	-0.9083022781	 0.123447
H	-0.9510789163	 1.947473804	-0.1532737805	 0.122826
H	 0.5167411973	 1.9323484624	 0.8433254825	 0.123877
H	-2.1200380103	-0.1678049799	-0.0481137597	 0.075602
H	-1.7612774685	-3.7929742433	 1.4345554134	 0.115661
H	-2.7662189293	-2.2804089925	 1.5908793903	 0.113434
H	-3.2161278124	-2.3209828849	-0.9049429187	 0.112065
H	-2.2156984691	-3.8351323037	-1.0576175462	 0.111574
H	 0.2453130536	-3.8034260182	 0.0179200047	 0.100812
H	 0.4133298789	-2.6725427665	-1.3450787648	 0.085844
H	 1.8551843315	-0.60833791	-0.8268020853	 0.091071
H	 1.9216968924	-0.250061563	 0.9018056942	 0.111609
