18
gdb 69704	3.74119	1.39314	1.22727	3.8939	75.79	-0.2368	-0.005	0.2318	1052.8552	0.147642	-401.915998	-401.908316	-401.907372	-401.947919	30.252	
C	-0.0809631094	 1.54210803	 0.0370685902	-0.500566
C	 0.021820271	 0.0445576058	 0.01864828	 0.330114
C	-0.8214332926	-0.8587118198	 0.8884316323	-0.353463
C	 0.6744468927	-0.9278234941	 1.0120992027	-0.067164
N	 1.2841756944	-1.6981285371	-0.1062777308	-0.138663
C	 0.71455347	-0.7498109355	-1.1144734261	-0.034472
C	 0.0588847364	-1.9309522907	-1.8720755611	-0.402062
C	 0.5599657346	-2.7920744163	-0.683000481	 0.380091
O	 0.3807318397	-3.90748126	-0.2964014378	-0.308798
H	 0.8618941825	 2.010301955	-0.2669122658	 0.124221
H	-0.8633395037	 1.8923476279	-0.6470669157	 0.126264
H	-0.3306733948	 1.9097892712	 1.037203495	 0.124846
H	-1.3133132637	-0.338480865	 1.7050404765	 0.119601
H	-1.3938424538	-1.6961635805	 0.5003546568	 0.130018
H	 1.2210975682	-0.7576742473	 1.9313668694	 0.10795
H	 1.4512650131	-0.1595513841	-1.6652207488	 0.086602
H	-1.0291650442	-1.9246822403	-1.9675211344	 0.138767
H	 0.5023872396	-2.165619379	-2.8426429516	 0.136712
