18
gdb 79796	2.5158	1.82695	1.38269	0.8065	78.94	-0.2168	-0.0496	0.1673	988.0378	0.146779	-401.826748	-401.818905	-401.81796	-401.858537	31.302	
C	-0.3428195784	 1.680124881	-0.2490997657	-0.513723
C	-0.1136410637	 0.2241833256	 0.0145936943	 0.285845
C	 0.5428347343	-0.8632195815	-0.7503756516	-0.135132
C	 1.5892573331	-1.1445290471	 0.4261655234	 0.095685
O	 2.81193988	-0.5218984774	 0.1710720066	-0.415268
C	 0.4846038472	-0.4691219803	 1.2734403239	-0.095251
C	-0.4041818561	-1.3771920232	 1.7297004572	-0.097602
C	-1.5139895084	-1.5213057679	 0.696100595	-0.188954
N	-0.9572575571	-0.8404348601	-0.5035218645	-0.157777
H	 0.5634385999	 2.2676027422	-0.0644241501	 0.115029
H	-0.6508974047	 1.8330679101	-1.2869835831	 0.136085
H	-1.1285116852	 2.0791098147	 0.402249017	 0.12956
H	 0.8318829055	-0.8842897057	-1.7973727036	 0.109354
H	 1.8266369577	-2.1788968383	 0.6835627739	 0.097754
H	 2.6506246287	 0.4164403119	 0.0186934126	 0.284436
H	-0.1169112171	-2.2222346483	 2.3499695839	 0.108171
H	-1.6989081525	-2.5860617444	 0.5111611145	 0.120419
H	-2.4798352933	-1.0509698416	 0.9187835763	 0.121369
