23
gdb 75141	3.19435	1.14309	1.03474	1.5683	87.91	-0.2353	0.0253	0.2606	1301.6966	0.205318	-388.325639	-388.316066	-388.315122	-388.359147	37.758	
C	 0.0319269563	 1.5368201755	 0.0379918464	-0.475251
C	 0.0046186485	 0.0339127924	-0.0319580752	 0.320207
C	-0.0173890226	-0.6284841731	-1.1938247975	-0.172347
C	-0.0277344442	-2.1322155115	-1.3190715329	-0.276028
C	 0.4280465915	-2.8292230339	-0.0240060472	 0.3524
C	 0.1894188872	-4.3346874073	-0.0838594325	-0.412649
O	 1.8445802171	-2.6711612443	 0.1365488208	-0.477152
C	-0.3087477125	-2.1891761458	 1.1677327605	-0.212933
C	 0.017287882	-0.6950957367	 1.2943079613	-0.315401
H	 0.9044757994	 1.8926388645	 0.6015471613	 0.1211
H	 0.0622794693	 1.9900979473	-0.956496471	 0.119042
H	-0.8513180828	 1.9229923262	 0.5631935384	 0.122599
H	-0.0289378213	-0.0623282721	-2.1235317855	 0.076233
H	-1.0332874318	-2.4797397551	-1.5969260922	 0.103765
H	 0.6354305519	-2.4480670254	-2.1342515529	 0.105469
H	 0.6793917346	-4.7653436391	-0.9622922742	 0.115697
H	 0.6057177032	-4.8158010148	 0.8061277964	 0.119785
H	-0.8799931887	-4.5604220156	-0.1339173822	 0.107114
H	 2.0554708163	-1.75338375	-0.0678314862	 0.279666
H	-1.3886357267	-2.3203790554	 1.025405816	 0.092835
H	-0.036432773	-2.7135460697	 2.0896478728	 0.09519
H	 1.0043501499	-0.5683355549	 1.7631766533	 0.109625
H	-0.6882485336	-0.2128768812	 1.9832347921	 0.101033
