15
gdb 125590	3.18236	1.44002	0.99758	4.0094	73.2	-0.2271	-0.0364	0.1907	1123.5983	0.114955	-450.175156	-450.167278	-450.166334	-450.207636	29.472	
C	 0.1048721072	 1.4938358454	-0.0009007229	-0.485179
C	-0.0326553753	 0.0034830158	-0.0531685472	 0.435024
N	 0.1243207643	-0.6107512511	-1.174201015	-0.283049
N	-0.0200144833	-1.9818335251	-1.1297827902	-0.301871
C	-0.3071003696	-2.7725127251	-0.0531400109	 0.387091
O	-0.4163613465	-3.9817959949	-0.1146693077	-0.371465
C	-0.4845179671	-2.0180595136	 1.240353659	 0.287025
N	-0.7550868	-2.5595207772	 2.3558480865	-0.518868
N	-0.3258869783	-0.6439725132	 1.1245082763	-0.390708
H	 0.9065209503	 1.789727532	 0.6850843513	 0.144492
H	 0.3354779474	 1.8667620822	-0.9980374486	 0.164361
H	-0.8223935163	 1.9610458189	 0.349323369	 0.144482
H	 0.1068658695	-2.4424264508	-2.0196098602	 0.274035
H	-0.8256919005	-3.568072281	 2.2067041127	 0.247827
H	-0.439308352	-0.1137218223	 1.9776982781	 0.266804
