16
gdb 50029	3.12158	1.27171	1.0449	4.6819	72.82	-0.2527	-0.049	0.2037	1143.8078	0.12269	-437.883036	-437.874704	-437.87376	-437.916612	30.009	
O	 0.4446560255	 0.0910026258	 0.7379397931	-0.273743
C	 0.2408999073	 1.1705092891	 0.2491928483	 0.153787
N	 1.1650217396	 1.8578291519	-0.5421213906	-0.127594
C	 2.5646080618	 1.9466078894	-0.2245809038	-0.289527
C	 1.6797879119	 3.1718424697	-0.2537706046	 0.234361
C	 1.7303945245	 4.4182685321	-1.1545836238	-0.332051
C	 1.6357014129	 5.3184514141	 0.1204137119	-0.342905
C	 1.3935984795	 4.0450470702	 0.9577757062	 0.354325
O	 1.0480996436	 3.8162216553	 2.0798971733	-0.301016
H	-0.7262126227	 1.701666233	 0.3045680761	 0.095994
H	 2.8793854966	 1.5731812526	 0.7469442635	 0.155313
H	 3.2554350051	 1.787920981	-1.0481810915	 0.136902
H	 2.6378412548	 4.5297170056	-1.7493898699	 0.122392
H	 0.8601756396	 4.5019725289	-1.8085187835	 0.129479
H	 2.5652756596	 5.8271480269	 0.3907223169	 0.142667
H	 0.8195395806	 6.0439278545	 0.1517020984	 0.141616
