20
gdb 113994	4.03266	0.6377	0.59514	2.0986	82.16	-0.2492	0.0539	0.303	1864.5953	0.169623	-403.082668	-403.072589	-403.071645	-403.118908	36.36	
O	-0.0863273303	 1.2621797785	-0.8477599782	-0.421423
C	 0.0021817449	 0.2615564762	 0.1530026705	-0.065628
C	-1.3124325574	-0.4708823102	 0.2937362142	-0.049512
N	-1.6660069258	-1.3343655125	-0.8533295875	-0.350102
C	-1.4657044101	-1.9398746014	 0.4774012254	-0.021476
C	-0.333334841	-2.9309633435	 0.6208013375	-0.192843
C	-0.7281159958	-4.3111976971	 0.0508824843	-0.348503
C	 0.3304690832	-5.30367362	 0.1816829578	 0.289866
C	 1.2212188117	-6.1016156235	 0.3033293332	-0.435184
H	-0.3670180142	 0.8060976821	-1.6501416539	 0.288728
H	 0.8156924147	-0.4439209608	-0.0633709336	 0.092633
H	 0.2490496299	 0.7784992557	 1.0864389873	 0.109101
H	-2.1119498112	 0.1467996691	 0.7005222387	 0.090718
H	-2.6557519735	-1.2556626758	-1.0679575191	 0.234466
H	-2.3706620494	-2.2383785775	 1.0086761662	 0.084583
H	 0.555430173	-2.5767530044	 0.0941474303	 0.120946
H	-0.0651390938	-3.0358683399	 1.6783351412	 0.111843
H	-1.6328016025	-4.6728034108	 0.5580081272	 0.124115
H	-0.9955649093	-4.1885645482	-1.0059061188	 0.144195
H	 2.0001829169	-6.8159180562	 0.4033502274	 0.193476
