16
gdb 9192	8.01361	0.83026	0.7629	1.7493	67.69	-0.2633	0.0105	0.2738	1434.3561	0.127409	-383.743667	-383.734285	-383.733341	-383.779721	31.504	
C	-0.0641851131	 1.357281509	-0.0774810859	-0.242246
O	 0.0264129037	-0.069368253	 0.0329931292	-0.235572
C	 0.6710571004	-0.5239287884	 1.124641784	 0.45124
O	 1.1500761505	 0.1932015215	 1.9676341301	-0.354529
C	 0.7052216035	-2.0382168747	 1.1360656299	-0.321881
C	 1.4420454987	-2.5864309476	 2.3686475883	-0.352078
C	 1.4775161806	-4.0433252575	 2.3868343284	 0.282982
C	 1.4939033323	-5.2450349622	 2.3791403287	-0.42539
H	 0.9320416686	 1.8049148392	-0.1169413633	 0.141704
H	-0.6062528534	 1.5489655821	-1.0033966592	 0.134853
H	-0.6031012868	 1.776559267	 0.7758654094	 0.141643
H	-0.3240270326	-2.4104633422	 1.0985690243	 0.145596
H	 1.1791381334	-2.3837581168	 0.2112888205	 0.145507
H	 2.4607896296	-2.1836930777	 2.389916777	 0.146785
H	 0.9584637514	-2.2091858538	 3.2765342816	 0.146968
H	 1.5178009632	-6.3063413348	 2.3870430471	 0.194418
