20
gdb 57917	3.25671	1.11138	0.92678	4.5533	77.22	-0.2361	0.0242	0.2602	1324.0218	0.169693	-440.283106	-440.272998	-440.272053	-440.319958	34.438	
C	 0.1055871991	 1.4948305439	 0.1243536912	-0.343787
N	 0.0478051145	 0.0433069773	 0.0874691716	-0.091168
C	 0.2170596494	-0.624141292	 1.3629657591	-0.337671
C	-0.145195883	-0.5848755633	-1.1190865096	 0.379424
O	-0.3204207116	 0.0237975775	-2.1575715535	-0.366199
C	-0.1595576381	-2.1226635597	-1.1029986605	 0.007815
C	-1.5447065582	-2.756461351	-0.7951876238	-0.283381
C	-1.5068076584	-3.1634000729	-2.2825166694	-0.065153
O	-0.1629729812	-2.6617852129	-2.4281423188	-0.257015
H	 1.0731030734	 1.833688541	 0.5167789804	 0.12009
H	-0.0266570145	 1.8665020513	-0.8903274494	 0.171666
H	-0.6850688295	 1.8987535586	 0.7695205663	 0.118206
H	-0.4648389796	-0.1900488617	 2.105227359	 0.1278
H	-0.008824757	-1.6868078835	 1.2932280871	 0.144904
H	 1.2412206175	-0.5111174765	 1.7457491863	 0.126796
H	 0.6854055122	-2.5166318927	-0.5264733985	 0.093445
H	-1.5130558679	-3.5889987224	-0.0904920949	 0.113158
H	-2.3335769579	-2.0613825269	-0.5039967062	 0.119962
H	-1.5685122417	-4.2365267737	-2.495198931	 0.104128
H	-2.2112617874	-2.6245045804	-2.9266132853	 0.11698
