23
gdb 112899	2.39487	1.16119	0.87724	1.8974	82.12	-0.2381	0.0746	0.3128	1409.5734	0.205126	-425.438758	-425.428692	-425.427748	-425.473894	37.537	
C	-0.0424601582	 1.4788451714	 0.2647257074	-0.398471
C	 0.0587117917	-0.0034732289	-0.0574064048	 0.15165
C	 1.1002057388	-0.3913810949	-1.1087150174	-0.231491
C	 1.3858283208	-1.8520679831	-0.7359332126	 0.004485
C	 2.6644188125	-2.4318761781	-1.3206594955	-0.115154
O	 2.5077602115	-2.4578229878	-2.7337538997	-0.424591
C	 1.2906499491	-1.824386106	 0.8121729537	 0.121718
C	 2.6093008312	-1.6598099263	 1.5679721788	-0.393896
O	 0.4482243947	-0.7088663525	 1.1267202191	-0.293234
H	 0.9308166042	 1.8704884093	 0.5768074081	 0.11489
H	-0.3822013066	 2.039855476	-0.6119653894	 0.111212
H	-0.7554763156	 1.6472742516	 1.0768029012	 0.123085
H	-0.9316479935	-0.3681922241	-0.3804926704	 0.062309
H	 0.7443531245	-0.2758722262	-2.1339333799	 0.111882
H	 2.0026102759	 0.2224721555	-0.9909659447	 0.092426
H	 0.5595930604	-2.4663128595	-1.1148479836	 0.085633
H	 3.5304435679	-1.8169054348	-1.0322883616	 0.087825
H	 2.8338409914	-3.4464124041	-0.9238963762	 0.086294
H	 3.3216012646	-2.793937783	-3.1201816376	 0.286491
H	 0.7973615672	-2.7386211623	 1.1715477914	 0.071102
H	 3.1674296912	-0.7867937208	 1.2157021499	 0.113969
H	 2.3965711817	-1.5135085752	 2.6305189641	 0.124269
H	 3.2432660946	-2.5472935464	 1.4670042399	 0.107597
