22
gdb 101888	4.3478	0.57416	0.53616	2.3253	80.47	-0.2519	0.0315	0.2833	2040.0048	0.192742	-441.51027	-441.499172	-441.498228	-441.548262	38.662	
C	-0.4352612015	 1.4197022284	-0.0077321143	-0.407072
C	-0.0354767155	-0.0618347919	-0.0189416961	 0.02156
C	 0.9439132454	-0.3629537161	-1.165758926	-0.071085
O	 0.4170842485	-0.0895564882	-2.4537903366	-0.423365
C	 0.5808209798	-0.5172530775	 1.3147402441	-0.190293
C	-0.3987385939	-0.4921270691	 2.4952003765	-0.172304
N	 0.1940861979	-0.9935646837	 3.7253470171	-0.273013
C	 0.4489394688	-0.2056076242	 4.8042431928	 0.153646
O	 0.1897223392	 0.9763162634	 4.8887405314	-0.322405
H	 0.4362294954	 2.0611292857	 0.1738848657	 0.116394
H	-0.8817507575	 1.7101469154	-0.9641695036	 0.109796
H	-1.1744893972	 1.6412182538	 0.7665394091	 0.12886
H	-0.9376342742	-0.6606644008	-0.2093487459	 0.079857
H	 1.8874681429	 0.1824946024	-0.9968557252	 0.085533
H	 1.1859595027	-1.431590064	-1.16720771	 0.105286
H	 0.3981559325	 0.8641570602	-2.5730692641	 0.2855
H	 0.9643172669	-1.5410034533	 1.1991348508	 0.08521
H	 1.4465392348	 0.1108856888	 1.5619474866	 0.109482
H	-0.7230321723	 0.5256809489	 2.7184040609	 0.152683
H	-1.2915734422	-1.0829956807	 2.2523913987	 0.108037
H	 0.4846204906	-1.9577523912	 3.7668936011	 0.244942
H	 0.9275284688	-0.7782745765	 5.623819347	 0.072751
