19
gdb 126511	3.04368	1.00354	0.79486	3.8628	79.62	-0.2082	-0.0004	0.2078	1465.5415	0.159297	-419.206484	-419.197004	-419.19606	-419.24217	33.814	
C	 0.0122766013	 1.6243814609	-0.1902861851	-0.382866
C	 0.0646357861	 0.0965341326	-0.1338483166	-0.157734
C	-1.3096107395	-0.5306596394	 0.1746420854	-0.314498
C	-1.2943909807	-2.0198258284	 0.2092044588	 0.391918
C	-1.519102115	-2.9461841407	 1.1884097569	 0.029837
N	-1.9321673064	-2.7665488266	 2.5180217183	-0.610807
C	-1.3317554704	-4.1877602964	 0.5163934529	-0.00359
N	-1.0166738808	-4.0286806357	-0.745370803	-0.144231
O	-0.9978954741	-2.6616824665	-0.9502311905	-0.223206
H	 0.9971072999	 2.0456994276	-0.4129567958	 0.117587
H	-0.6805719667	 1.9685017608	-0.966045621	 0.119213
H	-0.323047146	 2.0479694898	 0.7633580346	 0.112158
H	 0.4255808748	-0.3034073724	-1.0873985272	 0.123038
H	 0.7844537835	-0.2276129876	 0.627396131	 0.099031
H	-1.6783712102	-0.1619749578	 1.139748134	 0.101836
H	-2.0359879365	-0.1909662581	-0.5758503245	 0.12646
H	-1.7401012397	-1.8350801422	 2.8638348724	 0.244714
H	-1.5118834001	-3.4388831329	 3.1473165873	 0.248669
H	-1.4182666995	-5.187600287	 0.9196494423	 0.122471
