25
gdb 100038	2.83513	1.00143	0.93891	1.6235	89.17	-0.2532	0.0752	0.3284	1454.4486	0.226289	-389.481325	-389.470271	-389.469327	-389.517131	41.424	
C	-0.1458823593	 1.2616873314	 1.7155285783	-0.410835
C	-0.2577061646	-0.2052854568	 1.2865564225	-0.171982
C	-1.6849444043	-0.7486664222	 0.9798587394	 0.224643
C	-2.5628258941	-0.665936578	 2.2378493031	-0.436537
C	-2.3367255894	 0.039847894	-0.1730870313	-0.415954
C	-1.4598736318	-2.1772178587	 0.4781566836	 0.06981
O	-1.1454990082	-3.2173543487	 1.4105438982	-0.277044
C	-2.2919577633	-3.3936914372	 0.5645204373	 0.065654
C	-3.6410795005	-3.5846563455	 1.2119312263	-0.428891
H	 0.9048668216	 1.5234853858	 1.8756976711	 0.114747
H	-0.5380371947	 1.9445828486	 0.9554601576	 0.116096
H	-0.6741911754	 1.4640506934	 2.6519079189	 0.119274
H	 0.3597379164	-0.3517056671	 0.3905191802	 0.089496
H	 0.1819694724	-0.8435597616	 2.0625620266	 0.111534
H	-2.5384244331	 0.3441021682	 2.65556459	 0.110707
H	-3.6085855795	-0.8894983625	 2.0135062228	 0.112306
H	-2.2128208645	-1.3627974637	 3.0040713704	 0.129396
H	-1.7048681714	 0.0364124444	-1.0685995891	 0.1097
H	-3.3041164096	-0.3958187173	-0.4443607739	 0.112923
H	-2.5118589611	 1.0826419563	 0.1067578998	 0.117221
H	-0.7803736295	-2.1725156684	-0.3817030963	 0.076662
H	-2.1111779663	-4.114199503	-0.2391278513	 0.082608
H	-3.7634560375	-2.9820763097	 2.1094654901	 0.133856
H	-4.442366552	-3.3364404477	 0.5068352646	 0.119963
H	-3.7642043403	-4.6366309041	 1.4914779911	 0.124645
