14
gdb 45947	2.31679	1.99364	1.16139	3.4789	63.33	-0.2504	-0.0613	0.1891	988.026	0.100833	-473.84977	-473.842137	-473.841192	-473.882271	27.905	
O	 0.020281842	 0.0127883673	-0.0838144009	-0.293571
C	 0.0060054592	 1.212111516	-0.0310568247	 0.331021
C	-1.2495785498	 2.0981390341	-0.0100976552	-0.283386
N	-0.7079822394	 3.4456978778	-0.0172874924	-0.351164
C	 0.6585907452	 3.5580936949	-0.0190274088	 0.362242
O	 1.3021774574	 4.5810290073	-0.0311875376	-0.366352
C	 1.1879896828	 2.1414055626	 0.0240946731	 0.204362
C	 2.4544331066	 1.7966685561	 0.7047495342	-0.215845
O	 2.3651730554	 1.8154241517	-0.7057547424	-0.243405
H	-1.8727500221	 1.8806698598	-0.8860849157	 0.152004
H	-1.8422214493	 1.8800499226	 0.88743709	 0.147997
H	-1.2824942285	 4.2740548538	-0.0182020248	 0.2642
H	 3.0199209224	 2.6126796746	 1.1504618334	 0.149507
H	 2.5399562081	 0.8111895714	 1.1588423419	 0.14239
