12
gdb 25138	3.86079	1.29369	0.969	2.9938	75.71	-0.2621	-0.0948	0.1673	1106.8417	0.077534	-431.654926	-431.647622	-431.646678	-431.687184	26.724	
N	-0.005878393	 1.3241800828	 0.0103836451	-0.509024
C	-0.039705106	 0.0652956073	 0.0032363192	 0.435001
O	 1.1926977733	-0.6694456315	-0.0070690699	-0.208949
C	 1.1323095083	-1.9992398499	-0.0144079807	 0.147871
N	 0.0718307188	-2.7145439474	-0.0133915363	-0.310209
C	-1.1111081779	-1.9664415603	-0.0037346997	 0.152576
N	-1.1991073873	-0.6737983327	 0.0044770335	-0.28509
C	-2.3127935735	-2.7380073439	-0.0013228355	 0.278507
C	-3.3140610141	-3.403472228	 0.0005474238	-0.311222
H	 0.955068523	 1.6627785231	 0.007674611	 0.23602
H	 2.1211825189	-2.451741195	-0.0217432946	 0.161012
H	-4.2044761105	-3.9840943443	 0.0022200843	 0.213508
