17
gdb 11406	3.97399	1.55137	1.22874	2.0626	66.03	-0.2504	0.0288	0.2792	1013.4771	0.141832	-401.023104	-401.014929	-401.013985	-401.055998	28.969	
C	-0.1063451947	 1.4228808794	 0.0622501455	-0.244472
O	-0.0376072824	 0.0063547422	 0.0382049321	-0.227965
C	 0.7389728573	-0.5422160803	 1.0487115703	 0.187045
C	 0.7132009896	-2.0789529743	 0.939715542	-0.208606
N	 2.0391734692	-2.451485701	 0.4372341309	-0.303084
C	 2.7293105709	-1.3859493595	 0.4304285776	 0.403562
C	 4.1528496705	-1.2465605552	 0.0157570823	-0.476471
O	 2.1358952762	-0.2263141321	 0.8597140017	-0.262582
H	 0.876523933	 1.8750315223	-0.1127583446	 0.128626
H	-0.7902322906	 1.7209878796	-0.7347586084	 0.132333
H	-0.4967085706	 1.7853061244	 1.0249468229	 0.109321
H	 0.4565608138	-0.1275590506	 2.0255957465	 0.076559
H	 0.5300921156	-2.5591445724	 1.9069153328	 0.115079
H	-0.0744499072	-2.3906973703	 0.2483857722	 0.129354
H	 4.544985481	-2.2185929747	-0.2813187736	 0.152561
H	 4.2371769819	-0.544074007	-0.8193964995	 0.14487
H	 4.7500348564	-0.8447396806	 0.8404788593	 0.14387
