17
gdb 49919	4.44237	0.83672	0.76082	1.038	76.74	-0.2553	-0.0422	0.2131	1441.1919	0.134599	-421.852286	-421.843652	-421.842708	-421.88731	30.463	
O	-0.1675288981	 0.0143295238	 0.0713079659	-0.241607
C	 0.0047473735	 1.1965306917	-0.0590155274	 0.15534
C	 1.3504395684	 1.8990896718	 0.0277048899	-0.100941
C	 1.5885783651	 2.8502398048	-1.1800090145	-0.288723
C	 2.1576145523	 4.1780015813	-0.6028875159	-0.10095
C	 1.4927180463	 5.3977379789	-1.2211072859	 0.155337
O	 2.0743787445	 6.3448201374	-1.6782342013	-0.241614
C	 1.8472644467	 4.0570738927	 0.8753216975	-0.090999
C	 1.4171768763	 2.8428195994	 1.2112953605	-0.091034
H	-0.8482370244	 1.8905854464	-0.2516984191	 0.07539
H	 2.1135602104	 1.1162112309	 0.1077926867	 0.106697
H	 2.2442931646	 2.4097732427	-1.9323768363	 0.13016
H	 0.628410072	 3.0538206549	-1.6733697127	 0.111881
H	 3.2358800693	 4.2849429469	-0.768948135	 0.106709
H	 0.3773452655	 5.350442219	-1.2099209327	 0.075395
H	 2.0153077742	 4.8751379883	 1.5668580894	 0.119489
H	 1.1808080834	 2.5191121191	 2.218786381	 0.119472
