18
gdb 96987	3.44374	1.38447	1.07879	1.2101	80.22	-0.2318	0.0033	0.235	1129.3511	0.149389	-398.124401	-398.116482	-398.115538	-398.157215	29.522	
C	 0.5288856764	 1.4941087237	 0.3706402429	-0.340388
N	 0.3345528256	 0.0558062971	 0.2919845745	-0.28862
C	 0.4837609614	-0.5200656868	-0.8088341736	 0.391962
C	 0.3907094501	-1.9690484506	-1.2614925691	-0.362413
C	 0.8513459571	-1.4671313539	-2.6595248013	 0.012994
C	-0.1264346098	-1.4007383937	-3.8568489809	-0.191877
N	-0.6134073718	-0.0073015658	-3.9058808787	-0.213056
C	-0.0723066489	 0.6308022355	-2.9488792203	 0.026136
N	 0.8623059444	-0.0583592137	-2.1405780464	-0.151934
H	 1.0473870693	 1.7347340264	 1.3036918514	 0.131333
H	 1.1047706854	 1.905254374	-0.4704126518	 0.118619
H	-0.4445896595	 1.9978285836	 0.4065744085	 0.131044
H	 1.0460829193	-2.671780558	-0.7427496076	 0.132045
H	-0.6324995217	-2.3560117429	-1.2454296445	 0.134577
H	 1.8495264207	-1.8055299745	-2.9432193744	 0.096575
H	 0.3723206267	-1.6457948743	-4.7995439925	 0.122158
H	-0.9828276261	-2.0793204171	-3.7606828736	 0.117234
H	-0.2882584186	 1.671455071	-2.7282594527	 0.13361
