20
gdb 10232	2.73771	1.16772	0.91252	2.1473	67.73	-0.2487	0.0692	0.3179	1305.0978	0.174844	-423.254516	-423.244375	-423.243431	-423.290238	35.126	
C	-0.1768505181	 1.3219591328	 0.0797463001	-0.242482
O	 0.0249095213	-0.0766081009	 0.0490130122	-0.257953
C	 0.7160642775	-0.6086492528	 1.1865835716	 0.078801
C	-0.3020352687	-0.8575725856	 2.307942801	-0.06658
O	-1.3587875723	-1.6835324026	 1.8600748875	-0.420517
C	 1.4144739555	-1.8916272196	 0.7383871671	-0.203348
C	 2.4263381605	-1.6766479556	-0.3881385554	-0.066418
O	 3.1158696397	-2.8696401129	-0.7320465622	-0.419327
H	 0.7796207543	 1.8629354681	 0.1267135722	 0.11356
H	-0.6902898177	 1.5923717377	-0.8462369521	 0.131498
H	-0.7963941373	 1.642069529	 0.9292737482	 0.113256
H	 1.4665854537	 0.1209987454	 1.5324800366	 0.066424
H	 0.1803385002	-1.3673638328	 3.148628066	 0.10874
H	-0.6824657917	 0.1060858215	 2.6846115828	 0.083831
H	-1.6122469955	-1.32989871	 0.9977326734	 0.286025
H	 1.9297892434	-2.3324606953	 1.5993836168	 0.105962
H	 0.648118894	-2.6103351916	 0.4241328411	 0.103773
H	 1.925231721	-1.2327952925	-1.2587606003	 0.101876
H	 3.202986981	-0.9729050938	-0.0658163998	 0.102463
H	 2.4692524691	-3.4875506585	-1.0876724267	 0.280418
