18
gdb 66637	3.4204	1.8438	1.68884	0.2457	72.93	-0.234	0.0915	0.3255	878.8089	0.150577	-401.918473	-401.912105	-401.911161	-401.948871	26.861	
C	-0.1149108545	 1.4892451918	-0.0265699653	-0.527835
C	 0.0660889714	 0.0064105138	 0.0424783546	 0.370877
C	 0.7848156562	-0.8788939849	-0.9037464106	-0.122497
C	 1.4338210784	-2.0049485869	-0.056890895	 0.043934
C	 0.2790187873	-3.0234261993	 0.0437749116	-0.214838
C	-0.7287721013	-1.9404439145	 0.4125255984	-0.031006
C	 0.1306405497	-0.9258632693	 1.2697146426	-0.016328
O	 1.4477531398	-1.4644100491	 1.2776717265	-0.254168
N	-0.7130017165	-0.987645037	-0.7684930898	-0.194643
H	 0.7448009759	 2.0057480953	 0.4143258578	 0.129199
H	-0.2150895461	 1.8152289452	-1.0661072808	 0.132114
H	-1.0146987034	 1.8053506874	 0.5122938923	 0.124463
H	 1.1632514385	-0.5464234267	-1.8616459299	 0.095944
H	 2.4261507049	-2.3451206331	-0.3436589075	 0.081846
H	 0.0263813301	-3.5026708068	-0.9054595912	 0.111228
H	 0.4586924622	-3.7686019627	 0.8215012519	 0.108545
H	-1.7295214976	-2.2146220545	 0.7371582666	 0.080242
H	-0.173415875	-0.5947324086	 2.2599832276	 0.082925
