15
gdb 70168	2.69143	1.76051	1.20035	4.4742	68.89	-0.2477	-0.0663	0.1814	991.7589	0.112898	-453.946853	-453.939129	-453.938185	-453.978911	29.824	
O	 0.1193179447	 1.3533722933	-0.2282762728	-0.468953
C	-0.0019227301	-0.0076229549	-0.0452604396	 0.352139
C	-0.4730277227	-0.8829069047	-1.2043934628	-0.353059
C	-1.3112649053	-0.7546357425	 0.04306201	-0.098096
N	-1.1363477413	-1.7959237345	 1.0350388935	-0.337009
C	 0.1742363893	-1.8808633419	 1.493803994	 0.263016
N	 0.7606367827	-2.7583382552	 2.2022751388	-0.505077
C	 0.8737807628	-0.6238219648	 0.9919964043	 0.300827
O	 1.8783905085	-0.1127083759	 1.4188827747	-0.319037
H	 0.9291482319	 1.6046506725	 0.2410638048	 0.302674
H	-0.7763900148	-0.3010075764	-2.0684199807	 0.143439
H	 0.0150253451	-1.8278965646	-1.4196265969	 0.131227
H	-2.2604893402	-0.2322517489	 0.0343668324	 0.127587
H	-1.6476397647	-2.6595738135	 0.9111469389	 0.245674
H	 0.1342293941	-3.529560768	 2.4459858514	 0.214647
