19
gdb 113781	3.08751	0.99094	0.96359	1.1621	71.01	-0.2675	0.0639	0.3314	1313.2921	0.15646	-460.11065	-460.101084	-460.10014	-460.14617	34.589	
C	-0.4917392748	-0.9514638819	 3.4086016972	-0.452574
C	-0.2811358803	-0.8528810393	 1.9152674771	 0.354175
C	 0.8591750871	-0.104051805	 1.3581024288	-0.212396
O	 0.8833581398	-1.5303118177	 1.4193896939	-0.274456
C	-1.4939710709	-1.0837317432	 1.0351412525	-0.023707
O	-2.7780922264	-1.1099901823	 1.6603941003	-0.262536
C	-2.5077530448	-0.0663468779	 0.7075255428	 0.036747
C	-2.5088240716	 1.3339717548	 1.2666556715	-0.089489
O	-3.8210424348	 1.746717177	 1.6059870444	-0.416545
H	 0.4623588121	-0.829356882	 3.9266992123	 0.125958
H	-1.1917011444	-0.1915191157	 3.7644947438	 0.129168
H	-0.90936961	-1.9286596618	 3.6686491036	 0.139084
H	 0.7908123438	 0.3192312732	 0.356268675	 0.112909
H	 1.5476470305	 0.40833785	 2.0297124528	 0.115423
H	-1.3289169245	-1.8799834573	 0.3080902449	 0.112144
H	-3.0609425125	-0.180248778	-0.2260523262	 0.102636
H	-1.8274198193	 1.4013605142	 2.1263277979	 0.095147
H	-2.1527208348	 2.0362597423	 0.5048636632	 0.114565
H	-4.1681557141	 1.0913971807	 2.2219838642	 0.293749
