12
gdb 133475	3.55058	1.21512	1.07523	4.4851	52.58	-0.2665	-0.0039	0.2626	1047.6512	0.076234	-563.193318	-563.186181	-563.185237	-563.226666	25.779	
F	-0.0928119298	 0.0733028758	-0.0547240537	-0.072872
C	-0.0506327404	 1.4125782619	 0.0348041955	 0.241767
F	 1.2443029426	 1.7708094052	 0.0056028041	-0.080587
F	-0.640404093	 1.900008707	-1.0609357232	-0.064482
C	-0.6926713237	 1.9122768245	 1.2919579568	 0.175334
N	-2.0172802619	 1.9535831619	 1.4014304011	-0.277189
N	-2.2216158978	 2.4125052758	 2.6432881976	-0.178203
C	-1.0749006649	 2.6654090232	 3.3216456809	-0.016096
C	-0.0432587515	 2.3481436529	 2.4653193158	-0.289368
H	-3.1680147186	 2.5405798707	 2.9614351154	 0.285254
H	-1.0831871223	 3.0453061688	 4.3305824765	 0.146823
H	 1.0147987412	 2.4208691122	 2.6493992933	 0.129618
