19
gdb 111130	3.36461	1.28077	1.1791	2.7395	73.95	-0.2515	0.074	0.3256	1105.7002	0.160785	-422.963468	-422.956007	-422.955063	-422.99553	29.938	
O	-0.1511513463	 1.4764200125	-0.2149456522	-0.421265
C	 0.0035812229	 0.0890466164	 0.0605057358	-0.14132
C	-1.3822522636	-0.5268428649	 0.0226528738	 0.076492
C	-2.0689372232	-0.6451783227	-1.3723665608	-0.081062
C	-1.2313349912	-1.9575224679	-1.5789559259	-0.236331
C	-1.4666826116	-2.0824559879	-0.0302132724	-0.113635
C	-2.9976351989	-2.3180074621	-0.0506228707	 0.039918
O	-3.8173368484	-1.2191645095	 0.375188281	-0.251078
C	-3.4249390582	-1.2953769915	-1.0059547965	 0.037613
H	 0.7122147452	 1.8941222222	-0.1459714956	 0.286494
H	 0.691277645	-0.376718951	-0.6596094472	 0.083108
H	 0.430636415	-0.0710876594	 1.0643291344	 0.086254
H	-1.9913893619	-0.0519793302	 0.7907373996	 0.103301
H	-2.0648197041	 0.1768021064	-2.085767068	 0.075278
H	-1.6685704289	-2.7347539928	-2.2134921807	 0.091577
H	-0.1929082426	-1.7916620447	-1.8684493414	 0.101687
H	-0.8597794489	-2.7251919258	 0.6083509382	 0.061248
H	-3.4291017543	-3.3078219819	 0.0526530401	 0.100754
H	-4.2291332959	-1.4016696052	-1.7259649215	 0.100967
