17
gdb 55345	2.75079	1.26963	0.989	6.965	70.99	-0.2385	0.0079	0.2464	1196.547	0.135676	-455.184344	-455.174984	-455.17404	-455.220193	32.204	
N	 0.0708990035	 1.2757263708	 0.0759943195	-0.524885
C	 0.0905438998	-0.0820225757	-0.0374877472	 0.393991
O	 1.1131300878	-0.7334175514	-0.0831337944	-0.349213
C	-1.3007882425	-0.7156481172	-0.1604913957	-0.102018
C	-1.7752208635	-0.9199745893	-1.6413609629	-0.259162
C	-1.6819049979	-2.4527657082	-1.3951985079	-0.157308
N	-1.3261586496	-2.1638202863	-0.0051658273	-0.023069
C	-0.7056202335	-2.9835757531	 0.8829378159	 0.144774
O	-0.5837244852	-4.1787490981	 0.7229162327	-0.329304
H	 0.948381505	 1.7666648808	 0.1292453443	 0.268783
H	-0.7820549468	 1.7988269756	 0.1684500679	 0.262959
H	-2.0192593607	-0.1844739087	 0.4771568674	 0.090693
H	-2.7798557761	-0.546231437	-1.8396219172	 0.119157
H	-1.0866675152	-0.5301339867	-2.3910938928	 0.131102
H	-2.6142489496	-3.0132055248	-1.508885798	 0.122488
H	-0.8855988814	-2.9683634738	-1.9398602012	 0.137405
H	-0.3526138742	-2.440868577	 1.780818517	 0.073605
