16
gdb 131483	3.73849	1.15896	0.97683	2.5254	69.93	-0.25	-0.0183	0.2316	1176.2708	0.124635	-437.852579	-437.844746	-437.843802	-437.88599	29.056	
O	 0.0339157442	 1.2385192651	 1.1103280566	-0.421883
C	 0.0679735777	 0.1293751674	 0.2658736295	 0.148061
C	-0.5216410437	-1.1951922962	 0.6542203606	-0.337925
C	-1.1683098074	-0.3640577169	-0.4548929125	-0.211089
C	-2.4679157114	 0.3016067843	-0.2088510141	 0.113896
C	-2.7706602355	 1.6309094519	-0.2618715116	-0.003569
O	-4.0684011821	 1.8390591804	-0.0021932145	-0.161549
N	-4.6831819566	 0.6121427578	 0.2384323257	-0.128638
C	-3.733210813	-0.2783330825	 0.1153563455	-0.044904
H	-0.8287563752	 1.2701069901	 1.5381951151	 0.28309
H	 0.9995446165	 0.129248359	-0.2892925029	 0.114079
H	-0.0032079517	-2.1089632433	 0.3850605728	 0.120403
H	-1.0495323833	-1.2410438641	 1.6019546957	 0.118344
H	-1.0191928982	-0.7267174178	-1.4687518377	 0.108409
H	-2.1791202102	 2.5096158742	-0.4670619101	 0.166937
H	-3.96893795	-1.3234754693	 0.2612607918	 0.136338
