23
gdb 59768	2.16081	1.47434	0.97557	0.8999	81.5	-0.2368	0.0738	0.3107	1289.5395	0.205164	-425.43753	-425.42753	-425.426586	-425.472483	37.514	
C	 0.2576166459	 1.5531582666	 0.0749150112	-0.399676
C	 0.2321909378	 0.0268581833	 0.1068212317	 0.103065
O	-1.003935798	-0.4582147456	 0.6279030636	-0.42818
C	 0.5020003142	-0.5890365907	-1.2821558966	 0.113633
O	 1.6203001244	 0.0778950639	-1.882342421	-0.275522
C	 2.6730212781	-0.8438345975	-2.1618499405	-0.071036
C	 2.3861816722	-2.0715101932	-1.3034752037	-0.229785
C	 0.8485054327	-2.1028056286	-1.3140950304	 0.000862
C	 0.2186466857	-3.0095102519	-0.2576973062	-0.39861
H	 1.2254435872	 1.9197534265	-0.2707122355	 0.136127
H	-0.5072706658	 1.9364201942	-0.6135926076	 0.1015
H	 0.0504265808	 1.9500356973	 1.0725703186	 0.115412
H	 0.9936066452	-0.3289428118	 0.8118521352	 0.084426
H	-1.711411088	-0.0452786734	 0.1201212167	 0.276615
H	-0.3885088381	-0.388421052	-1.8998704776	 0.054331
H	 2.6703136637	-1.1040485179	-3.2318349795	 0.089868
H	 3.6263850583	-0.3550587945	-1.9359597624	 0.102453
H	 2.8340690541	-2.9865536922	-1.6998577933	 0.0997
H	 2.7591581596	-1.9272748172	-0.2823570115	 0.10289
H	 0.5386736679	-2.4687820256	-2.3022933036	 0.075566
H	 0.515466768	-2.7240758153	 0.7552627916	 0.123074
H	-0.8721580682	-2.976350612	-0.2949442189	 0.120738
H	 0.5379161023	-4.0444772324	-0.4217491803	 0.102547
