23
gdb 73288	2.75797	1.76098	1.26765	0.1184	89.61	-0.2717	0.0958	0.3675	1091.1319	0.207056	-351.135607	-351.127404	-351.12646	-351.16747	34.114	
C	 0.033509457	 1.5213827568	-0.0599565802	-0.500809
C	 0.033223937	 0.0079110756	 0.0074994589	 0.381976
C	 0.4477913056	-0.7149261461	-1.2791892901	-0.288058
C	 0.3262945279	-2.1855278932	-0.8288880125	-0.288051
C	-0.1324465098	-1.9980398987	 0.6217448749	 0.381963
C	-0.3623574034	-3.2724555169	 1.4079744282	-0.500808
C	 0.6439208001	-0.7717554869	 1.2309416157	-0.126648
C	-0.6084500779	-0.4125281183	 2.0661185192	-0.269228
C	-1.1480223199	-0.796335523	 0.6673471775	-0.126537
H	 1.0322960832	 1.8944442963	-0.3156032654	 0.113933
H	-0.6518701237	 1.8713929704	-0.8408918394	 0.113955
H	-0.2656363292	 1.9951231919	 0.878498482	 0.115653
H	-0.2171814533	-0.4659996817	-2.1137707995	 0.090992
H	 1.4643123797	-0.44299482	-1.5848315736	 0.090994
H	-0.4062425393	-2.753471796	-1.4132789776	 0.090993
H	 1.2753007561	-2.730477275	-0.8844968511	 0.090995
H	 0.5564992157	-3.8691554561	 1.4498985004	 0.113936
H	-0.6863584442	-3.0925265785	 2.436207023	 0.115653
H	-1.1271975765	-3.8904906814	 0.9230385112	 0.113952
H	 1.6897521476	-0.7598954156	 1.5517689466	 0.054261
H	-0.8606952416	-1.0740077657	 2.8969904276	 0.088315
H	-0.7200881867	 0.6282674882	 2.3756633013	 0.088321
H	-2.1891562343	-0.8130977061	 0.3317824932	 0.054245
