16
gdb 44143	3.33095	1.20311	1.0655	2.1299	69.42	-0.2525	-0.0172	0.2353	1138.3383	0.123773	-437.832237	-437.824605	-437.82366	-437.865138	28.494	
O	-0.1491652129	-0.0103380311	 0.0491287093	-0.290283
C	-0.1463512455	 1.1793545283	 0.0617786371	 0.398016
C	-1.2138289499	 2.2877573254	 0.0722548971	-0.385452
C	-0.0275795878	 3.2480709828	 0.0403070963	-0.04388
C	 0.9526106158	 3.0076675334	 1.1107504245	-0.028189
C	 0.6385853143	 2.516394296	 2.4875736228	 0.07051
C	 1.710368362	 2.3565718454	 3.4784461789	-0.182144
O	 0.832651953	 3.4836961377	 3.521252562	-0.234046
N	 0.9838916892	 2.0903732429	-0.0795205963	-0.201057
H	-1.7864199259	 2.2821506875	-0.8587894153	 0.149214
H	-1.9061274979	 2.3308253679	 0.9158930347	 0.141231
H	 0.055759302	 4.0946518643	-0.6304553803	 0.1197
H	 1.8202543646	 3.6632605919	 1.1003781755	 0.121019
H	-0.255436949	 1.9060407151	 2.6054962583	 0.111749
H	 1.5893523228	 1.6362271302	 4.2851004478	 0.128061
H	 2.7385897551	 2.5749986124	 3.1945725975	 0.125551
