17
gdb 1251	7.00894	1.07185	0.98682	3.3221	62.23	-0.2472	-0.0172	0.23	1156.0424	0.145583	-346.867789	-346.859151	-346.858207	-346.90144	29.855	
C	 0.0439290907	 1.5716503603	 0.1233096596	-0.407978
C	 0.0074043109	 0.0464384348	 0.0398720973	 0.140556
O	 0.6548558867	-0.5510666861	 1.1610770319	-0.425019
C	-1.4219991021	-0.4920183867	-0.1287363689	-0.205175
C	-1.46079825	-2.0218978395	-0.2704055084	-0.268746
C	-2.8641194698	-2.5669116576	-0.178806789	 0.157533
O	-3.3980298686	-3.2620256407	-1.0043493269	-0.239677
H	 1.0715242707	 1.9194478358	 0.2580899974	 0.12872
H	-0.3624048579	 2.029203434	-0.7841457562	 0.121613
H	-0.5537829759	 1.9292192832	 0.9716683256	 0.108167
H	 0.6060030699	-0.2788324581	-0.8203136449	 0.094879
H	 0.2535921173	-0.1869333542	 1.9584916039	 0.277795
H	-2.0171955718	-0.1838790273	 0.744057367	 0.089789
H	-1.8869775965	-0.0205630862	-1.0028642144	 0.110929
H	-1.0150622244	-2.3516766922	-1.213426501	 0.118734
H	-0.874176532	-2.4487056728	 0.5546147928	 0.134069
H	-3.4070134672	-2.267322197	 0.7506642341	 0.063813
