19
gdb 31617	2.87981	1.20008	0.90184	2.1223	80.53	-0.1746	0.0496	0.2242	1308.3405	0.159127	-419.222781	-419.212992	-419.212048	-419.257713	35.359	
C	 0.3406044533	 0.853346312	 0.6532746234	-0.32557
N	-0.3894555017	 0.1172159654	-0.3870656872	-0.382642
C	 0.4117884715	-0.5501931774	-1.3347949101	 0.301041
C	 0.9693422178	-0.1234289215	-2.5290202387	-0.396105
C	 1.6610396927	-1.2345910992	-3.0802042416	 0.328405
O	 2.3588565731	-1.2927672743	-4.2545662743	-0.452685
C	 1.5217303079	-2.2954491844	-2.2165548836	-0.199902
N	 0.7447463363	-1.8700688557	-1.1543953799	-0.011962
C	 0.3402631297	-2.6946183736	-0.0376874723	-0.340649
H	 0.9277345967	 0.1509227156	 1.2520276034	 0.128178
H	 1.0292496479	 1.6129599548	 0.2533063537	 0.109759
H	-0.3782266615	 1.3426784027	 1.317589067	 0.115901
H	-1.0382702098	 0.735517554	-0.8580956651	 0.231928
H	 0.8861153981	 0.8690486134	-2.9479789822	 0.078182
H	 2.3228269148	-0.426039297	-4.6680770235	 0.292707
H	 1.9016435152	-3.3014038438	-2.2709679732	 0.11028
H	-0.4883946105	-2.1984895309	 0.4695970945	 0.154779
H	 0.0095078813	-3.6739493638	-0.3958388926	 0.1322
H	 1.1586316272	-2.8446883363	 0.6771869022	 0.126156
