16
gdb 105731	2.31341	1.52039	1.19175	2.1241	70.79	-0.2606	0.0006	0.2612	1073.5218	0.123678	-437.851634	-437.843111	-437.842167	-437.885173	31.357	
O	 0.0679292704	 1.3614510126	 0.0050172177	-0.415032
C	-0.0067668933	-0.0374388025	 0.0455052899	-0.071884
C	-1.4675705286	-0.5397308526	-0.0590958495	 0.010969
C	-1.5870306749	-2.0744223384	 0.2070495341	-0.154159
O	-2.3849273277	-2.1672828129	 1.4109172036	-0.216184
C	-2.6439751753	-0.8957284477	 1.7757141039	 0.127515
N	-2.2183123501	 0.0722064819	 1.0763939395	-0.2957
C	-2.0667587996	-0.1537082705	-1.3350393494	 0.36386
C	-2.5525732699	 0.1197302658	-2.3990313601	-0.468812
H	-0.5973074844	 1.6856065665	 0.6261835549	 0.298676
H	 0.5802245465	-0.4232700999	-0.7944991068	 0.115215
H	 0.4136885951	-0.4492615513	 0.9788075791	 0.085085
H	-2.1019492586	-2.6068925934	-0.5929323843	 0.140253
H	-0.6187878281	-2.5451190627	 0.4025510567	 0.126066
H	-3.2246590292	-0.8006055956	 2.6867994548	 0.152422
H	-2.9809516122	 0.3821679207	-3.3348584842	 0.201712
