23
gdb 116917	4.78511	0.54124	0.50928	0.0718	98.38	-0.2236	0.0551	0.2787	2280.8137	0.204178	-351.13136	-351.120504	-351.11956	-351.169157	38.797	
C	 0.0673056728	 1.5893638285	 0.0397717841	-0.38133
C	 0.0427655097	 0.0596924529	 0.04600634	-0.150603
C	-1.3903385754	-0.505542631	-0.035088614	-0.336008
C	-1.4361747936	-1.9638439965	-0.0338405513	 0.010376
C	-1.4407708108	-3.1702477863	-0.0274435768	 0.139393
C	-1.4438724279	-4.6051022355	-0.036017872	-0.188709
C	-1.8398896167	-5.3864687986	 1.2111347842	-0.287538
C	-2.7479775589	-5.3978952516	 0.0157019586	 0.018132
C	-4.0862656325	-4.6986794611	 0.0470366216	-0.405187
H	 1.0916413156	 1.9691087001	 0.1010881899	 0.113403
H	-0.3822017486	 1.990655467	-0.8755375579	 0.114849
H	-0.491032396	 1.9993829551	 0.8889640224	 0.114496
H	 0.6247459159	-0.3303759928	-0.796518448	 0.107386
H	 0.5222731111	-0.3223799336	 0.9541446061	 0.107652
H	-1.9768830375	-0.1185223671	 0.8097065281	 0.121251
H	-1.879224808	-0.1175751127	-0.9397209932	 0.120847
H	-0.6547144001	-5.0528148765	-0.6341180949	 0.103461
H	-1.2667793386	-6.2754550363	 1.450648079	 0.111963
H	-2.1478895035	-4.8014940566	 2.0708543076	 0.11986
H	-2.7289221554	-6.3094557218	-0.5760808315	 0.086602
H	-4.0253442698	-3.7603149824	 0.6049237297	 0.127784
H	-4.4315077713	-4.4592613689	-0.9645549515	 0.118458
H	-4.8454146104	-5.3303290945	 0.5212807799	 0.113462
