20
gdb 84992	2.36589	1.54875	1.24908	1.8497	76.08	-0.2584	0.022	0.2803	1112.4688	0.170492	-440.32078	-440.311621	-440.310677	-440.354174	35.289	
C	 0.6117963332	 1.3779047263	 0.201990845	-0.398628
C	-0.145523543	 0.0920004569	-0.1036994347	 0.10519
C	 0.4053040196	-0.7133868871	-1.2953621558	-0.262458
C	 1.3740812512	-1.7102261021	-0.6500191277	 0.29308
C	 1.4923686608	-3.0556321715	-1.3551466975	-0.439396
O	 2.6532891508	-1.0661903043	-0.5658775116	-0.46755
C	 0.8236515923	-1.8228644311	 0.771486493	 0.380403
N	 1.1896869565	-2.7110718992	 1.5937360595	-0.555674
O	-0.0424581085	-0.8137546536	 1.0289834295	-0.251217
H	 1.6827248082	 1.176396756	 0.2811005191	 0.145475
H	 0.4520794841	 2.1048966026	-0.6010230451	 0.116921
H	 0.2567784057	 1.8163640589	 1.138664196	 0.124319
H	-1.2128908206	 0.3022669811	-0.2168420497	 0.089688
H	-0.4028800797	-1.2529744565	-1.7960784818	 0.109501
H	 0.9140159577	-0.0868262071	-2.0299389684	 0.123811
H	 1.940936851	-2.9183002641	-2.3430880324	 0.120297
H	 2.1207493974	-3.7282355459	-0.7650231951	 0.137284
H	 0.5138203873	-3.5310901398	-1.4708714652	 0.117751
H	 3.1779049306	-1.5789989073	 0.0616206858	 0.288886
H	 0.7605244553	-2.5640871122	 2.5087464271	 0.222318
