16
gdb 94482	3.17993	1.10083	0.92948	2.0166	71.8	-0.2482	0.0098	0.258	1248.7738	0.124021	-434.057718	-434.048651	-434.047706	-434.092464	31.705	
O	 0.5422010366	 0.8736040219	 0.5361796453	-0.430059
C	-0.1358677118	-0.2340898288	 0.009855164	 0.031762
C	-1.4729128438	 0.099754132	-0.7194799759	-0.177371
N	-0.9119843215	-0.5806019054	-1.9034580962	-0.350241
C	 0.347644766	-0.7048262813	-1.3622720035	 0.412705
N	 1.5266634279	-0.9979563752	-1.7312432422	-0.365647
C	 1.8177749029	-1.3437178283	-3.1132101682	-0.276368
C	 1.0305577733	-0.6340601475	-4.1380556616	 0.245247
N	 0.3728328665	-0.0625274961	-4.8986783675	-0.326404
H	 1.4786615972	 0.7425911054	 0.3439074972	 0.29973
H	-0.2321464552	-1.0461931208	 0.7426922796	 0.096691
H	-2.3844225936	-0.3595364716	-0.3293707865	 0.116853
H	-1.6045201859	 1.1783726539	-0.8411633075	 0.131829
H	-1.1591591239	-0.4483075597	-2.8740218083	 0.272879
H	 2.8763381938	-1.1403097573	-3.3088149268	 0.159923
H	 1.6798422715	-2.4223518111	-3.275643312	 0.158473
