20
gdb 22449	2.45605	1.0322	0.80297	0.2659	86.68	-0.2393	-0.0306	0.2088	1486.2515	0.167196	-403.082119	-403.071415	-403.070471	-403.118	38.882	
C	-0.091253435	 1.5845780158	-0.0539058071	-0.402144
C	-0.0522146757	 0.0532080481	-0.0335482261	-0.163622
C	 0.770409348	-0.5577631369	-1.1807728519	-0.055835
C	 2.266963719	-0.1940985107	-1.1044994316	-0.396593
C	 0.6177834196	-2.0700222333	-1.269495461	 0.14854
N	 0.0682628553	-2.6925774156	-0.2885596839	-0.169929
O	 0.0070993636	-4.0661008491	-0.4893243487	-0.387305
C	 1.1064862241	-2.7178068278	-2.4438640637	 0.352785
C	 1.5259216313	-3.2065231241	-3.4612884569	-0.452799
H	 0.8974112925	 2.0265776494	 0.1029014183	 0.117852
H	-0.4766388541	 1.9615088009	-1.0083672735	 0.112404
H	-0.7458666563	 1.9618056144	 0.7378107988	 0.113955
H	 0.347188071	-0.2989759651	 0.9240564876	 0.107059
H	-1.0733850815	-0.3373993562	-0.0900465144	 0.10531
H	 0.3838724545	-0.1590890398	-2.1300070393	 0.089484
H	 2.8270985508	-0.6676618492	-1.9151027151	 0.128155
H	 2.4115140882	 0.886317054	-1.1835339515	 0.119285
H	 2.6951235786	-0.5293320728	-0.1536070296	 0.121136
H	-0.428356663	-4.3715885297	 0.3143263245	 0.308536
H	 1.8915738891	-3.6579903324	-4.350575235	 0.203726
