10
gdb 130786	3.26777	1.55382	1.05308	3.58	63.68	-0.2997	-0.1532	0.1466	990.9384	0.054026	-467.59237	-467.585483	-467.584539	-467.624276	24.254	
O	 0.0312058322	 0.0050226974	 0.3859282875	-0.283037
C	 0.0247052402	 1.150296443	 0.0495767243	 0.446476
O	-1.1566754628	 1.7547375985	-0.3309351351	-0.240457
N	-1.2296138293	 3.0780754003	-0.7312338228	-0.022802
C	-0.121099328	 3.736532027	-0.7333611985	 0.096795
N	 1.1339057261	 3.2839344861	-0.3849262781	-0.276067
C	 1.2036203029	 2.0509923035	-0.0117976453	 0.080024
C	 2.4689999978	 1.4901163995	 0.3704808505	 0.309269
N	 3.4863702665	 1.0357009072	 0.6788050845	-0.285151
H	-0.2001271656	 4.7701598275	-1.049812337	 0.17495
