16
gdb 44010	3.6901	1.4936	1.41847	4.3919	67.54	-0.2454	0.0413	0.2868	946.9342	0.126129	-437.884421	-437.877635	-437.87669	-437.915371	27.609	
O	 0.0430098833	-0.0435860597	 0.1412622558	-0.367024
C	-0.0196163213	 1.141960874	 0.0148027527	 0.444486
N	-1.160274138	 1.9371212482	-0.0933467405	-0.41071
C	-0.8451021736	 3.3188932165	-0.0635865058	 0.196074
C	-0.0599064672	 3.8690156391	 1.1178831475	-0.375318
C	 0.669701901	 3.2978532886	-0.0582368514	 0.343288
C	 0.7420876477	 4.2030935495	-1.2929422485	-0.288212
C	-0.8297429653	 4.2631059995	-1.2876788109	-0.269308
O	 1.1043963796	 1.9667161486	-0.0253719794	-0.271441
H	-2.0341621084	 1.5289259156	 0.1973512173	 0.263132
H	-0.0395093076	 4.9410834062	 1.288977674	 0.124414
H	-0.0663884332	 3.257586148	 2.0122503545	 0.136717
H	 1.2923619163	 5.1398573881	-1.1721777273	 0.110955
H	 1.1323357393	 3.6698006116	-2.1608375771	 0.130365
H	-1.2703337408	 3.8004353657	-2.1714562248	 0.122696
H	-1.2883009216	 5.2426335806	-1.1297971662	 0.109885
