17
gdb 27760	2.12398	1.92567	1.02966	3.0463	77.58	-0.1843	0.0415	0.2258	1133.0573	0.137179	-418.01906	-418.010744	-418.009799	-418.052638	30.354	
C	-0.0930317885	 1.5024814797	-0.1275847215	-0.48923
C	 0.0993422033	 0.0258293125	-0.0734247762	 0.295115
N	 0.005479015	-0.8140938601	-1.1057492946	-0.393891
C	 0.2499672349	-2.0816137023	-0.6446478159	 0.183176
O	 0.2236431462	-3.1525725774	-1.4720957473	-0.440068
C	 0.5011907868	-2.0291056425	 0.7018259492	 0.220144
C	 0.824324216	-2.4457947302	 2.1279068563	-0.384474
C	 0.6993942576	-0.9099279475	 2.4663041444	-0.173067
N	 0.4001281545	-0.6976430227	 1.0314927261	-0.039848
H	 0.806743797	 2.0445070184	 0.1863431107	 0.129193
H	-0.3256715616	 1.7888189279	-1.1541704375	 0.15265
H	-0.915853119	 1.832215085	 0.5175292821	 0.129148
H	 0.0132662184	-2.8033144013	-2.3465756434	 0.297517
H	 0.0853953728	-3.0775827551	 2.6275316025	 0.126383
H	 1.8201091918	-2.8636701355	 2.2970063121	 0.126367
H	-0.1252826543	-0.6378298907	 3.1295591934	 0.130453
H	 1.6196355489	-0.4226025179	 2.7975195797	 0.130431
