18
gdb 115117	3.30766	1.1922	0.90546	1.6775	75.68	-0.252	0.0021	0.2541	1258.9229	0.148163	-439.076287	-439.067769	-439.066825	-439.110197	31.492	
O	-0.1142773251	 1.5076937908	 0.2870539865	-0.42487
C	 0.0469186099	 0.118827461	 0.123045618	-0.063065
C	-1.2940895631	-0.6021075062	-0.0261274277	 0.03295
O	-1.9173214549	 0.048260369	-1.1545026947	-0.253238
C	-3.1834179799	-0.2649865782	-1.5459251055	 0.124507
N	-3.8248383406	-1.3452723795	-1.5742486612	-0.253813
C	-3.3518166994	-2.6715898368	-1.2538006839	-0.204704
C	-1.9969523055	-2.9451249888	-0.6611537224	-0.068824
C	-1.1215921225	-2.0874478226	-0.1488002184	-0.077451
H	-0.680454257	 1.7974025188	-0.4380049175	 0.289443
H	 0.6736363028	-0.1251832601	-0.7504119593	 0.099454
H	 0.5555354574	-0.2556248485	 1.0172641177	 0.113244
H	-1.9100032299	-0.3646056937	 0.8536137577	 0.108439
H	-3.6634412376	 0.6371889232	-1.9287492728	 0.118006
H	-4.1041325392	-3.1381437526	-0.5979776542	 0.132214
H	-3.4338900925	-3.249354403	-2.1871574282	 0.134196
H	-1.74610917	-4.0052247046	-0.6430087901	 0.097185
H	-0.1944150728	-2.4755717583	 0.267929826	 0.096327
