15
gdb 9697	3.53533	1.76475	1.62631	1.6262	66.85	-0.2545	0.0158	0.2703	852.4554	0.117986	-362.643523	-362.635925	-362.63498	-362.675477	28.222	
C	-0.1101498535	 1.612086414	-0.0187947225	-0.427992
C	 0.0187534965	 0.0876784402	-0.0295335619	 0.179605
C	 0.9432248945	-0.4471861456	-1.1812687911	-0.222441
N	 2.1269358446	-0.994609686	-0.5100106574	-0.260412
C	 1.9101185103	-0.8723055904	 0.7310599575	 0.118771
O	 0.7637448512	-0.305918188	 1.1742567922	-0.243436
C	-1.2860006183	-0.5638599363	-0.0012880758	 0.329581
C	-2.3669498922	-1.0879782086	-0.0158842625	-0.47698
H	 0.8852577048	 2.0652558776	-0.0258414683	 0.12987
H	-0.6572789085	 1.9469407189	-0.9045320144	 0.133532
H	-0.647338766	 1.9464114567	 0.8714749351	 0.140039
H	 0.4502785801	-1.2259964139	-1.769149309	 0.131328
H	 1.2306831694	 0.3588895926	-1.8643085449	 0.120317
H	 2.5829610187	-1.1889266806	 1.5206762177	 0.14296
H	-3.3202876717	-1.5566739508	-0.0202350147	 0.205256
