17
gdb 44589	3.29078	1.71834	1.37673	3.36	78.32	-0.236	-0.033	0.203	942.7507	0.138268	-384.668505	-384.661949	-384.661005	-384.699305	26.929	
O	 0.1750294659	 0.0743370149	 0.4360782229	-0.311794
C	 0.1355237677	 1.1938287185	 0.0134623837	 0.360769
C	-1.0783701335	 2.1826765272	 0.0950426742	-0.333917
C	-0.7397390708	 3.366063282	-0.8255330719	-0.048228
C	 0.4773488627	 4.3410485314	-0.7813701372	-0.050428
C	 1.5945317806	 4.315317044	 0.2656134916	-0.267324
C	 1.8453867853	 2.8243791889	 0.4018139963	-0.082636
C	 1.1830167448	 2.127263626	-0.5447245371	-0.020545
C	 0.5408829974	 3.0554584718	-1.5482193257	-0.127049
H	-1.9929521175	 1.6853436889	-0.2458805704	 0.128117
H	-1.2207163305	 2.431684604	 1.153027534	 0.12939
H	-1.5724186433	 3.7825734711	-1.3843724992	 0.092474
H	 0.2901482808	 5.2743602663	-1.30405894	 0.086566
H	 2.4576818538	 4.9056443646	-0.0739678657	 0.117232
H	 1.3064635827	 4.7229948796	 1.2434395282	 0.117172
H	 2.2076724536	 2.3859533952	 1.3268088131	 0.117784
H	 0.6619605105	 2.9316213053	-2.6179605467	 0.092417
