16
gdb 50463	4.41267	1.04552	0.87239	0.9607	67.43	-0.2683	-0.0476	0.2207	1253.6686	0.123751	-475.02712	-475.018857	-475.017912	-475.060853	29.517	
N	 0.182471694	 1.2586880932	-0.4357558549	-0.500831
C	 0.081742673	 0.0741592406	-0.0098717483	 0.370713
C	-1.266639711	-0.4547400768	 0.4435309062	-0.160017
O	-1.1832601925	-1.4866680837	 1.4126494125	-0.261369
C	-0.2980072975	-2.502229275	 0.9911933188	 0.002932
C	 1.1046518065	-1.9319437479	 0.8450913998	-0.081263
O	 1.1190324492	-0.811539146	-0.0497897234	-0.253879
C	-0.3609712847	-3.6242366929	 2.0159116595	 0.136409
O	 0.5009466712	-4.4525908033	 2.1446858902	-0.240598
H	 1.1329532374	 1.439241994	-0.7661950429	 0.225906
H	-1.8406574414	 0.3637633435	 0.8763900267	 0.153945
H	-1.8022534119	-0.8209669504	-0.4486630906	 0.123271
H	-0.6269396912	-2.9197534173	 0.0200849229	 0.107344
H	 1.4756345784	-1.6126330564	 1.8266535345	 0.125804
H	 1.7907059957	-2.6727466253	 0.4326761746	 0.143102
H	-1.2844724452	-3.6112563364	 2.6332577744	 0.10853
