22
gdb 101596	3.26497	0.75421	0.71614	2.1545	80.18	-0.2593	0.0321	0.2914	1689.403	0.192091	-441.491467	-441.48034	-441.479396	-441.528734	38.992	
C	-1.5623739594	 1.4326403113	 0.8194118717	-0.225399
O	-1.6221878019	 0.0062361754	 0.8411829359	-0.227703
C	-1.0703483414	-0.6324466721	-0.2113781602	 0.398516
N	-0.5167520247	 0.0161725772	-1.1534852927	-0.537535
C	-1.2376647709	-2.1273522951	-0.0601457206	-0.294135
C	-2.7094330899	-2.5821232822	-0.1632501955	 0.044362
C	-3.300376853	-2.314942833	-1.5522413528	-0.397359
C	-2.8210514213	-4.059516671	 0.2143597341	-0.084864
O	-4.1951860491	-4.4151694972	 0.2218277817	-0.422556
H	-2.0605071841	 1.7637187734	 1.7317694687	 0.123681
H	-0.5247138636	 1.7771387804	 0.8007869493	 0.136162
H	-2.0713264437	 1.8293427414	-0.0633483824	 0.136172
H	-0.1599302385	-0.6216004118	-1.8613390222	 0.21908
H	-0.6342497092	-2.6272825264	-0.8256782669	 0.099947
H	-0.8361232671	-2.4164944184	 0.9186337585	 0.116221
H	-3.2851077769	-2.0170444985	 0.5791177622	 0.102715
H	-2.7382297141	-2.8550807613	-2.324817012	 0.102873
H	-4.337475734	-2.6531120544	-1.5939057371	 0.136048
H	-3.2684281311	-1.2504968725	-1.8017543525	 0.122085
H	-2.2560391709	-4.6698287646	-0.511160426	 0.080889
H	-2.365910495	-4.2215696237	 1.2049384441	 0.083397
H	-4.2628658103	-5.3572025169	 0.4008140247	 0.287401
