15
gdb 23248	2.97738	1.54338	1.09777	2.7192	72.28	-0.2444	-0.0452	0.1991	1054.3785	0.113137	-453.89418	-453.88679	-453.885845	-453.926135	28.643	
O	-0.0321237292	 1.2994663161	 0.1646132423	-0.345314
N	-0.0000341463	-0.0772452278	 0.0905856297	-0.232994
C	-1.1531919461	-0.6266760626	 0.0278377519	 0.330275
C	-1.2951068593	-2.094460876	-0.1211262158	-0.141946
C	-2.1555624628	-2.8100624156	 0.9246107563	-0.325309
C	-2.7693736614	-2.2979458768	-0.3373890404	 0.084994
O	-3.4257091065	-1.0465908956	-0.2485929842	-0.246498
C	-2.5250277531	-0.0340927261	 0.0065022746	 0.340267
N	-2.854435939	 1.1706522819	 0.1940629587	-0.512315
H	 0.9056302747	 1.5235001853	 0.1890727228	 0.313304
H	-0.5308671898	-2.6482451604	-0.6490206789	 0.119443
H	-2.0044743491	-3.8801483656	 1.0121687591	 0.130251
H	-2.3872164282	-2.2972118019	 1.8517510525	 0.138252
H	-3.2012263311	-2.9441295625	-1.090743542	 0.119375
H	-3.8703877227	 1.2674792176	 0.1309070136	 0.228216
