18
gdb 42903	2.92222	1.54728	1.28264	3.8686	75.53	-0.2399	-0.0106	0.2294	1035.9316	0.148409	-401.916759	-401.909054	-401.90811	-401.949134	29.614	
O	 0.0483435382	 0.0453386628	-0.0721949973	-0.309051
C	 0.0131729298	 1.233687036	 0.0126142419	 0.356915
N	-1.1415623159	 2.122847461	-0.0345060577	-0.184098
C	-1.0496426215	 2.9366698428	 1.2180219485	-0.25388
C	-0.1489624653	 3.2910220743	 0.1142193341	-0.127168
C	 1.0551886273	 2.3604423101	 0.0539404958	 0.228179
C	 2.255823401	 2.2985455093	 1.0344991763	-0.285189
C	 3.1430493512	 1.8209935032	-0.1466695484	-0.206337
C	 2.0667475901	 2.3551810468	-1.1286613669	-0.283426
H	-1.9383507085	 3.5383907124	 1.3779562431	 0.140114
H	-0.654817902	 2.4661324067	 2.115209037	 0.132914
H	-0.2804945062	 4.1786561982	-0.4933805807	 0.112693
H	 2.5302495891	 3.299248968	 1.3815890225	 0.107885
H	 2.1590123408	 1.6367465481	 1.8979468249	 0.111479
H	 4.1475338253	 2.2407439462	-0.2248412714	 0.10229
H	 3.2081240386	 0.7314429896	-0.1820122178	 0.127623
H	 1.8150748693	 1.7450940075	-1.9985332067	 0.121575
H	 2.2805090888	 3.3764173071	-1.4585569373	 0.107481
