13
gdb 16602	3.35218	2.4113	1.56303	4.7345	60.44	-0.2562	-0.0681	0.1881	773.9623	0.096381	-398.607301	-398.601059	-398.600115	-398.637762	23.849	
N	-0.0440679144	 1.2621853636	-0.3596200659	-0.492901
C	 0.0110123938	 0.0539028059	-0.0089544426	 0.296113
O	 1.1425406149	-0.6303409926	 0.3444599282	-0.237307
C	 0.820359271	-1.9566266002	 0.7446984242	 0.082979
C	 0.0338851287	-2.0696121986	 1.9997016752	-0.317459
C	-0.6651182929	-2.1705736592	 0.6329312888	-0.178965
C	-1.1911353798	-0.8900929507	 0.0759784227	 0.348352
O	-2.3031128694	-0.6359684641	-0.2976876868	-0.286384
H	 0.8831008955	 1.6927229425	-0.3427342281	 0.235386
H	 1.568555889	-2.6763404356	 0.4398089469	 0.128922
H	 0.0881638103	-2.9957293683	 2.5602264841	 0.142246
H	-0.1098013016	-1.1753240722	 2.5967889451	 0.14774
H	-1.1294328551	-3.1028500705	 0.3424757284	 0.131278
