20
gdb 85054	2.31783	1.53557	1.18113	2.8579	75.04	-0.238	0.0219	0.2599	1128.503	0.171537	-440.337118	-440.327948	-440.327004	-440.370619	34.98	
C	-0.0340146513	 1.5752181703	-0.1662159223	-0.392973
C	-0.0162879255	 0.0557479127	 0.0351133682	 0.006889
N	 0.6888894064	-0.6294778682	-1.048252152	-0.303449
C	 1.9807059191	-0.962439203	-0.7632943065	 0.382243
O	 2.8319865883	-1.3370124746	-1.5444087147	-0.397717
C	 2.199148718	-0.6838828999	 0.7336910464	 0.006286
O	 2.994627669	 0.4921117428	 0.8492803713	-0.436149
C	 0.7838458724	-0.4443250794	 1.2763294148	 0.001184
C	 0.6986301413	 0.4237859127	 2.5287856453	-0.412259
H	 0.9842147109	 1.9725786287	-0.1734064763	 0.142274
H	-0.5154023559	 1.8293856497	-1.116664445	 0.108751
H	-0.5969217969	 2.0677125536	 0.6321289458	 0.121265
H	-1.0483668899	-0.3105853259	 0.0890529091	 0.082876
H	 0.3977277007	-0.5538473838	-2.0121175477	 0.247663
H	 2.6949514444	-1.5347864031	 1.218503705	 0.08442
H	 3.7571946709	 0.3642098855	 0.2714752335	 0.296186
H	 0.385120478	-1.4388143017	 1.5106035992	 0.08826
H	 1.1577469523	 1.4010489141	 2.3710521386	 0.143212
H	-0.3432315463	 0.5715022599	 2.8320566253	 0.11125
H	 1.2214808341	-0.0572717704	 3.3610749119	 0.119788
