18
gdb 66643	3.3178	1.85236	1.70249	0.1794	73.05	-0.222	0.0753	0.2973	863.7765	0.151107	-401.904897	-401.898743	-401.897799	-401.934921	27.024	
O	-0.087542484	 1.3975460757	 0.0329320616	-0.468289
C	 0.0168737567	 0.0252168658	 0.0303691293	 0.391108
C	-1.1824899076	-0.9042202726	 0.0915631258	-0.123301
C	-0.1429415113	-1.0067356605	-1.0360808381	-0.138641
N	 0.86899458	-1.9032708768	-0.4214027364	-0.132129
C	 0.0202688488	-2.9633361363	 0.1823346145	-0.163598
C	-0.8507984599	-2.0536591374	 1.0838269449	-0.060851
C	 0.2808312326	-1.4376070306	 1.9398433249	-0.224592
C	 1.0443128447	-0.8752002353	 0.7334909141	-0.088197
H	 0.6424784097	 1.757349841	-0.4837018556	 0.288505
H	-2.1762812768	-0.5193249174	-0.0930192657	 0.092867
H	-0.3353236131	-0.9686968845	-2.1017103768	 0.091162
H	-0.5355705318	-3.4809005619	-0.6039227088	 0.101365
H	 0.6182363935	-3.6890127837	 0.7419641481	 0.096468
H	-1.6940484162	-2.498658976	 1.6102450947	 0.06301
H	-0.0542415068	-0.6291955942	 2.5968025745	 0.10647
H	 0.8283893532	-2.1801040194	 2.5283988823	 0.095256
H	 2.071785008	-0.5369821058	 0.8603493066	 0.073388
