18
gdb 73468	2.90865	1.8602	1.58169	1.4735	69.86	-0.2013	0.0774	0.2786	914.1121	0.149966	-439.061269	-439.054196	-439.053252	-439.092396	28.73	
C	 0.0252958136	 1.495245007	-0.0723761342	-0.469371
C	 0.0139352642	-0.010669555	-0.0055093479	 0.257305
N	-1.2160610371	-0.6107233332	-0.4825775645	-0.363064
C	-1.2086580122	-2.0883586901	-0.4750220117	-0.158415
C	 0.1178011501	-2.5832369094	 0.0954498172	 0.144639
O	 0.3141942947	-2.0183786223	 1.3873909045	-0.267033
C	 0.7751267963	-0.7080894692	 1.1199861481	-0.010294
C	 1.3051905779	-0.753355148	-0.294756458	 0.0105
O	 1.1709100766	-2.0893338523	-0.7199318537	-0.257797
H	 0.9792966571	 1.8991028616	 0.2805676854	 0.119134
H	-0.1374217788	 1.8345265981	-1.1000771495	 0.133376
H	-0.7651006932	 1.92098544	 0.5580040139	 0.116459
H	-1.9843805765	-0.2648711995	 0.0809363618	 0.221514
H	-2.0314280911	-2.4832877618	 0.1304186573	 0.103916
H	-1.3199872292	-2.481549864	-1.4946710369	 0.107837
H	 0.1904007774	-3.6707990689	 0.1579863361	 0.097598
H	 1.23472774	-0.2278418125	 1.9750177178	 0.104228
H	 2.20067766	-0.2709146606	-0.6654332956	 0.109469
