19
gdb 104126	2.40029	1.3982	1.22211	3.0361	71.34	-0.2709	0.0069	0.2778	1137.1031	0.157522	-460.221071	-460.211939	-460.210995	-460.255063	33.745	
C	 0.0007426404	 1.5940674888	-0.0008046663	-0.401834
C	 0.0178323002	 0.0656590559	-0.0368630801	-0.20217
C	 0.7150721586	-0.5213753534	-1.2619445791	 0.446842
C	 0.759739157	-2.0467170393	-1.2507871529	-0.414865
O	 0.0720358341	-0.0426394546	-2.4424255726	-0.286973
C	 1.0646084938	 0.290405324	-3.386860661	-0.238223
C	 2.348148602	 0.4182146084	-2.5777677871	 0.391228
O	 3.4187360078	 0.819159213	-2.9234865482	-0.327735
O	 2.0688983986	-0.0242439594	-1.3270475009	-0.247135
H	 1.0160349238	 1.9983417369	 0.0303546245	 0.134528
H	-0.5042422294	 1.9975772271	-0.8821864293	 0.129264
H	-0.5304922393	 1.9479531547	 0.8869415848	 0.116421
H	 0.5135975626	-0.3355215706	 0.8537623561	 0.113206
H	-1.0050582198	-0.3273321575	-0.0348577221	 0.11387
H	-0.257020766	-2.4463908368	-1.2241135076	 0.132643
H	 1.2581844508	-2.4214304612	-2.1491664658	 0.124305
H	 1.3075418721	-2.4073024619	-0.3765416456	 0.134671
H	 1.1901738365	-0.4804752916	-4.1611943767	 0.134261
H	 0.8184134462	 1.2362890174	-3.87730634	 0.147696
