18
gdb 50567	3.30378	1.39694	1.20035	2.3377	71.34	-0.227	-0.0319	0.1952	1052.6577	0.148818	-439.044661	-439.037181	-439.036237	-439.076966	28.888	
O	-0.1895854859	 0.1769987515	-0.5104644555	-0.242043
C	 0.4136188974	 0.765514608	 0.3498761301	 0.145547
C	 1.2419621343	 2.0221221051	 0.1225864701	-0.096153
C	 0.9874696036	 2.6585978746	-1.2692671017	-0.09214
O	 1.1656667209	 4.0779168663	-1.2631058677	-0.277326
C	 0.9201510329	 4.6806056071	-0.0031763043	 0.124126
C	 1.9239418055	 4.1371822478	 1.0348344105	-0.185025
N	 0.9962561236	 2.9591773628	 1.2383840498	-0.144328
C	-0.1246663145	 3.887640882	 0.813860739	-0.219133
H	 0.4119230428	 0.4315912718	 1.4099311226	 0.096698
H	 2.2892268978	 1.6976792313	 0.216672003	 0.109678
H	 1.6724377941	 2.2573534676	-2.0200049497	 0.120102
H	-0.0290808	 2.4093359333	-1.5955156152	 0.121879
H	 0.8120312023	 5.7536424289	-0.177834529	 0.082107
H	 2.9272292307	 3.8878795411	 0.6798017855	 0.108503
H	 1.9815325764	 4.7268281149	 1.9544188552	 0.109238
H	-0.4911145506	 4.4370755542	 1.6842790837	 0.1166
H	-0.9658762214	 3.4219023217	 0.2954467636	 0.12167
