19
gdb 31702	4.47416	0.87485	0.77867	3.0001	79.53	-0.2058	0.0378	0.2437	1502.136	0.159962	-419.252154	-419.242745	-419.241801	-419.287269	33.776	
C	 0.0155924826	 1.5245897834	-0.1820189578	-0.364265
C	-0.0110160493	 0.0067824926	 0.05788647	-0.289635
C	-1.3951065853	-0.5638119895	 0.026766059	 0.282603
C	-1.9285861457	-1.478996195	-0.8452890358	-0.204227
N	-3.235444811	-1.6583670464	-0.4425195816	-0.258971
C	-3.4386342027	-0.8490931936	 0.6297763223	 0.350536
C	-4.7503056685	-0.8151744803	 1.3479833316	-0.192187
O	-5.7281546959	-1.3841878181	 0.4836974432	-0.430298
N	-2.3550090449	-0.1759922659	 0.9433218693	-0.367153
H	 1.0347853465	 1.917143131	-0.1069070615	 0.101935
H	-0.3729950347	 1.7707334713	-1.1755899745	 0.110186
H	-0.6075274483	 2.0354389905	 0.5568815655	 0.135336
H	 0.6043880976	-0.5031333586	-0.692195754	 0.092613
H	 0.4440997633	-0.207108528	 1.0333555625	 0.107674
H	-1.5150231272	-2.0000353804	-1.6927886931	 0.120775
H	-3.9486136812	-2.227308938	-0.8667701659	 0.271238
H	-4.6772280771	-1.3840331062	 2.2883437962	 0.11376
H	-4.9860727275	 0.2245898433	 1.6141625273	 0.12356
H	-6.5299140907	-1.5324868119	 0.9920321172	 0.29652
