14
gdb 12190	3.9545	1.49767	1.21547	5.7594	64.97	-0.2684	0.0044	0.2728	973.7609	0.107381	-378.75469	-378.746831	-378.745887	-378.787407	26.884	
C	-0.0382516112	 1.4444393647	-0.037050562	-0.347534
N	-0.0082452725	 0.0038413751	-0.0565827044	-0.072162
C	-1.0759919812	-0.9955062351	-0.0831241551	-0.181315
C	 0.0366587928	-2.0927070204	-0.0461825344	-0.30702
C	 0.1032825789	-2.9982488867	-1.1745550739	 0.285122
N	 0.1505800035	-3.7104604294	-2.083878266	-0.315439
C	 1.0379121291	-0.8752064215	-0.0530511991	 0.418348
O	 2.2278108059	-0.7423391246	-0.0389913777	-0.348028
H	 0.995306344	 1.7967898562	-0.018338475	 0.171057
H	-0.5335847472	 1.8438335018	-0.9294717253	 0.140585
H	-0.5585531442	 1.8207079422	 0.8514740579	 0.136715
H	-1.7300645654	-0.9804779753	 0.7947541582	 0.126645
H	-1.6779162318	-0.9865173778	-0.9966928466	 0.139133
H	 0.0774912795	-2.6482739492	 0.8933750232	 0.153893
