15
gdb 103406	2.50026	1.53059	1.33348	1.5019	61.06	-0.2408	-0.0408	0.2	994.1891	0.110537	-494.854042	-494.845806	-494.844862	-494.886929	30.622	
O	 0.0361188579	 1.3933940264	-0.1004356007	-0.430303
C	 0.0818964052	-0.0319775044	-0.1174050352	-0.148149
C	-1.3452677097	-0.5506437564	-0.0242965185	 0.267851
O	-2.1540224797	 0.0076699213	-1.0282917219	-0.478993
C	-1.6271299049	-2.0542002793	 0.1319738064	-0.015083
O	-0.9903652778	-2.4439441367	 1.3419602516	-0.236004
C	-2.3280083109	-1.8932632519	 1.4327196536	-0.12494
C	-2.0666728079	-0.3912904872	 1.3771845104	 0.37709
O	-2.3717884818	 0.5625229998	 2.0307994255	-0.316535
H	-0.2932748235	 1.6644843866	 0.7658078211	 0.303858
H	 0.526185403	-0.310102703	-1.0789050815	 0.12213
H	 0.7000175435	-0.4404878407	 0.6901247717	 0.119652
H	-1.8554026419	 0.925211712	-1.1136267032	 0.297145
H	-1.7997607702	-2.7934495384	-0.6399181652	 0.129913
H	-3.0862018412	-2.4962833279	 1.9171200758	 0.132366
