19
gdb 73511	3.02671	1.6642	1.33016	1.91	80.91	-0.2233	0.0073	0.2306	1007.4864	0.159705	-385.838556	-385.831071	-385.830126	-385.869921	30.635	
C	-0.0624088851	 1.5828497578	-0.1937647952	-0.453475
C	-0.0361718762	 0.0633172668	-0.0260017154	 0.262026
C	 1.0608943584	-0.6080697711	-0.8857171452	-0.293541
C	 2.2598048514	-0.7370625145	 0.1088721852	-0.241818
C	 1.5445998071	-0.9985317299	 1.435011602	-0.207988
C	 0.3054410231	-0.5225766585	 1.353506027	 0.233201
C	-1.1009098496	-0.9327433219	 1.6292729699	-0.09015
O	-2.0045780527	 0.1417670083	 1.3242016252	-0.232103
C	-1.4459784202	-0.5716975544	 0.2212089137	-0.055679
H	 0.9392272426	 2.0027664779	-0.0545359764	 0.115908
H	-0.3973125014	 1.8527366028	-1.2021474343	 0.10945
H	-0.7330848369	 2.0471244189	 0.5307739768	 0.137841
H	 0.7511242799	-1.6148243083	-1.1895218632	 0.098994
H	 1.3039247099	-0.0445581391	-1.7925134754	 0.091821
H	 2.9260197069	-1.5634176184	-0.1596681701	 0.10364
H	 2.8806240356	 0.1692730983	 0.1235607581	 0.108905
H	 1.9505918823	-1.6293204015	 2.2171514143	 0.094754
H	-1.4746144184	-1.7230723291	 2.268920341	 0.111518
H	-2.1322831669	-1.0590573545	-0.464512048	 0.106696
