18
gdb 22769	1.76734	1.62514	1.02168	2.2231	76.64	-0.245	-0.0271	0.218	1215.4439	0.145005	-439.045279	-439.035791	-439.034847	-439.080681	33.889	
C	-0.688298696	 1.3077748349	 0.1326759381	-0.398391
C	-0.0530481807	-0.053210492	-0.1334637415	-0.06918
C	 0.8783012173	-0.200229743	-1.3849663504	-0.259199
C	 2.0245200914	-0.7513722743	-0.4911388395	-0.193534
C	 3.3494882025	-0.0164758178	-0.5211560629	 0.148281
O	 3.5477296382	 0.9828466358	-1.1642869817	-0.242295
C	 1.1363858544	-0.4516759722	 0.7211176785	 0.398094
N	 1.2876085234	-0.4568641145	 1.9758502667	-0.228095
O	 2.5875906363	-0.8702548987	 2.3288227648	-0.397021
H	 0.0651589538	 2.1012982385	 0.1104925851	 0.1276
H	-1.4436724686	 1.533549864	-0.6270531144	 0.118548
H	-1.1715047874	 1.3275364388	 1.113842198	 0.13139
H	-0.8221296645	-0.834484535	-0.1110290472	 0.097081
H	 0.523982502	-0.8721524221	-2.1672492672	 0.107728
H	 1.15748662	 0.7585048999	-1.8265038098	 0.135333
H	 2.221251145	-1.8269675796	-0.5794056052	 0.11264
H	 4.1382953735	-0.4619940732	 0.1175822506	 0.100303
H	 2.5688401993	-0.8136196596	 3.2903655282	 0.310718
