19
gdb 102825	2.19738	1.05625	0.76651	4.312	72.91	-0.2443	-0.0208	0.2235	1473.4675	0.155423	-460.130512	-460.120325	-460.119381	-460.167324	34.564	
C	-0.7426471236	 0.2527837174	 0.6926346607	-0.242056
O	-0.0059773907	-0.8216123651	 0.1434551435	-0.245605
C	 0.5533239796	-0.5698867403	-1.1345188267	 0.066381
C	 1.5957789332	-1.6660978403	-1.3841453783	-0.295565
C	 2.7624694679	-1.5967545221	-0.4200791912	 0.149489
O	 3.914970733	-1.7361933164	-0.7410048869	-0.240631
C	-0.5106483581	-0.5849433951	-2.219333082	 0.073517
C	-1.0638980013	 0.6454037996	-2.8011316131	-0.181771
O	-0.087346627	-0.1254284206	-3.5015949103	-0.231266
H	-0.1381811578	 1.1708857468	 0.7447881421	 0.110658
H	-1.6548977403	 0.4689814165	 0.1207564813	 0.115391
H	-1.0252173737	-0.0417775996	 1.705807621	 0.135077
H	 1.0450594976	 0.4178093699	-1.1494501339	 0.079578
H	 1.1010396555	-2.6372375664	-1.2404523103	 0.131009
H	 1.9719217058	-1.6164780474	-2.4084894985	 0.142305
H	 2.4749757142	-1.4104542444	 0.6369460838	 0.090541
H	-1.1212933712	-1.4898841281	-2.2353066412	 0.102215
H	-2.0637879687	 0.6373420566	-3.2321999429	 0.122721
H	-0.7198283043	 1.613336659	-2.4385537571	 0.118011
