14
gdb 127527	3.27623	1.47365	1.02293	1.3938	68.72	-0.2303	-0.0841	0.1463	1076.8702	0.101619	-470.037849	-470.030044	-470.0291	-470.070691	28.393	
C	-0.0297605267	 1.4043052991	-0.0459358975	-0.317877
N	-0.0015632897	-0.0526933885	-0.0229868516	-0.048116
N	-0.0248010296	-0.6732693882	-1.2243365677	-0.275455
C	 0.0015366942	-1.9708593756	-1.1911536614	 0.486491
O	-0.0208172077	-2.6112068745	-2.3727596848	-0.397746
N	 0.0499804517	-2.7624230708	-0.0736355069	-0.31106
C	 0.0719698841	-2.1462415457	 1.0644733405	-0.068164
C	 0.0480368724	-0.6889687123	 1.2078599293	 0.396605
O	 0.070813357	-0.077229075	 2.2660185352	-0.401608
H	 0.8699918988	 1.8003714248	 0.4325750945	 0.157344
H	-0.084169455	 1.7152343222	-1.0869498949	 0.155869
H	-0.8948435801	 1.7656845377	 0.5161210613	 0.158028
H	 0.0034064152	-3.555340471	-2.1712428462	 0.311882
H	 0.1104817454	-2.7276871523	 1.9827048301	 0.153808
