19
gdb 117728	2.2124	1.05573	0.93882	2.1187	78.4	-0.256	-0.0367	0.2192	1360.8644	0.154873	-422.993562	-422.982858	-422.981913	-423.029467	38.134	
C	-0.0757508091	 1.6152455337	-0.0688728675	-0.429826
C	 0.0267656152	 0.0686790106	-0.0742223665	-0.04715
C	 0.658460111	-0.5091604725	 1.2156668185	-0.22001
C	 0.0443122982	-0.0173686067	 2.5328520741	-0.087214
O	 0.6532627902	-0.6477138223	 3.648821978	-0.417688
C	-1.3886303674	-0.4972443633	-0.3092252886	 0.158829
O	-1.9322111626	-1.3068529201	 0.3922501912	-0.249162
C	 0.7963209161	-0.3594738276	-1.2458048667	 0.320795
C	 1.3953439144	-0.7272803637	-2.2216020279	-0.465016
H	 0.9172801711	 2.054191187	 0.0564163479	 0.140371
H	-0.4871034355	 1.9761207576	-1.01558378	 0.132131
H	-0.7185735014	 1.9651809414	 0.7431041004	 0.134268
H	 0.5642003759	-1.599834799	 1.1726115701	 0.111388
H	 1.7281373991	-0.2786764152	 1.2187347155	 0.115366
H	 0.2299804577	 1.0524424517	 2.6697347892	 0.109728
H	-1.0425976241	-0.1715303928	 2.5289375102	 0.1098
H	 0.4134928838	-1.579679515	 3.6229633922	 0.284591
H	-1.8801025349	-0.0899904936	-1.2200917246	 0.094684
H	 1.9400155324	-1.0493627903	-3.0748468254	 0.204115
