18
gdb 64463	2.25733	1.73778	1.33464	2.5441	68.42	-0.2637	0.013	0.2767	1021.218	0.147718	-476.230974	-476.222482	-476.221537	-476.264046	32.406	
C	 0.6603358159	 1.3681253014	-0.1886713265	-0.422143
C	-0.0365808647	 0.0059728709	 0.0158423074	 0.279387
O	-1.4228618596	 0.2138823755	 0.1667295484	-0.479548
C	 0.1988743257	-0.9388474748	-1.1981084777	-0.12229
O	 1.0234845715	-2.0582063339	-0.8700687255	-0.22181
C	 2.1127144481	-1.6810280817	-0.1128395195	 0.002455
O	 1.7123904387	-1.2686504129	 1.2074125036	-0.247828
C	 0.5203271605	-0.6350267013	 1.2881552438	 0.376142
N	-0.1267232252	-0.499855518	 2.3670748286	-0.551033
H	 1.7438333826	 1.2709168543	-0.312559998	 0.113837
H	 0.2496411073	 1.8455127481	-1.0830366278	 0.130113
H	 0.4639509588	 2.0110158619	 0.6726508495	 0.135877
H	-1.5832493252	 0.1700013514	 1.1244180757	 0.293957
H	-0.7644234561	-1.3436674454	-1.5073992911	 0.142379
H	 0.6478655707	-0.3877228367	-2.0361982431	 0.100006
H	 2.7533581032	-2.5520330492	 0.0330437872	 0.136573
H	 2.6812939141	-0.8627330131	-0.5827673696	 0.103352
H	 0.3395685137	-0.9510079564	 3.1532408344	 0.230573
