18
gdb 10430	2.50494	1.89332	1.4002	3.1255	67.85	-0.2544	-0.0302	0.2241	965.7509	0.151933	-384.928127	-384.91945	-384.918506	-384.962	30.381	
C	 0.100831789	 1.523794542	 0.1628563295	-0.391452
C	-0.0649043476	 0.0231740161	-0.102674774	-0.268782
C	 0.7244450827	-0.4743756482	-1.3174022287	 0.191505
C	 2.2646441695	-0.5013934069	-1.2245762063	-0.116768
O	 2.2997920779	-1.9314544561	-1.4283353541	-0.26778
C	 0.8688013156	-2.022639319	-1.4459666347	-0.122893
C	 0.1820329882	 0.1307723045	-2.5930052922	 0.112917
O	 0.8283652947	 0.711665853	-3.4260077342	-0.248217
H	 1.1508032323	 1.7824602565	 0.3350591385	 0.128612
H	-0.2512584095	 2.1254451639	-0.681685195	 0.130102
H	-0.4659080787	 1.8270387052	 1.0476580065	 0.122739
H	 0.2574364335	-0.5488305842	 0.7752294797	 0.110682
H	-1.1277758186	-0.2139315544	-0.2485417216	 0.104875
H	 2.7829738993	 0.0435665408	-2.0188657675	 0.129798
H	 2.6733007563	-0.2182913797	-0.2465997065	 0.097108
H	 0.4704181413	-2.5804917227	-0.5874505347	 0.101932
H	 0.4908316745	-2.4761350963	-2.3716518485	 0.108684
H	-0.9163802603	-0.0206988448	-2.7237474264	 0.076939
