16
gdb 80197	2.14299	1.59064	1.20792	5.645	75.92	-0.2654	-0.0364	0.229	1081.1974	0.123607	-400.757901	-400.749604	-400.74866	-400.790896	30.684	
C	-0.0070006779	 1.540905927	 0.0109408265	-0.424314
C	 0.0970705495	 0.0339746398	-0.0922716485	-0.050314
C	 0.7068984418	-0.734848853	-1.2068425802	-0.114767
C	 1.9154902183	-0.0090638247	-1.8130616229	-0.360213
C	 2.5790301595	-0.0456713233	-0.4159141781	 0.351698
O	 3.6706702411	 0.2190847633	-0.0144121464	-0.282679
C	 1.3891130408	-0.7527718755	 0.2096954041	 0.068526
C	 1.4342182316	-1.7664972029	 1.2076520241	 0.195933
N	 1.478607306	-2.5948385306	 2.0151436311	-0.344094
H	 0.8603381471	 2.0577220798	-0.4051986074	 0.137525
H	-0.8968632628	 1.891267355	-0.522431861	 0.13445
H	-0.1023806359	 1.8419195273	 1.0582006298	 0.144434
H	-0.7512969623	-0.4843432955	 0.3499328255	 0.12804
H	 0.2166178704	-1.587169218	-1.6580349031	 0.130213
H	 2.4934440757	-0.6351995326	-2.4987998024	 0.150269
H	 1.7447825072	 0.964378634	-2.278371651	 0.135295
