17
gdb 49983	3.81037	0.91083	0.83895	2.6175	75.39	-0.2555	-0.0405	0.2149	1360.3612	0.133403	-421.82918	-421.820725	-421.819781	-421.863165	31.319	
O	-0.1862446857	 0.1523717791	-0.6826630633	-0.264026
C	-0.0431487827	 1.2159343032	-0.1329715845	 0.166699
C	 1.2380259804	 1.9488702505	-0.0281497538	-0.160108
C	 1.185447999	 3.4771124665	 0.0024555376	-0.355536
C	 1.5421019044	 2.7338223085	 1.2352808308	 0.32551
C	 0.7606378119	 2.7162294453	 2.5674772755	-0.427782
C	 2.1217831289	 2.8472272184	 3.2818934109	 0.411929
O	 2.4453880389	 2.9855674802	 4.4227830033	-0.278264
C	 2.9039192699	 2.7588761171	 1.9547749079	-0.421177
H	-0.9055575198	 1.7372685128	 0.3477500256	 0.06676
H	 2.0725136389	 1.4764913988	-0.5362057968	 0.11029
H	 1.9628153248	 4.0028560423	-0.5413077251	 0.13322
H	 0.2026272902	 3.9365424646	-0.0553750585	 0.128652
H	 0.0705916607	 3.5466599409	 2.744701756	 0.138365
H	 0.2479549547	 1.7791386841	 2.8077423628	 0.144418
H	 3.495086542	 1.8408065218	 1.8704879894	 0.142795
H	 3.5540993133	 3.6144292159	 1.7476315721	 0.138256
