19
gdb 42017	3.16138	1.51662	1.14988	2.0307	77.48	-0.2251	0.0174	0.2424	1083.4455	0.161692	-423.02809	-423.020507	-423.019563	-423.060907	29.04	
C	 0.0566854979	 1.4474793866	-0.3667681732	-0.114382
O	 1.3015296873	 1.9098302735	 0.1611025394	-0.280765
C	 1.9459635399	 0.8528421665	 0.8651932603	 0.018923
C	 3.4176700655	 0.6563783001	 0.4076688589	-0.101707
O	 3.6714938847	-0.6644556881	-0.0488427955	-0.235572
C	 3.2455280444	-1.6359195274	 0.88841574	-0.075869
C	 1.6957148859	-1.7178719331	 0.9494974102	-0.346962
C	 1.1401501457	-0.3846541914	 0.5559485365	 0.35955
C	 0.0715587913	-0.0407386069	-0.1543677374	-0.251611
H	-0.7824918783	 1.9407050474	 0.1521508879	 0.100728
H	-0.0114637765	 1.7256956709	-1.4284239741	 0.109526
H	 1.9311513529	 1.0812842695	 1.9452169849	 0.07641
H	 3.6105506155	 1.3249057153	-0.4341808746	 0.124163
H	 4.1119640005	 0.9036852638	 1.2265612313	 0.08517
H	 3.6743852651	-2.5890999145	 0.5695207259	 0.113903
H	 3.6546159395	-1.4007752033	 1.8850785806	 0.089127
H	 1.3190075069	-2.4928616225	 0.275508785	 0.117735
H	 1.3858953314	-1.9993233109	 1.9650898811	 0.111905
H	-0.6839276594	-0.7052194155	-0.5553115771	 0.099728
