18
gdb 11251	5.2117	1.2816	1.13084	0.8818	79.53	-0.2439	0.0174	0.2613	1085.5396	0.153493	-310.650187	-310.642132	-310.641188	-310.682642	30.626	
C	 0.5972088114	 1.640948656	-0.0826451058	-0.389656
C	-0.1151841695	 0.2923096204	 0.1237551799	-0.024733
C	 0.0927022039	-0.7070932434	-1.0471998035	-0.233953
C	 1.2064034511	-1.6950871454	-0.5742843542	-0.18946
C	 1.1648863627	-1.529862864	 0.9390617635	-0.07023
C	 0.4483355468	-0.4710519761	 1.3032421134	-0.073721
C	 1.0111701468	-3.0659110689	-1.0339128619	 0.315053
C	 0.8452928676	-4.1959347638	-1.4099644531	-0.470168
H	 1.6678200975	 1.4956703083	-0.2633684736	 0.117179
H	 0.176737286	 2.1785864044	-0.9390109182	 0.114004
H	 0.4938902843	 2.2819585882	 0.7992557661	 0.113513
H	-1.1842922016	 0.4963605996	 0.2632640877	 0.075988
H	-0.8240791465	-1.2764822729	-1.2183803097	 0.115695
H	 0.354913835	-0.2129242651	-1.9862235654	 0.101636
H	 2.1887172483	-1.3594688903	-0.9405047962	 0.10873
H	 1.6979990132	-2.2039610173	 1.5988673573	 0.103585
H	 0.3140202939	-0.1343155653	 2.3261416952	 0.093976
H	 0.7003697389	-5.1937283643	-1.7423713515	 0.192563
