20
gdb 31236	2.32045	1.30374	0.89711	1.4953	84.11	-0.178	0.0288	0.2067	1355.2756	0.17092	-403.172848	-403.163234	-403.16229	-403.208737	34.665	
C	 0.0263822115	 1.6122868851	 0.3402636368	-0.365822
C	-0.0195664546	 0.1298488777	-0.0728901112	-0.301444
C	-1.3966815115	-0.4266676908	-0.1729435403	 0.283663
C	-2.1496827917	-0.9156919453	-1.2080326391	 0.163137
N	-1.7604966644	-1.0747846061	-2.543014536	-0.393067
C	-2.8014410321	-1.0898720629	-3.5591750143	-0.323817
C	-3.4139152108	-1.3030409691	-0.6392016425	-0.246336
C	-3.3303733334	-1.0242777186	 0.6869527502	-0.019375
O	-2.1245517172	-0.4962086008	 0.9927979741	-0.187428
H	 1.0597327231	 1.9630653832	 0.4263890528	 0.108164
H	-0.4904375128	 2.240289707	-0.3921871699	 0.114121
H	-0.4639450296	 1.7554324727	 1.3071541005	 0.13136
H	 0.4768895537	-0.0034369422	-1.0412322644	 0.099618
H	 0.5672792638	-0.459951233	 0.6447780157	 0.115935
H	-0.9986779156	-0.460260219	-2.7925434391	 0.229353
H	-2.3319441218	-1.1500162408	-4.5443645069	 0.120864
H	-3.4273292031	-1.9803638001	-3.4416357677	 0.131674
H	-3.4610957481	-0.2071417158	-3.5393689829	 0.108319
H	-4.2608699634	-1.7304808416	-1.151120482	 0.104394
H	-4.0189719719	-1.1383419797	 1.5080839262	 0.126687
