18
gdb 44140	3.21336	1.21391	1.06454	3.9285	76.59	-0.2424	-0.0077	0.2347	1180.4847	0.147788	-401.912561	-401.904672	-401.903728	-401.945663	30.231	
O	-0.9039316341	 0.1313943399	-0.1385640208	-0.296059
C	-0.5457196744	 1.2628134955	-0.0418661881	 0.399607
C	-1.236709562	 2.6220439636	 0.167701087	-0.385381
C	 0.1731396271	 3.201758744	 0.0806882606	-0.050096
C	 1.1161611433	 2.5823556012	 1.0245175822	-0.009183
C	 0.795575882	 2.074457915	 2.3904196763	 0.005947
C	 1.8525710003	 1.3112089786	 3.1532298867	-0.261415
C	 1.4853814529	 2.7067679132	 3.5788687693	-0.281422
N	 0.7827980249	 1.8187563813	-0.234954377	-0.204283
H	-1.8618562854	 2.8770192739	-0.691955344	 0.14383
H	-1.8114771712	 2.7714590357	 1.084561874	 0.134458
H	 0.4436231741	 4.0510248704	-0.5359353722	 0.111204
H	 2.1374344937	 2.9511712736	 0.9421736726	 0.106902
H	-0.2276896222	 1.752535469	 2.5501934796	 0.100039
H	 1.5304994931	 0.4783985125	 3.7672812448	 0.123902
H	 2.8110688776	 1.1618229558	 2.667941578	 0.124555
H	 2.1972727105	 3.5027377376	 3.3861970275	 0.117249
H	 0.9076721896	 2.8398618693	 4.4863474934	 0.120147
