21
gdb 72129	2.1256	1.97289	1.72443	1.4797	81.43	-0.2333	0.0888	0.3222	978.9224	0.183154	-387.068631	-387.0607	-387.059756	-387.10033	32.503	
C	 0.0275551202	 1.548297412	-0.0432954262	-0.515377
C	 0.0151411325	 0.0431891858	-0.0912521959	 0.280429
C	 0.4544199342	-0.8204900679	-1.287457515	-0.30189
C	-0.2886176675	-1.9663668156	-0.5525739289	-0.122933
C	 0.6152806529	-2.1711438926	 0.6792452044	-0.212557
C	 0.3146778975	-0.7688701614	 1.237830329	 0.027291
O	-1.1144012429	-0.878725457	 1.511278897	-0.335358
C	-1.2550109169	-0.842768335	 0.0823573616	 0.43719
C	-2.6386230656	-0.6061076802	-0.4409506045	-0.514942
H	 1.0515425837	 1.9373269057	 0.0015749708	 0.116924
H	-0.4508883829	 1.9801606789	-0.9292851654	 0.114655
H	-0.5071420276	 1.9101993646	 0.8414035587	 0.128949
H	-0.0515834398	-0.4963334859	-2.2022723002	 0.095006
H	 1.5208362689	-0.959069849	-1.4917998011	 0.089271
H	-0.6729395156	-2.8388959049	-1.0787848978	 0.062904
H	 0.2756893682	-2.9407475919	 1.3753971584	 0.103915
H	 1.6610668893	-2.3477713994	 0.4119914775	 0.09225
H	 0.8907737085	-0.3641749404	 2.0698760759	 0.072512
H	-3.0531260556	 0.3267182014	-0.0466722297	 0.127766
H	-2.6358313215	-0.5523383211	-1.5340477472	 0.122634
H	-3.3021269699	-1.4260626061	-0.1451941815	 0.13136
