18
gdb 115577	2.70965	1.16892	1.03745	1.6136	68.44	-0.2396	-0.0395	0.2001	1204.4495	0.145946	-476.191527	-476.182093	-476.181149	-476.226379	33.966	
O	-0.1019549136	 1.3153624999	-0.4915426848	-0.417845
C	 0.0696909468	-0.0447301203	-0.1693990573	-0.052449
C	-1.2699321974	-0.6355196007	 0.2727298697	-0.057119
N	-2.2867588685	-0.4162251307	-0.798996471	-0.336373
C	-2.2861332801	-1.8709623619	-1.1361308574	-0.226668
C	-1.4340844086	-2.1938327115	 0.1223549459	 0.263257
O	-0.3032933198	-3.0185509521	 0.0358972673	-0.476244
C	-2.2698876276	-2.7427819626	 1.2626475927	 0.137561
O	-3.4263527178	-2.4569382909	 1.4419938819	-0.259973
H	-0.8860635982	 1.3328948438	-1.0610207261	 0.28717
H	 0.4682572656	-0.6057141846	-1.0346490771	 0.058919
H	 0.8098067782	-0.1103754497	 0.633816543	 0.118519
H	-1.5503940471	-0.2182743109	 1.2446224754	 0.092725
H	-3.1796839338	-0.1617361896	-0.390677477	 0.240418
H	-3.2732058445	-2.3381331413	-1.1631390929	 0.129169
H	-1.7617815249	-2.0752659695	-2.0763333377	 0.106981
H	 0.2490475303	-2.7193531967	-0.6929520477	 0.291881
H	-1.7098854489	-3.4214942406	 1.9408501432	 0.100071
