15
gdb 20617	3.43172	1.98599	1.27404	0.6835	64.51	-0.1976	0.033	0.2306	916.8939	0.119703	-395.999516	-395.991126	-395.990182	-396.032314	29.896	
C	-0.0307631593	 1.5189562037	 0.1286180381	-0.511383
C	 0.0108233925	 0.0373696285	-0.0290593268	 0.295536
C	 0.0195621659	-0.752446747	-1.1598381155	 0.148678
O	-0.0088658962	-0.3261304909	-2.4560959963	-0.460401
C	 0.0709968895	-2.0878980368	-0.6995250672	 0.229405
N	 0.1667953947	-3.2163514839	-1.5397666195	-0.610317
N	 0.0998321947	-2.1427086296	 0.6277244369	-0.294744
N	 0.0623904076	-0.8461626749	 1.0107304544	-0.27121
H	 0.7408809183	 1.8763730515	 0.8199794562	 0.128212
H	 0.1418095585	 1.9892728988	-0.8421781124	 0.153355
H	-0.999860933	 1.8720126524	 0.5018827513	 0.134118
H	 0.3623419716	-1.0399725861	-2.9897715811	 0.297167
H	-0.7218900294	-3.4288362643	-1.9843018684	 0.245471
H	 0.4419749312	-4.0284334152	-0.9974902491	 0.249654
H	 0.0871758534	-0.629813206	 1.9913750195	 0.266458
