17
gdb 54577	3.74096	1.35712	1.20259	2.6426	72.21	-0.242	0.0182	0.2602	1049.8048	0.137895	-417.985837	-417.97836	-417.977415	-418.018	29.261	
N	 0.1339210112	 0.7065417906	 0.9953569584	-0.541985
C	-0.0499378673	 0.0611014251	-0.1955153754	 0.27587
O	 0.70880567	 0.1338284042	-1.1429457124	-0.363168
C	-1.2735513659	-0.7965491959	-0.2267205995	 0.263059
C	-2.2421078489	-0.973656612	-1.3793622605	-0.293334
C	-3.2127161623	-1.4462023607	-0.2780093293	-0.012774
C	-2.6394005564	-2.7768640774	 0.249941351	-0.237382
C	-1.5168998289	-1.8993197801	 0.7702191273	-0.062317
N	-2.3739198143	-0.6714823375	 0.7997250334	-0.214944
H	 0.8777362109	 1.3848337523	 1.04152722	 0.259689
H	-0.6621147926	 0.8221129922	 1.6044039069	 0.272927
H	-2.5316671131	-0.0052970081	-1.7935390671	 0.120123
H	-1.9946340209	-1.6668589593	-2.1876059827	 0.111808
H	-4.2837545801	-1.2686761897	-0.3440187609	 0.090605
H	-3.2336259509	-3.1741482776	 1.0764134336	 0.117929
H	-2.418542237	-3.5707435957	-0.4702092964	 0.107057
H	-0.8034609734	-2.1060700504	 1.5597685535	 0.106835
