18
gdb 81252	2.98056	1.56746	1.44368	2.3277	71.59	-0.2447	0.0599	0.3046	972.6429	0.14984	-438.984635	-438.977582	-438.976638	-439.015985	28.716	
O	 0.0757698754	 1.3333658246	-0.2134552011	-0.460809
C	 0.0724114783	-0.0456558499	-0.0596311972	 0.191281
C	 0.0279806479	-0.6514629604	 1.3560237499	-0.149129
N	-1.4043778473	-0.0798414987	 1.4473829258	-0.442167
C	-1.3094119434	-0.7873158768	 0.0869332255	 0.277015
C	-2.1051811069	-1.3555962503	-1.0559394362	-0.405766
C	-1.0998301488	-2.5145907891	-1.4423853369	-0.069722
O	-0.1393448417	-2.7198012473	-0.3611485332	-0.288622
C	-0.6024903428	-1.9489479834	 0.7231154338	 0.109925
H	-0.5603226613	 1.6635034992	 0.4381978266	 0.291389
H	 0.7857508253	-0.4836564213	-0.754257793	 0.105934
H	 0.7172547855	-0.5364756824	 2.1937864875	 0.086515
H	-1.9649035636	-0.644470631	 2.0942430822	 0.214653
H	-3.0687197295	-1.7629485047	-0.7349304352	 0.11527
H	-2.2721896329	-0.6726814146	-1.8919087912	 0.123471
H	-1.6319929408	-3.454042391	-1.6243944818	 0.113623
H	-0.529491575	-2.2602865822	-2.3406125215	 0.12085
H	-1.1745139384	-2.5459832906	 1.4472616359	 0.066289
