16
gdb 52895	1.96532	1.23313	0.83951	4.7701	80.47	-0.2687	-0.0168	0.2519	1395.8086	0.120794	-400.716869	-400.706923	-400.705978	-400.753127	33.987	
C	 0.1222716545	 1.4966818688	 0.0634501517	-0.507055
C	 0.0458656579	 0.045422231	 0.0263910628	 0.167352
C	-0.0129334105	-1.156800621	 0.0042073662	-0.017682
C	-0.0445211872	-2.5939702409	-0.0468154569	 0.089385
O	-0.5170496807	-3.2981146804	 1.1178207071	-0.264513
C	-1.3252496446	-3.3661045091	-0.0512278291	 0.047465
C	-2.6699151192	-2.695886027	-0.0171221898	-0.432891
C	 1.1098521635	-3.2100771918	-0.6861626482	 0.225602
N	 2.016170764	-3.6983795771	-1.2106633092	-0.33197
H	 1.1336306415	 1.8396688377	-0.1782994834	 0.16483
H	-0.5686212169	 1.9497010299	-0.655311531	 0.158433
H	-0.1312543448	 1.8753488408	 1.0592682684	 0.162342
H	-1.2853616403	-4.3340025795	-0.5530815385	 0.11723
H	-2.6011450701	-1.6994418504	 0.4227617806	 0.144358
H	-3.0737409474	-2.611378462	-1.0309466894	 0.135832
H	-3.3665808098	-3.2966615989	 0.5760633388	 0.141284
