23
gdb 110865	1.93599	1.46543	1.32152	1.1739	86.18	-0.231	0.0787	0.3097	1199.7017	0.204358	-388.258534	-388.248625	-388.247681	-388.292758	37.312	
C	 0.2610238871	 1.0755068478	-0.2235380434	-0.237045
O	-0.3881731789	 0.0071917302	 0.4348143196	-0.238706
C	 0.4518091918	-0.6704794198	 1.3214610327	 0.088957
C	 0.0611593158	-1.9943413547	 1.8686476063	-0.173102
C	-0.6237362043	-2.8414153053	 0.7904034054	-0.249444
C	 0.6722042133	-2.7670292854	-0.0808722773	-0.005831
C	 0.5790777873	-2.327883922	-1.5385252313	-0.419871
C	 1.3284260604	-1.8452106375	 0.9689163843	 0.271803
C	 2.7888211442	-1.9040184101	 1.3241356619	-0.497892
H	 1.0993867678	 0.7259215951	-0.8429529953	 0.109009
H	-0.4794961617	 1.559025414	-0.8652970647	 0.125023
H	 0.6457287995	 1.8160805976	 0.4944415124	 0.105422
H	 0.9163656758	-0.005452134	 2.055089962	 0.074968
H	-0.0078181934	-2.1690873304	 2.9370055927	 0.081286
H	-0.8602355326	-3.8555024972	 1.1184594667	 0.095034
H	-1.5189154868	-2.3914574181	 0.3529255834	 0.108542
H	 1.1795025411	-3.7377763516	-0.0336635091	 0.06776
H	-0.0042943925	-1.4102920237	-1.6366924591	 0.133511
H	 1.5737788194	-2.1529987852	-1.9650471623	 0.104777
H	 0.0955727595	-3.1021492059	-2.1453025427	 0.107984
H	 3.4143048108	-1.5306087727	 0.5033885661	 0.117917
H	 3.0123791823	-1.297392512	 2.2082636836	 0.114963
H	 3.1073374441	-2.9315516692	 1.537328178	 0.114935
