14
gdb 24472	3.99913	1.73005	1.20762	6.7813	80.04	-0.207	-0.0471	0.1599	938.1531	0.106312	-395.792691	-395.786802	-395.785858	-395.822775	24.042	
N	 0.0015060708	 1.3350774741	 0.0096886996	-0.273696
C	 1.1727630394	 2.0487729436	 0.0022305604	 0.052809
N	 2.3544886662	 1.5115328309	-0.0123279362	-0.302869
C	 2.4006802302	 0.1552271547	-0.0203635757	 0.327131
N	 3.4944910796	-0.5839635577	-0.0351762115	-0.341856
C	 3.0319335367	-1.8831234341	-0.0378693841	-0.024148
C	 1.6547093366	-2.0143356941	-0.025212797	-0.327283
C	 1.1772335285	-0.6799860271	-0.0130647861	 0.26661
C	-0.0213685499	-0.031029818	 0.0022805428	-0.128386
H	-0.8695850445	 1.8430828155	 0.0210370186	 0.276231
H	 1.0566862049	 3.127738731	 0.0093878085	 0.134538
H	 3.7495033475	-2.6951560412	-0.0494056154	 0.103262
H	 1.0772544249	-2.9261043615	-0.0246918264	 0.094882
H	-0.9998610008	-0.4964968861	 0.0092345426	 0.142773
