15
gdb 128432	4.56802	1.13343	0.93046	3.2127	70.01	-0.2697	-0.039	0.2307	1207.2463	0.113493	-450.118515	-450.110535	-450.109591	-450.151927	28.279	
C	 0.0742372911	 1.2917595762	 0.1682880964	-0.228133
O	 0.2656632561	-0.1227253324	 0.0419643011	-0.207351
C	 0.6443460881	-0.5475763276	-1.1559969796	 0.529399
N	 0.916411446	 0.212937787	-2.1298223314	-0.56288
N	 0.7129512838	-1.9704675047	-1.1640204539	-0.043703
C	 1.4692033916	-2.7608031474	-1.9766361397	-0.093155
C	 1.1418993848	-4.0351283809	-1.6075049825	-0.069507
N	 0.2098719631	-3.9751341933	-0.6073868052	-0.176639
N	-0.0499707213	-2.73872658	-0.3329657055	-0.118241
H	 1.0142808496	 1.821326613	-0.0042930783	 0.146839
H	-0.6672866946	 1.6428090082	-0.5533760682	 0.147884
H	-0.2746554023	 1.4434433007	 1.1891563566	 0.143965
H	 1.129005191	-0.3023723264	-2.9784689732	 0.235404
H	 2.1676911734	-2.3613846428	-2.6912052996	 0.158984
H	 1.5113780397	-4.9749930697	-1.9832811769	 0.137132
