20
gdb 81071	2.71731	1.41668	1.16706	1.9688	78.9	-0.2273	0.0825	0.3098	1131.7226	0.171365	-403.04196	-403.033736	-403.032792	-403.07517	31.663	
C	 0.0235333753	 1.6475417912	-0.1365130601	-0.448729
C	 0.0824049953	 0.1459545561	 0.0735245341	 0.048437
N	 1.1148268152	-0.6613466674	-0.7556911258	-0.161865
C	 2.1466685673	-0.2187803876	 0.2986403068	-0.227285
C	 0.9202535742	-0.5650557874	 1.178194744	 0.318663
C	 0.8096514203	-1.7926974182	 0.2401096297	-0.210389
C	 0.7782148286	-0.520394192	 2.6638404997	-0.092366
C	 0.247297576	 0.6500185132	 3.3773954343	-0.183279
O	-0.5621849354	-0.5072627863	 3.1740173123	-0.234246
H	 0.947395946	 2.1730364012	 0.1156602578	 0.118174
H	-0.2057996263	 1.8572468645	-1.1867286461	 0.134042
H	-0.78256059	 2.0754901494	 0.4683775303	 0.125984
H	-0.9195484474	-0.2749729264	-0.0604328811	 0.081092
H	 3.0142378932	-0.8820754472	 0.3540707037	 0.100699
H	 2.4642483989	 0.8208498355	 0.2142496806	 0.103186
H	-0.1752204983	-2.2467858625	 0.1029234082	 0.107282
H	 1.5981399934	-2.5483511433	 0.2904399005	 0.097727
H	 1.4522845405	-1.1806092418	 3.2140682022	 0.090408
H	 0.5533580917	 0.8339801015	 4.4064447776	 0.116779
H	-0.0511210787	 1.5340257972	 2.817027971	 0.115683
