16
gdb 130130	4.36719	1.12348	0.96086	1.6609	72.3	-0.208	0.0239	0.232	1205.748	0.127301	-430.245532	-430.237657	-430.236712	-430.279498	29.393	
N	-0.1418899812	 1.3602251779	-0.2173154072	-0.58425
C	-0.0465234151	-0.0105684651	-0.0742612344	 0.392869
N	-1.0845280825	-0.7723236166	 0.2467655987	-0.299414
N	-0.5240459866	-2.0203294516	 0.1942438856	-0.257247
C	 0.77289725	-1.9421967383	-0.1344990813	 0.441532
N	 1.1212770341	-0.6767969316	-0.31443778	-0.372653
N	 1.5489544647	-3.1011343534	-0.2444064685	-0.218911
C	 2.5624486542	-3.0906009447	-1.323440742	-0.2194
C	 2.9811007997	-2.9452183464	 0.0873066017	-0.218726
H	 0.7298248585	 1.8369684993	-0.0395241292	 0.255315
H	-0.9184512172	 1.7627049592	 0.2873600991	 0.255953
H	-1.0661124614	-2.8439550849	 0.3925394324	 0.277209
H	 2.6769839611	-4.0401403642	-1.8366570796	 0.125542
H	 2.5969076528	-2.2017221641	-1.9451050033	 0.149129
H	 3.2979501815	-1.9592449038	 0.4114518528	 0.148221
H	 3.4078188275	-3.7872098417	 0.6232110051	 0.124831
