15
gdb 79444	2.93614	1.76653	1.36018	2.7398	63.92	-0.2331	-0.0238	0.2093	918.5962	0.113335	-457.714097	-457.707429	-457.706485	-457.745059	26.684	
O	-0.0130682517	 1.391164027	 0.0855351968	-0.440337
C	 0.0899478902	-0.0125295317	 0.0198595186	 0.10866
C	-1.3363499465	-0.5844970995	-0.0442096113	-0.089333
C	-1.348636068	-0.4025328499	-1.579443591	 0.127087
O	-1.9380769468	-1.6992165427	-1.8106543412	-0.299688
C	-1.2722846439	-2.0715568087	-0.5622185311	-0.064074
C	 0.1800376783	-2.0684921773	-1.0781032466	 0.47483
O	 1.0029813156	-2.9348116013	-1.1401077881	-0.331163
C	 0.2257648534	-0.5829787117	-1.4394485004	-0.268488
H	 0.859142957	 1.7658063455	-0.0757000998	 0.291189
H	 0.7905617892	-0.4060321359	 0.7678711103	 0.086581
H	-2.1330346008	-0.282298399	 0.6317490847	 0.100237
H	-1.7691086932	 0.4177870982	-2.1536774177	 0.108795
H	-1.6862508329	-2.9419643459	-0.059446772	 0.103816
H	 0.96953185	-0.2258674072	-2.1461406811	 0.091889
