19
gdb 98470	2.36607	1.21013	0.97745	2.6061	72.04	-0.2457	-0.0226	0.2231	1287.995	0.155686	-460.149708	-460.139597	-460.138653	-460.185242	35.894	
C	-0.884824179	 0.5176457389	-0.4910831493	-0.390795
C	-0.367878432	-0.7268034789	 0.2408299234	-0.255442
C	 0.8100219824	-0.4236989757	 1.142765061	 0.302292
C	 1.9598920301	-1.3507980864	 1.2200137093	-0.225304
O	 2.0620027745	-0.1304669559	 0.4950880641	-0.267187
C	 0.5117529522	 0.4228675334	 2.3648616704	 0.315764
O	-0.5630263187	 0.3636412935	 2.9096424326	-0.294576
C	 1.6229554457	 1.3592800633	 2.8240242902	-0.178878
O	 1.2391087024	 1.9680917584	 4.0288459672	-0.397736
H	-0.0929754	 0.9692070127	-1.0965697368	 0.127295
H	-1.7130999009	 0.2571634929	-1.1558538536	 0.117936
H	-1.2493747941	 1.267546108	 0.2170899197	 0.134829
H	-1.1608154312	-1.1538844412	 0.8624902383	 0.129437
H	-0.0643189926	-1.4894202929	-0.483624289	 0.101085
H	 2.5597455398	-1.4142027175	 2.1267920721	 0.120878
H	 1.9317733465	-2.2573765881	 0.6173138271	 0.127113
H	 2.5634029632	 0.7922433547	 2.9103545414	 0.113692
H	 1.7848617572	 2.0807964638	 2.0052174379	 0.126006
H	 1.9242687643	 2.5969946271	 4.2725713239	 0.29359
