23
gdb 95754	2.5724	1.29686	1.10143	1.8242	81.78	-0.2564	0.0799	0.3363	1252.5027	0.205095	-425.448378	-425.438896	-425.437952	-425.481757	37.19	
C	 0.0556862864	 1.56797822	 0.092870424	-0.402505
C	 0.0402162931	 0.0485022282	 0.0460598105	 0.11611
C	 0.6205912949	-0.5203610336	-1.2549557866	-0.215537
C	 0.7947547667	-2.0547091222	-1.1940652149	 0.346887
C	-0.5414473896	-2.8012750349	-1.3483005549	-0.424666
C	 1.777884296	-2.5259022387	-2.2651137184	-0.415086
O	 1.4275272489	-2.3988552833	 0.0553107619	-0.278138
C	 0.8362622529	-1.8244196916	 1.1885953045	 0.007968
O	 0.8138673794	-0.4237043603	 1.1488331377	-0.246975
H	 1.0786258982	 1.9419768171	-0.0126695328	 0.125575
H	-0.5522232247	 1.9828852904	-0.716965216	 0.113336
H	-0.342920202	 1.9238827204	 1.0467858821	 0.123744
H	-0.9984816378	-0.3042931855	 0.1722853921	 0.064016
H	-0.0150437564	-0.2469416044	-2.1049814394	 0.09277
H	 1.6040432815	-0.0634558719	-1.4140293998	 0.101195
H	-0.94292708	-2.6511570488	-2.3554152387	 0.115068
H	-0.3849577903	-3.8729426753	-1.1958492175	 0.122922
H	-1.3018546608	-2.4654442717	-0.6389850103	 0.115917
H	 2.7548106106	-2.0604967398	-2.1097647949	 0.122405
H	 1.9038766843	-3.6115205031	-2.2162681783	 0.119095
H	 1.417370847	-2.2620907354	-3.2642232205	 0.109832
H	-0.1907637412	-2.2072254054	 1.3338870645	 0.072557
H	 1.4578407531	-2.1114343901	 2.0400482756	 0.11351
