17
gdb 45242	3.44617	1.68263	1.5144	4.5381	70.52	-0.2573	0.0081	0.2654	905.6856	0.140179	-421.859844	-421.853872	-421.852928	-421.890056	25.307	
O	-0.0361895996	-0.0303703072	-0.2942390798	-0.350561
C	 0.0027482915	 1.1404187983	-0.0520304716	 0.43224
O	-1.1223766156	 1.9047114786	 0.1321918935	-0.238128
C	-0.6757452797	 3.213938769	 0.5585861687	 0.09562
C	-0.0435394155	 3.0331982756	 1.964538545	-0.236053
C	 1.3986591972	 2.7927656409	 1.4818599415	-0.04126
C	 1.6477663252	 4.0985957071	 0.6752463058	-0.243467
C	 0.6031719493	 3.486266772	-0.2830756662	-0.044454
C	 1.1752899944	 2.0852524417	 0.0737939094	-0.17494
H	-1.5146537239	 3.8998223951	 0.4642156584	 0.093892
H	-0.1156334856	 3.925998896	 2.5915622833	 0.106516
H	-0.5060196182	 2.194063741	 2.488155265	 0.122864
H	 2.122602994	 2.3971656355	 2.1917057943	 0.082804
H	 1.4281862704	 5.0517452819	 1.165197941	 0.098271
H	 2.638160948	 4.1341828672	 0.215845206	 0.111027
H	 0.459684238	 3.8107447884	-1.3130673732	 0.084484
H	 2.0862984901	 1.7540507291	-0.4179116809	 0.101147
