18
gdb 51603	2.75642	0.94621	0.8008	3.524	73.75	-0.2463	-0.0204	0.2259	1429.7581	0.145921	-439.101126	-439.091622	-439.090678	-439.137288	33.006	
O	-0.1297490998	 0.7843915863	 0.8563177107	-0.238898
C	 0.2682176079	 1.1090639146	-0.2323219509	 0.162959
C	 1.59393064	 1.7874221102	-0.5031707278	-0.297642
C	 1.4072792091	 3.0706331235	-1.2902300603	 0.000979
C	 1.1228807646	 4.3740934967	-0.5812894155	-0.331185
C	 2.4481935816	 4.1641397667	-1.266805439	 0.024394
N	 3.6227184573	 4.0254541011	-0.4566472194	-0.280831
C	 4.6713882374	 3.2336837561	-0.8230568391	 0.152002
O	 4.6740882016	 2.4839613457	-1.7743549183	-0.31873
H	-0.3463919972	 0.9208880729	-1.1445333989	 0.070994
H	 2.0923840878	 1.9686752361	 0.4516732627	 0.116996
H	 2.2211681011	 1.1011654882	-1.0885158606	 0.145615
H	 0.9268655762	 2.9367937478	-2.2556580991	 0.100048
H	 0.4255239053	 5.0798586712	-1.017440736	 0.124924
H	 1.1193341598	 4.3510249182	 0.5041396671	 0.125499
H	 2.6118657801	 4.6815416808	-2.2090501775	 0.112163
H	 3.7711686182	 4.6868768157	 0.29015526	 0.251763
H	 5.5308597491	 3.3441362782	-0.1314981481	 0.07895
