17
gdb 25688	5.90195	0.74833	0.66968	3.3667	90.57	-0.199	0.0164	0.2154	1682.6949	0.135786	-380.902893	-380.893468	-380.892523	-380.939394	32.705	
C	-0.0475149296	 1.4632407713	-0.0167120724	-0.509952
C	-0.0024303876	 0.009542919	-0.011546633	 0.241016
C	 0.0274028964	-1.1962815604	-0.007649886	-0.134986
C	 0.0658764508	-2.6115691662	-0.0031363488	 0.141175
C	 1.1812047994	-3.4172895713	 0.0386588693	-0.208798
N	 0.7026096157	-4.7051861889	 0.0242242116	-0.267242
C	-0.6657672785	-4.6429299468	-0.0251276394	 0.329488
C	-1.5360735223	-5.8546480837	-0.0534399565	-0.509617
N	-1.0790616826	-3.3978373057	-0.0425860702	-0.341847
H	 0.9603594734	 1.8912666962	-0.0589168025	 0.145023
H	-0.6038474431	 1.8424465791	-0.8816499507	 0.148278
H	-0.5341252547	 1.8523309643	 0.8851975854	 0.14761
H	 2.2329850575	-3.190083683	 0.0758851197	 0.131065
H	 1.2613193545	-5.5418315894	 0.0461343465	 0.263789
H	-1.4019221877	-6.4749934864	 0.8403204138	 0.131761
H	-2.5768612028	-5.5322729517	-0.0960579572	 0.161683
H	-1.3320630886	-6.4838641662	-0.9275366696	 0.131553
