13
gdb 34174	4.0661	1.6204	1.41968	3.7925	64.51	-0.2735	-0.0198	0.2537	869.8143	0.090423	-415.51003	-415.504071	-415.503127	-415.540408	23.769	
N	-0.0118420601	-1.0836612335	 0.0347684699	-0.327514
C	-0.0461547928	 0.0712226013	 0.0279138126	 0.163953
C	-0.0672762678	 1.510663302	-0.0159746364	 0.369073
O	-1.00786935	 2.1638841927	 0.860620064	-0.31346
C	-0.8540059269	 3.3141464604	-0.0056401429	 0.050705
C	 0.6448333677	 3.7083341466	-0.0003740191	-0.057141
C	 1.2464023649	 2.3503359802	-0.0224315502	-0.110764
N	 0.9592037579	 3.0490238088	-1.3159561311	-0.172676
C	-0.4404235399	 2.4389283397	-1.2169731248	-0.0844
H	-1.6535692937	 4.0455835849	 0.0660978436	 0.11264
H	 1.1430639227	 4.6072799101	 0.3365757557	 0.120833
H	 2.2432693789	 2.0783463347	 0.2960534238	 0.127148
H	-1.019269211	 2.171825952	-2.0965854651	 0.121602
