19
gdb 66253	3.06906	1.23747	1.16097	0.9876	70.09	-0.2512	0.069	0.3203	1136.0789	0.159379	-460.135495	-460.127061	-460.126116	-460.168855	31.921	
O	 0.421874842	 1.2983528966	 1.0013554016	-0.488459
C	 0.0530109603	 0.014331066	 0.5058363052	 0.37593
C	 0.4273811931	-0.1472680709	-0.9872486057	-0.307609
C	 1.8327031895	-0.8008500854	-0.9345565601	-0.09331
O	 2.1798661238	-0.9035342814	 0.4514471428	-0.265761
C	 0.9488376833	-1.06147023	 1.1432664064	-0.146194
C	-1.411294839	-0.148993766	 0.8480047967	 0.046607
C	-2.5006321425	 0.1643217958	-0.0805590173	-0.182375
O	-2.1217129669	-1.1921793326	 0.1819683491	-0.239834
H	 1.3866518627	 1.3113829789	 1.0314182333	 0.286454
H	-0.2895312539	-0.7980415102	-1.4925173959	 0.126068
H	 0.4300573444	 0.8285645364	-1.475757615	 0.11398
H	 1.8184780059	-1.8012053834	-1.3896617725	 0.1031
H	 2.6115688546	-0.212657339	-1.4260310178	 0.112267
H	 1.1240015627	-0.8919542125	 2.2082438391	 0.113584
H	 0.5249955781	-2.0669583893	 0.9925607955	 0.105239
H	-1.6175270119	-0.0699165843	 1.9161915549	 0.100543
H	-3.4715976203	 0.4592508853	 0.3128028569	 0.121335
H	-2.271510026	 0.526869526	-1.0802910172	 0.118435
