14
gdb 123676	4.3168	1.6282	1.42194	1.635	66.35	-0.2458	-0.0082	0.2376	876.6082	0.104905	-432.798825	-432.792947	-432.792003	-432.828981	23.691	
C	-0.0494953722	 1.5847286855	-0.0683395782	-0.221842
C	 1.4921984296	 1.3306042762	-0.0062242007	-0.07249
O	 1.1825751105	 0.1690355924	 0.8561031732	-0.286633
C	-0.0164781062	 0.0229235698	 0.0019156276	-0.072492
C	 0.6551549127	-0.3083921932	-1.3181830625	 0.364238
N	 0.6922185391	-1.0462142527	-2.4077053116	-0.344668
N	 1.7740180699	-0.537547142	-3.0373244189	-0.124751
N	 2.4349551818	 0.4644504471	-2.4171505285	-0.344667
C	 1.716635809	 0.6117019681	-1.3239221941	 0.364234
H	-0.4242940109	 2.0229082441	 0.8584743884	 0.121778
H	-0.4722338791	 2.0669405604	-0.9524433684	 0.114958
H	 2.2128178126	 2.0284903306	 0.4110956807	 0.10583
H	-0.8070284663	-0.5890350951	 0.427391367	 0.10583
H	 2.1063487595	-0.9263520613	-3.9042594139	 0.290675
