15
gdb 125402	2.63652	1.57313	0.99122	0.9225	68.23	-0.2613	-0.0411	0.2202	1120.0125	0.112691	-453.983153	-453.974638	-453.973694	-454.016828	30.467	
C	-0.0090406079	 1.5306566826	 0.0006028571	-0.488979
C	-0.0082163613	 0.0362242739	 0.0165007105	 0.061743
C	-0.0485422045	-0.8333363723	-1.0267156329	 0.006505
O	-0.0317933169	-2.1112062363	-0.5986788838	-0.170213
N	 0.0215013824	-2.1125264321	 0.7768195023	-0.210926
C	 0.0355519721	-0.8492170333	 1.1393946538	 0.235206
C	 0.091825368	-0.4667816755	 2.5840332645	 0.349472
N	 0.1239874219	-1.5158956896	 3.4430057503	-0.534531
O	 0.1060308879	 0.7024748713	 2.9275178025	-0.370729
H	 0.8853227938	 1.9278165833	 0.4875458596	 0.151952
H	-0.0488163557	 1.9070267656	-1.0250377104	 0.116264
H	-0.8631235444	 1.9276042676	 0.5553017997	 0.151914
H	-0.0901270407	-0.7010505753	-2.0967616068	 0.156098
H	 0.1120466687	-2.4627067341	 3.1019256369	 0.280677
H	 0.1642712367	-1.3295038259	 4.4305535866	 0.265547
