13
gdb 5358	5.54545	1.56044	1.21777	1.6094	68.36	-0.2654	-0.0831	0.1823	907.3817	0.097846	-361.531106	-361.524893	-361.523949	-361.561669	22.879	
O	-0.07865686	-0.0272032302	-0.0025025435	-0.251863
C	-0.0112024771	 1.1776288728	 0.0069172615	 0.096302
C	 1.2615114505	 1.9450685126	-0.0006377012	 0.211638
C	 2.4944787324	 1.2897579276	-0.019868815	-0.191139
C	 3.6503991387	 2.0598038072	-0.0260906541	 0.018299
N	 3.6505458764	 3.398677799	-0.0146623782	-0.260783
C	 2.46699817	 4.0152110937	 0.003688985	 0.020434
C	 1.2493404214	 3.3387673101	 0.0113867305	-0.206808
H	-0.9277723294	 1.8081157174	 0.0223432183	 0.08037
H	 2.5286906465	 0.2066376804	-0.029476773	 0.132064
H	 4.6275076602	 1.5836707431	-0.0409839262	 0.120832
H	 2.4921745508	 5.1020486376	 0.0127157407	 0.119572
H	 0.3116029596	 3.8861383988	 0.0264210552	 0.111081
