20
gdb 88292	3.83465	0.96207	0.91274	1.7246	83.43	-0.2255	-0.0274	0.1981	1377.7039	0.170155	-403.122815	-403.113651	-403.112707	-403.157491	33.825	
C	-0.8354443146	 0.9369332011	 0.424468167	-0.325276
N	 0.0022195276	-0.2403337355	 0.2049152452	-0.082138
C	 1.2221399423	-0.0874186776	-0.5453895107	-0.235081
C	 1.2855933833	-0.3897285783	 0.9251236248	-0.113955
C	 1.8121458307	 0.6720327518	 1.8442672333	 0.391382
O	 1.7850247861	 1.8575281953	 1.5561633949	-0.361485
C	 2.3688765392	 0.2022475715	 3.1444995742	-0.114399
C	 3.538391234	 0.988546386	 3.724301698	-0.247963
C	 2.1947151751	 1.1222259301	 4.3477065789	-0.247609
H	-0.2770696228	 1.871014697	 0.5497081133	 0.146051
H	-1.503743954	 1.028464241	-0.4374258773	 0.122192
H	-1.4515839966	 0.7704581888	 1.3136498954	 0.119846
H	 1.4563284477	-0.8773653047	-1.2549300216	 0.117201
H	 1.5319944967	 0.9174285995	-0.8271461031	 0.13276
H	 1.4727699201	-1.4119639842	 1.243728204	 0.090589
H	 2.3458923547	-0.8653499456	 3.327992959	 0.091059
H	 4.3052733018	 0.4211736377	 4.2387596144	 0.119017
H	 3.8900508017	 1.8128226272	 3.1145596374	 0.139206
H	 1.6440711651	 2.0358220377	 4.1560430259	 0.139129
H	 2.0069446221	 0.6488387012	 5.3043598071	 0.119474
