21
gdb 77552	2.77617	1.26472	1.06318	3.0281	84.93	-0.242	-0.0245	0.2175	1228.2066	0.180941	-387.061702	-387.052402	-387.051458	-387.095713	35.03	
C	-0.1340337632	 1.5723258628	 0.0734031618	-0.445563
C	 0.0379347164	 0.0626064548	 0.0197255135	-0.025143
C	 0.8718533981	-0.6444198059	-1.1087800304	 0.319561
C	 0.589605607	-0.6345670073	-2.5872198152	-0.51205
C	 2.1747386996	-0.163893392	-0.3882212305	-0.311972
C	 1.239576432	-0.6583350992	 0.7436855922	 0.247507
C	 0.9114400835	-1.8874103052	-0.164756311	-0.30491
C	 1.5002296282	-0.6844075683	 2.2066156163	 0.028416
O	 2.4911473386	-0.2440295325	 2.7365545235	-0.250601
H	 0.7969134708	 2.1226878262	-0.0798813529	 0.126488
H	-0.8428973565	 1.8977049534	-0.6964925376	 0.121232
H	-0.5439300917	 1.879803498	 1.0414138168	 0.124107
H	-0.9257799823	-0.4276620499	 0.2046243363	 0.065156
H	 0.6145383673	 0.3853032518	-2.9866856154	 0.122304
H	 1.3342114703	-1.224002695	-3.1333297453	 0.122576
H	-0.3978988085	-1.0567073463	-2.8044686982	 0.118711
H	 3.0701795844	-0.7659961035	-0.5621384272	 0.097074
H	 2.4134860022	 0.89902568	-0.4188941923	 0.101334
H	-0.0384817005	-2.3980170788	 0.0180007518	 0.092837
H	 1.7303498174	-2.5949960714	-0.3191483543	 0.098131
H	 0.6855780972	-1.1505748716	 2.8105320582	 0.064806
