20
gdb 121459	3.87181	0.73504	0.66383	0.6089	79.87	-0.255	0.0165	0.2715	1753.7509	0.16925	-440.276096	-440.265898	-440.264954	-440.313259	35.226	
C	 0.2323955906	 1.6706860077	-0.3733956508	-0.38064
C	 0.6371679988	 0.543083393	-1.3253945972	-0.155554
C	 0.3914833315	-0.8452583128	-0.7279320717	-0.155773
N	 0.8596882201	-1.8850560006	-1.6410271298	-0.345384
C	 0.1425390506	-2.8820086374	-1.8697958193	 0.427708
O	-1.1036325571	-3.2518026118	-1.3941577066	-0.267228
C	-1.1686881627	-4.3710404345	-2.3376435206	-0.093582
C	 0.2647075094	-4.0630295483	-2.8156071699	-0.017405
O	 0.3820511007	-3.7574630168	-4.1814171673	-0.429491
H	-0.8313456869	 1.6137445148	-0.1168052407	 0.115438
H	 0.8001095078	 1.62352021	 0.5627734858	 0.114206
H	 0.413236618	 2.6520714293	-0.8220027576	 0.113544
H	 0.0788173715	 0.6270758177	-2.2657978085	 0.097344
H	 1.697962037	 0.6268571778	-1.5879025418	 0.104395
H	 0.9604222167	-0.9387104381	 0.2072687179	 0.107923
H	-0.6700748293	-0.9652172167	-0.4709662555	 0.109779
H	-1.3314772427	-5.3152756652	-1.8147706609	 0.122527
H	-1.9299880764	-4.2010984773	-3.1017593549	 0.132365
H	 1.0065300379	-4.8072504601	-2.4957453431	 0.099609
H	 1.0351575945	-3.0519671708	-4.2564981676	 0.300219
