12
gdb 131016	5.4019	1.11166	0.92194	2.992	68.26	-0.2644	-0.0927	0.1716	1135.2037	0.078514	-468.834575	-468.827578	-468.826633	-468.866695	25.009	
O	-0.0848254332	-0.0563017656	-0.000229579	-0.236816
C	-0.028732397	 1.1342432829	 0.0088957209	 0.194216
N	 1.1778448074	 1.8811683816	 0.0017724268	-0.077367
C	 1.158963484	 3.2569534784	 0.0132477774	 0.140209
N	 2.1903095184	 4.0186201443	 0.0081671232	-0.321992
C	 3.451148838	 3.3867838624	-0.0109219675	 0.369672
O	 4.4909784005	 4.0025725749	-0.0174176258	-0.318536
C	 3.417139503	 1.9027114133	-0.0226081571	-0.055426
N	 2.352348586	 1.1815237885	-0.0168078723	-0.134037
H	-0.9007041101	 1.8111548919	 0.02403111	 0.119321
H	 0.1592484336	 3.6913784921	 0.0278671794	 0.156843
H	 4.3643561794	 1.3713078652	-0.0373376859	 0.163911
