21
gdb 50591	3.00954	1.24472	1.01517	3.0075	82.21	-0.2419	-0.0186	0.2233	1223.3212	0.184201	-387.105889	-387.097646	-387.096702	-387.139444	31.593	
O	 0.1529938154	-0.1191132913	-0.2185835831	-0.255021
C	 0.0741699959	 1.0800275562	-0.1227020338	 0.145829
C	 1.2502615078	 2.0227242188	-0.0894751324	-0.061629
C	 1.1959333419	 3.122618278	-1.1750139001	-0.241111
C	 2.2388746174	 4.1520835848	-0.694787286	-0.222356
C	 2.1201455156	 4.1645640443	 0.8388673222	-0.002637
C	 0.9305946385	 4.97317948	 1.4322568175	-0.220587
C	 0.1644216746	 3.6536927269	 1.7239678115	-0.236988
C	 1.3927174822	 2.8251441712	 1.2263418091	-0.028941
H	-0.9219067837	 1.5764580887	-0.0549876487	 0.067937
H	 2.1502390896	 1.4134744421	-0.2282341033	 0.090941
H	 1.403434058	 2.7346804976	-2.1758169714	 0.109695
H	 0.1946500827	 3.5711245698	-1.2046933605	 0.104257
H	 3.2402413833	 3.8149266904	-0.9859320007	 0.10176
H	 2.090037184	 5.1419468857	-1.1382849174	 0.098703
H	 3.0811080197	 4.3543930708	 1.3212212459	 0.067866
H	 1.1898856689	 5.5415764245	 2.3285403507	 0.102347
H	 0.4412938119	 5.6561450238	 0.7310292818	 0.096097
H	-0.0914100447	 3.4874121547	 2.7726278683	 0.10533
H	-0.7492649652	 3.5294777192	 1.1379590225	 0.101434
H	 1.8593474462	 2.2273952037	 2.0110086381	 0.077072
