15
gdb 45379	2.21043	1.82761	1.27492	5.918	72.5	-0.2513	-0.0109	0.2404	999.7495	0.114122	-412.952477	-412.94479	-412.943846	-412.984666	29.078	
N	-0.0788801079	 1.2233333839	-0.5793594926	-0.534905
C	 0.0502478353	 0.0331839445	-0.1964195996	 0.379695
N	 1.0729180799	-0.798000242	 0.2748625137	-0.3414
C	 0.2304750049	-1.9720787009	 0.4936292329	-0.045185
C	-0.5512275388	-2.0646279576	 1.8271813957	-0.184963
N	-1.5490394861	-1.0796925292	 1.3314327209	-0.347939
C	-0.9722391766	-1.1106851678	-0.0446416287	 0.147118
C	-1.8394294778	-1.485612948	-1.1338936061	 0.198869
N	-2.5513027671	-1.8052437903	-1.9870654026	-0.333071
H	 0.7865323316	 1.7583269972	-0.4935075229	 0.220581
H	 1.8732417217	-0.5180678211	 0.8245516876	 0.248207
H	 0.5893181205	-2.891621276	 0.0330322981	 0.116075
H	-0.9534432686	-3.0720363626	 1.9861919597	 0.118626
H	-0.0220332745	-1.744012851	 2.7302233324	 0.113861
H	-2.5119513066	-1.3905675389	 1.3728263214	 0.244431
