19
gdb 80411	2.4843	1.74689	1.28368	2.5796	75.09	-0.2441	-0.0162	0.2279	1036.777	0.159821	-423.043569	-423.035538	-423.034594	-423.075679	31.993	
C	-0.1529779607	 1.524427747	 0.0275746687	-0.420893
C	 0.0716651115	 0.0133055099	-0.0326741607	-0.085236
C	 0.9933511399	-0.5386939162	-1.1532737619	-0.045037
C	 1.216812648	-2.0084356702	-0.6949817736	-0.298054
C	 2.0104461421	-1.3088789081	 0.4640665288	 0.340526
O	 2.8882699457	-1.9474509989	 1.3054533921	-0.486227
C	 2.4252696832	-0.2460438	-0.6159829478	-0.29643
C	 0.8847270394	-0.5537643956	 1.1401138195	 0.374485
O	 0.7366575799	-0.448562112	 2.3328716509	-0.370781
H	 0.7900285572	 2.0785960628	-0.000531847	 0.123917
H	-0.7652113771	 1.8592440673	-0.8153019587	 0.11998
H	-0.6692264465	 1.79204038	 0.9539240011	 0.139216
H	-0.9028031477	-0.4919608477	-0.0565943402	 0.100707
H	 0.7194833719	-0.3055162218	-2.1801494056	 0.076479
H	 0.3437624068	-2.615025369	-0.4366792225	 0.101485
H	 1.8902954795	-2.5630047744	-1.3515436059	 0.114367
H	 2.5868824166	-1.7497418307	 2.2066033145	 0.290838
H	 3.2083133943	-0.6382029216	-1.2679612412	 0.115359
H	 2.6777303561	 0.7645539893	-0.2853439605	 0.105298
