19
gdb 59740	2.41408	1.49089	1.00623	2.7574	71.28	-0.2697	0.0012	0.2709	1198.3009	0.158536	-460.208737	-460.199615	-460.198671	-460.243087	32.949	
C	-0.1172000717	 1.5051940063	-0.127505162	-0.394285
C	-0.0556580758	-0.0206930347	 0.0167780799	 0.006897
C	 0.8601595982	-0.4395470803	 1.1751532038	-0.401587
C	-1.4780913942	-0.5922029945	 0.2097405683	-0.045843
O	-2.4036873902	-0.1452842778	-0.7789861708	-0.257286
C	-2.5673261955	-1.1833050982	-1.7118117346	 0.02142
O	-2.2192318344	-2.4009624209	-1.0604568274	-0.215961
C	-1.5347863392	-2.1140225892	 0.079964681	 0.428272
O	-1.0787849766	-2.9539678128	 0.7977177264	-0.331018
H	 0.8816217698	 1.9105557567	-0.3161375256	 0.115362
H	-0.7736413979	 1.8020638486	-0.9482453599	 0.128643
H	-0.4961249632	 1.9667988987	 0.7921178954	 0.115925
H	 0.3465179326	-0.4402400335	-0.9164313644	 0.079683
H	 0.8965433437	-1.5240181691	 1.2947300426	 0.151441
H	 1.876222479	-0.0716270146	 1.003554303	 0.115501
H	 0.5074867888	-0.0090756868	 2.1199302127	 0.115844
H	-1.8635386672	-0.2936300918	 1.1912279351	 0.119327
H	-3.6151762211	-1.2304510604	-2.0215566671	 0.134084
H	-1.9151685653	-1.0586219858	-2.5891311366	 0.113581
