15
gdb 11087	7.09442	1.05542	1.03526	3.6354	72.44	-0.2725	0.0166	0.2891	1114.5839	0.118681	-325.497776	-325.490088	-325.489144	-325.530112	28.204	
C	-0.626844598	-0.897835141	-0.7538812236	-0.434139
C	-0.2393198404	 0.1486517652	-0.3057120621	 0.293624
C	 0.2438369377	 1.3918451798	 0.2548032859	-0.143576
C	 0.0935583471	 1.6281270128	 1.7917102094	-0.235794
C	 1.5267682896	 2.2552719741	 1.8104894907	-0.170112
C	 1.7847056997	 1.5905665782	 0.4178733169	-0.235819
C	 1.5294834765	 3.7100921042	 1.7740967145	 0.273293
N	 1.5236165179	 4.865976238	 1.7355015361	-0.325291
H	-0.9752783965	-1.8164242651	-1.1570218018	 0.200963
H	-0.1803528359	 2.2410881673	-0.2906999154	 0.124681
H	-0.7324378374	 2.2580379431	 2.1217575002	 0.133968
H	 0.0793473546	 0.6854690673	 2.341095806	 0.127901
H	 2.1779891274	 1.9223084921	 2.6212230964	 0.128437
H	 2.3000476423	 0.6361855553	 0.5370518404	 0.127899
H	 2.2933570355	 2.1908976887	-0.3363633536	 0.133964
