19
gdb 15774	4.4834	1.08334	0.94662	4.1618	75.86	-0.2912	0.0375	0.3287	1240.177	0.164999	-327.938462	-327.929699	-327.928755	-327.972083	31.953	
C	 0.1695596733	 1.4376080522	 0.1213159838	-0.402163
C	-0.0447935255	-0.0749726707	-0.0100674954	 0.00687
C	-1.5512946695	-0.4414941572	-0.009256106	-0.340382
C	-2.2363543324	-0.060663828	 1.2236744458	 0.260906
N	-2.758331399	 0.2437324142	 2.209098418	-0.314969
C	 0.6097584126	-0.6290480714	-1.2616101557	 0.034558
C	 2.0733998475	-0.9859326608	-1.2590238722	-0.279217
C	 1.031227536	-2.0756580699	-1.3356853657	-0.278848
H	 1.2374655407	 1.6713275745	 0.1481648713	 0.12369
H	-0.2670689031	 1.9696949566	-0.7321008986	 0.115013
H	-0.2908237321	 1.8286197211	 1.0331540232	 0.140152
H	 0.4106950425	-0.5688745793	 0.8582040627	 0.090418
H	-2.0541059343	 0.0487575137	-0.852198439	 0.14606
H	-1.6704129732	-1.5206142292	-0.1546734855	 0.15171
H	 0.2296547217	-0.1966348619	-2.1854809018	 0.083007
H	 2.6603537343	-0.7689636925	-2.1442779547	 0.116635
H	 2.6183677517	-0.8751743654	-0.327106017	 0.116073
H	 0.8847757351	-2.6930864432	-0.4547222927	 0.11434
H	 0.9056948335	-2.6056057928	-2.2732029703	 0.116148
