19
gdb 81448	3.55761	1.33412	1.25925	0.8399	75.31	-0.219	0.0672	0.2861	1068.3852	0.159831	-422.978418	-422.970877	-422.969933	-423.009964	31.037	
O	 0.0052688384	 1.3920254195	-0.1120581529	-0.442995
C	 0.02818075	-0.0130887416	-0.036421254	 0.127806
C	 0.050039752	-0.6443591207	 1.393412644	 0.04852
C	-1.4333507097	-0.2217113032	 1.5203540441	-0.247831
C	-1.412507216	-0.612151817	 0.0046991248	-0.162468
C	-1.0588663065	-2.0809493098	 0.1168653475	 0.502956
C	-2.010659697	-3.2305178052	 0.1106867114	-0.353221
C	-0.9740691465	-3.0701300448	-0.9978108656	-0.354431
O	-0.0098336817	-2.0494287632	 1.0988304692	-0.320655
H	 0.8930808845	 1.7142841761	 0.0735967449	 0.286762
H	 0.726721007	-0.4590784498	-0.755990665	 0.073462
H	 0.8191616432	-0.4530977442	 2.1414337339	 0.074911
H	-2.0614244545	-0.8090308007	 2.1927097451	 0.100374
H	-1.5607010561	 0.8483196666	 1.6708314612	 0.117466
H	-2.1850109012	-0.3207175441	-0.7049467875	 0.078662
H	-1.8383334622	-4.0150656033	 0.8393386684	 0.122888
H	-3.0543134283	-3.0449635965	-0.1226298923	 0.112223
H	-1.3119719025	-2.7759535433	-1.9865176271	 0.112829
H	-0.1302976231	-3.7512338848	-0.9890431903	 0.122743
