17
gdb 9275	3.74443	0.93077	0.78583	4.4246	65.27	-0.2726	0.0379	0.3104	1385.8509	0.140694	-401.007408	-400.998097	-400.997153	-401.042033	32.499	
O	 0.3927725037	 0.3785292065	 0.9365351318	-0.405664
C	-0.1364707973	 0.2754944603	-0.3734386897	-0.102562
C	-1.5018665558	-0.426809348	-0.415847572	 0.090412
O	-2.0297761826	-0.4088739889	-1.7372806818	-0.426672
C	-1.437309194	-1.8419105731	 0.1630979757	-0.190593
C	-2.8297488471	-2.4974463351	 0.2161913833	-0.341541
C	-2.7833822041	-3.8867888219	 0.6628071141	 0.254459
N	-2.7292686545	-4.9859356708	 1.0157098679	-0.306404
H	-0.1066977618	 1.0519149879	 1.4092241158	 0.290367
H	-0.2305211178	 1.2540522249	-0.8644406485	 0.105876
H	 0.5918698257	-0.311967959	-0.9481181917	 0.105378
H	-2.2142525692	 0.1693067392	 0.1723861253	 0.0843
H	-1.4184286508	-0.8893835841	-2.3079194512	 0.284956
H	-0.7686773639	-2.454457357	-0.456258063	 0.109368
H	-0.9904274896	-1.8000937136	 1.1601432212	 0.136757
H	-3.4876215066	-1.9368022703	 0.8909103655	 0.14912
H	-3.2898285142	-2.454968457	-0.7764724827	 0.162442
