13
gdb 2505	3.35505	2.17105	1.39065	4.366	58.34	-0.3386	-0.0102	0.3284	833.2195	0.101328	-303.525517	-303.51799	-303.517045	-303.55734	25.66	
C	-0.049088318	 1.5500650708	 0.0400976397	-0.406017
C	-0.0070523349	 0.0229997096	 0.0063757291	-0.179854
C	 0.7476094903	-0.5258994153	-1.2403856538	-0.282324
C	 2.1514755888	-0.0892473969	-1.260519673	 0.305797
N	 3.2421662738	 0.2892308641	-1.260908462	-0.306127
C	 0.6605325354	-1.9909977947	-1.3090035215	 0.295146
N	 0.5510317788	-3.139492189	-1.3477904927	-0.29906
H	 0.9572724014	 1.9770192836	 0.0763288674	 0.153169
H	-0.5590904325	 1.9546452493	-0.8405830856	 0.127338
H	-0.5916399266	 1.8902754997	 0.9258588639	 0.136088
H	 0.4773135714	-0.3742110764	 0.9030099842	 0.142866
H	-1.0184366186	-0.3930912295	-0.0249302706	 0.135366
H	 0.2676816608	-0.1243317851	-2.1430801451	 0.17761
