23
gdb 120572	3.65373	0.73131	0.6917	0.9575	94.36	-0.2351	0.058	0.2931	1766.0507	0.202931	-351.122249	-351.111425	-351.110481	-351.158259	40.042	
C	 0.0285183126	 1.5588732164	-0.1207871273	-0.38237
C	 0.1832786554	 0.036801028	-0.073725762	-0.155401
C	 0.5055672682	-0.4905509497	 1.3324053798	-0.207058
C	 0.6437232258	-1.9984291524	 1.3634294737	-0.021423
C	 1.9488257604	-2.6860754289	 1.071349686	-0.316564
C	 1.3681829374	-2.7521191064	 2.4809242467	 0.116779
C	 2.0715149214	-2.0053243477	 3.606601168	-0.459809
C	 0.7789462154	-4.0024336919	 2.8864050207	 0.280353
C	 0.2877929544	-5.0409636798	 3.2453769387	-0.466397
H	 0.9481830406	 2.061507865	 0.199440129	 0.113057
H	-0.2039360772	 1.9053651494	-1.1325810768	 0.112328
H	-0.7778578022	 1.8961621224	 0.5400340359	 0.114516
H	-0.7389182862	-0.4378927465	-0.4335761182	 0.09676
H	 0.9753449994	-0.2780682279	-0.7648366174	 0.099841
H	 1.4267981436	-0.0141271113	 1.6878138519	 0.093506
H	-0.2876961915	-0.1784792293	 2.0255888812	 0.099075
H	-0.2368613832	-2.5208141905	 0.9980702166	 0.094152
H	 1.9484593387	-3.5918745262	 0.4767198576	 0.120513
H	 2.8303319373	-2.063765141	 0.9474945277	 0.110143
H	 2.5464583182	-1.0900263906	 3.2463192752	 0.115503
H	 1.3670690894	-1.736146848	 4.4000515627	 0.126395
H	 2.8490415586	-2.6353034444	 4.0493814664	 0.127589
H	-0.1464048365	-5.9582022386	 3.5566526142	 0.188513
