12
gdb 131040	2.80324	1.71578	1.06434	3.6118	65.34	-0.2763	-0.1148	0.1614	1007.4177	0.077534	-468.811793	-468.804672	-468.803728	-468.843874	25.48	
O	-0.0375629318	-0.0589683371	-0.0017443716	-0.233709
C	-0.0314634855	 1.1334120229	 0.0073488869	 0.189474
N	 1.174053806	 1.9209703303	 0.0002515535	-0.176474
N	 2.3354989783	 1.1999729243	-0.017824466	-0.010522
N	 3.4428379552	 1.807854412	-0.0252041941	-0.188857
C	 3.4745161459	 3.196798475	-0.0149758626	 0.065024
C	 2.3725462827	 3.9728162639	 0.0028707533	-0.236112
C	 1.0664875161	 3.3462776337	 0.0122448448	 0.49185
O	-0.0091616308	 3.9049856829	 0.0282438883	-0.367653
H	-0.9097538627	 1.7900583956	 0.0217079894	 0.162438
H	 4.4772359568	 3.6090617384	-0.0226975483	 0.153881
H	 2.4105840198	 5.0551274781	 0.0107020065	 0.15066
