21
gdb 68547	2.31365	1.86881	1.49908	0.1639	86.85	-0.2194	0.0164	0.2358	1015.5705	0.182847	-349.908625	-349.9007	-349.899756	-349.940284	33.014	
C	-0.0194680272	 1.5530879179	 0.010677096	-0.517112
C	-0.0217594945	 0.0432304162	-0.009585728	 0.21526
C	 0.3742372931	-0.8029860909	-1.2776715689	-0.242626
C	-0.3534962412	-1.9374339956	-0.4774927925	-0.168083
C	 0.5511971517	-2.0156941906	 0.7629158884	-0.089801
C	 0.7655222591	-0.7332981958	 1.0668938878	-0.116992
C	-1.3266211277	-0.815436481	-0.0311432822	 0.432001
C	-2.51440512	-0.8329033473	 0.863336257	-0.367068
C	-2.6562115864	-0.4590534144	-0.6091433609	-0.361777
H	 0.9980287637	 1.9459936345	-0.0936340851	 0.119333
H	-0.6193746814	 1.9636915178	-0.8080654645	 0.116625
H	-0.4269788826	 1.9390865033	 0.9523747753	 0.117211
H	-0.1621438471	-0.4948494635	-2.1808397755	 0.091643
H	 1.4413414047	-0.9373347557	-1.4720462648	 0.086105
H	-0.6975242305	-2.8591980111	-0.9461574986	 0.057564
H	 0.8975879283	-2.9151194821	 1.2518932837	 0.096644
H	 1.3349223638	-0.2917396389	 1.8734289011	 0.093416
H	-2.909247608	-1.7915324932	 1.1851864781	 0.10981
H	-2.6256823532	-0.0402081892	 1.5971151046	 0.108704
H	-2.8625943786	 0.5803635264	-0.8475427702	 0.10946
H	-3.1462960558	-1.1681615669	-1.2696643808	 0.109681
