23
gdb 118687	2.19459	1.02885	0.94829	1.2268	82.47	-0.2408	0.0697	0.3105	1456.3797	0.202545	-425.413137	-425.401981	-425.401036	-425.44939	40.827	
C	 0.0565771031	 1.5968808157	-0.0434483647	-0.383474
C	-0.0095136429	 0.0739910705	-0.1836423685	-0.179628
C	-1.3878349566	-0.4971250786	 0.1819222491	-0.225705
C	-1.458067937	-2.0060849501	 0.0582480211	 0.356907
O	-0.5773323164	-2.7091356412	 0.904814706	-0.473738
C	-2.7646208788	-2.7375003819	-0.1424618095	-0.099317
C	-4.1034501132	-2.039621496	-0.2369963295	-0.426459
C	-1.7434742138	-2.6566587035	-1.2726065467	 0.002334
O	-1.9704042604	-1.8062385332	-2.3616853903	-0.421195
H	 1.0479216161	 1.9799750988	-0.3051982657	 0.10955
H	-0.6730786358	 2.084853443	-0.6990402406	 0.116276
H	-0.1612253743	 1.9098166359	 0.9838449387	 0.113828
H	 0.2316077744	-0.2138490142	-1.2142789873	 0.111796
H	 0.7574764141	-0.3763191368	 0.4604734623	 0.084649
H	-1.638712507	-0.2209067846	 1.2145089935	 0.09547
H	-2.1399672952	-0.0422410296	-0.4678613939	 0.108484
H	 0.3191263794	-2.5657301951	 0.5818175748	 0.279802
H	-2.7833070083	-3.6992338053	 0.3629288325	 0.094795
H	-4.0670883875	-1.1839389379	-0.9155345708	 0.125787
H	-4.8689474442	-2.7272532448	-0.6138220137	 0.112422
H	-4.4383347742	-1.6809812037	 0.7419467016	 0.123759
H	-1.1806631555	-3.5619554099	-1.5009308563	 0.083478
H	-2.6557577362	-2.1997395474	-2.9124616423	 0.290178
