20
gdb 55363	3.13856	1.22125	1.13678	3.4046	78.4	-0.2372	0.0353	0.2725	1169.7887	0.173068	-403.189947	-403.18142	-403.180476	-403.223425	32.833	
N	 0.3585136444	 0.7680350456	 0.8392991045	-0.526652
C	 0.0018150322	 0.0992408327	-0.2975977183	 0.416791
O	 0.7171900988	 0.0724145884	-1.2820647462	-0.368745
C	-1.3429133988	-0.6273831973	-0.2235694744	-0.104616
C	-2.0558706995	-0.6820671085	-1.5958813139	-0.245813
C	-2.8511280155	-2.0064273266	-1.6087192458	-0.222308
C	-2.0796600139	-2.9383252561	-0.686397164	-0.029266
C	-0.5828863273	-3.0231105173	-0.8544516188	-0.284149
C	-1.1698291415	-2.0964377727	 0.1817840985	-0.037051
H	 1.2850046723	 1.1600257319	 0.8878624257	 0.257703
H	-0.1821831985	 0.707479417	 1.6838786753	 0.255109
H	-1.9818564517	-0.1375456793	 0.5221662146	 0.064999
H	-2.6931514504	 0.1906334719	-1.7602824849	 0.096932
H	-1.2904970515	-0.6706624836	-2.3750337617	 0.137915
H	-3.8592472913	-1.8563794379	-1.203331686	 0.094371
H	-2.9693505374	-2.401246456	-2.6237333751	 0.099755
H	-2.5952187132	-3.797413701	-0.2707225341	 0.078072
H	-0.0962760639	-3.9207020206	-0.4888005323	 0.106138
H	-0.1103254682	-2.5878109644	-1.7276981054	 0.135398
H	-1.0167995751	-2.3230585462	 1.2314088022	 0.075418
