21
gdb 82735	2.77937	1.89945	1.50132	0.2212	85.79	-0.225	0.0196	0.2445	972.5585	0.186309	-349.946552	-349.939699	-349.938755	-349.977226	29.76	
C	-0.0832173765	 1.5520951252	 0.0145823819	-0.427827
C	 0.0680808729	 0.0308689316	-0.0281633505	 0.062911
C	 0.9773147598	-0.5458220669	-1.1280704574	-0.057429
C	 2.3795902436	-0.040095583	-0.7002024788	-0.246453
C	 2.164846798	-1.0107819721	 0.4768934123	-0.014317
C	 1.4276908857	-1.9675068796	-0.5051446295	-0.04329
C	 0.4528407599	-2.7276361042	 0.3451618414	-0.104308
C	 0.1627030124	-1.9655319478	 1.4069471547	-0.089737
C	 0.8338176932	-0.6192449122	 1.2046553063	-0.08469
H	 0.8633842833	 2.0738415371	 0.1775338749	 0.117932
H	-0.5154229825	 1.9311747718	-0.9184966037	 0.11192
H	-0.7563562539	 1.839971497	 0.8296937397	 0.111473
H	-0.9344845334	-0.4020637549	-0.0950034219	 0.067094
H	 0.6264239836	-0.4765854664	-2.1580923043	 0.057382
H	 3.1688500067	-0.3981648975	-1.3671089823	 0.093104
H	 2.5265204547	 1.0239635607	-0.5073267851	 0.088521
H	 2.9768945056	-1.3703379902	 1.1116885251	 0.058518
H	 2.0564814232	-2.53383173	-1.1929869567	 0.062299
H	 0.0452635477	-3.702835337	 0.1089834633	 0.091315
H	-0.5457442974	-2.1841501729	 2.197134876	 0.091112
H	 0.9132928735	 0.0262012213	 2.0806035846	 0.054467
