20
gdb 61619	3.42517	0.86105	0.74688	2.2758	82.44	-0.2254	0.0332	0.2586	1550.9908	0.167926	-403.073666	-403.063476	-403.062532	-403.109142	37.309	
C	 0.2387502134	 1.4906515648	-0.4721278964	-0.411521
C	 0.0224973495	 0.0562069618	-0.04019237	 0.017173
C	 1.1606332932	-0.8964511597	 0.092682848	-0.234241
N	 0.4255715457	-0.4591147065	 1.2733782483	-0.077788
C	 1.0994312741	 0.4029809364	 2.2262022568	-0.149575
C	 1.7707405244	-0.458132124	 3.3144822523	-0.054961
O	 2.8074973686	-1.2777162077	 2.780783911	-0.412372
C	 2.2582534579	 0.3805328018	 4.4129031324	 0.297332
C	 2.6935541416	 1.09404472	 5.277328869	-0.450257
H	 1.2393211152	 1.8556410635	-0.2283694593	 0.119567
H	 0.1140348254	 1.5719177434	-1.5571559701	 0.123665
H	-0.4918314165	 2.1614071431	-0.0060783389	 0.122848
H	-0.9367857952	-0.3511592434	-0.3580327179	 0.08993
H	 1.0590441925	-1.9452912854	-0.1722023104	 0.115068
H	 2.1606264924	-0.4912745107	-0.0572976523	 0.098367
H	 1.8714674358	 1.0569192586	 1.7855973636	 0.080859
H	 0.3553957297	 1.0504806315	 2.7039847947	 0.113591
H	 1.0182196062	-1.1615216539	 3.6878479033	 0.128866
H	 3.5788732967	-0.7154756159	 2.648000477	 0.28338
H	 3.0679254698	 1.7083905823	 6.0587248687	 0.20007
