16
gdb 43342	3.00419	1.82331	1.21475	4.0648	76.57	-0.2145	-0.0388	0.1757	980.5197	0.127311	-400.798699	-400.791959	-400.791014	-400.829895	26.609	
O	 0.1630321448	 0.0465046834	 0.3862650602	-0.37404
C	 0.0168871042	 1.1980033544	 0.044267155	 0.370061
C	-1.2363402003	 2.0076938452	-0.0212188141	-0.179404
C	-0.9443304667	 3.2841524527	-0.2887028577	-0.105804
C	 0.5297525481	 3.4417618331	-0.5376527505	-0.01121
C	 1.4363999718	 4.3326715628	 0.3638209661	-0.298288
C	 2.6089902506	 3.4011971489	 0.6310551007	-0.120558
C	 2.3093990456	 2.153672391	 0.2649907025	-0.032013
N	 1.0384384366	 2.0768397739	-0.3412871076	-0.094437
H	-2.2063007805	 1.5715835662	 0.173400108	 0.127003
H	-1.6445567486	 4.1040599834	-0.3907089674	 0.121925
H	 0.6868819702	 3.7378667709	-1.5855491385	 0.111074
H	 1.7202241924	 5.255612853	-0.1497498726	 0.116386
H	 0.9428689461	 4.6225971024	 1.3002615052	 0.120264
H	 3.5349365922	 3.7141170826	 1.0925768059	 0.106458
H	 2.8831851936	 1.2458460262	 0.3821252148	 0.142582
