17
gdb 19620	4.68813	1.9749	1.81473	1.6841	71.39	-0.2316	0.079	0.3106	787.658	0.144117	-326.646678	-326.640562	-326.639617	-326.676564	25.213	
C	-0.0977087019	 1.5020690744	-0.0444152189	-0.347197
C	 1.2247204424	 0.7555300242	 0.0134234675	-0.342725
C	-0.0686028669	 0.006265704	-0.004107702	 0.44835
C	-0.5269852536	-0.9893076476	 1.0220224282	-0.144223
C	-1.7273721663	-1.6957521528	 0.4703706754	-0.04361
C	-2.0327030475	-1.1380057568	-0.9095194687	-0.238558
C	-0.4976251912	-1.0358323294	-1.0298694844	-0.108491
N	-0.3489518884	-2.1461129123	 0.0712207479	-0.158758
H	-0.4217855666	 2.0367283117	 0.8426057041	 0.114317
H	-0.3671839905	 1.9864499449	-0.977916631	 0.112758
H	 1.8405206966	 0.741121008	-0.8803404387	 0.114984
H	 1.7889610283	 0.7877730016	 0.9400967322	 0.116071
H	-0.2322737882	-1.0660008351	 2.0630790174	 0.092658
H	-2.3592701503	-2.3207728197	 1.0920937061	 0.094268
H	-2.4348528715	-1.9177738796	-1.5613800377	 0.109716
H	-2.6235213465	-0.2216152262	-1.0089875963	 0.098255
H	 0.0175158421	-1.1464886693	-1.982738241	 0.082186
