20
gdb 96490	2.6353	1.49906	1.0903	2.3024	76.98	-0.2528	0.0081	0.2609	1156.2425	0.171567	-440.278867	-440.270328	-440.269384	-440.311739	32.697	
C	-0.0940133999	 1.5616408324	 0.0472204903	-0.401675
C	-0.0577110156	 0.0417302568	-0.0246869462	 0.115886
C	 0.5267802223	-0.4615688164	-1.3502858935	-0.076337
O	 0.4543821546	-1.868996026	-1.4524346159	-0.242577
C	 1.654872965	-2.5943517248	-1.2660716329	-0.068255
C	 2.2987088044	-2.4330749115	 0.1251017253	-0.185816
N	 1.314586611	-2.6840455589	 1.1664762225	-0.201372
C	 0.5798527422	-1.7139283747	 1.4929034099	 0.104389
O	 0.7393179246	-0.4118746816	 1.0837804728	-0.252441
H	 0.9177621223	 1.9724953579	-0.0272882752	 0.128841
H	-0.6977921859	 1.9732195692	-0.7668625838	 0.121284
H	-0.5235563299	 1.8866779872	 0.9975362996	 0.131237
H	-1.0716264027	-0.370812201	 0.0760491557	 0.088192
H	-0.0665940667	-0.0403249681	-2.1726755954	 0.105056
H	 1.5583071976	-0.0976483805	-1.4595256785	 0.098808
H	 1.3726327427	-3.6396639543	-1.420564722	 0.120598
H	 2.400222317	-2.3221766508	-2.0300140875	 0.092251
H	 3.1027918725	-3.1722246704	 0.2054399448	 0.103336
H	 2.7447409746	-1.4353135474	 0.215002735	 0.108005
H	-0.2226767102	-1.852227107	 2.2208012751	 0.11059
