18
gdb 14457	3.22612	2.37658	1.98252	1.2312	71.02	-0.2536	0.0806	0.3342	774.3151	0.156118	-347.774976	-347.768513	-347.767569	-347.805104	26.714	
O	-0.0564258166	 1.3720398896	 0.0462485529	-0.480584
C	 0.0413402071	-0.0094069412	 0.0341393436	 0.398795
C	 0.6920959154	-0.9571168164	 1.0721878804	-0.305241
C	 0.0435412045	-1.8689756402	 0.001782286	-0.066953
C	-1.2067689195	-0.9306376969	-0.03332451	-0.029495
C	-1.7759652162	-0.8967451632	-1.4517406138	-0.243089
C	-0.4518697753	-0.8901558114	-2.2711650265	-0.239952
C	 0.5627268046	-0.9270454028	-1.1288667281	-0.067135
H	 0.832355118	 1.7417914184	 0.0104363015	 0.280906
H	 1.7855961947	-0.9638900865	 1.1243840148	 0.081389
H	 0.2461806153	-0.9736691541	 2.070650831	 0.091105
H	 0.0359258042	-2.9571222762	-0.0205715916	 0.073815
H	-1.8935445266	-0.9398821637	 0.8153248633	 0.06171
H	-2.4014827537	-1.7688270358	-1.666402619	 0.093337
H	-2.382074773	-0.0029361813	-1.6260972653	 0.10585
H	-0.3613000433	-1.7539318509	-2.9373108462	 0.093631
H	-0.3433687161	 0.010860288	-2.8829238854	 0.099182
H	 1.6300389363	-0.9298065154	-1.3638712676	 0.052729
