20
gdb 122504	3.11533	0.71436	0.62793	3.9983	77.64	-0.2498	0.0031	0.2529	1771.9702	0.169319	-440.27159	-440.261517	-440.260572	-440.307958	35.092	
O	-0.1860390023	 1.263303358	 0.4260692859	-0.419748
C	-0.0842134618	-0.1366157304	 0.2242902607	-0.074098
C	-1.4981612085	-0.6951955577	 0.1289881783	-0.171104
C	-1.5225943824	-2.2102243563	-0.1080024307	-0.221351
C	-2.9199001087	-2.7701689675	-0.2665819606	-0.005662
C	-3.2095726553	-4.2138525168	 0.0389794284	-0.255096
N	-3.7143972681	-3.1630739437	 0.889776836	-0.060273
C	-3.3925225193	-3.0188803411	 2.2255901523	 0.132822
O	-3.2522990548	-3.9301460504	 3.0056343921	-0.291738
H	 0.701893883	 1.6224199542	 0.5105136806	 0.287894
H	 0.4699074496	-0.3692028833	-0.7005056316	 0.085356
H	 0.4528602269	-0.6235744224	 1.0549283338	 0.089232
H	-2.0338681559	-0.4434074932	 1.0515750292	 0.114921
H	-2.0210906467	-0.1788189669	-0.6851936138	 0.11149
H	-0.959715177	-2.4456064429	-1.0214757372	 0.110125
H	-1.0158953041	-2.7331182952	 0.7134566575	 0.112759
H	-3.5076969153	-2.3020006027	-1.0560762844	 0.103349
H	-3.9493896938	-4.754982729	-0.5442698922	 0.127938
H	-2.4016820928	-4.8211738956	 0.4404146157	 0.135573
H	-3.3527276724	-1.954417207	 2.52584093	 0.087612
