19
gdb 105349	2.0354	1.62995	1.14687	2.0096	74.83	-0.251	-0.0283	0.2227	1139.9752	0.15699	-422.994629	-422.985653	-422.984709	-423.028721	33.058	
C	 0.2377837655	 1.5956127319	 0.3797512552	-0.397055
C	-0.0225367061	 0.117955778	 0.0619544996	-0.253488
C	 0.6432404182	-0.4090368892	-1.2201931692	 0.205312
C	 2.2337951583	-0.4345765911	-1.2438781009	-0.325719
C	 2.1501724478	-1.9568156806	-1.3965816704	 0.047779
O	 1.4268856551	-2.4645292807	-0.2687417536	-0.255605
C	 0.681781711	-1.9458533745	-1.3747686773	-0.014484
C	 0.1264925485	 0.2679563666	-2.4644469904	 0.097586
O	-0.3945800556	-0.3064525299	-3.3891084715	-0.255171
H	 1.3100452018	 1.8133091451	 0.4265948452	 0.121359
H	-0.2058729506	 2.2678044541	-0.3609815968	 0.120769
H	-0.192768559	 1.8540748921	 1.3517260233	 0.123323
H	 0.3478906597	-0.50510452	 0.8820999386	 0.128355
H	-1.103619006	-0.0611446416	-0.0029603363	 0.106951
H	 2.657025228	 0.0684451598	-2.118029652	 0.117878
H	 2.7346533135	-0.0793566721	-0.3400773461	 0.117711
H	 2.84477782	-2.6285254601	-1.8863460488	 0.110978
H	-0.0462488939	-2.589951448	-1.8497975193	 0.119723
H	 0.2709903136	 1.3714324805	-2.4922080592	 0.083796
