17
gdb 48996	2.16419	1.97326	1.32161	2.6316	74.44	-0.2374	-0.0413	0.1962	996.8601	0.135676	-421.799597	-421.791869	-421.790925	-421.831986	29.328	
O	-0.0345402194	-0.1029581023	 0.0017698361	-0.247825
C	 0.0140043566	 1.0809778122	 0.2162526281	 0.122259
C	 1.261197412	 1.9284196152	 0.0351145419	 0.306803
C	 2.5682210046	 1.1233261744	-0.0237331888	-0.295351
C	 2.8452757291	 1.0485275536	-1.5651797016	-0.250421
C	 2.2240357262	 2.3439179156	-2.0877951128	-0.194786
C	 1.3147932903	 2.764458337	-1.2182367126	 0.158378
C	 0.8115578854	 3.934909439	-0.4136917701	-0.17357
O	 1.110020344	 3.1756539771	 0.8028364456	-0.346618
H	-0.872891956	 1.6568398897	 0.5611259737	 0.085263
H	 3.3563503981	 1.7012554837	 0.4668169719	 0.119943
H	 2.4923410203	 0.1411458222	 0.4459776318	 0.117902
H	 3.9155600337	 1.0017919522	-1.7897276913	 0.111351
H	 2.38919861	 0.1526494458	-2.0030003415	 0.132671
H	 2.5851748973	 2.8683742069	-2.9644907953	 0.108967
H	 1.3849585585	 4.8648026834	-0.4826266422	 0.128074
H	-0.2604035809	 4.1579067543	-0.4823044129	 0.116959
