15
gdb 105611	1.80887	1.68027	1.22933	4.1532	62.06	-0.2703	-0.0567	0.2136	1066.9488	0.110447	-494.914276	-494.905283	-494.904338	-494.948868	30.758	
O	 0.0521519758	 1.5512699055	 0.4031795777	-0.397549
C	 0.0798063388	 0.169095308	 0.1238939294	-0.146429
C	-1.3337675369	-0.4460756166	-0.0071787507	-0.024334
C	-1.4099193839	-1.9776712163	 0.035905922	-0.126774
O	-2.1104851897	-1.9197075826	 1.3246229663	-0.240041
C	-2.0931183159	-0.5529426424	 1.3422185499	 0.440348
O	-2.5363568854	 0.1822046046	 2.1596445927	-0.307183
C	-2.1522403657	 0.2253725994	-1.0889580463	 0.103648
O	-2.6882565211	-0.3593293368	-1.9951440965	-0.239683
H	 0.059303279	 2.0421254704	-0.4230753276	 0.298521
H	 0.6505868221	-0.0595042599	-0.7871538785	 0.11662
H	 0.5928313903	-0.3172740156	 0.9605513089	 0.133799
H	-2.0369903708	-2.4275370458	-0.73333456	 0.154747
H	-0.4607400036	-2.5073621575	 0.1393322657	 0.12713
H	-2.231310683	 1.3260869156	-0.978262603	 0.10718
