18
gdb 61179	3.26359	0.88798	0.80984	4.7818	77.14	-0.255	-0.0054	0.2496	1431.4956	0.14601	-398.134472	-398.124446	-398.123502	-398.16983	35.132	
C	 0.1868116516	 1.5860469351	-0.0280762157	-0.404921
C	-0.045036591	 0.0576353767	 0.0148805475	-0.115706
C	 0.6786910632	-0.5230455644	 1.1603739699	 0.29353
N	 1.2623612854	-0.9480110373	 2.0619238684	-0.317472
N	-1.4381187442	-0.397221251	 0.0452592739	-0.061225
C	-2.2180046849	 0.0445903511	 1.1980580869	-0.359065
C	-2.120494202	-0.193034553	-1.2234659975	-0.295697
C	-3.3170096871	-1.038505559	-1.3332911916	 0.284655
N	-4.2679963237	-1.6866436285	-1.4282098429	-0.298846
H	 1.2561598851	 1.8012874255	-0.0964336798	 0.147641
H	-0.304695869	 2.0197822951	-0.903372312	 0.129719
H	-0.2007100971	 2.0720437269	 0.8699362736	 0.146755
H	 0.4055176944	-0.3806243151	-0.8849822457	 0.134657
H	-2.4538944588	 1.1218886046	 1.1844822124	 0.107928
H	-3.1600253897	-0.5091046106	 1.2223246289	 0.157813
H	-1.6696690208	-0.1831524162	 2.1149382863	 0.156443
H	-2.4370040574	 0.8518479526	-1.3989276765	 0.13789
H	-1.4442613041	-0.4617476626	-2.043015216	 0.155899
