20
gdb 65508	3.10032	1.3565	1.168	0.5867	78.17	-0.2282	0.0848	0.313	1121.5474	0.170693	-403.077381	-403.069026	-403.068082	-403.110115	32.66	
C	 0.0079038535	 1.6332591424	 0.2537226687	-0.45589
C	 0.0029982763	 0.1228799401	 0.0236819557	 0.302725
C	 1.0657163917	-0.4549958725	-0.9904600671	-0.293141
C	 1.6710940754	-1.2677435613	 0.1557027414	-0.025095
N	 2.1002774166	-0.292524866	 1.1892388238	-0.345677
C	 0.6839394492	-0.7294148921	 1.1227668483	-0.089062
C	-1.4113459328	-0.3497219068	-0.2436661446	 0.025714
C	-2.0140352574	-0.3982354105	-1.5798635989	-0.187023
O	-1.6153471983	-1.5979769119	-0.9093732576	-0.239694
H	 1.0030488808	 1.957525798	 0.5643216969	 0.143859
H	-0.2680184815	 2.170471491	-0.6602225632	 0.110716
H	-0.7063034227	 1.9175917084	 1.0359907018	 0.106771
H	 0.6027186462	-1.0901163655	-1.7467084726	 0.121187
H	 1.7328301216	 0.2751351038	-1.454891556	 0.098321
H	 2.1221760198	-2.2503893612	 0.0995704163	 0.092893
H	 2.5375978907	-0.8251989529	 1.9410564219	 0.226779
H	 0.2040883291	-1.2001245579	 1.9734952302	 0.086593
H	-2.0908930206	-0.1928557663	 0.5982289642	 0.089313
H	-3.0880781951	-0.2637575905	-1.6969717778	 0.116767
H	-1.4151642524	-0.1313719283	-2.4494697913	 0.113944
