19
gdb 45374	2.9055	1.60156	1.41317	4.258	74.01	-0.2326	0.0609	0.2936	990.3544	0.16444	-419.276254	-419.26906	-419.268116	-419.307773	29.424	
O	 0.0013714076	-0.079549164	-0.1633295276	-0.412463
C	-0.0127214838	 1.1233718037	 0.0250917785	 0.418728
N	-1.1824496764	 1.8473686289	 0.1829707884	-0.329417
C	-1.2083209726	 3.3078930744	 0.0999575401	 0.003624
C	-0.8507778363	 3.8319872259	-1.3166739756	-0.210056
C	 0.7122839493	 3.8535535987	-1.3383694783	-0.210064
C	 1.1233438646	 3.3402522503	 0.0676753809	 0.003617
C	-0.0374977163	 3.8259948607	 0.947522982	-0.211389
N	 1.1403810197	 1.8796102576	 0.1509404129	-0.32942
H	-2.0027188439	 1.3295367162	-0.090982359	 0.246052
H	-2.1866820218	 3.6501921748	 0.4439514052	 0.076768
H	-1.2774336067	 3.1923247459	-2.092881501	 0.105932
H	-1.2574516641	 4.8379324013	-1.4624314169	 0.100635
H	 1.1347079789	 3.2254442864	-2.1262400959	 0.10594
H	 1.0868685827	 4.8702363555	-1.4951795082	 0.100637
H	 2.100965895	 3.7097650732	 0.3845405189	 0.076769
H	-0.051964585	 4.9184187956	 0.9986355302	 0.10161
H	-0.0177596901	 3.4115510615	 1.9567799924	 0.116445
H	 1.9668239493	 1.3846519533	-0.1457958572	 0.246051
