19
gdb 40471	3.77096	1.34276	1.23583	1.5907	79.62	-0.2288	0.0796	0.3084	1081.3126	0.159583	-385.784298	-385.776982	-385.776038	-385.816283	29.494	
C	-0.180856034	 1.4261371103	-0.0446225927	-0.266312
C	 1.2422182666	 0.9878990388	 0.1881279261	-0.266314
C	 0.1447977848	-0.0431813455	 0.0771469191	-0.167781
C	-0.2796283795	-0.7763321701	 1.291764071	 0.507937
O	-0.2703603936	-0.0641956972	 2.5744981766	-0.363174
C	-0.7369511225	-1.4066467823	 2.9008766152	 0.083846
C	-1.5960712032	-1.5734879749	 1.6133594408	-0.136876
C	-0.939172627	-2.928753331	 1.2738763323	-0.282118
C	 0.2201715265	-2.1324925057	 1.9105853892	-0.13687
H	-0.7020290641	 1.8819180033	 0.7892310002	 0.132643
H	-0.4554212221	 1.807234095	-1.0217760113	 0.109865
H	 1.9515240601	 1.0660185709	-0.6281025717	 0.109864
H	 1.6574838277	 1.1553074897	 1.1751439634	 0.132635
H	 0.1097965177	-0.6388612224	-0.8304852904	 0.089192
H	-0.9773129273	-1.6359895766	 3.938316686	 0.093446
H	-2.6184390973	-1.2272184239	 1.4618135224	 0.080889
H	-1.2979245584	-3.7960433326	 1.8349271957	 0.098362
H	-0.842255838	-3.1776242697	 0.2135887539	 0.099877
H	 1.2552876137	-2.419472786	 2.0957386642	 0.080889
