17
gdb 66737	2.49587	2.40801	1.78754	3.9769	75.52	-0.2022	-0.0504	0.1518	841.0659	0.13626	-380.730313	-380.723581	-380.722637	-380.760907	27.832	
C	 0.0998630997	 1.6269251144	 0.0008136953	-0.53101
C	 0.090836255	 0.126160292	-0.0029670158	 0.265307
C	 0.4478051821	-0.8668290227	-1.1418811902	-0.115654
C	 0.7092631406	-1.8706146563	-0.0759098642	-0.030748
C	 0.7794713947	-0.7798667065	 1.068477854	-0.103566
C	-0.3149388804	-0.7992757587	 2.1987207603	-0.189628
N	-1.5287207199	-1.15458354	 1.3863559876	-0.226742
C	-1.1371813079	-0.8001381236	 0.2283459476	 0.16912
N	-0.6863208021	-1.7513935655	-0.7881778756	-0.166023
H	 1.1141229698	 2.0197730653	-0.1307994133	 0.125007
H	-0.5232858153	 2.0298478783	-0.8045356983	 0.13261
H	-0.29094608	 2.0165017248	 0.9463327847	 0.135996
H	 0.8283703436	-0.752792855	-2.1476199078	 0.10666
H	 1.1668510361	-2.8504848594	-0.1153791943	 0.114064
H	 1.8113567276	-0.5576981801	 1.3577900388	 0.079869
H	-0.1995810374	-1.5884499889	 2.948088571	 0.124887
H	-0.3370209861	 0.1639942719	 2.7301172501	 0.109848
