15
gdb 46477	2.95773	1.54933	1.11848	3.3915	68.21	-0.2367	-0.0989	0.1379	1046.1603	0.110953	-457.768844	-457.760965	-457.760021	-457.801852	29.031	
O	 0.0069733988	 0.0460630477	 0.2766781972	-0.267465
C	-0.0292418939	 1.2278451029	 0.0768672244	 0.30228
C	-1.2356546192	 2.0981909288	-0.2390664953	-0.21504
O	-0.8079295403	 3.4560830939	-0.1475234475	-0.307995
C	 0.5985839199	 3.5244772637	-0.2277674962	 0.316948
C	 1.2502674207	 4.428229674	-1.2676369843	-0.30451
C	 1.2791856271	 4.7982137008	 0.1860526673	-0.306152
C	 1.1839963942	 2.1954507085	 0.0500244784	 0.220186
O	 2.3418517648	 1.8923783366	 0.1869339122	-0.300734
H	-1.6001831941	 1.8628816963	-1.2511689214	 0.141004
H	-2.0530089385	 1.9290903629	 0.467923269	 0.152928
H	 2.1604745297	 4.0647560069	-1.7317964059	 0.143142
H	 0.5602759103	 4.9606707221	-1.9121157859	 0.138028
H	 0.6197247635	 5.5908080866	 0.5207210888	 0.140888
H	 2.210692807	 4.6893801382	 0.7310020293	 0.146493
