14
gdb 29175	2.30672	1.84957	1.03312	6.5088	65.93	-0.2387	-0.0384	0.2003	1070.6906	0.100448	-473.894451	-473.886567	-473.885623	-473.927063	28.467	
C	-0.0258128461	 1.5121549322	 0.0603912753	-0.501004
C	-0.0115096825	 0.0261108827	-0.0173248987	 0.2818
C	-0.0312475079	-0.782062201	-1.0800039508	-0.109881
O	-0.006537727	-2.1074506977	-0.7050775891	-0.218364
C	 0.0313391852	-2.174348585	 0.6697815228	 0.511913
O	 0.059460489	-3.1848744807	 1.2966622465	-0.342248
N	 0.0285185435	-0.8286206376	 1.1133649321	-0.243092
C	 0.0600517878	-0.4228450513	 2.4517116278	 0.161671
O	 0.0937879672	-1.1571006952	 3.3981748659	-0.254777
H	 0.8681649076	 1.9064442927	 0.5566524097	 0.149858
H	-0.0575218782	 1.924293812	-0.9506404143	 0.148692
H	-0.9003167719	 1.886963579	 0.6041741355	 0.149859
H	-0.0619912448	-0.579024014	-2.1364882185	 0.163788
H	 0.0500503281	 0.6785753338	 2.5296890559	 0.101785
