19
gdb 108536	2.74809	1.7477	1.28565	2.7338	74.37	-0.223	0.0755	0.2985	1025.2552	0.159521	-422.954678	-422.946936	-422.945992	-422.987122	30.162	
C	 0.0890187636	 1.3366180771	-0.1121296369	-0.259863
O	-0.1300528168	-0.0353074471	 0.1536071962	-0.296211
C	 0.5866747543	-0.5465216693	 1.2163337323	 0.468762
C	 0.258779678	-0.0920450648	 2.642513097	-0.311048
C	 1.2245467566	-1.006342829	 3.450034739	-0.25385
C	 1.8882830798	-1.7771255113	 2.3124472583	-0.037836
C	 0.8490025932	-2.0807792255	 1.1967464631	-0.007013
O	 1.8755097723	-1.9361192358	 0.156819888	-0.319715
C	 2.1331244998	-0.8400917876	 1.0978471112	-0.024172
H	 1.1509729378	 1.5469392164	-0.301600864	 0.111744
H	-0.4834364471	 1.5794132655	-1.0097415248	 0.132894
H	-0.2552249064	 1.9795168311	 0.7101403432	 0.109954
H	 0.4610851609	 0.9715894725	 2.7978806113	 0.103327
H	-0.7954805234	-0.2648188363	 2.8786752848	 0.1098
H	 1.9502388768	-0.4363981009	 4.0378472693	 0.105346
H	 0.6939128615	-1.668977255	 4.1400381631	 0.107872
H	 2.6396891486	-2.536734914	 2.5189140369	 0.083553
H	 0.1332569517	-2.8982867232	 1.1032333188	 0.090088
H	 2.9711645586	-0.1729371127	 0.8917548132	 0.086368
