20
gdb 17275	4.91788	1.09961	1.03234	0.8509	76.18	-0.2283	0.0799	0.3082	1219.34	0.177372	-345.125399	-345.11689	-345.115946	-345.158862	31.426	
C	-0.0875978324	 1.4490367895	-0.197607487	-0.393605
C	 0.1323081668	-0.0274435865	 0.0365697015	-0.002136
N	 1.5245405541	-0.5028493614	 0.1176044598	-0.338918
C	 0.6485044879	-0.6233940324	 1.2989855066	 0.000073
C	 1.0375982934	 0.1684270379	 2.5245987553	-0.157079
N	 1.9491546403	-0.6141192537	 3.3560408179	-0.070397
C	 3.3648201897	-0.5188194329	 3.0061004535	-0.212496
C	 2.8368423447	 0.147518313	 4.2281264224	-0.224506
H	 0.6583502609	 2.0524048032	 0.3235661152	 0.12618
H	-0.0134042634	 1.6800035415	-1.2658393571	 0.118876
H	-1.0829852478	 1.7548192313	 0.1430138012	 0.115095
H	-0.5644843968	-0.6630454869	-0.510146759	 0.079797
H	 1.6281078057	-1.4017027023	-0.344473624	 0.229087
H	 0.2819438177	-1.6198019286	 1.5413510107	 0.088053
H	 1.478531009	 1.1319348109	 2.2210250302	 0.08549
H	 0.1434972688	 0.3855550386	 3.1231648768	 0.100487
H	 3.9323597452	-1.4417593161	 3.0858692157	 0.110706
H	 3.6337976902	 0.1118311535	 2.1621750648	 0.126272
H	 2.7621050357	 1.2340152888	 4.2101340984	 0.105934
H	 3.0126705205	-0.2782984576	 5.2120488171	 0.113088
