19
gdb 48841	2.79555	1.40877	1.16151	4.2522	76.62	-0.2393	-0.0141	0.2252	1117.3225	0.159775	-423.025433	-423.017396	-423.016452	-423.05811	31.075	
O	-0.069302165	 0.0545625598	 0.3758436482	-0.267426
C	 0.0381420374	 1.1968180001	 0.0164766016	 0.123613
C	 1.2918829112	 1.9962960406	 0.0305576219	 0.336707
C	 1.1268302895	 3.496090707	 0.2289811212	-0.355475
C	 1.4755626588	 2.9707689228	-1.1366334047	-0.095691
C	 2.8831163848	 3.1398421416	-1.7074990926	-0.232705
C	 3.8278580542	 2.0196242126	-1.2422793785	-0.209143
C	 3.664744882	 1.7634229543	 0.2513915174	-0.079133
O	 2.35924774	 1.2970157434	 0.5719441072	-0.285416
H	-0.8328731954	 1.7751305219	-0.3752215905	 0.064473
H	 0.1297178389	 3.8842569841	 0.4080211474	 0.123124
H	 1.9093565061	 3.991053285	 0.7943493256	 0.128587
H	 0.6708721767	 2.9780465015	-1.8657849914	 0.100338
H	 2.8318555288	 3.1524811551	-2.7998450676	 0.110785
H	 3.2890179651	 4.1128923086	-1.4060625348	 0.108752
H	 3.6039549512	 1.0897802924	-1.777654637	 0.116558
H	 4.8683151887	 2.2822887219	-1.4598391902	 0.102127
H	 4.3378027182	 0.9749968465	 0.5974754865	 0.119011
H	 3.9011282189	 2.6748318708	 0.8252979301	 0.090912
