16
gdb 128525	2.02024	1.84881	1.02221	3.2022	68.91	-0.2037	0.0286	0.2323	1131.1676	0.124286	-471.180807	-471.171742	-471.170798	-471.21455	33.021	
C	 0.0940925936	 1.4527811896	 0.0702508302	-0.258229
O	-0.0616281115	 0.0326742755	-0.0097392302	-0.291066
C	 0.5669843571	-0.5327111705	-1.0850103715	 0.034874
C	 0.013798427	-0.938227417	-2.2664327952	 0.409975
N	-1.2604140429	-0.8232497732	-2.7716170391	-0.601217
O	 0.9427095076	-1.4972446514	-3.0452129202	-0.226468
N	 2.1977868744	-1.4822866986	-2.3613415038	-0.260632
C	 1.9385690962	-0.9007511155	-1.2106956856	 0.359207
N	 2.925736241	-0.6436106902	-0.2749169484	-0.596914
H	 1.1523718866	 1.7298258298	 0.1423083713	 0.132215
H	-0.3432272889	 1.9468690238	-0.805971783	 0.12287
H	-0.4310928929	 1.7749327687	 0.9723266153	 0.126874
H	-1.962043057	-0.734065914	-2.0494826628	 0.265885
H	-1.4951220089	-1.5353975679	-3.4499589115	 0.265443
H	 3.7667112822	-1.1837953513	-0.4308767608	 0.259742
H	 2.5963818266	-0.7276822679	 0.6774249855	 0.257442
