17
gdb 17971	2.77121	2.53818	1.53059	1.8529	65.24	-0.2524	0.0053	0.2576	840.9667	0.144274	-400.993101	-400.986103	-400.985159	-401.024122	26.744	
C	-0.0445917046	 1.5114007973	 0.0034482489	-0.191185
C	 1.3252688881	 2.1982912067	-0.0310815895	-0.072872
O	 2.0007564097	 2.059910738	-1.2838098346	-0.220978
C	 2.9809088554	 1.0802533045	-1.3296593412	-0.008418
O	 2.4853241997	-0.2123038092	-0.9966301378	-0.227821
C	 1.4002331288	-0.6143124699	-1.7436274274	 0.100913
N	 0.211813305	-0.5900090489	-1.3380123909	-0.202301
C	-0.0478272566	-0.0284193935	-0.0078631156	-0.154503
H	-0.5453066319	 1.8460764255	 0.9212812825	 0.099629
H	-0.6436958173	 1.878629091	-0.8372755856	 0.120125
H	 1.1832288176	 3.2748613204	 0.1141428046	 0.110117
H	 1.963414641	 1.8302014166	 0.7843794192	 0.10095
H	 3.377149551	 1.1002500579	-2.3530908055	 0.111586
H	 3.7854631669	 1.2515644686	-0.602062584	 0.108564
H	 1.6487755879	-0.9917937366	-2.7379864903	 0.114913
H	 0.6746542048	-0.4015886194	 0.7294582195	 0.108041
H	-1.0401045855	-0.3746891389	 0.2950462979	 0.103242
