17
gdb 22554	2.58983	1.24672	0.96828	1.5664	78.97	-0.2377	-0.012	0.2257	1232.439	0.132764	-417.901826	-417.892069	-417.891125	-417.93735	35.348	
C	-0.0981689329	 1.4834330077	-0.0129557825	-0.485179
C	 0.0100194124	-0.0169486142	 0.0132351372	 0.281223
N	 0.0671080617	-0.7084928731	 1.0881542442	-0.165282
O	-0.0125444531	 0.1012342524	 2.2269222449	-0.395291
C	 0.005083471	-0.7860310689	-1.279499566	 0.049717
C	-0.1826315489	-2.2677782062	-1.2489118144	-0.263311
N	-1.28764717	-1.4208578069	-1.7032031623	-0.337018
C	 0.7678455608	-0.1954113623	-2.3524559234	 0.291939
C	 1.4297681325	 0.2952354022	-3.227798282	-0.428109
H	 0.7656110734	 1.9325773801	 0.4874392982	 0.150833
H	-0.1531489922	 1.8589015403	-1.0343262827	 0.140793
H	-0.9823593493	 1.8046754228	 0.546692881	 0.1465
H	 0.0656411514	-0.5411371798	 2.940468771	 0.308787
H	 0.2874035378	-2.8560827046	-2.0304023333	 0.129994
H	-0.2366851898	-2.7311081347	-0.2704397389	 0.139771
H	-1.9502955764	-1.305420562	-0.9375792732	 0.237213
H	 2.0073050917	 0.7224741871	-4.0098874777	 0.197421
