27
gdb 117718	1.99957	0.94528	0.77274	1.0049	93.46	-0.244	0.0809	0.3249	1718.3318	0.248385	-390.704461	-390.69222	-390.691275	-390.742693	44.362	
C	-0.2411387837	 1.5062025454	-0.079526394	-0.380776
C	-0.049845521	-0.0107414553	 0.010343811	-0.177092
C	 0.7481437	-0.5696781487	-1.173253463	-0.173236
C	 0.8636289374	-2.1066410984	-1.2360888339	 0.36037
C	 1.648951389	-2.4974710214	-2.4998300893	-0.42132
C	 1.5555587718	-2.6716901772	 0.0163894477	-0.424747
O	-0.4992798267	-2.5497986103	-1.3297939579	-0.286859
C	-0.7625302589	-3.9387163637	-1.3588473425	-0.043296
C	-2.2685025543	-4.118268194	-1.4801790625	-0.377946
H	 0.7213923182	 2.0305425066	-0.0955593074	 0.108638
H	-0.7815836241	 1.7839575982	-0.9914393348	 0.113063
H	-0.8115568887	 1.8868449005	 0.7737350967	 0.108058
H	 0.4566840401	-0.2523665868	 0.9526534832	 0.089587
H	-1.0234636265	-0.5095566286	 0.0425432351	 0.112451
H	 0.27194966	-0.2418179314	-2.1060582964	 0.093905
H	 1.7603054636	-0.1450833872	-1.1726734202	 0.084171
H	 2.6439185166	-2.0415487818	-2.486899109	 0.112218
H	 1.7872451004	-3.5798045229	-2.5777894937	 0.110917
H	 1.1235095527	-2.1511949946	-3.3948306947	 0.117388
H	 0.9439090802	-2.5138590679	 0.9082753051	 0.122925
H	 1.7505040562	-3.7439299279	-0.0779997554	 0.111769
H	 2.5200040885	-2.1771648243	 0.1695653312	 0.112962
H	-0.2586494235	-4.4224622065	-2.2094398759	 0.084786
H	-0.3999198265	-4.4312315512	-0.444258071	 0.085825
H	-2.5262004105	-5.1815105458	-1.5084848888	 0.110005
H	-2.7787057732	-3.659082515	-0.6285194877	 0.123048
H	-2.6383617668	-3.6451818797	-2.3943113217	 0.123185
