21
gdb 63512	3.03248	1.26764	1.25934	2.0398	83.25	-0.2286	0.079	0.3077	1147.2895	0.180869	-387.003388	-386.994684	-386.993739	-387.036218	34.292	
C	-0.0546486089	 1.5381228312	-0.0333203113	-0.453362
C	-0.0340220295	 0.0203294731	-0.0134898575	 0.22885
C	-1.2564384922	-0.6365450237	-0.6289029677	-0.45336
C	 1.3188233278	-0.6728955255	-0.2121424456	-0.431686
C	 0.654694533	-0.6703409662	 1.1186059798	 0.445372
C	 1.1397571386	-0.2669879099	 2.5200251916	-0.054
C	-0.2210634769	-0.7292873136	 3.1009354428	-0.219363
C	 0.2948346042	-1.7958566679	 2.1012909476	-0.053999
O	 1.645313507	-1.6518860065	 2.7035234227	-0.31007
H	 0.8486201849	 1.9584889494	 0.4191091467	 0.113893
H	-0.1191891447	 1.9141072787	-1.0612440888	 0.116796
H	-0.9182257197	 1.93132638	 0.5163867005	 0.113859
H	-1.3680957827	-0.345694414	-1.6801384205	 0.116795
H	-1.1886037081	-1.7279769149	-0.5905758133	 0.113894
H	-2.1732647662	-0.3397635923	-0.1055457569	 0.113858
H	 1.3386159296	-1.5993574105	-0.7783858948	 0.111173
H	 2.1958261346	-0.0482139074	-0.3535460536	 0.111173
H	 1.7889936938	 0.5516617612	 2.8310714807	 0.094159
H	-0.1922523834	-1.0321126142	 4.1484678386	 0.104623
H	-1.1158192217	-0.1615996587	 2.833653138	 0.097235
H	-0.0669050795	-2.8065478686	 1.9113100911	 0.094159
