13
gdb 48749	2.62149	1.76123	1.24969	4.7542	64.77	-0.2539	-0.0884	0.1654	957.8539	0.087812	-456.561585	-456.554253	-456.553309	-456.593667	26.804	
O	-0.1320803697	-0.029503706	 0.1399271455	-0.234864
C	 0.0093087849	 1.1642467848	 0.1421615953	 0.079829
C	 1.3270041861	 1.8451407085	-0.0055120868	 0.165422
O	 1.3536342984	 3.2599626872	 0.2683668815	-0.27162
C	 1.5992795429	 2.8309596884	-1.074540264	-0.060876
C	 3.0577274107	 2.7150696089	-1.4143033881	-0.070007
C	 3.663725	 1.8121725104	-0.634247251	-0.18594
C	 2.6803651618	 1.1665282417	 0.2866605311	 0.364369
O	 2.8840723943	 0.2988944688	 1.0922858865	-0.289437
H	-0.8383813725	 1.8768906661	 0.2446738595	 0.096673
H	 0.8585070217	 3.1314340255	-1.8090678548	 0.127041
H	 3.5275616091	 3.3280286748	-2.1735196734	 0.13901
H	 4.7169607323	 1.5652713308	-0.6102699912	 0.140399
