17
gdb 55984	3.27089	1.107	0.85964	4.8489	69.72	-0.235	0.0143	0.2493	1284.2099	0.136907	-455.206149	-455.197441	-455.196497	-455.240244	31.858	
N	 0.5363469302	 0.1835489726	-0.8432345236	-0.519715
C	-0.0608027788	 0.1258220609	 0.3752031666	 0.365601
O	 0.23239215	 0.8603005456	 1.3007257253	-0.365023
C	-1.1670694147	-0.9307314324	 0.5250787223	-0.312891
C	-0.8567180799	-2.2990422116	-0.0823335149	-0.161491
C	-1.9552653093	-3.4064718318	 0.0150161723	-0.184067
N	-1.9423806505	-3.4511735117	-1.4518952101	-0.319065
C	-1.0337718713	-2.4485376762	-1.6148074855	 0.454498
O	-0.5870302487	-1.8926395109	-2.5924380337	-0.380593
H	 1.2371906487	 0.8944826415	-0.9757221179	 0.253913
H	 0.2608504461	-0.3994659494	-1.6267657638	 0.286389
H	-1.3409449915	-1.025717774	 1.5993227591	 0.13422
H	-2.0881378555	-0.5279459711	 0.0833027054	 0.124721
H	 0.123353198	-2.656952352	 0.2452363859	 0.119064
H	-1.6476635091	-4.3393054379	 0.495553361	 0.122943
H	-2.9048808438	-3.065373962	 0.4389307698	 0.122805
H	-2.5004802898	-3.9596604697	-2.1216076683	 0.258692
