17
gdb 3083	3.37741	2.26971	1.87259	0.8589	70.45	-0.2372	0.0506	0.2879	784.1515	0.146441	-272.545389	-272.537241	-272.536297	-272.57725	29.875	
C	-0.1190550406	 1.5631808285	 0.0728685238	-0.408859
C	 0.0239897541	 0.0624077125	-0.039779372	-0.019334
C	 0.6896992785	-0.6180518669	-1.2061964359	-0.019339
C	 1.2795804773	 0.1335421083	-2.3777873767	-0.408872
C	 1.3744830106	-0.6298774965	 0.1631932191	-0.221109
C	 2.5635407956	 0.1344378931	 0.3959493082	 0.349627
C	 3.5676642621	 0.7666828722	 0.6002140505	-0.485857
H	 0.7781489151	 2.0877239006	-0.26180108	 0.132256
H	-0.9664231941	 1.9201348438	-0.5227847718	 0.115302
H	-0.2963071448	 1.8544810843	 1.1135340871	 0.121201
H	-0.8089355131	-0.4872495782	 0.3916442317	 0.087931
H	 0.2583717237	-1.5781982857	-1.4783870703	 0.087932
H	 1.8068960374	 1.0364001841	-2.0632830514	 0.132267
H	 2.0005584277	-0.4940286256	-2.9122058311	 0.121193
H	 0.4980464419	 0.423707049	-3.088604542	 0.115306
H	 1.3456543102	-1.5749564425	 0.6980840058	 0.107605
H	 4.4546946183	 1.320255619	 0.783473195	 0.19275
