16
gdb 2584	2.99498	2.68506	1.70329	4.0838	64.99	-0.2842	0.0365	0.3207	783.5522	0.136606	-288.652757	-288.645259	-288.644315	-288.684211	27.292	
C	 0.0704847108	 1.4899907346	-0.2658577033	-0.385611
C	-0.0474341272	 0.0363829236	 0.2013933409	-0.256756
C	-1.4597905654	-0.5289264185	 0.0799486865	 0.198943
C	-1.9211062194	-1.0927452495	-1.2570448475	-0.284679
C	-1.6495079643	-2.0258416349	-0.1147872046	-0.301917
C	-2.4555052011	 0.1483149978	 0.8744598084	 0.242933
N	-3.2405459576	 0.7025923705	 1.5193885609	-0.353349
H	 1.0980124303	 1.8486422203	-0.1567607054	 0.119191
H	-0.2137109386	 1.5916975397	-1.3182562641	 0.120097
H	-0.579449675	 2.1455419066	 0.3216546411	 0.143722
H	 0.6189833177	-0.6031897064	-0.3889407972	 0.102254
H	 0.2813727741	-0.0493179802	 1.2437170697	 0.1182
H	-2.9504420197	-0.9260856781	-1.5503525305	 0.140408
H	-1.2041152431	-1.0441081737	-2.0692903657	 0.128006
H	-0.7453495831	-2.6240481471	-0.1350867836	 0.128021
H	-2.4936452882	-2.4956658146	 0.3753623243	 0.140536
