20
gdb 107824	3.2861	1.47327	1.2763	0.7358	77.17	-0.2303	0.0814	0.3117	1067.756	0.172114	-403.107464	-403.099687	-403.098743	-403.139564	30.964	
C	-0.0253534891	 1.5542484716	-0.0030324455	-0.384958
C	-0.0450769327	 0.0245643363	-0.0966640859	-0.278773
C	-1.4329442591	-0.5580451748	 0.0329316356	 0.411306
C	-2.2162987475	-0.4658855168	 1.3731942527	-0.209491
N	-2.6654958842	-1.8971256857	 1.2586487974	-0.156937
C	-3.1208169184	-2.0939986346	-0.1512515317	-0.051561
C	-3.4574597469	-0.8745467614	-0.9963553978	-0.113402
O	-2.2563269972	-0.100901527	-1.0411964479	-0.302341
C	-1.6786726153	-2.0875042619	 0.1330374887	-0.116623
H	 0.9926465042	 1.9384808793	-0.1142241984	 0.111768
H	-0.6482991352	 1.9954048718	-0.7849150817	 0.138634
H	-0.4071868512	 1.8981028347	 0.9644878718	 0.116475
H	 0.3713322897	-0.2968483202	-1.0591629429	 0.107533
H	 0.5872020079	-0.4124754775	 0.6852367918	 0.101452
H	-1.567415003	-0.3811016106	 2.2487020751	 0.109894
H	-3.0161314347	 0.2790638335	 1.4365333447	 0.103084
H	-3.6701138646	-3.0174279033	-0.2941551792	 0.104834
H	-3.7347363547	-1.1614155343	-2.0171743665	 0.111652
H	-4.2835917896	-0.2868165706	-0.5720627728	 0.104346
H	-0.9812275183	-2.9142277385	 0.0732039226	 0.093107
