21
gdb 66210	2.76662	1.27098	1.15255	2.5468	83.49	-0.241	-0.0191	0.2219	1177.4174	0.182514	-387.124017	-387.115107	-387.114163	-387.15746	34.216	
C	-0.0617789743	 1.7518058857	-0.1940424614	-0.438183
C	-0.0288395357	 0.2139030357	-0.0694735939	 0.159778
C	 0.7339379136	-0.4197593124	-1.264731767	-0.22808
C	 2.2156243172	-0.015589231	-1.286852822	-0.272915
C	 2.8406775819	-0.1020614906	 0.0797920846	-0.042218
C	 2.1288732796	-0.2063146289	 1.2013258785	-0.061823
C	 0.6239619012	-0.233706981	 1.25028876	-0.27086
C	-1.4658522177	-0.275286631	-0.1627364698	 0.137125
O	-2.0160485037	-1.0082589156	 0.6182137204	-0.259141
H	 0.9457845033	 2.1680697378	-0.1213607814	 0.136537
H	-0.491352509	 2.0654613293	-1.1518811865	 0.115331
H	-0.662214542	 2.1952562422	 0.607159255	 0.124214
H	 0.6656322343	-1.510801516	-1.1760475499	 0.112562
H	 0.2509528701	-0.1464901287	-2.2104244872	 0.094755
H	 2.7556369893	-0.6653266238	-1.986928351	 0.107482
H	 2.3337113016	 1.0008512618	-1.6894891797	 0.110272
H	 3.9265291399	-0.0756485658	 0.1286516888	 0.084538
H	 2.6419388713	-0.2812193793	 2.1573696607	 0.086162
H	 0.2690793066	 0.4040979758	 2.0699372648	 0.104943
H	 0.2686757434	-1.2404562434	 1.504653717	 0.127801
H	-2.006500701	 0.1035439893	-1.0635049301	 0.07172
