20
gdb 16567	2.82479	2.50457	2.05602	1.3805	72.71	-0.2374	0.076	0.3134	794.3513	0.181744	-349.028503	-349.022164	-349.02122	-349.058508	26.802	
C	-0.0452295162	 1.5609916297	-0.0721946094	-0.215932
C	 1.4469703678	 2.0137586899	-0.0631395663	-0.234778
C	 2.259748148	 0.700162942	 0.023477649	 0.133491
C	 1.3397916652	-0.3094273261	-0.6779770827	-0.218819
C	 0.0101943854	 0.0132172696	 0.0306666485	 0.003457
C	 0.1435114273	-0.4594868364	 1.4917158453	-0.219365
C	 1.3299136931	 0.2359917168	 2.1768356799	-0.066109
O	 2.4978900506	 0.2791632011	 1.3680444893	-0.271358
H	-0.6243118349	 2.0072181312	 0.7422217572	 0.095121
H	-0.5321657003	 1.8557628489	-1.0067078517	 0.09612
H	 1.7035856893	 2.5390447231	-0.9877282634	 0.097903
H	 1.6933874939	 2.6838989301	 0.7644424027	 0.108066
H	 3.2529896521	 0.7857996586	-0.4232444893	 0.07056
H	 1.2834304785	-0.0982451918	-1.7523868575	 0.08707
H	 1.6760273273	-1.3406929158	-0.5406678489	 0.095548
H	-0.8569691946	-0.4594115421	-0.4388481349	 0.058445
H	-0.7693107961	-0.2474560793	 2.061453688	 0.090979
H	 0.2895414015	-1.5461088724	 1.5039231482	 0.097754
H	 1.0361989247	 1.256253562	 2.4703450415	 0.087826
H	 1.6195658174	-0.2882172688	 3.0924356943	 0.104022
