13
gdb 129111	5.11175	1.34769	1.07363	4.0456	65.42	-0.2382	-0.0257	0.2125	1015.2041	0.092327	-448.917799	-448.911422	-448.910477	-448.948741	24.499	
N	-0.0323311026	 1.2288930565	 0.0072022033	-0.514111
C	-0.0239706791	-0.0244570192	 0.0007448048	 0.403621
C	-1.287692711	-0.9217629598	 0.003159932	-0.447227
C	-0.6337441673	-2.2597442051	-0.0073102745	 0.279773
C	 0.7186897572	-2.1054637975	-0.0139968322	 0.404656
O	 1.1426565242	-0.803998089	-0.0096800877	-0.246708
N	 1.3638023392	-3.2793427682	-0.0235566961	-0.296895
N	 0.4331149363	-4.2130745838	-0.023226181	-0.118709
N	-0.7798048066	-3.6006853546	-0.0133574384	-0.32558
H	 0.9148434356	 1.6096676725	 0.0039121032	 0.243063
H	-1.8918067845	-0.7077857692	 0.8904264175	 0.165202
H	-1.9016039879	-0.6987459842	-0.8751086259	 0.165202
H	-1.6067550336	-4.1757017084	-0.011731445	 0.287713
