20
gdb 17348	4.18522	1.2352	1.06203	1.7292	76.34	-0.2508	0.0867	0.3374	1184.2698	0.175727	-348.977576	-348.968736	-348.967792	-349.01148	32.512	
C	-0.1329295654	 1.5685711423	-0.0313675016	-0.405604
C	 0.0196059307	 0.0632198775	-0.0065376449	 0.009182
C	 1.3099770337	-0.6024930299	-0.4064469925	-0.306029
C	 0.8476670784	-0.665943364	 1.0353079581	-0.029581
C	 1.6096503922	 0.0676182901	 2.0851119894	 0.06268
O	 0.9865388966	 0.2402036003	 3.3687308615	-0.271285
C	 2.1757840012	-0.5541050523	 3.2965394299	 0.068101
C	 2.0601696119	-2.0135546687	 3.6555672655	-0.418615
H	 0.8047804216	 2.0816514987	 0.2003132668	 0.115921
H	-0.4510448837	 1.9063058205	-1.0237981298	 0.115714
H	-0.8815979771	 1.9045373512	 0.693932257	 0.1273
H	-0.88354917	-0.4686200514	-0.2953388666	 0.086312
H	 1.2845407177	-1.5107160853	-0.9982500146	 0.111356
H	 2.1540827508	 0.044698554	-0.6274525721	 0.109715
H	 0.4365983041	-1.614706561	 1.3622561985	 0.083281
H	 2.1157391315	 0.9673206731	 1.7295939656	 0.080868
H	 3.0518292927	-0.0610404207	 3.7259689953	 0.082728
H	 1.1657220561	-2.4686998513	 3.2261168829	 0.128796
H	 2.9386988843	-2.5651412146	 3.3033015631	 0.121065
H	 2.0064899726	-2.1295158484	 4.7432202285	 0.128096
