18
gdb 13149	3.92477	1.13865	0.96587	3.4232	64.28	-0.247	0.0587	0.3057	1205.8542	0.152334	-422.042135	-422.033066	-422.032122	-422.077019	31.518	
O	 0.1018107169	 1.3493911025	 0.1345225326	-0.421302
C	 0.0144134209	-0.0643047691	 0.0338935338	-0.067644
C	-1.430384169	-0.5590472429	-0.0695738149	-0.206129
C	-1.5022678219	-2.0697885483	-0.2086571133	 0.114726
O	-0.9853782645	-2.7690434302	 0.9554485115	-0.293884
C	-2.2608516337	-3.3824448253	 1.2252586149	-0.096221
C	-2.8854972217	-2.7429897202	-0.0361532496	 0.042625
O	-3.9326711638	-1.8223777277	 0.154128165	-0.420549
H	-0.3175396303	 1.6084442026	 0.9611527157	 0.279705
H	 0.5682570965	-0.3290272576	-0.8742232975	 0.10573
H	 0.5142748183	-0.5621184373	 0.8770307584	 0.107904
H	-1.995414499	-0.2518893733	 0.8180436219	 0.099791
H	-1.9153578108	-0.0925983629	-0.9347967629	 0.110776
H	-0.9643693825	-2.393664038	-1.1107695527	 0.075922
H	-2.1963763239	-4.4774306136	 1.2429539286	 0.09805
H	-2.7077846445	-3.0247548434	 2.161828905	 0.101168
H	-3.1256249735	-3.4619122029	-0.8287248413	 0.078781
H	-4.7610660335	-2.3077242425	 0.2115706551	 0.290551
