16
gdb 5238	6.72033	1.12741	1.03013	1.1076	68.94	-0.2221	0.0117	0.2338	1147.7399	0.130582	-383.753154	-383.745448	-383.744504	-383.786134	27.201	
C	 0.0521283431	 1.3632492064	-0.1613195336	-0.220996
O	 0.08433797	-0.0372731305	-0.0236003325	-0.230748
C	-1.2138494074	-0.6003993163	 0.0554754396	-0.182989
C	-1.1235291281	-2.0793898763	 0.1336780619	 0.366392
C	-1.2975904549	-2.9715162656	 1.1469311277	-0.264864
C	-1.0713087996	-4.271446813	 0.5906810927	-0.170106
C	-0.7771339282	-4.0672187875	-0.7198717414	-0.014496
O	-0.8080918271	-2.7436432424	-1.0163956449	-0.169516
H	 1.0870500994	 1.7080455344	-0.2210315505	 0.129296
H	-0.4800003872	 1.6737114196	-1.0750243615	 0.103773
H	-0.4354288518	 1.85024501	 0.6989427037	 0.101408
H	-1.7448307715	-0.231540786	 0.9476589534	 0.099291
H	-1.8061470058	-0.3037901126	-0.8265679765	 0.100236
H	-1.5518978157	-2.730599467	 2.1674302135	 0.109912
H	-1.1217777421	-5.2218912421	 1.0979822152	 0.110879
H	-0.5352212832	-4.7244022513	-1.5389406168	 0.132528
