17
gdb 68841	2.81747	1.46538	1.238	2.4323	69.38	-0.2277	0.0679	0.2956	1046.7878	0.133836	-458.896664	-458.888281	-458.887336	-458.929221	32.487	
O	-0.2073610062	 1.4431072867	-0.0481334054	-0.45997
C	-0.0847694259	 0.070835948	-0.0310881107	 0.306405
C	-0.2742287737	-0.7625638879	 1.218594327	-0.398748
C	-1.179279608	-1.0217322036	 0.0497644707	 0.299042
O	-2.5434724214	-1.0184837081	 0.1871374303	-0.44853
C	-0.4577138445	-1.7922666768	-1.0264111156	 0.373192
C	-0.5650156864	-3.1969018934	-1.4136023361	-0.274437
O	-1.1999544111	-2.155754502	-2.1862408556	-0.289705
C	 0.6674587606	-0.7429429122	-1.1031307028	-0.388972
H	 0.4539561724	 1.8220372028	 0.5415060146	 0.288505
H	 0.4643484044	-1.4873181108	 1.559119393	 0.103734
H	-0.784540148	-0.2227705988	 2.0120515112	 0.126589
H	-2.9084849039	-1.0517075227	-0.7071635317	 0.297575
H	 0.2674600913	-3.6913078477	-1.9115415488	 0.119787
H	-1.2458776731	-3.8551281255	-0.8760675829	 0.121668
H	 0.6623780095	-0.2459933498	-2.0762799025	 0.127498
H	 1.6820430037	-1.0762309384	-0.8593588746	 0.096366
