15
gdb 43004	2.32424	1.70554	1.3197	3.054	70.71	-0.2423	-0.0404	0.202	994.1731	0.111693	-420.592737	-420.585016	-420.584072	-420.625231	29.161	
O	 0.0381925262	 0.0733117739	 0.1715168051	-0.30419
C	-0.0329674432	 1.2646276117	 0.0521164659	 0.412808
C	-1.2760794059	 2.0687905346	-0.2119155716	-0.08115
O	-1.3279966164	 3.2446876687	 0.6159715858	-0.231231
C	-0.8504821669	 3.3897929776	-0.7144237478	 0.055452
C	 0.664074382	 3.4787352897	-0.7916233867	-0.268655
C	 1.1784620836	 2.2528030234	 0.0234650564	-0.281028
C	 1.6236744737	 2.5702369046	 1.3711696147	 0.360733
C	 1.9986565095	 2.8270417115	 2.4834368359	-0.48759
H	-2.2187047028	 1.5830294345	-0.4412493332	 0.120673
H	-1.4804674938	 3.9689243162	-1.3847068339	 0.112041
H	 0.9841679557	 3.4009077558	-1.835731409	 0.118114
H	 1.0347395762	 4.4248405642	-0.3916194182	 0.135845
H	 1.985864659	 1.7397884433	-0.5084090704	 0.135252
H	 2.3224821934	 3.0520468603	 3.4693277669	 0.202925
