18
gdb 98987	4.01098	0.82915	0.69305	1.1633	73.25	-0.2266	-0.0164	0.2103	1586.4316	0.146516	-472.442448	-472.432055	-472.431111	-472.479339	35.798	
C	-2.3611596567	 1.4736504896	-0.0297062761	-0.309017
N	-2.3470957694	 0.0272123322	 0.0095044666	-0.311853
C	-1.1789675209	-0.6530874567	-0.0234114322	 0.470506
N	-0.0432175146	-0.0662022914	-0.0915989013	-0.57504
N	-1.3154096878	-2.0761124516	 0.0237206018	-0.407354
C	-2.4385608013	-2.8432100294	 0.0971022635	 0.41348
O	-3.5846226658	-2.4140750332	 0.1379404097	-0.395629
C	-2.2026607084	-4.3560410926	 0.1290504158	-0.145135
O	-3.4172241858	-5.0355066741	 0.2037053978	-0.415535
H	-3.3990486141	 1.8101692235	 0.006070765	 0.121979
H	-1.8157701464	 1.899822773	 0.8192014287	 0.138993
H	-1.8925274062	 1.8507375646	-0.9450050982	 0.139236
H	-3.2006805649	-0.5068286009	 0.0656521866	 0.278121
H	 0.7325344046	-0.7225968988	-0.108022713	 0.202457
H	-0.4345389606	-2.5674862218	-0.0030600057	 0.2575
H	-1.6411727458	-4.6421669296	-0.7753574762	 0.119317
H	-1.5603095225	-4.5920480249	 0.9932447401	 0.119303
H	-4.0960858036	-4.3411237377	 0.2158061173	 0.298671
