16
gdb 18591	4.27535	1.85764	1.43514	2.5686	65.81	-0.23	0.0121	0.2421	864.8764	0.132769	-379.897347	-379.890481	-379.889537	-379.928369	26.011	
O	 0.2608446048	 1.3808209487	-0.0285619876	-0.418514
C	 0.1123444598	-0.0009516889	 0.0423231315	 0.047446
C	-1.3289831352	-0.6584205847	 0.0214749592	-0.221599
N	-0.8027035985	-1.645292488	-0.9669601112	-0.084334
C	-1.3292049021	-1.978512647	-2.2982169311	-0.194396
C	-0.0613566905	-1.6968759419	-3.1765301726	-0.168672
N	 0.7501671411	-0.7075558808	-2.4082229368	-0.337104
C	 0.2860718734	-0.8112385253	-1.231595674	 0.284617
H	 0.1168006733	 1.6468254128	-0.9441345797	 0.294345
H	 0.7023245746	-0.3620538388	 0.8880404401	 0.124186
H	-1.7112104853	-1.0979277551	 0.9450292769	 0.117594
H	-2.0637271969	 0.0339288269	-0.4092205154	 0.10752
H	-1.6784441361	-3.0113566272	-2.3648245096	 0.116278
H	-2.1597796293	-1.3087108101	-2.5673705759	 0.099974
H	 0.5213346268	-2.614358259	-3.3252256473	 0.118614
H	-0.3075446999	-1.2975551116	-4.1635164665	 0.114045
