20
gdb 107386	3.99521	1.0523	0.93374	0.9848	81.44	-0.221	0.0196	0.2406	1315.0685	0.170927	-403.133326	-403.124283	-403.123339	-403.166959	34.206	
C	-0.1301676917	 1.5561560071	 0.4521542125	-0.486168
C	-0.1072657156	 0.0991203618	 0.1177931932	 0.31901
C	-0.3739034958	-0.4672136447	-1.0647825054	-0.239818
C	-0.1562702971	-1.9456236992	-1.0268581223	 0.309442
C	-1.0052386761	-2.8654614276	-1.878914225	-0.200793
O	-0.6566415341	-4.2360895545	-1.7143400619	-0.411588
N	 1.265429055	-2.2978681338	-0.744069245	-0.382198
C	 0.2739422687	-2.2502815184	 0.361505617	-0.089447
C	 0.2876996097	-0.9477262859	 1.1509145373	-0.308949
H	 0.8675424879	 1.9108057727	 0.7407394133	 0.129801
H	-0.4711098497	 2.1596407468	-0.3935197621	 0.122227
H	-0.7899289946	 1.7574871671	 1.3061266761	 0.122055
H	-0.6666310845	 0.0688145727	-1.9615569013	 0.08225
H	-2.0577103664	-2.7617090995	-1.5877657722	 0.11912
H	-0.934261386	-2.56622672	-2.9348947826	 0.097905
H	-0.0564216048	-4.4806050284	-2.4233336911	 0.293254
H	 1.3727703461	-3.2872174609	-0.9731503122	 0.212351
H	 0.007816937	-3.185631256	 0.8410463028	 0.095317
H	 1.2759457111	-0.7390619263	 1.579702781	 0.115331
H	-0.4235657489	-0.9715492733	 1.9880328582	 0.100896
