20
gdb 93753	1.99081	1.61794	0.99963	5.2978	86.2	-0.2115	-0.0292	0.1823	1228.0895	0.171187	-403.193868	-403.184568	-403.183624	-403.22766	35.028	
C	 0.4315676069	 1.58969118	-0.1700401603	-0.395887
C	-0.0060521821	 0.131558187	 0.0477836327	-0.066737
C	 0.3856158009	-0.8130336331	-1.1215134459	-0.231389
C	 1.6858731601	-1.5141218427	-0.6702131235	-0.297434
C	 1.6322173769	-1.4090964895	 0.8362341606	 0.277143
N	 2.5344511883	-2.1056863441	 1.5829194589	-0.586889
C	 0.6853310201	-0.5114115626	 1.2380167694	 0.151101
C	 0.3649600749	-0.1753945109	 2.6013378193	 0.047235
O	-0.4598497993	 0.6540756911	 2.9465932514	-0.306506
H	 1.5098757005	 1.6575530158	-0.3561383627	 0.100796
H	-0.0885805346	 2.0305472443	-1.0277534151	 0.104016
H	 0.2009092276	 2.1871090379	 0.7155193449	 0.141032
H	-1.0912251387	 0.1310242104	 0.1971618028	 0.083944
H	-0.3966264032	-1.5640807404	-1.2681638765	 0.1043
H	 0.5072006207	-0.2796499839	-2.0680748079	 0.098962
H	 1.7573041005	-2.5546754317	-1.0103091609	 0.10371
H	 2.5868549121	-1.0050022443	-1.0380819572	 0.127051
H	 2.9517703357	-2.9263845347	 1.1759243822	 0.2596
H	 2.4288293574	-2.1332786421	 2.5841090565	 0.264151
H	 0.9246650652	-0.7495589565	 3.3817380312	 0.021803
