17
gdb 33424	2.57621	1.04453	0.81299	4.9342	79.59	-0.2536	0.0157	0.2694	1405.4016	0.134364	-380.806996	-380.797776	-380.796832	-380.841774	33.074	
C	 0.0474284831	-1.1908340808	 0.0093659303	-0.420001
C	 0.0487165182	 0.009211143	 0.0009176552	 0.320414
C	 0.0960120766	 1.471421784	-0.0017462537	-0.334334
C	 1.5393573063	 1.9872417865	-0.2545445243	-0.146435
N	 1.5806162972	 3.4284777853	-0.1115959873	-0.055098
C	 1.9176006819	 3.9478746201	 1.212980925	-0.227672
C	 2.896733914	 4.0201751444	 0.0934373986	-0.222655
C	-0.8470184268	 2.0288071679	-0.9857233093	 0.311057
N	-1.5937910689	 2.4523799925	-1.7576805336	-0.322211
H	 0.0309242553	-2.2530265509	 0.0140021082	 0.209827
H	-0.2148938767	 1.8406890329	 0.9852792541	 0.158339
H	 2.2072251329	 1.4572457604	 0.4453221613	 0.103035
H	 1.8390733243	 1.7199568699	-1.2721545091	 0.135989
H	 1.3692402745	 4.8309685127	 1.5258129927	 0.129965
H	 2.1249558354	 3.2306032939	 2.0063989196	 0.113667
H	 3.7546518253	 3.3513330227	 0.1424584855	 0.116201
H	 3.0763159074	 4.9564681754	-0.426047963	 0.12991
