20
gdb 117285	4.71431	0.67765	0.59939	5.3849	78.68	-0.2445	0.0108	0.2553	1858.2408	0.17054	-436.526113	-436.51565	-436.514706	-436.562508	37.301	
C	 0.0649132253	 1.5688395364	 0.1215457654	-0.387501
C	 0.0030507345	 0.0405365054	 0.1781575824	-0.151495
C	 0.6096660487	-0.6126516697	-1.0635059662	-0.27912
C	 0.5724691101	-2.1282358072	-1.0484131902	 0.386689
N	 0.0876919743	-2.7783594889	-0.0756457438	-0.504795
N	 1.1409650943	-2.676357554	-2.223606354	-0.402039
C	 1.244041721	-4.0234614541	-2.5358467235	 0.477706
N	 1.8340776925	-4.2580104767	-3.7674773186	-0.564429
O	 0.8267238651	-4.9226787004	-1.8312898977	-0.375226
H	 1.098528555	 1.9265128388	 0.0474680311	 0.10904
H	-0.4817924466	 1.9613725307	-0.7437788154	 0.109489
H	-0.3748432744	 2.0133235187	 1.0194129668	 0.115737
H	 0.5258004522	-0.3307902326	 1.0647856543	 0.118455
H	-1.0324801598	-0.2962967394	 0.2856651888	 0.118314
H	 0.0869093721	-0.2606146411	-1.9660091311	 0.107963
H	 1.6549702676	-0.2911086146	-1.1856792179	 0.107718
H	 0.1438238577	-3.7822154071	-0.252650748	 0.250059
H	 1.4147347056	-2.0151354863	-2.9334364962	 0.244444
H	 2.5250069766	-3.6080023027	-4.1098223491	 0.251218
H	 2.0681917083	-5.2291009451	-3.9079428974	 0.267774
