16
gdb 78064	2.08403	1.69614	1.62558	3.2347	70.9	-0.2463	-0.0635	0.1828	964.4747	0.122147	-437.854728	-437.84632	-437.845376	-437.887814	30.434	
C	-0.1772956111	 1.3750459329	 0.5992751188	-0.428683
C	 0.3759851579	-0.0132621223	 0.3477356313	-0.042387
N	 0.6237988281	-0.5059295875	-1.0676444583	-0.15553
C	 1.8829687412	 0.0558042585	-1.6288196474	-0.092162
C	 2.498413961	 1.3899709216	-1.3441821747	 0.136106
O	 2.7587674073	 1.8164863294	-0.2460590633	-0.240124
C	 1.9581863726	-1.0726981412	-0.6500388883	-0.173408
C	 1.7610541883	-0.5603444076	 0.7707628038	 0.402005
O	 2.3128275992	-0.7562002399	 1.8091610358	-0.299313
H	 0.4804419146	 2.1698512929	 0.2541897427	 0.146576
H	-1.1521527762	 1.4784352706	 0.1117510788	 0.128948
H	-0.3252134268	 1.5061350034	 1.6757949467	 0.14177
H	-0.3341855465	-0.7481440028	 0.7527940886	 0.129027
H	 1.9664306143	-0.2309211586	-2.6752293866	 0.117709
H	 2.731367533	 1.979826456	-2.2564146752	 0.100523
H	 2.312280973	-2.0545301856	-0.9463106926	 0.128943
