20
gdb 8196	2.66394	2.4139	1.63394	0.2216	79.83	-0.2208	0.0256	0.2464	892.0496	0.177113	-311.879573	-311.871661	-311.870717	-311.910983	31.471	
C	-0.0133102318	 1.5098968057	-0.0535424202	-0.481991
C	-0.0301343509	 0.0029484654	 0.050725518	 0.304381
C	 1.2317713692	-0.77848202	-0.2350191388	-0.362114
C	 0.658651014	-0.7766629198	 1.1746236169	 0.289715
C	 1.422825743	-0.1590168514	 2.3222850554	-0.48694
C	-0.2484035748	-1.9376079515	 1.4392850695	-0.125645
C	-1.3272649679	-1.9276107062	 0.6549457947	-0.086076
C	-1.3530477209	-0.7145756948	-0.2485009733	-0.328381
H	 0.9515885157	 1.9291540683	 0.2465214859	 0.113189
H	-0.2013748534	 1.832918738	-1.0846739196	 0.116484
H	-0.7859781848	 1.9628260188	 0.5790099611	 0.113845
H	 1.1764479815	-1.6962266442	-0.8126548914	 0.103662
H	 2.1323893833	-0.1936632061	-0.4030379008	 0.099344
H	 1.9959642386	 0.715848798	 2.0017689255	 0.114886
H	 0.7507744541	 0.1575438062	 3.1281595566	 0.116718
H	 2.135239156	-0.8756836126	 2.7482012851	 0.116443
H	-0.0100265732	-2.6989099162	 2.1751081698	 0.087321
H	-2.0968633069	-2.6909249054	 0.6322627984	 0.089958
H	-2.213551882	-0.0671776313	-0.0240634869	 0.099856
H	-1.4466463187	-0.9866435709	-1.3084615059	 0.105345
