15
gdb 107783	2.8599	1.73961	1.31112	4.3269	64.27	-0.2377	-0.0146	0.2231	950.3918	0.111661	-457.699278	-457.69189	-457.690946	-457.731304	28.288	
O	-0.0499818234	 1.4071421338	-0.1530957358	-0.413913
C	 0.0118176155	 0.0597906428	 0.2660240531	-0.202355
C	-1.3296057471	-0.604541615	 0.1438278112	 0.280019
O	-2.3358997056	-0.3373637767	 1.1666543863	-0.314904
C	-2.9397278435	-1.5714990245	 0.7815100676	 0.105066
C	-2.986271641	-1.6482508022	-0.7521522839	-0.25592
C	-1.7519055162	-2.1264999304	 0.1104468447	-0.217017
C	-2.1391614837	-0.5005599477	-1.1736729705	 0.456035
O	-1.9397418097	 0.1066723315	-2.1928555487	-0.364592
H	-0.4065182575	 1.4072619886	-1.0516595301	 0.303299
H	 0.7363007936	-0.5281688365	-0.3217764329	 0.101619
H	 0.3463527774	 0.0573627386	 1.3077666798	 0.128604
H	-3.6983919118	-2.0149122424	 1.4127036713	 0.133272
H	-3.6869972617	-2.2535429246	-1.3092285824	 0.124572
H	-1.2280043055	-3.0697328452	 0.0708085903	 0.136214
