19
gdb 114958	3.62662	1.01242	0.86961	2.3237	74.51	-0.2166	0.0636	0.2802	1388.7252	0.159439	-456.361915	-456.352428	-456.351484	-456.396815	33.396	
C	-0.0857301716	 1.4266712273	 0.0520314299	-0.318142
N	-0.0453984805	-0.019808305	-0.0674986344	-0.378128
C	 0.6698189994	-0.5912474676	-1.0725472854	 0.500635
N	 1.171292313	-0.0110807078	-2.0923940782	-0.36345
C	 1.752049974	-1.0778293445	-2.9058643327	-0.200721
C	 1.6732366549	-2.3470588268	-2.0302956277	 0.180991
O	 2.9372183875	-2.6621390799	-1.5513923822	-0.225293
C	 2.9828333771	-3.8389337688	-0.7625873237	-0.242524
O	 0.7933542294	-1.9520976045	-0.9555330454	-0.275418
H	 0.8733822619	 1.8562813196	 0.3709718156	 0.125077
H	-0.3364022946	 1.8530849133	-0.9208586721	 0.16056
H	-0.8590985346	 1.702774655	 0.7725196587	 0.121911
H	-0.0833998818	-0.5616014284	 0.7809303089	 0.250168
H	 1.197376011	-1.2030334295	-3.8440559938	 0.104809
H	 2.7970560378	-0.8713147623	-3.156021342	 0.120651
H	 1.207518436	-3.2231090113	-2.5010936311	 0.074976
H	 4.0302300846	-4.0096499914	-0.5058876421	 0.131328
H	 2.3965443044	-3.7297336484	 0.157325244	 0.123679
H	 2.6038667722	-4.7076464589	-1.3214735764	 0.108891
