16
gdb 20192	3.36394	2.74418	2.0588	1.5444	62.41	-0.2161	0.07	0.2861	705.6998	0.13314	-383.69029	-383.68451	-383.683566	-383.71988	23.769	
C	-0.0366890593	 1.4200730404	-0.0704112179	-0.056557
C	 1.3627038602	 2.0434402202	 0.0276894942	-0.241147
C	 2.0732773872	 1.4759459754	 1.2517387067	 0.091349
O	 1.1625174116	 1.4084887572	 2.3966725611	-0.30216
C	 1.1871051903	-0.0169777168	 2.3444897688	 0.037969
C	 0.8242702906	-0.5617744301	 0.9834732665	 0.111582
O	-0.0442748253	-0.0027026575	 0.0463643299	-0.27264
C	 2.2162469722	-0.0530754799	 1.2186844632	-0.197047
H	-0.6724037765	 1.8549383	 0.7094626562	 0.11599
H	-0.4887783219	 1.634481468	-1.0429722614	 0.103399
H	 1.9625039292	 1.8237939815	-0.8635412384	 0.109309
H	 1.2557858838	 3.1314145563	 0.0990970458	 0.107885
H	 2.9805491724	 2.0203963802	 1.5257063554	 0.084569
H	 1.095974637	-0.5531648843	 3.2831201738	 0.104151
H	 0.7288445139	-1.6436827017	 0.9591448929	 0.108288
H	 3.1331793646	-0.608415609	 1.0697429834	 0.095061
