14
gdb 48448	1.86061	1.72315	1.2996	4.49	69.28	-0.2629	-0.0569	0.206	1028.9283	0.099935	-432.86958	-432.860962	-432.860018	-432.903356	30.159	
N	 0.0809110256	 1.1646012039	-0.8132027976	-0.53175
C	 0.0960790382	 0.0583313596	-0.215583198	 0.368837
N	 0.9407278121	-0.7102752196	 0.5557920498	-0.330568
C	 0.0655549448	-1.8879311269	 0.6176309344	-0.203672
C	-1.0293809233	-1.0203969539	-0.0799189612	-0.039556
C	-2.1376046613	-0.5101953891	 0.8532863853	 0.133835
O	-2.1578894954	-0.7372586047	 2.030111351	-0.229297
C	-1.5749246852	-1.5113188266	-1.329759159	 0.246883
N	-2.0372913228	-1.9147477798	-2.3092719605	-0.32209
H	 0.9675696945	 1.6650113414	-0.7464372451	 0.227808
H	 1.9454662776	-0.663111547	 0.6255910578	 0.258808
H	 0.3942750404	-2.737299215	 0.0130815923	 0.137643
H	-0.199412267	-2.1991230614	 1.6293034816	 0.152948
H	-2.8974988682	 0.1154935091	 0.3473752793	 0.130172
