17
gdb 22815	2.45827	1.46668	1.05981	1.6957	73.03	-0.2486	-0.0081	0.2405	1138.7196	0.136058	-455.112891	-455.104293	-455.103349	-455.146597	31.501	
C	-0.0540989447	 1.4952834504	 0.0394616184	-0.386207
C	 0.0383349351	-0.0415858168	 0.0404739834	-0.036655
N	 0.6715788078	-0.4926773462	-1.1996630318	-0.272103
C	 1.8411308762	-0.9678791279	-1.1589007609	 0.132896
O	 2.6771845381	-1.1438422241	-0.1090383702	-0.226342
C	 2.2518783874	-0.6432063351	 1.1689496016	-0.161033
C	 0.7531277812	-0.55914679	 1.2658591704	 0.324981
N	 0.0571267503	-0.8888201219	 2.2816686441	-0.195228
O	 0.8459939308	-1.3151929624	 3.3620154066	-0.396409
H	 0.9399649979	 1.9508408699	 0.0971317294	 0.115103
H	-0.524360341	 1.8306042417	-0.888527881	 0.13425
H	-0.647406704	 1.8408010743	 0.8902033563	 0.12735
H	-0.9813972193	-0.4395181896	 0.0515284356	 0.110395
H	 2.3259514387	-1.3243726808	-2.0661139801	 0.12915
H	 2.6571140814	-1.3165431514	 1.9230063821	 0.155689
H	 2.6992560824	 0.3497082913	 1.3135068485	 0.133323
H	 0.1810164917	-1.5853523313	 4.0040849174	 0.310842
