19
gdb 98479	2.1893	1.47548	0.98978	1.3009	72.93	-0.2633	0.0065	0.2698	1231.2231	0.158039	-460.181536	-460.171893	-460.170949	-460.216346	34.787	
C	 0.1911814716	 1.3947356302	 0.0921308535	-0.246209
O	 0.3519274794	-0.0310233892	 0.0750924279	-0.256887
C	 0.4448874641	-0.5892712715	-1.160564521	 0.425654
O	 0.3877706359	 0.0629931864	-2.1740346037	-0.377267
C	 0.6084727124	-2.0707900682	-1.0867029298	 0.155967
C	 0.7658493558	-2.7091061287	 0.282535104	-0.146288
O	-0.3849203181	-2.5955855661	 1.098267697	-0.423075
C	-0.139083065	-2.8389129112	-2.1692497503	-0.27387
C	 1.3418428674	-2.688713962	-2.2687536005	-0.29041
H	 1.0351992461	 1.8803490919	-0.4027223801	 0.146144
H	-0.7299885225	 1.6830258149	-0.4197947263	 0.145447
H	 0.1501136013	 1.6762862703	 1.1443132781	 0.134756
H	 0.9400323929	-3.7819978941	 0.1501121567	 0.10215
H	 1.6529999879	-2.2930081471	 0.7831369051	 0.093335
H	-0.5033443798	-1.6532282336	 1.260944343	 0.286648
H	-0.554595814	-3.795527751	-1.8732158417	 0.128108
H	-0.7496397713	-2.2539335891	-2.8462547871	 0.137161
H	 1.7299123987	-1.9980523914	-3.0075003137	 0.139088
H	 1.9715196771	-3.5450803907	-2.0531331911	 0.119546
