21
gdb 69982	2.88472	1.69761	1.57304	1.6622	80.43	-0.2407	0.0878	0.3286	976.6996	0.18551	-387.082382	-387.075226	-387.074282	-387.113343	30.544	
C	-0.0126318964	 1.4972777957	-0.0099869825	-0.487799
C	-0.0194040019	-0.0124880034	 0.0327317272	 0.356926
C	-0.8426374936	-0.7359045587	 1.078123133	-0.35247
C	 0.6596146329	-0.8238104341	 1.1287760296	-0.070857
C	 1.3340515853	-1.9632692374	 0.3365689047	 0.088137
C	 1.8379012359	-1.2040266648	-0.9035023199	-0.224309
C	 0.3926206543	-0.7646347052	-1.266066744	-0.104466
C	-0.2555838355	-2.1512135638	-1.3254623333	-0.09653
O	 0.344392126	-2.8513066913	-0.215136693	-0.279706
H	 0.9177513438	 1.8823599996	-0.4446365064	 0.113403
H	-0.8429689222	 1.8871111818	-0.611217972	 0.116046
H	-0.1072880158	 1.9197740558	 0.9956426436	 0.114428
H	-1.3152922057	-0.1027825341	 1.8232747493	 0.100838
H	-1.4017121202	-1.632390716	 0.8430321896	 0.129081
H	 1.2079744494	-0.3592648123	 1.942733588	 0.076381
H	 2.0489945034	-2.5636204783	 0.8995772297	 0.072862
H	 2.4919218262	-0.3646900404	-0.6561291878	 0.097564
H	 2.3165862429	-1.846064103	-1.6496655446	 0.094321
H	 0.2672108292	-0.1756259609	-2.1756225125	 0.063132
H	-1.3440207148	-2.1326858343	-1.2065054372	 0.099797
H	-0.0173412431	-2.6718473751	-2.2627724816	 0.093222
