20
gdb 88805	3.05972	1.09961	0.88608	2.5521	81.16	-0.226	-0.0216	0.2045	1346.1117	0.169559	-403.120711	-403.11157	-403.110625	-403.155655	33.553	
C	-0.2714794507	 1.4003407877	-0.1418989534	-0.312807
N	 0.0164963809	-0.0171943203	 0.0050980172	-0.089805
C	 1.3800154582	-0.4626624622	-0.2474862685	-0.249998
C	 0.8205794551	-0.4944317436	 1.135461605	 0.011919
C	 1.3738324061	 0.3989154589	 2.2145371504	-0.11377
C	 0.5860963498	 0.5870023089	 3.5538356855	-0.258153
C	 1.8809799872	 0.3131117617	 4.3757042716	-0.338791
C	 2.5373060181	-0.1619187415	 3.0688776296	 0.385907
O	 3.5082563876	-0.8099550064	 2.8102278604	-0.291281
H	 0.5729806064	 2.0705795575	 0.0865309616	 0.098006
H	-0.5681576086	 1.5877654564	-1.1787942277	 0.127038
H	-1.1120315301	 1.671987152	 0.505131611	 0.122941
H	 1.4929762067	-1.3775249555	-0.8228120702	 0.118714
H	 2.1350826195	 0.2965839622	-0.4522526383	 0.107349
H	 0.4721331512	-1.4554436547	 1.5134877266	 0.090816
H	 1.6855845015	 1.3673291754	 1.8077655152	 0.099986
H	 0.1151297408	 1.5596717227	 3.6996221863	 0.110182
H	-0.1659896839	-0.1933725566	 3.6936123022	 0.117578
H	 2.3583867436	 1.2209986967	 4.7589862106	 0.132838
H	 1.8372554205	-0.4212064393	 5.1837321049	 0.131332
