19
gdb 126187	2.94528	1.21408	0.92035	3.3161	79.55	-0.224	0.0129	0.2369	1307.5751	0.15895	-419.223352	-419.213758	-419.212814	-419.258206	34.759	
C	 0.250750877	 1.6311579292	-0.175274135	-0.371988
C	-0.0617988622	 0.1439541303	 0.0681162734	-0.296404
C	 0.5648010149	-0.3879563265	 1.31307326	 0.378879
C	 0.0630219163	-0.8430147888	 2.4947736318	 0.007673
C	-1.352094057	-0.9951771425	 2.9511251207	-0.525921
C	 1.2435436679	-1.1847398907	 3.2323487795	 0.347376
N	 1.2768416521	-1.7766805391	 4.4865969548	-0.587935
N	 2.3455146184	-0.9447979791	 2.5594918428	-0.239309
O	 1.9106319579	-0.4440819041	 1.3236345324	-0.235373
H	 1.3295858389	 1.7916102234	-0.2445287421	 0.141506
H	-0.2091177942	 1.9729262755	-1.1070630452	 0.115683
H	-0.1307060519	 2.2502825871	 0.6422728963	 0.121511
H	-1.1437195976	-0.0091444441	 0.1295913902	 0.112616
H	 0.2927385353	-0.4466546596	-0.7853708233	 0.127838
H	-1.5523347699	-2.0186986783	 3.2885920788	 0.138937
H	-1.5897797889	-0.3268168828	 3.7889646825	 0.12441
H	-2.0574238908	-0.766644378	 2.1478861169	 0.130993
H	 0.5933262945	-1.4069256633	 5.1328047008	 0.251124
H	 2.2042417191	-1.7732871885	 4.8914108848	 0.258384
