15
gdb 25485	5.332	0.97756	0.83692	2.1133	78.2	-0.2629	-0.0291	0.2337	1299.137	0.114863	-416.859602	-416.852265	-416.851321	-416.892097	27.112	
N	-2.4652870629	 1.1880822353	 0.1889512422	-0.417087
C	-2.2708710311	-0.0082820463	-0.1463013973	 0.10586
O	-1.2221563138	-0.6850461698	 0.3998958652	-0.218963
C	-1.1775411721	-2.0494638532	 0.298010083	 0.416741
C	 0.0794144633	-2.641052757	 0.2034895582	-0.224737
C	 0.1460863061	-4.026555417	 0.1353723088	 0.021402
N	-0.9219319935	-4.8320683658	 0.1502506622	-0.271248
C	-2.1139431851	-4.2427328161	 0.2507191298	 0.022769
C	-2.3065296667	-2.8651234153	 0.3351204025	-0.254776
H	-3.2444899557	 1.576940686	-0.3386851403	 0.239983
H	-2.8315203105	-0.5997502354	-0.8778479952	 0.11238
H	 0.9691812489	-2.0239205589	 0.1823512596	 0.120024
H	 1.1140390166	-4.5158058106	 0.0603305203	 0.117824
H	-2.9766772827	-4.9043150601	 0.2752125766	 0.116336
H	-3.3022256107	-2.4560987656	 0.4546644643	 0.113492
