18
gdb 54574	3.66828	1.35044	1.13666	1.7774	76.46	-0.2288	-0.0184	0.2104	1097.853	0.147308	-401.891064	-401.883095	-401.882151	-401.924147	30.188	
C	-0.4507750028	 1.3683969696	 0.1183898099	-0.491525
C	 0.1624984269	-0.008998789	-0.0479096109	 0.262787
O	 0.6735322515	-0.6080700932	 0.8778614222	-0.323716
C	 0.0943592446	-0.6017611204	-1.4029317602	 0.224823
C	-0.6234573662	-0.197618117	-2.6829642386	-0.25502
N	-0.4987986579	-1.6248269566	-3.1797326489	-0.173657
C	 1.0090393159	-1.7444389031	-3.3484635194	-0.184467
C	 1.1525792818	-1.6622961025	-1.8403398059	-0.111202
C	-0.2734487149	-2.0449930148	-1.7126043217	-0.046354
H	 0.0089976179	 2.0786913952	-0.5785991552	 0.139001
H	-1.5206166343	 1.3397952115	-0.1189952157	 0.141568
H	-0.3124776927	 1.7118436074	 1.1440418534	 0.142998
H	-1.6791403592	 0.0351261828	-2.5195109212	 0.113338
H	-0.1805587688	 0.5532028865	-3.3472110221	 0.102665
H	 1.2483805774	-2.7375613899	-3.7363263898	 0.119564
H	 1.4601864267	-0.9766962295	-3.9861938114	 0.10373
H	 1.9727329045	-1.8943641737	-1.17473881	 0.119297
H	-0.8324813504	-2.7779212733	-1.1493067944	 0.116172
