18
gdb 73224	2.34866	1.89165	1.34143	4.8916	70.7	-0.234	0.0122	0.2462	998.3335	0.149144	-439.107176	-439.09922	-439.098276	-439.139695	30.208	
C	-0.2622413103	 1.4600024563	 0.1111690295	-0.479743
C	 0.0820074899	-0.0133493689	 0.0229675221	 0.17462
N	-1.0281413372	-0.979191665	 0.2769450222	-0.338204
C	-0.4506608796	-1.3418108476	 1.5917493628	-0.179432
C	 0.8874485739	-0.7053395281	 1.1510806493	-0.111113
C	 1.8528014119	-1.6279593905	 0.381092544	-0.090924
O	 1.7630329942	-1.2995177532	-1.0173592431	-0.227296
C	 0.8017094515	-0.3779982111	-1.2762455913	 0.450575
O	 0.5907193315	 0.0463884501	-2.3761019965	-0.354201
H	 0.6380562579	 2.0811430396	 0.0645333196	 0.130341
H	-0.8974288834	 1.7382000149	-0.735644443	 0.147881
H	-0.7892582863	 1.6852880884	 1.0437610542	 0.114354
H	-1.9565036617	-0.571617824	 0.2876183889	 0.223545
H	-0.8944495624	-0.814937678	 2.446595744	 0.100002
H	-0.4486200067	-2.416937068	 1.8047992777	 0.106629
H	 1.3985126418	-0.0751119216	 1.8779757435	 0.088771
H	 2.8950518447	-1.4882884467	 0.6802787382	 0.120833
H	 1.5961469802	-2.6857487665	 0.4965093878	 0.123361
