18
gdb 42312	3.15552	1.21104	0.90394	6.2813	79.88	-0.2379	-0.0322	0.2057	1259.8194	0.149923	-398.154051	-398.14551	-398.144566	-398.187969	30.958	
N	-0.0650762159	 1.3214330598	-0.2502750561	-0.529936
C	 0.0810558807	 0.0533692082	-0.1175798453	 0.276193
C	-1.134960551	-0.7490644075	-0.1729362931	 0.287067
N	-2.0874858142	-1.4019043116	-0.2137349913	-0.336768
N	 1.222252766	-0.6706543342	 0.0723756493	-0.099775
C	 2.528307915	-0.0226262481	 0.1770982481	-0.174652
C	 3.4766060634	-1.1719300753	 0.5544504678	-0.229428
C	 2.7959998433	-2.4109748758	-0.0499890796	-0.221188
C	 1.304329213	-2.1342505514	 0.177137074	-0.167198
H	 0.8304642158	 1.8069933128	-0.2043239888	 0.222055
H	 2.8067894975	 0.4386205329	-0.7816095346	 0.119192
H	 2.5122121469	 0.7726547042	 0.9322492573	 0.121825
H	 4.4902405493	-1.009259609	 0.1829363661	 0.116306
H	 3.5311123936	-1.2658096254	 1.6439354425	 0.119047
H	 3.0039286514	-2.4717939813	-1.1234372042	 0.118097
H	 3.1185969123	-3.3476119022	 0.4091443818	 0.11634
H	 0.9841076818	-2.4750769758	 1.1711308349	 0.12139
H	 0.6616711113	-2.6170366303	-0.5625411189	 0.141434
