18
gdb 2529	3.51081	1.85182	1.30993	3.8602	68.04	-0.3136	0.0354	0.349	961.5919	0.1592	-289.873479	-289.864869	-289.863925	-289.906419	30.235	
C	-0.0768904262	 1.5671919798	 0.0698858333	-0.398276
C	 0.0110089233	 0.0413890942	 0.0035488936	-0.180985
C	 0.7232703945	-0.4931432988	-1.2603746013	-0.115692
C	 0.8813852123	-2.0309945479	-1.2367330994	-0.180985
C	 1.6706240095	-2.5936205567	-2.4202679636	-0.398276
C	 0.0129396084	-0.0663510401	-2.4719962596	 0.28685
N	-0.5611491913	 0.2605693021	-3.4210424023	-0.341492
H	 0.91945171	 2.0226877086	 0.0616939914	 0.117785
H	-0.6364449989	 1.9699686497	-0.7796644659	 0.144994
H	-0.5811262764	 1.8858192157	 0.9866950059	 0.120621
H	 0.561193831	-0.3402948545	 0.8713818728	 0.10479
H	-0.992965988	-0.396009709	 0.0513524987	 0.115992
H	 1.7253227377	-0.0438610738	-1.3078809446	 0.120492
H	 1.3804477342	-2.2909780233	-0.2960608755	 0.104789
H	-0.1155457691	-2.4851662825	-1.1989796121	 0.115992
H	 1.1818910015	-2.3594059984	-3.3707147003	 0.144993
H	 2.6845637285	-2.1800232649	-2.4535035076	 0.117786
H	 1.757039019	-3.6813738403	-2.3451560834	 0.120621
