17
gdb 34386	2.56576	1.69067	1.34189	4.8051	77.42	-0.2409	-0.0092	0.2317	1000.2904	0.138055	-380.866054	-380.858678	-380.857734	-380.897874	28.669	
N	-0.0502287581	-1.1398441913	-0.05963772	-0.341482
C	-0.040581809	 0.0151665496	-0.0139106686	 0.253985
C	-0.0647391196	 1.4827564018	 0.0315882088	 0.150176
C	-0.3614028266	 2.1948902741	-1.3237759534	-0.289834
C	 0.8668374478	 3.0787381841	-1.0069600024	-0.168355
N	 1.2748373603	 2.1530211778	 0.0872085948	-0.112727
C	 1.4257558425	 2.7607836137	 1.4188311528	-0.237253
C	 0.0396380683	 2.6977283862	 2.024716071	-0.069199
C	-0.7914786846	 1.9935659496	 1.260482526	-0.13658
H	-0.2262240366	 1.537958	-2.1834016975	 0.133956
H	-1.3287147469	 2.6929428823	-1.389915656	 0.12126
H	 1.6172358502	 3.1792392208	-1.7956219155	 0.117143
H	 0.5935291446	 4.0788724823	-0.6469233098	 0.103169
H	 2.1538368451	 2.2110363352	 2.0313558819	 0.125509
H	 1.8057047204	 3.7853167758	 1.3191321947	 0.116444
H	-0.2127455412	 3.1491418311	 2.9771950336	 0.113768
H	-1.8265698966	 1.753478407	 1.4675509797	 0.120019
