24
gdb 88586	2.5707	1.12263	0.93105	1.324	90.6	-0.2148	0.0787	0.2935	1407.9782	0.216093	-368.369085	-368.358639	-368.357695	-368.404761	38.66	
C	-0.0102637057	 1.0821489379	-1.9618141166	-0.405628
C	-0.0179424432	-0.1230990563	-1.0439603405	-0.043632
C	 1.2190758825	-0.6460424987	-0.3466469953	-0.030572
C	 2.5805764973	 0.0036251549	-0.4796006131	-0.404453
C	 0.0944620976	-0.0250161103	 0.4697882303	-0.044934
C	 0.2492865335	 1.2920762091	 1.1667080072	 0.017005
C	-0.7032275051	 1.6966832505	 2.2435498007	-0.266503
N	 0.6893050716	 1.4077499054	 2.5648999054	-0.090243
C	 0.9677255708	 0.2035199374	 3.3330173345	-0.306583
H	 0.7250993344	 1.8364494144	-1.6736733468	 0.119427
H	 0.2235927235	 0.7787949184	-2.9883428829	 0.115527
H	-0.9914026865	 1.5696092268	-1.976741144	 0.118738
H	-0.7055953263	-0.8949631791	-1.3819976928	 0.081057
H	 1.2757093386	-1.7299534632	-0.2763005584	 0.079268
H	 2.5286007006	 1.0937712086	-0.5212885234	 0.119637
H	 3.2176905384	-0.2552954787	 0.373316531	 0.119769
H	 3.0896888859	-0.3375889509	-1.3879934266	 0.114136
H	-0.5234579415	-0.7347261374	 1.0113068686	 0.079023
H	 0.6577155168	 2.0902241927	 0.5521233824	 0.082133
H	-1.0210336525	 2.7303800462	 2.3584283625	 0.108749
H	-1.4542424157	 0.9600039281	 2.5310676699	 0.100101
H	 0.2753318712	-0.6327662272	 3.1505774195	 0.096754
H	 1.9833285804	-0.1412704974	 3.1126632353	 0.121596
H	 0.9193947834	 0.4516462588	 4.3984360832	 0.119627
