19
gdb 106921	3.951	1.09851	0.98661	4.8184	75.38	-0.2589	0.0124	0.2713	1245.4776	0.159951	-423.068349	-423.059986	-423.059041	-423.101475	31.633	
C	 0.0304494425	 1.5211757755	 0.297770269	-0.381337
C	-0.0253583967	 0.0512493686	-0.1395288184	-0.28619
C	-1.4217632364	-0.5277782469	-0.1063274759	 0.339942
C	-2.0064873863	-1.0965354149	 1.1507956263	-0.327865
C	-1.7176753886	-2.0091945039	-0.0325379159	-0.267574
C	-2.896057482	-2.2596217793	-0.9154380499	 0.459485
O	-3.3968665265	-3.2997215421	-1.2291538868	-0.346609
O	-3.3812078899	-1.0553668037	-1.3579401328	-0.235876
C	-2.4651630423	 0.0140229544	-1.0800272642	-0.142947
H	 1.0578521307	 1.895788077	 0.2750620459	 0.120992
H	-0.5672104263	 2.1595794581	-0.3616827773	 0.122338
H	-0.3519872351	 1.6440020282	 1.3161947914	 0.123579
H	 0.3822147785	-0.0472221928	-1.1541996844	 0.106445
H	 0.6217128116	-0.5488883008	 0.5109708124	 0.104917
H	-1.3438182076	-1.2082299085	 2.0022426511	 0.124462
H	-3.0421032078	-0.8935318647	 1.4056040395	 0.131374
H	-0.9661758112	-2.7828982956	 0.0474446583	 0.116782
H	-3.0407777494	 0.8543324329	-0.6800143293	 0.122349
H	-1.9986837172	 0.3257421183	-2.0230033491	 0.115733
