17
gdb 93470	3.02154	1.40055	0.98925	0.9653	73.6	-0.2409	-0.0004	0.2405	1152.2431	0.139114	-451.350966	-451.342659	-451.341715	-451.384082	31.236	
N	 0.0279383111	 1.4275206644	 0.2415221664	-0.508425
C	-0.0214635514	 0.0057314834	-0.0564901479	-0.060836
C	-1.4687068302	-0.4661774569	-0.1562374883	-0.090434
O	-1.5318424024	-1.8809622069	-0.3803175085	-0.247673
C	-0.7841959903	-2.4062647273	-1.3792724951	 0.453945
N	-0.9586073849	-3.5629972126	-1.8658525558	-0.568887
N	 0.2414846322	-1.6023596652	-1.8692566354	-0.379712
C	 0.7152678741	-0.4203293412	-1.3231831009	 0.373303
N	 1.6628469307	 0.2947544119	-1.7837028134	-0.536209
H	 1.0055680292	 1.6969067373	 0.3148534928	 0.25091
H	-0.3089704184	 1.9424569247	-0.5696845506	 0.231561
H	 0.4376158227	-0.5347627786	 0.7825222057	 0.12262
H	-1.9996670105	-0.2869024426	 0.7784531041	 0.14157
H	-1.9947550745	 0.0594621611	-0.9654927221	 0.115072
H	-1.7712449476	-4.0026096122	-1.4392644809	 0.229214
H	 0.7306537826	-2.0148977749	-2.6511424037	 0.263939
H	 2.0756600976	-0.1070388945	-2.6276316265	 0.210042
