20
gdb 79023	4.5609	1.35923	1.30132	1.5545	82.38	-0.2185	0.0906	0.3091	1054.0079	0.173506	-365.92843	-365.921529	-365.920585	-365.959267	29.247	
C	-0.1508258863	 1.5726560012	 0.0946148269	-0.435199
C	 0.0315995851	 0.070964873	-0.0184514178	 0.079495
C	 0.8075511257	-0.6045178973	-1.1592751603	-0.096589
C	 2.1202297346	-0.1447153001	-0.4469071031	 0.001584
C	 3.1956449175	-1.2099768332	-0.5844163234	-0.066357
C	 3.4287839994	-2.086665034	 0.6246960916	-0.290711
C	 2.3581911494	-2.4476948379	-0.3784101212	-0.071946
C	 1.0001505297	-1.800315697	-0.1720624891	 0.013101
N	 1.2103030465	-0.5638350352	 0.7401799069	-0.176538
H	 0.726878439	 2.1422824087	-0.2192036191	 0.118329
H	-0.9942430297	 1.8921153911	-0.5271481346	 0.118038
H	-0.3788352417	 1.8457138569	 1.1303157301	 0.128829
H	-0.9050310747	-0.4299159249	 0.2560282284	 0.066822
H	 0.5839502768	-0.6330021652	-2.2334724358	 0.054764
H	 2.4295161474	 0.899563203	-0.4506070501	 0.071733
H	 3.9501434217	-1.1189522208	-1.3565748096	 0.085629
H	 4.3267774224	-2.6957608979	 0.6096194289	 0.105082
H	 3.1336461412	-1.7254087739	 1.6020457894	 0.138049
H	 2.4448966184	-3.3380073722	-0.9894740234	 0.086235
H	 0.1466160175	-2.4232305942	 0.1037271851	 0.069651
