17
gdb 106937	4.09534	1.15195	1.03007	4.9865	68.71	-0.2625	0.0076	0.2701	1167.3176	0.135701	-458.978652	-458.970473	-458.969529	-459.011673	30.21	
C	 0.0269232174	 1.3164732221	 0.328768449	-0.260041
O	-0.0617275816	 0.0318068213	-0.2714678169	-0.285354
C	-1.304961882	-0.5591308012	-0.1510246197	 0.423866
C	-1.7578140331	-1.1684944167	 1.1389244567	-0.34674
C	-1.4400827587	-2.0521639831	-0.0685044232	-0.292499
C	-2.6175098433	-2.4192989878	-0.9129408668	 0.465634
O	-3.0324983361	-3.5030716818	-1.1991559229	-0.341555
O	-3.2226499185	-1.2692483748	-1.3565706463	-0.234053
C	-2.416646359	-0.1114148597	-1.0988889908	-0.15119
H	 1.0618041393	 1.6445408424	 0.2153137579	 0.13856
H	-0.6311545459	 2.0454741913	-0.1639249584	 0.117104
H	-0.2266022999	 1.2782177676	 1.3965346343	 0.117619
H	-1.0244575006	-1.2169255993	 1.9358388677	 0.134045
H	-2.7891342202	-1.0637514149	 1.4609613481	 0.13389
H	-0.6000784967	-2.7305194613	-0.0218221306	 0.131593
H	-3.0670815951	 0.6670580202	-0.689054185	 0.120889
H	-1.979096576	 0.2409709457	-2.0399807629	 0.128231
