16
gdb 123639	4.047	1.54264	1.21404	3.1968	74.08	-0.2207	0.0244	0.2451	983.8403	0.12952	-396.920853	-396.914568	-396.913624	-396.951381	25.712	
C	-0.0534088696	 1.5202660364	-0.0037540475	-0.365796
C	 1.4395626349	 1.9053124783	-0.0348752201	-0.017475
N	 2.1996813175	 1.4871459922	 1.1589246937	-0.328065
C	 2.2914419165	 0.6727438001	-0.0877230144	-0.242194
C	 1.3384733483	-0.4638696893	-0.0788730154	 0.286499
C	 0.0512312808	 0.0209979532	-0.002623843	 0.355575
N	-0.7666721557	-1.047172512	 0.0809488811	-0.323604
N	-0.0821398556	-2.2198156299	 0.0418981367	-0.227952
C	 1.2018144628	-1.8645705115	-0.0461168155	-0.170803
H	-0.5479180264	 1.9214555193	 0.8875939653	 0.129953
H	-0.5812387615	 1.9103040369	-0.8828380365	 0.114908
H	 1.7277259727	 2.8204186994	-0.5411202365	 0.090466
H	 3.0286705996	 2.0749436491	 1.2334705515	 0.227891
H	 3.2309406492	 0.6451098534	-0.628193351	 0.091943
H	-1.7697685774	-1.0800721628	 0.1449257124	 0.269979
H	 1.9578255739	-2.6348964229	-0.0871895907	 0.108675
