19
gdb 82475	2.64781	1.75722	1.51753	0.2983	73.92	-0.2385	0.0705	0.3091	978.292	0.159291	-422.984265	-422.976652	-422.975708	-423.01587	30.67	
C	 0.0225592361	 1.5406823911	-0.0208619463	-0.425516
C	 0.078000748	 0.0181331212	 0.0131467056	 0.039842
C	 1.0869664723	-0.6335983388	-0.9606938735	 0.009381
O	 2.346255038	-0.0146221448	-0.5623504998	-0.322017
C	 2.2492150172	-0.8161836669	 0.6213111704	 0.426418
C	 3.4635969775	-0.91356928	 1.4886390712	-0.521406
C	 1.4542918114	-1.9204776297	-0.0896058215	 0.007395
O	 0.5103981197	-2.0572212308	 0.9713249451	-0.294491
C	 0.7664759675	-0.6432754826	 1.2278621045	-0.02464
H	 1.0238830451	 1.9711035788	 0.0442379924	 0.135998
H	-0.4374196869	 1.894753949	-0.9495510051	 0.116241
H	-0.577103793	 1.9239631472	 0.8114697638	 0.112739
H	-0.9191084352	-0.4202690057	-0.0902359871	 0.084722
H	 0.9146762545	-0.6300560124	-2.0351942551	 0.081136
H	 3.6938328764	 0.0562610887	 1.9421077436	 0.132371
H	 3.2887952203	-1.6361038399	 2.2912063668	 0.138267
H	 4.3319699483	-1.2356957354	 0.9068378581	 0.132608
H	 1.8194462807	-2.8415109769	-0.5409827942	 0.092109
H	 0.5381126418	-0.3262584822	 2.2445394611	 0.078844
