21
gdb 86344	1.96571	1.57285	0.97205	1.6878	77.95	-0.2473	0.0621	0.3094	1249.558	0.181775	-424.191856	-424.18234	-424.181396	-424.226727	35.786	
O	 0.3541090618	 0.521862702	-1.0793467633	-0.431525
C	 0.0140410473	-0.3570327717	-0.0387062226	 0.151246
C	 0.1120326145	 0.0955316505	 1.4450636218	-0.319505
C	-1.133600465	-0.7904074874	 1.7270679917	 0.15126
O	-2.0887883622	-0.4005672336	 2.6792627109	-0.431539
C	-1.4827611986	-0.7420690469	 0.2029838325	-0.109123
C	-2.4546703762	 0.3581784674	-0.1586240753	-0.005679
C	-3.1286100481	 0.3609542236	-1.5121448473	-0.278648
C	-3.9319435444	 0.0577103196	-0.2755147312	-0.278639
H	-0.2805529375	 1.2455425562	-1.0796451613	 0.280614
H	 0.6168929049	-1.2542098067	-0.2053427068	 0.091177
H	 1.0338464092	-0.1044785613	 1.9950887603	 0.102453
H	-0.1337754143	 1.1591353691	 1.5463605833	 0.090739
H	-0.8272945258	-1.7995623578	 2.0167401553	 0.091167
H	-2.5182826975	 0.4003419047	 2.3621061061	 0.280625
H	-1.8194842193	-1.6815934208	-0.2464512908	 0.063026
H	-2.2160015127	 1.3444211404	 0.2382677626	 0.076767
H	-3.2894420786	 1.3116465763	-2.0083629512	 0.113752
H	-2.8956316085	-0.4569676223	-2.1850348565	 0.124035
H	-4.2456576097	-0.966584028	-0.1068132342	 0.124043
H	-4.6405381591	 0.8016319468	 0.0714604759	 0.113752
