17
gdb 85760	3.35807	1.20177	1.03308	4.2037	71.66	-0.2593	0.033	0.2923	1150.8784	0.138234	-418.004536	-417.996712	-417.995768	-418.03713	30.004	
O	 0.0508351739	 1.3812913337	 0.0021678486	-0.436624
C	 0.020281863	-0.0277315436	-0.0648313061	 0.151129
C	 0.76464606	-0.7163606208	 1.113835877	-0.274305
C	 0.0352487348	-2.0686104897	 1.3441078874	-0.150142
C	 0.1206559884	-2.5596084869	 2.7186249114	 0.278467
N	 0.1847188168	-2.9547286711	 3.8028288515	-0.325759
C	-1.3944221061	-1.7986771354	 0.8688206081	-0.046261
N	-1.9330590703	-0.5176600694	 1.3591248258	-0.338416
C	-1.3829183109	-0.6134013263	-0.0131374468	-0.08406
H	-0.4709751914	 1.6270330114	 0.7766533775	 0.289895
H	 0.488151405	-0.2873156074	-1.0208337777	 0.095798
H	 1.8293243982	-0.8501656328	 0.9174169088	 0.121414
H	 0.6636868372	-0.0905130261	 2.0022205238	 0.137554
H	 0.4626286617	-2.839800439	 0.6912521653	 0.127879
H	-2.0672889066	-2.6354042922	 0.7176589137	 0.108821
H	-2.9484270008	-0.5473785405	 1.3296521815	 0.2442
H	-2.0476934329	-0.513932684	-0.8643083499	 0.100409
