19
gdb 84253	3.30479	1.6418	1.40609	0.576	80.95	-0.2192	0.0006	0.2197	970.1181	0.161133	-385.833021	-385.825967	-385.825023	-385.864035	29.517	
O	-0.0449895631	 1.4360888999	 0.2979130327	-0.432796
C	 0.0457818403	 0.0425467546	 0.028465754	 0.092796
C	 0.6515802139	-0.7255090749	 1.2172330413	-0.202473
C	-0.0442981966	-1.842696823	 1.4349001664	 0.159439
C	-0.8785289571	-2.3100620914	 2.6125521162	-0.290926
C	-2.0915329518	-1.896226611	 1.6893438086	-0.028678
C	-2.2380194837	-0.3782125087	 1.3002720748	-0.234684
C	-1.3714463325	-0.5647261947	-0.0106638668	-0.0379
C	-1.1779516835	-2.0301484985	 0.4339042524	-0.076487
H	 0.8358823671	 1.8151410329	 0.2210110593	 0.283862
H	 0.5646088769	-0.1199095167	-0.9312424206	 0.063749
H	 1.3054675737	-0.2270797114	 1.9258406049	 0.086561
H	-0.9052593702	-3.394026509	 2.7711370205	 0.10557
H	-0.7233094367	-1.8028051522	 3.568590825	 0.103452
H	-3.0222359725	-2.4507204505	 1.8285085956	 0.0676
H	-3.2749644303	-0.1307986956	 1.0638264505	 0.102855
H	-1.8637128105	 0.3558628298	 2.0152033055	 0.114127
H	-1.914417274	-0.3574903466	-0.9359911305	 0.058834
H	-1.1761097093	-2.8839359628	-0.2446240798	 0.065098
