18
gdb 86517	3.34835	1.02065	0.84242	3.7347	81.48	-0.2386	-0.0401	0.1985	1374.4476	0.147824	-398.13199	-398.122782	-398.121838	-398.166899	32.634	
C	-0.5308425407	 1.4466270109	-0.0048501492	-0.405087
C	 0.0899882395	 0.0595204953	 0.015625506	 0.013115
C	 1.3801876725	-0.1553159277	-0.8361465055	-0.198276
N	 2.0405003948	-0.6630432198	 0.3743772878	-0.070322
C	 0.9315786903	-0.3275766721	 1.2699340985	-0.183081
C	 3.3538690385	-0.7299867398	 0.7107434024	 0.25703
N	 3.746192381	-0.764969088	 1.9318257359	-0.525117
C	 4.259623088	-0.7822710442	-0.4294372707	 0.242856
N	 5.0130016867	-0.8131022955	-1.3063821736	-0.333996
H	 0.2148018127	 2.2171425467	 0.2197971376	 0.123709
H	-0.9620310426	 1.6720659902	-0.9859198618	 0.125101
H	-1.3311639128	 1.5288128682	 0.7379330014	 0.126285
H	-0.6632096669	-0.6992377819	-0.2097323429	 0.091786
H	 1.317031961	-0.8831503912	-1.6506166814	 0.127298
H	 1.8196948723	 0.7730143673	-1.2217390642	 0.121568
H	 1.1684823348	 0.5075446415	 1.9405355295	 0.123845
H	 0.5753350332	-1.169058661	 1.8710312445	 0.12525
H	 4.7566141878	-0.8634462388	 1.9896541057	 0.238035
