18
gdb 103522	2.43978	1.472	1.20656	2.5103	73.14	-0.2156	0.0006	0.2162	1091.1507	0.14704	-439.1261	-439.116928	-439.115984	-439.159794	33.955	
C	-0.0436119459	 1.5564224727	-0.0003879436	-0.424051
C	-0.0119812015	 0.0167956628	-0.0567430153	 0.107194
C	-1.4413050388	-0.550632237	-0.0575639543	-0.092498
O	-2.1034569933	-0.0698497856	-1.2173318743	-0.42968
C	 0.8285100843	-0.5268006606	-1.1918304469	-0.166993
C	 1.8461624308	-1.2264987119	-0.6847585128	-0.043084
N	 1.801121681	-1.2410348389	 0.7209383346	-0.336461
C	 0.7179251404	-0.5298200615	 1.1934080308	 0.393126
O	 0.4095919316	-0.3730443127	 2.3542644026	-0.388867
H	 0.9663432201	 1.970873517	-0.0612716931	 0.117474
H	-0.6357766861	 1.9463946814	-0.8303827106	 0.135538
H	-0.493816242	 1.8800677904	 0.9431153779	 0.132017
H	-1.3987751365	-1.6505007076	-0.0529394586	 0.091871
H	-1.9432529257	-0.2269200915	 0.8657934359	 0.10799
H	-3.0141244147	-0.3767250205	-1.191596156	 0.290327
H	 0.6159981966	-0.3657305404	-2.2369423436	 0.116306
H	 2.6438205647	-1.7509630688	-1.1913708925	 0.129051
H	 2.4632029449	-1.6937004172	 1.32881304	 0.26074
