18
gdb 115430	4.72576	0.9151	0.85387	5.2746	73.33	-0.2688	0.0174	0.2862	1364.2796	0.147375	-439.08695	-439.07797	-439.077026	-439.122003	31.695	
C	 0.2734388821	 0.9298247979	 0.529188282	-0.241351
O	 0.1012986206	-0.3421420678	-0.056831222	-0.247704
C	 0.407812258	-0.3988222449	-1.4360816644	 0.100984
C	 1.9138395396	-0.4896454277	-1.710817526	-0.093463
O	 2.2739152902	-1.8512920455	-1.479926451	-0.260959
C	 1.115224303	-2.6789417785	-1.5619517644	 0.004135
C	-0.0670755854	-1.7594799326	-1.9497605365	-0.276446
C	 1.3346503345	-3.7605975868	-2.5347607246	 0.269305
N	 1.4867032256	-4.6157194099	-3.2965669123	-0.321326
H	 1.3205404952	 1.2648970214	 0.5128788256	 0.112099
H	-0.3411569802	 1.6910342513	 0.0243623085	 0.11003
H	-0.0476268982	 0.848202407	 1.5698472334	 0.136991
H	-0.0589223104	 0.441229834	-1.9706551935	 0.078567
H	 2.1340205436	-0.1997703231	-2.7487976964	 0.105026
H	 2.513960728	 0.1342424722	-1.0429379297	 0.119896
H	 0.9419551249	-3.1357146354	-0.5796927293	 0.135317
H	-1.0048187852	-2.0656846091	-1.4863498155	 0.13668
H	-0.1934399158	-1.7340795024	-3.0343400737	 0.132216
