21
gdb 64048	2.50911	1.48319	1.18212	1.0901	86.4	-0.2138	-0.0244	0.1894	1137.0714	0.182819	-387.107794	-387.098834	-387.09789	-387.141461	35.149	
C	-0.3200831423	 1.5835308056	-0.0128673272	-0.419045
C	-0.0466657801	 0.0752993341	-0.0035484277	 0.304128
O	-1.2878699451	-0.6401463178	 0.1012765856	-0.457628
C	 0.6475738657	-0.3817095828	-1.3045478904	-0.280653
C	 1.9649469443	 0.2478897383	-1.6645182873	-0.081267
C	 2.9440721762	 0.6490562504	-0.8408774661	-0.068465
C	 3.0085211087	 0.5903136362	 0.6158058989	-0.072044
C	 2.0881746477	 0.1766039645	 1.5000909683	-0.078867
C	 0.701447743	-0.3501254622	 1.2687616399	-0.256163
H	 0.607596218	 2.1596056876	-0.015115937	 0.137502
H	-0.8917593655	 1.8644674162	-0.9058706983	 0.097721
H	-0.9058746475	 1.8607761432	 0.86825992	 0.117897
H	-1.8560918377	-0.3478054148	-0.6193995781	 0.273127
H	 0.7556122993	-1.4741917765	-1.2602079948	 0.121538
H	-0.0562240465	-0.1965372026	-2.1277634048	 0.086097
H	 2.1385364357	 0.3667889078	-2.7316581067	 0.088493
H	 3.8332202782	 1.0654331088	-1.309486469	 0.082395
H	 3.9563983038	 0.9265005073	 1.0307173647	 0.082082
H	 2.3785385817	 0.1998674613	 2.5485980302	 0.089936
H	 0.0701860165	-0.0615455086	 2.1178610599	 0.110968
H	 0.7197161661	-1.448761556	 1.29504319	 0.122249
