17
gdb 9622	3.66275	1.31627	1.27072	2.2915	66.15	-0.2553	-0.0039	0.2514	1027.3808	0.140507	-400.991321	-400.982648	-400.981704	-401.02463	31.046	
C	 0.2890083407	 1.3823520381	 0.0442873592	-0.462139
C	-0.0467013844	-0.0928620225	-0.0270532042	 0.268138
C	-1.4676978849	-0.4559725424	 0.369323643	-0.109222
O	-1.7145977656	-0.1707645298	 1.7347685336	-0.415368
C	 0.6900487416	-0.9807624586	-0.9911973155	-0.285954
N	 0.942215122	-1.0753458075	 0.4315877565	-0.103265
C	 2.1708513796	-0.8003244789	 1.0086091403	 0.137555
O	 3.2401788694	-1.1035900814	 0.539694157	-0.285213
H	 1.3472533971	 1.5660120983	-0.1611460107	 0.133183
H	-0.3026710525	 1.9365357923	-0.6916912462	 0.130981
H	 0.0448992493	 1.7795248539	 1.0334337495	 0.143697
H	-2.1812706712	 0.146113297	-0.2032272424	 0.115528
H	-1.6528945717	-1.5145532912	 0.1382812482	 0.096365
H	-1.1316935959	-0.7426988079	 2.2471575185	 0.288735
H	 0.1842658012	-1.8298084316	-1.4436234068	 0.125736
H	 1.4770230702	-0.5369171253	-1.5955230341	 0.138157
H	 2.0586366651	-0.3271546125	 2.003441034	 0.083084
