17
gdb 33542	2.53499	1.45534	1.15659	3.3921	72.5	-0.2583	0.013	0.2713	1103.157	0.136355	-417.966488	-417.958135	-417.957191	-417.999906	30.583	
N	-0.0400966936	-1.2141275117	 0.0860519104	-0.354519
C	-0.0726383102	-0.0590910538	 0.0395250036	 0.252711
C	-0.0309321529	 1.4099590063	-0.0209089727	 0.15802
C	-0.3538340561	 2.0572735741	 1.3692057846	-0.270821
C	 1.1760704941	 2.1881203496	 1.5548663273	-0.16082
N	 1.3403541499	 1.9681155922	 0.0956443354	-0.341396
C	-0.794446345	 1.9461170867	-1.2173023345	 0.047009
C	-1.0920061711	 1.1598321445	-2.4203008231	-0.198689
O	-2.097085987	 1.4204109224	-1.433505103	-0.231241
H	-0.8589687046	 3.0163360652	 1.2448498508	 0.12758
H	-0.9023054042	 1.4392840715	 2.0774848965	 0.136961
H	 1.5611418839	 3.1502931268	 1.9030728195	 0.115778
H	 1.5901964794	 1.3888158712	 2.1815994155	 0.116369
H	 2.0912213169	 1.3487877655	-0.1901564717	 0.234904
H	-0.7022635599	 3.028719844	-1.3058388405	 0.10349
H	-1.2261943801	 1.6766576195	-3.3687573185	 0.124256
H	-0.7669074694	 0.1238361462	-2.4849347696	 0.140409
