21
gdb 103094	2.1477	1.22955	1.18387	3.3624	84.15	-0.243	0.0164	0.2594	1243.7288	0.180465	-383.264309	-383.253967	-383.253022	-383.299216	37.731	
C	 0.6437742951	 0.7355156309	 0.1998846479	-0.393893
C	 0.1935337062	-0.6687328443	-0.2272582592	-0.252805
C	-1.2972375399	-0.9267144319	-0.0386625556	 0.311467
C	-2.2188790407	-0.0539258734	-0.8717023745	-0.44584
C	-1.7711542518	-2.3421913833	 0.2279813456	-0.230877
C	-0.814616755	-3.414390055	 0.3458841408	 0.300246
N	-0.0625704221	-4.2879222723	 0.4520582548	-0.35054
N	-1.8621185197	-1.2966601708	 1.2572159794	-0.123175
C	-1.0469109898	-1.4069787251	 2.4616794966	-0.32942
H	 1.7229019759	 0.8454041045	 0.0590509722	 0.123205
H	 0.1544373211	 1.5179385027	-0.3872591731	 0.12422
H	 0.4252444421	 0.9247003189	 1.2553751714	 0.123558
H	 0.4230932813	-0.8166621992	-1.2897504453	 0.111816
H	 0.7800691659	-1.4201695959	 0.3069043174	 0.125548
H	-1.9889747913	-0.1513207486	-1.9380679173	 0.12206
H	-3.262132689	-0.3324601222	-0.707871071	 0.129884
H	-2.1106529666	 0.9995721832	-0.5963762573	 0.129616
H	-2.7264360672	-2.6660230739	-0.1794130419	 0.127614
H	-0.0393992098	-1.8148945375	 2.3116816695	 0.128968
H	-0.9616146353	-0.4136925544	 2.9112810586	 0.131508
H	-1.5697669995	-2.0558092625	 3.170393781	 0.13684
