16
gdb 45569	3.4661	1.46689	1.24978	5.4047	63.76	-0.2661	0.0531	0.3191	997.1272	0.127453	-475.089504	-475.082427	-475.081483	-475.121645	26.81	
O	 0.1069220274	-0.0541704914	-0.1542367022	-0.387934
C	 0.0264015262	 1.1358642392	-0.0433216662	 0.474461
N	-1.1015566458	 1.8969101527	 0.1399923217	-0.365097
C	-0.8607339743	 3.3188014578	 0.1267246347	-0.066134
C	-1.1658113904	 4.0265477731	 1.4603592798	-0.228939
C	 0.1346443721	 3.8134975219	 2.2409310406	-0.100864
O	 1.1592043931	 3.9153002227	 1.2443605508	-0.237974
C	 0.7019061223	 3.3459331893	 0.0612653207	 0.217839
O	 1.1057340302	 1.9810319046	-0.0772063372	-0.24979
H	-2.0064325414	 1.4728292569	 0.0326094739	 0.264675
H	-1.3291157174	 3.81216861	-0.7304342426	 0.097693
H	-1.3324158174	 5.093725404	 1.2856821833	 0.116855
H	-2.045791353	 3.611977383	 1.9568516376	 0.113267
H	 0.3335461162	 4.578095457	 2.9938835154	 0.122897
H	 0.1611763226	 2.8276113943	 2.7231242947	 0.120801
H	 1.1409982397	 3.8987045748	-0.7706870851	 0.108244
