16
gdb 49117	3.30979	1.31371	0.99459	4.4297	77.06	-0.2306	-0.049	0.1816	1142.4781	0.125388	-437.853447	-437.845914	-437.84497	-437.885792	28.074	
O	-0.1601081938	 0.1186354581	 0.1702497921	-0.296252
C	-0.030268188	 1.3122919317	-0.0286341734	 0.057564
C	 1.2372446783	 1.9822702574	-0.1906741968	 0.036906
C	 1.5205057042	 3.2982460562	-0.2826655138	 0.235811
N	 1.1491812577	 4.5933923038	 0.0287323134	-0.372637
C	 2.4854289182	 4.8050809174	 0.6927115001	-0.214061
C	 2.9798322625	 3.5569064721	-0.1383737148	 0.068897
O	 3.5062486067	 2.3806604606	 0.4134651568	-0.279395
C	 2.6026633028	 1.3135743703	 0.0036946444	-0.162173
H	-0.9208165476	 1.9783387071	-0.1009362894	 0.050296
H	 0.2742900714	 4.7982531833	 0.4944170115	 0.255499
H	 2.9398427199	 5.7746433837	 0.4813064231	 0.125938
H	 2.4647264279	 4.5951625113	 1.7656714095	 0.134471
H	 3.5145455104	 3.8747088129	-1.0431498939	 0.103627
H	 2.5666073779	 0.5660263367	 0.8000344532	 0.141173
H	 2.9943525714	 0.8323925375	-0.9034889418	 0.114336
