18
gdb 43884	4.65274	1.05955	1.01331	1.6807	75.72	-0.2381	-0.026	0.2121	1193.9163	0.147004	-401.904006	-401.896277	-401.895333	-401.937421	30.07	
O	 0.0148464208	 0.0369415311	-0.4950224373	-0.285408
C	-0.0165635278	 1.1623718265	-0.0926117519	 0.410943
C	-1.1471196643	 2.1154695474	 0.3268847298	-0.428718
C	-0.0608462755	 3.1289933068	 0.7995303151	 0.344299
C	-0.0530306479	 4.6359720377	 0.4419467983	-0.244738
N	 0.1456442498	 5.0467765017	 1.8779222351	-0.121821
C	-1.0378521786	 4.5379265135	 2.5929620433	-0.243996
C	 0.0307405571	 3.578009068	 2.2539589427	-0.095126
C	 1.0639563274	 2.2027835387	 0.2472975017	-0.424691
H	-1.7474861073	 2.4578761503	-0.523273847	 0.132198
H	-1.8252213903	 1.7285787793	 1.0937792944	 0.132646
H	 0.8089630333	 4.9378137181	-0.1578794578	 0.115544
H	-0.9653631898	 5.0453957113	-0.007007528	 0.104448
H	-1.0936874571	 4.8852298132	 3.6200898886	 0.12572
H	-1.9944039284	 4.496648992	 2.0742250466	 0.111879
H	 0.6749924618	 3.1295956415	 3.0053730643	 0.098138
H	 1.8214807713	 1.868271042	 0.9630079764	 0.135407
H	 1.5783642654	 2.5875993108	-0.6401918442	 0.133277
