21
gdb 93719	2.55546	1.22689	1.10899	1.6184	84.26	-0.2475	0.0461	0.2936	1251.2586	0.180599	-387.072233	-387.062498	-387.061554	-387.106793	36.74	
C	-0.0991922146	 1.5495009718	-0.0317918043	-0.416981
C	 0.071172426	 0.0325740894	-0.0014645993	 0.007737
C	 0.9530380526	-0.5246724451	-1.1363567674	-0.07501
O	 1.6413069519	-1.6680929136	-0.6250375133	-0.285067
C	 1.2797048137	-1.8995682489	 0.7468617524	 0.179634
C	 2.5217411183	-2.4183708457	 1.4744446114	-0.429297
C	 0.7851346214	-0.5229762738	 1.238905279	-0.253285
C	 0.1940282215	-2.8963071521	 0.8170474089	 0.372455
C	-0.6901195841	-3.7090005749	 0.8773530395	-0.520065
H	 0.8693464697	 2.0560233146	 0.0504364789	 0.115994
H	-0.5692434837	 1.8776286902	-0.9651289795	 0.11814
H	-0.7297898351	 1.8946212691	 0.7937564454	 0.118646
H	-0.915666945	-0.4403403139	-0.0638258339	 0.091141
H	 0.3657802145	-0.8116613838	-2.0168223445	 0.103077
H	 1.7012002003	 0.2151918584	-1.4551292151	 0.093377
H	 3.3244682578	-1.6799227427	 1.399016311	 0.117603
H	 2.2993908431	-2.604056005	 2.5288718134	 0.122901
H	 2.8603507744	-3.3531947419	 1.0216733459	 0.135236
H	 1.6551959554	 0.0951748867	 1.490908916	 0.096935
H	 0.1422948474	-0.5942457263	 2.1185427035	 0.11077
H	-1.4683275454	-4.4303904725	 0.922398552	 0.19606
