19
gdb 86887	3.24631	1.13297	0.93762	2.743	78.3	-0.2455	0.0369	0.2824	1279.0518	0.15748	-422.995491	-422.986156	-422.985212	-423.029813	34.968	
C	 0.0393217357	 1.6716254275	 0.0335909069	-0.399406
C	-0.0511574331	 0.1862133024	 0.3392125868	 0.150252
O	 0.1355566776	-0.5572522324	-0.8730057537	-0.286478
C	 0.8841582119	-1.7521054106	-0.6186998213	-0.031267
C	 1.0206969236	-1.8438562905	 0.9188296961	-0.278548
C	 0.988786057	-0.3667335975	 1.3240829049	 0.074959
O	 2.231679584	 0.2772508787	 1.0824592313	-0.428575
C	 0.2351791489	-2.9142488046	-1.2180456408	 0.325214
C	-0.283472383	-3.8840954721	-1.7022354053	-0.454414
H	 1.0380656721	 1.9266096286	-0.3233714242	 0.141239
H	-0.6927990503	 1.9359338811	-0.7338763999	 0.123523
H	-0.1747420542	 2.2597658856	 0.9317972621	 0.109881
H	-1.0484628734	-0.0448999856	 0.7475462351	 0.070392
H	 1.88040368	-1.6302875724	-1.0666591462	 0.106968
H	 0.1650899514	-2.3772564306	 1.3431419488	 0.118885
H	 1.9339785122	-2.3588809086	 1.2278826188	 0.103583
H	 0.6662907471	-0.2226352449	 2.3646367819	 0.07111
H	 2.8952940293	-0.1339713311	 1.6446287912	 0.286063
H	-0.7450216968	-4.7346325631	-2.1395457723	 0.196619
