14
gdb 99416	1.72931	1.4608	1.29074	3.9936	70.53	-0.3621	-0.0386	0.3235	1109.9099	0.099164	-395.746657	-395.737282	-395.736338	-395.780995	32.202	
C	-0.0566297008	 1.5581605149	 0.0792259774	-0.423171
C	 0.0020551402	 0.0348732241	 0.0009409233	-0.197269
C	 0.7353782589	-0.4982436228	-1.2867693944	-0.229443
C	 2.1310828224	-0.0121302201	-1.3118746365	 0.335558
N	 3.2138526109	 0.3860019645	-1.2927915602	-0.304415
C	 0.735626122	-1.9753958148	-1.2631191642	 0.323948
N	 0.712460595	-3.1273173519	-1.2033589729	-0.298811
C	 0.03117273	-0.0315215948	-2.4996952502	 0.335563
N	-0.5485428867	 0.3513519956	-3.4208910529	-0.304421
H	 0.9444630747	 1.9973012682	 0.1054912347	 0.156536
H	-0.6004910228	 1.9827422179	-0.7691146096	 0.156551
H	-0.5774418468	 1.8509939973	 0.9942953043	 0.143825
H	 0.5363911	-0.3868988436	 0.856516486	 0.152776
H	-1.0003796371	-0.4014177046	-0.0126670849	 0.152775
