20
gdb 89904	4.31175	0.94818	0.9156	3.6806	81.05	-0.2394	0.029	0.2685	1356.1503	0.170928	-403.148183	-403.139263	-403.138319	-403.182228	33.617	
C	-0.1767070302	 1.5892355383	 0.1746075417	-0.402215
C	 0.011935471	 0.0809318376	 0.0697952685	 0.038084
C	 0.9960378628	-0.4876243124	-1.0153162006	-0.308538
C	 1.7637223256	-1.2230665549	 0.0931676579	 0.418728
C	 2.2773967706	-0.2515523426	 1.1066044252	-0.281486
C	 0.823948118	-0.6421333206	 1.1597238569	-0.147702
N	 2.2978716853	-2.5341539356	-0.0152041018	-0.398246
C	 3.6283464243	-2.8265459918	-0.1417268201	 0.132134
O	 4.5366980915	-2.0285449527	-0.1152473457	-0.310693
H	 0.7789313217	 2.1094343807	 0.2944179942	 0.118456
H	-0.6599467822	 1.9869544631	-0.7245251831	 0.114764
H	-0.8060776996	 1.8475814932	 1.0332801001	 0.11529
H	-0.9657281547	-0.3984410035	-0.0430461818	 0.072999
H	 0.4986923273	-1.1633364323	-1.7159893662	 0.096565
H	 1.5783133581	 0.2426513322	-1.5874260067	 0.103634
H	 2.8989642099	-0.6914729201	 1.8776602369	 0.128216
H	 2.5926035293	 0.7410446043	 0.7974659206	 0.113273
H	 0.4071507309	-1.1294914336	 2.033924608	 0.085558
H	 1.652425977	-3.3017793043	-0.1300895924	 0.242369
H	 3.7844556435	-3.9190775751	-0.2597456614	 0.068807
