19
gdb 119322	2.39051	1.07994	0.88385	2.4324	72.03	-0.2559	-0.0322	0.2237	1355.0923	0.156889	-460.136241	-460.12645	-460.125506	-460.172079	33.96	
O	-0.1278396654	 1.4376020477	 0.0380649515	-0.415311
C	 0.0175780617	 0.0316105905	 0.1323984505	-0.081861
C	-1.3572286559	-0.5844484429	-0.1107438556	-0.271575
C	-1.3669143503	-2.1100729176	-0.0084483373	 0.166946
C	-1.1854693039	-2.7601365953	 1.3804336831	-0.117801
O	-2.4698378006	-3.4146661648	 1.2951787867	-0.266633
C	-2.7780561634	-2.773671471	 0.0502098567	-0.12089
C	-0.52379611	-2.7284244563	-1.1030893676	 0.111113
O	 0.3541270927	-3.5360989877	-0.9412307859	-0.249319
H	 0.7292555723	 1.8429663436	 0.198791186	 0.290374
H	 0.7390245504	-0.3480352947	-0.6097196295	 0.098305
H	 0.3903749983	-0.2688859202	 1.1249767549	 0.09727
H	-2.0630476666	-0.1664110723	 0.6152432925	 0.119908
H	-1.708573939	-0.2755220342	-1.1039351697	 0.114611
H	-0.3603268459	-3.474783281	 1.4510983583	 0.130233
H	-1.1431643172	-2.052085983	 2.217566139	 0.098524
H	-3.603189825	-2.0541440109	 0.1382368852	 0.105528
H	-3.0151822204	-3.4941194759	-0.7433592411	 0.109976
H	-0.7979261217	-2.3769615238	-2.1263239777	 0.080602
