19
gdb 60578	3.64266	0.94821	0.86503	1.0465	72.03	-0.2599	0.0763	0.3362	1389.8671	0.15733	-460.114267	-460.105017	-460.104072	-460.149013	33.79	
C	 0.1638333155	 1.4507368359	-0.3922623157	-0.421297
C	-0.0425047142	 0.0397972063	 0.0931651764	 0.082072
O	 1.1198606879	-0.79176546	 0.241159906	-0.270253
C	 0.3566222017	-0.4761107581	 1.4109017602	 0.03572
C	 1.0619932327	 0.336868311	 2.4837124036	 0.049609
O	 0.1351336813	 0.7874408056	 3.4517746353	-0.435586
C	 2.1527565041	-0.5045887246	 3.1333695367	 0.060643
C	 2.6366940345	-0.2133938948	 4.4842801162	-0.187949
O	 1.6978498299	-1.278827068	 4.2546068692	-0.253349
H	 1.0158160667	 1.9319420382	 0.0915901825	 0.129076
H	 0.3467775821	 1.4514343834	-1.4717699528	 0.130324
H	-0.7316878633	 2.0515464144	-0.2019912701	 0.130773
H	-0.8766108025	-0.4778485684	-0.3854577248	 0.091207
H	-0.210892365	-1.3176108104	 1.8167369927	 0.093982
H	 1.5253246086	 1.2208590874	 2.0341137951	 0.097149
H	 0.0277408228	 0.0488287948	 4.0693045297	 0.293461
H	 2.7990511279	-1.0418192007	 2.4411032537	 0.120354
H	 3.632303434	-0.5368213636	 4.7804867568	 0.124058
H	 2.2339266552	 0.6436909118	 5.0183497093	 0.130007
