17
gdb 4060	4.98724	1.3279	1.18998	1.4832	73.82	-0.2265	0.0186	0.2451	1038.1594	0.141222	-363.797834	-363.790015	-363.789071	-363.829657	29.969	
C	 0.0337113435	 1.5154691631	 0.0442807412	-0.493116
C	 0.044665288	 0.0160725908	-0.0001948739	 0.354378
C	-0.8587340559	-0.85348001	 0.8126192047	-0.32358
C	 0.6424003436	-0.9944047872	 1.0181718894	-0.187559
C	 1.2210095996	-1.7479495714	-0.1208332957	 0.459012
C	 0.6200353696	-0.8177422794	-1.1696452266	-0.38411
N	 2.0592816614	-2.6983669013	-0.12974423	-0.27272
O	 2.4041022241	-3.0436244002	-1.4557878794	-0.398011
H	 1.0104901876	 1.930613944	-0.2279040712	 0.122558
H	-0.7066629184	 1.9244504143	-0.6540425684	 0.124568
H	-0.2209033631	 1.8798183737	 1.0446994703	 0.120899
H	-1.3707846365	-0.3586261964	 1.6328816892	 0.115616
H	-1.4263064394	-1.6613217816	 0.3573547636	 0.115134
H	 1.1052625555	-0.8297131137	 1.9830537993	 0.100194
H	-0.0988051202	-1.242892282	-1.8769021582	 0.115062
H	 1.4067241481	-0.3052700348	-1.7321018132	 0.127447
H	 3.0466952525	-3.7469657079	-1.317091231	 0.304227
