15
gdb 46648	2.45872	1.5749	1.43521	2.9361	69.19	-0.2616	-0.0474	0.2141	966.965	0.113611	-416.814787	-416.807374	-416.80643	-416.846953	27.827	
O	 0.0676636053	 0.028051172	 0.2037389127	-0.30254
C	-0.0386799509	 1.2055728542	-0.007466722	 0.428239
C	-1.3119901984	 1.9729724394	-0.3823611102	-0.364459
C	-0.8101691517	 3.323720558	-0.9276765497	-0.174894
N	 0.6473202678	 3.4628490085	-0.6159067896	-0.108957
C	 0.9718855562	 3.4294377576	 0.8152061655	-0.156595
C	-0.0376414372	 3.5621273302	 1.8363046843	 0.30823
N	-0.8446992625	 3.7164175991	 2.6505868967	-0.338199
C	 1.1026179719	 2.1940938434	-0.0369484636	-0.166233
H	-1.8751048123	 1.3959173145	-1.1188124054	 0.145619
H	-1.9406284421	 2.0696389015	 0.5075957873	 0.169973
H	-0.8865971318	 3.3638950415	-2.0164859007	 0.132545
H	-1.3463809161	 4.1833922852	-0.5203410338	 0.141085
H	 1.8947811812	 3.9475354654	 1.0625075202	 0.154546
H	 2.0960952106	 1.8288761397	-0.2746992017	 0.131642
