20
gdb 120231	3.19605	1.00226	0.85525	3.7201	78.98	-0.2438	-0.0114	0.2324	1419.6079	0.170423	-403.135425	-403.126379	-403.125435	-403.169872	33.257	
C	-0.0312588494	 1.5900358144	 0.0658952813	-0.384595
C	 0.0913559056	 0.0656437941	 0.0129703636	-0.166077
C	 0.6164994679	-0.4433108398	-1.3369434839	-0.20539
C	 0.7745692393	-1.962388788	-1.3636933918	-0.133351
C	 1.4215302175	-2.6907763565	-2.5471701416	-0.058726
C	 2.8660517963	-2.4393059333	-2.6364045454	-0.246113
N	 2.3955476664	-3.445920827	-1.6328361999	-0.172342
C	 1.8771249551	-2.6475868727	-0.5296817678	 0.392684
O	 2.2099869928	-2.6453266619	 0.614361448	-0.300094
H	 0.9402213021	 2.0714619783	-0.0922171527	 0.115706
H	-0.7140728913	 1.9626492007	-0.7061562025	 0.112441
H	-0.412165656	 1.9233508202	 1.0359532624	 0.116896
H	 0.7563103154	-0.2865240727	 0.8095586605	 0.129789
H	-0.8879035581	-0.3900545099	 0.2109587553	 0.095885
H	-0.068217142	-0.1427296399	-2.1411998066	 0.101313
H	 1.5778655686	 0.0368008258	-1.5579680362	 0.098369
H	-0.179253492	-2.4403488267	-1.1059651599	 0.114967
H	 0.8798675201	-3.2381740069	-3.3090705762	 0.112455
H	 3.4205070345	-2.9007184805	-3.4468916617	 0.141027
H	 3.2912784872	-1.5067870379	-2.2748393249	 0.135153
