15
gdb 48008	5.37768	0.71768	0.68655	4.4356	78.25	-0.2635	-0.0607	0.2028	1583.5598	0.110865	-420.556534	-420.548155	-420.547211	-420.591818	29.039	
O	-0.1251109649	-0.0520533324	 0.2299208573	-0.230307
C	-0.0392486342	 1.1487600785	 0.1061446838	 0.019002
C	 1.1999733116	 1.8791020282	 0.0550715787	-0.000737
C	 2.2189025518	 2.5271476972	 0.0051454638	 0.16072
C	 3.4453305041	 3.2893747086	-0.0608869946	-0.225654
C	 4.1530769061	 3.4525732116	-1.472210518	-0.263678
C	 4.0243588908	 4.9704278739	-1.3016109281	 0.037079
O	 2.6286277586	 5.2596944751	-1.1628833924	-0.229578
C	 3.3409363836	 4.8353749778	-0.0072260007	 0.023618
H	-0.9428450688	 1.7861802967	 0.0204695271	 0.10025
H	 4.165652407	 2.9185228936	 0.6749478988	 0.121545
H	 5.1795669775	 3.0826636969	-1.4526105626	 0.121738
H	 3.6184330935	 3.0360492922	-2.3268123467	 0.132221
H	 4.6600642133	 5.7579255943	-1.6870623122	 0.117181
H	 3.3110984899	 5.4696619879	 0.870635656	 0.1166
