20
gdb 97744	5.85414	0.68343	0.6647	1.7336	91.39	-0.2248	0.0335	0.2583	1780.3579	0.171338	-365.906389	-365.897543	-365.896599	-365.941586	32.646	
C	-0.5177468897	 1.5106114202	-0.1145282519	-0.364737
C	 0.323875457	 0.2549347219	 0.1773863485	-0.321733
C	 1.0098943779	-0.2632515777	-1.0012949795	 0.170038
C	 1.5631883984	-0.6801550524	-1.9882950259	 0.019302
C	 2.2329778927	-1.1372074893	-3.1858552279	-0.170694
C	 3.6037548395	-1.8723589356	-3.1227119646	-0.059116
C	 2.7971737588	-3.064279365	-2.569221449	-0.174899
N	 1.8859987804	-2.5684164672	-3.7125513354	-0.14734
C	 3.2022479788	-2.4297924227	-4.5009728673	-0.16736
H	 0.1108373418	 2.3202263485	-0.4952092384	 0.12793
H	-1.2845283029	 1.2981384713	-0.8642327706	 0.131414
H	-1.0125157389	 1.8577947728	 0.7973711904	 0.115016
H	 1.0620608827	 0.4802349997	 0.9580941677	 0.129432
H	-0.3206823071	-0.53068677	 0.5924262898	 0.132985
H	 2.1366722433	-0.3962811175	-3.9864266315	 0.094445
H	 4.5653477571	-1.4682314262	-2.7879819745	 0.068633
H	 3.1896857696	-4.0696868734	-2.7414778248	 0.098961
H	 2.3463951644	-2.9704365745	-1.5803319938	 0.11734
H	 3.1375361477	-1.7375808126	-5.3454667471	 0.099294
H	 3.6210035483	-3.3920590503	-4.8043320042	 0.101087
