23
gdb 83340	2.06147	1.606	1.45397	1.7539	84.93	-0.2318	0.0805	0.3123	1119.0695	0.205731	-388.281333	-388.272147	-388.271203	-388.314372	36.113	
C	-0.1843314306	 1.5879359671	 0.8842939153	-0.441238
C	-0.0839262722	 0.1039038215	 0.5687760312	-0.014308
C	 0.943722232	-0.3998430011	-0.4769660691	 0.071965
O	 2.1941583149	 0.1269032314	 0.0082019725	-0.280725
C	 2.120803641	-0.2075083768	 1.4130161465	-0.121799
C	 0.7439437572	-0.8860193961	 1.4761524533	 0.271295
C	 0.2590684904	-1.3872977385	 2.8150219176	-0.511634
C	 0.8814836062	-1.7973319915	 0.1950332799	 0.00061
C	-0.2556906597	-2.7505710485	-0.1486860042	-0.442288
H	 0.7955949277	 2.0704518293	 0.8610188338	 0.135637
H	-0.8191169212	 2.0957555291	 0.1500660686	 0.113595
H	-0.6301105585	 1.7559677314	 1.8715016283	 0.111333
H	-1.0761403114	-0.3112470902	 0.3828855754	 0.069767
H	 0.8676189415	-0.2281705402	-1.5506496511	 0.068939
H	 2.9411084733	-0.8830503533	 1.6863015633	 0.094121
H	 2.1948431584	 0.7001090453	 2.0241513782	 0.093369
H	 0.1371017608	-0.5616305912	 3.5258258044	 0.119476
H	-0.7073251291	-1.8942271507	 2.7269611287	 0.118967
H	 0.9687447801	-2.0976942757	 3.2555401132	 0.117121
H	 1.8349746596	-2.3336403854	 0.1307265731	 0.068355
H	-1.2441933175	-2.2851085057	-0.116946427	 0.119184
H	-0.1187543716	-3.1596667794	-1.1556841153	 0.119456
H	-0.269847161	-3.5974029308	 0.5465452136	 0.118802
