21
gdb 67471	2.4495	1.63315	1.51675	1.376	80.78	-0.2388	0.074	0.3128	1023.2668	0.185403	-387.074035	-387.066359	-387.065415	-387.105621	31.744	
O	-0.0347164522	 1.4064138074	-0.0302397611	-0.46752
C	 0.0004176079	 0.0207045802	-0.0200362822	 0.372467
C	-1.172679741	-0.9423285638	 0.0632909791	-0.12972
C	-0.6549292103	-1.7125848557	-1.1523619047	-0.244561
C	 0.65139738	-0.8410860921	-1.1292981154	-0.075491
C	 1.9397800027	-1.5471425236	-0.6945211111	-0.21487
C	 1.6862710099	-2.4937351207	 0.4918860838	-0.201686
C	 0.9054551302	-1.8272995511	 1.6439299129	-0.223213
C	-0.1535740959	-0.8258010135	 1.2015691764	-0.091504
H	 0.6993827506	 1.7346208729	 0.4998616268	 0.282571
H	-2.2140836143	-0.7172218626	 0.2623398382	 0.085488
H	-0.5478800045	-2.7969173048	-1.0654481638	 0.092269
H	-1.2550431088	-1.4974555526	-2.0402498555	 0.101289
H	 0.7917649708	-0.277644966	-2.0542425842	 0.073259
H	 2.3696533178	-2.1151996684	-1.5282222466	 0.091894
H	 2.6859309774	-0.7876764632	-0.4205250729	 0.086396
H	 1.133590552	-3.3687467614	 0.1351626012	 0.104947
H	 2.6375797195	-2.8786912217	 0.8745433078	 0.088573
H	 0.4591693711	-2.5997330286	 2.2822227344	 0.095995
H	 1.6131386348	-1.2821953973	 2.2846444574	 0.091411
H	-0.5942199077	-0.2676041535	 2.0263722995	 0.082005
