19
gdb 110956	2.80011	1.22056	1.02318	3.0088	76.8	-0.2494	-0.006	0.2435	1246.5991	0.156592	-422.982263	-422.973037	-422.972093	-423.016347	33.909	
C	 0.0315584224	 1.5440074821	-0.1741218475	-0.383521
C	-0.0325743633	 0.0620749564	 0.2129980136	-0.221853
C	-1.4460858152	-0.5003776161	 0.1470460601	-0.016588
C	-2.0156113027	-0.8882567306	-1.2474306278	-0.091802
O	-1.1165725846	-2.0716317482	-1.2607075405	-0.335088
C	-1.6151445266	-2.0557737437	 0.1564962442	 0.24398
C	-1.1130494378	-3.087289352	 1.1102700395	-0.525332
C	-2.9964425026	-1.8422996744	-0.5240290556	 0.447775
O	-4.1026249193	-2.2716950713	-0.5602492461	-0.317894
H	 1.0535130542	 1.9257928922	-0.0919916819	 0.119018
H	-0.2991785935	 1.7001334412	-1.2063042885	 0.11978
H	-0.6056655359	 2.1551160234	 0.4746525454	 0.11672
H	 0.6160612714	-0.5283365805	-0.4400523892	 0.121451
H	 0.3448416532	-0.0636930848	 1.2359222658	 0.09995
H	-2.1403201255	 0.0460042886	 0.7974070165	 0.083796
H	-2.0973643132	-0.3096557977	-2.1647299968	 0.111014
H	-0.0400044867	-2.9718665129	 1.2903377268	 0.138969
H	-1.6371080205	-2.9926944745	 2.0663918672	 0.140281
H	-1.2965836937	-4.0907478873	 0.7162127548	 0.149344
