19
gdb 77420	1.93583	1.65006	1.61525	0.9439	74.9	-0.2222	0.0607	0.2829	1037.7096	0.155999	-422.939653	-422.930392	-422.929448	-422.973512	34.779	
C	-0.0418650028	 1.6236204062	 0.0388828964	-0.407879
C	 0.1569840419	 0.1115179733	-0.035741857	-0.126027
C	 0.688338927	-0.7434436955	-1.1798212499	 0.213871
C	-0.0845192205	-1.8394771555	-1.8542000247	-0.494694
C	 1.9889585364	-0.1430881323	-1.8150841068	-0.028946
O	 2.3568640805	 1.0888495362	-1.1698308984	-0.240263
C	 2.6773423632	-0.1522918422	-0.5311587255	-0.058982
C	 1.3989232292	-0.7257288226	 0.1691063187	 0.282365
O	 1.4826607872	-1.7727213517	 1.0701676039	-0.456775
H	 0.6764005306	 2.0960001697	 0.7139589695	 0.119747
H	 0.0712553064	 2.1013159835	-0.9346083547	 0.131784
H	-1.0475975334	 1.8459819064	 0.4113241413	 0.09891
H	-0.6651558208	-0.4412459217	 0.4212916987	 0.092851
H	-0.7120527055	-1.4488973039	-2.6645384267	 0.120634
H	 0.5843075389	-2.593146249	-2.2862720193	 0.120538
H	-0.7371176633	-2.350164271	-1.1398720811	 0.129272
H	 2.3479480304	-0.3085107922	-2.8243344461	 0.105927
H	 3.7084633218	-0.3513449788	-0.2625940552	 0.109861
H	 1.5040081528	-1.405987319	 1.9615897867	 0.287805
