19
gdb 34681	4.3173	1.07831	1.07277	1.1001	86.	-0.2402	0.0496	0.2898	1203.0998	0.159621	-348.664774	-348.657125	-348.656181	-348.696617	31.241	
C	-0.0455413992	-1.1039459095	-0.0462976863	-0.399451
C	-0.0005309107	 0.0973298075	 0.0012571732	 0.267499
C	 0.0480691213	 1.5311734023	 0.0546702912	-0.233998
C	 0.5758818807	 2.1521189037	 1.3364023951	-0.065375
C	 1.4257528588	 2.1705449918	 0.0685688858	-0.065377
C	 1.3549781378	 3.7140594281	 0.0248426117	-0.0316
C	 0.1960001987	 4.4150195472	-0.7470890636	-0.242285
C	-0.676026453	 4.39607975	 0.5537165479	-0.242289
C	 0.4877651119	 3.6952534802	 1.3184941356	-0.031598
H	-0.0888790125	-2.1635983726	-0.0907043813	 0.189064
H	-0.7615281476	 2.0175376743	-0.4809579334	 0.110488
H	 0.6790797494	 1.5380345049	 2.2225451177	 0.097731
H	 2.2927995555	 1.5730209399	-0.1847953107	 0.09773
H	 2.3315661491	 4.1982851393	 0.0096814978	 0.071297
H	 0.45298646	 5.4241784193	-1.0772961864	 0.099195
H	-0.2031037361	 3.8710437885	-1.6072317583	 0.104238
H	-0.8973919928	 5.3948512894	 0.9370342261	 0.099194
H	-1.6158869368	 3.8403429013	 0.5002445363	 0.10424
H	 0.8383187655	 4.1659122541	 2.2372003516	 0.071297
