18
gdb 26276	3.50533	1.1789	0.9336	2.8514	80.48	-0.2464	-0.0236	0.2228	1248.5724	0.149286	-402.006205	-401.997963	-401.997019	-402.03972	31.177	
C	 0.1776900137	 1.3486349378	-0.4280202678	-0.403386
C	 0.0238176633	-0.0570356867	 0.1663447703	 0.029682
O	 0.557413068	-0.1073267574	 1.4820997167	-0.416626
C	-1.4124503878	-0.5636487744	 0.0998096667	 0.218882
C	-2.0914560551	-0.9886919618	 1.2438159937	-0.067962
N	-3.352278825	-1.4340629837	 1.2538701211	-0.266269
C	-3.994011244	-1.4849059912	 0.086215275	 0.000059
C	-3.4124853621	-1.1074740211	-1.1220432285	-0.11528
C	-2.1049366388	-0.6408527065	-1.1110295961	-0.154293
H	 1.2229210228	 1.6627240812	-0.3643838288	 0.128693
H	-0.1323400021	 1.3847518585	-1.4758998374	 0.123139
H	-0.4399568474	 2.0668419522	 0.1245549593	 0.115824
H	 0.6554406075	-0.7486075994	-0.4063085645	 0.108582
H	 0.1632199613	 0.6117986497	 1.9888397606	 0.281632
H	-1.5786547987	-0.9809968061	 2.2003493261	 0.109869
H	-5.0184574078	-1.8490731328	 0.114601202	 0.10708
H	-3.9735257362	-1.1791723163	-2.0474221878	 0.100776
H	-1.6253455018	-0.345473802	-2.0397515507	 0.099597
