15
gdb 42619	2.84935	1.97344	1.4404	3.9634	70.2	-0.2451	-0.0706	0.1746	889.8541	0.114732	-416.781635	-416.775147	-416.774203	-416.812501	25.859	
N	-0.0685683856	 1.2824314159	 0.0660664702	-0.476127
C	-0.0174039357	 0.0222062388	 0.0089692584	 0.261359
N	-1.1592696807	-0.8234134124	-0.0478885897	-0.122791
C	-1.2581818685	-1.7711366672	-1.1903112046	-0.042531
C	 0.0943383009	-2.0240394685	-1.8665066728	-0.259028
C	 0.7295278503	-2.2102630128	-0.4311341507	-0.191875
C	-0.7257330801	-2.22054344	 0.1221523477	-0.064772
C	 1.2432776604	-0.8487990709	-0.0185773596	 0.373524
O	 2.3639821467	-0.4598387955	 0.1770854349	-0.318285
H	 0.8922838447	 1.6348472635	 0.1440837865	 0.243176
H	-2.2405056886	-1.8846509648	-1.6312876305	 0.117191
H	 0.090474259	-2.9760910765	-2.4009552495	 0.131278
H	 0.509626277	-1.2458539194	-2.5137204439	 0.125548
H	 1.4047056549	-3.0474838978	-0.2806743418	 0.10688
H	-1.1447005847	-2.8191696922	 0.9207021856	 0.116453
