17
gdb 46631	3.03937	1.67114	1.10733	3.5217	76.15	-0.2002	0.0201	0.2203	1056.0688	0.139591	-418.068375	-418.060951	-418.060007	-418.100471	28.263	
O	 0.0405037328	-0.0555566194	 0.0339671248	-0.413942
C	 0.0240470084	 1.1539524732	 0.0452533566	 0.447412
N	-1.0811176268	 1.9844867703	-0.1440616525	-0.371358
C	-0.763645332	 3.3973352912	 0.0664409603	-0.28629
C	 0.7419874853	 3.3475520353	 0.0462806433	 0.407291
C	 1.7965571617	 4.1384941154	-0.1438646395	-0.302611
C	 3.0605833192	 3.2936559059	-0.0429667862	-0.261181
C	 2.5248089919	 1.8242681417	-0.0210269315	-0.177793
N	 1.0976064072	 2.009750887	 0.238805242	-0.139848
H	-1.988755934	 1.6102135793	 0.0788135235	 0.254907
H	-1.172105946	 4.035708988	-0.723610858	 0.134029
H	-1.1387963384	 3.7703662412	 1.0310961759	 0.126612
H	 1.7847905782	 5.2063544294	-0.301364314	 0.099783
H	 3.7494850183	 3.4567723548	-0.8781438748	 0.114581
H	 3.6221073813	 3.5189484824	 0.8731905632	 0.11475
H	 2.6690477789	 1.3216653996	-0.9846670819	 0.124991
H	 2.9910659939	 1.2106832447	 0.7521835087	 0.128667
