18
gdb 75151	3.25501	1.07701	1.03916	3.569	78.68	-0.2486	0.0143	0.2629	1241.4337	0.146639	-401.980382	-401.971407	-401.970463	-402.013973	33.629	
C	 0.4588787439	 1.4713426886	 0.0828849087	-0.498212
C	 0.0634016871	 0.0342721232	-0.0329025835	 0.336021
C	 0.1224567638	-0.743474683	-1.1145720246	-0.167063
C	-0.3981284193	-2.1338398091	-0.865770646	-0.299136
C	-0.4939083588	-2.1991186079	 0.6913293045	 0.237044
O	 0.6745235329	-2.7709976688	 1.2638719202	-0.448765
C	-0.5129795713	-0.7163458653	 1.1475425678	-0.324324
C	-1.6831887131	-2.9517791869	 1.1396213739	 0.232246
N	-2.599672441	-3.5682121254	 1.4807025886	-0.34506
H	 1.2387185226	 1.6059227387	 0.8427856041	 0.132923
H	 0.8351725169	 1.862377707	-0.8658920655	 0.127932
H	-0.3905243024	 2.0922292458	 0.3950225535	 0.130167
H	 0.4781506896	-0.4256469619	-2.0883504681	 0.094996
H	-1.3767824448	-2.2960492324	-1.335375618	 0.12931
H	 0.2641490874	-2.9277223201	-1.2316402	 0.110078
H	 0.7469363812	-3.6829276013	 0.9592672952	 0.289751
H	 0.0786170069	-0.6194240747	 2.0636026401	 0.134065
H	-1.5299558516	-0.3774230664	 1.379574369	 0.128027
