21
gdb 82097	2.8403	1.29629	1.04104	1.6697	82.03	-0.2458	0.09	0.3358	1226.1931	0.182195	-387.038585	-387.029957	-387.029013	-387.072109	33.246	
C	-0.2276797212	 1.4779633302	 0.0248957248	-0.406442
C	 0.0265533793	-0.0218111743	 0.0824884484	-0.03402
C	 0.983226526	-0.6145101992	-0.9640967781	 0.020407
O	 2.2800357481	-0.0482196834	-0.7277688621	-0.251131
C	 1.8691161718	-1.1684895094	 0.0690624644	 0.009942
C	 0.9877135086	-0.6206424921	 1.2051287869	-0.050703
C	 1.6456940758	 0.2946548242	 2.2005062499	 0.034202
C	 0.9549758106	 0.6394504952	 3.4976664281	-0.271384
C	 2.1670330919	-0.2575692248	 3.5064177804	-0.281047
H	 0.7114204666	 2.0268847721	-0.0820398535	 0.132045
H	-0.8657421448	 1.7299198328	-0.8294744549	 0.109262
H	-0.7286410609	 1.8300916314	 0.9319298092	 0.118637
H	-0.9201547359	-0.571998966	 0.0894215688	 0.072816
H	 0.7736903782	-0.9551212944	-1.9720374872	 0.098133
H	 2.5132619003	-2.0407465219	 0.0585644261	 0.098636
H	 0.4754545197	-1.4364135247	 1.7272013061	 0.067339
H	 2.2403159927	 1.0821707065	 1.7494976135	 0.096139
H	 1.055345331	 1.6477678925	 3.8839091924	 0.111091
H	-0.0108594829	 0.1847798154	 3.6946126392	 0.106898
H	 2.0145574834	-1.312917082	 3.7095188932	 0.107101
H	 3.0986955918	 0.1370818016	 3.8962048246	 0.112079
