21
gdb 52774	2.42358	1.21467	0.93577	0.0801	92.24	-0.225	0.0614	0.2864	1367.0017	0.181316	-349.909599	-349.899887	-349.898943	-349.945355	35.712	
C	-0.0338423286	 1.4636656927	-0.0148847614	-0.502941
C	-0.0403664108	 0.0073524366	 0.0095265572	 0.100237
C	-0.0430005528	-1.1983653097	 0.0283934223	-0.016949
C	-0.0167647149	-2.6404203886	 0.0290419203	 0.170178
C	 1.1310140668	-3.2490960869	-0.7686005466	-0.465118
C	-0.4243401307	-3.438635731	 1.2577649915	-0.087175
C	-1.5283092233	-2.7278178084	 2.0474098757	-0.241482
C	-2.4276170253	-2.743592492	 0.7657481486	-0.241408
C	-1.3013935877	-3.4544360213	 0.008178596	-0.087154
H	 0.9892267692	 1.8561526608	-0.0321176365	 0.146093
H	-0.5520220733	 1.8539291191	-0.8982758097	 0.144996
H	-0.530124023	 1.8792951136	 0.8692235566	 0.146079
H	 2.0973728093	-2.9261455638	-0.3692359858	 0.124072
H	 1.0933742136	-4.3425841319	-0.7287465883	 0.112778
H	 1.0808897345	-2.9438488715	-1.8183252803	 0.124165
H	 0.2393344711	-4.2043809239	 1.6440030509	 0.081565
H	-1.9389583502	-3.3475383502	 2.8473751729	 0.099226
H	-1.2673730957	-1.7465214959	 2.4529824263	 0.106045
H	-3.3126263753	-3.3712076306	 0.8901022007	 0.099158
H	-2.7307831933	-1.7719930746	 0.366279034	 0.106047
H	-1.4298804495	-4.2343682625	-0.7342496346	 0.081586
