20
gdb 18521	5.46278	1.07135	1.02574	1.5024	75.02	-0.2319	0.0891	0.321	1237.0705	0.176743	-348.966482	-348.958286	-348.957342	-348.999455	30.782	
C	-0.0946351814	 1.5266173881	 0.0454676043	-0.382716
C	-0.0876417447	 0.0061153104	-0.1293604315	-0.159358
C	 0.9148884617	-0.4712560624	-1.1877921335	-0.193891
C	 0.9084574237	-1.9783219823	-1.3605444436	 0.141759
O	-0.3832791203	-2.5200441457	-1.7899754488	-0.307974
C	 0.2609540429	-3.2577660813	-2.8303093788	 0.113848
C	 0.8773509882	-2.3396103022	-3.8349818481	-0.297601
C	 1.6118679516	-2.6489982867	-2.5431981948	-0.156627
H	 0.889706985	 1.896442102	 0.3544801515	 0.110754
H	-0.3569540835	 2.0317556444	-0.8908525728	 0.114079
H	-0.8198128961	 1.8369339256	 0.8042353808	 0.11194
H	 0.1437854999	-0.473509339	 0.8310781428	 0.091885
H	-1.0865854232	-0.3433180649	-0.413323182	 0.11919
H	 0.6956929071	 0.0100395479	-2.1482642667	 0.096288
H	 1.9327308286	-0.1664664192	-0.9062619944	 0.093644
H	 1.1883511619	-2.4676785098	-0.4170433579	 0.07733
H	-0.0658668771	-4.2753065605	-3.0100209238	 0.101813
H	 1.3040648754	-2.8213821475	-4.7095922906	 0.113061
H	 0.4321879392	-1.3662813266	-4.0182640502	 0.116065
H	 2.5967583911	-3.0949797801	-2.519141812	 0.096511
