20
gdb 63191	3.17811	1.58402	1.50828	0.7729	85.11	-0.2071	-0.0415	0.1656	994.6196	0.170034	-365.894233	-365.886285	-365.88534	-365.925932	32.549	
C	 0.0940712509	 1.5020924227	-0.1417603737	-0.428041
C	-0.0353927321	-0.0212691286	-0.0608889817	 0.296311
C	-1.5026145165	-0.4505712784	 0.0425599753	-0.413876
C	 0.7930906701	-0.6601825715	-1.1885331508	-0.142811
C	 1.5778545994	-1.6142764793	-0.6547270938	 0.006432
C	 2.9542208481	-1.1189593799	-0.1898201593	-0.271409
C	 2.163776004	-0.8576500007	 1.1646056657	-0.056137
C	 1.1374875059	-1.8587773575	 0.8108555109	-0.087404
N	 0.667351461	-0.5406325553	 1.1682803614	-0.131406
H	 1.1412979481	 1.8059954989	-0.2337151367	 0.117889
H	-0.4570142074	 1.8999617013	-0.999243466	 0.116393
H	-0.3094979819	 1.950243658	 0.7711594216	 0.129096
H	-2.0489473116	-0.1394766929	-0.8531887122	 0.1143
H	-1.5835845903	-1.5377469609	 0.127761135	 0.119933
H	-1.9798825448	-0.0000633814	 0.9180306558	 0.121499
H	 1.1069974822	-0.0516999726	-2.0332312963	 0.096412
H	 3.7163660121	-1.8788085607	 0.0186849923	 0.111196
H	 3.3931081842	-0.2833448621	-0.7407656518	 0.105665
H	 2.6444378113	-0.7003055261	 2.1245595707	 0.105927
H	 0.8244710573	-2.7739058531	 1.2991131735	 0.090031
