19
gdb 114877	2.93364	1.32171	1.23114	2.6759	70.14	-0.2463	0.0685	0.3148	1101.4787	0.160043	-460.147106	-460.13897	-460.138026	-460.180546	30.831	
O	 0.4394518083	 0.9807592101	-0.6809608895	-0.41844
C	-0.3955407863	 0.5890963389	 0.387994665	-0.079916
C	-1.4004400507	-0.4651568203	-0.0814073462	 0.169369
O	-2.2960161656	-0.8482447737	 0.9405605408	-0.266996
C	-3.5727045312	-0.2916725803	 0.6869585291	 0.090871
C	-3.8523563645	 1.1217572333	 1.2764960569	-0.251232
C	-3.7534794847	 1.7335228926	-0.1545201558	-0.254127
C	-3.4806911007	 0.3155846514	-0.7370927348	 0.090205
O	-2.1614147266	 0.0420736104	-1.1744428031	-0.286479
H	-0.1501516364	 1.1987423727	-1.4131867642	 0.289021
H	 0.244542369	 0.1609327686	 1.1656182193	 0.116188
H	-0.9371257913	 1.4411983919	 0.8280237858	 0.084917
H	-0.8614422862	-1.3532277569	-0.4369991072	 0.098816
H	-4.3265967673	-1.0563091107	 0.8871199034	 0.087703
H	-4.8356078074	 1.2182303467	 1.7424958415	 0.106987
H	-3.0952750429	 1.4503148023	 1.9907958324	 0.115142
H	-4.6771356076	 2.1895362964	-0.5181725489	 0.107886
H	-2.9333012002	 2.4351381541	-0.3182914162	 0.111404
H	-4.1747145977	-0.0327323373	-1.5051751382	 0.08868
