16
gdb 44147	3.09018	1.40206	1.238	3.6508	69.18	-0.2427	-0.0226	0.22	1034.3913	0.12375	-437.816644	-437.809081	-437.808137	-437.849436	28.375	
O	-0.372890283	 0.1382450468	 0.0378712421	-0.301992
C	-0.1998029079	 1.3182811707	 0.1209107684	 0.424024
C	-1.1046953219	 2.5572094409	 0.0400885887	-0.289776
N	 0.1172441517	 3.4376103296	-0.130671803	-0.157452
C	 0.9749834906	 3.300172179	 1.0424998618	-0.020455
C	 0.6017853159	 3.1899543959	 2.4932254715	 0.059881
C	-0.4458239071	 4.0107017041	 3.1157984799	-0.185766
O	-0.6268046623	 2.6040952851	 2.9053425909	-0.224119
C	 1.0206927956	 2.1970316063	 0.0355702297	-0.202775
H	-1.6726826761	 2.5574395289	-0.894703109	 0.139557
H	-1.7536266686	 2.7887986438	 0.8807967379	 0.151934
H	 1.8343943951	 3.9667375661	 0.946898004	 0.117749
H	 1.4548952862	 2.9071723186	 3.1137500485	 0.109013
H	-0.3512364484	 4.3155316913	 4.1558652828	 0.128879
H	-1.056949025	 4.6562796792	 2.4873933363	 0.129068
H	 1.8990204152	 2.0116561738	-0.5739364806	 0.122232
