17
gdb 9115	6.37427	0.83772	0.77379	2.7991	70.54	-0.2576	-0.039	0.2186	1455.9166	0.138007	-401.001969	-400.992378	-400.991434	-401.037474	32.074	
C	 0.0785319698	 1.4222450323	 0.1327248471	-0.316918
N	 0.053636768	-0.0253714708	 0.1204959908	-0.204091
C	 0.5278448663	-0.6060066006	-0.8855909833	 0.135436
O	 0.5057307309	-1.9554367041	-0.9785215912	-0.2156
C	 1.1962222798	-2.5453314387	-2.0776114346	 0.016936
C	 2.6428516193	-2.8846079947	-1.73934867	-0.393276
C	 0.3817516363	-3.7726338721	-2.4810801465	 0.14967
O	 0.8361943018	-4.7025442465	-3.0913130861	-0.238795
H	 0.538569315	 1.8713259949	-0.7628307811	 0.097118
H	-0.9439436056	 1.8059762568	 0.2226233087	 0.131777
H	 0.6275868487	 1.7714787907	 1.0142524352	 0.131561
H	 0.9729155395	-0.1014373588	-1.7590188654	 0.075683
H	 1.1614101422	-1.860848568	-2.9423517836	 0.111483
H	 3.0794220313	-3.461918343	-2.5574806587	 0.148032
H	 3.2298716733	-1.9755412153	-1.5853799582	 0.123522
H	 2.6828903367	-3.4856496922	-0.8271819242	 0.143128
H	-0.6837233933	-3.7198391602	-2.170194879	 0.104334
