16
gdb 66048	2.45122	1.33671	1.11207	2.4024	78.08	-0.2351	0.0159	0.2511	1143.8133	0.121044	-400.638792	-400.629498	-400.628554	-400.672655	34.59	
O	 0.0199120731	 1.427603733	-0.0450454738	-0.446467
C	 0.0508310093	 0.0189637141	-0.0072713788	 0.245801
C	 0.1697250946	-0.5696194627	 1.4361525928	-0.223417
N	-1.3038481354	-0.6656258541	 1.5042162981	-0.307887
C	-1.4225877525	-0.5480685668	 0.028286207	-0.253531
C	-2.5012752642	 0.280434071	-0.473965122	 0.392439
C	-3.4091031361	 0.9371063853	-0.9078014024	-0.437052
C	 0.9417381197	-0.5329731794	-1.0156865738	 0.274432
C	 1.7047283607	-0.9663625045	-1.8380478821	-0.474909
H	 0.9235419678	 1.7385294245	-0.1653817192	 0.287934
H	 0.7063494076	-1.5266078323	 1.4513692059	 0.102096
H	 0.6092478583	 0.1138766316	 2.169279426	 0.113682
H	-1.6684554589	-1.5311491045	 1.8853450704	 0.224387
H	-1.4349621933	-1.5177664198	-0.4888525471	 0.102352
H	-4.2038427335	 1.5344356715	-1.2808228209	 0.196024
H	 2.3691867429	-1.3524694968	-2.5714851399	 0.204115
