18
gdb 16155	4.23242	1.62911	1.38139	1.3515	72.58	-0.2248	0.0243	0.2491	932.6105	0.154712	-347.795505	-347.78808	-347.787136	-347.827054	28.885	
O	-0.0495896269	 1.34312387	 0.4309355362	-0.422363
C	-0.0112547687	-0.0042144063	-0.0297343147	-0.183007
C	-1.4162055111	-0.5324516809	-0.0564567671	 0.380666
C	-2.0025928867	-1.1156058304	 1.2036607898	-0.309356
C	-1.7111421621	-2.0258643107	 0.0249849627	-0.137158
C	-2.8598475524	-2.2505250083	-0.9001696316	-0.070724
C	-3.2641761454	-1.1133927488	-1.4712788503	-0.085292
C	-2.4009726578	 0.0641800405	-1.0692626555	-0.322215
H	 0.8328560251	 1.7148770707	 0.339348756	 0.284977
H	 0.4245160212	-0.0571157621	-1.041109142	 0.083421
H	 0.6104971669	-0.6322974556	 0.6289397482	 0.079296
H	-1.3420877535	-1.1773477935	 2.0630479098	 0.108461
H	-3.0424445402	-0.9180454453	 1.4434305935	 0.109929
H	-0.9235612043	-2.7670277603	 0.1166905165	 0.081594
H	-3.3168147938	-3.2236898156	-1.0400754963	 0.092733
H	-4.1169755253	-1.0118419765	-2.1331847017	 0.090508
H	-2.9860071359	 0.887150443	-0.6419105059	 0.116863
H	-1.8696553692	 0.48709641	-1.9338108376	 0.101667
