16
gdb 56449	2.46143	1.30205	0.98526	6.1717	71.52	-0.2711	-0.0169	0.2541	1201.902	0.123699	-434.042066	-434.033225	-434.032281	-434.076576	31.606	
O	 1.1110847872	 1.3889685638	-0.5049803379	-0.408951
C	 0.272794686	 0.4786927534	 0.1345475667	-0.025711
C	-0.0970703902	-0.6439272143	-0.7605221163	 0.271361
N	-0.4044832292	-1.5021724567	-1.469662355	-0.323481
C	 0.929339506	-0.0704710978	 1.4138917783	 0.318911
N	 2.1254669189	 0.3005960791	 1.6274000775	-0.526292
N	 0.1748334813	-0.9788569864	 2.1308785711	-0.070868
C	-1.1040052286	-0.69153369	 2.760669651	-0.232033
C	 0.1096045238	-1.0206323089	 3.5765022432	-0.236428
H	 1.9652571059	 1.3032429458	-0.0400912052	 0.304974
H	-0.6672479371	 0.977484764	 0.4170298601	 0.130355
H	 2.5232679005	-0.0930406953	 2.478827685	 0.233327
H	-1.4449429651	 0.3409884618	 2.7765587786	 0.13851
H	-1.8800857718	-1.4347646129	 2.6075709248	 0.148848
H	 0.2128211786	-2.0031965586	 4.0262719893	 0.143625
H	 0.5777455137	-0.205182257	 4.1240931687	 0.133855
