23
gdb 75573	2.34686	1.42575	1.06814	0.1653	95.13	-0.2132	-0.0011	0.212	1265.7711	0.20673	-351.182937	-351.173673	-351.172729	-351.216262	36.259	
C	-0.1978526868	 1.5045641569	 0.0411920247	-0.491534
C	-0.039639611	 0.0026830783	 0.0022016134	 0.245096
C	 0.0001140271	-0.6670683699	-1.1627036206	-0.147411
C	 0.0426675183	-2.1715810526	-1.2708862729	-0.246861
C	 1.3754628994	-2.817272433	-0.8310165822	-0.180784
C	 1.9594032661	-2.1193253384	 0.4174337679	-0.246861
C	 0.9402192478	-1.7188162299	 1.4556674466	-0.147411
C	 0.0517794202	-0.7231446031	 1.2929893701	 0.245097
C	-0.8651903552	-0.2958542422	 2.4149474991	-0.491534
H	 0.605828442	 1.9798827072	 0.6170491765	 0.122508
H	-0.1879189	 1.925243649	-0.9677804121	 0.118563
H	-1.1408398068	 1.8003024552	 0.5166992256	 0.124489
H	-0.0495380281	-0.0988824946	-2.0895030346	 0.075903
H	-0.7435645828	-2.580622332	-0.6239444697	 0.108648
H	-0.1967245909	-2.4822207537	-2.2929700803	 0.089319
H	 1.1971088695	-3.8820055005	-0.6361510383	 0.091671
H	 2.1189340768	-2.7665059	-1.6360710609	 0.091671
H	 2.7267514535	-2.7559689289	 0.8694545246	 0.089319
H	 2.4667783935	-1.2099468451	 0.0715864101	 0.108648
H	 0.9644597564	-2.2414280205	 2.4098932805	 0.075903
H	-0.7472362609	-0.9462162568	 3.285700938	 0.118563
H	-0.6600760557	 0.7324591357	 2.7363418605	 0.12449
H	-1.9180462924	-0.3239585213	 2.108116624	 0.122507
