18
gdb 16572	2.97685	2.58299	2.11623	2.1224	65.23	-0.2498	0.077	0.3268	750.2047	0.158073	-384.960439	-384.954366	-384.953422	-384.990312	25.156	
C	-0.0387428295	 1.5815385512	-0.0542547207	-0.232587
C	 1.4655994676	 1.96129757	-0.0566751453	-0.255265
C	 2.1673042717	 0.5853779868	 0.0201519442	 0.196493
O	 1.2530735006	-0.2959281486	-0.6004952693	-0.250873
C	 0.0059775289	 0.036446429	 0.0311163348	 0.088661
C	 0.082574795	-0.4888261386	 1.471724013	-0.217653
C	 1.2891415822	 0.1524661951	 2.176079488	-0.080198
O	 2.4450441625	 0.1728415534	 1.3419878693	-0.25857
H	-0.5898001585	 2.0266385714	 0.7784612237	 0.102102
H	-0.5267929721	 1.8935265083	-0.9801101339	 0.108436
H	 1.7482066525	 2.4601157301	-0.986190484	 0.109513
H	 1.7588326311	 2.6083450928	 0.7728961275	 0.112601
H	 3.1173239158	 0.5259700036	-0.5125929972	 0.08803
H	-0.7920363246	-0.4513371743	-0.5326033647	 0.077502
H	-0.8357976854	-0.2720973465	 2.0290428062	 0.094971
H	 0.2084422484	-1.5752347497	 1.4302384757	 0.113059
H	 1.0379259628	 1.1754504864	 2.4976187784	 0.091817
H	 1.5716619209	-0.4075610004	 3.0713922143	 0.111962
