21
gdb 58365	2.08208	1.15679	0.9024	0.1571	90.28	-0.2586	0.0385	0.2971	1398.7148	0.178501	-349.896773	-349.885934	-349.884989	-349.932574	40.065	
C	 0.8093680728	-0.3836741806	-1.3088782781	-0.398461
C	-0.0658382215	-0.1333912279	-0.0745313866	 0.034991
C	-1.4698578452	-0.7210332204	-0.2649565074	-0.398374
C	 0.6422892514	-0.6501976952	 1.2115223196	-0.173975
C	-0.0695917072	-0.2182551773	 2.5299721391	-0.37406
C	-0.1773175277	 1.2271605158	 2.6797967048	 0.308619
C	-0.2499496692	 2.4216831838	 2.7959303673	-0.451935
C	 0.8170121156	-2.1016793873	 1.2095328599	 0.341121
C	 0.9436099387	-3.2976230962	 1.2278435586	-0.471105
H	 0.9574824563	-1.4558705422	-1.4748175194	 0.12717
H	 0.3412580593	 0.0348448421	-2.2054073914	 0.110888
H	 1.7964884299	 0.0784347421	-1.1996107781	 0.109696
H	-0.1625319856	 0.9502788165	 0.0621620531	 0.0931
H	-1.4311520141	-1.8119547241	-0.3501983752	 0.126624
H	-2.1391021714	-0.4686293554	 0.5631317978	 0.115185
H	-1.9228921699	-0.3276896331	-1.1803414028	 0.1125
H	 1.639400464	-0.1903706521	 1.2295715707	 0.11234
H	-1.0638277331	-0.6760209441	 2.5732388634	 0.142226
H	 0.4915204882	-0.6334418023	 3.3745437648	 0.1414
H	-0.3216112811	 3.4750588291	 2.9087950756	 0.196564
H	 1.0695434699	-4.3520500712	 1.2374016344	 0.195487
