18
gdb 54692	3.34658	1.14845	0.88687	16.7971	77.95	-0.1596	-0.0305	0.129	1272.0164	0.15039	-439.055918	-439.047747	-439.046802	-439.089393	30.52	
O	 0.0047732212	-0.0729084629	 0.0256384681	-0.467084
C	 0.075749091	 1.1628095267	-0.0214549523	 0.312652
O	 1.0305117521	 1.9615272032	-0.0931690606	-0.481698
C	-1.3104536778	 1.8961469361	-0.0017519099	 0.152782
C	-2.4534732869	 1.2101281482	-0.0557553033	-0.146283
C	-3.8117991532	 1.8339821344	-0.029641866	-0.268351
N	-3.6879737837	 3.2730778707	 0.4422470564	-0.24602
H	-4.5850780185	 3.7530908655	 0.362164207	 0.304269
H	-3.429113209	 3.2540295856	 1.4316171042	 0.315076
C	-2.596933379	 4.0307657835	-0.3049487087	-0.22971
C	-1.260339715	 3.4005535379	 0.0458442858	-0.290798
H	-2.3886663449	 0.1264182361	-0.1022247037	 0.133536
H	-4.3118243374	 1.8817537713	-1.0061226847	 0.153912
H	-4.4990607997	 1.3425529132	 0.668541144	 0.1499
H	-2.8418219127	 3.9259283079	-1.3648204333	 0.163499
H	-2.6887558149	 5.0812508381	-0.0159820428	 0.142105
H	-0.9182390158	 3.7402216944	 1.0327202907	 0.128831
H	-0.4751938558	 3.72738722	-0.6418120709	 0.173381
