14
gdb 448	6.60272	3.33567	2.39369	2.8451	52.83	-0.235	-0.0124	0.2226	547.0211	0.120921	-270.47247	-270.466895	-270.465951	-270.501576	20.712	
O	 0.0045249849	 0.0188665606	-0.1751251169	-0.31196
C	-0.0131396617	 1.2112150098	-0.0133624092	 0.404871
C	-1.2687841186	 2.0814523398	 0.1351577658	-0.304611
C	-0.7510921072	 3.4470403889	 0.6115718247	-0.209067
C	 0.6570331067	 3.5532146478	-0.0171086904	-0.209068
C	 1.2160796641	 2.125697068	 0.08024209	-0.30461
H	-1.7272267924	 2.1580891788	-0.8602084876	 0.130313
H	-2.00274211	 1.6023526294	 0.7871493204	 0.126552
H	-1.4024761903	 4.27799844	 0.330448702	 0.104017
H	-0.6690298543	 3.4539019881	 1.7049982096	 0.106339
H	 0.570494983	 3.848827	-1.0694814978	 0.106338
H	 1.2850952759	 4.2977716854	 0.4778572863	 0.104018
H	 1.6760959364	 1.9476232451	 1.0618077102	 0.130315
H	 1.9610195935	 1.8591940383	-0.672992207	 0.126554
