16
gdb 5112	3.40127	2.06453	1.30387	0.3023	67.87	-0.1708	0.0649	0.2357	905.9197	0.130813	-379.945822	-379.937272	-379.936327	-379.979186	30.711	
C	-0.0618969875	 1.4546407155	 0.0390984768	-0.338121
N	 0.0183200892	 0.0096051028	 0.007069126	-0.053001
C	 0.0038106877	-0.7972859587	-1.133440257	 0.213222
N	-0.1173365713	-0.1874265829	-2.4039548974	-0.607696
C	 0.0859859497	-2.1033118673	-0.7186995459	-0.191119
C	 0.1548081711	-2.1142060361	 0.708829379	-0.301202
C	 0.1158895415	-0.79863732	 1.102303624	 0.354339
O	 0.1552807435	-0.1918871435	 2.3207622973	-0.444436
H	 0.8780831321	 1.8989439059	 0.3839959836	 0.129659
H	-0.2716696102	 1.7935089517	-0.9754974756	 0.154109
H	-0.8614265348	 1.7795042076	 0.7107977688	 0.136124
H	 0.7479127138	-0.2201868497	-2.9339395062	 0.240182
H	-0.8347889745	-0.6339014983	-2.9629540064	 0.242678
H	 0.0972008636	-2.9662641195	-1.3675309126	 0.08017
H	 0.2283014545	-2.9742216311	 1.3566045383	 0.081082
H	 0.2168261816	-0.8779505364	 2.9917596271	 0.304009
