18
gdb 93934	3.2008	1.15266	1.00779	4.4428	68.41	-0.2344	0.02	0.2544	1229.1309	0.147425	-476.25784	-476.248828	-476.247884	-476.292592	32.775	
C	-0.275912431	 1.2789654068	-0.0956820895	-0.412877
C	 0.1258900792	-0.1825794039	-0.0682805438	 0.118473
C	 1.0542509481	-0.6486960315	-1.1894884323	-0.098569
O	 1.7428936777	-1.751079859	-0.6000294418	-0.284761
C	 1.7327722804	-1.5622808663	 0.8101771555	 0.124004
O	 0.9362572043	-0.4301965796	 1.0844208519	-0.262586
C	 1.1815965001	-2.8101446125	 1.5402198898	 0.358395
N	 0.4888620691	-3.6703733459	 0.7459693222	-0.518263
O	 1.340745672	-2.9393872168	 2.7354846413	-0.355829
H	 0.6101182209	 1.9199887043	-0.1178880474	 0.129751
H	-0.8870890061	 1.4894465972	-0.9789603723	 0.121312
H	-0.8612947501	 1.5296810818	 0.7923981775	 0.140113
H	-0.7672580356	-0.8258474626	-0.0387270685	 0.083035
H	 0.5327892313	-1.0019283299	-2.0826074333	 0.114754
H	 1.7617331954	 0.1438330722	-1.4718955518	 0.105224
H	 2.7411796187	-1.3669601797	 1.1952643483	 0.109193
H	 0.5965522695	-3.5917635661	-0.2516466169	 0.267429
H	 0.187968066	-4.5443511184	 1.1465800113	 0.261201
