18
gdb 111559	2.61552	1.6449	1.23502	0.7683	70.72	-0.2177	0.051	0.2687	1034.5717	0.147586	-438.98599	-438.977857	-438.976913	-439.018723	31.507	
O	 0.437843819	 0.4102174028	 0.9000939397	-0.419288
C	-0.0495762468	 0.341414009	-0.4424576151	-0.118121
C	-1.4065164516	-0.347768153	-0.437907824	-0.029349
N	-2.0710701195	-0.8501370559	-1.7184239136	-0.203082
C	-1.052795357	-1.8272411976	-2.2938817004	-0.184809
C	-1.2698656266	-2.7119704861	-1.0865719575	-0.155236
C	-2.6046880643	-2.0382376849	-0.8703639213	-0.090335
C	-1.5257727188	-1.7505843999	 0.11347712	 0.384894
O	-1.4560220832	-2.1558936328	 1.4261836434	-0.468838
H	-0.1541296354	 0.983708546	 1.3986486877	 0.289644
H	-0.1057669801	 1.3364639807	-0.9072476676	 0.101759
H	 0.6997670043	-0.2383598025	-0.9852558707	 0.115034
H	-2.140710976	 0.3074425691	 0.049730964	 0.075908
H	-1.4701280374	-2.2500053982	-3.2125495365	 0.111303
H	-0.0654042295	-1.4089739759	-2.5137814982	 0.098075
H	-1.0138412998	-3.7480502733	-0.9022632436	 0.094601
H	-3.6332454586	-2.3646118586	-0.8207573157	 0.105495
H	-0.5679683088	-1.937134369	 1.7346201693	 0.292342
