20
gdb 65552	2.75658	1.57661	1.35777	2.3844	78.22	-0.2391	-0.0239	0.2151	1031.7849	0.171722	-403.123338	-403.115315	-403.114371	-403.155781	31.643	
C	-0.0086849459	 1.631264919	 0.2190249877	-0.466276
C	 0.0482189681	 0.1027334683	 0.1063279344	 0.24386
C	 0.8406159939	-0.4561985865	-1.1222733564	-0.284829
C	 1.8486613746	-1.3164507209	-0.3352863815	-0.023336
C	 0.9328895269	-1.9367160322	 0.7461507373	-0.191994
N	 0.7793954963	-0.5133362532	 1.2725012792	-0.16405
C	 2.2219670976	-0.3518177037	 0.8145472662	-0.180164
C	-1.3995960357	-0.3706492576	 0.1704376459	 0.117591
O	-2.058331573	-0.7330063197	-0.7698091483	-0.258172
H	 0.9929131349	 2.0656682066	 0.2648455057	 0.126519
H	-0.519944719	 2.0544194302	-0.6509635832	 0.134403
H	-0.5470259674	 1.9340666346	 1.1228222579	 0.130327
H	 0.196180499	-1.0323052535	-1.7899314392	 0.125356
H	 1.3253344426	 0.3335740268	-1.7031094284	 0.098027
H	 2.5825794478	-1.8920519113	-0.902102703	 0.065563
H	 0.0051723487	-2.4300176557	 0.4417044243	 0.114421
H	 1.4577616457	-2.5471985764	 1.4835255382	 0.109838
H	 2.8891582399	-0.7827209749	 1.5643241061	 0.110586
H	 2.5385725151	 0.6666591385	 0.5790882431	 0.100015
H	-1.8247907401	-0.3229983883	 1.1983363241	 0.092313
