18
gdb 17059	3.86309	1.44811	1.25552	1.7124	68.17	-0.2382	0.0633	0.3014	1028.0581	0.152836	-384.86683	-384.858937	-384.857992	-384.899069	29.867	
C	-0.1827827882	 1.5348364101	 0.0139882847	-0.377992
C	 0.1520363211	 0.0422037199	-0.0909521219	-0.220514
C	 0.8198625609	-0.4958471919	 1.1630697826	 0.039009
C	-0.0534800402	-0.8428791239	 2.4036954819	-0.013736
O	-0.5987820323	-2.0150298383	 1.6859534874	-0.312589
C	 0.8567070126	-2.0321648669	 1.4055866757	-0.003998
C	 1.0752030387	-1.7964276245	 2.9152633548	 0.123343
O	 2.3259526596	-1.3128517397	 3.3136985432	-0.426727
H	 0.7156805718	 2.133801928	 0.2007142146	 0.112705
H	-0.6418800142	 1.9026252376	-0.9087310775	 0.113383
H	-0.8846316875	 1.7280174666	 0.8326502316	 0.114385
H	-0.7556226171	-0.5364942466	-0.285850678	 0.115452
H	 0.8232912997	-0.1198956297	-0.9444148851	 0.093408
H	 1.7534561492	 0.0204075438	 1.4019221246	 0.088163
H	-0.7597404096	-0.2268012141	 2.9627293415	 0.086342
H	 1.236519348	-2.8317326759	 0.7681758963	 0.091435
H	 0.696187091	-2.6113290093	 3.5408563981	 0.086089
H	 2.2950833168	-1.1343330851	 4.2585297856	 0.29184
