23
gdb 94165	2.31506	1.27889	1.1636	2.4998	85.66	-0.2355	-0.0075	0.228	1254.1069	0.203389	-388.312771	-388.302389	-388.301445	-388.348158	38.606	
C	-0.6729987484	 1.1931513736	-0.0419116887	-0.423346
C	 0.1849928746	-0.0582889049	-0.1481066953	 0.02017
C	 1.595277625	 0.0338869914	-0.7889026463	-0.241693
C	 2.1148686425	-0.9847055106	 0.2584795326	-0.264853
C	 0.83711335	-0.6912685229	 1.125910739	 0.22107
C	 1.1331451988	 0.2967063864	 2.2604246091	-0.46934
C	 0.1447575371	-1.9470391439	 1.6443875674	 0.325317
C	 0.8336682337	-2.7123036769	 2.7658092245	-0.48414
O	-0.8995882822	-2.3418227159	 1.1745136823	-0.308457
H	-0.1447206444	 2.0169665118	 0.4497971303	 0.106872
H	-0.9652657208	 1.5408414768	-1.0390733221	 0.114583
H	-1.592038169	 0.9957097319	 0.5202729119	 0.123323
H	-0.3942470575	-0.8465727296	-0.6363370855	 0.094452
H	 1.6873753804	-0.2419030213	-1.842048955	 0.098367
H	 2.0444558917	 1.0227531313	-0.6531310825	 0.097736
H	 2.1253622883	-2.007112563	-0.1301342993	 0.107333
H	 3.0791626789	-0.7801682296	 0.731685747	 0.096721
H	 1.6546848516	 1.1801928069	 1.8797809265	 0.123283
H	 0.2145483698	 0.6380157606	 2.7491595048	 0.125027
H	 1.7755322991	-0.1549839476	 3.0225423565	 0.117315
H	 0.6475250872	-2.2111016992	 3.7225548537	 0.145934
H	 0.4241281122	-3.721962341	 2.8189261253	 0.140825
H	 1.9185457815	-2.7496404444	 2.6272223337	 0.1335
