21
gdb 112592	3.13235	0.96577	0.86512	0.8207	85.77	-0.2456	0.0549	0.3005	1441.1439	0.179598	-387.040999	-387.030954	-387.03001	-387.075942	37.445	
C	-0.3153919849	 1.2916455298	-0.0018750043	-0.241823
O	 0.3123835405	 0.0414314673	-0.1782090195	-0.239726
C	 0.8257265736	-0.4938762883	 1.010847932	 0.172546
C	-0.1580099063	-1.1450012862	 2.0232309703	-0.289646
C	 0.8515719851	-2.3415672458	 2.1710112373	 0.107962
C	 0.2505096738	-3.7505083024	 2.1645693916	-0.446988
C	 1.5177059097	-1.855130361	 0.8328529664	-0.291523
C	 1.7380912334	-2.1595949172	 3.3133540586	 0.328757
C	 2.4682087599	-2.0166468315	 4.2588324909	-0.501698
H	 0.3790184409	 2.0401055496	 0.4114222158	 0.105369
H	-0.6533598932	 1.6284499077	-0.9848067528	 0.126755
H	-1.1865490801	 1.2258555914	 0.6674203886	 0.107887
H	 1.479457548	 0.2359571191	 1.5114995937	 0.074734
H	-0.4187709662	-0.599920763	 2.9314430883	 0.105153
H	-1.0667064263	-1.4749864171	 1.5110475356	 0.104646
H	-0.4129687712	-3.8763174752	 1.3033819647	 0.112974
H	 1.0373258892	-4.5092147664	 2.1084566717	 0.126311
H	-0.3274838975	-3.9317665715	 3.0760692168	 0.125575
H	 1.0871238602	-2.3826387037	-0.0226195088	 0.110768
H	 2.6062698134	-1.8784447792	 0.7726420636	 0.108906
H	 3.1134439481	-1.8907861967	 5.0927256695	 0.193063
