12
gdb 129007	4.05394	1.85427	1.27231	5.0586	69.76	-0.2635	-0.0897	0.1738	870.1678	0.083174	-427.878668	-427.873174	-427.87223	-427.908515	21.628	
N	-0.1159151777	 1.3054361474	 0.0099303542	-0.272123
N	 1.0830445763	 1.9162635673	 0.0022766805	-0.179759
H	 1.0269427846	 2.9252649256	 0.0084180201	 0.29823
C	 2.2923327868	 1.309264506	-0.0122614377	 0.083173
N	 2.4707186234	 0.0099596177	-0.0211479398	-0.314779
C	 1.3171646744	-0.6828064324	-0.0143810007	 0.351508
N	 1.1167016915	-1.9881668263	-0.019742823	-0.33868
C	-0.2589460653	-2.0605916245	-0.0075381692	 0.043065
N	-0.9749317881	-0.9355157284	 0.005325632	-0.322127
C	 0.0061106358	 0.0014446826	 0.0015408758	 0.36399
H	 3.1454490134	 1.9807651414	-0.0163751269	 0.155847
H	-0.745240085	-3.0295147164	-0.0084290952	 0.131654
