17
gdb 111203	2.74977	1.27604	1.00456	1.917	69.92	-0.2438	-0.0431	0.2007	1196.421	0.133224	-458.872211	-458.863602	-458.862658	-458.906447	30.667	
C	-0.0486328356	 1.3180628863	-0.0111118168	-0.245243
O	-0.3548564771	-0.022706203	-0.3360994463	-0.24188
C	 0.4872789536	-0.5620009987	-1.2927283433	 0.174418
C	 1.7797114696	-1.3113786619	-0.8247402669	-0.026388
O	 0.9307033226	-2.3418992261	-0.2103077073	-0.303271
C	 0.3153525504	-2.076346771	-1.5372134489	-0.013678
C	 1.7366591187	-2.1515387138	-2.1548177029	-0.08252
C	 2.1098215375	-1.5758193589	-3.4928669499	 0.119061
O	 1.3907180006	-0.9199217874	-4.2065356257	-0.248306
H	 0.9388949531	 1.4093070089	 0.4645398787	 0.10909
H	-0.0671247728	 1.9650615851	-0.9012093763	 0.11239
H	-0.8106409595	 1.659384526	 0.6924081471	 0.13507
H	 0.5763962829	 0.0736249683	-2.1798648121	 0.101826
H	 2.6550313412	-0.9733808917	-0.2699518366	 0.104418
H	-0.5779165634	-2.6383253143	-1.8059031299	 0.109512
H	 2.2121944173	-3.1218574493	-1.9947117129	 0.109365
H	 3.1538921208	-1.8100193086	-3.80315581	 0.086134
