17
gdb 67598	2.8468	1.9119	1.8164	2.0241	68.93	-0.2017	0.0836	0.2853	861.3128	0.13772	-421.792121	-421.785641	-421.784697	-421.822645	26.932	
C	-0.017401254	 1.5091784934	 0.0141010148	-0.510087
C	-0.0186466431	 0.0033742106	 0.0054031368	 0.255891
C	 0.9423609322	-0.8853401972	-0.7825774728	 0.00007
O	 0.2651888798	-1.9618727941	-1.3840494596	-0.245721
C	-0.9734072663	-2.0789668478	-0.7285525193	 0.047596
C	-0.9265362522	-2.0879327394	 0.7726289636	 0.047609
O	 0.3505590179	-1.9781594031	 1.3509734516	-0.245704
C	 0.9892918177	-0.8943010057	 0.7213283128	 0.000038
C	-1.296534724	-0.8034252741	 0.0404796761	-0.235832
H	 1.0043427276	 1.9004770231	-0.0120433435	 0.120825
H	-0.5470197415	 1.9137228015	-0.855527997	 0.126187
H	-0.4976298604	 1.9033414224	 0.9165472774	 0.126176
H	 1.7612878557	-0.5078391151	-1.3843289427	 0.10277
H	-1.7001457163	-2.6568127727	-1.2869036001	 0.105852
H	-1.617262373	-2.6726481789	 1.3682919079	 0.105856
H	 1.8442621052	-0.5236573797	 1.2753190572	 0.102768
H	-2.2661346453	-0.3259381133	 0.0735965667	 0.095706
