19
gdb 30769	3.14311	1.20079	0.92722	2.8427	79.44	-0.191	0.0477	0.2387	1302.5887	0.159007	-419.249313	-419.239526	-419.238582	-419.284734	34.521	
C	 0.0352341031	 1.6126776471	-0.272756401	-0.359353
C	-0.0330345263	 0.151467951	 0.1990362421	-0.299714
C	-1.4228855863	-0.4047408399	 0.194307762	 0.164243
C	-2.1821531526	-0.8482543893	 1.2480803889	 0.260547
O	-1.9884231473	-0.9607253482	 2.5883332541	-0.445159
N	-3.3929722323	-1.2520580308	 0.7416463538	-0.040855
C	-4.4993680909	-1.7945342525	 1.5010890936	-0.334063
C	-3.3187168765	-1.0333671377	-0.6119171242	-0.019173
N	-2.1646212967	-0.5324893816	-0.9685966383	-0.32444
H	 1.069525424	 1.9700166541	-0.3076577322	 0.102587
H	-0.3963888076	 1.7012627233	-1.2731209479	 0.141009
H	-0.5326928139	 2.2684770581	 0.3952037691	 0.108412
H	 0.6078993166	-0.4632796104	-0.4459561093	 0.115693
H	 0.3945900447	 0.070039287	 1.2089613793	 0.06649
H	-1.0969231403	-0.658933611	 2.7892752047	 0.308154
H	-4.857332085	-1.0732950043	 2.2418058609	 0.146839
H	-5.3133076562	-2.027855872	 0.8124967713	 0.140981
H	-4.2037676375	-2.7090705465	 2.023661909	 0.147141
H	-4.1467276489	-1.2678836863	-1.264686496	 0.120662
