13
gdb 3765	7.49234	2.17377	1.72127	2.4901	56.13	-0.2756	-0.0171	0.2585	715.5256	0.102635	-336.816043	-336.809205	-336.808261	-336.84777	22.699	
C	-0.0465124867	 1.437199574	 0.0217156609	-0.318022
N	-0.0093417215	-0.0106877603	 0.0289108004	 0.155985
N	-0.0060450475	-0.7335193482	-1.0828145803	-0.126378
N	 0.0314837581	-1.9851232226	-0.7028383287	-0.25757
C	 0.0499817271	-1.975392898	 0.6546827091	 0.389868
C	 0.0929835787	-3.2026487194	 1.4976353086	-0.478089
N	 0.0247859906	-0.7366673431	 1.1410101882	-0.301548
H	 0.8417725604	 1.8336782434	 0.5181684688	 0.160385
H	-0.0694837267	 1.7555484546	-1.0196987935	 0.17194
H	-0.9394337307	 1.7880431468	 0.5435362833	 0.160389
H	 0.9856701776	-3.793878408	 1.2735994677	 0.149052
H	 0.1030822276	-2.9321595678	 2.5544861423	 0.144954
H	-0.776972787	-3.8363250513	 1.3017135031	 0.149033
