21
gdb 70309	2.91372	1.46903	1.20149	1.916	80.41	-0.2472	0.0802	0.3274	1109.9006	0.183964	-387.073044	-387.065115	-387.064171	-387.105154	32.283	
C	-0.0414579346	 1.5137215432	 0.0439210042	-0.471161
C	-0.0210224591	-0.0019110326	 0.0113971928	 0.374185
C	-0.8643566107	-0.755204302	 1.011886	-0.342995
C	 0.6402178799	-0.7425337347	 1.1553909296	-0.052934
C	 1.4868968572	-1.9696901831	 0.8083940018	-0.278116
C	 2.3153516655	-1.7420110222	-0.4526022774	 0.057324
O	 1.9173950854	-2.4578895467	-1.6285171867	-0.257493
C	 1.6605518017	-1.0484484394	-1.5722948652	 0.053314
C	 0.2088991438	-0.6231313778	-1.3754745538	-0.332988
H	 0.8841996066	 1.9350886192	-0.3668728972	 0.113965
H	-0.8758414101	 1.9118678782	-0.5461224656	 0.115086
H	-0.1493774745	 1.8885266129	 1.0668116012	 0.112453
H	-1.4539097155	-0.183929704	 1.7222586813	 0.105179
H	-1.3319931336	-1.6826895148	 0.6930766425	 0.107883
H	 1.0376269707	-0.1232814175	 1.9545217802	 0.080019
H	 2.1396872141	-2.22283442	 1.6484679367	 0.103422
H	 0.8498027697	-2.84248108	 0.6318847406	 0.118373
H	 3.3948657399	-1.6575681151	-0.332778178	 0.08767
H	 2.2661276004	-0.4637183123	-2.2636252929	 0.088186
H	-0.4137234196	-1.5129920907	-1.5096518222	 0.117668
H	-0.0864467973	 0.0883895993	-2.1526646122	 0.100959
