12
gdb 130285	7.35882	0.88233	0.79163	3.282	59.67	-0.253	-0.0447	0.2083	1313.7217	0.077277	-505.95883	-505.951047	-505.950103	-505.992043	27.195	
N	 0.057579334	 1.3380479422	 0.062586592	-0.581726
C	-0.0139517736	-0.0227353539	 0.0765905438	 0.447364
N	-1.1472740163	-0.6866760176	 0.1733085382	-0.21904
O	-0.693400473	-2.043300435	 0.2305341851	-0.224094
C	 0.6299845253	-1.9776524439	 0.1330545584	 0.553298
O	 1.3457408555	-3.1059837405	 0.169963255	-0.226185
C	 0.7329189275	-4.3211574271	-0.1183979225	 0.166483
O	 1.3386051835	-5.3318793218	-0.0040767389	-0.223216
N	 1.1321759897	-0.7919698995	 0.0371114059	-0.394033
H	 0.8906433461	 1.7166667245	-0.3592347677	 0.275735
H	-0.7975602885	 1.8236231541	-0.1591629679	 0.273611
H	-0.3057178201	-4.2031823614	-0.4521305413	 0.151803
