21
gdb 99097	3.75794	0.82128	0.80126	2.7952	79.16	-0.2591	-0.0247	0.2343	1536.1021	0.179786	-424.233769	-424.223681	-424.222737	-424.26966	36.954	
C	-0.1559047675	 1.6944253513	-0.7555496768	-0.470741
C	-0.0686979656	 0.2843881518	-0.2010922774	 0.407518
C	-1.3125372254	-0.5622432586	-0.3981618361	-0.397525
C	-2.5421662268	-0.0936551147	 0.3606031503	 0.355024
O	-2.5167730838	 0.7500744586	 1.2320837879	-0.317194
C	-3.8796528472	-0.7376314139	 0.0050909583	-0.123937
O	-4.9008760963	-0.2800126668	 0.8385421271	-0.420943
C	 1.264735885	-0.4257991239	-0.2776578341	-0.3257
C	 0.7377959705	 0.0567679362	 1.0523065579	-0.280132
H	 0.7840530786	 2.2321101635	-0.5995511878	 0.114705
H	-0.3555869718	 1.684210281	-1.8342028424	 0.10862
H	-0.9516794127	 2.2619711463	-0.2646271276	 0.138297
H	-1.5747541311	-0.6379232685	-1.4633640855	 0.120533
H	-1.1267965636	-1.5968132713	-0.0760027029	 0.128704
H	-4.0891083852	-0.5115382072	-1.0551107391	 0.112892
H	-3.7733832351	-1.83296757	 0.0682260972	 0.112652
H	-4.4786866651	 0.3897466839	 1.4012945674	 0.293373
H	 1.2746451386	-1.4938980272	-0.4698564738	 0.1061
H	 2.0958042168	 0.1093217938	-0.7246245978	 0.112205
H	 1.2111318789	 0.9171059891	 1.5123222338	 0.115056
H	 0.3866594389	-0.6826077635	 1.7640332513	 0.110492
