16
gdb 6449	4.56216	1.40904	1.3054	1.6189	65.56	-0.2638	0.022	0.2858	949.0816	0.131366	-379.916063	-379.908357	-379.907413	-379.947757	29.504	
N	-0.4721271541	 1.0511865384	 0.4383325976	-0.536564
C	 0.0096951627	-0.2500514786	-0.043180015	 0.126204
C	 0.4101032398	-1.13492112	 1.1783368108	-0.263552
C	-1.0623917195	-1.6465854555	 1.2280619328	 0.151643
O	-1.8899341156	-0.9570000657	 2.1270773252	-0.43591
C	-1.2079231415	-1.2018493836	-0.2597405734	-0.263549
C	 0.9784489367	-0.1382650279	-1.1383848885	 0.20631
N	 1.7407586764	-0.025188292	-2.0011625822	-0.338715
H	 0.3088354267	 1.6157539012	 0.7634366571	 0.248078
H	-0.9115581171	 1.5652504231	-0.3212540704	 0.248078
H	 1.115359032	-1.9183895768	 0.8932917557	 0.1247
H	 0.7793158821	-0.6019044391	 2.0571886168	 0.114589
H	-1.1968733395	-2.7107887095	 1.4288939727	 0.09266
H	-1.763839898	-0.0146544422	 1.9413757138	 0.286745
H	-2.1474172426	-0.7229674569	-0.5440449091	 0.114587
H	-0.9709493483	-2.0046772748	-0.9610022439	 0.124696
