18
gdb 114191	3.6092	1.10208	0.9314	3.4419	74.97	-0.2237	-0.0363	0.1874	1280.5733	0.146118	-439.042753	-439.033756	-439.032812	-439.077034	32.397	
C	 0.257529018	 1.1369835621	 0.3702869059	-0.249412
O	 0.0002181474	-0.0901771906	-0.2944074473	-0.242093
C	-1.3221950542	-0.5203567742	-0.1600688876	 0.030725
C	-1.6157972721	-1.8888524233	-0.8379233896	-0.379588
C	-2.2530304191	-2.3878749277	 0.4713096598	 0.229886
C	-3.5837201741	-3.0372095979	 0.6568994358	-0.285976
N	-2.3517938973	-3.739953914	 1.0191784484	-0.345074
C	-1.7321293644	-1.1681692356	 1.2020379594	 0.334047
O	-1.6133501034	-0.848349738	 2.3495664799	-0.30328
H	 1.3082489208	 1.3770601902	 0.194204362	 0.129253
H	-0.3679469374	 1.9469939888	-0.0362120829	 0.105151
H	 0.0757108795	 1.0573225592	 1.4480619966	 0.142984
H	-2.03802527	 0.2649718257	-0.4566565867	 0.086859
H	-2.2516252246	-1.8624886943	-1.7240011095	 0.114009
H	-0.6770150932	-2.3994977383	-1.0695495217	 0.130402
H	-4.2054302063	-2.7434936607	 1.4980386144	 0.139469
H	-4.1216227799	-3.3277308178	-0.2425777341	 0.122055
H	-2.1019645795	-4.4133241935	 0.2975562873	 0.240585
