14
gdb 105153	2.54632	1.2303	0.96281	2.9111	70.23	-0.2843	-0.0263	0.2579	1193.4414	0.097815	-436.62357	-436.614505	-436.613561	-436.65781	32.158	
O	 0.135433347	 1.3338360555	-0.3941596809	-0.401445
C	 0.0372396381	 0.1122693003	 0.3010461822	-0.138565
C	-1.3687079459	-0.4632899398	 0.1965486311	 0.111819
O	-1.6681159856	-1.0285399422	-1.1001399206	-0.257092
C	-1.5865120901	-1.9259192301	 0.0007976861	-0.144539
C	-0.487926484	-2.8691042636	 0.0079339675	 0.310988
N	 0.3702948872	-3.642900632	 0.0313916059	-0.323227
C	-2.4278704517	 0.304808842	 0.8003310612	 0.308061
C	-3.2918085551	 0.9475192234	 1.332274218	-0.387704
H	-0.0192809189	 1.1508179163	-1.3278477064	 0.299113
H	 0.7546445185	-0.6341396941	-0.0645364111	 0.122894
H	 0.2656511892	 0.3264650582	 1.3490175501	 0.134089
H	-2.5359413324	-2.3434916712	 0.3294877514	 0.152922
H	-4.0567169563	 1.5230657872	 1.7937973055	 0.212686
