21
gdb 104364	2.30531	1.42615	1.16995	1.667	78.32	-0.238	-0.0215	0.2164	1185.703	0.180889	-424.262951	-424.253311	-424.252367	-424.297492	35.755	
C	 0.0707806165	 1.5615275238	-0.1054606345	-0.402023
C	-0.0239984723	 0.041460986	 0.0522254809	-0.189995
C	-1.4582041306	-0.5088855634	 0.0679160179	 0.261407
C	-2.2991095645	 0.0122449602	 1.2447876284	-0.428017
O	-2.0810536181	-0.2008343676	-1.1838078998	-0.29629
C	-2.9284695471	-1.2827027995	-1.5711074339	-0.100193
C	-2.2126548517	-2.5500376962	-1.0999226008	-0.336693
C	-1.4340169638	-2.0484392063	 0.115821884	 0.367212
O	-0.8993895452	-2.7114983854	 0.9653683223	-0.325524
H	 1.1167327011	 1.8685013803	-0.1998206668	 0.113522
H	-0.463055072	 1.890482961	-1.0011472908	 0.135236
H	-0.3491877554	 2.0909216422	 0.754933694	 0.117209
H	 0.5058553398	-0.4394696121	-0.7784636622	 0.097071
H	 0.4682249877	-0.2897681939	 0.9730235108	 0.115095
H	-2.3948260876	 1.0990160665	 1.1929337502	 0.1295
H	-3.3067953105	-0.4148749985	 1.2283363887	 0.115835
H	-1.831431421	-0.264997474	 2.1935103357	 0.135807
H	-3.9194402799	-1.1941629273	-1.0998467914	 0.099434
H	-3.0615158656	-1.2225053267	-2.6535043024	 0.116341
H	-2.8613080782	-3.3887788348	-0.8406378485	 0.133722
H	-1.4878888715	-2.8990569744	-1.8449288417	 0.141341
