19
gdb 73379	2.43727	2.15526	1.59423	1.2153	73.12	-0.2371	0.0669	0.304	905.7057	0.162224	-423.014427	-423.007658	-423.006714	-423.04504	28.871	
O	-0.0732994601	 1.3341958979	 0.0267999455	-0.503667
C	-0.0048586954	-0.0667069188	 0.0015809072	 0.380835
C	 0.6586415333	-0.7324322855	 1.2215926471	-0.128979
O	 0.3403726879	-2.1190004791	 1.0477966412	-0.281172
C	-0.7250486783	-2.1590277195	 0.1120794093	 0.14445
C	-0.3840725847	-1.8968747624	-1.4044917887	-0.066834
C	-1.7280154889	-1.1191545452	-1.463775762	-0.257538
C	-1.3913053112	-0.7683887291	 0.0006639479	-0.092554
C	 0.6203098	-0.7364301711	-1.2657484112	-0.278263
H	 0.8168426054	 1.6835018372	-0.087813924	 0.27889
H	 1.7484397388	-0.6109671602	 1.2394540349	 0.093688
H	 0.2429125034	-0.34922518	 2.1651445558	 0.094932
H	-1.3618598696	-3.0225328592	 0.3037692581	 0.083663
H	-0.1466456813	-2.7002426443	-2.1018843583	 0.062823
H	-1.8079629282	-0.3032416911	-2.1859915764	 0.103219
H	-2.6014517658	-1.771778746	-1.5382908537	 0.099882
H	-2.1196534564	-0.3946596112	 0.7194802086	 0.07233
H	 0.5914443949	-0.0644661153	-2.1288583973	 0.097409
H	 1.6509198064	-1.063473987	-1.101136224	 0.096885
