19
gdb 109088	3.79292	1.07009	0.93778	3.3434	77.07	-0.2334	0.0181	0.2514	1277.9153	0.160062	-423.010799	-423.00251	-423.001566	-423.04415	31.016	
O	-0.0377803305	 1.3471896269	-0.3242012103	-0.411701
C	-0.0404721714	-0.0486188201	-0.0946848509	-0.170527
C	-1.4414922673	-0.5368743415	 0.0828890701	 0.304542
C	-2.5576290701	 0.1930679272	 0.0124084901	-0.17603
C	-3.7873897068	-0.640651632	 0.226783214	 0.088143
O	-4.5027439989	-0.9757643785	-0.997608736	-0.293728
C	-3.9382374858	-2.3029868886	-1.000895624	-0.078905
C	-3.2495042279	-2.0882619655	 0.3654022457	-0.075937
C	-1.7138141706	-1.9984511214	 0.3895160915	-0.334229
H	 0.8715063683	 1.6271284427	-0.4607406774	 0.290569
H	 0.4240311411	-0.5976760498	-0.9336452248	 0.097886
H	 0.547982732	-0.3122423759	 0.8030100693	 0.095003
H	-2.5840988867	 1.2552688564	-0.1925786223	 0.11244
H	-4.4812153936	-0.2398209222	 0.9744212999	 0.073625
H	-4.7184768638	-3.0728728952	-1.0318241993	 0.09916
H	-3.2502981066	-2.4609087885	-1.8433257398	 0.093368
H	-3.6647981358	-2.6906842026	 1.1732185947	 0.077677
H	-1.2458026287	-2.6687720637	-0.3449232272	 0.10327
H	-1.299654067	-2.2830573276	 1.3663278566	 0.105372
