18
gdb 86972	2.41487	1.37228	1.13028	3.1475	76.6	-0.2606	0.005	0.2657	1139.419	0.148951	-401.975958	-401.96754	-401.966596	-402.009068	31.797	
O	-0.1154004042	 1.4903520004	-0.0514422295	-0.438599
C	 0.0540279216	 0.0741101697	-0.0610831622	 0.087239
C	-1.3452189627	-0.523016572	 0.090145221	-0.220383
C	-1.3572303954	-2.0341107298	-0.2222521283	-0.180032
C	-0.8829503502	-2.2937277849	-1.673376797	-0.262507
C	 0.2992787841	-1.4405269005	-2.0487511208	-0.05265
C	 0.7168104217	-0.3988482539	-1.3330417179	-0.069497
C	-0.5326816999	-2.7762814924	 0.7400056381	 0.282618
N	 0.1115302364	-3.3602168809	 1.5018646153	-0.333509
H	 0.7571041407	 1.8963237687	-0.0338770773	 0.283939
H	 0.6701484891	-0.2315906993	 0.800695689	 0.096962
H	-1.7295192483	-0.3290120683	 1.0944564187	 0.122634
H	-2.0061010724	-0.0184864233	-0.6224952963	 0.12147
H	-2.380498356	-2.4099667799	-0.1110582756	 0.128339
H	-0.6436905724	-3.3545318502	-1.8048094797	 0.129049
H	-1.7206074035	-2.0873933931	-2.353731147	 0.122078
H	 0.8194313453	-1.7136878984	-2.963419565	 0.097582
H	 1.5884707461	 0.1676990081	-1.6552879956	 0.085266
