13
gdb 23882	3.50462	1.39984	1.23343	2.4519	47.54	-0.2773	-0.0492	0.2282	976.6195	0.089678	-530.123843	-530.115485	-530.114541	-530.158279	28.219	
C	-0.0575868642	 1.5408812742	 0.0840002519	-0.390271
C	 0.0243653206	 0.0231496265	-0.0519057472	-0.294708
C	 0.7431388223	-0.422620691	-1.3044582051	 0.236978
O	 1.2110615137	 0.3052096967	-2.1377777391	-0.271102
C	 0.8605220913	-1.9643365203	-1.4811875336	 0.235539
F	 1.4881323448	-2.2853985168	-2.6004126727	-0.044046
F	 1.5311823247	-2.4934985807	-0.4445175046	-0.080603
F	-0.3629420904	-2.5185233831	-1.4993822299	-0.080638
H	 0.9405134602	 1.985019094	 0.1137714752	 0.138005
H	-0.5868006366	 1.9811066275	-0.7647704853	 0.138231
H	-0.5856570083	 1.8136777907	 1.0009964231	 0.12135
H	 0.5389127633	-0.4376467601	 0.8016614755	 0.145448
H	-0.9706129315	-0.4411828277	-0.0641698283	 0.145817
