21
gdb 71952	2.75058	1.90913	1.64401	1.3761	80.7	-0.2351	0.0869	0.322	944.7519	0.185563	-387.107316	-387.100338	-387.099394	-387.138053	30.131	
C	-0.0022999274	 1.5351252375	-0.0540002505	-0.477575
C	-0.0070936257	 0.0305919108	 0.0657019867	 0.436301
C	-1.2950749574	-0.7348273208	 0.457825086	-0.26335
C	-0.3697667111	-1.8372302683	 1.0290981	-0.044836
C	 0.1884063471	-2.705559551	-0.1287645402	-0.223939
C	 1.2255047422	-1.741334848	-0.7373677912	 0.096039
C	 2.011006314	-1.2815676875	 0.5026250766	-0.237573
C	 0.7626794581	-0.7466747005	 1.1938895495	-0.083108
O	 0.5416755598	-0.5447084218	-1.140890468	-0.321171
H	 1.0176847587	 1.9137444115	-0.1731857272	 0.118476
H	-0.5812555076	 1.8482110366	-0.9293893261	 0.125737
H	-0.4459634002	 1.9962125187	 0.8336294672	 0.109946
H	-1.8456119069	-0.2119958765	 1.2466071484	 0.089462
H	-1.9774513967	-1.0007414365	-0.3547569702	 0.092743
H	-0.7059733695	-2.4048965412	 1.8973606505	 0.06078
H	 0.6775806574	-3.6141625801	 0.2387739842	 0.092568
H	-0.5837786706	-2.9979148569	-0.8457093136	 0.099258
H	 1.7919612711	-2.116321532	-1.5904888316	 0.069892
H	 2.4978757073	-2.1008613569	 1.0392739766	 0.09481
H	 2.7475737699	-0.5090689328	 0.2656426767	 0.100832
H	 0.8497548675	-0.2533406544	 2.1603627362	 0.064709
