22
gdb 75615	1.82374	1.71395	1.14741	3.7869	83.62	-0.236	0.0408	0.2768	1210.1139	0.191723	-404.391114	-404.380487	-404.379543	-404.426337	38.578	
C	-0.1535180444	 1.5711363773	-0.099915919	-0.41256
C	 0.032948054	 0.0635460452	 0.0038864215	-0.207767
C	 1.1709904496	-0.5544022853	-0.8377019205	 0.420147
O	 1.481636947	-0.5697388959	-2.003502092	-0.394076
N	 1.7492698051	-1.10885785	 0.2727431241	-0.092306
C	 2.917400227	-1.9380171616	 0.4172970477	-0.354822
C	 0.7639782281	-0.5820169962	 1.2451298167	 0.303715
C	 1.3788794344	 0.3839292785	 2.2580412152	-0.434028
C	-0.0385335526	-1.6807835886	 1.9437587325	-0.435753
H	 0.7817345009	 2.1144534573	 0.0601926075	 0.122846
H	-0.5117105156	 1.8255563296	-1.1018577112	 0.138249
H	-0.8893908397	 1.9365901493	 0.6237767286	 0.116016
H	-0.9162423619	-0.4449271059	-0.1954612595	 0.093503
H	 3.3424279069	-2.080877413	-0.5792904398	 0.161998
H	 3.674746286	-1.468612084	 1.0571372525	 0.125808
H	 2.6702990182	-2.9208392043	 0.837488954	 0.125869
H	 1.9933157395	 1.1434940275	 1.7686224987	 0.123271
H	 0.5987643485	 0.8903367446	 2.8353172568	 0.122734
H	 2.0140461714	-0.1566616686	 2.9684601259	 0.116665
H	 0.5890798439	-2.2518926273	 2.637132456	 0.11633
H	-0.8592738572	-1.2469292964	 2.5243845982	 0.122514
H	-0.4635875491	-2.3777366321	 1.2153093663	 0.121647
