17
gdb 33379	8.83802	0.48345	0.47547	1.9109	91.89	-0.2422	-0.0111	0.2311	2210.4659	0.133381	-384.614471	-384.604947	-384.604003	-384.650039	33.774	
C	-0.0440134379	-3.7664386964	-0.0237771352	-0.556376
C	-0.010173391	-2.559587145	-0.0534505272	 0.288728
C	 0.0284625001	-1.1997386717	-0.0865749127	-0.201924
C	 0.0611347276	 0.0098826926	-0.1165043841	 0.341633
C	 0.1243388476	 1.4616084729	-0.1435876001	-0.384698
C	 1.4957397322	 2.0165415177	 0.3060801074	-0.211676
C	 1.5125133598	 3.5245060977	 0.2766405372	 0.09073
C	 2.6769448623	 4.2889947571	-0.1848284541	-0.180715
O	 1.5285009307	 4.1303744774	-1.0200562502	-0.235837
H	-0.0746045523	-4.8272300697	 0.0013882512	 0.18928
H	-0.08436901	 1.8247876178	-1.1575915546	 0.157377
H	-0.6665366604	 1.8726872071	 0.4987221335	 0.136022
H	 1.7192220895	 1.6661873693	 1.3201630692	 0.117888
H	 2.2768373598	 1.6273325085	-0.3541765402	 0.120504
H	 0.832501868	 4.0137787202	 0.9777606146	 0.094167
H	 2.8482112153	 5.2971646	 0.1895952955	 0.117798
H	 3.5696191488	 3.7575064146	-0.5122016604	 0.117097
