21
gdb 107632	2.56082	1.49393	1.1227	2.2018	78.15	-0.25	0.0753	0.3253	1170.7201	0.181768	-424.223666	-424.214575	-424.21363	-424.257506	34.291	
C	-0.4551200831	 1.4381463243	-0.3686090753	-0.381892
C	 0.232010847	 0.1135024573	-0.0085062486	-0.289963
C	 0.9128979758	-0.561455066	-1.1761717495	 0.387612
O	 0.0617925397	-1.0019449505	-2.2517322241	-0.298148
C	 0.7853754402	-1.9860154794	-1.502120776	-0.043105
C	 2.0649827995	-2.4188593786	-2.1742682712	-0.110467
O	 2.7300142375	-1.2149200356	-2.5251061178	-0.274128
C	 2.2892724472	-0.1363906816	-1.6928227142	 0.085435
C	 2.3412847002	 1.1328219764	-2.5316037503	-0.407687
H	 0.2615779472	 2.2034001376	-0.6788117367	 0.122757
H	-1.1638071545	 1.2871856547	-1.1877295585	 0.137899
H	-1.0058031589	 1.8288802389	 0.4920439973	 0.114258
H	 0.9709934259	 0.2725338278	 0.7868624445	 0.102223
H	-0.5178660031	-0.5758085036	 0.3943319573	 0.107594
H	 0.1903068462	-2.68379018	-0.918011871	 0.096066
H	 2.6587799488	-3.02950642	-1.4731669574	 0.091403
H	 1.9080699293	-2.9976065726	-3.0909162255	 0.117219
H	 2.957144285	-0.0401061878	-0.818534993	 0.065052
H	 1.5787637669	 1.0940739344	-3.313373999	 0.136686
H	 2.1823034936	 2.0225990143	-1.9162380404	 0.114126
H	 3.3230143695	 1.2164344301	-3.0052832707	 0.127059
