18
gdb 67903	2.42554	1.92554	1.36723	3.059	76.3	-0.2548	0.025	0.2798	989.9298	0.147955	-401.913525	-401.905988	-401.905043	-401.945148	30.358	
C	-0.1076464773	 1.4782493488	 0.0040792311	-0.484033
C	 0.0403734222	-0.0143765987	 0.0674570067	 0.443899
O	-1.2633105068	-0.717860085	 0.0625459333	-0.308284
C	-0.9287423712	-1.4227182483	 1.2114166479	 0.413106
N	-1.6075170698	-2.2334566455	 1.8868212531	-0.558258
C	 0.4623044769	-0.8308326886	 1.3057075429	-0.214173
C	 1.578352486	-1.4984540497	 0.4550926671	-0.054075
C	 1.0346048768	-2.1834976224	-0.7612109194	-0.303893
C	 1.1467378947	-0.6855292315	-0.7772532453	-0.101343
H	 0.866206507	 1.9601441127	 0.1358423123	 0.129329
H	-0.5063868762	 1.7808899782	-0.9703939166	 0.135655
H	-0.7865564502	 1.8371778174	 0.7823507709	 0.132611
H	-2.5381690285	-2.3608418984	 1.4838492701	 0.224904
H	 0.7688169001	-0.371359689	 2.2429054576	 0.099398
H	 2.5751124761	-1.6889482914	 0.8300652175	 0.09992
H	 1.7792406211	-2.6934308928	-1.3638659406	 0.117464
H	 0.0634979497	-2.6665825803	-0.7496388782	 0.138555
H	 1.7519323193	-0.1577905854	-1.5046307303	 0.089217
