20
gdb 100894	2.36027	1.05523	0.76664	4.6272	76.61	-0.2603	0.0189	0.2792	1482.889	0.170901	-436.454891	-436.444401	-436.443457	-436.490656	37.492	
C	 0.0664693522	 1.4262090296	 0.2032574742	-0.331422
N	-0.0867989807	-0.0028805997	-0.0702326121	-0.28085
C	 0.6370363878	-0.4791107101	-1.2462060965	-0.128128
C	 2.1054554361	-0.3894278112	-1.0780916931	 0.27713
N	 3.2436857861	-0.3159353128	-0.8855269386	-0.334261
C	 0.1877854494	-1.92636506	-1.5906524867	-0.018039
N	-1.25130087	-2.0318689203	-1.8226995951	-0.521216
C	 0.9018006324	-2.5108963685	-2.8155861839	-0.057083
O	 0.4649552106	-3.8266689501	-3.0606296331	-0.421949
H	 1.1112271379	 1.7489059375	 0.3296475102	 0.129614
H	-0.3707914911	 2.0004447943	-0.620457969	 0.129126
H	-0.4856764633	 1.673653094	 1.1134552734	 0.13145
H	 0.2147851022	-0.5378016096	 0.7391426142	 0.232637
H	 0.3641104925	 0.1718447142	-2.0879991294	 0.120123
H	 0.4271035557	-2.5649617937	-0.7301457692	 0.102683
H	-1.7506665041	-1.6892753368	-1.0074539255	 0.244553
H	-1.5188176546	-1.4225133006	-2.593780988	 0.228601
H	 0.7149904846	-1.8512031363	-3.6848249201	 0.075571
H	 1.9835293459	-2.541588764	-2.656776	 0.132449
H	-0.4860752696	-3.8162075859	-2.8807724919	 0.289008
