22
gdb 76144	2.12723	1.39045	1.11638	3.4236	84.35	-0.2355	0.0198	0.2552	1253.3971	0.190615	-404.371741	-404.360863	-404.359919	-404.40738	39.312	
C	 0.0340658773	 1.326278359	-0.3282191205	-0.421704
C	-0.0460188027	-0.1539327824	-0.0318566613	-0.051533
N	 1.0752736668	-1.0538325886	-0.2455973774	-0.11099
C	 2.3174372193	-0.8495747713	-0.8202072632	 0.371948
C	 2.2776224304	-0.3510214894	-2.2555272138	-0.477179
O	 3.3512176171	-1.1260092048	-0.2457690327	-0.356451
C	 0.6683474938	-0.8281110534	 1.1272417655	 0.286908
C	 1.5742808493	-0.0394503889	 2.0535999859	-0.445591
C	-0.013675833	-2.011056401	 1.7908959527	-0.443169
H	 0.9996440246	 1.75677317	-0.0548724585	 0.129557
H	-0.1303494157	 1.5181041003	-1.39371286	 0.129023
H	-0.7462297237	 1.8595381419	 0.2252541704	 0.129206
H	-1.0054947716	-0.5936557654	-0.3092610569	 0.090196
H	 3.2095647027	-0.6264774463	-2.7502933574	 0.145302
H	 1.423834601	-0.7604257364	-2.8009372678	 0.133056
H	 2.1919820385	 0.7411724638	-2.2688541226	 0.138571
H	 2.0332508723	 0.822022552	 1.567157198	 0.123617
H	 1.0057115332	 0.3133874171	 2.9207321789	 0.112979
H	 2.3871958434	-0.677598987	 2.4096870011	 0.146881
H	 0.7314074022	-2.7037408265	 2.1961221659	 0.131165
H	-0.6491550949	-1.6771740168	 2.6183357233	 0.116243
H	-0.6315493004	-2.5588716259	 1.0749173704	 0.121965
