21
gdb 64238	3.02584	0.90322	0.84501	1.4232	79.46	-0.251	-0.0266	0.2244	1460.178	0.179253	-424.225991	-424.215844	-424.2149	-424.262058	36.316	
C	-0.0982939194	 1.5409191984	-0.1154563085	-0.427132
C	-0.0438539375	 0.0227849855	 0.0142449747	 0.408564
C	-1.3870979135	-0.6204757863	-0.2964055951	-0.429382
O	 1.000496747	-0.516250362	-0.8527637651	-0.319354
C	 1.8191175381	-0.889388335	 0.2675531468	-0.091927
C	 0.6955887921	-0.5502533143	 1.2690602013	-0.091054
C	 1.0041209354	 0.3530098157	 2.4658708905	-0.309098
C	 1.863436351	-0.3613757335	 3.4863274026	 0.161151
O	 1.5567805443	-0.548408682	 4.6352027997	-0.236353
H	 0.8824050453	 1.9935642036	 0.0530736117	 0.117639
H	-0.417293804	 1.8076079848	-1.1277396564	 0.126458
H	-0.8102540208	 1.9777747194	 0.5926275729	 0.117217
H	-1.7173692122	-0.3460622243	-1.3034655096	 0.125735
H	-1.3135048117	-1.7102143204	-0.2465894358	 0.120042
H	-2.1505247819	-0.2883864003	 0.41578509	 0.117286
H	 2.1409843396	-1.9355163481	 0.2159249043	 0.107832
H	 2.7117147902	-0.2520609519	 0.3539020762	 0.093086
H	 0.188329466	-1.4526133245	 1.6228579175	 0.090686
H	 1.5567872264	 1.240738958	 2.1298179023	 0.118567
H	 0.0882048941	 0.6847962713	 2.9639985891	 0.123977
H	 2.8397896916	-0.7287703441	 3.0908121208	 0.07606
