21
gdb 109221	3.72243	0.97283	0.8611	1.8515	85.39	-0.2336	0.0277	0.2614	1426.2784	0.182051	-387.092767	-387.083791	-387.082847	-387.127092	33.917	
C	 0.2272201781	 1.541316199	-0.1369957292	-0.374882
C	-0.0897523254	 0.0562949556	 0.1141914159	-0.289532
C	 0.6435935034	-0.5265299067	 1.2860842274	 0.344168
C	 0.1031867774	-1.0161283673	 2.4059479026	-0.182286
C	 1.1268180458	-1.5208585996	 3.3902175102	-0.338485
C	 2.4311011652	-1.435913897	 2.5902393188	 0.431421
C	 3.7613240293	-1.6107390604	 3.1773608759	-0.248422
O	 3.15700184	-2.6596019098	 2.415260785	-0.267738
C	 2.1567222216	-0.6160994564	 1.3265641048	-0.391731
H	 1.2914243217	 1.6957423457	-0.3411538962	 0.119829
H	-0.3334511649	 1.9168687443	-0.9983269368	 0.114549
H	-0.0384378223	 2.1504694054	 0.7328732293	 0.119392
H	-1.1679338558	-0.0667229526	 0.2663279435	 0.101593
H	 0.164390053	-0.5137586522	-0.7908633206	 0.104664
H	-0.9625226431	-1.0483982842	 2.6076767549	 0.085269
H	 1.1614912023	-0.9021101334	 4.2979970172	 0.10779
H	 0.9520414821	-2.5527408029	 3.7164615226	 0.12157
H	 4.6261643268	-1.1338649714	 2.715596599	 0.106775
H	 3.861321099	-1.8052094641	 4.2454183333	 0.107459
H	 2.5827317532	-1.1176781795	 0.4490674559	 0.119023
H	 2.6196283027	 0.3787435376	 1.3786445467	 0.109577
