20
gdb 120077	5.65162	0.86272	0.85438	2.4805	80.65	-0.2302	0.078	0.3082	1435.057	0.170887	-403.028983	-403.020755	-403.019811	-403.062536	30.844	
C	 0.0471796228	 1.3947909771	 0.1126433192	-0.223774
O	-0.0196509608	-0.0086839292	 0.1820675274	-0.232827
C	-1.2858179967	-0.5184312682	-0.1826731736	-0.096784
C	-1.2266408523	-2.0274157394	-0.1030065689	-0.014576
C	-1.2242384399	-2.7094719252	 1.2712673409	 0.000923
C	-2.7604473852	-2.5485694031	 1.50062582	-0.075805
C	-2.8620098147	-4.0481926683	 1.7456774425	-0.185327
N	-1.7931837987	-4.0206276686	 0.6574216901	-0.16566
C	-2.5315229429	-2.8315598345	-0.0175835344	-0.030609
H	 1.0559652528	 1.6904820156	 0.4109835881	 0.127769
H	-0.1441479798	 1.7639248533	-0.9077899374	 0.103279
H	-0.6784010408	 1.8738678072	 0.789700972	 0.102032
H	-2.0671500248	-0.119048999	 0.4869036116	 0.083278
H	-1.5478560721	-0.2003761474	-1.2071027091	 0.086107
H	-0.4900796858	-2.4387136392	-0.8007402483	 0.08957
H	-0.4383991796	-2.751102379	 2.0267152703	 0.086064
H	-3.2974454048	-1.7152059209	 1.9651405252	 0.066864
H	-2.499493682	-4.4425527776	 2.7008515225	 0.100574
H	-3.7800393435	-4.562805249	 1.4422148865	 0.098964
H	-3.2894235211	-3.0201479744	-0.7811150945	 0.07994
