22
gdb 31126	1.83707	1.69848	0.95615	1.7101	90.8	-0.1863	0.0527	0.2391	1314.5442	0.193569	-367.271002	-367.260628	-367.259684	-367.306559	37.711	
C	 0.05146028	 1.5813425257	 0.142802696	-0.36304
C	-0.0098035801	 0.0490967861	 0.0034993846	-0.302583
C	 0.6766537646	-0.4751339067	-1.2264209516	 0.116435
C	 0.0864548514	-0.775562472	-2.4401047138	 0.227244
C	-1.3342129447	-0.6986674041	-2.8963162998	-0.505959
N	 1.0835000561	-1.2011930309	-3.2870475954	-0.305505
C	 2.2941956609	-1.1807294922	-2.6382960548	-0.185193
C	 2.0836431989	-0.7342192239	-1.3562255983	 0.209649
C	 3.128415565	-0.5681690567	-0.2936801358	-0.508943
H	 1.0874911716	 1.9334721281	 0.1724528694	 0.118599
H	-0.4361294031	 2.0692758756	-0.7072698505	 0.112311
H	-0.4454116248	 1.9166552871	 1.059786147	 0.102738
H	 0.4411304198	-0.4055839613	 0.8948016596	 0.096499
H	-1.0601352983	-0.2661048778	 0.0094637956	 0.092477
H	-1.495062856	 0.0979791269	-3.6346606382	 0.125159
H	-1.6692070843	-1.6379779785	-3.3544430994	 0.120065
H	-1.9956190911	-0.494521348	-2.0512383882	 0.136032
H	 0.9405196778	-1.4982528933	-4.2361295116	 0.251101
H	 3.200323212	-1.4913102322	-3.1346374242	 0.10746
H	 3.2452154723	 0.4776017886	 0.0165655909	 0.120797
H	 2.8860286613	-1.1397831365	 0.6108163383	 0.12003
H	 4.1047065106	-0.9141757441	-0.6465680297	 0.114626
