23
gdb 122540	4.17518	0.60644	0.57153	1.8367	84.62	-0.2435	0.0893	0.3328	2040.0707	0.203216	-425.387148	-425.376268	-425.375324	-425.424335	38.002	
C	 0.0567600558	 1.2512539959	-0.4115200041	-0.225904
O	-0.0737780746	-0.0015372312	 0.2116363538	-0.229646
C	-1.2857592463	-0.6508785689	-0.1067365196	-0.041298
C	-1.3188476717	-1.9959811389	 0.6091088912	-0.222328
C	-2.6008179678	-2.7551369764	 0.3402180011	-0.047077
C	-2.7616560024	-3.5638362453	-0.9384749583	-0.324853
C	-2.6367631923	-4.2516529771	 0.4006336071	 0.111601
O	-1.4515019967	-4.90451549	 0.7248913546	-0.233186
C	-1.3735017788	-6.2072561305	 0.1838633633	-0.229626
H	 1.0180816288	 1.6725144066	-0.1064373708	 0.124321
H	 0.0391345788	 1.167684857	-1.5104856326	 0.099928
H	-0.7453796707	 1.9452719023	-0.111505431	 0.099886
H	-2.1454979632	-0.0283072267	 0.2000564105	 0.077424
H	-1.3711655789	-0.7957754994	-1.1976104319	 0.08407
H	-0.4584102177	-2.5932846332	 0.2958218875	 0.117554
H	-1.2027894445	-1.8231579792	 1.6856400743	 0.107144
H	-3.5014755143	-2.2624672113	 0.6996354999	 0.084611
H	-3.7165874472	-3.5687275941	-1.4527021176	 0.108264
H	-1.8939719802	-3.6179523389	-1.5886279285	 0.117327
H	-3.5299859342	-4.7259355965	 0.8119877545	 0.081695
H	-2.1842675895	-6.8504520036	 0.5590292696	 0.10485
H	-1.4237869698	-6.1946970114	-0.9144227777	 0.108219
H	-0.4151119624	-6.628988529	 0.4955989848	 0.127025
