16
gdb 8017	3.30335	2.10551	1.58534	4.3314	64.25	-0.2667	0.0109	0.2777	838.7803	0.130596	-383.763159	-383.756079	-383.755135	-383.794322	26.987	
C	-0.1741397185	 1.581379015	 0.1091381505	-0.478563
C	 0.0465230749	 0.0959436878	 0.1125517837	 0.450904
C	-1.1305622805	-0.9096141104	 0.0838725293	-0.274424
C	-0.4174552138	-1.7685751819	 1.1727846894	-0.232462
C	 0.765231977	-0.7479214157	 1.2056194445	-0.280885
C	 1.7781337806	-1.0163237287	 0.1025900787	 0.447912
O	 2.8027830536	-1.6042923642	-0.035822114	-0.329981
O	 1.084630513	-0.310351508	-0.854709732	-0.286884
H	 0.766783068	 2.116462087	 0.2667022016	 0.134696
H	-0.5937964902	 1.9025017164	-0.850224411	 0.138756
H	-0.8756458652	 1.865800789	 0.8992466129	 0.125963
H	-2.0754403592	-0.4778056444	 0.4222368589	 0.111377
H	-1.2835239207	-1.3799026932	-0.8889285765	 0.123167
H	-0.9612546294	-1.7984097328	 2.1181455518	 0.11831
H	-0.1454707554	-2.788981195	 0.8974629789	 0.127487
H	 1.1320521657	-0.381969291	 2.1625512833	 0.104628
