17
gdb 3290	4.57025	2.5953	2.16176	1.6405	63.39	-0.2361	0.0824	0.3186	685.2513	0.149145	-309.689111	-309.682621	-309.681677	-309.719443	24.932	
C	 0.2088368813	 1.5228922914	-0.1469517128	-0.407407
C	 0.0468464008	 0.0355589256	 0.0876226382	 0.163328
O	 0.8350245966	-0.7758614299	-0.8271188342	-0.316579
C	 1.3370543164	-1.5916639861	 0.2512797829	 0.132264
C	 2.7422841613	-1.1562231326	 0.7210341838	-0.227204
C	 2.0795698047	-0.195427927	 1.7596892337	-0.234115
C	 0.6689746796	-0.6724785748	 1.3126086668	-0.099888
H	 1.2534550438	 1.8342773222	-0.0653109206	 0.121965
H	-0.1411557435	 1.7805713515	-1.151669705	 0.127936
H	-0.3860323664	 2.0916029055	 0.5762066562	 0.115264
H	-1.0158424749	-0.2337722106	-0.0114459789	 0.071157
H	 1.1273942745	-2.6549112479	 0.1030329706	 0.070234
H	 3.3241301929	-1.9599760211	 1.1808759105	 0.09826
H	 3.3385651264	-0.6903573782	-0.0665355638	 0.109084
H	 2.303833857	-0.4617620634	 2.7950313568	 0.103518
H	 2.2881200892	 0.8699831727	 1.6375967761	 0.102057
H	-0.0168968297	-1.0118500974	 2.0881002097	 0.070124
