16
gdb 16824	3.49252	2.06007	1.49308	4.5476	64.35	-0.2607	0.0117	0.2724	853.5229	0.131645	-383.781156	-383.774272	-383.773328	-383.812122	26.466	
C	 0.0767800238	 1.5452771601	-0.0759495776	-0.397751
C	 0.008287871	 0.0349350298	 0.0786051973	 0.112536
O	 0.5801001518	-0.5942217662	-1.0911324229	-0.244344
C	 1.3071353201	-1.709203234	-0.7665302966	 0.44054
O	 1.6636846639	-2.5005862988	-1.5900105686	-0.345184
C	 1.5488790178	-1.7182120631	 0.7099964206	-0.182595
C	 2.2533866368	-0.4734197537	 1.22314241	-0.29118
C	 0.7597560547	-0.5587118422	 1.2651080369	-0.061538
H	 1.1130328282	 1.890736706	-0.118687939	 0.12769
H	-0.4310739933	 1.8581085191	-0.9918895973	 0.136605
H	-0.415094568	 2.0287571266	 0.7739274424	 0.122271
H	-1.0426673387	-0.2797584808	 0.1278125125	 0.095589
H	 1.689818868	-2.6714510304	 1.1998272912	 0.119456
H	 2.7844753339	-0.5814217514	 2.1616842791	 0.128158
H	 2.7359953928	 0.1794597911	 0.5036701819	 0.135399
H	 0.2477963473	-0.618568242	 2.2174427901	 0.104348
