16
gdb 24012	4.12241	1.24517	1.03094	1.7058	82.92	-0.2013	0.0197	0.2209	1135.8986	0.125248	-363.575288	-363.567741	-363.566797	-363.607767	29.043	
C	-0.6432151388	-1.3309846347	-0.1022054871	-0.430628
C	-0.3079219572	-0.1793341626	-0.0319761111	 0.333065
C	 0.0751346197	 1.2176958152	 0.0548898261	-0.170645
C	-0.1527387704	 1.9720256159	 1.4390338521	-0.397666
C	 1.3448628856	 2.2147712725	 1.4010436282	 0.333552
C	 2.5421489206	 2.7989376017	 1.7412543125	-0.328577
C	 3.4576097827	 2.383176018	 0.718951655	-0.125585
C	 2.796819396	 1.5941597348	-0.2096985928	-0.159583
N	 1.5142974035	 1.4960227096	 0.2572441023	 0.040881
H	-0.9334342382	-2.3510250405	-0.1626570927	 0.206556
H	-0.334383437	 1.7782153024	-0.7926146229	 0.127064
H	-0.7969727643	 2.8511340971	 1.3581554821	 0.127221
H	-0.5235641995	 1.321107487	 2.2338255103	 0.131985
H	 2.7655349588	 3.4289212345	 2.5874068303	 0.096291
H	 4.5097468622	 2.6257281288	 0.6823807629	 0.093929
H	 3.1453846563	 1.0907403301	-1.0959596553	 0.122139
