16
gdb 71506	3.1005	1.58779	1.41804	3.2898	68.16	-0.2439	-0.0059	0.238	951.2954	0.125546	-437.860609	-437.853687	-437.852743	-437.891821	27.452	
C	 0.0248371245	 1.4966339379	-0.079183872	-0.529913
C	 0.0001705439	 0.0000652821	-0.0189522549	 0.308438
N	 0.6523185277	-0.8921480432	-1.0513727287	-0.367636
C	 0.0265144528	-1.8456908896	-0.069385135	-0.059373
C	 0.560046557	-0.9552697221	 1.0762882184	 0.08983
O	-0.3266410659	-0.9940592502	 2.1936389006	-0.248501
C	-1.5746248457	-1.0004030753	 1.6017727129	 0.454919
O	-2.6007008791	-1.0250219534	 2.2092670566	-0.337544
C	-1.2528149402	-0.960980901	 0.1252436212	-0.261111
H	 1.0548546324	 1.8511528681	-0.1822190161	 0.143195
H	-0.5534801766	 1.8686293087	-0.931159408	 0.131183
H	-0.4017000164	 1.923173112	 0.8341429183	 0.144743
H	 0.0949914096	-0.8791546335	-1.9097646598	 0.21568
H	 0.0795535238	-2.9289069057	-0.1763492821	 0.102118
H	 1.6033074751	-0.9503478136	 1.3778602237	 0.117588
H	-2.0670568327	-0.9551098412	-0.5959412251	 0.096382
