21
gdb 55098	4.1762	0.90238	0.84325	2.6139	84.34	-0.2387	-0.009	0.2297	1453.9817	0.180969	-387.089497	-387.080107	-387.079163	-387.124748	34.83	
C	-0.6182697124	 1.6686926462	-0.1616251913	-0.480734
C	-0.0128241838	 0.3369453845	 0.2471565334	 0.370768
O	 1.104867548	 0.2574384224	 0.7060386207	-0.301151
C	-0.8747199513	-0.8865484078	 0.0085863235	-0.073008
C	-0.7640757164	-1.4957244169	-1.4403580518	-0.318246
C	-0.6014539191	-2.874360732	-0.7876970827	 0.387992
C	-1.4578694672	-4.0736318479	-1.0735107044	-0.319278
C	 0.0282047051	-4.1046759123	-1.3619535437	-0.325111
C	-0.3846196245	-2.2383464254	 0.5908541748	-0.320627
H	 0.131017296	 2.4584923015	-0.096230208	 0.140511
H	-1.0222118181	 1.6168965092	-1.1787405118	 0.13797
H	-1.4586306387	 1.9094618939	 0.500370209	 0.140286
H	-1.9179895488	-0.6654922437	 0.2509725223	 0.078819
H	-1.6272447426	-1.3492132008	-2.0948260836	 0.103006
H	 0.1387698855	-1.1603780127	-1.9612877596	 0.111599
H	-1.827499849	-4.6503076119	-0.231082775	 0.111163
H	-2.1401596303	-4.0306083084	-1.9171569976	 0.108768
H	 0.3466359626	-4.0824921656	-2.3997184385	 0.110016
H	 0.6633304118	-4.7020657799	-0.7153261251	 0.11364
H	 0.6673509232	-2.1711526063	 0.8807082666	 0.126259
H	-0.9638309798	-2.6476790562	 1.4225745528	 0.097358
