21
gdb 78749	3.00273	1.55025	1.23374	1.4136	81.93	-0.2215	0.0985	0.32	1100.7587	0.183195	-387.072441	-387.0644	-387.063455	-387.104395	32.494	
C	-0.0929869764	 1.4797403326	 0.0244397323	-0.410843
C	-0.0016848418	-0.0405830356	-0.0281767301	 0.017878
C	 0.7641102922	-0.5684689791	-1.2448505249	-0.129337
C	 2.0116013594	-0.8321224278	-0.3862023858	-0.160426
C	 1.1303172753	-0.636753061	 0.8794192576	-0.083725
C	 0.7828321841	-2.0702613567	 1.2694295331	-0.096743
O	 0.5877422799	-2.7380442328	 0.017603821	-0.311203
C	 1.2637608517	-1.9784620334	-0.9754137323	 0.458813
C	 1.7853829488	-2.8235405106	-2.1016819114	-0.478396
H	 0.8923679979	 1.9385467608	-0.1151595103	 0.114759
H	-0.7534381832	 1.863558938	-0.7609707559	 0.113099
H	-0.4894853474	 1.8163189052	 0.9888033447	 0.110702
H	-0.9927208432	-0.4840075811	 0.1319761282	 0.068856
H	 0.7076624223	-0.167239857	-2.2524275148	 0.073424
H	 3.057349194	-0.5933179029	-0.5314929028	 0.082293
H	 1.4908138455	-0.0051585848	 1.691673153	 0.06954
H	 1.5976314094	-2.5483714021	 1.8356309531	 0.087121
H	-0.1428576223	-2.1494396124	 1.8498744326	 0.103183
H	 0.9654334875	-3.3578423198	-2.5922308533	 0.129376
H	 2.2852333037	-2.2038675747	-2.8517313977	 0.117963
H	 2.4990417926	-3.565585475	-1.7303167261	 0.123663
