23
gdb 86208	2.43489	1.30019	1.00123	1.7477	87.6	-0.2481	0.0123	0.2604	1305.4701	0.20616	-388.315746	-388.306212	-388.305268	-388.349533	37.118	
C	-0.0318533749	 1.5698306243	 0.0279769852	-0.402482
C	 0.0401467963	 0.0354521035	 0.0087223772	-0.026396
C	 0.7046606727	-0.4949765927	-1.2710636776	-0.204838
C	 0.9962629278	-1.9993490599	-1.1792272236	-0.000403
C	 1.5000438242	-2.5831674783	-2.5009592073	-0.40296
C	 1.977581922	-2.2748820293	-0.0196014177	 0.096003
O	 3.3406895043	-1.9867659068	-0.3640622444	-0.436892
C	 1.5906511079	-1.5255772151	 1.2293758099	-0.129777
C	 0.7408021243	-0.4974147034	 1.2351249705	-0.030353
H	 0.971945559	 2.0092362205	 0.0215038459	 0.114566
H	-0.5693993967	 1.9462979021	-0.8483650575	 0.114045
H	-0.5495862133	 1.9331919078	 0.9219891824	 0.112413
H	-0.9963247009	-0.3397744669	 0.0313863722	 0.085166
H	 0.0699231003	-0.2800474417	-2.1384162249	 0.089994
H	 1.6472383151	 0.0466161208	-1.440957982	 0.082326
H	 0.0564928795	-2.5045159431	-0.9106595154	 0.069894
H	 2.4481230254	-2.1232384048	-2.7917765253	 0.123939
H	 1.6712253599	-3.6618518842	-2.4173235759	 0.10896
H	 0.7724849562	-2.4182749881	-3.3024787905	 0.102722
H	 1.9793983722	-3.3532761523	 0.1833192071	 0.081461
H	 3.4632007853	-1.0371382925	-0.2620350523	 0.276616
H	 2.0788506976	-1.8389795476	 2.1490156482	 0.090783
H	 0.5177216659	 0.0065802075	 2.1746335857	 0.085216
