19
gdb 6996	2.55678	1.96507	1.53072	3.6492	72.	-0.2384	0.0407	0.2792	945.2678	0.163922	-365.10141	-365.092358	-365.091414	-365.134525	33.355	
C	-0.097780973	 1.5710904626	-0.104497443	-0.404509
C	 0.0541328802	 0.0604743457	-0.0091687241	 0.037996
N	 1.1490198928	-0.5163455694	-0.80378589	-0.34931
C	 1.7740081549	-1.1537524245	 0.2378449938	 0.426145
O	 2.7352759076	-1.8749359882	 0.3018737074	-0.377952
C	 0.7422933428	-0.5918821194	 1.2552203528	 0.123901
C	 1.350482411	 0.3554399263	 2.2865037215	-0.443551
C	-0.0839290268	-1.6930389678	 1.9193935414	-0.440945
H	 0.8504379826	 2.0846626666	 0.0724731147	 0.124988
H	-0.454970999	 1.8580050842	-1.0995885053	 0.117632
H	-0.8314661126	 1.9313687287	 0.6241980721	 0.1232
H	-0.909438238	-0.4190468039	-0.2254203848	 0.079097
H	 1.2897738691	-0.5851653824	-1.8016688589	 0.243525
H	 1.9718489657	 1.1276879722	 1.8255803692	 0.122659
H	 0.5713740252	 0.8494642158	 2.8777572751	 0.114054
H	 1.9867430378	-0.2104041305	 2.9738825236	 0.134588
H	 0.5479995322	-2.2927457173	 2.5816957451	 0.13477
H	-0.8962426264	-1.266370324	 2.5184693556	 0.113753
H	-0.5250053863	-2.3676826146	 1.1786472638	 0.119958
