22
gdb 87973	3.83333	0.99691	0.91235	2.1087	82.96	-0.2409	0.0769	0.3178	1393.1989	0.194155	-404.339232	-404.329901	-404.328957	-404.373692	35.257	
C	 0.1314240018	 1.5313370456	-0.3013784477	-0.396917
C	 0.0838492245	 0.0428373721	-0.0532057691	-0.055265
N	 1.3794166917	-0.6580405148	 0.0591749502	-0.379332
C	 0.4861744239	-0.588739338	 1.2279592011	 0.297175
C	 1.0077399386	 0.1713338703	 2.4564102631	-0.13076
O	 0.5763985848	-0.5636020215	 3.5944222012	-0.267057
C	 0.4063063568	-1.9246010423	 3.2014609106	 0.150336
C	-0.4326328506	-2.6358762641	 4.2467043734	-0.404538
C	-0.2089279974	-1.822881561	 1.7969438795	-0.317198
H	 0.9678943491	 1.9890929559	 0.2328155568	 0.128334
H	 0.2625179344	 1.740835053	-1.3683656587	 0.120196
H	-0.796360301	 2.0140482284	 0.0251529189	 0.116277
H	-0.7048527885	-0.4770956915	-0.5986200261	 0.077495
H	 1.3263906319	-1.5760559829	-0.3761824883	 0.223577
H	 2.1046878318	 0.2311812816	 2.4086567136	 0.103623
H	 0.6081917601	 1.1864604742	 2.5459855408	 0.105125
H	 1.3951486942	-2.4114900319	 3.1264018857	 0.064876
H	-1.4165923442	-2.1640702433	 4.3309122896	 0.121063
H	-0.569855941	-3.6881270582	 3.9788200965	 0.113675
H	 0.0546226721	-2.5905085708	 5.2245883098	 0.126914
H	-1.2895681732	-1.6575161976	 1.8835852817	 0.105899
H	-0.0494521899	-2.7184811033	 1.1886762374	 0.096503
