17
gdb 13345	4.99382	1.19364	1.11222	3.1913	66.85	-0.2551	0.0174	0.2725	1093.1432	0.142827	-400.995963	-400.988039	-400.987095	-401.029988	27.626	
N	-0.6761184926	 1.2523885759	-0.3788743245	-0.439162
C	-0.3303357709	 0.0610635343	-0.1469804396	 0.12424
O	-1.2645343713	-0.8946592264	 0.0168303136	-0.194246
C	-0.8097869667	-2.2506462286	 0.1137464545	 0.074599
C	-1.9078568964	-3.0580362721	 0.8114842656	-0.23673
C	-2.7873896252	-3.4631920544	-0.3738611046	-0.072698
O	-1.8636945959	-3.7645139208	-1.4147603094	-0.254467
C	-0.7284086718	-2.9179402038	-1.280364297	-0.076808
H	 0.1478726837	 1.8465942622	-0.4418970111	 0.229545
H	 0.6994749695	-0.3094391263	-0.0388622816	 0.082778
H	 0.1481239801	-2.2732920873	 0.6442112836	 0.086899
H	-1.471906129	-3.9463797816	 1.2780763477	 0.112725
H	-2.4194229272	-2.4661064283	 1.5719224679	 0.123353
H	-3.3922686313	-4.3555578054	-0.1942249586	 0.111434
H	-3.4535164295	-2.6366712745	-0.6629242703	 0.110982
H	-0.7195650719	-2.1445201196	-2.0599178635	 0.112349
H	 0.1735057764	-3.5320866433	-1.3880871128	 0.105208
