16
gdb 17257	4.39548	1.88836	1.84935	0.6187	63.48	-0.2441	0.0821	0.3261	776.9255	0.131866	-383.690755	-383.684661	-383.683716	-383.720793	24.677	
C	 0.0273155702	 1.4733110642	-0.0187170339	-0.27741
O	 1.1825446392	 0.6153940629	-0.0130863223	-0.287684
C	-0.1093685945	 0.0212461864	-0.0056653602	 0.487954
C	-0.5645964071	-0.8767250631	 1.1614326277	-0.317665
C	-1.0922103818	-2.0305379135	 0.2795081559	 0.074915
C	 0.0146173418	-2.241118254	-0.7790286699	-0.234698
C	-0.5380871102	-0.8572699417	-1.1819969221	-0.010411
O	-1.8603773402	-1.294452002	-0.7334259022	-0.297922
H	-0.1343400607	 2.0388818346	 0.8980478705	 0.117154
H	-0.134973902	 2.030276015	-0.94093637	 0.116431
H	 0.2685411394	-1.1549554118	 1.8121953443	 0.116977
H	-1.3630523611	-0.4329012479	 1.7598277476	 0.116405
H	-1.6386265096	-2.847341357	 0.7491170926	 0.085303
H	 1.0559752897	-2.3240236012	-0.4593213323	 0.111879
H	-0.2537276683	-3.0112905203	-1.5023087527	 0.114081
H	-0.5017921247	-0.4466583105	-2.190066263	 0.084692
