23
gdb 122185	3.43159	0.71245	0.67578	2.1851	81.9	-0.2427	0.0723	0.315	1751.942	0.204166	-425.401852	-425.391281	-425.390337	-425.438761	37.703	
C	 0.0456437102	 1.6512818604	 0.1272827388	-0.46648
C	 0.017424521	 0.1288060915	 0.023543018	 0.299105
C	-1.4042606655	-0.4487939879	-0.0065347031	-0.259152
C	-2.2673867875	 0.0211330547	-1.1827312637	-0.180071
C	-3.6118190722	-0.6926140339	-1.2432406171	-0.072296
O	-4.335425691	-0.167391971	-2.345717029	-0.421914
C	 0.9684354239	-0.4831814569	-1.0415539484	-0.106414
O	 1.7044683756	-1.2136737807	-0.0414149924	-0.27376
C	 0.9444222001	-0.6122612642	 1.0241582682	-0.116534
H	 1.0740956274	 2.017507614	 0.2083098203	 0.117972
H	-0.4052828635	 2.1248102994	-0.750426855	 0.124269
H	-0.5033563186	 1.9967598868	 1.0111441748	 0.114571
H	-1.3280811307	-1.544442304	-0.0310479507	 0.10051
H	-1.9061260832	-0.1996929634	 0.9393487645	 0.093945
H	-2.4584080427	 1.0978668346	-1.1202659393	 0.110678
H	-1.745193866	-0.1496636038	-2.1325242699	 0.107851
H	-3.4522518472	-1.7782087414	-1.3509255246	 0.085202
H	-4.1574814756	-0.5378624798	-0.2974529916	 0.083691
H	-5.1821384849	-0.6204566288	-2.3938233646	 0.285553
H	 0.5056132211	-1.1510047031	-1.7792529727	 0.095986
H	 1.6022635271	 0.2420944423	-1.5695003326	 0.093174
H	 1.5644745211	 0.0411111169	 1.6532453612	 0.090702
H	 0.4618111911	-1.3645424719	 1.661582469	 0.093412
