20
gdb 32091	2.94533	1.15094	0.89087	2.4696	89.75	-0.2429	-0.0182	0.2247	1372.9404	0.172061	-366.088499	-366.079443	-366.078499	-366.123498	32.988	
C	-0.0240377831	 1.5919298508	 0.0235795062	-0.365819
C	-0.0113390791	 0.0534915635	-0.0077061299	-0.291963
C	 0.6987220637	-0.5001200979	-1.2201327954	 0.272234
C	-0.0016856259	-0.816728013	-2.3886089134	-0.067513
N	 0.5666341921	-1.276135462	-3.5027432049	-0.271982
C	 1.8906488948	-1.4439601839	-3.4912073853	-0.065294
C	 2.7082513424	-1.1746329844	-2.3918530862	 0.27311
C	 4.1972369918	-1.4010484501	-2.4458855075	-0.49623
C	 2.0783518842	-0.6932429117	-1.2433624611	-0.237123
H	 0.9945934019	 1.9929035309	 0.0360501146	 0.119712
H	-0.5282518163	 1.9965743121	-0.8595418492	 0.124678
H	-0.5451849678	 1.9604511985	 0.9126598783	 0.114917
H	 0.4702348082	-0.3232225118	 0.9021791142	 0.104276
H	-1.0428232729	-0.3165057539	 0.0089699245	 0.107506
H	-1.0835160315	-0.6936984797	-2.4173794136	 0.097465
H	 2.3334918456	-1.8207738297	-4.4117734964	 0.097833
H	 4.7504389757	-0.4800258286	-2.2310225968	 0.132667
H	 4.5152972166	-2.1464174028	-1.708210856	 0.133733
H	 4.5073409822	-1.7550570083	-3.4326739442	 0.128237
H	 2.6687001771	-0.470536398	-0.3567814678	 0.089556
