18
gdb 49195	4.24255	1.10426	0.98507	3.4018	80.73	-0.2231	-0.0611	0.162	1212.1958	0.149118	-401.945365	-401.937748	-401.936804	-401.977838	28.918	
O	 0.0215197708	-0.1048119406	-0.1949669438	-0.267179
C	 0.0824296889	 1.0718917121	 0.0881734864	 0.070553
C	 1.2994143197	 1.8774515735	-0.0288629411	 0.233573
C	 1.3970610682	 3.1825252341	 0.2655988935	-0.184663
C	 2.7851909338	 3.6858365855	-0.0070196602	-0.015701
C	 3.7113151168	 3.9460046331	 1.2133177785	-0.246292
C	 4.2477573683	 2.5125320797	 0.9777097285	-0.163457
N	 3.568443952	 2.4566075219	-0.3466153077	-0.09619
C	 2.6266787847	 1.3421174848	-0.5391175197	-0.283275
H	-0.8091047557	 1.6208009732	 0.4654075551	 0.06962
H	 0.5858546809	 3.8094556423	 0.6212650415	 0.114718
H	 2.7835674686	 4.4703149156	-0.7760076168	 0.091428
H	 4.4464472181	 4.730362932	 1.0262253573	 0.116364
H	 3.2190411899	 4.134088511	 2.1684844692	 0.108507
H	 5.3340713044	 2.394131224	 0.9210030949	 0.108425
H	 3.8542251772	 1.7835909676	 1.6993500863	 0.098477
H	 2.9579248618	 0.4519381294	 0.0078734906	 0.123449
H	 2.5515094317	 1.0504734707	-1.5948760326	 0.121646
