16
gdb 79673	2.74408	1.52674	1.19822	1.4816	76.99	-0.2203	0.017	0.2373	1046.9458	0.122585	-400.609969	-400.601968	-400.601024	-400.642087	31.456	
O	 0.1043956341	 1.4429684915	-0.1424492232	-0.415454
C	-0.0435790691	 0.0622314133	 0.0258988313	 0.026224
C	-0.4721773119	-0.6993074446	 1.2443029914	-0.113787
N	-1.5953168233	-0.2122507791	 2.1131945696	-0.146374
C	-2.1016121731	 1.1148548095	 1.6632913315	-0.254111
C	-2.451543787	-0.0930231988	 0.8919752918	-0.084646
C	-1.3592476584	-0.6545916295	-0.0511561368	 0.090253
C	-1.6428002596	-1.6572358308	-1.0166067341	 0.206983
C	-1.9073395982	-2.5044557473	-1.8303154627	-0.402821
H	 0.9210785218	 1.7044110518	 0.298917004	 0.292256
H	 0.7090194601	-0.5170698218	-0.5146083501	 0.112591
H	 0.1096259028	-1.5250190734	 1.6372008697	 0.116391
H	-2.8658355398	 1.4804804627	 2.3440843267	 0.122622
H	-1.4298019419	 1.8556314108	 1.2590919198	 0.152227
H	-3.4430116566	-0.5323396269	 0.8747178874	 0.107806
H	-2.13435924	-3.2501609174	-2.5510403762	 0.18984
