18
gdb 47493	2.8763	1.41276	1.08239	3.9729	72.35	-0.2402	0.0295	0.2698	1121.1933	0.149402	-439.1142	-439.106323	-439.105379	-439.146831	30.352	
O	 0.0111788204	-0.082565751	 0.1840582519	-0.373644
C	-0.0031821548	 1.1314208009	 0.1159560363	 0.398334
C	-1.3182946127	 1.9129821984	 0.0778582362	-0.386121
C	-1.1799395647	 3.398208918	 0.3362635881	 0.411999
C	-2.3332991855	 4.2017848602	 0.7525820461	-0.246041
O	-1.3409083649	 3.8062959214	 1.7056547088	-0.279259
C	 0.0120488984	 4.0144217543	-0.3613990159	-0.276823
C	 1.2794205832	 3.3120248184	 0.1302841801	-0.155803
N	 1.1470106885	 1.8651951781	 0.0026672813	-0.312888
H	-1.7488854388	 1.744916689	-0.9175445561	 0.135504
H	-1.9951966694	 1.4544867395	 0.8017381249	 0.142686
H	-2.3633828066	 5.2663045706	 0.5217067346	 0.112936
H	-3.3072183291	 3.7276362644	 0.8697921341	 0.116243
H	-0.0882076718	 3.8885610505	-1.4460423627	 0.112058
H	 0.0747157546	 5.0834903477	-0.1431216586	 0.113234
H	 2.1462550184	 3.6345338161	-0.4551592138	 0.112896
H	 1.4612163803	 3.5986955332	 1.175758442	 0.12763
H	 1.9844712046	 1.3049447404	 0.0761106626	 0.247057
