17
gdb 125051	2.93784	1.2651	0.93762	3.3218	72.24	-0.2109	0.0092	0.2201	1226.564	0.135587	-455.142685	-455.133421	-455.132477	-455.176802	33.534	
C	 0.1256333779	 1.5205142916	 0.1066810331	-0.530486
C	 0.0451508749	 0.0265951862	 0.0472096018	 0.004833
C	 0.0272540086	-0.7945397981	-1.0484262549	 0.40116
N	 0.0074338329	-0.5445918799	-2.4010337384	-0.594057
O	-0.0432991515	-2.0832607993	-0.6856731918	-0.219169
N	-0.0737205037	-2.1544029347	 0.7221706093	-0.232602
C	-0.0305549394	-0.904959251	 1.1232633326	 0.301289
C	-0.0301150858	-0.6100330451	 2.5952484014	-0.177349
O	 1.1148985771	 0.136055002	 2.996652947	-0.409452
H	 0.7114004568	 1.926902167	-0.726734306	 0.109039
H	-0.8611487165	 1.9986165674	 0.0688963353	 0.130938
H	 0.612979943	 1.8316877928	 1.0338715174	 0.155463
H	 0.3900016893	 0.3520889765	-2.6636604335	 0.262368
H	 0.3684397818	-1.3008708125	-2.9660040719	 0.26603
H	-0.8899162348	 0.0154462542	 2.8566698314	 0.122521
H	-0.1215490984	-1.5554090585	 3.1456575527	 0.120612
H	 1.8907368479	-0.3917587986	 2.7793841844	 0.288859
