21
gdb 84829	2.62685	1.48729	1.10745	1.8308	83.43	-0.2463	0.0176	0.2639	1163.1492	0.183457	-387.097164	-387.088614	-387.087669	-387.129725	34.234	
C	-0.2314241112	 1.5406628917	 0.2876159411	-0.467307
C	 0.0620971079	 0.0940881129	-0.0562992546	 0.335464
C	-0.8559284018	-0.9664451645	 0.503031605	-0.340511
C	 0.5526730482	-0.8198367715	 1.0450452704	-0.081408
C	 1.5780851469	-1.9025474944	 0.7679077325	 0.065016
O	 1.3367067136	-3.0719529792	 1.5547782106	-0.435041
C	 1.6905507968	-2.2422597055	-0.6950949895	-0.098709
C	 1.2611087063	-1.4564451735	-1.6810797537	-0.066198
C	 0.6097955334	-0.1185614236	-1.4622431619	-0.326616
H	 0.6771835437	 2.1523479576	 0.2385245531	 0.115276
H	-0.9598722642	 1.9719651149	-0.4096925863	 0.1152
H	-0.6432104285	 1.6338181426	 1.2973713175	 0.113842
H	-1.6793712093	-0.6506812713	 1.1346188412	 0.107333
H	-1.074547097	-1.8251546796	-0.1246512684	 0.108559
H	 0.634434539	-0.3848222127	 2.0371172476	 0.083197
H	 2.5581452108	-1.5538413957	 1.1222309463	 0.096094
H	 0.4356180963	-3.3549885169	 1.3618924976	 0.276859
H	 2.1727387306	-3.1927412054	-0.9081226434	 0.093815
H	 1.3998838243	-1.7653600041	-2.7146223764	 0.089027
H	-0.1954402809	 0.0267396519	-2.1962320539	 0.105049
H	 1.3436924152	 0.6722230266	-1.682753175	 0.111058
