16
gdb 53884	4.04543	0.82852	0.72631	1.1708	68.34	-0.2435	-0.041	0.2025	1487.0512	0.123088	-471.252271	-471.242662	-471.241718	-471.288203	33.518	
N	-0.2348104537	 1.1044202814	-0.6517254078	-0.522149
C	-0.0347740945	-0.0430754698	 0.0191158387	 0.409705
O	 1.0016249657	-0.3801780243	 0.5710287201	-0.389292
C	-1.2660768023	-0.9499669038	 0.0462169563	 0.275649
N	-2.3414866001	-0.5542897091	-0.5267721973	-0.55842
N	-1.0025592267	-2.1011568218	 0.720061682	-0.308175
C	-1.9895029795	-3.113815337	 0.9743318153	-0.273559
C	-2.3710004735	-3.9053131965	-0.2798631649	 0.160585
O	-3.4531319281	-4.3959405684	-0.454964109	-0.227078
H	 0.5068861516	 1.778798904	-0.7250674242	 0.267627
H	-1.144849067	 1.2647912074	-1.0565570016	 0.285234
H	-3.1097643617	-1.2208748862	-0.457118098	 0.224382
H	-0.0737947036	-2.1443126224	 1.1167393037	 0.270866
H	-1.5748653997	-3.8305781274	 1.6928047207	 0.148467
H	-2.9069031952	-2.7043872844	 1.4170897732	 0.142797
H	-1.5442104217	-4.0008651717	-1.0196981671	 0.093363
