14
gdb 29070	2.77482	1.65363	1.03615	3.6461	77.99	-0.2437	-0.0818	0.1618	1057.7939	0.102794	-436.719954	-436.712775	-436.711831	-436.752043	27.096	
O	-0.0722832691	 1.3391071839	 0.0096296099	-0.365735
C	 0.011436313	 0.0051827913	 0.0026058375	 0.285123
C	 1.2235189408	-0.6294690393	-0.0077693202	-0.219423
C	 1.5404027877	-2.0170552176	-0.0163167296	 0.035378
N	 0.8029934332	-3.0886615521	-0.0181702261	-0.285038
C	-0.559532362	-3.0715580483	-0.0113347745	 0.00161
C	-1.4767342991	-2.0629441507	-0.0002969695	-0.150307
C	-1.3502790284	-0.6151087495	 0.0081481989	 0.28931
O	-2.3299834849	 0.1141418022	 0.0192711366	-0.348487
H	 0.813207824	 1.7246437089	 0.0058581357	 0.310475
H	 2.0996447118	 0.0196551363	-0.0096032679	 0.090962
H	 2.6142114697	-2.2158599095	-0.0226856067	 0.117526
H	-0.9784475644	-4.0772394868	-0.0154084817	 0.117889
H	-2.5206478223	-2.3655033387	 0.0034571877	 0.120716
