17
gdb 116612	2.69346	1.03337	0.81336	3.7556	77.14	-0.2713	-0.0008	0.2706	1424.901	0.135469	-418.012832	-418.003715	-418.002771	-418.048162	31.649	
C	-0.5651402891	 0.0937802503	 0.8570311437	-0.361804
C	 0.369144388	 0.5617783837	-0.2589298889	-0.157059
N	 0.6613083729	-0.545969728	-1.1679566234	-0.311336
C	 1.8372067978	-0.8326446736	-1.4496478382	 0.472791
O	 3.047394848	-0.2710876949	-1.0708519139	-0.258164
C	 3.8075123898	-1.2693405511	-1.8049164679	-0.085704
C	 2.4894914853	-1.9029308309	-2.3295918317	-0.319817
C	 2.2311571393	-3.292121303	-1.99538206	 0.292377
N	 2.0476708233	-4.4000514227	-1.7241079343	-0.313618
H	-1.4780191823	-0.3375490714	 0.4374658236	 0.130983
H	-0.0825087232	-0.6699990817	 1.4739751238	 0.124386
H	-0.8382607768	 0.9341181112	 1.5025905594	 0.113494
H	-0.1297877196	 1.3410681605	-0.8479237355	 0.116154
H	 1.2802644296	 1.0044762773	 0.1633514876	 0.114099
H	 4.444402131	-0.8093922591	-2.5626122734	 0.137072
H	 4.3913077569	-1.9010322719	-1.1331166513	 0.147282
H	 2.3130085291	-1.7342618148	-3.3947129796	 0.158864
