18
gdb 17485	3.48045	2.43251	1.92796	1.6044	69.84	-0.2208	0.0893	0.3102	773.7086	0.1551	-347.781937	-347.775335	-347.774391	-347.812144	27.106	
C	 0.0019801844	 1.49391232	 0.0695165154	-0.480014
C	-0.0516032012	-0.0038758701	-0.0852544547	 0.428108
C	 0.7697700386	-0.647576831	-1.2042017117	-0.230855
C	 0.3746071581	-2.1485861012	-1.1286290741	-0.232769
C	-0.9135575874	-2.1530127921	-0.3029529558	-0.08493
C	-0.8367286559	-1.4981510006	 1.0619496447	 0.098579
O	 0.3360068512	-0.6935428477	 1.1671550421	-0.342504
C	-1.4179088113	-0.7389424164	-0.084964449	-0.200416
H	 1.0286992579	 1.8200962427	 0.2643673349	 0.127053
H	-0.347973666	 1.9878510522	-0.8433892707	 0.116154
H	-0.6240021307	 1.818273036	 0.9049653462	 0.12675
H	 0.489645808	-0.209642534	-2.1696736227	 0.094335
H	 1.8408028155	-0.4824047813	-1.0544342939	 0.103424
H	 0.2062882484	-2.5743620787	-2.1218299337	 0.096997
H	 1.1571687717	-2.7413324963	-0.645993029	 0.109742
H	-1.6374219417	-2.952677449	-0.4179563392	 0.084308
H	-1.264876753	-1.8971939282	 1.9744703845	 0.096768
H	-2.4008741565	-0.3367791542	-0.2887730435	 0.089271
