17
gdb 111741	2.34118	1.39708	1.07646	2.6246	71.28	-0.2478	-0.0307	0.2171	1155.6125	0.133637	-458.907338	-458.898578	-458.897634	-458.941283	31.104	
C	 0.3804897426	 0.9964358196	-0.2476697654	-0.242485
O	-0.3521477209	 0.0076560768	 0.4582176423	-0.227136
C	 0.4110285941	-0.6773339033	 1.3791779793	 0.046417
C	 0.0368077729	-2.036817157	 1.8064967856	 0.009991
O	-0.5715834307	-2.8058481072	 0.7966903676	-0.268555
C	 0.6014728471	-2.6940725207	-0.0587829874	-0.134845
C	 1.3375116435	-1.8228344905	 0.953599699	 0.10842
C	 2.7504508502	-1.9276809362	 1.3108862704	 0.05501
O	 3.5485859408	-2.6294734856	 0.7314304659	-0.27509
H	 1.2292017331	 0.5577284865	-0.7899229184	 0.120685
H	-0.3084466905	 1.4518803607	-0.9611670902	 0.139959
H	 0.7610983312	 1.7738179258	 0.4305726033	 0.114584
H	 0.8505117471	-0.0692409398	 2.1759326623	 0.101461
H	-0.0892513947	-2.3527118381	 2.8371430627	 0.124922
H	 1.0734416564	-3.6700723971	-0.1937927928	 0.137698
H	 0.3622989658	-2.2417752537	-1.0251261725	 0.122781
H	 3.0569368019	-1.2976624001	 2.1777379484	 0.066184
