21
gdb 69319	2.78323	1.3285	1.25744	2.3764	77.78	-0.2504	0.0714	0.3218	1130.0608	0.18153	-424.228167	-424.219151	-424.218207	-424.260894	36.333	
C	-0.0429316697	 1.5394676527	-0.0041294009	-0.442352
C	 0.0390193125	 0.0131639735	 0.0011033837	 0.385749
O	-1.2772485415	-0.5530267449	 0.05912576	-0.476379
C	 0.81693414	-0.5705199196	-1.2115293085	-0.26963
C	 1.3168260939	-1.9520047688	-0.7430301219	-0.279888
C	 1.5303331573	-1.7855487442	 0.755988554	 0.414928
O	 1.5349390172	-2.930716541	 1.5532350984	-0.475951
C	 2.2739194063	-0.5570920388	 1.2226744135	-0.377714
C	 0.7556172464	-0.5800071895	 1.2047863675	-0.072155
H	 0.9517548762	 1.9914055721	 0.0545270864	 0.11653
H	-0.5200960555	 1.90204626	-0.9235472081	 0.10092
H	-0.6346095188	 1.889048324	 0.8469326704	 0.122822
H	-1.7863228961	-0.181840626	-0.6695763106	 0.272459
H	 0.1735097937	-0.6271986772	-2.0947372166	 0.08869
H	 1.6576592999	 0.0809187175	-1.4724854644	 0.09787
H	 0.542141373	-2.7121961986	-0.884543839	 0.117556
H	 2.2144791774	-2.2801068269	-1.2798473477	 0.083665
H	 2.3907556751	-3.3606302128	 1.4494534111	 0.279466
H	 2.7249310864	-0.6294027597	 2.2062064226	 0.11227
H	 2.8236749295	 0.0608176495	 0.5191707649	 0.10375
H	 0.2268217269	-0.5810416015	 2.1504372752	 0.097395
