15
gdb 9233	4.40949	1.19271	1.03185	2.4843	63.92	-0.263	0.0023	0.2653	1105.5378	0.118207	-395.992672	-395.983972	-395.983027	-396.026409	30.563	
N	-0.2656293171	 1.1470725699	-0.5038602833	-0.546607
C	-0.1166516263	-0.1563705754	-0.1234568695	 0.364365
C	 1.3160549303	-0.6696451514	-0.0619347918	-0.105314
O	 1.3883098403	-1.9537944737	 0.4749627005	-0.418662
N	-1.0272394862	-0.9897841213	 0.2222221523	-0.312413
C	-2.4223036267	-0.5908538579	 0.2693755901	-0.289466
C	-2.9513973928	-0.0375570395	-0.9908053704	 0.248023
N	-3.3105237668	 0.4318435045	-1.9850501339	-0.31739
H	 0.5397718564	 1.6068491972	-0.9000230598	 0.265669
H	-1.1466898292	 1.4481220843	-0.8942310545	 0.280781
H	 1.7276155509	-0.6396798876	-1.0861617394	 0.107556
H	 1.9111199103	 0.0379796273	 0.5377811237	 0.111251
H	 0.4589989071	-2.2202415303	 0.5921630778	 0.291346
H	-3.0276593097	-1.4637902668	 0.5323475919	 0.164144
H	-2.5967312705	 0.1623050808	 1.0532152363	 0.156714
