16
gdb 27903	2.05452	1.85478	0.97651	1.6811	78.09	-0.1989	0.0233	0.2223	1151.0861	0.127956	-430.340723	-430.332615	-430.331671	-430.372679	32.545	
N	 0.028124765	 1.3588950735	 0.1845843023	-0.571926
C	-0.0105462938	-0.0096208034	 0.0474781842	 0.392016
C	-1.2197126451	-0.7075506785	 0.0025702487	-0.289596
C	-1.1238157239	-2.0990489823	-0.075519207	 0.392908
N	-2.2418778543	-2.8952508929	-0.1637416943	-0.571615
N	 0.0522773817	-2.7412464353	-0.1087339456	-0.395393
C	 1.1377430369	-1.9588607283	-0.0775516401	 0.422817
N	 2.347347731	-2.5977918465	-0.1719126356	-0.559109
N	 1.1800280214	-0.6237623919	 0.004456691	-0.395004
H	 0.9174938055	 1.7723777149	-0.0504439707	 0.252354
H	-0.779113923	 1.8769277234	-0.1223027383	 0.248877
H	-2.1760743256	-0.2000010101	 0.0353810185	 0.066479
H	-3.1044514445	-2.5266423325	 0.202386593	 0.248844
H	-2.0728882934	-3.8701572209	 0.0309953615	 0.251944
H	 2.3403110852	-3.5824802051	 0.0360043381	 0.253031
H	 3.147832887	-2.0690870142	 0.1324855541	 0.253372
