20
gdb 82474	2.64476	1.74249	1.51425	1.2509	77.84	-0.2281	0.0779	0.3059	993.9801	0.172233	-403.105624	-403.097958	-403.097014	-403.137219	31.238	
C	 0.0192138172	 1.5393243661	-0.0224605045	-0.419646
C	 0.0782757336	 0.0159567743	 0.0102572381	 0.033585
C	 1.088903791	-0.6296825009	-0.9634856572	 0.03276
O	 2.3419107093	-0.0093884102	-0.5543792877	-0.323819
C	 2.235869591	-0.8265023018	 0.6165273051	 0.482883
C	 3.4483956567	-0.9382453376	 1.4845816047	-0.516615
C	 1.4633746156	-1.9381558617	-0.1191173013	-0.106186
N	 0.5727758299	-2.1036207961	 1.0323837907	-0.316462
C	 0.7584726296	-0.6397667508	 1.2408932796	-0.11358
H	 1.0209489406	 1.9675187508	 0.0481804458	 0.137525
H	-0.4375298845	 1.8969325367	-0.9517484101	 0.111786
H	-0.5824569817	 1.9203228084	 0.8096918394	 0.109634
H	-0.9270436373	-0.4051985657	-0.1158668841	 0.060664
H	 0.9195493668	-0.6087916981	-2.0390971339	 0.074298
H	 3.683087298	 0.0269625631	 1.9459389514	 0.127997
H	 3.2664490872	-1.6666044768	 2.2795256962	 0.140682
H	 4.31592226	-1.259648377	 0.9007698905	 0.128107
H	 1.8957766422	-2.8059289803	-0.6166272655	 0.080198
H	-0.3868663447	-2.367326026	 0.8090511178	 0.209261
H	 0.5670657695	-0.2400469965	 2.2372074548	 0.066929
