18
gdb 86373	2.78818	1.13935	1.03872	1.6669	69.76	-0.2528	0.0195	0.2723	1212.4865	0.147821	-476.229942	-476.22118	-476.220236	-476.263908	32.781	
O	 0.2603476767	 1.525633968	 0.1519930865	-0.447781
C	 0.2835942765	 0.1105520701	 0.1043976764	 0.099629
C	 0.2474069806	-0.5671750829	 1.501616275	-0.268475
C	-1.293328211	-0.61169902	 1.3978631126	 0.078137
O	-1.8084237045	 0.594008899	 1.9521359537	-0.439068
C	-1.1322749131	-0.4946035679	-0.1542078109	 0.010063
N	-2.0371592947	 0.3518031672	-0.8830392205	-0.291026
C	-3.0642005093	-0.1312154586	-1.6381495202	 0.142504
O	-3.4220446741	-1.2889277734	-1.6595474451	-0.317611
H	-0.3040256565	 1.7611230845	 0.902851124	 0.288181
H	 1.0798802196	-0.1667034438	-0.5891729289	 0.091429
H	 0.6892649686	-1.5663125021	 1.4892483096	 0.116495
H	 0.6581157664	 0.0068785922	 2.3346058087	 0.118728
H	-1.8227278433	-1.4866455822	 1.7904830512	 0.082927
H	-2.6641517435	 0.7535753101	 1.5343784803	 0.289925
H	-1.0953125532	-1.4835619547	-0.6161707298	 0.112483
H	-1.7248153431	 1.3042763145	-1.0176218256	 0.254487
H	-3.554340362	 0.6675295001	-2.2293906771	 0.078976
