18
gdb 32706	3.98238	1.08588	0.91785	2.6446	86.89	-0.2059	-0.0432	0.1627	1302.3952	0.148447	-401.981193	-401.972854	-401.97191	-402.014878	31.07	
C	-0.0379559216	 1.3961360206	-0.3580464481	-0.366271
C	-0.0420755532	-0.0513351647	 0.1516538269	-0.133238
N	-1.3825442569	-0.6167941824	 0.1492063656	-0.323866
C	-1.8320635618	-1.1905436267	-0.8875969281	 0.406537
O	-1.0444901758	-1.29559489	-2.0500328009	-0.248597
C	-1.4972950386	-1.9290794725	-3.1525316074	 0.081982
C	-2.7162987723	-2.4853312247	-3.2394598779	-0.195775
C	-3.5824809063	-2.3984953905	-2.0912846926	-0.073038
C	-3.1553005845	-1.7779823171	-0.9719891471	-0.173033
H	 0.9617845449	 1.8332297762	-0.2668413355	 0.107695
H	-0.3356930223	 1.4379458182	-1.4099983634	 0.117814
H	-0.7372596278	 2.0079286716	 0.2192919936	 0.123359
H	 0.6593835281	-0.6494904238	-0.4456592514	 0.096845
H	 0.3151147288	-0.0658657097	 1.1873009365	 0.097522
H	-0.7567917301	-1.9231306321	-3.9436346547	 0.133862
H	-3.0236418984	-2.9770330387	-4.1522696976	 0.11204
H	-4.5742536784	-2.8357417647	-2.1344863816	 0.112765
H	-3.7627320139	-1.6876408289	-0.0808963161	 0.123398
