17
gdb 91853	3.63718	1.20799	1.11564	5.4917	72.97	-0.2505	0.0187	0.2692	1111.022	0.137368	-417.999564	-417.991737	-417.990793	-418.0317	30.377	
O	-0.621102946	 1.2002185234	 0.8577615119	-0.422443
C	-0.0268117549	 0.1444076312	 0.105042181	 0.071719
C	 0.8391981776	-0.8063420812	 0.9659584588	-0.183142
N	-0.0022231759	-1.9127800954	 1.4579932937	-0.124738
C	-1.2626005313	-1.4907239595	 2.0765541942	-0.275686
C	-1.2396052768	-1.8866200396	 0.6341168955	 0.173889
C	-1.1593803878	-0.7651105285	-0.4023368911	-0.277017
C	-1.7927941425	-3.1504044123	 0.2135998831	 0.221011
N	-2.263993296	-4.1434372624	-0.1451408218	-0.340249
H	 0.0847432616	 1.7584503458	 1.2000174872	 0.287829
H	 0.5513672931	 0.5607175161	-0.7301994064	 0.084079
H	 1.6358534075	-1.2482004047	 0.3577085748	 0.121203
H	 1.3068163438	-0.2863287374	 1.8085915023	 0.110106
H	-1.6551836092	-2.1934405309	 2.8048068123	 0.136106
H	-1.4231669343	-0.4386397803	 2.2875599192	 0.148727
H	-2.0910421579	-0.2046905873	-0.5025723131	 0.139802
H	-0.9068314208	-1.1886197271	-1.3780950017	 0.128803
