18
gdb 15881	2.80591	1.79648	1.25479	3.4402	67.89	-0.2476	-0.0286	0.219	998.0618	0.152819	-384.947539	-384.939157	-384.938213	-384.980561	30.93	
C	-0.2821871558	 1.5315451699	-0.1194960915	-0.396419
C	 0.0123884342	 0.0349098328	-0.0610633408	-0.030017
C	 1.3049504092	-0.3861235295	-0.8436291107	-0.345797
C	 1.9876282213	-0.5661787067	 0.5148689806	 0.398371
O	 3.1303920011	-0.5872751761	 0.8903686864	-0.3195
C	 0.6622160774	-0.4942110031	 1.2725099167	-0.11749
C	 0.7139872889	 0.3051010038	 2.5762229441	-0.086409
O	 1.5964475765	-0.3155349198	 3.4913677715	-0.423938
H	 0.6050114652	 2.1302045672	 0.1144897295	 0.123358
H	-0.6132063183	 1.8159603849	-1.1236077241	 0.121092
H	-1.0710471315	 1.8143988661	 0.5847920473	 0.124209
H	-0.8769365705	-0.5285184661	-0.351021358	 0.081956
H	 1.2043763402	-1.3380098249	-1.3748881678	 0.133431
H	 1.7553664912	 0.3459980773	-1.5197678601	 0.128517
H	 0.3149250684	-1.5095566587	 1.498511525	 0.112023
H	 1.0132951269	 1.3444259022	 2.3719516449	 0.089914
H	-0.2703789806	 0.3382622999	 3.0553528128	 0.110084
H	 2.4479998362	-0.3976848194	 3.0410985441	 0.296615
