15
gdb 23251	3.21218	1.47153	1.10409	3.8377	70.34	-0.2435	-0.0662	0.1774	1053.0416	0.112911	-453.898092	-453.890545	-453.889601	-453.930526	28.543	
O	-0.0696029448	 1.309948089	 0.0977246449	-0.34337
N	-0.0021100841	-0.0653109759	 0.1135420662	-0.197091
C	-1.1329346783	-0.6508432718	 0.0029220509	 0.276186
C	-1.2319829542	-2.1577875465	-0.0148555233	-0.323365
C	-2.7346757935	-2.4021100419	 0.0643876119	-0.02725
C	-3.4953117508	-1.8647985697	 1.211978108	-0.252187
N	-3.4781294783	-1.1306269054	-0.0835427611	-0.135645
C	-2.5229714785	-0.0554468307	-0.0744687565	 0.321186
O	-2.8280058366	 1.1029534975	-0.1156505182	-0.2942
H	 0.8563856572	 1.5621340949	 0.1952673371	 0.31675
H	-0.8358488355	-2.5580059013	-0.9544256552	 0.138047
H	-0.6728320855	-2.6273468534	 0.7994121511	 0.136968
H	-3.1461642877	-3.2363113767	-0.4945531123	 0.110029
H	-4.4634658917	-2.2779508133	 1.4749553041	 0.139539
H	-2.9422166479	-1.4306637948	 2.0422465523	 0.134402
