19
gdb 48441	2.34368	1.53603	1.17411	3.4593	75.59	-0.2391	-0.0234	0.2157	1121.0027	0.157804	-422.998249	-422.989396	-422.988452	-423.032588	32.266	
O	-0.5381061646	 0.2130528825	 0.3918437735	-0.243997
C	-0.2670245606	 1.3598506076	 0.1618807923	 0.120928
C	 1.1438702818	 1.9116276904	 0.0007827827	 0.317531
C	 1.6593656196	 2.5503054421	 1.3284941831	-0.339977
C	 2.5822635898	 1.3180519673	 1.373848777	-0.0657
O	 2.1394166623	 0.87739687	 0.0711173783	-0.300481
C	 1.2352394324	 2.7407043175	-1.260715191	-0.061349
C	 2.5723890177	 3.0050267743	-1.9002098493	-0.277222
C	 1.5919102228	 2.0704321254	-2.5643493257	-0.265168
H	-1.0584558133	 2.1429668401	 0.0705839413	 0.068656
H	 2.1691820198	 3.5025086482	 1.1761580546	 0.121599
H	 0.9339449276	 2.6461206782	 2.1384673518	 0.118063
H	 3.6587296229	 1.5179766116	 1.39121277	 0.109658
H	 2.3362678277	 0.582794555	 2.1480231167	 0.118748
H	 0.5021974373	 3.5423942955	-1.3050097227	 0.088781
H	 2.7423321537	 3.9809389414	-2.340848316	 0.111252
H	 3.4413832761	 2.5502885343	-1.4391364202	 0.124834
H	 1.8229766794	 1.0121863121	-2.5260266973	 0.140239
H	 1.0839181475	 2.3971278465	-3.4643973593	 0.113606
