19
gdb 38456	3.68031	1.33415	1.20768	1.2635	74.44	-0.2354	0.0786	0.314	1081.7148	0.160043	-422.99265	-422.98507	-422.984126	-423.025058	29.697	
C	 0.1885003841	 1.6607238575	-0.1245580731	-0.331615
C	 1.6830930634	 1.320340977	-0.0918851663	 0.038775
O	 1.938973179	 0.6447148959	 1.1497050806	-0.250264
C	 1.4133009439	-0.1153393532	 0.0559818016	-0.050409
C	-0.1209334702	 0.1321485923	 0.0527292083	 0.438883
C	-0.9209557601	-0.3712579672	 1.2511871609	-0.290785
C	-1.4510680446	-1.7188704421	 0.7416257103	-0.235705
C	-1.7040714023	-1.4055307117	-0.7374461391	-0.070586
O	-0.7439949707	-0.4099620953	-1.1054296866	-0.319012
H	-0.1630984037	 2.343019036	 0.6537213515	 0.103567
H	-0.1553433912	 1.9916772451	-1.1069116622	 0.121311
H	 2.5164608643	 1.8386566798	-0.5507541152	 0.104509
H	 1.9635955888	-0.9888851014	-0.2763504159	 0.099231
H	-0.3060297781	-0.4358455835	 2.1502924798	 0.124215
H	-1.7509007953	 0.3146041383	 1.4575551291	 0.104118
H	-0.6851734741	-2.4951741259	 0.8434482456	 0.109101
H	-2.349198261	-2.0624452815	 1.2600654375	 0.103983
H	-1.5795437375	-2.2724989179	-1.3946899374	 0.104775
H	-2.7172447548	-1.0060552221	-0.8908701894	 0.095909
