20
gdb 89633	3.92765	1.11935	1.04594	2.0245	78.76	-0.2333	0.0811	0.3144	1230.8807	0.170778	-403.081325	-403.072853	-403.071909	-403.114537	32.412	
C	-0.2712199941	 1.4871808203	 0.0962347101	-0.405796
C	 0.1876805774	 0.0857917642	-0.2631782675	 0.089838
C	 1.502414897	-0.1381908068	-1.0639800806	-0.342769
C	 1.9508770691	-1.0169187958	 0.1078543175	 0.342686
C	 1.9407704273	-0.2443474161	 1.3648928829	-0.285621
N	 0.6598482826	-0.7958397403	 0.8766888949	-0.181883
C	 2.5757305265	-2.3574129285	-0.0320925002	-0.063633
C	 1.9634219851	-3.546909339	 0.5731435762	-0.16591
O	 1.8568185711	-3.3040098205	-0.8315293363	-0.23782
H	 0.5256282673	 2.090249323	 0.5416962514	 0.115244
H	-0.6171756064	 2.0109115992	-0.8014063276	 0.120836
H	-1.10350706	 1.4455039475	 0.8064901194	 0.128522
H	-0.6385466164	-0.4524648139	-0.7348773082	 0.093509
H	 1.3503925202	-0.6986012854	-1.9871883434	 0.125922
H	 2.1244867108	 0.7379495494	-1.2713225846	 0.097901
H	 2.2814706485	-0.7418018929	 2.2680060909	 0.11968
H	 2.1220860821	 0.8272664008	 1.3469576083	 0.110633
H	 3.652980132	-2.3597556439	-0.2101415012	 0.091907
H	 2.5915052096	-4.3906478652	 0.8556283729	 0.110503
H	 1.0407957304	-3.4206366161	 1.1347192451	 0.13625
