19
gdb 84349	2.15179	1.58293	1.30148	1.3785	81.55	-0.2521	0.0083	0.2604	1087.2515	0.158403	-385.865953	-385.856964	-385.85602	-385.899239	34.687	
C	 0.8360033026	 1.4645227997	 0.0793882608	-0.404319
C	 0.0895100678	 0.1232916065	-0.0045319489	-0.061601
C	 0.5194101338	-0.7123693343	-1.1863638663	-0.061544
C	 1.2841771852	-1.7465707929	-0.8421359793	-0.080282
C	 1.4997181362	-1.8185559601	 0.6601868266	-0.254778
C	 2.8416006623	-1.3990028671	 1.059723106	 0.32063
C	 3.9244188286	-1.0135329998	 1.4187056182	-0.470222
C	 0.3868379637	-0.8388736339	 1.1912014514	 0.111303
O	 0.671162289	-0.2258735994	 2.421509177	-0.430709
H	 1.9202933905	 1.3151550925	 0.0878307695	 0.123076
H	 0.5931149634	 2.0974474415	-0.7799705246	 0.111221
H	 0.5531027177	 1.9981149474	 0.9909722876	 0.126644
H	-0.985957314	 0.3372108972	-0.0390343934	 0.077136
H	 0.2514806012	-0.4575496913	-2.2066577739	 0.097456
H	 1.7435539351	-2.4560753428	-1.51997289	 0.104351
H	 1.3285072778	-2.8280641848	 1.0533710465	 0.109599
H	 4.8945833304	-0.6997943817	 1.7165116637	 0.202384
H	-0.5079881887	-1.4458179237	 1.3609398341	 0.095416
H	 1.6035344275	 0.027449627	 2.4160521851	 0.28424
