19
gdb 100401	2.56092	1.08593	0.85694	1.3287	80.54	-0.2338	0.0447	0.2785	1401.4122	0.156684	-419.182956	-419.1725	-419.171556	-419.218412	37.856	
C	-0.5024186338	 1.059770265	-0.0470591953	-0.223907
O	 0.2274340805	-0.1659996109	-0.0520543575	-0.253085
C	 0.867642036	-0.4723645328	-1.2005127217	 0.4736
N	 1.4347690438	-1.725959551	-1.109428107	-0.567515
N	 0.8584939223	 0.3229515947	-2.1965121988	-0.349943
C	 1.4968107273	-0.1074995813	-3.4393190838	-0.124486
C	 1.186131013	 0.9210403193	-4.5376158165	-0.377233
C	 2.9517096383	-0.2960908561	-3.3038118787	 0.347331
C	 4.136045027	-0.4665543345	-3.1703774271	-0.503862
H	 0.1641387145	 1.9099218961	-0.2133331981	 0.136945
H	-1.2663004894	 1.061294786	-0.8291061662	 0.134039
H	-0.9635393649	 1.1209062083	 0.9398788193	 0.123012
H	 1.4864196389	-2.0858642764	-0.1679124631	 0.256038
H	 2.2866737809	-1.8433773042	-1.6410183065	 0.265001
H	 1.0781686071	-1.0786274322	-3.7547641283	 0.105
H	 1.593004413	 1.8967959462	-4.2609940813	 0.128768
H	 1.6169426155	 0.6145266455	-5.4946780647	 0.113904
H	 0.1025205048	 1.0161767882	-4.6434279964	 0.118281
H	 5.1850564451	-0.5958813199	-3.0656032682	 0.198113
