15
gdb 80162	2.42103	1.68525	1.39212	4.8282	65.54	-0.2303	-0.0794	0.151	962.4214	0.112249	-457.779769	-457.772134	-457.77119	-457.812112	28.962	
O	 0.0744895096	 1.3033929738	 0.0782052523	-0.410304
C	-0.0060621968	-0.0854997138	-0.0050122872	 0.099393
C	-1.3617597455	-0.6860779191	 0.0349157787	-0.109709
C	-2.5307625086	 0.2740374601	-0.1524880655	-0.340089
C	-2.3289011269	 0.9239405907	-1.5186499117	 0.316784
O	-2.9399919843	 1.8389514077	-1.9945302843	-0.281177
C	-1.1867925016	 0.153411213	-2.2559176691	 0.327233
O	-0.9338066847	 0.2772595234	-3.4261142751	-0.303061
C	-0.5476181019	-0.7592704151	-1.2719158965	-0.234633
H	 0.8200931034	 1.6053010045	-0.4522623145	 0.303821
H	 0.7977541252	-0.6296798383	 0.4889549713	 0.10994
H	-1.5147739541	-1.5838776555	 0.6214739669	 0.10988
H	-3.4790155195	-0.2754922725	-0.1764538879	 0.140729
H	-2.6054090384	 1.0330146693	 0.6295787286	 0.152553
H	-0.0621226358	-1.6583666881	-1.6293316059	 0.11864
