17
gdb 123771	4.06799	1.42143	1.15973	2.8546	80.35	-0.2294	0.033	0.2623	1057.717	0.138362	-380.838434	-380.831355	-380.83041	-380.870178	27.749	
C	 0.0975160988	 1.6141437747	 0.174681968	-0.323439
C	 1.2760033241	 0.712278879	-0.1571036708	-0.323216
C	-0.0786355362	 0.1344233536	 0.0878078637	 0.383859
C	-0.5789446195	-0.91045708	 1.1410461424	-0.477687
C	-1.3622533008	-1.5047325423	-0.0285577462	 0.364774
C	-2.1949963497	-2.3298005792	-0.7631262289	-0.388074
C	-2.12359497	-1.757534946	-2.0635612174	 0.010754
N	-1.3234302714	-0.6770095531	-2.1433852411	-0.316589
N	-0.8966022434	-0.5796748257	-0.8809023538	 0.058654
H	 0.0588781618	 2.0740237263	 1.1564931299	 0.125445
H	-0.32221791	 2.2133468648	-0.6256548144	 0.141864
H	 1.6404443451	 0.7112570296	-1.1783289819	 0.141879
H	 2.0383391336	 0.5588741177	 0.5993190892	 0.125412
H	 0.2059233693	-1.5456649371	 1.5588068812	 0.131234
H	-1.1795567436	-0.4888520258	 1.95066718	 0.13114
H	-2.7644367195	-3.1898091185	-0.4537141964	 0.104744
H	-2.6323897786	-2.0974815183	-2.9543211036	 0.109246
