19
gdb 109597	2.70947	1.05316	0.98619	3.5765	77.55	-0.2452	0.0303	0.2755	1292.0036	0.158785	-419.197898	-419.187947	-419.187003	-419.232437	36.496	
C	-0.0851772309	 1.5633161948	-0.1091257518	-0.470342
C	-0.0266238268	 0.0500774136	 0.0284241701	 0.124932
C	-1.144261466	-0.6501440372	-0.5511014269	 0.2401
N	-2.038113859	-1.2164501473	-1.0210725455	-0.352382
C	 1.3311468965	-0.6875228706	-0.052643168	-0.048962
N	 2.5159120208	 0.1081880175	-0.1622178835	-0.512765
C	 0.595363096	-0.63214453	 1.2536238709	-0.094543
C	 1.1710141879	 0.1560451562	 2.4125179642	-0.106183
O	 2.3934773638	-0.4157069221	 2.8766547992	-0.413125
H	 0.9037933355	 1.9896789114	 0.0630262645	 0.152687
H	-0.3971461394	 1.8329346011	-1.122081021	 0.1347
H	-0.8016269772	 2.0030297222	 0.5909736004	 0.129383
H	 1.2930755185	-1.6395224278	-0.5817064183	 0.099895
H	 3.1947848375	-0.174222015	 0.5366994035	 0.252603
H	 2.9320648302	 0.0406916737	-1.0824883474	 0.238718
H	 0.1030592798	-1.5556077163	 1.5475915741	 0.104353
H	 1.4261396647	 1.1719663855	 2.1111458021	 0.130793
H	 0.4334730551	 0.2243242065	 3.2247560564	 0.103283
H	 2.2016005428	-1.2993563261	 3.2074960069	 0.286855
