21
gdb 117649	2.7139	0.97901	0.93806	2.3578	76.01	-0.2402	-0.0126	0.2276	1412.1687	0.17778	-461.37559	-461.364395	-461.363451	-461.4125	39.586	
C	-0.0986050163	 1.3233217831	 0.3408308089	-0.232117
O	-0.0485819678	-0.0734809146	 0.1522367979	-0.257107
C	-1.3149029868	-0.6531019616	-0.0983216607	-0.085371
C	-1.1003577488	-2.175662716	-0.145995727	 0.239488
C	-0.2611385994	-2.5794424016	-1.3708752191	-0.420498
O	-0.471184546	-2.5908430579	 1.0586400784	-0.478595
C	-2.4822596217	-2.8461409738	-0.2397321137	 0.363413
C	-2.8454923346	-3.8617547614	 0.8174923149	-0.474263
O	-3.2262929416	-2.5450310985	-1.1468238758	-0.324064
H	 0.9206306658	 1.6626379235	 0.5395206283	 0.131555
H	-0.4784338941	 1.8375849403	-0.5542846912	 0.115082
H	-0.7397854504	 1.5938742563	 1.1934492378	 0.111941
H	-2.0138164475	-0.3991533644	 0.7150385507	 0.092115
H	-1.7441732701	-0.2969781706	-1.0438727919	 0.116447
H	 0.6734642551	-2.0128970986	-1.3799093038	 0.126529
H	-0.023632052	-3.6457153515	-1.3245370708	 0.121021
H	-0.8114404226	-2.3775273375	-2.2931694244	 0.134227
H	 0.2201047762	-1.938183891	 1.2281991279	 0.288095
H	-2.8324649357	-3.3914479726	 1.8054988144	 0.150139
H	-3.8303879651	-4.2764390464	 0.600987576	 0.131624
H	-2.0913808767	-4.6542357653	 0.8553268532	 0.150339
