17
gdb 31543	3.3314	1.12966	0.86017	2.353	74.17	-0.1645	0.0511	0.2156	1315.7857	0.135372	-455.150917	-455.141204	-455.14026	-455.18568	34.757	
C	 0.1444038785	 1.4290428851	-0.0273636367	-0.329441
N	-0.266386693	 0.0462170153	-0.2498430583	-0.387823
C	 0.4627001787	-0.7311753098	-1.1299783102	 0.45171
C	 0.6941682074	-2.079120527	-1.190085435	-0.459677
C	 1.4208307584	-2.2732072675	-2.4125329715	 0.275673
O	 1.8886485381	-3.445505429	-2.9310781651	-0.451769
C	 1.6013771699	-1.0614890715	-3.0023143166	 0.188874
N	 2.2564408347	-0.5939947152	-4.1372106362	-0.60306
O	 0.99797693	-0.0958953711	-2.1856106314	-0.186764
H	 1.1477779394	 1.5247718758	 0.4144670938	 0.114131
H	 0.1410595702	 1.9639218507	-0.9785470107	 0.156376
H	-0.5807320979	 1.9050315079	 0.6367547129	 0.121844
H	-0.4774981396	-0.4543524276	 0.6010711585	 0.239884
H	 0.3863974366	-2.8262369702	-0.4746716306	 0.086002
H	 1.636651927	-4.1609099338	-2.3411488497	 0.296901
H	 1.7888822028	-0.8326956574	-5.0049383913	 0.242487
H	 3.2189325387	-0.9047548046	-4.1936666019	 0.244653
