22
gdb 89794	3.12155	1.35167	1.12771	1.3654	85.85	-0.2239	0.0893	0.3132	1182.5841	0.195679	-367.188378	-367.180163	-367.179219	-367.220711	33.431	
C	-0.0311784025	 1.5773485261	-0.0009063338	-0.39694
C	 0.062194097	 0.0569673555	-0.0038835823	 0.072108
C	 0.7412525307	-0.558773876	-1.2549816839	-0.34963
C	 1.3273762078	-1.8641595751	-0.7249389088	 0.404093
C	 0.8026678139	-3.2055632083	-1.1765841677	-0.318872
C	 2.200247841	-2.7700044399	-1.5501152514	-0.328183
C	 1.5723583593	-1.6198430617	 0.7413790622	-0.094789
C	 2.2434279408	-0.3477552378	 1.117853442	-0.266718
N	 0.7771721044	-0.4624002157	 1.1899041166	-0.103706
H	 0.9609676702	 2.0361694527	-0.0735855213	 0.112658
H	-0.6261612252	 1.9290284113	-0.8499488811	 0.112824
H	-0.5026055627	 1.9327794335	 0.9197117443	 0.125466
H	-0.9511175503	-0.3566277682	 0.075655595	 0.081806
H	 0.0329782011	-0.713328555	-2.073400739	 0.10046
H	 1.5289988999	 0.1026917551	-1.6353421504	 0.099548
H	 0.69418639	-3.9902520234	-0.4343249465	 0.112042
H	 0.0463041801	-3.2215628117	-1.9546398117	 0.109957
H	 2.3919801327	-2.4928473485	-2.5817734124	 0.110495
H	 3.0354927086	-3.2611374526	-1.0613746498	 0.112506
H	 1.6138326286	-2.4788627309	 1.407092292	 0.083466
H	 2.7318100368	-0.2569360256	 2.0837943723	 0.112481
H	 2.6980009679	 0.2477263362	 0.3302434256	 0.108929
