21
gdb 107330	2.57459	1.51994	1.15848	1.7166	82.43	-0.2416	0.0031	0.2446	1153.4203	0.181977	-387.089789	-387.080854	-387.07991	-387.123376	34.405	
C	-0.3854571534	 1.4596196625	-0.1127230874	-0.382994
C	 0.1471694111	 0.0320782797	 0.0717208505	-0.278046
C	 0.8776263191	-0.5181566603	-1.1308071672	 0.409199
O	 0.0559341261	-0.8842771767	-2.2515113553	-0.307101
C	 0.7920980567	-1.9264571003	-1.5598324086	-0.072025
C	 2.0883637464	-2.2773134288	-2.2085398265	-0.093553
C	 2.8937361109	-1.2134526397	-2.2123142945	-0.078506
C	 2.2645016933	 0.0067487426	-1.560402142	-0.102169
C	 2.2172784354	 1.2098355867	-2.5182065194	-0.399609
H	 0.4244076853	 2.1874962168	-0.2191027964	 0.119552
H	-1.0171961477	 1.5222748505	-1.0037081756	 0.133631
H	-0.985915318	 1.7603522288	 0.7510896526	 0.112247
H	 0.8178285683	-0.0080398897	 0.9397051139	 0.098075
H	-0.6915772608	-0.6380112435	 0.290315356	 0.104783
H	 0.1703797819	-2.6660101461	-1.0624950498	 0.090562
H	 2.3079633923	-3.2516586072	-2.6272812923	 0.101108
H	 3.8743908056	-1.1672236456	-2.6750985339	 0.09828
H	 2.8353225172	 0.2903178703	-0.6642147512	 0.078357
H	 1.5617602368	 0.9842050809	-3.3630657027	 0.139604
H	 1.843882802	 2.1081568192	-2.0196906451	 0.118298
H	 3.2160137715	 1.43487757	-2.906016365	 0.110308
