17
gdb 50235	2.99518	1.6061	1.39098	3.7698	71.46	-0.2451	-0.0277	0.2174	966.1947	0.135868	-421.762891	-421.7557	-421.754756	-421.794618	28.112	
O	-0.3341663336	 0.0300303219	 0.0543462782	-0.24365
C	-0.0649146558	 1.1865895543	 0.2455619341	 0.154291
C	 1.2387592227	 1.8687184929	-0.0757822343	 0.012986
O	 2.2882372527	 1.0598067541	-0.6319774139	-0.295086
C	 2.5564377821	 2.0469376911	-1.6699235764	 0.114564
C	 1.9597309148	 1.7746757659	-3.0641071215	-0.060056
C	 0.657899996	 1.0472836485	-2.9400788331	-0.304617
C	 0.6783885629	 2.5213928654	-2.6303998192	-0.076693
C	 1.3211648141	 2.8695416397	-1.2680537932	-0.111424
H	-0.7960760272	 1.8869769733	 0.7172282343	 0.076475
H	 1.5696262581	 2.3573686125	 0.8576853316	 0.096645
H	 3.5781949847	 2.4286773956	-1.62809219	 0.0857
H	 2.5130587435	 1.8369664063	-3.9929460489	 0.08938
H	 0.1845661693	 0.8094486835	-3.8874953453	 0.114478
H	 0.5270274262	 0.29842369	-2.1697298141	 0.165287
H	 0.0820918667	 3.2232955014	-3.1999716089	 0.094117
H	 1.379650533	 3.9312293137	-1.0371415495	 0.087604
