16
gdb 12898	3.27999	1.83591	1.51124	5.6859	69.55	-0.2314	0.0355	0.2669	885.2139	0.131224	-342.752425	-342.744936	-342.743992	-342.78401	28.034	
C	 0.0094309298	 1.5674565833	-0.032886552	-0.498488
C	-0.0049305887	 0.0705161042	 0.0641025375	 0.292514
C	-1.2598537773	-0.8168354791	 0.0607752536	-0.235311
N	-0.5757186535	-1.8305805985	 0.9389009785	-0.316974
C	 0.5788178615	-0.9274967884	 1.0456616413	-0.062742
C	 1.2065776863	-0.7796562055	-0.3255440634	-0.234064
C	 1.1588635518	-1.8132807437	-1.3243310502	 0.312959
N	 1.12287787	-2.6248874098	-2.1477495553	-0.349967
H	 0.9967761834	 1.9710981631	 0.2123373247	 0.126022
H	-0.2421845151	 1.9002994815	-1.0466411708	 0.135932
H	-0.7159998149	 2.0140364434	 0.6560066424	 0.125183
H	-2.0967573069	-0.31918057	 0.5602389781	 0.109707
H	-1.5940266588	-1.2190975931	-0.9005116609	 0.130543
H	-1.0545855165	-1.9163962604	 1.8286372337	 0.229778
H	 1.1603802666	-0.8119098324	 1.9534778795	 0.105932
H	 2.1319846121	-0.2104137647	-0.3253556268	 0.128977
