16
gdb 43070	2.86122	2.0908	1.58572	3.6118	72.	-0.2189	-0.0036	0.2153	857.2851	0.127153	-400.743656	-400.737405	-400.736461	-400.774136	25.605	
O	 0.0207727108	 0.0199430418	 0.2257039572	-0.319368
C	-0.0565356836	 1.1961465863	 0.0391987091	 0.407499
C	-1.1689147642	 2.2371129394	-0.0653585066	-0.193579
C	-1.4376221315	 2.8859953503	 1.3432332049	-0.244817
C	-0.1980887067	 3.8456991722	 1.1625410387	-0.082098
C	 1.088543272	 3.421150753	 1.8459105391	-0.09594
C	 1.7101494223	 2.4888923374	 1.1205262385	-0.073657
N	 0.9906029291	 2.1910565489	-0.0951820729	-0.148135
C	-0.0259767415	 3.2759982324	-0.2656944179	 0.004912
H	-2.0188952062	 2.0632574208	-0.7229846931	 0.096811
H	-2.3804085306	 3.4371078549	 1.3329878612	 0.117308
H	-1.427892674	 2.212776103	 2.2021356459	 0.121304
H	-0.4346190473	 4.9050390948	 1.2652296601	 0.084986
H	 1.4309534799	 3.804481511	 2.7982095975	 0.108731
H	 2.6148727231	 1.9416868893	 1.345782256	 0.130183
H	 0.1182553682	 3.9114334644	-1.1387201677	 0.08586
