20
gdb 107504	2.30723	1.41266	0.97995	1.9728	82.69	-0.2469	0.0261	0.2729	1278.98	0.169545	-403.123069	-403.113628	-403.112684	-403.15772	34.361	
C	 0.0649631605	 1.5040350045	-0.2355244957	-0.37804
C	-0.0912212633	-0.0054521843	-0.0028661038	-0.293283
C	 0.629310239	-0.4680822604	 1.2321915453	 0.172016
C	 2.1148302881	-0.8623946915	 1.2859884672	-0.335874
C	 1.075602258	-1.8142429288	 1.7611720696	 0.02881
O	 0.6896428919	-1.4658319488	 3.1156343078	-0.292541
C	 0.1885485314	-0.2409476059	 2.6449962091	 0.449588
N	-0.4632721322	 0.6474689058	 3.2345459493	-0.34938
C	-0.7711156682	 0.4856707695	 4.64880147	-0.340488
H	 1.116924581	 1.7733545265	-0.3757335086	 0.114782
H	-0.4878350071	 1.8203104403	-1.1251825017	 0.109468
H	-0.3150259147	 2.0615371908	 0.6248050632	 0.150206
H	-1.1554121708	-0.2529642748	 0.0905684287	 0.111034
H	 0.2860858466	-0.562402706	-0.8691188085	 0.097115
H	 2.5427511629	-1.0725453479	 0.3095319287	 0.122826
H	 2.792659023	-0.409668229	 2.0031059907	 0.128156
H	 0.8874109263	-2.828349476	 1.4358074568	 0.122532
H	-0.2746093365	 1.2801535346	 5.2172125823	 0.128138
H	-1.8488101125	 0.6137724929	 4.7959366427	 0.126217
H	-0.4692402033	-0.4831409415	 5.063032777	 0.128719
