17
gdb 44547	3.46306	1.4749	1.39584	5.2228	71.34	-0.2311	0.0438	0.2749	967.5439	0.139252	-418.0046	-417.9978	-417.996856	-418.03589	27.59	
O	 0.0182545277	-0.0159139613	 0.149955169	-0.376766
C	-0.0317232336	 1.1887871356	 0.0650276594	 0.413689
C	-1.3017158222	 2.0576026278	 0.0265264335	-0.346858
C	-0.8053070761	 3.5050989121	 0.0464731481	-0.034986
C	-0.69975148	 4.2319608637	 1.4001356971	-0.057559
N	-0.0116627383	 3.3012485907	 2.3197616247	-0.327404
C	 0.788065671	 4.1387267448	 1.4015010714	-0.065853
C	 0.7670478698	 3.4266681198	 0.0252234571	-0.025351
N	 1.0579117792	 2.0250549428	-0.055815159	-0.283273
H	-1.8669774379	 1.8124551368	-0.8771509566	 0.123008
H	-1.9199835539	 1.7999605176	 0.8888271459	 0.139172
H	-1.2170112084	 4.1347463737	-0.7419446641	 0.083826
H	-1.3482322858	 5.0128228157	 1.7775511039	 0.097048
H	 0.0206606996	 3.7390853089	 3.2388964398	 0.23569
H	 1.5342002708	 4.8277670527	 1.778086123	 0.094842
H	 1.2532728159	 4.0134652279	-0.7585488095	 0.084293
H	 1.9808435222	 1.6372523207	 0.0637704164	 0.246481
