18
gdb 81737	3.04082	1.2606	1.06284	4.3333	77.41	-0.2687	0.0185	0.2873	1158.4849	0.147315	-401.938686	-401.929894	-401.92895	-401.971954	33.006	
C	-0.1366015164	 1.5945438618	 0.0792772781	-0.417241
C	 0.0243264134	 0.0828822159	 0.0288548468	-0.093011
C	 1.1207256264	-0.5403382002	-0.925391637	 0.086702
O	 2.0109458959	 0.3376338975	-1.5755106971	-0.421126
C	 1.7630724812	-1.2493812107	 0.2602574086	-0.102999
C	 2.1732930456	-0.2613419113	 1.3040611926	-0.322054
C	 0.7096483161	-0.6329845954	 1.2123945354	 0.206836
C	 0.0143098602	-1.2635635607	 2.2853967801	 0.183721
N	-0.5724370109	-1.7688978574	 3.1465580915	-0.353067
H	 0.8195078817	 2.1032377527	 0.2224367185	 0.13078
H	-0.5722550341	 1.9666658084	-0.8548240132	 0.112755
H	-0.8068635193	 1.8850490252	 0.8943691181	 0.132355
H	-0.9404766595	-0.3906707707	-0.1728202394	 0.091778
H	 0.6716486409	-1.2473222447	-1.6330016857	 0.082317
H	 1.5565713137	 0.7326808047	-2.3265231541	 0.289664
H	 2.129877432	-2.2675112389	 0.2592989577	 0.113503
H	 2.6946029739	-0.6805041844	 2.157291194	 0.139288
H	 2.493618219	 0.7344460481	 1.0193384251	 0.1398
