15
gdb 130315	3.08106	1.32159	1.01123	3.4638	68.36	-0.2303	-0.0486	0.1817	1122.1013	0.11284	-453.948942	-453.940848	-453.939904	-453.982088	29.49	
N	 0.457002259	 1.3546239671	-0.0406488796	-0.599374
C	 0.1733575913	 0.0073109114	-0.039480161	 0.359277
N	-1.0529411552	-0.4592754769	-0.1411959521	-0.231233
O	-0.9137501584	-1.8578995291	-0.1878332604	-0.173611
C	 0.3820328162	-2.165962993	-0.0964209026	-0.003708
C	 1.1479688877	-1.0499064994	-0.0051392024	 0.091868
C	 2.6372297172	-0.8920657641	 0.0998987653	-0.407587
C	 2.9797533313	-0.3363767375	 1.4759916204	 0.150435
O	 2.8711185229	 0.8307222331	 1.7656076842	-0.236663
H	 1.2532847471	 1.6082825102	 0.5325123954	 0.272916
H	-0.3515191833	 1.9409241677	 0.1124407943	 0.260172
H	 0.6232215448	-3.2184431206	-0.1219343708	 0.148159
H	 3.1379092622	-1.8520858793	-0.0535350943	 0.122
H	 2.9973782145	-0.1801192725	-0.6520275499	 0.145999
H	 3.2998498928	-1.080327577	 2.2361767536	 0.101351
