21
gdb 58822	3.00316	1.25542	1.21633	1.8222	81.23	-0.2258	0.0668	0.2925	1174.8979	0.180875	-387.022198	-387.01338	-387.012436	-387.055569	34.536	
C	 0.1142405811	 1.6081105657	 0.1173188673	-0.395449
C	-0.0342120544	 0.0837294993	-0.0011313766	-0.095295
C	 0.7706465577	-0.651639373	 1.0829243262	-0.394671
C	-1.4751645913	-0.3355059183	 0.0436990608	 0.456742
O	-1.8267896673	-1.6255212559	-0.4903694581	-0.300678
C	-2.5285653642	-0.4602411405	-0.9603462242	-0.084169
C	-3.6264635584	-0.0694843741	 0.0772505976	-0.085925
C	-3.6164800746	-0.9957530574	 1.263591572	-0.288035
C	-2.5397588307	 0.0496248743	 1.137288857	-0.136284
H	 1.1656340928	 1.897412313	 0.0248012174	 0.115626
H	-0.4505855222	 2.1271670424	-0.6633180384	 0.11587
H	-0.2417482614	 1.9697971964	 1.0881435152	 0.118429
H	 0.3434961926	-0.2285952843	-0.9829478748	 0.085494
H	 0.4101456107	-0.3901171941	 2.0842344101	 0.117484
H	 0.6835028251	-1.7353632997	 0.9654082778	 0.131658
H	 1.8304394554	-0.3834162277	 1.0284566518	 0.11038
H	-2.5402362129	-0.2846383317	-2.0300331772	 0.101754
H	-4.4317104603	 0.620514319	-0.1362480191	 0.091376
H	-4.3707018422	-0.7799045039	 2.0138471296	 0.108857
H	-3.3775159506	-2.0433973767	 1.1339035807	 0.135544
H	-2.400451445	 0.8438961176	 1.8582828251	 0.091293
