23
gdb 81652	2.68813	1.49797	1.22919	0.31	90.12	-0.2276	0.0234	0.251	1148.3639	0.208697	-351.158484	-351.150325	-351.149381	-351.190584	33.427	
C	-0.1948667355	 1.4561380339	 0.0449276598	-0.419553
C	 0.0302217344	-0.0505051037	-0.0222496574	 0.044054
C	 0.9018290381	-0.5228769701	-1.2270765078	 0.00505
C	 2.1368251104	-0.4935396458	-0.2821239554	-0.244431
C	 1.1588512912	-0.5879513294	 0.92879933	-0.048991
C	 0.8891713671	-1.9936300641	 1.3916498654	-0.068009
C	 0.7651128995	-3.0669631793	 0.6072222251	-0.05479
C	 0.9507062602	-3.1346566278	-0.8933616343	-0.255063
C	 0.5212637124	-1.919794924	-1.7489604099	-0.217291
H	 0.7443437384	 2.0121834311	-0.0514190428	 0.112906
H	-0.8589799577	 1.789164867	-0.7608435404	 0.11164
H	-0.6541112567	 1.7447279526	 0.9969590304	 0.111797
H	-0.9254095144	-0.5742329294	 0.0832077921	 0.061091
H	 0.9303618034	 0.1780488428	-2.068112601	 0.056226
H	 2.8832525384	-1.2842338623	-0.3824177393	 0.096322
H	 2.6511565237	 0.4701983177	-0.3099994536	 0.094337
H	 1.3943258487	 0.0543393348	 1.7820767857	 0.054731
H	 0.7507922156	-2.1268101183	 2.4623892753	 0.078479
H	 0.556492967	-4.0219663888	 1.0854995748	 0.081855
H	 2.0107967853	-3.3489256062	-1.0938243904	 0.114344
H	 0.416664806	-4.0140995963	-1.2716723969	 0.097531
H	-0.5675478286	-1.944214998	-1.8865903551	 0.097194
H	 0.9545085631	-2.0614901665	-2.7466013943	 0.09057
