19
gdb 106804	2.46643	1.50793	1.09483	2.5368	71.11	-0.2541	0.0715	0.3256	1142.8438	0.158163	-460.147522	-460.138572	-460.137627	-460.181265	33.302	
C	-0.2198291517	 1.4539924162	 0.0816672597	-0.492811
C	 0.1684479895	 0.0025998704	 0.0544969834	 0.307829
C	 0.3825631204	-0.7069240492	-1.2733685136	-0.132662
O	 0.9823956517	-1.9557166972	-0.9658538043	-0.254228
C	 1.6635408481	-1.8598035301	 0.2786066091	-0.134506
C	 0.9888427965	-0.7297651398	 1.0334885606	 0.287172
C	 1.5691450412	-0.204071323	 2.3166306786	-0.159791
O	 1.5013487894	-1.1808642074	 3.3442473666	-0.415822
O	-0.4494488553	-0.8742825928	 1.0137771278	-0.334634
H	 0.5149668255	 2.0639331262	-0.4536814097	 0.1288
H	-1.1915515792	 1.5961841788	-0.4036060685	 0.135404
H	-0.3012431469	 1.8210779207	 1.1066524124	 0.13579
H	-0.5529867666	-0.9037324636	-1.8081083493	 0.116607
H	 1.0303543202	-0.0890256963	-1.9179946377	 0.091129
H	 1.5829790428	-2.8249817786	 0.78657231	 0.125023
H	 2.7322821903	-1.6239302537	 0.1423854152	 0.092024
H	 2.6317687308	 0.0269875496	 2.1854749981	 0.11446
H	 1.05499988	 0.7223159684	 2.6080975268	 0.095035
H	 0.5714046834	-1.4162301685	 3.4420586649	 0.29518
