19
gdb 73043	3.29828	1.0283	0.90692	2.1673	81.86	-0.2357	0.0579	0.2936	1342.9831	0.157214	-385.812495	-385.803429	-385.802485	-385.846522	34.065	
C	-0.1235591073	 1.5828679682	-0.0100632262	-0.500491
C	-0.0189936529	 0.0858532833	-0.0079215146	 0.228676
C	-0.8583865703	-0.8558988783	-0.8715339674	-0.134563
O	-0.9240545218	-1.847914374	 0.1869916215	-0.284529
C	-0.2274369101	-0.9642104292	 1.0709847664	 0.054312
C	 1.1578716973	-0.687245224	 0.5692652991	-0.081758
C	 1.9833046181	-1.7214001911	-0.1871384644	-0.388835
C	 2.9107444113	-2.4333960064	 0.6858672247	 0.306876
C	 3.6735363575	-2.9996089023	 1.4222510836	-0.453301
H	 0.3711395282	 2.0175690043	-0.887185113	 0.124079
H	-1.1695266804	 1.9098317397	-0.0214176498	 0.122032
H	 0.3511720744	 2.0116352197	 0.8779724824	 0.125017
H	-1.8584594097	-0.458691796	-1.0829491359	 0.107526
H	-0.4195133404	-1.2521458982	-1.7953563517	 0.104262
H	-0.5568996126	-0.9212465216	 2.1032618241	 0.103282
H	 1.7368168519	-0.0728041632	 1.2555145302	 0.098695
H	 1.3040932163	-2.4420108242	-0.6563038554	 0.149081
H	 2.5443465261	-1.2371069431	-0.9970275007	 0.126607
H	 4.3452871944	-3.5124543237	 2.0646275673	 0.193032
