21
gdb 115329	2.14942	1.4145	1.14106	3.6163	74.03	-0.2398	0.0587	0.2985	1188.6661	0.182407	-461.361126	-461.351564	-461.35062	-461.395387	35.754	
C	-1.0242540113	 0.9778486186	-0.2508998976	-0.417369
C	-0.0589916883	-0.2000362459	-0.1204596573	-0.027562
C	 1.1824075702	-0.1416200526	-1.0273017794	 0.08499
O	 1.7070450677	 1.1796162588	-0.9927685613	-0.424783
C	 2.0979937242	-1.1663928841	-0.3502603566	-0.091919
O	 1.7929088538	-1.145438878	 1.0402378291	-0.29254
C	 0.5585971196	-0.4357776795	 1.2754951077	 0.100519
C	 0.8977331824	 0.8075718248	 2.100486467	-0.071472
O	 1.5968642778	 0.4350220181	 3.274184779	-0.430074
H	-0.5231244759	 1.9281682283	-0.0600391595	 0.14595
H	-1.4433709602	 1.0193589815	-1.2611330475	 0.114357
H	-1.8589546534	 0.8765381876	 0.4499362642	 0.11714
H	-0.5894239	-1.1204072984	-0.3946804918	 0.083164
H	 0.9456876485	-0.4335581725	-2.0604165673	 0.068455
H	 2.5386154369	 1.1888391698	-1.4763532961	 0.286666
H	 1.9186431813	-2.1721230821	-0.7601889197	 0.094645
H	 3.1597981356	-0.9283167505	-0.4901940169	 0.093984
H	-0.0766796925	-1.0881808783	 1.887798418	 0.079687
H	 1.4799942537	 1.5065710901	 1.4847746734	 0.10223
H	-0.0189744124	 1.3128224453	 2.4228067045	 0.097936
H	 2.3014445422	-0.152308421	 2.973527908	 0.285995
