20
gdb 23242	2.45119	1.34672	1.08295	1.1039	83.49	-0.2289	0.0137	0.2426	1212.468	0.169652	-403.083832	-403.074592	-403.073647	-403.117433	35.171	
C	 0.0021858152	 1.5683424474	-0.0126857499	-0.418666
C	 0.1115738582	 0.058523816	-0.0564411299	-0.018135
C	 0.6982887702	-0.7481687085	-1.1728802637	-0.07031
C	 1.3851481765	-0.7271261466	 0.2188534221	-0.170061
C	 2.5515497068	-0.0568425362	-0.4151458369	 0.437293
N	 3.6822444538	 0.2331001767	 0.0803053528	-0.274303
O	 4.5246657452	 0.8189205702	-0.8931502109	-0.397992
C	 1.9293362208	-0.0659649491	-1.8144549412	-0.097509
C	 2.6906526886	-0.9440324452	-2.8090932444	-0.404262
H	 0.891037769	 2.0602060975	-0.4141254681	 0.132414
H	-0.8640647936	 1.9125877217	-0.5884033857	 0.117074
H	-0.1242798698	 1.9123917088	 1.0191734058	 0.121638
H	-0.7443082993	-0.4440998656	 0.392049912	 0.091445
H	 0.1701771615	-1.5759329714	-1.6312395718	 0.090697
H	 1.4336528263	-1.4852738665	 0.9903904002	 0.098822
H	 5.3382993126	 0.9533821917	-0.3963462986	 0.304669
H	 1.7447119382	 0.9195126613	-2.2549822906	 0.087921
H	 2.8756782402	-1.9394822944	-2.3922053348	 0.117314
H	 2.1126837506	-1.0650238019	-3.7315739066	 0.111972
H	 3.6545161489	-0.4941937158	-3.0553525897	 0.139981
