15
gdb 68156	2.63359	1.8178	1.28814	3.1301	65.9	-0.2391	-0.0847	0.1545	952.6646	0.11275	-457.774496	-457.767201	-457.766256	-457.806077	28.487	
O	 0.026939039	 1.4136985449	 0.0429792872	-0.478065
C	-0.0138828834	 0.0429356628	 0.0434493164	 0.335905
C	 0.3260127649	-0.8432557581	 1.2936468335	-0.304832
C	-0.4353088832	-1.9515312042	 0.4909057826	-0.156606
C	-1.3380596531	-0.7937863024	-0.0541796643	-0.304731
C	 0.5097351076	-2.1514420184	-0.6831114908	 0.359623
O	 0.9153207849	-3.1413993104	-1.2200671763	-0.298023
C	 0.8192227327	-0.6534067166	-1.0101841097	 0.258662
O	 1.5107279143	-0.1352835219	-1.8446488475	-0.326969
H	 0.620344569	 1.6760422623	-0.6775322635	 0.297721
H	 1.3743091014	-1.0080259999	 1.5550160524	 0.123487
H	-0.2433770802	-0.5170229109	 2.166488289	 0.132307
H	-0.8452362911	-2.8384449757	 0.9644235665	 0.10572
H	-2.061859693	-0.463073863	 0.6936415372	 0.13231
H	-1.8166281499	-0.9132353785	-1.0294264729	 0.12349
