17
gdb 112995	3.56876	1.05404	0.86612	5.2879	73.85	-0.2574	-0.0299	0.2274	1310.5954	0.13615	-455.157162	-455.148254	-455.14731	-455.1915	31.523	
O	 0.041462339	 1.3949364998	 0.1650800939	-0.418238
C	 0.0702183809	 0.0175570952	-0.1356590504	-0.070618
C	-1.343406454	-0.5669684478	-0.0973132956	-0.171842
C	-1.5314925638	-2.1092988516	-0.0346806335	-0.213515
N	-2.1167317385	-1.9332993324	 1.3089696068	-0.101265
C	-2.5744173945	-2.881483474	 2.2100305031	 0.070216
N	-3.0351058431	-2.5745862416	 3.3505989972	-0.407952
C	-1.9351415037	-0.5444716539	 1.3206966358	 0.445903
O	-2.0990120992	 0.3051772469	 2.1516185686	-0.348438
H	-0.4333309629	 1.4975575155	 1.0010600938	 0.30245
H	 0.5046748288	-0.0809761263	-1.1361086824	 0.11419
H	 0.7167618223	-0.5437594449	 0.5604767148	 0.091791
H	-1.9789546187	-0.0664575507	-0.831493981	 0.119434
H	-2.2248963743	-2.5300606161	-0.7674925873	 0.127501
H	-0.6015315766	-2.6868428818	-0.0278379305	 0.125811
H	-2.4836268266	-3.8952834558	 1.7986180724	 0.10051
H	-3.3162408151	-3.4150809504	 3.8527475545	 0.234061
