16
gdb 61044	2.89357	1.20018	0.88633	3.3602	66.2	-0.2597	-0.0408	0.219	1236.5272	0.123139	-475.046308	-475.03755	-475.036606	-475.080502	31.146	
O	 0.1532766004	 1.5358229429	 0.0142293739	-0.440302
C	 0.057141201	 0.1394441151	 0.0406359675	 0.040747
C	 0.6653581619	-0.4621366783	-1.218392524	 0.1236
O	 1.1184223673	 0.2487439071	-2.0838837916	-0.266365
C	 0.7400668687	-0.4408571517	 1.281819294	-0.17222
C	 0.0572173347	-0.1648910559	 2.6543659646	-0.180117
N	-0.1298690204	-1.6159541294	 2.77277478	-0.32139
C	 0.4344120434	-1.9369435953	 1.5674383465	 0.419273
O	 0.5872265483	-2.9720071506	 0.9718315835	-0.364861
H	 0.5706442584	 1.7477368073	-0.8374889765	 0.295959
H	-1.0036473315	-0.1749371974	 0.0548104941	 0.099621
H	 0.6733159057	-1.5651008009	-1.2835517909	 0.140367
H	 1.8081611817	-0.2098877864	 1.2703527259	 0.115175
H	 0.7076391904	 0.2687879425	 3.4185950105	 0.123354
H	-0.8737534271	 0.4061799342	 2.5934233614	 0.129968
H	-0.571021973	-2.1890411931	 3.4767414811	 0.25719
