17
gdb 67310	3.10828	1.48089	1.22548	4.6871	77.29	-0.2537	0.009	0.2627	1041.7367	0.136085	-380.790692	-380.783058	-380.782114	-380.822703	29.46	
C	-0.062055181	 1.5197233302	 0.0220605509	-0.529927
C	-0.026679593	 0.0164968393	 0.0127168462	 0.317684
C	 0.796283884	-0.9669939475	-0.8831110523	-0.04341
C	 1.9863260752	-1.0208500126	 0.0770610537	-0.268153
C	 0.73598451	-0.9723948934	 0.9583764808	-0.04815
N	-0.0144638894	-1.9484802426	 0.0077360666	-0.157754
C	-1.1986382203	-0.9788530231	-0.0502073444	-0.179455
C	-2.1207018217	-1.0428611683	 1.0756541862	 0.287808
N	-2.8440517194	-1.0614219969	 1.9776137858	-0.328718
H	 0.9492173347	 1.9359010298	 0.0788086607	 0.129939
H	-0.5359201409	 1.9079118581	-0.8857848848	 0.129915
H	-0.6285771508	 1.8885615142	 0.8833786673	 0.143719
H	 0.7604003415	-1.0615126507	-1.97005378	 0.091153
H	 2.5469645249	-1.9584161475	 0.0926574578	 0.120056
H	 2.6474144884	-0.1519939592	 0.1005033848	 0.109015
H	 0.6310498835	-1.0726375448	 2.0389086522	 0.108797
H	-1.7512923057	-1.042945915	-0.9936348715	 0.11748
