25
gdb 96347	2.05771	1.56383	1.14476	1.3345	87.86	-0.2555	0.072	0.3275	1230.4202	0.229711	-389.524875	-389.515233	-389.514289	-389.558135	38.996	
C	-0.0239995728	 1.570515433	-0.0367006957	-0.423252
C	 0.0716418684	 0.0409469234	 0.0077948509	 0.051777
C	 0.6586867024	-0.530989627	-1.2949409753	-0.202961
C	 0.6958417733	-2.0645275277	-1.3010491811	-0.196909
C	 1.4421743753	-2.6075986207	-0.0759452925	-0.201012
C	 0.848367952	-2.0343773277	 1.2180656784	-0.231653
C	 0.8158958711	-0.4913535182	 1.2589252662	 0.365053
C	 2.2267219464	 0.0935014193	 1.4267792619	-0.432411
O	 0.0076095237	-0.0754535104	 2.3699161162	-0.477862
H	 0.9450965496	 2.0318800006	-0.2563843167	 0.107199
H	-0.7179925506	 1.8853818824	-0.8231249876	 0.104338
H	-0.3841645778	 1.9648385793	 0.916127907	 0.131124
H	-0.9513613111	-0.3482194769	 0.1097518201	 0.075451
H	 0.0657739443	-0.1651940999	-2.1417213443	 0.090171
H	 1.6732166421	-0.1367872385	-1.4463809757	 0.091078
H	-0.3332509529	-2.4493952084	-1.2943025681	 0.093203
H	 1.1587377904	-2.4299960404	-2.2247741078	 0.087432
H	 1.3948471856	-3.7022093475	-0.0527400272	 0.090991
H	 2.5064826888	-2.3486973964	-0.1491717448	 0.094367
H	-0.1860142175	-2.382081957	 1.3305639875	 0.098877
H	 1.401657606	-2.4060751628	 2.0913140099	 0.073183
H	 2.874737952	-0.1197227525	 0.5722043647	 0.117335
H	 2.1807251565	 1.1763798049	 1.5616371347	 0.12496
H	 2.7069713866	-0.3367732632	 2.3142036146	 0.099761
H	 0.4441551781	-0.3713703578	 3.1759331345	 0.26976
