15
gdb 27424	2.52694	1.71477	1.14058	4.2362	76.37	-0.2481	-0.0867	0.1614	1052.8809	0.112961	-416.846673	-416.838919	-416.837975	-416.879059	28.623	
C	-0.3567187546	 1.4277222029	 0.1345196823	-0.434671
C	 0.0348486291	-0.0076874957	-0.0866895556	 0.337329
N	-0.225524175	-0.5598943939	-1.2152858537	-0.270533
C	 0.0092668452	-1.8907811231	-1.5359376145	 0.337744
O	 0.5288507849	-2.2451749898	-2.5696274062	-0.32146
C	-0.5303597941	-2.8817237793	-0.5628095077	-0.157985
C	-0.2105796521	-2.8311634308	 0.7443768645	-0.075469
C	 0.5907612043	-1.7806369197	 1.3503110978	 0.004655
N	 0.7278798593	-0.5497269516	 0.9962616329	-0.249078
H	-0.9367706044	 1.522067116	 1.0584018243	 0.139505
H	 0.543376526	 2.0373649344	 0.2639505785	 0.153667
H	-0.9352869635	 1.7973523835	-0.7113697321	 0.145706
H	-1.0651634689	-3.7318070842	-0.9772100944	 0.14133
H	-0.4721983236	-3.6627892959	 1.3940744756	 0.121083
H	 1.1375509573	-2.0722930429	 2.2507814483	 0.128176
