17
gdb 34186	4.20206	1.36428	1.22015	0.7244	85.23	-0.2189	0.0034	0.2223	1034.8852	0.136852	-347.49415	-347.487115	-347.486171	-347.525216	29.269	
C	 0.05040893	-1.1835689427	-0.0405421292	-0.388956
C	 0.0043796888	 0.0200943043	-0.0317935282	 0.126141
C	-0.0564092036	 1.4395203936	-0.0101947515	 0.214574
C	-1.2531427353	 2.2773476799	 0.4443050046	-0.286873
C	-0.6860071305	 3.484573594	-0.4039046633	-0.114534
C	 0.2195971259	 4.2743389509	 0.5149145677	-0.094122
C	 1.3048211422	 3.5421955385	 0.789661782	-0.077438
C	 1.2704394067	 2.2901190609	-0.0149098262	-0.122619
C	 0.2580241978	 2.4534971401	-1.1050341025	-0.120671
H	 0.0890164439	-2.2442974466	-0.0488064134	 0.180003
H	-2.1665496005	 1.8810204839	-0.0044322607	 0.114677
H	-1.4024638668	 2.4426244087	 1.5157374591	 0.098463
H	-1.4092137843	 4.0419592077	-0.9957639202	 0.075191
H	-0.0730638395	 5.2010112625	 0.9929858255	 0.099593
H	 2.0801643853	 3.7717502989	 1.5093625862	 0.100186
H	 2.1583083081	 1.6954894121	-0.1904736646	 0.097754
H	 0.4221665118	 2.2941328832	-2.1636884753	 0.09863
