16
gdb 224	4.42313	2.76203	2.72257	2.5692	56.92	-0.247	-0.0179	0.2291	611.1634	0.139975	-271.656372	-271.648691	-271.647747	-271.687368	27.295	
C	-0.0249013523	 1.5717842481	 0.0242701786	-0.401435
C	-0.0023538054	 0.0404680742	 0.0129760867	 0.168508
C	 0.7586720771	-0.5155235229	 1.2355890796	-0.413548
C	-1.4332433448	-0.5385906002	-0.0084294753	-0.413533
C	 0.7092697218	-0.4752591541	-1.2315657783	 0.158044
O	 1.1934301482	 0.2049251807	-2.0982070582	-0.252041
H	 0.9897436959	 1.9788314125	 0.0141921093	 0.124515
H	-0.5424214023	 1.96268503	-0.8558708172	 0.124543
H	-0.536734414	 1.9409753161	 0.9188050286	 0.106622
H	 0.2358169174	-0.2441199614	 2.1583942025	 0.122624
H	 0.8290418877	-1.6083694943	 1.201977486	 0.117176
H	 1.7743263271	-0.1109926687	 1.2897452366	 0.125734
H	-2.0068454199	-0.1505416532	-0.856085145	 0.125747
H	-1.4230464057	-1.6320504901	-0.0765029351	 0.117178
H	-1.9616490644	-0.2674936048	 0.91129576	 0.122623
H	 0.7538692536	-1.5902054919	-1.2887604688	 0.067242
