15
gdb 93352	2.32531	1.72652	1.12047	3.601	61.22	-0.277	-0.0529	0.2241	1038.3475	0.112335	-494.947614	-494.939747	-494.938803	-494.980468	28.691	
O	-0.146136003	 1.430031705	 0.4082241333	-0.436056
C	-0.0583323059	 0.0787158606	 0.0194889198	 0.088912
C	 0.7098307569	-0.6651302672	 1.1186123109	-0.090791
O	-0.2740661386	-1.1092944021	 2.0742545412	-0.216637
C	-1.5099995899	-1.1262147254	 1.5319129853	 0.458675
O	-2.4908040134	-1.4782095643	 2.1188944427	-0.341409
C	-1.4170403219	-0.6380174362	 0.0768958479	-0.303086
C	-2.6401237468	 0.1504907829	-0.3360306846	 0.164611
O	-2.5970262154	 1.2248031894	-0.8861905659	-0.262273
H	-0.8099993849	 1.8419640148	-0.1627770901	 0.305153
H	 0.4323488362	-0.034847806	-0.9563548685	 0.088087
H	 1.2430737203	-1.540027623	 0.7325336315	 0.119372
H	 1.4046083137	-0.0002074734	 1.6323699393	 0.149278
H	-1.4079654999	-1.546571931	-0.5450163268	 0.142943
H	-3.6026686671	-0.3412563343	-0.0971817759	 0.133222
