17
gdb 42489	6.19692	0.5793	0.53496	2.9892	82.56	-0.263	-0.0595	0.2035	1948.1815	0.131469	-384.637991	-384.627773	-384.626828	-384.674566	35.662	
O	-0.1505455813	-0.0997455722	 0.0015383746	-0.283595
C	-0.0785188177	 1.1094936686	 0.0056762271	 0.222715
C	 1.2376990918	 1.8689195082	-0.0024906698	-0.309171
C	 2.4624716905	 0.9565065843	-0.0174539137	-0.176131
C	 3.7781864128	 1.7595458084	-0.024973468	-0.368394
C	 4.9609579989	 0.9075199876	-0.0393473535	 0.290544
C	 5.9212571533	 0.1850094289	-0.0510729145	-0.427947
C	-1.2722707064	 1.9421113199	 0.0191422545	 0.247444
C	-2.2475898358	 2.6475196832	 0.0302695678	-0.38971
H	 1.2261028132	 2.5430501975	-0.870836026	 0.133351
H	 1.241436236	 2.5349012793	 0.8722110707	 0.133378
H	 2.4409032149	 0.2947911097	 0.853197476	 0.129167
H	 2.4258368636	 0.3031838296	-0.8939292905	 0.12913
H	 3.7988135828	 2.4252279872	-0.8984657685	 0.12935
H	 3.8139846037	 2.4167565815	 0.8544247122	 0.129355
H	 6.774840467	-0.4462283517	-0.0612622204	 0.195178
H	-3.1209037273	 3.2537285701	 0.0404194721	 0.215337
