16
gdb 85036	2.52238	1.57312	1.01068	4.2109	67.12	-0.2519	-0.0486	0.2034	1125.9449	0.123117	-475.069915	-475.061106	-475.060162	-475.103655	31.376	
C	-0.0450981721	 1.4147198507	-0.0179023355	-0.346299
N	-0.0068304806	-0.0310220893	-0.022499538	-0.09344
C	-1.2141925491	-0.8350493499	 0.0576705358	-0.276893
C	-0.6894278636	-2.2388730704	-0.2293195785	 0.350077
O	-1.3035472603	-3.1709677089	-0.6790001259	-0.307174
C	 0.8055498675	-2.2286815747	 0.0254772195	-0.058938
O	 1.5242458153	-3.125698911	-0.7587976017	-0.418662
C	 1.163807833	-0.7420063099	-0.1736854579	 0.377706
O	 2.2595833518	-0.2734158546	-0.3661363779	-0.365521
H	 0.977977796	 1.7722877521	-0.1407886089	 0.174068
H	-0.6614664247	 1.7936852072	-0.8422723066	 0.131079
H	-0.4548501067	 1.7969018628	 0.9249378336	 0.128799
H	-1.6919497421	-0.7867971895	 1.0482592346	 0.138152
H	-1.9649213232	-0.5462698135	-0.6885660964	 0.143784
H	 0.9517353456	-2.421306139	 1.1071939097	 0.123419
H	 0.8861239831	-3.7841905921	-1.068882876	 0.299845
