16
gdb 62770	3.72691	1.24298	1.20325	3.8401	64.25	-0.248	0.0451	0.2931	1055.6785	0.123835	-475.047596	-475.039463	-475.038519	-475.08005	30.976	
C	-0.0899242441	 1.5861541898	-0.0264476501	-0.472233
C	 0.0133402791	 0.0828977866	-0.0412598112	 0.3023
O	-1.1005642319	-0.6083116243	 0.4582338205	-0.450897
C	 0.6416391503	-0.7103758464	-1.1773237268	-0.075406
N	 1.6014260012	-0.0618580263	-2.0091685607	-0.365904
C	 2.6767232361	 0.4274885728	-1.2967196463	 0.470426
O	 3.5842606637	 1.1039083604	-1.6865096953	-0.385645
O	 2.5405596229	 0.0170484874	 0.0143036584	-0.236339
C	 1.3173046516	-0.6679006433	 0.1738566859	 0.00251
H	 0.78105816	 2.0693496945	-0.4729304891	 0.150513
H	-0.983570867	 1.9029824643	-0.5728032185	 0.132416
H	-0.172375308	 1.9510117602	 1.0039292774	 0.122196
H	-1.1506846686	-0.4499250158	 1.4084117683	 0.289111
H	 0.1339588296	-1.5883016313	-1.559544024	 0.125626
H	 1.397135648	 0.3368639607	-2.909867537	 0.268432
H	 1.3692490172	-1.5085025892	 0.8544139887	 0.122893
