16
gdb 42322	3.42439	1.08612	0.89953	2.9372	70.12	-0.2758	-0.0921	0.1837	1249.6833	0.124756	-437.904849	-437.896379	-437.895435	-437.940091	29.368	
O	 0.026288777	-0.092346702	-0.0933050593	-0.264457
C	-0.0540258402	 1.1099405799	-0.0688065015	 0.27307
C	 1.172524785	 1.9247417043	 0.0984881994	 0.234401
N	 2.1167865841	 2.5791032711	 0.231057117	-0.297373
C	-1.3258201709	 1.9184431817	-0.1548413634	-0.109457
C	-2.5785532434	 1.1035032778	-0.5512356199	-0.271738
C	-3.5654872624	 1.3719458495	 0.6060758094	-0.079284
O	-3.122699992	 2.5773207463	 1.2186387934	-0.229048
C	-1.7178627809	 2.5115479662	 1.2431668604	-0.102947
H	-1.1492089916	 2.7506837606	-0.8429311177	 0.119762
H	-2.9746345175	 1.4613483117	-1.5033640431	 0.121009
H	-2.341810128	 0.0432331875	-0.6533411719	 0.13918
H	-4.5969630968	 1.5220724103	 0.281342173	 0.120063
H	-3.5437839792	 0.5452495948	 1.3326397521	 0.104033
H	-1.3655344682	 1.8461977827	 2.048885735	 0.107553
H	-1.3218499251	 3.5137408474	 1.415661897	 0.135232
