17
gdb 67723	3.69133	1.80159	1.57944	1.0115	77.22	-0.1993	-0.0207	0.1786	870.3473	0.136786	-384.58027	-384.573882	-384.572938	-384.610393	27.83	
O	-0.1215419251	 1.3204917412	 0.0852265868	-0.477437
C	 0.0249214141	-0.0552232384	-0.0263381453	 0.376902
C	-0.4506734047	-0.853276634	-1.1708079893	-0.192831
C	-0.0675337765	-2.1341679968	-0.9563129509	 0.015903
C	-1.1201060623	-2.9991464217	-0.2489029202	-0.273162
C	-0.4064216362	-2.3830202607	 1.0313931462	-0.030466
C	-0.3297277267	-0.8428973242	 1.2909981645	-0.126396
C	 1.0960345656	-0.779780171	 0.7535176197	-0.159532
C	 0.92099376	-2.2063424074	 0.2365550278	-0.075726
H	 0.5974151963	 1.7351278207	-0.4047517264	 0.284814
H	-1.3846519468	-0.5886597171	-1.6585750539	 0.098036
H	-2.1682941555	-2.772317382	-0.4515946794	 0.107721
H	-0.9568271433	-4.0830001242	-0.2550565592	 0.10205
H	-0.419806478	-2.9742780979	 1.9501962881	 0.086329
H	-0.7742832249	-0.289736676	 2.1069774035	 0.101496
H	 1.9727142271	-0.2903023252	 1.1561049089	 0.089999
H	 1.7079549969	-2.9575127752	 0.2382467691	 0.072299
