21
gdb 105046	2.63676	1.2412	1.101	1.7691	77.64	-0.2615	0.0646	0.3261	1214.3079	0.180567	-424.189189	-424.179539	-424.178595	-424.223522	36.553	
C	-0.0215787946	 1.3858891667	-0.6906408916	-0.470462
C	-0.0409346363	 0.0008586524	-0.0769650948	 0.340988
C	 1.1946659829	-0.8004693955	-0.0678416701	-0.226058
O	 0.7521080694	-0.1232643847	 1.1127344371	-0.275643
C	-1.3834803616	-0.6954446249	-0.0334315605	 0.260184
C	-1.9779984438	-0.9590632815	-1.4167677469	-0.15624
O	-3.2237791558	-1.6341311625	-1.3926325142	-0.413267
C	-1.6319421517	-1.6859233419	 1.0746724327	-0.321945
C	-2.3210063775	-0.3414133819	 1.0928053193	-0.295342
H	 0.9671330472	 1.8356253176	-0.5732747125	 0.127108
H	-0.2614993354	 1.3542214105	-1.7582678193	 0.125213
H	-0.7563554536	 2.0320985969	-0.1996956564	 0.130863
H	 1.1297204196	-1.8869191914	-0.0293659365	 0.109857
H	 2.1044284663	-0.4036136504	-0.5166314551	 0.111787
H	-2.1765548373	-0.0073465221	-1.9215037039	 0.114359
H	-1.2435244191	-1.5038754468	-2.0320470709	 0.088704
H	-3.0594990505	-2.5542718749	-1.1663280316	 0.287274
H	-2.2415998641	-2.5587878908	 0.8665938503	 0.088579
H	-0.8289324493	-1.8452997907	 1.7836919086	 0.131085
H	-1.9843841973	 0.3824277073	 1.8269557265	 0.118676
H	-3.3804152075	-0.3202922515	 0.8649312598	 0.124281
