17
gdb 79545	2.55541	1.66224	1.20282	2.1928	78.78	-0.2424	0.0185	0.2609	1052.3958	0.134237	-384.596588	-384.588548	-384.587604	-384.628895	31.491	
C	-0.0909171024	 1.5137618731	-0.0732184247	-0.421736
C	 0.090089987	 0.0122315205	 0.0198937968	-0.006207
C	 1.3848024741	-0.7325057812	-0.2064062963	-0.11785
C	 2.5583401455	 0.0000333188	 0.4002871859	-0.068076
O	 3.0911421828	-0.7691648468	 1.4798699316	-0.287443
C	 1.904308522	 0.0130802109	 1.7395605049	 0.292053
C	 1.941752899	 0.9756572928	 2.7875760044	 0.244528
C	 1.9298261985	 1.779414335	 3.6820474147	-0.422123
C	 0.7036525666	-0.7300450491	 1.1830509566	-0.199925
H	 0.7406590153	 2.0619418489	 0.3736791376	 0.133614
H	-0.1792999502	 1.824704442	-1.1198751576	 0.118471
H	-1.0058392145	 1.8210275748	 0.4442828343	 0.123055
H	-0.7553077258	-0.5390262864	-0.3913526612	 0.094439
H	 1.4652243745	-1.5709525206	-0.8871495425	 0.103825
H	 3.2120096452	 0.7443677098	-0.0387414433	 0.115844
H	 1.9311301299	 2.4888112885	 4.472297591	 0.194107
H	 0.2121635925	-1.5583758009	 1.6779233979	 0.103424
