18
gdb 95060	2.27826	1.89074	1.20854	3.8591	71.37	-0.2297	-0.0218	0.2079	1033.2856	0.148255	-439.075848	-439.067947	-439.067003	-439.108444	30.473	
O	-0.0147709028	 1.4521507352	 0.2509277024	-0.420047
C	 0.0466656043	 0.044010611	 0.1452703727	 0.116773
C	 0.6384012166	-0.6789313536	 1.3731800893	-0.26699
C	-0.0950554213	-2.0326414977	 1.3734563757	-0.177548
N	-1.4593969833	-1.7612110816	 0.8937174296	-0.098461
C	-2.369784536	-1.1074898356	 1.8795839485	-0.303366
C	-2.4691710986	 0.1048758341	 0.9417942411	 0.416972
O	-3.1505510758	 1.0819706925	 0.8949652668	-0.282691
C	-1.3924434637	-0.528596812	 0.040226714	-0.139844
H	 0.8813740787	 1.7987739037	 0.2010015101	 0.288604
H	 0.601449979	-0.2498894132	-0.7588782783	 0.076281
H	 1.7266713156	-0.7772930018	 1.3257325594	 0.09769
H	 0.3915821561	-0.0935307106	 2.2662338501	 0.114148
H	 0.3894821256	-2.7323176702	 0.6812700699	 0.107638
H	-0.1240568841	-2.5155892662	 2.3540244692	 0.112371
H	-3.3028688119	-1.6518680853	 2.0591868685	 0.132323
H	-1.9124803006	-0.8651466342	 2.8499315429	 0.12138
H	-1.7017960676	-0.6697955444	-0.9996811119	 0.104768
