19
gdb 7977	3.26503	1.78153	1.30231	1.3529	72.46	-0.2373	0.0319	0.2692	1004.7005	0.165035	-365.102307	-365.093699	-365.092755	-365.135536	31.534	
C	-0.4370342512	 1.5421380002	-0.0111757765	-0.405328
C	 0.081604027	 0.1158253789	-0.0760354411	 0.102636
O	 1.1557197174	 0.042800989	-1.0513622973	-0.267207
C	 2.1294530977	-0.7213591578	-0.4839215319	 0.400502
C	 3.287378039	-1.0229678526	-1.3733666447	-0.473612
N	 1.9849723255	-1.1003779093	 0.7203422205	-0.313662
C	 0.7250908791	-0.5074175495	 1.206980128	 0.006359
C	 1.015752947	 0.4513261248	 2.3647360378	-0.386086
H	 0.3382264083	 2.2354645402	 0.3243890935	 0.127182
H	-0.7786384283	 1.8627140277	-0.9992805945	 0.12737
H	-1.2843494137	 1.6090934972	 0.6781653218	 0.121486
H	-0.7149761668	-0.5428349319	-0.4440866238	 0.086142
H	 3.7459503654	-0.0932130341	-1.7246919902	 0.142621
H	 4.0242913984	-1.6129881448	-0.829683012	 0.149861
H	 2.9538000855	-1.5742268396	-2.2582091728	 0.142403
H	 0.0815954503	-1.3102493104	 1.5839021988	 0.081984
H	 1.674370697	 1.2671755831	 2.0520472532	 0.118564
H	 0.0953159347	 0.8830704832	 2.7701048536	 0.109291
H	 1.5214246377	-0.0950011944	 3.1649797577	 0.129492
