14
gdb 20929	7.18128	1.17924	1.04632	1.2227	62.01	-0.2479	-0.0164	0.2315	1094.8948	0.106576	-415.838543	-415.831096	-415.830152	-415.871956	25.817	
C	-0.0903217745	 1.0435989344	 0.9849022816	-0.363663
C	 0.2412355537	 0.3086987721	-0.3118154871	-0.140901
N	 1.0643076705	-0.8648611141	-0.028651319	-0.363773
C	 1.924077908	-1.2274829942	-0.8513871128	 0.550521
O	 2.7521872554	-2.3216088444	-0.6516310793	-0.194093
C	 3.5388804957	-2.3615858341	-1.7420136285	 0.106487
N	 3.3325519619	-1.4574035124	-2.6187003872	-0.111966
O	 2.2645205787	-0.6943761181	-2.0698667049	-0.255644
H	-0.5928830596	 0.3730319772	 1.6874672387	 0.127481
H	 0.8203049448	 1.4141450734	 1.4650154574	 0.120664
H	-0.7457499947	 1.8970051033	 0.7850753628	 0.110635
H	-0.6883723295	-0.0313289977	-0.7874562737	 0.114899
H	 0.7284713896	 0.990902501	-1.0213553582	 0.113001
H	 4.28389953	-3.1385389063	-1.8129459795	 0.186353
