20
gdb 117174	2.73238	0.8938	0.69709	1.1996	73.47	-0.263	0.0211	0.2841	1621.9153	0.169115	-477.423877	-477.41343	-477.412486	-477.460116	37.234	
C	-0.2885955772	 1.0515494337	 1.1196600275	-0.391423
C	-0.1236644095	-0.0610312654	 0.1024459104	-0.033325
O	-1.3126457746	-0.8714192256	 0.1493066138	-0.247735
C	-1.3704559122	-1.9090331957	-0.7020136142	 0.373107
N	-0.4240571558	-2.1980261287	-1.494744393	-0.538619
C	-2.7022125893	-2.6387375495	-0.5645024456	-0.005563
O	-2.6995027466	-3.8610257638	-1.2956857674	-0.431912
C	-3.1063215029	-2.9051814466	 0.8911030039	-0.064912
O	-4.3441794666	-3.5777252901	 0.9453612096	-0.421147
H	 0.5980606329	 1.6923434126	 1.1143218392	 0.123537
H	-1.1609660611	 1.6687661218	 0.8867951426	 0.129293
H	-0.413612727	 0.645518029	 2.1275492255	 0.128249
H	 0.0014439888	 0.3228082388	-0.9151059492	 0.123645
H	 0.7438354742	-0.6930111265	 0.3180799743	 0.122109
H	-0.6999031196	-2.9898819307	-2.0744700792	 0.225614
H	-3.4864228976	-2.0305664332	-1.0301615671	 0.128365
H	-2.0031662402	-4.4186657197	-0.924897701	 0.285672
H	-2.3038453024	-3.4852120952	 1.3835322026	 0.07913
H	-3.2104888578	-1.9632881878	 1.4329586548	 0.130309
H	-4.3115628053	-4.2535438575	 0.2565902626	 0.285607
