16
gdb 45273	2.93181	1.77526	1.30948	3.5477	70.27	-0.2563	0.0052	0.2616	960.6219	0.125442	-437.832107	-437.825251	-437.824307	-437.863382	27.05	
N	-0.0124495076	 1.232678781	 0.0510435775	-0.555396
C	-0.060157153	-0.0166620774	 0.0115732263	 0.375193
O	 0.9625859137	-0.9719441965	 0.020718217	-0.281799
C	 0.0547090668	-2.0746628899	-0.2975526181	 0.043031
C	-0.3464903371	-2.9195817457	 0.9328816531	-0.272844
C	-1.493176593	-1.9122683034	 1.21880597	-0.126481
C	-2.8215549735	-2.0696522092	 0.4308168826	-0.117692
O	-2.401537971	-1.1072519104	-0.586246893	-0.31813
C	-1.1169481447	-1.0743652464	-0.0373683835	 0.338297
H	 0.9500396281	 1.5712729346	 0.0955112748	 0.233409
H	 0.3059663281	-2.5313993888	-1.2543062605	 0.102107
H	-0.6734897048	-3.9351708295	 0.6929318874	 0.113769
H	 0.4277045939	-2.9669421368	 1.7013949842	 0.126959
H	-1.5812875442	-1.4701888383	 2.2094953127	 0.100821
H	-2.9993343012	-3.0605366531	-0.00297992	 0.112087
H	-3.7225090108	-1.7225429203	 0.9436113595	 0.126667
