20
gdb 81495	3.4675	1.25099	1.04371	4.2805	84.38	-0.2961	0.0325	0.3286	1199.2796	0.170948	-365.979496	-365.970761	-365.969817	-366.012429	33.757	
C	-0.1613275298	 1.6297301909	 0.1569672296	-0.449088
C	 0.0197811274	 0.1186055516	 0.118234106	 0.041158
C	 1.1714149979	-0.5528264092	-0.7031478933	-0.083658
C	 2.1573731735	-0.0773084307	 0.4042846933	-0.259107
C	 0.9146731265	-0.6314055705	 1.1614662961	-0.083594
C	 0.9426029474	-1.855410224	 0.1621143201	 0.203801
C	-0.2820411677	-2.7567820168	-0.0444617525	-0.485375
C	 2.1101319132	-2.7333662484	 0.286020125	 0.223786
N	 2.9931835815	-3.4751637747	 0.3764862005	-0.356186
H	 0.7629436597	 2.1907317327	 0.3075781205	 0.123691
H	-0.6092779656	 1.9766841584	-0.7806631768	 0.123221
H	-0.8490972683	 1.9032160896	 0.9646599107	 0.123225
H	-0.9611199501	-0.3325849629	-0.0357797499	 0.068558
H	 1.3227534611	-0.5316629114	-1.7837272294	 0.082468
H	 3.0886358949	-0.6345813874	 0.5090168062	 0.13261
H	 2.3392247637	 0.9927537139	 0.4744246849	 0.10052
H	 0.7686162399	-0.7012880817	 2.2407213051	 0.082461
H	-1.211854141	-2.1990764454	-0.1515386904	 0.130847
H	-0.1486646795	-3.3684782564	-0.9416754116	 0.140351
H	-0.3916395247	-3.4386119676	 0.8041128561	 0.140312
