17
gdb 89322	2.00735	1.77157	1.1198	2.2495	76.59	-0.2444	0.014	0.2584	1116.311	0.132917	-421.761205	-421.752325	-421.751381	-421.794445	33.841	
C	 0.0784991241	 1.4988955923	-0.0429449503	-0.495177
C	-0.133195224	 0.0325684394	 0.135770431	 0.324524
C	-1.4247801665	-0.7833910531	 0.0159970896	-0.334201
C	-0.8117169178	-1.827209774	 1.025662854	 0.073506
O	-0.589820618	-3.131055718	 0.5822788881	-0.432372
C	 0.4423279836	-0.9211994093	 1.1233839034	 0.198413
O	 0.9333051174	-0.8576587044	-0.2396260591	-0.333328
C	 1.3513577099	-0.7484732184	 2.2008409968	 0.159958
C	 2.0837110289	-0.6202133369	 3.1465735501	-0.379176
H	 1.0726844065	 1.7860049066	 0.3083006243	 0.144836
H	-0.0087148966	 1.7742886071	-1.0997709006	 0.135975
H	-0.6726159942	 2.0654791341	 0.516007753	 0.130423
H	-2.3042651344	-0.2757392921	 0.4200295159	 0.111354
H	-1.6450971408	-1.1662717311	-0.98352158	 0.108838
H	-1.3694101912	-1.887054782	 1.962279797	 0.10406
H	 0.0177575134	-3.060047301	-0.1657280502	 0.290762
H	 2.7378336297	-0.5063952494	 3.975531547	 0.191605
