18
gdb 62693	2.50508	1.72661	1.32073	2.4754	71.61	-0.2078	0.0533	0.2611	1010.8095	0.145268	-438.973149	-438.964581	-438.963636	-439.005681	33.785	
C	-0.0546910977	 1.6192379801	-0.0338354573	-0.498907
C	 0.1099282194	 0.1093431195	 0.0770752649	 0.280045
O	-1.1082136668	-0.5666117487	-0.2250801153	-0.467521
C	 1.2582298822	-0.8458203883	-0.3225074469	-0.187895
N	 2.689341417	-0.5722620721	 0.0790571793	-0.138374
C	 2.829832066	 0.7523301595	 0.7095615773	-0.252038
C	 2.2072673732	-0.346741108	 1.4876919054	-0.10568
C	 0.7718078057	-0.7386675807	 1.1196286486	 0.396056
O	 0.0996441398	-1.5835055699	 1.9679484182	-0.465524
H	 0.3294330753	 2.0122845728	-0.981780719	 0.123502
H	-1.1236550359	 1.8440847097	 0.0198079361	 0.127977
H	 0.4309649231	 2.1549530876	 0.7840268356	 0.139014
H	-1.2152958168	-0.5934440305	-1.1823160493	 0.291397
H	 1.0983503289	-1.5745897227	-1.1093999599	 0.098248
H	 3.8671052494	 0.9705259127	 0.954399358	 0.123498
H	 2.2789833717	 1.6032787002	 0.3384376162	 0.124799
H	 2.7039268128	-0.8281977604	 2.3237945662	 0.113269
H	-0.7643013273	-1.7346357408	 1.5605199016	 0.298133
