19
gdb 41230	3.31582	1.88949	1.73882	1.3122	77.2	-0.228	0.0879	0.3159	873.726	0.163017	-385.854603	-385.848574	-385.84763	-385.884472	27.004	
C	-0.0301133338	 1.4967308926	-0.2611706622	-0.267621
C	 1.4830509388	 1.5115046127	 0.1773817768	-0.329302
C	 1.1664060698	 0.2493332085	 0.9943518773	 0.398646
C	 1.6956514021	-1.1390489096	 1.364633379	-0.317156
C	 0.3124490541	-1.6386648562	 1.8416366508	-0.118822
C	-0.3512473151	-0.4113275529	 2.4169181173	 0.090769
O	 0.527438902	 0.6762601713	 2.2240665533	-0.30051
C	-0.8117061837	-0.8825025227	 1.0630903242	-0.157999
C	-0.0369359874	-0.033751984	 0.0774965402	 0.010145
H	-0.6485808261	 2.0927355498	 0.4087314132	 0.122469
H	-0.2475086988	 1.7624122839	-1.2972366804	 0.093725
H	 2.1514074345	 1.3067834993	-0.6625747788	 0.106329
H	 1.8510425489	 2.3717763973	 0.7386939775	 0.110975
H	 2.0879626324	-1.6858540343	 0.5038425455	 0.101427
H	 2.4287125673	-1.1470126126	 2.17600668	 0.104421
H	 0.15583132	-2.6310105988	 2.2425196934	 0.089139
H	-0.9476493061	-0.3660759326	 3.3174741029	 0.100367
H	-1.7776316051	-1.3405463319	 0.8958646864	 0.085082
H	 0.2611847364	-0.6049445797	-0.8067094562	 0.077914
