20
gdb 18158	3.46939	1.46698	1.28331	1.2194	74.81	-0.2474	0.0772	0.3246	1040.0882	0.177226	-348.966325	-348.957958	-348.957014	-348.999028	31.69	
C	 0.3780657407	 1.7048756603	-0.6567023437	-0.42002
C	 0.4210329411	 0.2172381255	-0.3682691388	 0.019508
C	 1.6358890299	-0.662464577	-0.4476731706	-0.072198
C	 2.8790222331	 0.0192456495	 0.1458257097	-0.257067
C	 2.1541634697	 0.0975831531	 1.5297328812	 0.056382
C	 2.0978522852	 1.3954386523	 2.3154395819	-0.1053
O	 3.4115268911	 1.6525230219	 2.7990304048	-0.424032
C	 0.8860696584	-0.4826709545	 0.8871761409	-0.12146
H	 1.3202884303	 2.2083360025	-0.431361893	 0.12277
H	 0.1674792192	 1.8758104071	-1.7186126528	 0.112263
H	-0.4114458861	 2.1996542518	-0.0798121228	 0.113096
H	-0.4544123386	-0.2969278799	-0.7644994185	 0.08319
H	 1.6658810764	-1.5371122858	-1.0869502791	 0.080292
H	 3.7579656283	-0.626897846	 0.1718979496	 0.104494
H	 3.1734458583	 0.9707429773	-0.3083148915	 0.09652
H	 2.5944132605	-0.6537800241	 2.1935090913	 0.0843
H	 1.7399037105	 2.2249625701	 1.6905095183	 0.084597
H	 1.3810777394	 1.2818213475	 3.1465019184	 0.080696
H	 3.4027725252	 2.4960587853	 3.2603224159	 0.28478
H	 0.2317342375	-1.1881833168	 1.3882298289	 0.077189
