19
gdb 38817	2.99238	1.77818	1.47361	1.7057	78.15	-0.2334	0.0272	0.2606	950.1863	0.162569	-385.897393	-385.890644	-385.8897	-385.928383	27.929	
C	 0.4397510117	 1.5530988318	 0.5353316029	-0.263529
C	 1.5777554497	 1.9595505362	-0.3701127533	-0.05175
C	 2.0400131956	 0.9467383249	-1.0994068269	-0.069593
C	 1.3074757886	-0.3404905148	-0.8051596868	-0.091903
C	 2.0568942774	-1.3170361596	 0.0948874593	 0.034554
O	 2.3416007458	-0.7769342565	 1.3922883754	-0.254721
C	 1.2243595422	-1.6660824783	 1.25389303	 0.056511
C	-0.1091421065	-0.9513046928	 1.1662857275	-0.269513
C	 0.0811257419	 0.1173732087	 0.0601919892	-0.012703
H	 0.7655084155	 1.5612194848	 1.582693865	 0.117335
H	-0.4162027884	 2.2355400543	 0.4675208488	 0.093768
H	 1.9781953708	 2.9677879238	-0.3811207471	 0.090403
H	 2.8729071904	 0.9992244581	-1.7920016802	 0.089126
H	 1.0050834115	-0.8736222521	-1.7159037451	 0.069865
H	 2.8175207575	-1.9817358642	-0.3090601078	 0.088411
H	 1.3160543667	-2.611886634	 1.7840442831	 0.088908
H	-0.882551522	-1.6775732774	 0.8882739858	 0.099371
H	-0.4078865565	-0.5142690482	 2.1250153548	 0.109165
H	-0.811751712	 0.1724960154	-0.5672063246	 0.076296
