17
gdb 35261	2.3438	1.63178	1.19702	4.1585	71.67	-0.2513	0.0112	0.2625	1059.7866	0.137017	-417.963047	-417.954856	-417.953912	-417.99668	29.721	
N	 0.5117264319	-0.603338987	 1.7451923037	-0.344933
C	 0.3841220892	 0.3001949516	 1.035094469	 0.341651
C	 0.1861720846	 1.4030707907	 0.1247517173	-0.176407
N	 0.5375399296	 2.7547984805	 0.5995431742	-0.316511
C	 1.3081357708	 2.1729477656	-0.4994484919	-0.040417
C	 2.7766502792	 1.8782379688	-0.269568916	 0.148662
C	 3.3100517143	 1.5835139684	 1.1466018768	-0.307335
C	 3.7788539981	 0.2479082263	 0.5344757797	-0.062219
O	 3.152024266	 0.5638388219	-0.735134719	-0.298695
H	-0.7062766113	 1.2875355994	-0.4851151077	 0.136028
H	-0.146900581	 3.4278470058	 0.2654430928	 0.250217
H	 1.0827264422	 2.5179605319	-1.5077469057	 0.105817
H	 3.3545443219	 2.6535089604	-0.7936826543	 0.077452
H	 4.0935677329	 2.259223787	 1.4909251789	 0.11069
H	 2.5474185986	 1.4981324769	 1.9186014476	 0.143357
H	 4.8646033911	 0.1365657609	 0.4289703664	 0.1009
H	 3.356598242	-0.6598310092	 0.9754784882	 0.131744
