16
gdb 26451	4.29115	1.10262	0.88211	1.8539	75.9	-0.2067	-0.0016	0.2051	1248.0421	0.125934	-434.095086	-434.086915	-434.08597	-434.128397	29.48	
C	 0.0623572556	 1.4664884899	-0.0122722086	-0.356238
N	 0.0125158124	 0.0138757491	 0.0116147862	-0.169283
C	-0.0443922733	-0.67155294	 1.210548629	 0.078572
N	-0.0556715946	-0.0659203406	 2.3326097777	-0.49337
C	 0.0242156055	-0.6517771197	-1.2004268749	 0.382419
C	 0.0777167235	-0.1309693768	-2.4591479809	-0.158881
O	 0.0665489986	-1.1915770036	-3.3392434918	-0.141496
C	 0.0073039995	-2.2777538337	-2.5562596715	 0.087796
N	-0.0205928914	-2.0374249045	-1.2851563508	-0.33323
H	 0.9794424352	 1.8110324147	-0.504749839	 0.128001
H	-0.8004971479	 1.8713403736	-0.5543647126	 0.12801
H	 0.0454707314	 1.8167462313	 1.0180784802	 0.179819
H	-0.0764741385	-1.750872326	 1.0579402375	 0.13734
H	-0.099838879	-0.7429375867	 3.0901274723	 0.225462
H	 0.1230225995	 0.8530853396	-2.8855547816	 0.147955
H	-0.0114624064	-3.2383646266	-3.0466734109	 0.157125
