21
gdb 112505	2.08672	1.2345	1.0966	1.018	84.07	-0.2504	0.0478	0.2982	1266.5807	0.180727	-387.042262	-387.032287	-387.031343	-387.076963	37.3	
C	-0.8195025552	 1.2160402355	 0.1617186097	-0.417794
C	-0.1807889934	-0.1562020008	 0.0130320346	 0.01106
C	 0.6529269028	-0.5306361202	-1.2537572268	 0.011147
C	 1.2758206208	 0.6352585628	-2.0057760223	-0.09573
O	 2.1337762945	 0.0813818658	-2.9964849142	-0.425386
C	 1.6586923852	-1.2769537376	-0.3371236636	-0.22898
C	 1.0516006598	-0.5544449824	 0.9150894003	-0.203855
C	 1.8443785753	 0.5481615443	 1.4254893458	 0.36449
C	 2.5028102935	 1.4624495791	 1.849646039	-0.50302
H	-0.0838056779	 2.0206039967	 0.0819442762	 0.128446
H	-1.586937433	 1.374053165	-0.6038921447	 0.11282
H	-1.3026288894	 1.3118802436	 1.1400720613	 0.116409
H	-0.9469426176	-0.9246628645	 0.1590876129	 0.078827
H	 0.1297926797	-1.1593588417	-1.9802465205	 0.073131
H	 0.4855089783	 1.2506390364	-2.4651885096	 0.082756
H	 1.836874405	 1.2789880209	-1.312526667	 0.10058
H	 2.6065647593	 0.8032869579	-3.4203329474	 0.285514
H	 1.4829418249	-2.3542723441	-0.2993609308	 0.100479
H	 2.7153778349	-1.0960834564	-0.5370879186	 0.118231
H	 0.7937145761	-1.2197163998	 1.7449047049	 0.096889
H	 3.0876511065	 2.2622855195	 2.2310130607	 0.193986
