13
gdb 125339	5.59021	1.34674	1.09268	6.9373	66.12	-0.2627	-0.0318	0.2309	1023.4969	0.090811	-448.90585	-448.899222	-448.898278	-448.936964	24.701	
C	 0.0734288472	 1.4553878866	 0.0399915164	-0.490298
C	-0.0822074655	-0.0165979808	 0.0046934541	 0.321875
C	-1.1356606215	-0.8296143333	-0.2396415514	-0.208576
N	-0.6302426727	-2.1245817132	-0.1215624357	 0.020847
N	-0.9684096602	-3.4353609182	-0.1994395996	-0.162216
N	 0.1397666314	-4.0731429687	 0.0583676786	-0.097295
N	 1.2009499529	-3.2451982757	 0.3044889035	-0.349889
C	 0.6753717655	-2.0521070894	 0.1817477865	 0.54161
O	 1.0634900845	-0.7709247605	 0.2712795208	-0.234296
H	 0.811273522	 1.7894983648	-0.6968498517	 0.161401
H	-0.8822438466	 1.9342376916	-0.182031226	 0.152305
H	 0.4115278794	 1.7905158223	 1.0260700594	 0.161401
H	-2.1596377064	-0.6051803754	-0.4776582849	 0.18313
