16
gdb 46193	3.14229	1.61343	1.21963	1.4037	69.69	-0.2367	-0.0393	0.1975	996.8698	0.123948	-437.797131	-437.789919	-437.788975	-437.828867	28.151	
O	-0.1212169948	-0.0018738333	-0.1876828629	-0.293098
C	-0.106776555	 1.1794064236	-0.008784118	 0.296622
C	-1.1595915786	 2.2663589857	 0.2770553207	-0.282226
N	-0.0355241758	 3.2063909616	 0.5147480898	-0.398524
C	 0.9686193234	 2.2738075737	 0.0097500911	 0.329763
C	 2.4311445401	 2.2409756772	 0.5128975781	-0.015182
C	 2.8239399287	 1.394437421	-0.7183027047	-0.236786
C	 1.9359479694	 2.567843435	-1.1831624538	-0.028217
O	 2.6857020088	 3.4743532913	-0.2848083353	-0.325106
H	-1.7851747221	 2.4705288955	-0.603183059	 0.126464
H	-1.8083625897	 2.1012220881	 1.1432697425	 0.135925
H	-0.0777674018	 4.1039361655	 0.049441498	 0.235629
H	 2.7986100453	 2.2175934022	 1.5380132747	 0.105631
H	 3.8700899232	 1.4876605546	-1.0083202161	 0.114356
H	 2.4264374682	 0.3808356571	-0.7949520199	 0.133416
H	 1.7033654306	 2.9246767713	-2.1874098851	 0.101334
