19
gdb 46513	3.57934	1.21445	1.03891	2.8383	75.28	-0.2382	-0.0145	0.2237	1169.6978	0.160168	-423.04686	-423.038884	-423.03794	-423.079542	30.98	
O	 0.004802752	-0.0397503266	 0.1693509385	-0.304857
C	-0.0134274856	 1.162693091	 0.0473853639	 0.38667
C	-1.3090362399	 1.9636959775	-0.0146695919	-0.298341
C	-1.3262138247	 2.9365680234	-1.2135774399	-0.285224
C	-0.0668187928	 3.7799309146	-1.2320666655	 0.436776
C	-0.0924189866	 5.1654915637	-1.7123405	-0.249557
O	-0.0695704508	 4.8849455069	-0.3087890714	-0.282729
C	 1.2153867779	 2.9716144539	-1.2479471557	-0.285224
C	 1.257455263	 1.999086122	-0.0493754227	-0.298341
H	-2.1518327613	 1.2698123064	-0.0393035784	 0.11901
H	-1.3789982987	 2.5546988309	 0.9084247846	 0.133231
H	-1.3917756662	 2.368119342	-2.149948644	 0.112294
H	-2.2070936322	 3.5825442598	-1.1608791708	 0.111974
H	 0.8149420328	 5.6161665196	-2.1131071055	 0.113904
H	-1.0223625428	 5.5908317956	-2.0882613531	 0.113904
H	 1.2712553208	 2.4048398005	-2.1859601929	 0.112294
H	 2.0792261021	 3.641648912	-1.2188426551	 0.111974
H	 1.3360282945	 2.592137639	 0.8717100161	 0.133231
H	 2.1180863311	 1.3286913077	-0.0970440761	 0.11901
