19
gdb 107861	2.66304	1.48279	1.14508	3.2846	79.84	-0.2384	0.0078	0.2462	1126.5723	0.159064	-385.843694	-385.835676	-385.834732	-385.876494	31.021	
C	 0.0188785055	 1.5232763276	 0.0792816097	-0.381212
C	-0.0749913909	-0.0028058775	-0.0329401297	-0.315051
C	-1.4951904334	-0.5092642641	-0.056488094	 0.378772
C	-2.6325449901	-0.2035272343	-1.060647287	-0.321331
C	-3.2576748786	-1.1740886023	-0.0461721745	-0.039435
C	-1.9383340643	-2.0284878879	 0.0676524429	-0.247882
C	-1.977476186	-1.8798071295	 1.5842670633	 0.445461
O	-1.7156863691	-2.4991076831	 2.5708476018	-0.33512
C	-2.5076853534	-0.5118966489	 1.17118553	-0.235059
H	 1.0622683183	 1.8514320308	 0.079770764	 0.119032
H	-0.4850195508	 2.0146591866	-0.759599535	 0.120502
H	-0.4454245237	 1.8814621321	 1.0038912238	 0.121771
H	 0.4336706091	-0.3383516932	-0.9461245132	 0.104703
H	 0.4538714206	-0.4737129621	 0.8057046891	 0.114295
H	-3.0232447689	 0.8186647175	-1.0719162143	 0.100568
H	-2.4976713207	-0.5731387461	-2.0822962712	 0.098676
H	-4.2667213225	-1.5821611233	-0.0037029169	 0.09172
H	-1.6332456398	-2.8451367242	-0.5844337058	 0.089417
H	-2.8377036613	 0.3527449718	 1.744040047	 0.090174
