13
gdb 128998	4.20847	1.70542	1.21362	0.9728	71.31	-0.259	-0.0588	0.2003	915.08	0.095064	-411.852644	-411.846902	-411.845958	-411.882693	22.713	
N	 0.0135594357	 1.3067132627	 0.0093998476	-0.323701
N	 1.2602974641	 1.8530326222	 0.0003974103	-0.183789
C	 2.1080431434	 0.8441465104	-0.0135714269	-0.132778
C	 1.4181777826	-0.4047137357	-0.013984059	 0.152961
C	 0.0488423161	-0.0484270008	 0.0013451337	 0.451404
N	-0.9767595323	-0.9012791999	 0.0064526173	-0.347955
C	-0.5843876074	-2.1707515694	-0.0045861002	 0.066041
N	 0.6755018677	-2.6556301406	-0.0195808174	-0.268944
C	 1.6726411164	-1.7779199644	-0.024270887	-0.080739
H	-0.7947288781	 1.9061766398	 0.0206684485	 0.283427
H	 3.1707468792	 1.0362415106	-0.0227983603	 0.132563
H	-1.374421247	-2.9169520698	-0.0011546634	 0.124374
H	 2.6843030297	-2.178491885	-0.0363747933	 0.127136
