18
gdb 99954	2.12594	1.4351	1.06835	4.7834	73.4	-0.2791	-0.0858	0.1934	1193.6205	0.143033	-439.096403	-439.085749	-439.084805	-439.133119	36.77	
C	-0.2265413417	 1.3098562363	 0.090567207	-0.251621
O	-0.0048656865	-0.0795388323	-0.0497848959	-0.279794
C	 0.7509183191	-0.5233182437	-1.1659893077	 0.251775
C	 0.1219200573	-0.1138396573	-2.5147201292	-0.438921
C	 2.2257941403	-0.1143666281	-1.080687607	-0.427587
C	 0.6437736886	-2.0541803944	-1.086061363	 0.273045
O	 1.4479024187	-2.816027813	-1.556270846	-0.283921
C	-0.5723861227	-2.5795549906	-0.4276980415	 0.270447
N	-1.5108513972	-3.0651440061	 0.041742606	-0.315204
H	 0.7113539916	 1.8770606408	 0.1531646051	 0.115885
H	-0.8359156924	 1.7202861504	-0.7246810045	 0.118129
H	-0.7721585988	 1.434990776	 1.0279790794	 0.144276
H	 0.2063473678	 0.9654434835	-2.6658863701	 0.132026
H	 0.6444603649	-0.6113491888	-3.3358611516	 0.144933
H	-0.9360809961	-0.3896417225	-2.5507163363	 0.142477
H	 2.6165914652	-0.3219255032	-0.081083419	 0.134784
H	 2.8108303631	-0.6819042184	-1.8068532552	 0.148177
H	 2.347448609	 0.9506897313	-1.2933392304	 0.121094
