17
gdb 73936	2.95383	1.2987	0.9173	3.1233	88.46	-0.2398	-0.0634	0.1764	1231.1683	0.134367	-384.715246	-384.706205	-384.705261	-384.74946	32.783	
C	 0.0527337106	 1.5618050563	 0.0432909548	-0.51378
C	-0.0215258305	 0.0732046744	 0.0279861904	 0.100207
C	-1.1113613484	-0.7257794392	-0.0341400049	 0.094669
C	-0.7622159687	-2.207412037	-0.0276560919	-0.336259
C	 0.7730853256	-2.2350987365	 0.0509633973	-0.344826
C	 1.2019956446	-0.7633369187	 0.0843447111	 0.356222
O	 2.3377888624	-0.3486372497	 0.145856561	-0.332145
C	-2.4559113752	-0.2973845113	-0.0998662541	 0.21137
C	-3.6148658202	 0.0305482998	-0.1568259263	-0.390464
H	 0.6523051279	 1.9218500434	-0.8000879031	 0.145652
H	-0.9386987324	 2.0166209773	-0.0040266051	 0.132334
H	 0.5626265839	 1.9083292798	 0.9490140864	 0.145653
H	-1.2411944574	-2.7068524581	 0.8214343112	 0.128158
H	-1.1513179914	-2.6933332811	-0.92893072	 0.128158
H	 1.1472443837	-2.7416939377	 0.9453207419	 0.136617
H	 1.2372775757	-2.728163951	-0.8080599539	 0.136617
H	-4.6324481801	 0.3309875394	-0.2067434847	 0.201818
