17
gdb 38293	3.86662	1.70639	1.68002	2.059	69.2	-0.2354	0.0583	0.2937	852.6955	0.138777	-421.722497	-421.716842	-421.715898	-421.752184	24.94	
C	-0.0607006171	 1.5913795325	 0.0218854076	-0.244419
C	 1.469960333	 1.3710543091	 0.0424888157	 0.052918
O	 1.2394841426	 0.1427876992	 0.8052955251	-0.293466
C	-0.0114705631	 0.0458592986	 0.0507444353	 0.052918
C	 0.3546182362	-0.4930720331	-1.35245993	-0.040285
C	 0.830573056	 0.5800677672	-2.3798450571	 0.026076
O	 1.7079314335	-0.404732378	-3.0227936682	-0.321844
C	 1.8942204471	-0.6039717214	-1.5753723903	 0.070253
C	 1.9562415	 0.939636738	-1.3613841404	-0.040284
H	-0.4211439285	 2.0002021542	 0.9665160093	 0.112801
H	-0.5218436329	 2.1016051625	-0.8264632913	 0.103232
H	 2.1311999134	 2.0684720492	 0.5593189686	 0.081513
H	-0.7747448386	-0.5310055893	 0.575513092	 0.081513
H	-0.2534750295	-1.3028692873	-1.756187962	 0.081128
H	 0.2447398929	 1.2309161221	-3.0304364141	 0.093704
H	 2.5876351159	-1.3771156434	-1.2504546111	 0.103115
H	 2.8260045392	 1.4518328899	-1.7733461992	 0.081128
