19
gdb 68708	2.37793	1.63198	1.33526	0.953	86.96	-0.2296	0.0411	0.2707	1060.9231	0.158246	-348.685564	-348.677174	-348.67623	-348.718025	33.408	
C	-0.0082680695	 1.5254902311	 0.0871475908	-0.485339
C	-0.04075416	 0.0248366445	 0.0258257913	 0.282259
C	 1.1510529946	-0.8067033529	-0.3539274867	-0.383395
C	 0.5781528069	-0.9921962268	 1.0423268131	 0.149131
C	 1.3241357268	-0.7075023121	 2.221558832	 0.218761
C	 1.9449449702	-0.4651877722	 3.2248739116	-0.428972
C	-0.6884127893	-1.8203015892	 0.9702378546	-0.135368
C	-1.8904025017	-0.9981452256	 1.3481462228	-0.293031
C	-1.2930852124	-0.8240148226	-0.0247952517	-0.114329
H	 0.9591341013	 1.8838103666	 0.4524840215	 0.128032
H	-0.1747195949	 1.9636661622	-0.9041878396	 0.121204
H	-0.7841739446	 1.9105355709	 0.756986373	 0.122593
H	 1.0560704541	-1.6173511441	-1.0718675978	 0.108095
H	 2.0996405965	-0.2797049905	-0.3929801009	 0.120631
H	 2.4943605516	-0.259417117	 4.1094295807	 0.183381
H	-0.7159109755	-2.9029993976	 0.9247437791	 0.091151
H	-2.832645346	-1.537217858	 1.3824562521	 0.111002
H	-1.797486743	-0.2123875151	 2.0926329795	 0.116227
H	-1.8502492053	-1.0560792818	-0.9257646056	 0.087967
