15
gdb 11446	3.78773	1.57358	1.2526	5.2817	57.18	-0.2599	0.0475	0.3074	944.7529	0.120293	-436.980362	-436.972886	-436.971941	-437.012566	26.9	
O	-0.0999183943	 1.397697541	 0.1710798452	-0.4238
C	 0.0073997193	-0.0112559963	 0.0542100138	-0.085613
C	-1.4152333176	-0.547003622	-0.1046884897	 0.004537
C	-1.503901396	-2.0849821202	-0.0357350475	-0.103327
O	-1.8516449564	-2.3779880114	 1.3206997526	-0.23844
C	-2.3279275513	-1.2449063113	 1.9316366365	 0.470313
O	-2.7324043814	-1.2248880958	 3.0590084148	-0.386611
N	-2.2614771043	-0.2063683401	 1.0239723545	-0.354575
H	 0.7601843388	 1.755670188	 0.4083223739	 0.297673
H	 0.6084073462	-0.3033443424	-0.8217849522	 0.0948
H	 0.4671634018	-0.4596215474	 0.9486674457	 0.10611
H	-1.8342968958	-0.1603298878	-1.0391153601	 0.103364
H	-2.2843578177	-2.4729396057	-0.6986022059	 0.124718
H	-0.5584651079	-2.5815326734	-0.2702661061	 0.123295
H	-2.2391333633	 0.7321358048	 1.3919064944	 0.267556
