18
gdb 47753	2.74726	1.41319	0.98217	3.3666	79.24	-0.2554	0.0155	0.2709	1187.541	0.148337	-401.931342	-401.922968	-401.922024	-401.964486	31.962	
N	 0.0413029483	 1.3538294756	-0.1028796364	-0.489226
C	 0.0352400198	 0.1018801714	 0.0600936339	 0.39457
O	 1.1936154851	-0.6271915859	 0.0810000521	-0.256675
C	 1.2915439654	-1.7645228907	 0.9533268317	-0.071604
C	 0.0861658415	-2.6864192292	 0.8524006515	-0.226065
C	-1.1884300464	-1.8794051255	 1.0947157276	-0.210991
C	-1.2616307672	-0.7069355487	 0.0857841975	-0.285356
C	-2.4461655247	 0.1126307815	 0.302570421	 0.354559
C	-3.463922468	 0.715377332	 0.509167268	-0.439173
H	 1.0066936199	 1.6897710449	-0.136637202	 0.220886
H	 2.2175134826	-2.265974704	 0.6625440183	 0.120013
H	 1.4087487992	-1.4048702915	 1.9857601403	 0.109281
H	 0.0576206463	-3.1496415595	-0.1414709224	 0.111183
H	 0.1877655348	-3.4930698802	 1.5863192113	 0.107346
H	-2.0839084026	-2.4972177217	 0.9893230401	 0.117027
H	-1.1948471623	-1.4757504961	 2.1140856142	 0.118004
H	-1.3299509813	-1.1564917743	-0.9176696914	 0.132597
H	-4.3460174504	 1.281201512	 0.6794177546	 0.193625
