24
gdb 101723	3.22076	0.77444	0.71447	2.509	86.68	-0.2199	0.0669	0.2868	1727.2045	0.215273	-405.518133	-405.507252	-405.506307	-405.554596	39.855	
C	-0.1456919094	 1.4941748854	 0.050090639	-0.380926
C	 0.1191566623	-0.0121106626	 0.1054900957	-0.188195
C	 0.6682379237	-0.5773080391	-1.2104749107	 0.143742
O	 1.8724511251	 0.0833024555	-1.6007726483	-0.428303
C	 0.8686049997	-2.1009128443	-1.1512519068	-0.251117
C	 1.3425841774	-2.6893394199	-2.4651938121	 0.030773
C	 1.1879356522	-4.1419835186	-2.7651160545	-0.268023
N	 0.4432999227	-3.1490287427	-3.5297653436	-0.07635
C	-0.9989038468	-3.1059066534	-3.353934388	-0.31462
H	 0.7595903892	 2.0332845597	-0.2405713636	 0.12759
H	-0.9207323647	 1.7288658319	-0.6878464553	 0.114989
H	-0.4806235097	 1.875010855	 1.0194901229	 0.108748
H	 0.8370148321	-0.238501436	 0.9082522025	 0.083726
H	-0.80224886	-0.549248396	 0.3638646336	 0.095645
H	-0.0372863919	-0.3427500689	-2.0181549004	 0.092123
H	 2.5254315094	-0.0733193855	-0.9085337525	 0.275181
H	 1.6204516732	-2.3206189899	-0.3778292115	 0.088697
H	-0.0564600766	-2.5791005645	-0.8132388364	 0.097542
H	 2.2174888508	-2.1780004697	-2.8609288657	 0.098807
H	 1.9559594215	-4.6918255203	-3.3040231337	 0.110513
H	 0.6364701004	-4.7365909721	-2.0354490093	 0.09772
H	-1.3553594411	-3.3850268422	-2.34928722	 0.095868
H	-1.3658897001	-2.0994355601	-3.581727224	 0.122151
H	-1.4558987692	-3.7988546319	-4.0681482673	 0.12372
