19
gdb 69660	4.04914	1.16924	1.0804	0.6817	75.65	-0.2372	0.0768	0.314	1165.8954	0.158642	-422.974262	-422.966021	-422.965077	-423.00732	31.924	
O	-0.0271224609	 1.4492828525	 0.0324597861	-0.463882
C	-0.0377080219	 0.06642029	 0.0337081879	 0.400431
C	-0.3367623014	-0.7528906039	-1.1852893741	-0.344497
C	-1.2698215782	-0.8299732335	 0.0094981625	-0.177089
C	-0.6498714979	-1.7221134292	 1.0772946275	 0.476694
C	-1.4209319908	-2.0736021738	 2.3658819072	-0.361913
C	-1.1781654423	-3.5354072412	 1.9466076131	-0.070965
O	-0.4595262283	-3.1202126885	 0.76749395	-0.318987
C	 0.6134815631	-0.804032459	 1.1163057189	-0.380224
H	 0.7345006153	 1.7448837398	-0.478229599	 0.28648
H	-0.741074362	-0.1858800076	-2.0178739393	 0.112141
H	 0.2697220248	-1.611514184	-1.4613042086	 0.121575
H	-2.3194381305	-0.5727795474	-0.0725878454	 0.088059
H	-0.9369764107	-1.761571398	 3.2931483875	 0.110971
H	-2.4645488971	-1.7530614238	 2.3798649708	 0.112338
H	-0.5502660369	-4.1301237172	 2.6209446701	 0.101325
H	-2.0752284278	-4.114292353	 1.6959415422	 0.102197
H	 1.563362683	-1.2876291965	 0.8665023362	 0.098119
H	 0.7050025807	-0.2800657959	 2.0714540162	 0.107226
