15
gdb 132753	2.39386	1.79467	1.03221	2.187	71.02	-0.2326	-0.0203	0.2123	1075.5216	0.112799	-461.984584	-461.976802	-461.975858	-462.016926	29.32	
C	-0.0118058497	 1.5396171858	 0.0299220587	-0.487521
C	 0.0023104792	 0.0364148728	 0.0222871679	 0.212429
C	 0.0712976919	-0.6573634553	-1.1850676946	 0.162511
O	 0.1263255542	 0.0153775356	-2.3639956046	-0.435418
C	 0.0812950046	-2.0535472989	-1.1324695293	 0.240639
F	 0.1486185435	-2.6877893872	-2.3188620374	-0.095498
N	 0.0319702484	-2.7826155019	-0.0539840213	-0.323525
C	-0.0345303996	-2.1207386418	 1.1115510788	-0.02117
C	-0.0511636137	-0.7357277991	 1.1882513775	-0.190543
H	 0.8879479253	 1.9424333149	-0.4471954399	 0.145718
H	-0.8645703668	 1.9264363442	-0.5380768325	 0.145718
H	-0.0682115686	 1.9267362142	 1.0494516194	 0.126356
H	 0.1691027373	-0.6380120163	-3.0731636629	 0.30636
H	-0.0755132029	-2.7314194079	 2.0078593914	 0.115028
H	-0.1058190231	-0.2469222691	 2.1550972287	 0.098918
