16
gdb 26002	4.93923	0.94395	0.80132	1.6307	69.94	-0.2396	-0.0195	0.2201	1370.9369	0.123481	-437.93932	-437.930815	-437.929871	-437.974255	29.748	
C	-0.2189734178	 1.561254995	 0.106742901	-0.474361
C	-0.0582921766	 0.076952706	 0.3827866677	 0.3874
O	 0.5612462023	-0.3277139796	 1.3400364523	-0.290729
C	-0.723331925	-0.850425974	-0.6254436452	-0.435162
C	-0.7229734671	-2.3085423192	-0.3004954816	 0.2465
C	-0.1190839132	-3.0155597953	 0.6865382675	-0.090519
O	-0.4451159463	-4.3360035707	 0.5212084146	-0.143879
C	-1.2367855614	-4.3521074833	-0.5705064106	 0.071501
N	-1.4428790722	-3.1950564752	-1.1055267556	-0.313014
H	 0.3998250504	 2.1335623531	 0.7983994489	 0.14554
H	 0.0520937202	 1.801595127	-0.9267137446	 0.138758
H	-1.2684700835	 1.8506393398	 0.2358489452	 0.146209
H	-1.7544259101	-0.5104222741	-0.7908265779	 0.142868
H	-0.2297000952	-0.6829996625	-1.5947748823	 0.147261
H	 0.5154262642	-2.7643431988	 1.5142009126	 0.172327
H	-1.6155042887	-5.3121151782	-0.8844526719	 0.149299
