20
gdb 110133	1.9217	1.40282	1.08014	1.3134	78.17	-0.2304	-0.0394	0.1909	1235.4311	0.168546	-440.25304	-440.242947	-440.242002	-440.288097	36.083	
C	 3.4016181371	 1.0090869038	 0.1204989788	-0.386558
C	 1.9834771738	 1.1767085576	-0.4221883511	-0.137664
N	 1.6542339825	 0.0320329977	-1.2788810864	-0.09031
C	 1.1214142177	-1.197342849	-0.7504903606	 0.010198
C	 0.8096868881	-1.4506838596	 0.7063802781	-0.124746
O	 2.020796465	-1.8926795265	 1.3144684073	-0.413705
C	 0.2605650946	-0.2992350695	-1.6214488716	-0.138639
C	-0.921288892	 0.4167043178	-1.0686235501	 0.148806
O	-1.0206923038	 0.9197360201	 0.0288554598	-0.275625
H	 3.4626462572	 0.1201672067	 0.7539162261	 0.142228
H	 4.1191148592	 0.8998307085	-0.6978905754	 0.120634
H	 3.6829032957	 1.8833857508	 0.715645538	 0.108308
H	 1.2697630777	 1.3285234362	 0.394495602	 0.124701
H	 1.9237472631	 2.0650658133	-1.0613835774	 0.102634
H	 1.5104737901	-2.0853845631	-1.2492254449	 0.109118
H	 0.4082048909	-0.5554474604	 1.1890401907	 0.130377
H	 0.0364645434	-2.2337620293	 0.7603658639	 0.095492
H	 1.8549888957	-2.0063874047	 2.255032764	 0.291211
H	 0.1235083888	-0.5911883913	-2.6615661208	 0.098554
H	-1.7675494746	 0.4737710309	-1.7895284304	 0.084986
