12
gdb 20334	6.03442	1.37003	1.2825	2.6169	60.84	-0.2904	-0.0308	0.2596	917.6343	0.084639	-373.643687	-373.63691	-373.635965	-373.675689	23.607	
C	-0.0102277516	-1.2205857283	 0.0764860055	-0.436151
C	 0.0165342683	-0.022171195	 0.0274450298	 0.327434
C	 0.0233944317	 1.4335254221	-0.0334710622	-0.29762
N	 1.3695182231	 2.0005762043	 0.0052624225	 0.159934
N	 2.1249973099	 2.0235887155	 1.0955879266	-0.237859
C	 3.2235101283	 2.6047943706	 0.6316663062	 0.082947
N	 3.1358315579	 2.9206944131	-0.6812061803	-0.204636
N	 1.9489110282	 2.527921182	-1.0676390716	-0.115072
H	-0.0282069029	-2.2819697361	 0.1202648059	 0.216389
H	-0.4199248902	 1.7914367366	-0.9663196716	 0.181243
H	-0.5389590622	 1.8597688786	 0.802661212	 0.172445
H	 4.0891171894	 2.8062473765	 1.2413136172	 0.150947
