11
gdb 3884	3.83556	3.61386	1.86488	1.1279	48.34	-0.2026	0.011	0.2137	615.7505	0.080429	-372.752005	-372.745511	-372.744567	-372.782099	23.156	
N	-0.1003675452	 1.4264615864	-0.1122917785	-0.597606
C	-0.0082051658	 0.0407617367	-0.0521625869	 0.277692
N	-1.0581513495	-0.7729672086	 0.0115538356	-0.276351
N	-0.5110607294	-1.9920749812	-0.0124754729	-0.103236
N	 0.8196273192	-2.0375601571	-0.0989129599	-0.295788
C	 1.1562957786	-0.7582049255	-0.1191981603	 0.320636
O	 2.4251617848	-0.2992783487	-0.1773845207	-0.435648
H	 0.6795945431	 1.8917495093	 0.3321715613	 0.257027
H	-0.9812098681	 1.7694771809	 0.2473176887	 0.255979
H	-1.0726367292	-2.8239335517	-0.0410950869	 0.288885
H	 3.0133447816	-1.0635999407	-0.1988104896	 0.308411
