24
gdb 100124	3.44237	0.88233	0.86889	0.6461	86.6	-0.2326	0.0836	0.3162	1511.198	0.214364	-405.509439	-405.498537	-405.497593	-405.545569	40.021	
C	 0.7982513168	 1.5769363444	 0.1076725077	-0.241895
O	 0.4693522206	 0.2083228641	 0.1556849836	-0.279966
C	 0.2064570648	-0.4596900608	-1.0882580414	 0.356454
C	-0.9403306754	 0.203702052	-1.8621803722	-0.425809
C	 1.4768225083	-0.5406182132	-1.9461695756	-0.421803
C	-0.2260586183	-1.8587372535	-0.602075263	-0.164765
N	-0.5153669751	-2.7735182255	-1.7004243368	-0.071542
C	 0.5013073149	-3.7705075949	-2.0255521531	-0.2186
C	-0.7521731763	-4.1629445378	-1.3278377365	-0.218299
H	 1.7128353003	 1.7769692858	-0.4685176423	 0.102927
H	-0.0116599144	 2.1938763568	-0.3059041153	 0.105503
H	 0.972528767	 1.8885872119	 1.1411847975	 0.123787
H	-0.6369119809	 1.1516775493	-2.3159084854	 0.106255
H	-1.2725835906	-0.4673581136	-2.6575919936	 0.137295
H	-1.7867339059	 0.3933658514	-1.1943405245	 0.114404
H	 2.2946121937	-0.9956558695	-1.3786477186	 0.111495
H	 1.2926490984	-1.1420311622	-2.8398217331	 0.130524
H	 1.7993742589	 0.4503208546	-2.2784496682	 0.110708
H	 0.5543992534	-2.2442530577	 0.0756779806	 0.085686
H	-1.1383003273	-1.7362989472	-0.0080415441	 0.104768
H	 0.637296578	-3.9849062079	-3.0818843558	 0.115313
H	 1.4178807692	-3.7718264965	-1.4378327377	 0.112123
H	-0.6704227527	-4.4284246585	-0.2747837735	 0.110265
H	-1.5510886475	-4.6680488315	-1.8635983388	 0.115174
