17
gdb 85708	2.43533	1.39152	1.01311	6.5136	76.95	-0.319	0.002	0.321	1181.593	0.136267	-380.893208	-380.884441	-380.883497	-380.926971	31.785	
C	 0.0704036952	 1.5899930633	-0.1472913944	-0.421496
C	 0.1065179401	 0.0811343073	 0.0109249655	 0.025674
C	 1.0423231437	-0.7568777716	-0.8996993001	-0.243122
C	 1.321038564	-1.7003599253	 0.3069162127	-0.154034
C	 2.6532892455	-2.2483826708	 0.4835256681	 0.28804
N	 3.7152791278	-2.6868358767	 0.6088754334	-0.314981
C	 0.8113141467	-0.5595713049	 1.2679752293	-0.201305
C	 1.864969675	 0.2642228979	 1.8380724797	 0.30225
N	 2.6877826193	 0.9428978182	 2.2840719583	-0.323029
H	 1.0710914963	 2.0240826845	-0.0662040186	 0.147499
H	-0.3389702037	 1.8566021342	-1.1271511195	 0.127018
H	-0.5608559211	 2.0548773026	 0.616818868	 0.13095
H	-0.9082189772	-0.3279869386	-0.0297419169	 0.096602
H	 0.6191105278	-1.2160897522	-1.7938341458	 0.124912
H	 1.9409524938	-0.1974047708	-1.1711545834	 0.141458
H	 0.5960836156	-2.5183745957	 0.3307538996	 0.13882
H	 0.1524492713	-0.8968696112	 2.0709724841	 0.134744
