18
gdb 17253	4.23338	1.84866	1.82324	1.6408	70.89	-0.2411	0.0939	0.335	819.7549	0.155808	-347.766282	-347.759923	-347.758978	-347.796474	26.326	
C	-0.0288906117	 1.472886646	-0.0187181697	-0.335192
C	 1.2978352666	 0.7416095884	-0.0128903305	-0.33631
C	 0.0065351286	-0.0236041703	-0.0041387237	 0.427907
C	-0.5037589618	-0.9051598094	 1.157581647	-0.314114
C	-1.1174037822	-2.0168063557	 0.2738152081	 0.079576
C	-0.024437035	-2.3059718941	-0.780032516	-0.230405
C	-0.4743897353	-0.8807540915	-1.1727396282	-0.00299
O	-1.8290632831	-1.239861241	-0.743538386	-0.297992
H	-0.3334467804	 1.9848962949	 0.8884969965	 0.111889
H	-0.3325674549	 1.9736547479	-0.9329964799	 0.112291
H	 1.8885406692	 0.7511223836	-0.9242159228	 0.109297
H	 1.8901411138	 0.7603800123	 0.8964772045	 0.110885
H	 0.2890037888	-1.2705658356	 1.8175428742	 0.098477
H	-1.2698336517	-0.4107929904	 1.7602595882	 0.10976
H	-1.7200160819	-2.792717694	 0.7457297378	 0.078765
H	 1.0067628236	-2.4692809443	-0.4561890866	 0.095501
H	-0.3472865456	-3.0526419661	-1.5058862422	 0.10862
H	-0.410971527	-0.4762905007	-2.1836467307	 0.074036
