19
gdb 62673	3.09118	1.36482	1.18845	2.5608	74.9	-0.2432	0.0687	0.3119	1104.5796	0.156702	-422.970801	-422.962097	-422.961153	-423.003367	34.251	
C	-0.0753727502	 1.5559179741	-0.0700963223	-0.462658
C	 0.0632125374	 0.0523441065	 0.0211091561	 0.393556
O	-1.0764876672	-0.6304573553	-0.4419920904	-0.467947
C	 1.3548363582	-0.706519954	-0.2243557456	-0.157986
C	 2.5382577672	-0.006591546	 0.3973650655	-0.077449
O	 3.0419206338	-0.8085328929	 1.4777474911	-0.291996
C	 1.8893510182	 0.0125781498	 1.7323050558	 0.399571
C	 1.9648301747	 0.9718361181	 2.8775471348	-0.498979
C	 0.6727511008	-0.7010435482	 1.1724563352	-0.173354
H	 0.8055233279	 2.0752215747	 0.3114269362	 0.12729
H	-0.2114875631	 1.8604044307	-1.1157412905	 0.106868
H	-0.953070691	 1.8879960964	 0.4935058492	 0.127797
H	-1.2011447441	-0.3996443469	-1.3692997629	 0.282362
H	 1.3868708284	-1.5362778192	-0.9196880009	 0.098604
H	 3.2296729279	 0.7015636411	-0.0451436038	 0.099899
H	 2.9368953993	 1.4712384053	 2.8958861242	 0.133035
H	 1.1768140349	 1.7280252504	 2.8108318925	 0.126012
H	 1.8393236303	 0.4425069659	 3.8288787997	 0.132695
H	 0.1347330867	-1.5193609704	 1.6347227361	 0.10268
