18
gdb 51812	4.44938	0.97173	0.82653	4.0093	76.64	-0.2567	0.0106	0.2673	1367.1285	0.148111	-439.089348	-439.08098	-439.080036	-439.123014	30.723	
N	-0.0791451304	 1.2639051904	-0.116334795	-0.439229
C	-0.0490499504	 0.0067701122	-0.0348651302	 0.131806
O	-1.2028038414	-0.6973165667	-0.1231559435	-0.186235
C	-1.0787637368	-2.0948533005	-0.0708735761	 0.208214
C	-2.468272964	-2.6955485156	 0.0915611756	-0.279735
C	-2.4155121331	-4.1732944207	-0.1958892653	-0.069224
C	-1.379462691	-4.7269664729	-0.8205849682	-0.066329
C	-0.2211071478	-3.9069954377	-1.3152736116	-0.118016
O	-0.4788068252	-2.5109622991	-1.2781028648	-0.258228
H	 0.8618451308	 1.6393421345	-0.0165366121	 0.230018
H	 0.836496579	-0.6233648564	 0.1110746001	 0.096513
H	-0.4310532113	-2.3864781295	 0.7770422664	 0.068311
H	-2.8327598047	-2.5059071702	 1.1074825655	 0.117645
H	-3.1529210258	-2.1781612834	-0.5917608455	 0.138064
H	-3.2522344624	-4.7811927651	 0.1352198771	 0.098367
H	-1.3302803905	-5.7972588266	-0.9998140215	 0.097839
H	 0.6897054425	-4.1464501799	-0.7361431466	 0.101896
H	 0.0011019326	-4.1401915327	-2.3625005543	 0.128323
