20
gdb 117921	3.25905	0.88728	0.75073	2.6669	78.77	-0.2483	-0.072	0.1763	1553.0875	0.168479	-440.319201	-440.308494	-440.30755	-440.356329	36.481	
C	 0.0836902479	 1.496626669	 0.0069501614	-0.380589
C	 0.0511804854	-0.0217038737	-0.1839919323	-0.173113
C	-1.332611735	-0.6089608361	 0.1208423031	-0.156636
N	-1.3847209208	-2.067225335	-0.0172346066	-0.093786
C	-1.1226090052	-2.847745817	 1.1853535847	-0.370406
C	-1.6350878531	-2.5599629575	-1.2549067731	 0.307027
O	-1.8036087275	-1.8523645319	-2.2425300028	-0.379476
C	-1.7395220317	-4.0699360943	-1.5342530888	 0.104761
O	-1.4894717548	-5.0004666109	-0.8139234811	-0.247819
H	 1.0742259263	 1.9007292138	-0.2208463311	 0.119355
H	-0.6375311726	 1.9932755082	-0.6509843896	 0.124713
H	-0.1602124595	 1.7757019837	 1.0383102326	 0.113824
H	 0.3101277704	-0.2771482736	-1.216473127	 0.126916
H	 0.8015484664	-0.4947295711	 0.4617513079	 0.097219
H	-1.6342105666	-0.3662984777	 1.1461292206	 0.100628
H	-2.0694630025	-0.18251309	-0.5643211358	 0.137757
H	-1.1178067617	-3.9089377554	 0.9568934355	 0.188335
H	-0.1494464695	-2.5702408739	 1.6073534834	 0.130637
H	-1.8895703375	-2.6417639205	 1.9420514815	 0.128867
H	-2.0724037684	-4.1983582961	-2.5841133725	 0.121788
