21
gdb 103180	1.9102	1.50968	1.16923	2.2563	74.55	-0.2491	0.0668	0.3159	1188.6737	0.179648	-461.346118	-461.335699	-461.334755	-461.38074	39.028	
C	 0.0340880899	 1.5937743478	 0.0625623452	-0.425723
C	-0.0183537203	 0.0605620325	 0.0574820048	-0.199158
C	-1.44084057	-0.5114931486	 0.0188712957	 0.34401
O	-2.2633308427	 0.0112452058	 1.0444697137	-0.489377
C	-2.083781037	-0.5620510966	-1.4055065067	 0.073064
O	-1.575200128	 0.3718347625	-2.3328638203	-0.428316
C	-1.6517278509	-2.0479355133	-1.5240098966	-0.330182
C	-1.4826840984	-2.0613130788	 0.0197190045	 0.097885
O	-0.3493810356	-2.6808040534	 0.5784663245	-0.428235
H	 1.0725351649	 1.9380999151	 0.0483600378	 0.114257
H	-0.473869469	 2.0104605788	-0.8105174509	 0.140428
H	-0.4183634146	 2.013485757	 0.9691901251	 0.104673
H	 0.5399680015	-0.316808773	-0.804220395	 0.105717
H	 0.4741662862	-0.3366428689	 0.9499956269	 0.115567
H	-2.216825897	 0.9722495184	 1.0067293146	 0.279029
H	-3.1732991041	-0.4697262611	-1.3004663826	 0.071382
H	-1.9936315875	 0.2111559289	-3.1844236248	 0.2851
H	-2.3518934306	-2.7558718872	-1.9732980965	 0.091581
H	-0.6782009634	-2.1270251012	-2.0153242165	 0.1131
H	-2.4050961872	-2.3827950008	 0.5201348931	 0.079571
H	-0.4987306661	-3.630822214	 0.590916664	 0.285626
