20
gdb 96283	2.13614	1.61452	1.10979	4.3517	75.58	-0.2331	0.0217	0.2548	1153.5869	0.1727	-440.31802	-440.309396	-440.308452	-440.351322	32.992	
C	-0.2480697671	 1.4610144835	 0.0919012338	-0.388092
C	 0.0120562899	-0.0493724472	-0.0442988794	 0.014562
C	 0.6135647563	-0.4529554443	-1.400801666	-0.19616
C	 2.0078274535	 0.0904250106	-1.7098005624	-0.080067
O	 3.0067177062	-0.4436252608	-0.8645668458	-0.231126
C	 3.0703892891	 0.1138249321	 0.4265885605	-0.186573
C	 2.066716945	-0.4147480679	 1.4628909349	 0.360654
O	 2.4446706714	-0.6714446863	 2.592318971	-0.361801
N	 0.7580897112	-0.5921349732	 1.0963288359	-0.299755
H	 0.6789685817	 2.0407608735	 0.075889246	 0.125177
H	-0.8844728852	 1.8184237459	-0.7244710121	 0.118797
H	-0.7549189043	 1.674683362	 1.0373299951	 0.122911
H	-0.9614198523	-0.5494110737	 0.008995989	 0.093714
H	 0.6561794529	-1.546199375	-1.451322193	 0.116377
H	-0.0716973774	-0.1147611454	-2.1880412352	 0.099508
H	 2.2901429018	-0.2023111574	-2.726118346	 0.111706
H	 2.0243000932	 1.1917182154	-1.6693300986	 0.090849
H	 4.0533774593	-0.1287314146	 0.8339390329	 0.140667
H	 2.9853638398	 1.2136645634	 0.385506227	 0.104811
H	 0.2001190749	-0.8882839204	 1.8857819522	 0.243842
