18
gdb 8206	2.62625	2.54023	1.68995	1.1552	67.32	-0.2227	0.0858	0.3085	846.5986	0.152794	-384.929433	-384.921599	-384.920654	-384.960952	30.073	
C	-0.1048982236	 1.5063804246	-0.0774994493	-0.467354
C	 0.0288790869	 0.0166485151	 0.0308301017	 0.371363
C	 1.3173818802	-0.7414519536	-0.2647398236	-0.426518
C	 0.6862553502	-0.7715398373	 1.1220169674	 0.371363
C	 1.3612076291	-0.2514315981	 2.3560601602	-0.467354
O	-0.1736184809	-1.8618636538	 1.3939842154	-0.293582
C	-1.0911196451	-1.9386106169	 0.32152154	 0.003761
O	-1.177176	-0.6586161648	-0.2718466601	-0.293585
H	 0.8143808634	 2.0003862975	 0.2483584366	 0.11971
H	-0.2985010029	 1.8036825901	-1.1133452294	 0.131274
H	-0.9331752695	 1.8644603596	 0.5416040729	 0.129073
H	 1.2896694731	-1.6281313127	-0.8885237523	 0.119671
H	 2.21733048	-0.1449250077	-0.3760131153	 0.113286
H	 1.9461726388	 0.6433788294	 2.1270858559	 0.11971
H	 0.6215077668	 0.0004009555	 3.1222045287	 0.129074
H	 2.0417369051	-1.0021004083	 2.7710587824	 0.131273
H	-0.7495455845	-2.680317661	-0.4199990158	 0.090733
H	-2.0751189171	-2.2292373377	 0.7043969046	 0.118102
