19
gdb 33135	3.0659	1.07401	0.80741	1.1827	78.8	-0.2044	0.0322	0.2366	1430.1665	0.158348	-423.052572	-423.043259	-423.042315	-423.087192	33.616	
C	-0.0030191006	 1.5282955642	-0.0827213499	-0.391149
C	-0.0005771297	 0.0119141301	-0.0348218264	-0.05098
O	 0.6720695346	-0.4700387702	-1.1930282269	-0.267665
C	 0.7587405493	-1.8153685547	-1.2981362325	 0.24822
C	 0.3053551598	-2.8021947452	-0.4724181389	-0.157178
O	 0.6326402381	-4.0211878264	-1.0019664021	-0.157156
C	 1.2927240073	-3.7838002343	-2.1630242214	-0.075601
C	 1.4093391553	-2.4531798029	-2.4125287722	 0.114971
C	 2.0587878667	-1.7662390409	-3.5704547154	-0.500456
H	 1.0197370315	 1.9149359761	-0.0974819322	 0.131227
H	-0.519057915	 1.884629746	-0.9785274441	 0.131226
H	-0.5141849829	 1.9318372494	 0.7961769854	 0.119851
H	 0.5143230768	-0.3561709451	 0.8650741308	 0.103402
H	-1.0259334817	-0.3865108204	-0.0168297349	 0.103402
H	-0.2285499765	-2.8173288321	 0.4605367886	 0.129271
H	 1.6201194377	-4.6566615932	-2.7047957385	 0.131668
H	 1.3443099152	-1.1381469888	-4.1139896577	 0.132711
H	 2.8707897158	-1.1088363703	-3.2404676942	 0.132707
H	 2.4753659983	-2.4919695711	-4.2740544574	 0.121527
