17
gdb 130070	4.67121	0.83499	0.74616	2.0928	71.62	-0.2114	0.0179	0.2293	1485.113	0.13803	-451.345314	-451.336494	-451.335549	-451.379667	31.761	
N	-0.0344293316	 1.3174719609	 0.1020486754	-0.58055
C	-0.0090879263	-0.0604469083	 0.0310041253	 0.406869
N	-1.1109757313	-0.8013506614	-0.0093630758	-0.343268
N	-0.597840549	-2.0712954119	-0.0075733104	 0.056939
C	-1.4802242273	-3.2164622284	 0.0022059783	-0.179073
C	-2.2400147917	-3.3538838279	 1.3307316607	-0.070553
O	-3.0962937883	-4.4805094189	 1.3137409404	-0.407139
C	 0.7430470311	-2.0121080858	 0.030674455	 0.006432
N	 1.1629368821	-0.7591260057	 0.0520832743	-0.329949
H	 0.807069324	 1.7453077722	-0.254862682	 0.258506
H	-0.8769226882	 1.7307822704	-0.2694787179	 0.255873
H	-2.1929578744	-3.1144738587	-0.824000238	 0.120581
H	-0.8797161912	-4.1123526419	-0.1761667838	 0.130234
H	-1.525284801	-3.5160079734	 2.1439808217	 0.121125
H	-2.7758418215	-2.4193319724	 1.5393935305	 0.124733
H	-3.8629839562	-4.2661164305	 0.7731152566	 0.289501
H	 1.3671572507	-2.8937259883	 0.0350402797	 0.139739
