21
gdb 115678	2.20702	1.25379	0.97816	3.6024	78.65	-0.2341	-0.0189	0.2152	1327.4937	0.180205	-424.227706	-424.217565	-424.216621	-424.263774	35.749	
C	-0.1944563143	 1.6330042918	 0.1864806696	-0.387955
C	-0.0743628084	 0.1146065503	 0.0134555983	-0.213639
C	 0.7569359681	-0.5240886627	 1.119824345	-0.032442
C	 0.1526200902	-0.5966326353	 2.5411015157	-0.078245
O	 0.4164321123	-2.0107216794	 2.6330217934	-0.269101
C	 0.8345570693	-2.0832383993	 1.2675973967	 0.006488
C	-0.1338364734	-2.86807446	 0.3827126378	 0.372016
C	 0.4453725379	-3.3913236463	-0.9195337269	-0.489268
O	-1.2853441787	-3.0404231539	 0.7025137755	-0.296479
H	 0.7894792957	 2.1145825548	 0.1677481812	 0.116315
H	-0.7978822426	 2.073781343	-0.6122711959	 0.119687
H	-0.6702969294	 1.887851353	 1.1396519442	 0.123766
H	-1.0733807135	-0.3358806499	-0.00031004	 0.124204
H	 0.3810765526	-0.1034432619	-0.961311862	 0.097879
H	 1.7613288404	-0.0904015316	 1.1274238793	 0.084908
H	 0.6649711998	-0.0317626289	 3.3277049956	 0.103417
H	-0.9237945378	-0.385484411	 2.5849770251	 0.110219
H	 1.8448946096	-2.5040756724	 1.1716742224	 0.080467
H	 1.0611515486	-2.6323961873	-1.4145303594	 0.134678
H	 1.102476014	-4.2436567523	-0.7076673083	 0.14793
H	-0.3578526403	-3.7156999707	-1.5820780171	 0.145155
