12
gdb 130833	4.6154	1.14247	0.91578	2.1333	62.76	-0.28	-0.1159	0.1641	1143.2366	0.077945	-468.837107	-468.829701	-468.828757	-468.870283	25.154	
O	-0.0815491177	 0.0230853518	 0.0026858458	-0.192496
C	-0.0476406232	 1.2207096987	 0.0089897989	 0.064991
C	 1.3247799608	 1.9358977734	-0.0018002902	 0.347055
O	 2.3728469037	 1.3528667727	-0.0164414189	-0.274347
N	 1.2748552484	 3.3474298034	 0.0062771092	-0.044785
C	 2.3311552684	 4.2189021071	-0.0006043005	 0.057958
N	 1.8986406714	 5.4523442418	 0.0107566474	-0.267461
C	 0.5324785593	 5.3001577036	 0.0249823768	 0.058621
N	 0.1028697628	 4.0598059287	 0.0229171032	-0.240316
H	-0.9402160549	 1.8660222875	 0.0215837459	 0.150965
H	 3.3540297072	 3.8779951462	-0.0136623979	 0.187316
H	-0.1494848061	 6.1372971251	 0.0369588204	 0.152499
