21
gdb 37923	2.75059	2.04256	1.9137	0.0955	83.18	-0.2499	0.0819	0.3318	880.8918	0.187605	-349.927192	-349.921103	-349.920159	-349.957165	27.401	
C	-0.0263547046	 1.5374541123	 0.0161498122	-0.236344
C	 1.5181083618	 1.5281381425	-0.0555642221	-0.04882
C	 2.203467203	 1.0049179462	 1.2592032807	-0.002735
C	 1.4424492151	 1.1900928566	 2.5819589905	-0.230694
C	 0.3387277709	 0.0827572629	 2.5875399679	-0.230692
C	 0.5197100033	-0.6843196145	 1.2677084895	-0.002735
C	-0.0123580043	-0.0073114928	-0.0478342248	-0.048819
C	 1.4613370824	 0.0515152373	-0.5949444017	-0.039627
C	 1.977842351	-0.4563693341	 0.7841129018	-0.059164
H	-0.5160378161	 2.0298070839	 0.8630467431	 0.08986
H	-0.4437243145	 1.9488161181	-0.9088405269	 0.094212
H	 2.01765828	 2.3531570465	-0.5649957616	 0.056517
H	 3.2488841427	 1.3178778234	 1.3104804907	 0.058586
H	 2.1197514526	 1.0585461428	 3.4324575745	 0.092362
H	 1.0207390309	 2.1970549467	 2.6710403006	 0.096895
H	 0.4768091206	-0.5898233515	 3.4407465174	 0.092362
H	-0.6691499985	 0.5016251567	 2.679623313	 0.096894
H	 0.2104225712	-1.730471444	 1.3258304011	 0.058586
H	-0.8382955584	-0.5121020947	-0.5505671981	 0.056516
H	 1.7838216553	-0.2748875385	-1.581011517	 0.054675
H	 2.7418512059	-1.2170662558	 0.9495054393	 0.052165
