18
gdb 92675	2.75629	1.32548	1.00239	5.4991	80.44	-0.2597	-0.0393	0.2204	1188.5219	0.147676	-401.98142	-401.972578	-401.971634	-402.014929	32.94	
C	 0.0067678819	 1.6259770309	 0.0082884657	-0.404812
C	 0.1258777512	 0.101093577	 0.0260698883	-0.101459
C	 0.8579234436	-0.5223344682	-1.1939519029	 0.095321
O	 1.8329557234	 0.4086771319	-1.6369579316	-0.425338
C	 1.5239916581	-1.8090084863	-0.6390054117	-0.282368
C	 1.6699212842	-1.5217282361	 0.8295556075	-0.156938
C	 0.9126369135	-0.4809017862	 1.1987351988	 0.226449
C	 0.7845777444	 0.0144846909	 2.5243102195	 0.201524
N	 0.6523204773	 0.442874198	 3.5929211837	-0.34701
H	 0.9901813197	 2.095571985	-0.0427482244	 0.143525
H	-0.5716455966	 1.9559974862	-0.8593980012	 0.117278
H	-0.5030032517	 1.9762814421	 0.910472905	 0.131074
H	-0.8873048823	-0.3243417538	 0.0617077525	 0.096897
H	 0.1486560382	-0.7466535653	-2.0021544841	 0.068427
H	 2.2769113657	 0.0347727398	-2.4040262465	 0.286606
H	 0.8880449562	-2.6920113706	-0.7965819001	 0.120649
H	 2.4787145436	-2.0161163594	-1.1362255217	 0.109052
H	 2.2861402596	-2.1082034157	 1.5001769333	 0.121123
