19
gdb 70759	2.54544	1.62287	1.21595	1.4686	70.73	-0.2525	0.0818	0.3344	1058.8333	0.160833	-460.139846	-460.132107	-460.131162	-460.171678	31.218	
O	 0.0255413605	 1.3510738303	-0.0909473505	-0.473978
C	 0.0451824233	-0.0484460031	-0.0281012113	 0.432689
C	-0.4311637036	-0.7579949192	-1.2577386889	-0.35303
C	-1.2864625005	-0.756696076	-0.0003971139	-0.078652
C	-1.4544160343	-1.9782567757	 0.8776033398	-0.121961
O	-1.2541618854	-1.6734808049	 2.2576278044	-0.231993
C	 0.0853489626	-1.6464842442	 2.6671582976	 0.016125
O	 0.8481565497	-0.5579713521	 2.205492802	-0.243629
C	 1.1660192628	-0.6181373893	 0.8172167254	-0.176613
H	-0.1273145675	 1.667867932	 0.8076141567	 0.287759
H	-0.7597818414	-0.1391730009	-2.0844622097	 0.128399
H	 0.0634795579	-1.6801899421	-1.5467496455	 0.113086
H	-2.1387241501	-0.0843853257	-0.0225077302	 0.098311
H	-2.4726013424	-2.3719512828	 0.8022633524	 0.113417
H	-0.7686746104	-2.7829616511	 0.5698915044	 0.088695
H	 0.0658611587	-1.5591925627	 3.7556345975	 0.117119
H	 0.5830495373	-2.5880560876	 2.3669465129	 0.076376
H	 1.3970304662	-1.6537254452	 0.5277237547	 0.089881
H	 2.0667130765	-0.0137574999	 0.6736961121	 0.117997
