17
gdb 66796	3.46158	2.01122	2.0044	0.3462	73.19	-0.197	0.029	0.2261	800.8738	0.13813	-380.726366	-380.720423	-380.719479	-380.756302	25.187	
C	-0.0807553613	 1.5241869739	 0.0253044895	-0.525442
C	 0.0549621743	 0.0342639553	 0.0137737904	 0.379366
C	 0.6912782717	-0.8723693159	-1.075935937	-0.073384
C	-0.6010067701	-1.7202246175	-1.0743892454	-0.014602
C	 0.0484959816	-2.6308139826	-0.0055833468	-0.014489
C	-0.5898820538	-1.7359225477	 1.0830027756	-0.014599
C	 0.7024098715	-0.8880845466	 1.0835589355	-0.0734
N	 1.3248911762	-1.7743417189	-0.0059351912	-0.190103
N	-1.2240553863	-0.8331538982	 0.0140588079	-0.226474
H	 0.9024064807	 2.0079772343	 0.022124798	 0.122752
H	-0.6374547088	 1.8670493073	-0.8537003096	 0.128088
H	-0.6255337157	 1.8545442818	 0.9164854268	 0.128052
H	 1.2930810562	-0.5645532354	-1.9321829017	 0.073163
H	-1.2107011058	-2.017325881	-1.9278755505	 0.0758
H	 0.1411388799	-3.7169599522	-0.0139624408	 0.076308
H	-1.1907628979	-2.0454588819	 1.9383184341	 0.0758
H	 1.3130315476	-0.5927178948	 1.9379447252	 0.073165
