10
gdb 132852	3.1584	1.48283	1.00908	3.7954	52.08	-0.2649	-0.0924	0.1724	1005.9619	0.052308	-553.699067	-553.692151	-553.691207	-553.731136	24.783	
F	 0.0512182026	 0.0158563629	-0.2062958365	-0.028172
C	-0.0924047625	 1.3102787032	-0.0668594536	 0.30514
C	-1.228941075	 1.9099861945	 0.2554832893	-0.186859
O	-1.2941648951	 3.2818704327	 0.3822935294	-0.186023
C	-0.1954889881	 4.0518454816	 0.1801722688	 0.32382
O	-0.2412313865	 5.2369566495	 0.2870265663	-0.267582
C	 1.1168855737	 3.3333079313	-0.1942470266	 0.312268
O	 2.1326186823	 3.9130415562	-0.3921043614	-0.250053
O	 1.0733931241	 1.9587312426	-0.2951902928	-0.196715
H	-2.1615693956	 1.4033004554	 0.4390954771	 0.174177
