15
gdb 112237	2.0847	1.45417	0.95405	2.5987	67.32	-0.2726	-0.0069	0.2657	1192.1545	0.110746	-457.744128	-457.735434	-457.73449	-457.778069	31.317	
O	-0.0871731667	 1.4528986985	-0.2441384261	-0.415059
C	 0.0345107441	 0.0510588302	-0.1253839849	-0.080137
C	-1.2885799987	-0.5727673748	 0.2686911487	 0.106124
O	-2.2845094065	-0.3645503652	-0.7991580692	-0.26252
C	-2.4205675195	-1.7078765989	-1.0263574457	 0.461546
O	-3.081456317	-2.2521629408	-1.8441832876	-0.306829
C	-1.4664067655	-2.1102159475	 0.1286412776	-0.418139
C	-0.3294471788	-2.9453165116	-0.1860884104	 0.340752
C	 0.6142524255	-3.6398738878	-0.4513556284	-0.43824
H	-0.7385450086	 1.625047779	-0.9339864423	 0.297519
H	 0.3990462247	-0.4155899008	-1.0519613019	 0.110101
H	 0.7750979662	-0.1427275799	 0.6572622609	 0.128221
H	-1.6669000963	-0.1456349416	 1.1997265452	 0.114555
H	-2.0450120858	-2.532855422	 0.9564793553	 0.150215
H	 1.445149053	-4.2573904067	-0.6898814512	 0.211889
