21
gdb 106624	2.68348	1.36281	1.22025	1.6098	77.2	-0.2405	0.0774	0.3178	1145.1743	0.183424	-424.210347	-424.201898	-424.200954	-424.243212	33.449	
C	 0.0551178838	 1.5558077542	 0.0335659683	-0.387199
C	-0.0219815336	 0.0250956915	-0.0474964499	-0.30068
C	-1.4254016905	-0.537133206	 0.0119298339	 0.256715
C	-2.3500646818	-0.4712239955	 1.2733115146	-0.285664
C	-3.0933016637	-1.5913406885	 0.5205158831	 0.037783
O	-3.5861931026	-0.9495818747	-0.6765386563	-0.301027
C	-2.4438748403	-0.1393614284	-1.0662774576	-0.134173
C	-1.7115873157	-2.0933095553	 0.0502126369	 0.13242
O	-1.6413974383	-2.8580071736	-1.1148299771	-0.453958
H	 1.0956709677	 1.893893589	 0.0265909014	 0.11612
H	-0.4512948247	 2.0323526205	-0.8120138697	 0.11922
H	-0.4098145946	 1.9286619495	 0.9523610452	 0.119331
H	 0.4531372098	-0.3198311831	-0.975526759	 0.108453
H	 0.5638185806	-0.4104878136	 0.7718589172	 0.097745
H	-1.8555207628	-0.8172543003	 2.1834767485	 0.103488
H	-2.9061446998	 0.4499001517	 1.4578611422	 0.105666
H	-3.8746199074	-2.2203675599	 0.9439983328	 0.081054
H	-2.7192573276	 0.9200286324	-1.0487666247	 0.105537
H	-2.1208753418	-0.4099595665	-2.0783965088	 0.10049
H	-1.1273949085	-2.587814582	 0.8295841543	 0.085888
H	-2.4335978281	-2.6413679015	-1.6244635451	 0.292789
