20
gdb 26246	3.65899	1.11161	0.8792	0.9384	86.2	-0.1705	0.0403	0.2108	1364.6201	0.170142	-403.176838	-403.167277	-403.166333	-403.211259	34.906	
C	 0.0894363473	 1.3613391691	 0.0538263881	-0.327595
N	 0.3322684996	-0.065261132	-0.0362602581	-0.163075
C	-0.0445027567	-0.8289730278	 1.1472490476	-0.341186
C	 0.0437387984	-0.6254308471	-1.2673938539	 0.43292
C	-0.356663829	-0.1040820422	-2.4646378216	-0.296189
C	-0.3802199888	-1.2123879502	-3.3813014529	-0.258655
C	-0.0146029083	-2.3180988732	-2.6884414313	 0.346677
C	 0.1368109688	-3.7555129427	-3.0275704084	-0.491317
O	 0.2544155539	-1.9646839802	-1.3812991288	-0.232757
H	 0.4915615274	 1.7322386364	 1.0003704915	 0.123039
H	 0.6033567283	 1.8743630209	-0.7636616094	 0.135222
H	-0.9820899105	 1.6215691908	 0.0066363425	 0.10774
H	-1.1284263925	-0.7932157476	 1.3493445062	 0.10715
H	 0.2497989201	-1.8705089255	 1.0199889864	 0.149377
H	 0.4813282721	-0.421654797	 2.0156268812	 0.1206
H	-0.6147655154	 0.9207751844	-2.6711623551	 0.096874
H	-0.6490542657	-1.1823988177	-4.4262776802	 0.098687
H	 1.1591886006	-4.1125361396	-2.8532183395	 0.131116
H	-0.5336307757	-4.3888488141	-2.4335411349	 0.129454
H	-0.1000882138	-3.9092641045	-4.0830309895	 0.131921
