17
gdb 32768	3.40211	1.11188	0.86562	2.3088	72.64	-0.1963	0.0104	0.2067	1312.9299	0.136454	-455.159507	-455.15062	-455.149676	-455.194087	31.539	
C	-0.2152008743	 1.3781346795	-0.2526072771	-0.225826
O	-0.2850371501	-0.0282179833	-0.3331957602	-0.239078
C	 0.9197768685	-0.6075909597	-0.8154651762	-0.198401
C	 0.6905649821	-2.0623612026	-0.9922573487	 0.259345
C	-0.3610717336	-2.8000929009	-1.4468015239	 0.211136
N	-1.576202385	-2.3732041118	-1.9604813884	-0.603993
N	-0.0390932665	-4.1478964263	-1.3767985407	-0.30282
C	 1.1640643666	-4.1614247603	-0.8968957241	 0.063705
O	 1.6838063895	-2.9528274494	-0.6286158888	-0.18329
H	 0.5702135662	 1.704975734	 0.446024162	 0.110456
H	-0.0142194596	 1.8347180903	-1.2342610302	 0.109976
H	-1.1820940219	 1.7313780262	 0.1127843445	 0.130417
H	 1.202601976	-0.1147975043	-1.7634215148	 0.103508
H	 1.7501490224	-0.4464540315	-0.1096075815	 0.112138
H	-1.8626263268	-1.4849670119	-1.5700244881	 0.255188
H	-2.2953700346	-3.07792569	-1.869717475	 0.251444
H	 1.786943421	-5.0181635881	-0.693067329	 0.146095
