20
gdb 68361	2.68876	1.66953	1.24448	3.348	80.26	-0.2463	0.0289	0.2752	1066.9527	0.172304	-403.167604	-403.159736	-403.158792	-403.19974	31.854	
C	-0.0955917575	 1.5128679775	-0.0550605442	-0.468707
C	 0.1045021361	 0.0173584171	-0.0635237736	 0.420698
C	 1.2971770759	-0.6401136579	-0.8068377956	-0.267893
C	 1.1485191622	-1.7983520955	 0.220675531	-0.040708
C	 0.5572308049	-0.7504521622	 1.2064154246	-0.267885
C	 0.0209765012	-2.7196313917	-0.2442218789	-0.284682
C	-1.2108928457	-1.9222456331	-0.6533659462	 0.388196
N	-2.2584058425	-2.4969637703	-1.0700456531	-0.531208
O	-1.1308645625	-0.5611094595	-0.5492630814	-0.291855
H	 0.8076838804	 2.0137363611	 0.303948789	 0.11647
H	-0.3198687874	 1.8765079852	-1.0625636845	 0.129357
H	-0.929708926	 1.7855207653	 0.598781599	 0.129351
H	 1.1634071282	-0.8613179589	-1.8693104529	 0.105675
H	 2.21809234	-0.0706525118	-0.6587688619	 0.103256
H	 2.0395942561	-2.3538268536	 0.5177338132	 0.070842
H	 1.3350068133	-0.2023352423	 1.7439366873	 0.103255
H	-0.2231983564	-1.0680777569	 1.9033506231	 0.105671
H	 0.3313745975	-3.3284653531	-1.0997928639	 0.132221
H	-0.2734294322	-3.4185337124	 0.5456470404	 0.132218
H	-2.9735411957	-1.802101577	-1.2948457518	 0.215727
