22
gdb 103857	2.80496	1.15508	0.94983	1.8989	82.35	-0.2424	0.0824	0.3248	1344.8505	0.193099	-404.312296	-404.302429	-404.301485	-404.347251	36.538	
C	 0.100779117	 1.0933326445	-0.7419292875	-0.3826
C	-0.0564444994	-0.0053876877	 0.3187266573	-0.269312
C	-1.4551530225	-0.6009095134	 0.3562041975	 0.403467
C	-2.5495487922	 0.304570745	 0.8841219153	-0.459243
O	-1.845180223	-1.3515874182	-0.8217002608	-0.301535
C	-1.6745243957	-2.0610612642	 0.4103435784	-0.031489
C	-0.5864054628	-3.0952602019	 0.4346784527	-0.042625
C	-0.6260942264	-4.2042446922	-0.5523995317	-0.239183
N	 0.398749701	-3.1501313951	-0.6525267549	-0.316448
H	 1.1330317908	 1.4536579485	-0.7716669732	 0.116505
H	-0.1534504239	 0.7081504742	-1.7339946276	 0.130691
H	-0.5436267649	 1.9547135523	-0.5411474468	 0.116556
H	 0.6765750972	-0.7944799651	 0.1366745136	 0.133016
H	 0.165354279	 0.4028519319	 1.313053079	 0.098903
H	-2.6188732156	 1.22344712	 0.2939957076	 0.130109
H	-3.5195346259	-0.1964856061	 0.8415538613	 0.126488
H	-2.3472371132	 0.5875618714	 1.9228181208	 0.121342
H	-2.6118980442	-2.3955126313	 0.8629324024	 0.087733
H	-0.1785105697	-3.2965909109	 1.4238213835	 0.097197
H	-0.2540224125	-5.1882833977	-0.2823950745	 0.117463
H	-1.4352184467	-4.2010590272	-1.278228015	 0.120851
H	 0.0963116136	-2.4863034166	-1.3647054474	 0.242113
