25
gdb 118577	1.60583	0.85511	0.59096	1.3789	86.33	-0.2573	0.0779	0.3352	1954.6492	0.226443	-426.621519	-426.609432	-426.608488	-426.660208	42.208	
C	-1.0790676953	 0.8400017903	-0.3474892049	-0.379573
C	-0.6928540818	-0.6255195966	-0.1272532998	-0.171093
C	 0.3735139578	-0.8018691622	 0.9621158305	-0.184312
C	 0.7945244551	-2.2591132053	 1.2394348368	 0.025628
C	 1.6956322896	-2.7920465867	 0.1219256471	-0.09027
O	 1.863825336	-4.1910450771	 0.3095095079	-0.421729
C	 1.4960801846	-2.4157919088	 2.6013027546	-0.18287
C	 0.5437335717	-2.4217715038	 3.790663063	-0.082825
O	 1.3260376886	-2.5240872788	 4.9727387505	-0.421
H	-0.2130188821	 1.435541416	-0.6574103315	 0.113293
H	-1.845777045	 0.9398772421	-1.1221840368	 0.110771
H	-1.4735950833	 1.2880296124	 0.5714896986	 0.113316
H	-1.5855185239	-1.2018881492	 0.1494459809	 0.09613
H	-0.341712695	-1.0510559753	-1.075119185	 0.09802
H	 1.2666745202	-0.2156523416	 0.6998133594	 0.089912
H	-0.0063580024	-0.3562652257	 1.8896671861	 0.094745
H	-0.1056367913	-2.8913406146	 1.2389725004	 0.075105
H	 1.2469203356	-2.5853069953	-0.8610651964	 0.083272
H	 2.6647713251	-2.2664868691	 0.1578524417	 0.083511
H	 2.5088281854	-4.5058825547	-0.329865918	 0.286181
H	 2.0539166043	-3.3563909252	 2.6104959417	 0.120799
H	 2.2250014351	-1.6066245578	 2.7409496317	 0.093817
H	-0.0688087033	-1.5056284759	 3.8058689143	 0.080312
H	-0.1503846232	-3.2733062487	 3.6979918391	 0.085886
H	 0.7286431076	-2.5456101883	 5.7257918782	 0.282974
