19
gdb 110089	1.73842	1.25604	0.84613	3.5407	79.22	-0.2537	-0.0418	0.2119	1406.0684	0.156568	-423.033934	-423.024136	-423.023192	-423.069479	34.536	
C	 0.2412031796	 1.520281221	 0.1779157115	-0.379301
C	-0.2252030924	 0.0893951458	-0.1140275664	-0.215762
C	 0.5760097092	-0.5556258921	-1.2328696877	-0.029295
C	 1.9211352336	-1.2182165563	-1.0223064293	-0.132368
C	 2.5407789983	-1.3551107839	 0.3194540285	 0.159779
O	 3.7337835194	-1.3123613983	 0.4967057286	-0.26214
C	 0.6805217472	-2.0493176187	-1.4430210675	-0.157197
C	 0.0469870931	-3.033680851	-0.5295434289	 0.161148
O	-0.3980708145	-4.0877515023	-0.9126348991	-0.260322
H	 1.2816673909	 1.5379516744	 0.5181022087	 0.130478
H	 0.1746058068	 2.1474172874	-0.7175052217	 0.122547
H	-0.3754024261	 1.9804800158	 0.9552008526	 0.123185
H	-0.1793717067	-0.5033522049	 0.8039190178	 0.107795
H	-1.2805885327	 0.0984170762	-0.4126230991	 0.116441
H	 0.5205304928	 0.0039630003	-2.1640313681	 0.113824
H	 2.6646794135	-1.0939133246	-1.8027400069	 0.122471
H	 1.8468834554	-1.4896741965	 1.1759742506	 0.077822
H	 0.7046850811	-2.4043119787	-2.4681833999	 0.123303
H	-0.0114096385	-2.7516195636	 0.5426927063	 0.077591
