17
gdb 82466	3.35043	1.63147	1.42042	1.8417	66.37	-0.2357	0.05	0.2857	944.9333	0.136361	-458.91055	-458.903491	-458.902547	-458.941629	28.832	
C	-0.0714861747	 1.4894071299	 0.073187478	-0.520554
C	-0.0103603819	-0.0045068399	 0.0690172942	 0.434697
O	-1.2552484655	-0.7138466612	 0.1777065214	-0.321994
C	-0.4418841404	-1.8889222335	 0.4621022251	-0.034721
C	 0.715136343	-0.9611999354	 1.030315233	 0.002837
O	 1.8684210778	-1.0799206584	 0.178286162	-0.312946
C	 0.9350077056	-0.8235571157	-0.9224396541	-0.070529
C	 0.1663159222	-2.1668324048	-0.9372692443	 0.188286
O	 0.995980742	-3.2880173987	-1.0536394826	-0.449276
H	 0.940527173	 1.9045220968	 0.0857543031	 0.139381
H	-0.584403477	 1.8562022216	-0.8218390135	 0.137006
H	-0.613056576	 1.8499605889	 0.9521943386	 0.136082
H	-0.950037013	-2.6785897958	 1.0102865915	 0.091019
H	 0.9146144552	-0.848268367	 2.0940625436	 0.100545
H	 1.4101464884	-0.4348174422	-1.8209756566	 0.089178
H	-0.6209333601	-2.225888382	-1.6902962138	 0.101883
H	 1.7952614512	-3.0695585625	-0.5530148455	 0.289108
