17
gdb 43380	2.67728	1.81409	1.29754	3.9786	74.35	-0.2363	-0.057	0.1793	981.2546	0.138106	-421.837169	-421.830136	-421.829192	-421.868582	27.838	
O	 0.0120979026	 0.2891988209	-1.061649583	-0.328329
C	 0.0257973369	 1.1437616455	-0.1978066181	 0.383452
C	-1.2179122433	 1.5133065563	 0.5213398056	-0.147872
C	-1.4038242829	 2.4793925512	 1.4317540357	-0.038455
C	-0.4233450108	 3.4490579519	 2.0327795267	-0.273495
C	 1.0095694205	 3.3820495994	 1.519562667	 0.104732
C	 1.1869820243	 3.4187102894	-0.01376667	-0.298071
C	 1.3173494807	 1.8852169908	 0.1363707905	-0.005008
O	 1.5108795937	 2.0220669131	 1.5635109913	-0.28984
H	-2.0661331271	 0.90658618	 0.2163292653	 0.108161
H	-2.4142457201	 2.5926089398	 1.8227265308	 0.109471
H	-0.8072165896	 4.4715137854	 1.9000136192	 0.119739
H	-0.4168960958	 3.2840494077	 3.1202138002	 0.132314
H	 1.6461569065	 4.0592030414	 2.0988126076	 0.08369
H	 0.3647382388	 3.8048392444	-0.618043028	 0.118464
H	 2.1241543311	 3.8855831882	-0.31849148	 0.122395
H	 2.1524657946	 1.3832563346	-0.356730861	 0.098652
