16
gdb 18972	4.46154	2.24887	1.79746	2.0569	68.44	-0.2324	0.0075	0.2399	746.2756	0.132936	-346.546134	-346.540524	-346.53958	-346.57549	23.652	
C	-0.0234809643	 1.5806238673	-0.0247761069	-0.30643
C	 1.3743749291	 2.1358220396	 0.0241159537	-0.080469
C	 2.4071918452	 1.2980825779	 0.0997494812	-0.078278
C	 2.1526258602	-0.1792715654	 0.1344083137	-0.042371
C	 1.0367891993	-0.746914573	-0.7936660576	 0.037975
O	 0.8598853011	-1.8849471102	 0.1269098268	-0.316095
C	 0.9521238774	-0.6905739105	 0.9864658272	 0.037975
C	-0.0192632587	 0.0546941477	 0.023708451	-0.004454
H	-0.6213742305	 1.9767716297	 0.8087543387	 0.115198
H	-0.5385020021	 1.9216203713	-0.9345312273	 0.115198
H	 1.5078661064	 3.2130677017	-0.0036418956	 0.093123
H	 3.4320837003	 1.6538424869	 0.137220364	 0.091533
H	 3.0384356946	-0.8117143649	 0.1965570328	 0.077439
H	 1.0770850378	-0.9570514448	-1.8633914294	 0.089931
H	 0.890191198	-0.8326784044	 2.066310504	 0.089931
H	-1.0151890637	-0.3919514689	-0.0095240763	 0.079792
