19
gdb 78011	2.61015	1.34251	1.07222	4.3282	78.83	-0.2426	-0.0251	0.2175	1192.2329	0.157097	-423.000096	-422.991073	-422.990129	-423.033656	33.575	
C	-0.7306719397	 1.2245620661	-0.2914520901	-0.423428
C	-0.3708238888	-0.2275450561	-0.5229233344	-0.073799
C	 0.5296230316	-0.7995898566	-1.5843384772	-0.217738
C	 1.8153731406	 0.0072085445	-1.7935769955	 0.144344
C	 1.8399388458	 1.3203595392	-2.5480673816	-0.421028
O	 2.0204203834	 0.1237840469	-0.3514356288	-0.32288
C	 0.9692312969	-0.7981414335	-0.1054201027	 0.358807
C	 1.1411336678	-1.9281190301	 0.8151942681	 0.061928
O	 2.1166339022	-2.1367093084	 1.4925882788	-0.265963
H	-1.34194431	 1.6200927237	-1.1090681245	 0.122036
H	-1.3056968865	 1.3225015552	 0.6346263942	 0.123868
H	 0.166289861	 1.837591622	-0.1936293238	 0.147251
H	-1.1809526364	-0.925754811	-0.3150680585	 0.102444
H	 0.2360341891	-1.6496960447	-2.1869096497	 0.110707
H	 2.5944121014	-0.6583832296	-2.1882964609	 0.097828
H	 2.7995986085	 1.8213511699	-2.385432421	 0.136401
H	 1.7388871248	 1.1270958259	-3.6213910338	 0.123358
H	 1.0394610212	 1.994703314	-2.2420501778	 0.12865
H	 0.2514882972	-2.6008072975	 0.8351598592	 0.067213
