16
gdb 45969	2.98498	1.47794	1.13415	2.0673	69.74	-0.249	-0.0311	0.2179	1050.3567	0.126152	-437.934428	-437.926859	-437.925915	-437.966863	28.696	
O	 0.0424860508	-0.013316145	 0.3240496895	-0.320163
C	 0.0065338737	 1.1664401135	 0.0604217073	 0.406861
C	-1.3408018854	 1.8682239915	-0.1450901715	-0.278664
N	-1.2890010712	 2.987363978	-1.0714347572	-0.33373
C	-0.1808927104	 3.6425180582	-1.5384432455	 0.410959
O	-0.2486566443	 4.4833509397	-2.4148087195	-0.377052
C	 1.1205818408	 3.2835307596	-0.8866194855	-0.133558
C	 1.2379887073	 3.3694074719	 0.606806925	-0.30063
C	 1.2222982674	 2.0046018004	-0.0581454314	-0.142853
H	-2.0379017066	 1.1084860827	-0.508236635	 0.148612
H	-1.7022370356	 2.1810759364	 0.8480925258	 0.135683
H	-2.1501608957	 3.2812316869	-1.5085914088	 0.254513
H	 1.9792500499	 3.5691434755	-1.4804982232	 0.128208
H	 2.1848507388	 3.693216827	 1.0216586232	 0.142249
H	 0.3672877796	 3.6773842322	 1.1746626405	 0.139108
H	 2.1500162808	 1.4455945816	-0.0808166134	 0.120457
