21
gdb 72095	2.70648	1.72444	1.58904	1.2127	80.58	-0.2171	0.0816	0.2987	989.3914	0.185698	-387.109774	-387.102321	-387.101377	-387.141238	30.734	
C	-0.0016950539	 1.4912520195	-0.0028630738	-0.479999
C	 0.0244907581	-0.0053428193	 0.0844924704	 0.452942
O	 0.2374591623	-0.6216245443	-1.1718679182	-0.303592
C	 0.5099521152	-2.0018843527	-0.8901861405	 0.066408
C	 1.3680342421	-1.975645113	 0.3941766939	-0.236044
C	 0.7163341376	-0.8270419324	 1.1457756125	-0.149457
C	-0.8086797179	-0.8084619427	 1.0558450389	-0.110042
C	-1.5388197954	-2.0587082322	 0.5822961076	-0.228236
C	-0.825649817	-2.7081812794	-0.6364497601	-0.205828
H	 0.9324146399	 1.8700297944	-0.430720378	 0.123027
H	-0.8271255621	 1.8311623354	-0.6373692771	 0.124635
H	-0.1316237477	 1.930628933	 0.9900332495	 0.115848
H	 1.0269580594	-2.4166419179	-1.7586296088	 0.074326
H	 1.3359579922	-2.9349418868	 0.9211525082	 0.097568
H	 2.4144539132	-1.7426745908	 0.1709096967	 0.101973
H	 1.2189708684	-0.3722928181	 1.9917069493	 0.07953
H	-1.3158644409	-0.2371564065	 1.8286111972	 0.076332
H	-1.604392021	-2.7704148553	 1.4135454493	 0.099794
H	-2.5712273199	-1.8024411514	 0.3220552868	 0.103809
H	-1.436277994	-2.6109123689	-1.5387723874	 0.104489
H	-0.6581674786	-3.7782804508	-0.4726574365	 0.092515
