19
gdb 110988	2.61362	1.38467	1.19902	1.602	74.58	-0.2372	-0.0064	0.2308	1121.5736	0.158224	-422.973092	-422.964548	-422.963603	-423.006215	33.038	
C	 0.023281244	 1.5017456531	-0.0430935031	-0.51414
C	-0.0409180452	 0.0025074542	 0.0390318772	 0.343343
O	 0.2697360346	-0.7142777305	-1.2107804428	-0.314369
C	-0.3285458449	-1.8490835331	-0.5109720713	-0.017391
C	 0.6552818064	-2.0387750143	 0.6589260248	-0.090145
C	 0.8509803944	-0.7755006563	 1.0380005571	-0.11951
C	-1.3713950129	-0.8371978837	 0.0797682953	-0.028464
C	-2.1668692643	-1.0897215181	 1.3484299889	-0.110853
O	-3.2171789115	-2.0277095393	 1.1375227462	-0.416501
H	 1.0379200204	 1.8259523033	-0.2952995568	 0.135272
H	-0.6587035501	 1.8784298122	-0.8097245307	 0.132169
H	-0.2494506358	 1.9509550635	 0.9173618706	 0.124197
H	-0.5898909251	-2.6892278926	-1.1534852907	 0.079559
H	 1.0529147185	-2.9658552456	 1.0450818642	 0.110782
H	 1.4607651537	-0.3538741505	 1.8241536401	 0.110228
H	-2.0409804491	-0.5003083685	-0.7173832394	 0.09267
H	-1.5095246733	-1.3998488045	 2.1713309996	 0.09102
H	-2.6620006496	-0.1617315046	 1.6565439122	 0.109798
H	-2.8129198603	-2.8800694947	 0.9472274883	 0.282335
