17
gdb 23269	2.60984	1.5145	1.09337	1.5763	70.77	-0.2405	-0.0099	0.2306	1094.7067	0.136063	-455.073885	-455.065695	-455.064751	-455.106749	31.22	
O	-0.0203763153	 1.2915573777	 0.1206066975	-0.387997
N	 0.036839425	-0.1075056081	 0.1323896302	-0.231059
C	-1.108599866	-0.6360399793	-0.0005165893	 0.335561
C	-2.465826606	-0.013448582	-0.2158707236	-0.257931
N	-3.3157946028	-1.064041478	-0.8098214076	-0.108476
C	-2.7394535409	-1.63110044	-2.0374510302	-0.243662
C	-2.5629765922	-2.3436883481	-0.750372318	-0.028828
C	-1.2297908912	-2.1520813832	-0.0466105909	 0.047976
O	-0.1604702205	-2.7868532993	-0.7141298393	-0.43538
H	 0.9071556053	 1.541168857	 0.1968052869	 0.310488
H	-2.9057513098	 0.3018290678	 0.7384445662	 0.133389
H	-2.4116774734	 0.8710258259	-0.8571676083	 0.141212
H	-3.4676310216	-1.989183033	-2.7580584099	 0.122274
H	-1.8620316072	-1.1552134491	-2.4716841195	 0.124728
H	-3.1423869041	-3.2328342874	-0.5260801418	 0.098311
H	-1.3129375772	-2.5343213179	 0.9856578055	 0.088163
H	 0.631596408	-2.2756224031	-0.504833318	 0.291233
