13
gdb 25454	2.29191	1.75217	0.99301	0.9808	77.1	-0.2423	-0.0677	0.1747	1088.1538	0.08952	-415.628908	-415.6214	-415.620456	-415.661124	27.541	
O	-0.1012074049	-0.0081778917	 0.0005748889	-0.275838
C	-0.0409043104	 1.1907639229	 0.0085210078	 0.173727
N	 1.1690186865	 1.8972814104	 0.000200704	-0.118382
C	 2.4395045042	 1.3475776611	-0.0183330161	-0.092534
C	 3.2965254274	 2.4077311154	-0.0200373196	-0.101364
N	 2.6101122693	 3.6046493812	-0.0032003694	-0.308098
C	 1.3369880014	 3.2849136777	 0.0088730133	 0.229359
C	 0.2448497108	 4.1808122939	 0.0279972638	 0.255449
C	-0.6918078666	 4.9366976668	 0.0445044802	-0.39795
H	-0.909086332	 1.8673787111	 0.0239473266	 0.12969
H	 2.5737789005	 0.2799941979	-0.0279497033	 0.167796
H	 4.3753415713	 2.3884020112	-0.0324382357	 0.128422
H	-1.5099412575	 5.614438392	 0.0596637693	 0.209723
