18
gdb 74782	2.98971	1.42322	1.39938	3.7368	76.81	-0.2241	-0.0161	0.208	1027.0372	0.149727	-401.967858	-401.960435	-401.959491	-401.9996	29.57	
C	 0.0344849342	 1.4768266023	 0.0278805885	-0.507309
C	-0.0589126304	-0.0090971297	-0.0355305405	 0.343042
C	-0.0837748556	-0.831765289	-1.092222002	-0.216965
C	-0.0347442597	-2.2579896808	-0.5364477152	-0.162102
N	-0.7138902991	-2.1493780287	 0.7760689369	-0.295572
C	 0.0097674457	-0.9246559757	 1.2025245425	-0.115537
C	 1.4520970767	-1.4930482198	 1.2395137814	-0.313154
C	 1.4251432216	-2.3772897721	-0.0253369498	 0.461084
O	 2.3276713101	-2.9979814276	-0.514568231	-0.327924
H	 0.9654132069	 1.7888386755	 0.5203651887	 0.134383
H	 0.0108417705	 1.9300094085	-0.9665129543	 0.132051
H	-0.7847285659	 1.9030121742	 0.6207983462	 0.130427
H	-0.0097047639	-0.5685266355	-2.1394685031	 0.108817
H	-0.3638351538	-3.0766536499	-1.1725015351	 0.084282
H	-1.6931621344	-1.9165117116	 0.6144410787	 0.215234
H	-0.3534275796	-0.5070055284	 2.1423416227	 0.072179
H	 2.2413257022	-0.7399899706	 1.1958570235	 0.122726
H	 1.6165557242	-2.1266932612	 2.115308612	 0.134339
