21
gdb 93512	2.75209	1.29137	1.04545	4.6518	78.25	-0.2551	0.0165	0.2716	1223.1123	0.183069	-424.280629	-424.271529	-424.270585	-424.314411	34.39	
C	-0.1724697675	 1.5262837651	-0.0503848435	-0.418936
C	 0.0539329845	 0.0127149309	 0.0167444844	-0.003312
C	 0.7500483363	-0.4755542389	-1.2509538464	-0.061951
O	 1.097336605	-1.8703389499	-1.2601074228	-0.234077
C	 1.3225349935	-2.5877274772	-0.1316163391	 0.407416
O	 1.7969276886	-3.6868749905	-0.2288618739	-0.324276
C	 0.8765101775	-1.9967083517	 1.1994197728	-0.351318
C	 0.8393078554	-0.4630345339	 1.2562868548	-0.001565
C	 2.2523753324	 0.1258290874	 1.3868733768	-0.407147
H	 0.7689068184	 2.0753566115	-0.1526007668	 0.124683
H	-0.8040767749	 1.7918493024	-0.9044726387	 0.120553
H	-0.6715919535	 1.8831385212	 0.855929527	 0.121496
H	-0.9307049368	-0.473139551	 0.0621657574	 0.082277
H	 0.1094614279	-0.331981954	-2.1260209971	 0.120308
H	 1.6718631473	 0.0945360828	-1.4236210025	 0.11428
H	-0.1298961357	-2.3983329592	 1.3772243454	 0.132269
H	 1.521653699	-2.428790689	 1.9681682688	 0.130343
H	 0.2730971426	-0.1687092531	 2.1489544837	 0.076112
H	 2.9010354253	-0.1639650319	 0.5530047153	 0.12881
H	 2.2367785181	 1.2180495803	 1.4367020294	 0.120136
H	 2.7263777565	-0.2380623112	 2.3037057652	 0.1239
