25
gdb 104882	2.24176	1.29878	1.09561	0.9795	88.25	-0.2426	0.0819	0.3245	1308.76	0.229063	-389.504875	-389.494793	-389.493849	-389.54003	38.344	
C	 0.2242091375	 1.431421165	 0.2381937306	-0.387519
C	 0.0872118526	-0.0767427377	 0.0094220672	-0.251375
C	 0.5923857693	-0.5588073304	-1.3609855711	 0.44171
C	 2.091118404	-0.2553640876	-1.5961413506	-0.23209
C	 2.5845081814	-1.3891762835	-2.5028690533	-0.207684
C	 1.8928962152	-2.6198557312	-1.8982125396	-0.201331
C	 0.480267751	-2.1118385666	-1.5282778477	-0.261219
O	-0.0736822734	 0.1233564382	-2.4410325969	-0.292514
C	-1.4777629145	 0.0266492878	-2.499616216	-0.249495
H	 1.2735727263	 1.7422602028	 0.2322463024	 0.117676
H	-0.2886936794	 1.9970242557	-0.5446438971	 0.127846
H	-0.201919804	 1.7204345445	 1.2037862617	 0.10697
H	 0.6458595569	-0.6245172029	 0.7783343653	 0.093746
H	-0.9598425046	-0.3782644838	 0.1360399282	 0.093845
H	 2.22108548	 0.7423501662	-2.0195510553	 0.105142
H	 2.6251173735	-0.2911913178	-0.6386115562	 0.088889
H	 2.2320928765	-1.2210306701	-3.5267816363	 0.107172
H	 3.6743863745	-1.4758458185	-2.5343261479	 0.087447
H	 1.8678111373	-3.4815363711	-2.5713991699	 0.091923
H	 2.4300265369	-2.9344378855	-0.9949355374	 0.09406
H	 0.0882343909	-2.596045883	-0.6290057016	 0.090607
H	-0.2197545293	-2.3309412301	-2.3390624121	 0.106149
H	-1.7823079788	 0.4787446957	-3.4476869597	 0.122858
H	-1.8360197325	-1.0130103479	-2.4846546906	 0.101949
H	-1.9750951773	 0.5700778219	-1.6836840162	 0.105241
