18
gdb 68799	2.84904	1.30262	1.08067	6.2194	77.44	-0.2173	0.0219	0.2392	1162.7786	0.147524	-398.09146	-398.082404	-398.08146	-398.124945	34.035	
C	 0.0054214662	 1.5455982481	 0.0453697011	-0.509277
C	 0.0349990087	 0.0515346329	 0.070174072	 0.311831
C	 1.1786973484	-0.8144351375	-0.3805316747	-0.34902
C	 0.655805678	-0.9908704725	 1.0222785431	 0.250328
N	 1.4636636911	-0.9985622645	 2.1839172026	-0.606898
C	-0.7019715822	-1.7223538655	 0.9538015962	-0.160773
N	-1.1988930497	-0.7582695076	-0.08862385	-0.352604
C	-0.7065359692	-3.1292706176	 0.5487050608	 0.30079
N	-0.6813527869	-4.2413890524	 0.2346121951	-0.332481
H	 0.9916613921	 1.9551677538	 0.2833220125	 0.127632
H	-0.2787861909	 1.9176204638	-0.945919139	 0.140837
H	-0.7114482125	 1.9461845892	 0.7726447388	 0.116238
H	 1.0247411135	-1.5766490189	-1.1401107706	 0.135112
H	 2.1411010734	-0.3117058251	-0.4227189988	 0.110404
H	 2.4511785115	-0.9207442018	 1.9833636622	 0.241394
H	 1.2028563586	-0.2996845573	 2.8692013803	 0.236071
H	-1.2365703373	-1.6264505264	 1.9045374324	 0.117076
H	-2.0082745528	-0.2602668708	 0.2719216761	 0.223339
