15
gdb 98931	4.18232	0.92575	0.7616	3.9421	73.47	-0.258	-0.052	0.2059	1424.5386	0.110056	-453.950006	-453.940333	-453.939389	-453.986414	32.964	
C	-0.5282316557	 1.3992274611	 0.4234296169	-0.318127
N	-1.0192480607	 0.0334532454	 0.3855253145	-0.344834
C	-1.2260339818	-0.5659563525	-0.79595941	 0.477879
O	-1.0386774453	-0.109395979	-1.8895277209	-0.368744
O	-1.7176952866	-1.9010022899	-0.7431037939	-0.251236
C	-2.0229856189	-2.6271644223	 0.3533732021	 0.286771
N	-1.9119745028	-2.2119262989	 1.5535328866	-0.547505
C	-2.4912011505	-3.9326538914	-0.0187388511	 0.290901
C	-2.8883164723	-5.0355055397	-0.2837846661	-0.401235
H	-0.3042409059	 1.6569263438	 1.4600040425	 0.129387
H	 0.3811444565	 1.4999054719	-0.1753836732	 0.149099
H	-1.2695613514	 2.1054373967	 0.0339958447	 0.140679
H	-1.2494931525	-0.4845755148	 1.2285213884	 0.289896
H	-2.1998228867	-2.9284197968	 2.2138051364	 0.246482
H	-3.2386055955	-6.0091643735	-0.5269802469	 0.220586
