16
gdb 51686	5.55842	0.79443	0.72045	2.2936	68.76	-0.2738	-0.0069	0.2669	1478.9508	0.124293	-475.060611	-475.052297	-475.051353	-475.095021	29.31	
N	-0.1767172512	 1.2215599013	-0.022854793	-0.531867
C	-0.0703189852	-0.0325749976	-0.0469942425	 0.418452
C	-1.2134368796	-1.0202680827	-0.1317219189	-0.328879
C	-0.5233990897	-2.304431234	-0.594277818	 0.090872
C	 0.8956002117	-2.1284044013	-0.0277181766	-0.112065
O	 1.120458536	-0.7165825802	-0.00806481	-0.234964
O	-1.1296233126	-3.4786859199	-0.0612514883	-0.188626
C	-1.5885862649	-4.4180399697	-0.9177421399	 0.165577
O	-2.1070849452	-5.4247697198	-0.5469696767	-0.263364
H	 0.741998919	 1.6616373863	 0.0538844603	 0.228146
H	-1.638651964	-1.1804307966	 0.8652554417	 0.155343
H	-2.0065895827	-0.6617025713	-0.7871331991	 0.14589
H	-0.4975829335	-2.3656819411	-1.6886702592	 0.107107
H	 0.9398088933	-2.5371168065	 0.9888887499	 0.134429
H	 1.6749037734	-2.5935761313	-0.6352789107	 0.12816
H	-1.4274011946	-4.1450309057	-1.978774729	 0.085791
