19
gdb 2012	5.18386	1.99081	1.91531	0.2264	71.65	-0.2866	0.0912	0.3778	784.7641	0.172823	-273.743311	-273.736471	-273.735527	-273.774027	26.71	
C	-0.034401648	 1.5314622393	 0.0442099995	-0.379195
C	 0.0284772553	 0.0026354358	-0.0494038427	-0.3095
C	 0.7345471742	-0.4950123018	-1.28704077	 0.373037
C	 2.2129223947	-0.2207143363	-1.7217053726	-0.246391
C	 1.6154037844	-1.129363669	-2.8309766661	-0.039987
C	 0.981558192	-1.9807768783	-1.6970486105	-0.260543
C	 0.3431528165	-0.2393772991	-2.7807488942	-0.246373
H	 0.9694809264	 1.9686064632	 0.0619737373	 0.117895
H	-0.5670216665	 1.9589485237	-0.811819013	 0.117858
H	-0.5533772154	 1.8503482741	 0.9532161808	 0.110942
H	 0.5377248754	-0.4008139241	 0.8360248318	 0.09572
H	-0.9889410431	-0.4104356477	-0.0312161769	 0.095725
H	 2.4609708938	 0.8054209141	-2.0086373971	 0.085214
H	 2.9951083817	-0.6592975378	-1.0942873624	 0.083337
H	 2.1242809177	-1.4963215879	-3.7229287729	 0.067042
H	 1.6691670189	-2.5533919709	-1.0668792401	 0.083336
H	 0.0962839185	-2.569014867	-1.9579544322	 0.083345
H	-0.590410274	-0.6951736489	-3.1250382036	 0.083338
H	 0.4460942575	 0.7852858587	-3.1499000451	 0.085202
