21
gdb 117943	2.8555	0.82132	0.68273	2.6226	76.7	-0.2655	0.004	0.2695	1715.2681	0.179827	-461.403269	-461.3923	-461.391355	-461.44042	37.944	
C	-0.0371899975	 1.5939740947	-0.0065424987	-0.385127
C	 0.0048264963	 0.0639762881	-0.0156683383	-0.166999
C	 0.7317471714	-0.5015604646	-1.2390822338	-0.177792
C	 0.7144511941	-2.0417537454	-1.2666103765	 0.0111
O	-0.5999097294	-2.5446215724	-1.2808255882	-0.436524
C	 1.4590710772	-2.5713419178	-2.4855298794	 0.424218
O	 0.9088035944	-3.1752051384	-3.3780911846	-0.381089
O	 2.7646234646	-2.2860722296	-2.4594784884	-0.225593
C	 3.522873987	-2.7385410286	-3.5926318107	-0.243752
H	 0.9718786947	 2.0216638884	-0.0046137012	 0.111069
H	-0.5574746816	 1.981017852	-0.8898013918	 0.1149
H	-0.5598904916	 1.9708966824	 0.8780342012	 0.113331
H	 0.5003283832	-0.2968581486	 0.8957290348	 0.092373
H	-1.012024981	-0.3410549463	 0.0048059183	 0.122016
H	 0.2526588358	-0.1358716831	-2.1570670852	 0.098474
H	 1.7731192488	-0.1594908923	-1.2575623657	 0.104461
H	 1.2355308286	-2.4134533385	-0.3710051142	 0.098364
H	-0.7085882242	-2.9701036239	-2.1446023283	 0.294032
H	 3.1462172309	-2.2833723653	-4.5116835976	 0.145942
H	 4.5498524205	-2.4275982519	-3.4036636397	 0.139634
H	 3.4605524678	-3.8254266287	-3.6839803819	 0.14696
