14
gdb 11727	5.43912	1.40929	1.25022	1.4539	59.43	-0.2659	-0.0463	0.2196	929.5096	0.105553	-419.640695	-419.633488	-419.632544	-419.672324	26.501	
O	-0.0263107647	 1.4251493958	-0.1590507186	-0.426945
C	 0.0342450366	 0.0369712099	-0.0254826276	 0.141433
C	 0.4204811543	-0.5809115196	 1.3751948378	-0.352384
C	-0.9399397567	-1.2692774595	 1.392444294	 0.318201
O	-1.9477893535	-0.2483426021	 1.2531956161	-0.281135
C	-1.3181381758	-0.7015027296	 0.0625183434	-0.077569
C	-1.3554929601	-2.5722339089	 1.9451140867	 0.063976
O	-0.5902619756	-3.3584468692	 2.446321127	-0.253358
H	-0.6721689256	 1.7385714211	 0.4865469412	 0.291827
H	 0.6688907338	-0.3416486726	-0.8294042923	 0.108725
H	 1.254872587	-1.2814562704	 1.3208447909	 0.137178
H	 0.585490879	 0.1363527122	 2.1817263598	 0.118222
H	-1.9574162602	-1.1006301875	-0.7178896583	 0.120064
H	-2.4435526386	-2.7734611195	 1.8420132697	 0.091765
