23
gdb 91326	2.64943	1.43006	1.12697	1.3543	84.9	-0.2537	0.0756	0.3293	1185.5891	0.207566	-388.296397	-388.287887	-388.286943	-388.328801	34.94	
C	-0.0746801528	 1.5318215915	 0.0317103999	-0.477323
C	 0.0212745918	 0.017109998	-0.0317257365	 0.333084
C	 1.173382139	-0.6339722283	-0.8666748115	-0.263895
C	 1.1486563379	-1.7907586157	 0.1772501225	-0.016832
C	 0.6171625045	-0.7436234907	 1.1908235524	-0.242442
C	 0.031756472	-2.7985547846	-0.1388721061	-0.243035
C	-1.1548907874	-2.1028162693	-0.8446697928	 0.128754
O	-2.3939859984	-2.7669596416	-0.61960599	-0.444161
C	-1.3258017234	-0.6412218038	-0.3934921206	-0.237998
H	 0.880126921	 1.9771496131	 0.3315802988	 0.105987
H	-0.3515931972	 1.9537448912	-0.9417195441	 0.111201
H	-0.8345260134	 1.8497713337	 0.7557801951	 0.113431
H	 1.0013891847	-0.8628543264	-1.922495071	 0.087345
H	 2.0920857129	-0.0462950836	-0.7794755622	 0.090075
H	 2.0922427274	-2.2904599367	 0.4087506254	 0.057732
H	 1.4315335286	-0.1771587968	 1.6533433145	 0.086568
H	-0.0733041901	-1.0861486312	 1.9686260637	 0.087365
H	 0.4056535834	-3.6139371725	-0.771363495	 0.081359
H	-0.3294075947	-3.25307307	 0.7917901559	 0.101273
H	-0.9419473529	-2.0945666165	-1.924189274	 0.067237
H	-2.320194731	-3.6591744978	-0.9734666179	 0.276817
H	-1.9907370336	-0.6198692105	 0.4783820637	 0.106336
H	-1.8308557983	-0.0793075915	-1.1877233002	 0.09112
