20
gdb 18789	3.28414	2.24049	1.97724	0.1779	77.23	-0.2543	0.0849	0.3391	813.7679	0.17942	-311.833179	-311.826491	-311.825547	-311.863532	27.759	
C	-0.2515034303	 1.5734744321	 0.0259303807	-0.41899
C	 0.0581802057	 0.0838234536	 0.0157028098	 0.05078
C	 1.0407620956	-0.5270614268	-1.0234884249	-0.054642
C	 2.4278837982	 0.1632281428	-1.0873025435	-0.229388
C	 2.8506606831	-0.5379823904	 0.2268747408	-0.026192
C	 2.2195896797	 0.1022449564	 1.4875715602	-0.229388
C	 0.8633717063	-0.5789950184	 1.1693516998	-0.054642
C	 1.5930486362	-1.4761393152	 0.1029216884	-0.036477
H	 0.6534571911	 2.1822858887	 0.1135563708	 0.116015
H	-0.7623879175	 1.8745036441	-0.8959353705	 0.111522
H	-0.9049918361	 1.8327550716	 0.866873055	 0.111522
H	-0.8822959766	-0.4749943476	-0.0736122521	 0.067984
H	 0.6123541041	-0.8670408551	-1.9678957116	 0.056088
H	 3.0035208449	-0.2240131579	-1.9338867809	 0.095574
H	 2.4667259222	 1.2575535027	-1.1200084695	 0.087294
H	 3.8808026895	-0.8888256483	 0.30189894	 0.058228
H	 2.6532165341	-0.3265739647	 2.3964725351	 0.095574
H	 2.2485105117	 1.193665113	 1.5775266997	 0.087294
H	 0.2901063562	-0.9613837827	 2.015620069	 0.056088
H	 1.5998121027	-2.5634117578	 0.077718126	 0.055753
