25
gdb 116290	2.25109	1.1251	0.84996	1.2956	88.17	-0.2612	0.0767	0.338	1483.819	0.22985	-389.50685	-389.496535	-389.49559	-389.542531	38.309	
C	-0.2240678216	 1.7813123063	 0.2027205103	-0.38778
C	-0.0386078979	 0.2620861717	 0.2908530781	-0.199176
C	-1.3162143419	-0.5263048715	-0.0195588506	 0.045629
C	-1.8236708042	-0.4019887113	-1.478524056	-0.210012
C	-2.6626033228	-1.6828440197	-1.7513301484	-0.211021
C	-2.5463902503	-2.5471700954	-0.4697959504	-0.213707
C	-1.2681123028	-2.0535715175	 0.2359800394	-0.006402
C	-0.0151633745	-2.7364706589	-0.3150479609	-0.083493
O	-0.1279108633	-4.1296959911	-0.0471483523	-0.42228
H	 0.6990941301	 2.3092957423	 0.4616858997	 0.109235
H	-0.5118335553	 2.0927704404	-0.8065965918	 0.118297
H	-1.0067529692	 2.1227345404	 0.8897816386	 0.11281
H	 0.7610139992	-0.0414125221	-0.39743705	 0.093014
H	 0.3095095766	 0.0013393601	 1.299162561	 0.091874
H	-2.1068609708	-0.1388894122	 0.6395431641	 0.066289
H	-2.4038013392	 0.5124793427	-1.6290610796	 0.095138
H	-0.9723553598	-0.343232205	-2.1672462827	 0.091031
H	-3.7057836822	-1.4487279974	-1.9810410358	 0.094127
H	-2.270932025	-2.2197183008	-2.6206519621	 0.097644
H	-3.4081356729	-2.3681562075	 0.1827333459	 0.088522
H	-2.5115185638	-3.6189013325	-0.6749655849	 0.111076
H	-1.3005838843	-2.2719878706	 1.3096254006	 0.068212
H	 0.0809136037	-2.5526114101	-1.3975440717	 0.082428
H	 0.8819586039	-2.3214975842	 0.1674549315	 0.084561
H	 0.6505822382	-4.566790516	-0.403665202	 0.283985
