19
gdb 72250	2.45612	1.70044	1.46833	1.2486	74.58	-0.225	0.0725	0.2974	1001.5786	0.159605	-422.996708	-422.988736	-422.987792	-423.028602	31.722	
C	-0.1123106046	 1.4920137315	 0.0152646297	-0.504845
C	 0.0006966183	-0.0032801338	-0.0397098923	 0.280789
C	 0.8701766534	-0.8096926389	-1.0127600673	-0.30029
C	-0.0818411536	-2.0298740895	-0.7800022255	 0.007937
O	 0.4103900955	-2.9140008065	 0.2181324169	-0.268018
C	 0.5464627342	-2.1369537413	 1.4181233081	-0.107541
C	-0.299440277	-0.890937675	 1.1873076113	-0.210684
C	-1.0789478062	-1.0629464797	-0.0840550157	 0.342416
O	-2.4360352308	-0.9183875288	-0.2720369966	-0.46689
H	 0.7963301864	 1.9465584382	 0.4268860008	 0.119695
H	-0.2689440482	 1.9090526742	-0.9858941005	 0.121742
H	-0.955845676	 1.802557187	 0.6400253836	 0.124172
H	 0.7916182104	-0.4174986456	-2.0315900843	 0.100712
H	 1.9246790086	-0.9740717491	-0.7673695901	 0.095489
H	-0.3973923201	-2.6107398264	-1.645430028	 0.086539
H	 0.1812476789	-2.732986934	 2.2629727794	 0.102283
H	 1.6057957651	-1.9071622531	 1.6002579576	 0.097203
H	-0.7721011679	-0.3883211601	 2.0234583514	 0.090415
H	-2.8914352567	-1.5933020194	 0.2441634314	 0.288875
