17
gdb 34123	3.43827	1.51514	1.41726	5.0072	76.39	-0.2533	0.0095	0.2628	959.2503	0.139254	-380.832311	-380.82578	-380.824835	-380.863085	26.912	
N	 0.0648428436	-1.1135229394	-0.085119707	-0.341946
C	 0.0407732321	 0.0409485239	-0.0313918887	 0.180196
C	-0.0148539037	 1.4835089194	 0.0336355361	 0.228878
C	-0.4049574408	 2.2510718275	 1.3231309309	-0.271568
C	 0.4283626609	 3.3364899916	 0.6478360996	-0.009408
C	-0.0348644806	 3.5551528348	-0.851233454	-0.062273
C	 1.3761961228	 3.0574312503	-1.2129106765	-0.173527
N	 1.3387303457	 2.2530567078	 0.0559235283	-0.166887
C	-0.8304567626	 2.2498618057	-1.0452924461	-0.267814
H	-1.4675443416	 2.4043439882	 1.5168404057	 0.113701
H	 0.107390028	 1.8594756454	 2.2028388782	 0.136155
H	 0.9020416302	 4.1610047892	 1.1789059038	 0.092945
H	-0.4656938089	 4.4841748402	-1.2247731276	 0.076108
H	 1.5188417764	 2.496035398	-2.1413801104	 0.111676
H	 2.1618909298	 3.8105756969	-1.1079441212	 0.117838
H	-0.7339872471	 1.8365352781	-2.0514264542	 0.120787
H	-1.8892886143	 2.3084914023	-0.7853595668	 0.115138
