17
gdb 127916	2.4485	1.45128	0.9218	2.4506	74.7	-0.1782	0.0479	0.2261	1237.8645	0.135203	-451.335039	-451.325262	-451.324318	-451.37094	33.568	
C	 0.0153193952	 1.4123023898	 0.0564857205	-0.332726
N	-0.0328403724	-0.0341540749	 0.025261249	-0.383923
C	 0.5026552389	-0.6107514058	-0.9781455869	 0.51027
N	 1.1577084746	-0.0787050496	-2.105624542	-0.423323
C	 1.5483495964	-1.1273909621	-2.8895392622	 0.484204
O	 2.1992577748	-0.8924757611	-4.0344406102	-0.416913
N	 1.2262767141	-2.2780029337	-2.4069183562	-0.359781
N	 0.5728006262	-1.9663615192	-1.2129560536	-0.092375
C	 0.0495209623	-2.9998597175	-0.3623647824	-0.327149
H	 1.044671968	 1.8129646117	 0.0718201312	 0.093059
H	-0.5037922579	 1.8834016811	-0.7973163636	 0.092929
H	-0.4774886046	 1.7726011094	 0.9636073516	 0.123312
H	 1.3044716394	 0.8967258316	-2.2906248263	 0.282015
H	 2.3852832565	-1.7511640552	-4.436731489	 0.320707
H	 0.847070813	-3.6670887959	-0.0174265965	 0.129957
H	-0.4067630027	-2.5028418838	 0.4949171002	 0.169811
H	-0.7065788018	-3.5953373249	-0.8858361736	 0.129925
