15
gdb 132579	3.16581	1.32841	0.94119	1.8938	72.06	-0.2314	-0.0189	0.2125	1169.3795	0.112214	-461.976004	-461.967997	-461.967053	-462.009324	29.659	
C	-0.0416372118	 1.510098902	 0.0130277166	-0.46534
C	 0.010263961	 0.0041843188	 0.0198689957	 0.326876
N	 0.1435656402	-0.600834402	-1.1680740488	-0.318393
C	 0.1944792154	-1.9304601197	-1.2157114327	-0.070165
C	 0.1165449243	-2.7469665059	-0.088605265	 0.214842
O	 0.1741801788	-4.0984930993	-0.1993481109	-0.437811
C	-0.0216301278	-2.1009399573	 1.1357562515	 0.203202
F	-0.0990670548	-2.8649861056	 2.238154679	-0.089638
C	-0.0768018255	-0.7236228749	 1.2108495477	-0.304579
H	 0.8702458203	 1.9217130218	-0.43110879	 0.140945
H	-0.8802748291	 1.860620719	-0.596913963	 0.140949
H	-0.1513238368	 1.9163907453	 1.0214752644	 0.116689
H	 0.3029265877	-2.3965530665	-2.1918326186	 0.122223
H	 0.1037663731	-4.4759895453	 0.6858160146	 0.305778
H	-0.184661105	-0.2390656603	 2.1738585994	 0.114421
