14
gdb 129451	2.84252	1.58185	1.01749	2.481	66.37	-0.2179	-0.0278	0.1901	1071.1156	0.10358	-466.233109	-466.224935	-466.223991	-466.265867	30.138	
N	-0.0506365257	 1.336903923	 0.0234516837	-0.541654
C	 0.0450636515	-0.0172759206	 0.009223875	 0.348593
O	 1.1141258873	-0.6187076407	-0.0341965835	-0.395932
C	-1.2294533914	-0.7489141261	 0.0402461342	 0.179168
N	-2.4448170497	-0.1851659002	 0.0099767528	-0.298444
N	-3.2572144871	-1.2154443293	 0.0086115072	-0.080442
N	-2.6977453939	-2.4353717242	 0.0370431889	-0.296159
C	-1.3903795408	-2.1594605222	 0.0624559821	 0.313392
N	-0.4053413619	-3.1006632508	 0.1547291116	-0.596876
H	 0.79365349	 1.8816454555	-0.0154699842	 0.263405
H	-0.9474879304	 1.7910950271	 0.046644442	 0.275174
H	-4.2573795856	-1.1034100356	-0.0148986669	 0.29481
H	-0.6295540473	-4.0197600026	-0.1916980315	 0.257025
H	 0.5124743051	-2.7389253735	-0.0687874614	 0.27794
