23
gdb 67215	2.57211	1.64234	1.27978	0.4495	89.5	-0.2334	0.0912	0.3245	1121.7219	0.205306	-351.120037	-351.111109	-351.110165	-351.152656	35.976	
C	-0.0345547064	 1.5750342088	-0.1329904558	-0.533535
C	 0.0173450263	 0.0881421437	-0.0086335019	 0.367137
C	 0.0287423594	-1.0189534206	-1.0392636041	-0.136583
C	 1.3053288299	-1.6195292244	-0.4548409006	-0.254669
C	 0.9043949966	-0.9090620744	 0.8630250168	-0.141744
C	-0.4247855358	-1.5941273078	 1.3397896615	 0.341492
C	-0.4581563393	-3.1137937601	 1.5060793725	-0.462578
C	-0.9543165011	-0.9149449361	 2.6067963304	-0.441326
C	-1.0390367696	-0.9839888501	 0.0738502513	-0.141854
H	 0.9270178	 1.9884736912	-0.4604839299	 0.118669
H	-0.7890825245	 1.8729380137	-0.8698927463	 0.120892
H	-0.2940826795	 2.0573371753	 0.8169501413	 0.120006
H	-0.2601421599	-0.944217251	-2.0810120267	 0.077522
H	 1.446971879	-2.7052460877	-0.4406659676	 0.085826
H	 2.1888801391	-1.1513573195	-0.8995030347	 0.093642
H	 1.6570418649	-0.6252740441	 1.5989091994	 0.057832
H	 0.2237006929	-3.4395780639	 2.3009881318	 0.10774
H	-1.4657652807	-3.4437737421	 1.7852357665	 0.108037
H	-0.1864445009	-3.6406414388	 0.5887610566	 0.115993
H	-0.910426217	 0.1755511215	 2.5284465737	 0.113299
H	-1.9966630323	-1.1949832597	 2.7986747158	 0.106916
H	-0.3667785013	-1.2142861814	 3.4828195813	 0.10682
H	-2.0913151099	-0.8919755425	-0.1735907011	 0.070465
