13
gdb 42520	3.88137	1.05543	0.89523	5.1192	71.4	-0.2692	-0.0622	0.207	1220.8633	0.087525	-415.562593	-415.554244	-415.5533	-415.596311	29.659	
O	-0.0026964116	 0.0415229321	-0.1904512831	-0.241988
C	 0.0468511276	 1.2179009132	-0.0820916005	 0.406043
C	-0.9877720435	 2.378858575	 0.0293719754	-0.260167
N	 0.1539883209	 3.2706749342	 0.4045526019	-0.310817
C	 1.1901258758	 2.2771932848	 0.0309220258	-0.249102
C	 2.2394283335	 2.0495931701	 1.0157885807	 0.312801
N	 3.0695055516	 1.8501441935	 1.7944018592	-0.308989
C	-1.6612981384	 2.681560907	-1.2188958223	 0.320084
C	-2.1839280135	 2.9507533559	-2.2677354358	-0.439451
H	-1.70612158	 2.2486698597	 0.8471324868	 0.150697
H	 0.1951290321	 4.1302680079	-0.1306037615	 0.247229
H	 1.6470888879	 2.4262575555	-0.9582883508	 0.155663
H	-2.6614258524	 3.1838459013	-3.1880308458	 0.217997
