16
gdb 33830	4.69413	1.07475	1.00271	2.8743	77.6	-0.2442	0.0154	0.2595	1188.0559	0.122783	-400.638213	-400.630351	-400.629406	-400.670506	30.633	
C	 0.0327172135	-1.1932700235	 0.1386730788	-0.372579
C	 0.0620224382	 0.0040102378	 0.0306062865	 0.177922
C	 0.0577599996	 1.4150260448	-0.1387814581	 0.27506
C	-0.7140501845	 2.2459469604	-1.1906858935	-0.403873
C	 0.4679088033	 3.2495466754	-1.1515185064	 0.355092
C	 1.0702349644	 3.9409385229	-2.3102012974	-0.308971
N	 0.4654563225	 4.7016009263	-1.1950669617	-0.358025
C	 1.1522725718	 2.4208314814	-0.0838424191	-0.118325
O	 0.2318239665	 2.2757984088	 1.0009697274	-0.278621
H	 0.01555087	-2.2498164419	 0.2454890361	 0.192865
H	-0.8250979433	 1.7432802655	-2.1537676496	 0.124488
H	-1.6821847022	 2.6089388049	-0.8371861637	 0.119988
H	 2.1492234715	 4.0415056016	-2.3945787665	 0.124627
H	 0.5446894175	 3.8848814383	-3.2604783046	 0.116145
H	-0.4551734883	 5.0466025785	-1.455952233	 0.236654
H	 2.2074039894	 2.3008381987	 0.1326790249	 0.117553
