17
gdb 107998	3.08034	1.47944	1.30879	2.2687	67.15	-0.2439	0.0596	0.3035	1007.661	0.136284	-458.886429	-458.879071	-458.878126	-458.918415	28.713	
O	 0.005620379	 1.4283974801	-0.1192743027	-0.413344
C	 0.0376193169	 0.0159569713	-0.0363331965	-0.208027
C	-1.3467355471	-0.5394829554	 0.1020028733	 0.38382
O	-2.3012390112	-0.1912585485	-0.9687462738	-0.360598
C	-3.0853971266	-1.0091222928	-0.0391898261	 0.020976
C	-1.8996057283	-2.0020388187	 0.1721907631	-0.148067
C	-1.9131858968	-2.4041226026	 1.6374942294	-0.112824
O	-2.2930056957	-1.1598040544	 2.2714397399	-0.274821
C	-2.4467208448	-0.2897010465	 1.1820338475	 0.066307
H	-0.6577455719	 1.6491940783	-0.7838790525	 0.296619
H	 0.5263694303	-0.4340481962	-0.9156284363	 0.099716
H	 0.631138564	-0.243619157	 0.8469778999	 0.122903
H	-4.1262986077	-1.2124447888	-0.2870259548	 0.098076
H	-1.6442818011	-2.722250447	-0.6027895592	 0.091261
H	-2.6536588915	-3.1786954229	 1.8694025461	 0.113473
H	-0.9363304859	-2.7286470027	 2.0141699906	 0.114491
H	-2.7375308517	 0.7140527436	 1.4811690721	 0.110039
