15
gdb 23701	5.54231	1.42993	1.14475	1.6026	70.83	-0.2327	-0.0069	0.2258	986.4204	0.119338	-370.705172	-370.698123	-370.697179	-370.737726	26.218	
C	-0.0097047243	 1.5219893256	 0.0103008843	-0.494519
C	-0.0085793875	 0.0129912716	 0.0022148476	 0.309966
C	-0.0037796215	-0.7002386442	-1.2001738939	-0.171628
C	 0.0252573585	-2.0917608055	-1.2189585004	-0.237587
C	 0.0474814715	-2.7769889097	-0.0132514504	 0.292768
F	 0.0727865725	-4.1152866675	-0.0206807715	-0.084952
C	 0.0395470378	-2.104898592	 1.1999696666	-0.237611
C	 0.0103827717	-0.7132218911	 1.1966204234	-0.17173
H	 1.0108561591	 1.9248877294	 0.0024749906	 0.134079
H	-0.5223636059	 1.9276359408	-0.8669982667	 0.125975
H	-0.5051556387	 1.9181234837	 0.9016926656	 0.125901
H	-0.0253372364	-0.1594227451	-2.1413898651	 0.096518
H	 0.0261397075	-2.6469326009	-2.1495571893	 0.108148
H	 0.0514081627	-2.67012012	 2.1244222628	 0.108145
H	-0.0000217368	-0.1826484351	 2.1438316763	 0.096528
