17
gdb 112324	2.82291	1.35084	1.01988	4.743	68.83	-0.2317	0.0231	0.2547	1149.599	0.137742	-455.149639	-455.141543	-455.140599	-455.182521	30.543	
O	-0.0639085335	 1.4249825698	-0.087349705	-0.428709
C	 0.0452927935	 0.0163425483	 0.0769574813	-0.083389
C	-1.3726913876	-0.541692522	 0.0269009993	 0.033108
N	-2.0277524944	-0.2434149632	-1.2383146229	-0.321217
C	-2.562180495	-1.308314396	-1.9150750706	 0.457154
O	-3.1969770645	-1.2708442647	-2.9454176143	-0.387068
C	-2.2040566252	-2.5329203436	-1.0957879074	-0.171355
N	-0.7294316128	-2.715506367	-1.0207957015	-0.329447
C	-1.449063262	-2.0657159871	 0.0897344357	-0.074564
H	 0.815178146	 1.78225293	-0.2403961086	 0.293928
H	 0.6336712885	-0.4463287181	-0.7244323214	 0.119481
H	 0.5053935971	-0.2408666063	 1.0444421672	 0.08577
H	-1.9426466	-0.1095349786	 0.8618302646	 0.092921
H	-2.0032008838	 0.6825105203	-1.6341530766	 0.260239
H	-2.8593223102	-3.3943560426	-1.1102342436	 0.113201
H	-0.540357225	-3.6837032929	-0.7687710052	 0.239048
H	-1.511099591	-2.5557505064	 1.0541841789	 0.100899
