13
gdb 129829	3.2382	1.42734	0.99123	4.9523	66.17	-0.2367	-0.0426	0.1941	1085.4594	0.089333	-489.886807	-489.879172	-489.878228	-489.918806	29.097	
N	 0.0305900651	 1.3645458084	 0.1546250161	-0.559109
C	-0.0496270243	 0.0051485368	 0.0575500628	 0.491263
C	-1.2005816742	-0.7271361492	 0.0313260726	-0.371043
C	-1.1404996494	-2.1552938914	-0.0121598072	 0.339222
O	-2.0745983494	-2.9383353976	-0.0423287437	-0.366134
C	 0.2818313568	-2.6441638832	-0.0188609287	 0.328553
O	 0.4332969958	-3.9700492071	-0.049670561	-0.369985
N	 1.3521605549	-1.9254641289	 0.0005697296	-0.195189
O	 1.1793172557	-0.5350782958	 0.0325176491	-0.270324
H	 0.9130682097	 1.7773334966	-0.1057294497	 0.274592
H	-0.7883882249	 1.8883329045	-0.1070704114	 0.275281
H	-2.1641152179	-0.2345888618	 0.0514128488	 0.112426
H	 1.3839426821	-4.1584663313	-0.0498974774	 0.310449
