18
gdb 114725	3.20618	1.35191	1.05685	4.3293	71.26	-0.2565	-0.0214	0.2351	1132.5064	0.149137	-439.090093	-439.082199	-439.081254	-439.122934	30.18	
O	-0.1235899656	 1.5516122589	-0.2855039038	-0.424106
C	 0.0364123559	 0.1544358118	-0.2473353369	-0.065076
C	-1.2876331572	-0.5724999167	 0.0301182056	-0.11259
C	-1.2316921802	-2.1158751871	 0.0686248899	-0.28818
C	-2.1997984509	-2.4937823538	 1.1977355372	-0.019478
C	-1.7768484185	-2.3124464173	 2.6090500878	-0.247365
N	-2.6010545149	-1.2830909293	 1.9352509682	-0.116378
C	-1.8539305476	-0.1968380157	 1.4057365985	 0.380801
O	-1.6951026125	 0.8548749996	 1.9772748074	-0.338648
H	-0.5359034788	 1.7941028844	 0.5566083627	 0.298464
H	 0.4278069229	-0.1523913277	-1.2234759002	 0.108211
H	 0.7776012607	-0.1556651213	 0.510373293	 0.082064
H	-2.0192184693	-0.2382871751	-0.7167903224	 0.122767
H	-1.5402007744	-2.5623258074	-0.8781224852	 0.122579
H	-0.2154440253	-2.4697504257	 0.2774376232	 0.117627
H	-3.0045502932	-3.1882580648	 0.9772131171	 0.108674
H	-2.2814690721	-2.8385552384	 3.4135119219	 0.13716
H	-0.7361442988	-2.0670788644	 2.8075542762	 0.133474
