19
gdb 49381	4.791	1.02498	1.01813	3.5653	81.02	-0.2445	-0.0182	0.2262	1221.7004	0.161466	-385.861257	-385.854189	-385.853245	-385.892856	28.732	
O	-0.1752856169	 0.0780062235	-0.2422382737	-0.273039
C	 0.0221269663	 1.212101465	 0.11776133	 0.155495
C	 1.3293972943	 1.9066580107	 0.0445293964	-0.146609
C	 1.2679220158	 3.409538558	-0.2172635704	-0.044204
C	 1.6085633662	 2.9132461505	 1.1580329867	-0.044204
C	 3.0252231941	 3.5031610837	 1.3219987097	-0.050658
C	 2.7651618721	 4.9598816247	 0.7907316928	-0.207788
C	 2.5590447802	 4.1823520245	-0.5601451536	-0.050664
C	 3.7054455546	 3.2647968183	-0.0538466354	-0.230654
H	-0.8041537097	 1.8300318822	 0.5454348891	 0.062582
H	 2.1152105276	 1.2902391383	-0.3725316966	 0.104882
H	 0.3090425667	 3.8543675041	-0.4592622336	 0.0962
H	 0.9157592014	 2.9704011808	 1.9902815549	 0.096205
H	 3.5424877335	 3.3073247367	 2.2605855516	 0.068795
H	 1.9079912628	 5.5022693542	 1.1987649228	 0.092969
H	 3.6582421734	 5.5903404326	 0.7970374483	 0.097495
H	 2.6034766348	 4.6754111229	-1.5305978571	 0.068794
H	 4.6700982428	 3.7723205505	-0.1096357358	 0.100899
H	 3.8101792802	 2.2529334287	-0.4449231962	 0.103506
