13
gdb 21484	5.07996	1.73507	1.29395	8.2732	66.84	-0.2219	-0.045	0.177	865.8633	0.098227	-390.989717	-390.982503	-390.981559	-391.021238	26.036	
N	-0.0649897996	 1.3111729612	-0.0522248673	-0.531683
C	-0.0152522732	-0.0236287668	-0.0007958579	 0.359637
N	 1.1442864958	-0.6858735624	 0.0387345496	-0.532789
H	 1.071302757	-1.6937804733	 0.0158022282	 0.300261
H	 2.0360324806	-0.2419053001	-0.092931866	 0.271501
C	-1.2235035649	-0.7600952831	 0.0090965684	 0.349435
N	-1.2735896592	-2.1164558919	-0.0067799448	-0.362554
C	-2.5924614651	-2.2963015104	 0.0136743138	 0.003133
N	-3.3195409904	-1.1433860821	 0.0394825403	-0.225117
N	-2.4306675163	-0.1544132233	 0.0378786223	-0.309395
H	 0.7412158115	 1.8931970784	 0.091228847	 0.271449
H	-0.9917629972	 1.7141113154	-0.0135722757	 0.303258
H	-3.0659305989	-3.2685013817	 0.010607962	 0.102865
