20
gdb 96408	2.57254	1.4285	0.97416	1.027	82.14	-0.2216	0.0413	0.263	1222.1928	0.171178	-403.102003	-403.093262	-403.092318	-403.135031	33.823	
C	-0.081938415	 1.4854651429	-0.0158846496	-0.326112
N	-0.0202002104	 0.031230518	-0.0045726579	-0.07986
C	-1.3559504462	-0.5578026358	-0.0645515057	-0.142634
C	-1.2676270919	-2.0781231131	-0.1085024682	-0.087678
O	-0.5665587329	-2.5743327668	 1.0194754775	-0.244819
C	 0.7374693651	-2.0419094915	 1.073641463	-0.091753
C	 0.7167539979	-0.4988505675	 1.1528728527	-0.143874
C	 2.0903700989	-0.0036193144	 1.208614297	 0.311558
C	 3.2369222168	 0.3497933389	 1.2793206256	-0.43156
H	 0.9281830422	 1.9003038523	-0.0152999757	 0.13645
H	-0.5924231387	 1.8169468951	-0.9253876565	 0.116814
H	-0.6278150933	 1.9009053841	 0.8526586051	 0.09211
H	-1.9744793618	-0.2582065276	 0.8048725425	 0.082476
H	-1.857037375	-0.1907718835	-0.9673913019	 0.101835
H	-2.2653637417	-2.5245602665	-0.0801199308	 0.10759
H	-0.7647284823	-2.3926660065	-1.0369971184	 0.095842
H	 1.2161403431	-2.4507370273	 1.9662726829	 0.117937
H	 1.3209674552	-2.335699363	 0.1875871203	 0.103027
H	 0.2063321905	-0.224002014	 2.0988794809	 0.085947
H	 4.2460694796	 0.6751298261	 1.3412493971	 0.196706
