19
gdb 54570	3.54725	1.35138	1.13506	2.7855	80.37	-0.2358	-0.0093	0.2265	1118.9641	0.159077	-385.865695	-385.857644	-385.8567	-385.898712	31.005	
C	 0.0874285467	 1.352316046	 0.4681909808	-0.489902
C	-0.0561368427	-0.0210864219	-0.1620488844	 0.25714
O	 0.8760734968	-0.5796967811	-0.7076565699	-0.325156
C	-1.3890097991	-0.6558564481	-0.0723467841	 0.259398
C	-2.6590870588	-0.2407624369	 0.6713476628	-0.312166
C	-3.1319407205	-1.7057107293	 0.4733445828	-0.075763
C	-3.3166195339	-1.8325986339	-1.0676221661	-0.23779
C	-1.7994693608	-1.6982116174	-1.1519080765	-0.083353
C	-1.6231882393	-2.1331977329	 0.2628079778	-0.093753
H	 1.0957213065	 1.7308828228	 0.2973216289	 0.139358
H	-0.6492554331	 2.0468382796	 0.0484550508	 0.136949
H	-0.1072274801	 1.2991513265	 1.5455581821	 0.138386
H	-2.450093553	-0.0218725519	 1.7224974088	 0.101326
H	-3.2905561563	 0.5509614038	 0.2507882055	 0.092318
H	-3.8380947838	-2.1623200473	 1.1630879669	 0.076559
H	-3.6355275143	-2.8380414185	-1.3549090815	 0.106958
H	-3.9484121442	-1.0868532541	-1.5631748634	 0.092319
H	-1.1278492349	-1.8646657417	-1.982726602	 0.110924
H	-0.9490750353	-2.8306621838	 0.7378873707	 0.106251
