21
gdb 113245	4.28966	0.78665	0.74441	4.2718	84.07	-0.2568	0.0244	0.2813	1595.8244	0.18122	-383.273297	-383.263047	-383.262103	-383.308982	37.028	
C	 0.5241444411	 1.5450710402	 0.0372740048	-0.374332
C	-0.1673054481	 0.1858261776	-0.1211634736	-0.195181
C	 0.3689935317	-0.5805810088	-1.3099567647	-0.045516
N	 1.6487071899	-1.2946979345	-1.1370840394	-0.356779
C	 0.4304230199	-2.0672618655	-1.4260698082	 0.310516
C	-0.0407371777	-3.001248449	-0.3305302011	-0.456444
C	 0.2647849747	-2.6326968491	-2.839999411	-0.417022
C	 1.08881715	-3.8204442058	-3.0796339726	 0.27187
N	 1.7451730814	-4.7541582394	-3.2603211833	-0.308873
H	 1.6007582276	 1.412144529	 0.1806899392	 0.132903
H	 0.3771330662	 2.1722703415	-0.8492091457	 0.111068
H	 0.1301755338	 2.0904652217	 0.8998033968	 0.114896
H	-0.0269459722	-0.4029009365	 0.789582708	 0.108203
H	-1.2485797437	 0.3271302364	-0.2474388284	 0.097709
H	 0.2343150642	-0.0524948704	-2.2561759929	 0.075632
H	 2.2393978253	-1.2090304746	-1.960459269	 0.231931
H	 0.1762508636	-2.5879158697	 0.6545737509	 0.137526
H	-1.1187002426	-3.1835639276	-0.4056619021	 0.116109
H	 0.4722249653	-3.9656835264	-0.407204003	 0.144248
H	-0.7836317829	-2.9014361441	-3.0187264866	 0.155715
H	 0.5282608525	-1.8755505948	-3.5870396983	 0.145822
