19
gdb 53320	6.18573	0.66693	0.66123	1.7255	86.57	-0.2417	0.0544	0.2961	1752.1822	0.157395	-385.836235	-385.826803	-385.825859	-385.872447	33.766	
C	 0.5401699541	 1.5590070061	-0.6416991725	-0.498546
C	 0.2597536648	 0.1788058343	-0.2726143223	 0.096685
C	 0.0314244676	-0.9652203429	 0.0290282804	 0.05108
C	-0.260580959	-2.3314442835	 0.4088156595	-0.171529
C	-0.1957203484	-2.7168466035	 1.9301886295	-0.317894
C	-1.4718742722	-3.5282316291	 1.709299818	 0.459875
C	-1.746432859	-4.9191927492	 2.0729339559	-0.268654
O	-2.4323413147	-3.8232650386	 2.7002934917	-0.272746
C	-1.7560525149	-2.8115739547	 0.3896970611	-0.317897
H	 1.3622672902	 1.620038995	-1.3635669852	 0.146815
H	-0.3351317811	 2.0357575345	-1.0970042407	 0.147256
H	 0.8233003608	 2.1560105757	 0.2324646391	 0.147244
H	 0.3548386166	-3.0262586708	-0.1717882172	 0.10035
H	 0.6983180361	-3.2379361517	 2.2786002858	 0.109663
H	-0.3820281615	-1.8476313749	 2.5661485966	 0.123954
H	-2.3604365154	-5.5405315742	 1.4217164683	 0.115359
H	-1.0516360388	-5.4610738414	 2.7138466492	 0.115359
H	-2.4420567479	-1.9726712855	 0.5322888694	 0.123969
H	-2.0815825173	-3.4067007957	-0.4659219668	 0.109657
