16
gdb 34997	2.79266	1.66471	1.42521	4.6543	71.73	-0.255	0.0222	0.2772	947.3514	0.125921	-400.720173	-400.713213	-400.712268	-400.751594	27.525	
N	-0.3695208827	-1.1789436649	-0.1840233821	-0.350654
C	-0.1645989558	-0.0444789945	-0.0811632636	 0.312064
C	 0.0129930365	 1.3736050618	 0.0227865001	-0.232474
C	 0.514289492	 2.0982721898	 1.2736958323	 0.085176
O	 1.2025403507	 1.3930562506	 2.2594246513	-0.249825
C	 2.5389899033	 1.1507756229	 1.8540055568	 0.101089
C	 2.7870127537	 0.0711331759	 0.8448843588	-0.341497
C	 2.6701883866	 1.5185925435	 0.3949267529	-0.08475
C	 1.3432913167	 2.1412123488	 0.0227436483	-0.110182
H	-0.7814084277	 1.9145539834	-0.4860816478	 0.139387
H	-0.0880059145	 2.9137456673	 1.6608319229	 0.118659
H	 3.2620224142	 1.3896843525	 2.6259895675	 0.107719
H	 3.790047632	-0.3428368281	 0.8227084309	 0.119717
H	 2.0041516405	-0.6401485642	 0.6254851223	 0.170548
H	 3.5509298505	 2.0143737811	 0.006432155	 0.103445
H	 1.3744360641	 3.015289144	-0.6158749155	 0.111578
