15
gdb 55666	2.25315	1.15085	0.88326	2.0871	69.34	-0.2581	-0.0424	0.2157	1306.847	0.110178	-453.951103	-453.941568	-453.940624	-453.986494	33.792	
N	 0.074385631	 1.3589480077	 0.0645482132	-0.56548
C	 0.0032089044	 0.0229489545	-0.2778766362	 0.466212
O	 0.817572724	-0.5272777041	-0.995038651	-0.383662
N	-1.0797427487	-0.63593503	 0.2897546151	-0.335196
C	-1.1133588707	-2.0791869273	 0.2062081294	-0.230011
C	-1.2302234062	-2.6932101391	 1.6089201194	 0.162036
O	-1.315858362	-2.0305041625	 2.6079723762	-0.245633
C	-2.2130769841	-2.6144943222	-0.6035048167	 0.321676
C	-3.1262589596	-3.0959837401	-1.2181827382	-0.454969
H	 0.7219518672	 1.883438828	-0.5026750704	 0.265408
H	-0.7840438001	 1.8400128658	 0.28447012	 0.255764
H	-1.4200396098	-0.2821311317	 1.175145707	 0.254557
H	-0.1581803168	-2.4062602543	-0.2323008074	 0.167146
H	-1.2566897756	-3.8004052664	 1.6239741243	 0.113975
H	-3.9252822228	-3.5045474183	-1.7866406848	 0.208178
