14
gdb 25265	3.4284	1.77716	1.17918	1.1483	70.01	-0.2415	-0.0185	0.223	956.4876	0.104865	-432.917893	-432.911499	-432.910555	-432.948811	24.655	
N	-0.0640525032	 1.3247987978	 0.0096653665	-0.565915
C	-0.023664903	 0.0688591692	 0.0029546381	 0.498885
O	 1.081453563	-0.7383127809	-0.0063968979	-0.267346
C	 0.7197448751	-2.1409132694	-0.0119931899	-0.205576
C	-0.7744660584	-2.0938712876	-0.0047582646	 0.358766
N	-1.795597275	-2.9020512952	-0.0041891772	-0.363547
C	-2.8928912338	-2.0460591665	 0.0054532141	-0.091396
C	-2.5124904696	-0.7282019673	 0.0104559511	-0.132748
N	-1.1339124015	-0.7782695859	 0.0037480872	-0.064572
H	 0.8749383042	 1.7185159061	 0.0073244215	 0.241166
H	 1.1407043653	-2.6095300018	-0.9071700797	 0.154771
H	 1.1490403316	-2.6187927226	 0.8742837264	 0.154772
H	-3.8984730212	-2.438066435	 0.008159465	 0.122481
H	-3.0543041234	 0.2008975492	 0.0178045995	 0.16026
