19
gdb 108224	2.14337	1.36028	1.21481	2.4188	71.89	-0.2329	0.0583	0.2912	1160.2693	0.157013	-460.108492	-460.0989	-460.097956	-460.143004	35.259	
C	-0.0659465631	 1.5132227951	 0.0631852064	-0.424757
C	 0.0581246142	 0.0064267472	 0.071668251	-0.138315
C	 1.329937182	-0.781738055	-0.1897075958	 0.224078
O	 1.4387711624	-1.8025144776	-1.1137885217	-0.453502
C	 2.5237119682	-0.107857994	 0.4829667096	-0.148036
O	 1.8032594439	-0.0389674554	 1.7448728766	-0.332236
C	 0.7042099207	-0.786008229	 1.1877238447	 0.370491
C	 0.0571091333	-1.7964799535	 2.0767613454	-0.174256
O	-0.7069214387	-1.1923953956	 3.1123716055	-0.413432
H	 0.737130085	 1.9711350501	 0.6457709155	 0.136028
H	-0.0319278857	 1.9185134507	-0.9540567835	 0.110264
H	-1.0150183817	 1.8200891996	 0.5140798618	 0.127178
H	-0.7979395534	-0.5345652716	-0.3305445671	 0.094725
H	 1.2180675697	-1.4525188095	-1.9836676902	 0.291069
H	 3.386271863	-0.7783338443	 0.5651652007	 0.117303
H	 2.8446470929	 0.878391335	 0.1281796333	 0.102611
H	-0.636961998	-2.4061159877	 1.4903836399	 0.11893
H	 0.8273132621	-2.4647991085	 2.490424867	 0.09895
H	-0.1011272268	-0.646516936	 3.6254461812	 0.292908
