17
gdb 29188	3.19343	1.3287	0.94536	6.5951	80.59	-0.206	-0.0003	0.2056	1205.6637	0.137709	-418.076794	-418.068293	-418.067348	-418.10955	32.472	
C	-0.0074121838	 1.5152648759	 0.0144017898	-0.47305
C	-0.0106414289	 0.0167309675	-0.0210496801	 0.135696
C	-0.0563379147	-0.6891670672	-1.1707685197	-0.074124
N	-0.0405947894	-2.0691761181	-1.1864272861	-0.37912
C	 0.0044734203	-2.791597409	-0.0225414942	 0.417764
N	-0.0672562873	-4.176335422	-0.1946277279	-0.587691
H	 0.5850500906	-4.5379504039	-0.8808375214	 0.250239
H	 0.0389297523	-4.6750629521	 0.6781132424	 0.261624
C	 0.0594425849	-2.1459066144	 1.1749444882	-0.325682
C	 0.03998817	-0.6962412583	 1.2744067526	 0.326512
O	 0.0819843127	-0.0864356121	 2.3425847064	-0.404518
H	 0.8953335089	 1.8853821967	 0.5118919475	 0.139754
H	-0.0621951	 1.9484151998	-0.9885435435	 0.100967
H	-0.849544264	 1.8841875557	 0.6089800368	 0.141332
H	-0.1011462498	-0.224865198	-2.1494797708	 0.120465
H	-0.2501983085	-2.5544695543	-2.0432368593	 0.258498
H	 0.1344865468	-2.7138614863	 2.0949498892	 0.091334
