21
gdb 59376	4.07026	0.83355	0.75728	3.7642	85.09	-0.2335	0.0249	0.2583	1548.005	0.182098	-383.269331	-383.259739	-383.258795	-383.303942	35.401	
C	 0.9203808348	-0.4260128744	-1.1762406358	-0.391022
C	 0.0534380379	-0.0240053085	 0.0192226468	 0.074194
C	-0.0221122908	 1.4972357594	 0.1690599552	-0.391022
N	-1.2899417021	-0.5671829718	-0.1453932065	-0.073323
C	-2.2499252701	-0.4298873703	 0.9666476857	-0.181145
C	-2.812443542	-1.8327836119	 0.5972892992	-0.160431
C	-1.4646842395	-2.0322565527	-0.1541932781	-0.181145
C	-3.1494157658	-2.7482123703	 1.6699209211	 0.268004
N	-3.4103141526	-3.4769330405	 2.5289278993	-0.325717
H	 1.9366077513	-0.0386700427	-1.0585028737	 0.117348
H	 0.990311379	-1.5137388015	-1.2760787544	 0.11729
H	 0.5001675578	-0.0250539039	-2.1041966769	 0.12381
H	 0.5158117576	-0.4402773689	 0.9382566583	 0.053966
H	-0.6275995072	 1.7877950208	 1.0333318848	 0.117291
H	 0.9780750668	 1.9173141792	 0.3096767637	 0.117347
H	-0.4662634706	 1.9470082093	-0.7247433062	 0.12381
H	-1.777715589	-0.4383605956	 1.9618546929	 0.108192
H	-2.9380788382	 0.4166884174	 0.8986392589	 0.120133
H	-3.6486293954	-1.7546583659	-0.1002168413	 0.134094
H	-1.508915594	-2.499675038	-1.1413278395	 0.120133
H	-0.7339052981	-2.5683679093	 0.4719356962	 0.108192
