20
gdb 6209	3.67565	1.44989	1.34795	1.1313	76.85	-0.2275	0.033	0.2605	1036.444	0.175945	-349.030721	-349.022107	-349.021163	-349.063264	33.297	
C	-0.4111025116	 1.3936079887	 0.1466885063	-0.493883
C	-0.0230756436	-0.0450313863	 0.0168206383	 0.335877
C	-0.1503218993	-0.8253347356	-1.0595233938	-0.160313
C	 0.3911703696	-2.2126378005	-0.8354718193	-0.314213
C	 0.5977449896	-2.281720637	 0.7107170304	 0.411582
C	-0.5592475964	-3.0293562558	 1.3803357655	-0.434123
O	 1.8431236159	-2.8723964547	 1.0787979279	-0.478319
C	 0.6321251845	-0.7972129175	 1.1531051603	-0.332991
H	 0.4580434177	 2.0182919223	 0.390581064	 0.125247
H	-0.8556016531	 1.7768666215	-0.7760722483	 0.120996
H	-1.1334095576	 1.5391334139	 0.960334159	 0.122482
H	-0.5644631355	-0.5016538143	-2.0093528621	 0.080509
H	-0.275966969	-3.0033812043	-1.2022040936	 0.088703
H	 1.3586060833	-2.3537858534	-1.3363902664	 0.106368
H	-0.6064794338	-4.0684513782	 1.0310910519	 0.100577
H	-0.4318958519	-3.035478304	 2.466977117	 0.119511
H	-1.5172282022	-2.5560721748	 1.1415931901	 0.121769
H	 1.7959853571	-3.8122711764	 0.8737102674	 0.271649
H	 1.6756128678	-0.4829932175	 1.2870650906	 0.115921
H	 0.1319408985	-0.639631376	 2.116909905	 0.092652
