22
gdb 114313	2.2229	1.26452	1.083	2.7741	82.4	-0.2203	0.0701	0.2904	1272.2791	0.193043	-404.300489	-404.290548	-404.289604	-404.335162	37.02	
C	-0.1969940429	 1.4831161626	-0.2725677853	-0.431497
C	 0.0303139622	 0.0228969159	 0.0503149717	-0.013232
N	 1.2614943226	-0.7386903209	-0.2593426446	-0.193399
C	 2.4327329701	 0.1351439095	 0.1150200619	-0.186336
C	 2.0290841975	 0.1437989229	 1.6091041581	-0.013896
C	 1.9649078892	 1.4173763392	 2.4339500643	-0.116881
O	 3.3063019755	 1.8194315681	 2.683466129	-0.421142
C	 0.7548820978	-0.598435698	 1.1870952688	 0.277366
C	 0.1940463462	-1.7585412332	 1.961409876	-0.487832
H	 0.6477643527	 2.1279633444	-0.0315646288	 0.124499
H	-0.4062656927	 1.5973885482	-1.3422025743	 0.124947
H	-1.0682306208	 1.856289465	 0.2766900192	 0.120231
H	-0.8268814561	-0.5812074456	-0.248114199	 0.08932
H	 3.3642118832	-0.3942032226	-0.0897898413	 0.111374
H	 2.4653408508	 1.0998661358	-0.3998440697	 0.101689
H	 2.6760682137	-0.5498956321	 2.1562293149	 0.09026
H	 1.4091791097	 2.2085861189	 1.9126005616	 0.087116
H	 1.4273669644	 1.2105533851	 3.374942281	 0.084319
H	 3.287596144	 2.6431548032	 3.1792006564	 0.28689
H	-0.3411613083	-1.4114773074	 2.8539355296	 0.117545
H	-0.5087095445	-2.3333410806	 1.3514023066	 0.1274
H	 0.9901059256	-2.4355090183	 2.290464704	 0.12126
