18
gdb 124823	4.46582	0.97053	0.82634	4.2207	73.26	-0.2492	0.0179	0.2671	1373.4043	0.149438	-435.3015	-435.292983	-435.292039	-435.335043	31.516	
C	 0.1468816104	 1.496935311	 0.1583029695	-0.40756
C	 0.0226529604	-0.0180245512	 0.2852312587	 0.115782
O	 0.0583879548	-0.4236766437	 1.6620787569	-0.430423
C	-1.2337368996	-0.5611934261	-0.4160052894	-0.324102
C	-1.3398858161	-2.0535970065	-0.3992881992	 0.36673
N	-1.8294934645	-2.8202953743	-1.3626317488	-0.323472
C	-1.7096876755	-4.0735884735	-0.8428687141	 0.017266
N	-1.1802842131	-4.1368182102	 0.3678504244	-0.21867
N	-0.9551044729	-2.8294004068	 0.6363132829	-0.220715
H	 1.0318405554	 1.8501746383	 0.6937557798	 0.132566
H	 0.2308350231	 1.7984012049	-0.8900853124	 0.130348
H	-0.7345829666	 1.9974760285	 0.5786085717	 0.113136
H	 0.9058247034	-0.4942185314	-0.1549297881	 0.108953
H	-0.6080414587	 0.0874994648	 2.1361495312	 0.284569
H	-2.1202908274	-0.1166321354	 0.0604560903	 0.113948
H	-1.2533792608	-0.241200123	-1.4615604175	 0.139529
H	-2.0190412288	-4.9624444384	-1.3722927453	 0.120671
H	-0.5112038335	-2.517694307	 1.4874363496	 0.281443
