15
gdb 66879	3.20743	2.00488	1.7646	2.0809	67.98	-0.2148	-0.0385	0.1763	804.8252	0.113676	-416.684139	-416.678021	-416.677077	-416.714131	25.955	
O	-0.0770745005	 1.4381952154	 0.0874453783	-0.456646
C	-0.0292909734	 0.0674046302	 0.0824971447	 0.332939
C	-0.2822390127	-0.7829152651	-1.2153720165	-0.103377
N	 0.7049542951	-1.8230671592	-1.3071899529	-0.19101
C	 0.7088940336	-2.3051446467	-0.1197246454	 0.122342
C	 1.8052528689	-1.892379899	 0.8348399791	-0.269606
C	 0.6402557204	-0.8535752423	 1.1615345097	-0.080165
N	-0.4060895799	-1.8998813726	 0.7997991193	-0.152154
C	-1.1729650585	-0.918735469	-0.0048254194	-0.101941
H	 0.6289141779	 1.7766290569	-0.4755300521	 0.29547
H	-0.601654578	-0.2440607849	-2.0990547798	 0.108355
H	 1.9774230088	-2.5172930962	 1.7131356553	 0.132464
H	 2.7283031351	-1.5581144477	 0.3679734077	 0.133237
H	 0.5902937459	-0.4654982272	 2.1803942776	 0.117332
H	-2.2500690628	-0.8379544927	 0.0455202444	 0.112761
