19
gdb 89509	2.60111	1.63831	1.20856	1.4057	77.71	-0.2178	0.0136	0.2315	1082.8835	0.159657	-419.177686	-419.16906	-419.168116	-419.210709	32.518	
C	 0.1630512475	 1.2423473748	-0.3377693712	-0.333389
N	 0.0623344694	 0.128844435	 0.5820584581	-0.130193
C	-1.1050472846	-0.8193811595	 0.6507296564	-0.235145
C	-0.0997491585	-1.9355041354	 1.0860460412	 0.341706
O	-0.2198015627	-2.1332837398	 2.4809378133	-0.483975
C	 0.3730426977	-3.1674450778	 0.2942147594	-0.314112
C	 1.902769665	-2.8344866685	 0.1205895684	-0.169856
N	 1.9975615046	-1.3436551272	 0.028251791	-0.330632
C	 0.9274371613	-0.9492169158	 0.5919926053	 0.318764
H	 1.143775701	 1.7101347094	-0.2236618627	 0.149876
H	 0.0531288156	 0.9270409473	-1.387188349	 0.116268
H	-0.6047586765	 1.9859962928	-0.107859977	 0.128361
H	-1.8560502808	-0.5504192181	 1.3956962016	 0.124779
H	-1.5625624495	-0.9867014783	-0.3320762326	 0.107388
H	 0.6165245242	-2.4795747459	 2.8109417791	 0.285319
H	 0.1712995961	-4.1060271176	 0.8170530186	 0.104041
H	-0.0948393285	-3.2146936983	-0.6939207796	 0.110688
H	 2.5071286324	-3.2243214886	 0.9522638302	 0.096875
H	 2.311775776	-3.2680746887	-0.7957296906	 0.113238
