20
gdb 95393	2.22263	1.68426	0.99666	4.6604	84.24	-0.207	-0.0244	0.1827	1211.3141	0.171793	-403.200041	-403.190924	-403.18998	-403.233606	34.32	
C	-0.2070397286	 1.5158831592	-0.0096455136	-0.395009
C	 0.0106627581	 0.004310225	 0.0264199096	-0.096023
C	 0.6931388841	-0.5136814472	-1.2416655419	-0.178861
N	 0.9082878391	-1.9515506902	-1.1403055851	-0.303078
C	 1.448061411	-2.4208714166	 0.0261664914	-0.060054
C	 1.4612456872	-1.7371632277	 1.1997929249	 0.159427
C	 2.0814334482	-2.2936426707	 2.4522380303	-0.478096
C	 0.7929713729	-0.4382905559	 1.2795998355	 0.302764
O	 0.7800831449	 0.2337572302	 2.2991645531	-0.357398
H	 0.7379378405	 2.042861492	-0.1820994055	 0.116709
H	-0.9044504362	 1.7959876894	-0.8054002346	 0.103146
H	-0.6015803097	 1.857098609	 0.9484296814	 0.144422
H	-0.9660698742	-0.4990721185	 0.1049406327	 0.103632
H	 0.0806999772	-0.3061224276	-2.124193911	 0.110764
H	 1.6565127525	 0.0113302831	-1.3686739	 0.102094
H	 1.2055511872	-2.4178774731	-1.9828346517	 0.247187
H	 1.8643795507	-3.4235293536	-0.034654638	 0.110796
H	 2.4994205598	-3.2902399319	 2.2806902263	 0.103038
H	 2.8838292276	-1.6436693209	 2.8176164026	 0.132908
H	 1.348043698	-2.3592945542	 3.2632442637	 0.131631
