16
gdb 84183	3.5572	1.11795	0.88999	2.9841	81.95	-0.2191	-0.0358	0.1832	1269.1781	0.12323	-400.769703	-400.761041	-400.760097	-400.803023	32.329	
C	-0.1210173932	 1.5856762067	 0.0624782967	-0.390294
C	 0.0197071034	 0.0584663819	-0.0346552872	-0.154094
C	 0.8035534573	-0.4618358234	-1.2092605521	-0.2527
C	 1.8210913781	-1.2215281844	-0.7626379262	 0.23352
N	 1.8088766801	-1.276872364	 0.6489556191	-0.40415
C	 0.7856377442	-0.5136765379	 1.1772825758	 0.409805
O	 0.5611790624	-0.333270177	 2.3512773048	-0.378554
C	 2.8133198817	-1.9164868698	-1.491011113	 0.26438
C	 3.6720521473	-2.516318856	-2.084451447	-0.425523
H	 0.8567085092	 2.0725038007	 0.0020372965	 0.126343
H	-0.7460635822	 1.9716978627	-0.7475051768	 0.118443
H	-0.578751345	 1.8489497067	 1.0195840475	 0.144895
H	-0.9865978206	-0.3843678036	-0.0131128472	 0.123469
H	 0.5833060193	-0.2664973711	-2.2473444445	 0.114445
H	 2.5051831297	-1.7389723818	 1.2103885639	 0.265369
H	 4.4232316082	-3.0417015596	-2.6210971403	 0.204646
