11
gdb 133439	3.13539	1.50621	1.01744	1.8854	58.42	-0.2579	-0.0931	0.1648	1022.4685	0.065152	-529.944776	-529.937801	-529.936856	-529.97664	25.768	
O	-0.0802538082	 1.2795564105	-0.2790965137	-0.3774
C	 0.0253080709	-0.0275623268	-0.0193345573	 0.493145
N	 1.2030817935	-0.5298236607	 0.135057002	-0.207552
O	 1.2430572809	-1.9142582744	 0.4067417093	-0.273452
C	 0.1070791157	-2.6673106447	 0.4990358647	 0.313634
N	 0.1043744101	-3.9091117129	 0.7409028187	-0.504792
C	-1.1372378604	-1.9070778908	 0.2912529297	 0.312721
F	-2.2395936609	-2.5989509032	 0.3730085157	-0.003861
N	-1.1997347576	-0.6638830815	 0.0459215834	-0.319627
H	 0.815435384	 1.6458904609	-0.3075106399	 0.321521
H	 1.056683092	-4.2620802463	 0.8553561174	 0.245664
