22
gdb 109945	2.24518	1.34957	1.00973	1.3589	82.06	-0.2419	0.0617	0.3035	1279.8968	0.193504	-404.309781	-404.300134	-404.29919	-404.344571	36.438	
C	-0.188277458	 1.5451484661	 0.0558335836	-0.385827
C	 0.0002640718	 0.0298886938	-0.0745322399	-0.191118
C	 0.6823371534	-0.5878488483	 1.1393870224	-0.07824
C	-0.1042063476	-0.6685576144	 2.4984818898	 0.121569
O	-1.512036932	-0.5923982832	 2.3889627136	-0.430546
C	 0.4631629521	-2.1015967107	 2.7164846115	-0.328926
C	 0.8778391757	-2.1125885421	 1.2418134196	 0.332701
C	 0.5537981449	-3.1235571836	 0.2072466283	-0.314944
N	 1.9415961394	-2.9334270217	 0.6812284262	-0.371724
H	 0.7716134573	 2.0541824163	 0.198041492	 0.110739
H	-0.6583933785	 1.964295848	-0.8390838982	 0.110379
H	-0.8264545971	 1.7784690487	 0.9128878063	 0.137129
H	-0.9768251486	-0.4439656325	-0.2262937896	 0.086487
H	 0.5917071648	-0.1955070555	-0.972580013	 0.089032
H	 1.6437078349	-0.0866938221	 1.3179050622	 0.072941
H	 0.1678323955	 0.0786914673	 3.2460033746	 0.086735
H	-1.8143575831	-1.3214427916	 1.8369432824	 0.282824
H	 1.3259114086	-2.1239333311	 3.3884997655	 0.113093
H	-0.2628884818	-2.8489819618	 3.0496475667	 0.101375
H	 0.1030946205	-4.0715841723	 0.4915625699	 0.115807
H	 0.2911331926	-2.7794479329	-0.7901729304	 0.112415
H	 2.4712353154	-2.4008124464	-0.0060740033	 0.228099
