22
gdb 76225	2.56354	1.48896	1.16066	1.4408	88.03	-0.2189	0.0221	0.241	1180.7594	0.193805	-367.213618	-367.204346	-367.203402	-367.246863	36.128	
C	-0.1154657797	 1.5221155278	 0.0341630182	-0.399999
C	 0.0061593397	-0.0076104783	-0.0158925411	-0.120524
C	 0.8007284417	-0.5406245301	-1.2071937806	 0.314894
C	 0.4562618399	-0.1627529332	-2.6129102749	-0.491812
C	 1.7956559453	-1.3435856143	-0.8128544709	-0.164203
C	 1.8637414688	-1.424835198	 0.671515147	-0.137667
N	 2.1356273946	-0.0944644241	 1.3067886011	-0.372557
C	 0.7456227418	-0.5980295974	 1.1972715805	 0.328069
C	-0.0310939184	-0.9196882544	 2.4468961448	-0.493908
H	 0.8769324496	 1.9731171739	 0.1127286893	 0.139609
H	-0.6125783598	 1.9150842878	-0.8581614925	 0.108076
H	-0.7044630782	 1.8362655002	 0.9026978892	 0.107644
H	-1.0108818709	-0.4300560884	-0.0509941743	 0.068503
H	 0.594226732	 0.911566618	-2.7872898993	 0.13129
H	 1.0780782738	-0.700288826	-3.3340467378	 0.121783
H	-0.59598828	-0.3816186239	-2.8378315457	 0.119494
H	 2.4944779863	-1.8444513052	-1.4734766352	 0.08699
H	 2.2170791559	-2.3176201759	 1.1781216442	 0.080592
H	 2.4494690197	-0.2546345489	 2.2642632634	 0.216984
H	-0.4159548369	-0.008468548	 2.9210456179	 0.123472
H	-0.8891087034	-1.5641477544	 2.2253212504	 0.122255
H	 0.5956728683	-1.437470587	 3.1811045462	 0.111015
