23
gdb 101012	2.51666	1.02234	0.85064	2.2186	81.01	-0.2548	0.0629	0.3177	1450.9576	0.203978	-425.399887	-425.389167	-425.388223	-425.43567	39.841	
C	 0.375857295	 1.17590363	 0.61146889	-0.429702
C	-0.0643313587	-0.1479594159	-0.0250261711	-0.055864
C	-1.591980147	-0.1604385129	-0.246914283	-0.06551
O	-2.3368648865	-0.1113326221	 0.9615561173	-0.423683
C	 0.6653524954	-0.519458458	-1.3248375921	 0.332076
C	 0.6725171071	-2.0320779159	-1.5635313674	-0.147322
O	 1.24117069	-2.4362411457	-2.7982347887	-0.41478
C	 0.5589692236	 0.3691394356	-2.5408615057	-0.290157
C	 1.8721768738	 0.2512368242	-1.8072843809	-0.330767
H	 1.4310546626	 1.1573109719	 0.8955495538	 0.123327
H	 0.2206642881	 2.0263166048	-0.0631667445	 0.115674
H	-0.1961363371	 1.3651694731	 1.525601231	 0.10531
H	 0.142356373	-0.9425106382	 0.7065310753	 0.076527
H	-1.8730281663	 0.6630819812	-0.9209945789	 0.08841
H	-1.8941661284	-1.0902509706	-0.7371737967	 0.110542
H	-2.2992097837	 0.7871950852	 1.3005143142	 0.283626
H	 1.1790841097	-2.523943389	-0.7178121622	 0.091509
H	-0.3555189249	-2.4103508759	-1.5810571043	 0.114188
H	 2.1979129987	-2.3913776771	-2.7160424147	 0.287183
H	 0.4802760783	-0.1205668022	-3.5043914111	 0.126754
H	 0.0161455117	 1.3045856492	-2.4565155446	 0.104748
H	 2.2193755075	 1.1010040065	-1.2327624788	 0.11046
H	 2.6700777477	-0.2957833679	-2.299193227	 0.087452
