12
gdb 4953	3.23036	2.6061	1.44242	4.2052	60.63	-0.2366	-0.0485	0.1881	782.5266	0.08469	-414.660585	-414.654118	-414.653174	-414.691893	23.781	
N	-0.0277736095	 1.2144883641	 0.4425603083	-0.45556
C	-0.0136557081	 0.0248700768	 0.0283174095	 0.331559
O	 1.1474924177	-0.5601081774	-0.4202472288	-0.225423
C	 1.1232055326	-1.8573486892	-0.8634527193	-0.034109
C	 0.0153619345	-2.5832669666	-0.8792400838	-0.034109
O	-1.1923718411	-2.0933133001	-0.4535907407	-0.225423
C	-1.2742670666	-0.8010931454	 0.0102358157	 0.331559
N	-2.3675007816	-0.3184302665	 0.4088141852	-0.45556
H	 0.9095719696	 1.6176701764	 0.3830817727	 0.235417
H	 2.0894039189	-2.2099834652	-1.1904026178	 0.148116
H	-0.0403880329	-3.6055542126	-1.2207187151	 0.148116
H	-3.1099787635	-1.0158940043	 0.3252633342	 0.235417
