16
gdb 28765	3.20883	1.70853	1.2575	1.0734	76.05	-0.1796	0.0283	0.2079	976.5529	0.126072	-400.710413	-400.703484	-400.70254	-400.741495	27.985	
O	-0.0626646334	 1.3781251936	-0.0592754668	-0.42771
C	 0.0215537028	 0.0297335696	 0.04742904	 0.319046
C	 1.0951785354	-0.837203571	 0.1408337452	-0.279566
C	 0.5815168465	-2.1791166747	 0.2437414441	-0.236084
C	-0.7777846022	-2.0747384663	 0.1028733535	 0.191412
C	-2.1536553849	-2.4017454424	 0.6447503284	-0.182712
C	-2.3738114195	-1.5424853853	 1.8840168527	-0.275419
C	-2.4495124369	-0.9098810226	 0.5193675752	-0.02264
N	-1.1110323636	-0.7271860857	-0.0679236576	-0.041497
H	 0.8286553803	 1.739727272	-0.0305676872	 0.305429
H	 2.1357881607	-0.5526017419	 0.0687833729	 0.084713
H	 1.1677141763	-3.0727487394	 0.3940997236	 0.095973
H	-2.7937003268	-3.2338608476	 0.3860842016	 0.104588
H	-3.3287111861	-1.6659515537	 2.3897573718	 0.117183
H	-1.5359874718	-1.3192086606	 2.5369290417	 0.131548
H	-3.3108496067	-0.3942162439	 0.117044241	 0.115736
