12
gdb 1420	6.83202	1.37856	1.2231	1.3957	51.86	-0.2734	-0.0442	0.2293	895.0568	0.087782	-360.52294	-360.515346	-360.514402	-360.555317	25.28	
O	-0.1157064609	 1.4553916714	 0.1038306819	-0.400968
C	 0.0278562045	 0.051349181	 0.0298035079	-0.026647
C	 0.7394939671	-0.3936702524	-1.2595976564	-0.300782
C	 0.0113629896	 0.1369236209	-2.4830774525	 0.165615
O	 0.5561678641	 0.6567771286	-3.4180286355	-0.224664
C	 0.7118939256	-0.4934715476	 1.2196543482	 0.264047
N	 1.2734027894	-0.9030038713	 2.1426136667	-0.304634
H	 0.7620636774	 1.8552399804	 0.1291010862	 0.30265
H	-0.9970276922	-0.3386897371	 0.0287181055	 0.149793
H	 1.7777431133	-0.0496364851	-1.2802177922	 0.139666
H	 0.7467792759	-1.4910476754	-1.3086633847	 0.150113
H	-1.0927376638	-0.0102714935	-2.4614363052	 0.085811
