18
gdb 98868	3.28163	1.1438	0.95555	3.1318	74.93	-0.2273	0.0068	0.2341	1267.1823	0.147861	-439.119828	-439.110899	-439.109955	-439.154409	31.759	
C	 0.8675374528	 1.3858583459	 0.6220154759	-0.332078
N	 0.8129985077	-0.0582561508	 0.7030618998	-0.300434
C	-0.3434804684	-0.7541549057	 0.6160841598	 0.36445
O	-1.4543323093	-0.270930903	 0.4765069198	-0.39441
C	-0.1749052128	-2.2822197824	 0.7112795606	-0.009941
O	 1.1910253395	-2.6852245066	 0.846670983	-0.288452
C	 1.3539426046	-3.5021182699	 2.0125737171	-0.122478
C	-0.0028713004	-3.5328107799	 2.6567150567	-0.093864
C	-0.8690918918	-2.847966171	 1.9208798906	-0.081954
H	 1.288496129	 1.821755724	 1.535087928	 0.124578
H	 1.4707875659	 1.7151024441	-0.231445085	 0.126073
H	-0.1549201952	 1.7449494636	 0.4948767918	 0.167809
H	 1.6543349216	-0.6076123707	 0.7881329895	 0.258571
H	-0.5903770164	-2.6893419557	-0.2234073998	 0.115386
H	 1.7049655144	-4.5020544154	 1.7147215311	 0.113437
H	 2.1262694224	-3.0661605493	 2.6635360204	 0.109838
H	-0.2032418696	-4.0516196981	 3.5851095148	 0.112206
H	-1.9182553041	-2.6717984389	 2.1101524858	 0.131264
