21
gdb 113982	3.70758	0.68515	0.62105	1.8215	86.24	-0.246	0.0602	0.3062	1833.169	0.179724	-387.03103	-387.020681	-387.019737	-387.067269	37.236	
C	 0.1044244782	 1.1241987782	-0.5278989103	-0.230573
O	-0.1892277886	 0.2030515706	 0.5027658613	-0.234341
C	-1.385082296	-0.4785241573	 0.2990020782	 0.107659
C	-1.4015200176	-1.6892273945	-0.6048057212	-0.326535
C	-1.5064062914	-1.8435139526	 0.9047828501	-0.045234
C	-0.3639888747	-2.4493391109	 1.6910359744	-0.19736
C	-0.3728353987	-3.9922828449	 1.630592496	-0.348086
C	 0.7118124337	-4.5969594376	 2.3937960643	 0.293963
C	 1.6162228761	-5.0689167809	 3.0298545016	-0.439537
H	 1.0529405862	 1.6020362817	-0.2721611492	 0.127853
H	 0.2012614533	 0.6255909926	-1.5030080425	 0.109034
H	-0.6732637248	 1.8985669598	-0.6116059103	 0.105896
H	-2.2676405253	 0.1641190446	 0.302400028	 0.083212
H	-2.2712219063	-1.8800062487	-1.2240160707	 0.110223
H	-0.4524923405	-1.9636865369	-1.0551376845	 0.117919
H	-2.4953049528	-2.0911416715	 1.2842614269	 0.085728
H	 0.5884425703	-2.0729611402	 1.3096217765	 0.122383
H	-0.4229415926	-2.1330756782	 2.7387447249	 0.111331
H	-1.3349320014	-4.3683165033	 2.0034728527	 0.124958
H	-0.3099312218	-4.3128502412	 0.5828380518	 0.130424
H	 2.4109091446	-5.4961907587	 3.589130112	 0.191082
