20
gdb 13979	5.43885	1.0983	1.02932	1.7341	75.47	-0.2435	0.0856	0.3292	1229.4369	0.176296	-348.978221	-348.969802	-348.968857	-349.011546	31.265	
C	-0.2039619016	 1.5747973595	-0.0765873455	-0.382979
C	-0.0945152348	 0.0486552298	-0.0952106108	-0.160719
C	 0.903403805	-0.464968047	-1.1457181295	-0.309244
C	 1.0014094784	-1.9580637744	-1.1689932941	 0.445406
C	 1.645037143	-2.9029083506	-0.131262222	-0.287319
C	 1.9015194268	-3.9294408139	-1.2900620335	-0.236556
C	 1.2345533665	-2.9354906774	-2.2493348259	-0.05066
O	-0.0890750727	-2.6956120435	-1.7504535792	-0.294944
H	 0.7618893724	 2.0403135102	 0.1504056447	 0.11213
H	-0.5352329696	 1.9595747558	-1.0475858215	 0.115815
H	-0.9214098182	 1.9131225186	 0.6773291876	 0.11301
H	 0.2065746767	-0.3113684808	 0.896890982	 0.098237
H	-1.0759045247	-0.3950155629	-0.2987762141	 0.116132
H	 0.6018856176	-0.119213422	-2.1418546718	 0.105915
H	 1.8980032249	-0.0433430967	-0.9475569278	 0.096669
H	 2.5729000861	-2.5111085773	 0.2934961223	 0.102404
H	 0.9819660511	-3.2251679157	 0.6748771336	 0.107265
H	 2.9653111511	-4.0784368855	-1.4903975455	 0.103186
H	 1.4051833018	-4.8994904311	-1.2109081211	 0.109915
H	 1.3905410404	-2.7966454952	-3.3139144977	 0.096339
