20
gdb 115488	2.50692	1.16876	0.83441	2.572	77.39	-0.2459	0.0254	0.2713	1389.5082	0.171747	-440.305061	-440.295832	-440.294888	-440.339544	33.659	
C	 0.0296728286	 1.4137434791	-0.0516724458	-0.235099
O	 0.0829207718	-0.0156909744	-0.0586371365	-0.252857
C	 0.6835168746	-0.5708752179	-1.1131634128	 0.431171
N	 1.2015620109	 0.0674924106	-2.0853900322	-0.348083
C	 1.747869384	-0.911530139	-3.0420945918	 0.036567
C	 3.1323898252	-0.4428914219	-3.4891169611	-0.051263
O	 3.0792087015	 0.8503115077	-4.0518640264	-0.42654
C	 1.7317192715	-2.2896757561	-2.3248019684	-0.245828
C	 0.7321395257	-2.0802332667	-1.1700556112	-0.329842
H	 1.0384719642	 1.8361083262	-0.0650189879	 0.136257
H	-0.5147097601	 1.7827447109	-0.9254015397	 0.138454
H	-0.4878978041	 1.6890844701	 0.8676841912	 0.131339
H	 1.0980026366	-0.9166751519	-3.9282335325	 0.083217
H	 3.8138496147	-0.4795375315	-2.6209953049	 0.074972
H	 3.5341216855	-1.1159582628	-4.2552744826	 0.100285
H	 2.5341697527	 1.3670338687	-3.4441425971	 0.288964
H	 1.455285331	-3.1093128379	-2.9908989533	 0.10794
H	 2.727618965	-2.5115734435	-1.9253128686	 0.107928
H	 1.040009697	-2.517931482	-0.2169185391	 0.125282
H	-0.2669268063	-2.4726410977	-1.3947930194	 0.127134
