21
gdb 36971	6.35138	0.58276	0.57035	3.8034	81.24	-0.2456	0.0697	0.3153	1980.4708	0.18273	-420.330793	-420.321284	-420.32034	-420.366976	33.825	
C	-0.1891858346	 1.497096153	-0.1540163664	-0.076223
O	-0.1524034755	 0.0938389126	 0.0042515992	-0.244545
C	-1.4309694395	-0.4804277177	 0.1803728156	-0.076229
C	-1.2776281517	-1.9614783608	 0.3897173772	 0.018727
C	-2.3414266798	-2.8776822741	-0.0919199785	-0.247139
N	-1.0271402578	-2.8510462772	-0.7519314625	-0.30259
C	 1.2088001333	 2.0004194172	-0.3845435803	 0.018726
C	 1.5858540727	 3.349483119	 0.1063005105	-0.24714
N	 2.1414901581	 2.1444348795	 0.740971086	-0.302591
H	-0.8361641161	 1.7698129471	-1.0065700959	 0.0899
H	-0.6191460292	 1.9767578293	 0.7442732441	 0.076649
H	-1.9393945852	-0.025014551	 1.0486523764	 0.089901
H	-2.0665130379	-0.2884952634	-0.7034303506	 0.076648
H	-0.716086342	-2.2314765535	 1.2812553305	 0.100713
H	-2.5625986866	-3.7888136911	 0.4561330077	 0.121804
H	-3.1965612103	-2.441317266	-0.6032354129	 0.109148
H	-1.0783913829	-2.3200309456	-1.6185128687	 0.231289
H	 1.6771259754	 1.6212519164	-1.290066536	 0.100713
H	 2.3016524659	 3.9488317932	-0.4485456328	 0.121804
H	 0.8334365215	 3.9263078994	 0.6394549923	 0.109149
H	 1.6572889722	 1.9509623537	 1.614862395	 0.231288
