16
gdb 28718	4.37545	0.87852	0.79066	2.3878	73.7	-0.2337	-0.0338	0.2	1424.4921	0.122964	-437.937841	-437.929079	-437.928134	-437.972932	30.148	
C	 0.0700714735	 1.419630693	 0.0017823176	-0.488876
C	-0.0344508775	-0.0574569629	-0.1133134612	 0.38051
N	-0.2675589175	-0.7734466027	-1.1668737196	-0.293055
C	-0.2552747897	-2.0859688844	-0.7106636232	-0.195845
C	-0.0176777252	-2.1012646263	 0.6227643918	 0.299682
C	 0.13859083	-3.1577361398	 1.6566654548	-0.395132
C	 1.594081341	-3.3569618267	 2.0781474801	 0.163104
O	 2.1026511011	-4.4320142211	 2.246128605	-0.227402
O	 0.1303762682	-0.7935742707	 1.0214750945	-0.209617
H	 1.0564360873	 1.7182497894	 0.3718539185	 0.146774
H	-0.0897259112	 1.8611486203	-0.9819610349	 0.160461
H	-0.6768065148	 1.815389456	 0.6977384969	 0.146911
H	-0.4233514324	-2.9206307047	-1.3728105766	 0.12814
H	-0.4243167743	-2.8811773466	 2.5599089352	 0.145788
H	-0.251433765	-4.1123227477	 1.2969989132	 0.145994
H	 2.1606333366	-2.4115027449	 2.2283756479	 0.092563
