15
gdb 86699	2.50635	1.29738	0.93028	5.2413	68.61	-0.2656	-0.0053	0.2602	1200.6437	0.111519	-453.949702	-453.940711	-453.939766	-453.985011	30.572	
O	 0.2310814766	 1.2135508735	-0.5444974238	-0.403871
C	 0.0443031084	-0.0427024213	 0.0288990301	 0.099691
C	 0.0493720421	-0.1332515986	 1.5882996113	-0.202296
N	-1.3472589022	-0.5598904992	 1.5226473761	-0.036564
C	-2.1412245148	-1.1128276086	 2.4754611536	 0.136175
O	-1.8072607763	-1.2515318442	 3.6308727185	-0.313265
C	-1.4739345204	-0.4521994585	 0.0684152804	-0.19056
C	-2.424100196	 0.5552394299	-0.4076595574	 0.325702
N	-3.2038025097	 1.3206765565	-0.7818068159	-0.316333
H	 1.1739188412	 1.3991210896	-0.5989196311	 0.302035
H	 0.654321859	-0.8163238944	-0.4502557335	 0.100773
H	 0.717105139	-0.8758413836	 2.0342684978	 0.132645
H	 0.189291051	 0.8354117059	 2.078405171	 0.137401
H	-3.1272252829	-1.4178406266	 2.0719973719	 0.088127
H	-1.6893723251	-1.4009901404	-0.4360373291	 0.140339
