21
gdb 62667	3.0431	1.35389	1.17977	2.0453	82.07	-0.2396	0.0816	0.3212	1155.9797	0.18045	-387.046484	-387.037486	-387.036542	-387.079329	35.378	
C	-0.0672867691	 1.537565792	-0.0367016198	-0.458299
C	 0.0493472212	 0.0235026214	 0.0191929844	 0.306349
C	-1.1671759035	-0.6798930815	-0.5645473423	-0.450484
C	 1.3555668392	-0.704887986	-0.2203348068	-0.121067
C	 2.5323521444	 0.0180661791	 0.393160128	-0.078179
O	 3.0664714071	-0.7865097297	 1.4577347936	-0.295619
C	 1.8996774258	 0.0126347151	 1.7323753001	 0.402555
C	 1.972031689	 0.9607299048	 2.8869368112	-0.498999
C	 0.6891644183	-0.7184188743	 1.1770849912	-0.173136
H	 0.8172057855	 2.0434619089	 0.3536535297	 0.121654
H	-0.211251919	 1.8689102686	-1.0718183159	 0.113719
H	-0.9348493585	 1.8793077864	 0.5401448077	 0.113489
H	-1.3127340175	-0.398419245	-1.613481243	 0.117477
H	-1.0654853758	-1.7685470849	-0.5191887604	 0.117212
H	-2.075786703	-0.403650554	-0.0178458434	 0.117381
H	 1.4276965633	-1.5368934102	-0.911337062	 0.092336
H	 3.204499593	 0.7425700184	-0.0526760667	 0.098571
H	 2.937779608	 1.4724724498	 2.9036011851	 0.132238
H	 1.1741169079	 1.7075157085	 2.8326973516	 0.125419
H	 1.8602972474	 0.4209986291	 3.8342834469	 0.12976
H	 0.1980254162	-1.5599520367	 1.6530510108	 0.087622
