16
gdb 83561	3.18548	1.36457	1.18283	3.5706	68.61	-0.2675	0.0212	0.2887	1043.0688	0.126084	-437.870424	-437.863205	-437.862261	-437.902028	28.356	
O	 0.0512223217	 1.5535872323	 0.0340042071	-0.445609
C	 0.0275317681	 0.1648849309	 0.0385808401	 0.161133
C	-1.3363604391	-0.6125945692	-0.1277184291	-0.119792
C	-1.8312459711	 0.0086460731	-1.4317546902	-0.119966
O	-0.5874512972	 0.0299973627	-2.1946948559	-0.293496
C	 0.3373924082	-0.5761951341	-1.2824444818	 0.043929
C	-0.473684543	-1.7884039711	-0.7171084197	-0.178354
C	 0.2081159549	-2.6253951461	 0.2494538738	 0.277179
N	 0.7512899675	-3.3046719951	 1.0118578179	-0.331779
H	-0.0994587052	 1.836490752	-0.8773619905	 0.297568
H	 0.5989008516	-0.1972949284	 0.8934817465	 0.125185
H	-2.0439217187	-0.7613479805	 0.684408678	 0.103093
H	-2.5781550813	-0.5898452944	-1.9616434511	 0.120453
H	-2.2083675263	 1.0277596236	-1.3011352016	 0.119423
H	 1.3193894836	-0.665641024	-1.7414154536	 0.108797
H	-0.9571232738	-2.4032614417	-1.4791422998	 0.132236
