19
gdb 105333	2.45198	1.44626	1.13048	1.6194	81.01	-0.2468	0.0435	0.2903	1143.5344	0.158225	-385.818092	-385.809319	-385.808375	-385.851224	34.154	
O	 0.1131629829	 1.3945143207	-0.1108433819	-0.422229
C	 0.0652540691	-0.0027870067	 0.0970213502	-0.109654
C	-1.3687997695	-0.5543500267	 0.0038137588	 0.09112
C	-2.0607873075	-0.5195962512	-1.4181343404	-0.282596
C	-2.2495621668	-2.039350643	-1.3500371026	-0.021748
C	-0.9219721183	-2.7233704006	-1.2160942853	-0.300231
C	-1.5413541358	-2.0936218662	 0.0034802188	-0.084945
C	-2.1859999514	 0.090958838	 1.0226022185	 0.273632
C	-2.8165962378	 0.6564901525	 1.8782018461	-0.460988
H	-0.4726032363	 1.7963409065	 0.5424266944	 0.285887
H	 0.685628668	-0.446561299	-0.6860942769	 0.105472
H	 0.496370626	-0.2890629205	 1.0692987102	 0.09209
H	-2.9941663308	 0.042869478	-1.4021811487	 0.119842
H	-1.4303479124	-0.1436089049	-2.2295309449	 0.108634
H	-3.1393775217	-2.5694542951	-1.6646769223	 0.088786
H	-0.9526198413	-3.808355603	-1.2194705533	 0.115063
H	-0.0349190782	-2.3082127149	-1.6865741462	 0.110873
H	-1.7888845375	-2.6700271445	 0.885897005	 0.093997
H	-3.3939488507	 1.1370636905	 2.6289537304	 0.196995
