16
gdb 18440	3.09535	2.06184	1.60528	3.5232	69.28	-0.2209	0.027	0.2479	841.6176	0.131153	-342.747564	-342.740223	-342.739279	-342.779033	27.39	
C	-0.3806205789	 1.4482999066	 0.010328047	-0.348219
N	 0.0758889528	 0.0677905466	 0.0057314758	-0.069268
C	 1.1041543004	-0.41006107	-0.9588204026	-0.194711
C	 1.8370102144	-1.103538986	 0.196030851	-0.106991
C	 2.2868524628	-0.0747198469	 1.2210179024	-0.193421
C	 2.8147160773	 1.2080818939	 0.850515197	 0.307845
N	 3.2526788635	 2.2352351886	 0.544140226	-0.36045
C	 0.8094377799	-0.4883628136	 1.1171801827	-0.020725
H	 0.4238359383	 2.1926758591	 0.0897739961	 0.137444
H	-0.9409235832	 1.6407926791	-0.9103465458	 0.124764
H	-1.067277172	 1.5887983483	 0.8515573163	 0.124443
H	 0.684859663	-1.0959348759	-1.7011521126	 0.117613
H	 1.6742154214	 0.3760714539	-1.4689264129	 0.125263
H	 2.2491197119	-2.1030701447	 0.185270644	 0.111765
H	 2.7814760415	-0.513785708	 2.0832973834	 0.134244
H	 0.3052809568	-0.8813678509	 1.9944761721	 0.110403
