17
gdb 33655	2.88409	1.53851	1.5206	4.8408	76.72	-0.2325	0.002	0.2345	962.3888	0.138693	-380.822206	-380.815364	-380.81442	-380.853338	27.439	
N	-0.0328343666	-1.1395170438	-0.1234891631	-0.346391
C	-0.0229234815	 0.016300874	-0.0692047655	 0.149593
C	 0.0101236048	 1.4462099799	 0.0332390324	 0.296033
C	-0.6201067118	 2.3309903547	 1.1705815276	-0.103471
C	 0.7678141657	 2.9923976372	 1.3760674768	-0.23347
C	 1.2852463447	 2.3667084446	 0.0544720143	-0.103411
C	 0.6886969846	 3.0354885582	-1.1984686543	-0.175057
N	-0.6336517709	 2.3336689063	-1.0373885892	-0.180173
C	-1.4394726254	 2.9959524592	 0.0485206865	-0.174993
H	-1.1391057354	 1.9319328648	 2.0411248276	 0.094104
H	 0.7980135247	 4.0826066694	 1.4625358807	 0.10353
H	 1.2804736476	 2.5550783707	 2.2369273641	 0.119952
H	 2.3090732708	 1.9964151038	 0.0211915608	 0.094105
H	 0.6249396287	 4.1284294651	-1.210182258	 0.106667
H	 1.163990613	 2.6986952146	-2.1244559692	 0.123171
H	-2.4700735916	 2.6315860926	 0.004744001	 0.123141
H	-1.4484499212	 4.0899117387	 0.0051461973	 0.106667
