16
gdb 66521	4.98103	1.35643	1.32771	3.5692	72.27	-0.2351	-0.0242	0.2109	978.7548	0.124703	-400.672474	-400.665609	-400.664664	-400.703566	27.264	
C	 0.0620449388	 1.5057502508	 0.0547306037	-0.524977
C	 0.0334201592	 0.0202072512	 0.0183840007	 0.389265
C	 0.8861653712	-1.0393404797	-0.606071238	-0.150055
C	 0.5195234064	-1.0696425175	 0.9215448914	-0.150052
C	-0.814508142	-1.8082822419	 0.8536442288	-0.144467
N	-1.2092084724	-0.8382595937	-0.2968656392	-0.227719
C	-0.3267748589	-1.7679214485	-1.1785942203	-0.144467
C	-0.6473504964	-2.9106139688	-0.2031803501	 0.465809
O	-0.836687277	-4.0862383982	-0.2719716642	-0.316691
H	 1.0683445861	 1.8602689376	 0.3025920523	 0.128988
H	-0.2182394428	 1.927760492	-0.9164115732	 0.134041
H	-0.6311746098	 1.893575469	 0.8089227546	 0.134026
H	 1.9116711026	-1.0078056002	-0.949646424	 0.102663
H	 1.2771913185	-1.0602361652	 1.693911081	 0.102663
H	-1.4608991223	-1.9008217759	 1.7235435101	 0.100486
H	-0.5072854113	-1.8219015313	-2.2498609334	 0.100487
