15
gdb 43092	3.41293	1.74478	1.63829	2.2593	63.11	-0.2377	-0.0349	0.2028	842.8273	0.115204	-457.768339	-457.762386	-457.761441	-457.798649	24.367	
O	 0.0111154164	 0.0074815958	-0.0203054237	-0.309636
C	-0.0102386444	 1.2019832552	 0.0301505693	 0.435019
C	-1.1144717712	 2.2647156211	 0.0013275433	-0.223321
C	-1.2073902137	 2.9344777743	 1.4074932308	-0.245006
C	 0.0704199143	 3.791681581	 1.3593670306	 0.168271
O	-0.0099617247	 4.4199604232	 0.0961246997	-0.233998
C	-0.0550607435	 3.2351626732	-0.6671406449	 0.063567
C	 1.0605616132	 2.3112376238	-0.0368635678	-0.06385
O	 1.1980697086	 2.921298313	 1.2583788248	-0.268517
H	-2.0682663777	 2.0398200034	-0.4724018608	 0.100164
H	-2.0946831331	 3.5685464332	 1.4820553066	 0.123458
H	-1.2049671043	 2.2172607339	 2.2299478394	 0.131565
H	 0.238665829	 4.5142890788	 2.1556699343	 0.107433
H	-0.0740924377	 3.4246346927	-1.7354484229	 0.111647
H	 2.0410189686	 2.1432922874	-0.4812417787	 0.103202
