21
gdb 61616	3.3259	0.82018	0.7185	1.3182	85.27	-0.2559	0.0348	0.2907	1622.0655	0.179763	-387.038675	-387.02826	-387.027316	-387.074702	38.26	
C	 0.0076452147	 1.530887474	-0.2224740042	-0.403341
C	 0.0111369771	 0.0310850629	-0.0167313397	-0.020978
C	 1.2915244259	-0.7651715474	-0.0713298356	-0.272609
C	 0.5494865842	-0.631604396	 1.2356352465	 0.0189
C	 1.1243684637	 0.1481203538	 2.3980836966	-0.222365
C	 2.0346721499	-0.7162346466	 3.2993434107	-0.060452
O	 3.1434105139	-1.2659989315	 2.5945491307	-0.409319
C	 2.470894397	 0.0389942579	 4.4791269272	 0.295737
C	 2.853307561	 0.6940826865	 5.4121527172	-0.44177
H	 0.9184192155	 2.0004621384	 0.1602311472	 0.113621
H	-0.0575011137	 1.773030176	-1.2890607296	 0.116728
H	-0.8451150891	 2.004604702	 0.2772494609	 0.115375
H	-0.8599563241	-0.4629539133	-0.4406116547	 0.081307
H	 1.3018047179	-1.7265717891	-0.5727190612	 0.108917
H	 2.2188937504	-0.2093525431	-0.1705425035	 0.099423
H	 0.0011435501	-1.5176427968	 1.5501625594	 0.078688
H	 1.7074420134	 1.0083607709	 2.0499097271	 0.095345
H	 0.3200023893	 0.5533930242	 3.0251031881	 0.108948
H	 1.461184945	-1.5912028106	 3.6312372448	 0.116924
H	 3.7627505008	-0.5474105766	 2.4251310471	 0.28308
H	 3.1872067672	 1.2538900344	 6.250699525	 0.197844
