23
gdb 123167	3.29313	0.66001	0.59455	1.0798	84.55	-0.241	0.0915	0.3325	1983.7221	0.203185	-425.393009	-425.382346	-425.381402	-425.430654	37.555	
C	-0.3141807087	 1.4603361118	 0.2600261611	-0.384105
C	-0.0001815345	-0.0202330842	 0.1268625965	-0.02398
O	 0.6547931179	-0.4489610064	 1.3018275074	-0.239047
C	 0.9888704712	-1.8165669223	 1.2857003369	-0.061784
C	 1.609960373	-2.1915728567	 2.6153215016	-0.067268
O	 0.5989247369	-2.2066569228	 3.6053112281	-0.246169
C	 1.0887981973	-2.41998732	 4.8901533987	 0.15219
C	 1.6293474211	-1.2491670105	 5.6726611477	-0.287413
C	 0.2792121045	-1.8537288406	 6.0094398194	-0.287111
H	 0.6053827545	 2.0370494541	 0.3946395609	 0.12471
H	-0.8252288615	 1.8248394984	-0.6361557557	 0.112749
H	-0.9590504476	 1.6377906935	 1.125279886	 0.128374
H	-0.9265861056	-0.5999710098	-0.0253442021	 0.086178
H	 0.6388954374	-0.2022695237	-0.7550259978	 0.081068
H	 0.0948168807	-2.4382520462	 1.1139282938	 0.095455
H	 1.7074799186	-2.034905888	 0.4764964714	 0.080797
H	 2.0817685998	-3.1846387832	 2.5288702829	 0.083087
H	 2.3950461512	-1.4654141541	 2.8720541022	 0.101081
H	 1.5656424607	-3.3912582938	 5.0352637149	 0.077793
H	 2.4601913225	-1.4097067343	 6.3509869451	 0.10956
H	 1.6236806687	-0.2870399454	 5.1726975182	 0.125435
H	-0.599135388	-1.2860915361	 5.7247451993	 0.126943
H	 0.1745248899	-2.4338354098	 6.9192859337	 0.111457
