20
gdb 6548	3.04666	1.63741	1.4636	2.93	70.59	-0.2482	0.0633	0.3115	979.3098	0.174892	-386.1248	-386.115702	-386.114758	-386.157562	35.337	
C	-0.0096856402	 1.577489984	-0.0204304179	-0.4055
C	 0.0346854299	 0.0482366972	 0.0583358143	 0.370454
C	 0.6563556417	-0.3846702825	 1.3957716179	-0.432018
O	-1.3326404394	-0.3711708043	 0.0055974231	-0.476078
C	 0.7693237337	-0.4939806658	-1.1817677643	-0.045861
C	 2.0716884409	-1.2732533134	-1.134877334	-0.341995
C	 0.7827052279	-1.9582361375	-1.5068496875	 0.080093
O	 0.1440563628	-2.8056707047	-0.5842333125	-0.422501
H	 1.0012371415	 1.9956795106	-0.0355429638	 0.109971
H	-0.5341773399	 1.8928987137	-0.9269310295	 0.117315
H	-0.5456899174	 1.9844917425	 0.8415194631	 0.116189
H	 0.037977619	 0.0023761099	 2.2104871265	 0.116267
H	 0.6915803495	-1.4732274187	 1.4808794199	 0.115507
H	 1.6709240789	 0.0082735241	 1.5171324624	 0.10682
H	-1.3213117025	-1.3362109207	-0.0049103992	 0.290012
H	 0.6411019517	 0.1450530143	-2.0509616937	 0.087505
H	 2.8147251198	-1.1022667321	-1.9066990807	 0.11057
H	 2.4811606642	-1.5036049145	-0.1580122272	 0.118393
H	 0.6340201735	-2.2478096249	-2.5461644726	 0.090765
H	 0.6262112742	-3.6375306273	-0.5402415542	 0.294091
