18
gdb 85706	2.43004	1.38895	1.01193	4.0088	82.15	-0.2686	0.0209	0.2895	1205.291	0.146475	-364.788312	-364.779173	-364.778229	-364.82227	33.877	
C	-0.026229546	 1.593174327	-0.1452814853	-0.420797
C	 0.094101673	 0.0877012085	 0.008474159	 0.028196
C	 1.0619902932	-0.6976779936	-0.9134286634	-0.241804
C	 1.4111128434	-1.6313234171	 0.2848532094	-0.183435
C	 2.7654223262	-2.1061223298	 0.4512392258	 0.31989
C	 3.8978972653	-2.485542575	 0.5862076496	-0.426946
C	 0.8439363159	-0.5178231985	 1.2544867529	-0.203673
C	 1.8587020649	 0.3568457458	 1.8185184762	 0.299712
N	 2.6514624955	 1.0718372859	 2.2630210352	-0.335659
H	 0.9501887235	 2.0809920727	-0.0715149566	 0.143455
H	-0.4574241581	 1.8406043053	-1.1211004139	 0.121502
H	-0.6746536969	 2.0229281613	 0.6253963375	 0.125527
H	-0.8983806154	-0.3740133122	-0.0221750564	 0.089412
H	 0.6520414407	-1.1713092203	-1.8070977781	 0.112857
H	 1.927274361	-0.0906334483	-1.1922586666	 0.128894
H	 0.7112699004	-2.472695409	 0.3136683002	 0.116267
H	 4.8999471464	-2.8144590722	 0.7109268799	 0.202376
H	 0.2109932371	-0.8881956605	 2.0642635445	 0.124225
