19
gdb 98609	3.84355	1.12009	1.00822	1.773	76.65	-0.2624	0.0131	0.2756	1241.2252	0.159568	-423.00362	-422.99519	-422.994246	-423.038082	30.902	
C	-0.3020622703	 1.3429638009	-0.3203452091	-0.240956
O	-0.2745011452	-0.062653354	-0.6016464263	-0.224989
C	 0.9355660213	-0.5572870774	-0.9413736695	 0.391124
O	 1.9335555418	 0.11692787	-1.0058048249	-0.369535
C	 0.9016321293	-2.0465412791	-1.1883355158	-0.072601
C	-0.4075163339	-2.8057283672	-1.552162321	-0.048911
C	-0.3480124685	-2.1287188073	-2.9554175563	-0.220836
C	 1.1110766467	-2.5763106524	-2.644925053	-0.037787
C	 0.5074901252	-3.9200623506	-2.1432816862	-0.22765
H	 0.3677663245	 1.5827443444	 0.5092477116	 0.141025
H	 0.0083592114	 1.918174898	-1.1963427429	 0.139991
H	-1.3346555485	 1.5732324149	-0.057791107	 0.131772
H	 1.5422442575	-2.5273781272	-0.4414385119	 0.09617
H	-1.2828353807	-2.9342592659	-0.9160592711	 0.078313
H	-0.8499613983	-2.658954468	-3.7688822445	 0.091306
H	-0.55079032	-1.0573436838	-2.9983211517	 0.103419
H	 1.9992120493	-2.4315603368	-3.259655543	 0.084479
H	 1.1071793291	-4.4972933567	-1.4341398122	 0.091933
H	 0.0574772496	-4.5612604719	-2.9052279551	 0.093733
