18
gdb 95186	2.42978	1.742	1.20999	3.0987	72.47	-0.232	-0.0265	0.2055	1054.3227	0.148307	-439.079092	-439.071073	-439.070129	-439.111894	30.669	
C	 0.2071838307	 1.5325866107	-0.0545581925	-0.404416
C	 0.0504032338	 0.0173969353	-0.0368998539	 0.032787
O	 0.6528381888	-0.4953639919	-1.2142619471	-0.247815
C	 0.6856769568	-1.9023519262	-1.3008485967	-0.092546
C	 1.4921930489	-2.5098222729	-0.1693532391	-0.051281
N	 2.6379833506	-1.7133410078	 0.2543446824	-0.316396
C	 1.4494097379	-1.809833119	 1.148651969	-0.145861
C	 0.5896106634	-0.5923213718	 1.2673437996	 0.398075
O	 0.2389460354	-0.1644699562	 2.3442624741	-0.327179
H	 1.267202131	 1.7959526915	-0.1034627816	 0.136916
H	-0.2969218948	 1.9524015476	-0.9280302608	 0.123055
H	-0.2243613516	 1.9545458684	 0.8547248917	 0.141376
H	-1.0266591212	-0.2385502127	-0.0335013445	 0.094818
H	-0.3320617207	-2.330633418	-1.2945250382	 0.09214
H	 1.1446895853	-2.1338702497	-2.2672525609	 0.119582
H	 1.5641698596	-3.5955513089	-0.1613279055	 0.098383
H	 3.3644106019	-2.3142876791	 0.6362255777	 0.24381
H	 1.5437554141	-2.3743095996	 2.0714717964	 0.104553
