13
gdb 16783	3.86999	2.1629	1.50917	2.1392	60.8	-0.2681	-0.021	0.2471	784.5964	0.098123	-394.806237	-394.800098	-394.799154	-394.836519	23.591	
N	-0.1157233318	 1.305805248	-0.0313937993	-0.540521
C	-0.0305548146	 0.0425655592	 0.0210378558	 0.405245
N	 1.0822998146	-0.7984618685	 0.0388093699	-0.376662
C	 0.7660923408	-2.1556458251	-0.0156587729	 0.418818
O	 1.5455813139	-3.0651601221	 0.000964458	-0.342388
N	-0.6664554849	-2.272500283	-0.1062195283	-0.149378
C	-1.3166546337	-1.8498810332	 1.1543291498	-0.246893
C	-1.1951327705	-0.8972657704	 0.0180645584	-0.084256
H	 0.8014988358	 1.753451538	-0.0547826965	 0.218701
H	 2.0393963376	-0.4878782441	 0.1043332161	 0.269571
H	-2.273838198	-2.3230786264	 1.3449133359	 0.146724
H	-0.6868425687	-1.7018375707	 2.0270271985	 0.144505
H	-2.0604230306	-0.6321099615	-0.5767899255	 0.136534
