19
gdb 7531	4.30444	1.27042	1.21278	3.6219	72.77	-0.2436	0.0313	0.2749	1083.3498	0.164	-365.082818	-365.073714	-365.07277	-365.116446	33.144	
C	-0.1104460757	 1.5490195338	-0.0308262385	-0.41282
C	 0.0426208103	 0.0452494932	 0.0256416258	-0.054338
C	 1.3645383696	-0.6343924454	-0.2444858483	-0.293879
C	 0.7721265488	-0.670363495	 1.1442153992	 0.344117
C	 1.4507591872	 0.0729979359	 2.278800902	-0.451571
N	 0.171124033	-1.9230496253	 1.5422612184	-0.324326
C	 0.8913137484	-3.0336884173	 1.8616975634	 0.149387
O	 2.0967345967	-3.134677701	 1.7846880435	-0.323622
H	 0.7959638097	 2.0651077183	 0.2966064338	 0.12101
H	-0.3162614153	 1.8725292708	-1.0568333679	 0.123076
H	-0.9376762661	 1.8956826421	 0.5988403829	 0.116216
H	-0.8243760098	-0.4979298645	-0.3445541055	 0.081259
H	 1.3746141229	-1.554620611	-0.8151932887	 0.123288
H	 2.2378382149	-0.0062434207	-0.3879127474	 0.114077
H	 1.9169332254	 0.998623426	 1.9335892239	 0.116086
H	 0.7358035437	 0.3267363445	 3.0697969281	 0.107845
H	 2.2324083867	-0.559460406	 2.7084555698	 0.151267
H	-0.8171347685	-1.9347854602	 1.7450588205	 0.243018
H	 0.2337669181	-3.8625333283	 2.1975827249	 0.069911
