16
gdb 24618	4.88894	1.01663	0.91306	1.7057	69.28	-0.2468	-0.0018	0.245	1237.8267	0.12617	-437.886559	-437.879089	-437.878145	-437.920565	26.624	
C	 0.1284581081	 1.5171419892	-0.0928010006	-0.087927
O	 1.5404122572	 1.4592006883	 0.1807133256	-0.26952
C	 1.4728214042	 0.0526188721	 0.4896934831	-0.071452
C	-0.0131202574	-0.0158394019	 0.0390503694	-0.157326
C	-1.0133285553	-0.5801117475	 0.9815373428	 0.246842
C	-1.8868326357	 0.0303188888	 1.8212324472	-0.118863
O	-2.5875037835	-0.9358402525	 2.4918091993	-0.138576
C	-2.089599459	-2.0961966834	 2.0140771402	 0.076
N	-1.1646527202	-1.962352737	 1.1236166368	-0.307285
H	-0.4091440107	 2.1012399328	 0.6666615395	 0.096723
H	-0.0861134137	 1.9412953407	-1.0799834969	 0.107798
H	 2.1875116617	-0.5346551313	-0.0965326083	 0.110124
H	 1.6288481624	-0.1440258411	 1.557891041	 0.103742
H	-0.1113429878	-0.5127601337	-0.9289254578	 0.105006
H	-2.1382431724	 1.0493208229	 2.0560526008	 0.150767
H	-2.5085054877	-3.0059080762	 2.4150504881	 0.153945
