16
gdb 56087	6.89251	0.51585	0.48278	4.5607	80.03	-0.2694	-0.0638	0.2056	2149.6287	0.120978	-437.867448	-437.857311	-437.856367	-437.904706	33.325	
C	-0.0612805071	 1.4505674912	-0.1327576077	-0.461443
C	 0.0653008345	-0.0368223988	 0.0643390363	 0.407343
N	 0.2162204901	-0.6961434146	 1.1373569789	-0.514981
O	-0.0039010021	-0.6692627987	-1.1310705955	-0.234429
C	 0.1044259386	-2.0968804244	-1.0767787499	-0.237577
C	 0.0125704545	-2.6287675975	-2.4234374885	 0.070016
C	-0.0582507987	-3.1214096082	-3.523388638	 0.087295
C	-0.1481459322	-3.6609988728	-4.8552989598	 0.020668
O	-0.0891782687	-4.8388669625	-5.1230967717	-0.227376
H	-0.0072519896	 1.9753141922	 0.8220237094	 0.131386
H	 0.736489571	 1.8123263796	-0.7882499141	 0.152454
H	-1.0122845935	 1.685842345	-0.6197973026	 0.152454
H	 0.248945622	-0.0772203474	 1.9435610574	 0.226125
H	 1.0540280069	-2.3823155235	-0.6084991149	 0.162442
H	-0.6879568148	-2.5080527886	-0.4399497437	 0.162474
H	-0.2797088508	-2.891589171	-5.6430705456	 0.103149
