21
gdb 79076	2.65751	1.67781	1.42337	0.5392	86.61	-0.2152	0.0198	0.2349	1045.1552	0.183442	-349.937868	-349.929832	-349.928888	-349.969754	32.722	
C	-0.036172085	 1.6104573995	-0.0518223519	-0.416036
C	 0.0948677554	 0.0937559048	-0.0168922579	 0.042889
C	 0.7191750639	-0.6724721205	-1.1756629718	-0.142364
C	 2.2710454057	-0.7745622719	-1.0668558863	-0.127752
C	 3.0029982384	 0.1505927512	-0.1590800751	-0.080187
C	 2.3920071856	 0.1785226002	 1.0318222813	-0.094476
C	 1.1300984257	-0.6420850477	 0.9517662145	-0.177338
C	 1.3749257089	-1.6515303381	-0.2303153773	 0.353615
C	 1.3667227437	-3.1481680187	-0.1698195906	-0.51953
H	 0.9243127629	 2.0956400942	-0.2409570109	 0.119448
H	-0.7267589436	 1.9109181754	-0.8482373416	 0.108098
H	-0.4340512367	 1.9973105682	 0.8936443327	 0.105981
H	-0.8842422013	-0.3553582472	 0.1829986736	 0.074219
H	 0.2496248184	-0.8649804183	-2.1348649692	 0.077229
H	 2.7504301333	-1.1980764135	-1.9431636901	 0.076046
H	 3.8742694119	 0.7226790724	-0.4544337815	 0.091553
H	 2.6517244424	 0.8091576766	 1.873379826	 0.090807
H	 0.7179704359	-1.0100587518	 1.8915501194	 0.059418
H	 0.4244001564	-3.5290079211	 0.2417896769	 0.11692
H	 1.4883751689	-3.578223953	-1.1699011045	 0.118422
H	 2.1812846191	-3.5277091608	 0.4583927644	 0.123038
