19
gdb 74150	2.73668	1.40945	1.01671	4.3193	85.02	-0.2284	-0.0364	0.1919	1188.6264	0.159081	-385.927212	-385.918769	-385.917825	-385.960413	32.454	
C	-0.0313812096	 1.4835981477	 0.0573702987	-0.507023
C	-0.0073714658	-0.0104503904	 0.0048786347	 0.288793
C	-0.0197907855	-0.7597551354	-1.1149590491	-0.307568
C	 0.0118284844	-2.1962470346	-0.7983899707	 0.378099
O	 0.0100505393	-3.1264864659	-1.5737513299	-0.339766
C	 0.0482157266	-2.3095212758	 0.7365378693	-0.428992
C	 0.0345739003	-0.8658858167	 1.228449755	 0.2665
C	 0.805258265	-0.4396547712	 2.4656264021	-0.308765
C	-0.6943299276	-0.4653219789	 2.4990792645	-0.308768
H	 0.8541545549	 1.877329948	 0.5702041346	 0.140858
H	-0.0622701218	 1.9138398886	-0.945688906	 0.138634
H	-0.9044456687	 1.8477571882	 0.6117304899	 0.140812
H	-0.0489883693	-0.3871706065	-2.1312974159	 0.105918
H	-0.815623347	-2.8887172407	 1.0777951058	 0.130896
H	 0.9458452521	-2.8585321465	 1.0381943574	 0.130891
H	 1.3477669429	-1.2158993585	 2.9944714106	 0.12295
H	 1.3018968653	 0.5245049067	 2.4593876281	 0.116783
H	-1.2234724955	 0.4812626538	 2.5157627767	 0.116793
H	-1.18583943	-1.2592985021	 3.0509562142	 0.122954
