20
gdb 95695	2.94032	1.23252	0.95921	4.1938	75.83	-0.227	0.0099	0.2369	1257.1724	0.172431	-440.317694	-440.309071	-440.308127	-440.350953	33.051	
C	-0.0183054157	 1.6305317459	 0.0518581181	-0.400789
C	-0.0597696956	 0.1036201702	-0.0247866869	 0.047622
C	 0.3671226912	-0.3966722501	-1.4178460557	-0.199448
C	 0.3345882288	-1.9143401009	-1.5804831643	-0.090275
O	 1.4621472402	-2.5886512076	-1.0056911448	-0.218297
C	 1.6438665052	-2.6766739257	 0.3358180536	 0.386743
O	 2.5623609525	-3.3301394843	 0.7528968191	-0.319232
C	 0.7026486951	-1.8917931633	 1.2587428568	-0.290743
N	 0.7040951781	-0.4447389496	 1.0945778899	-0.283816
H	 1.0032230254	 2.000267674	-0.0999820907	 0.115252
H	-0.6495777995	 2.080021141	-0.7202634508	 0.117308
H	-0.3606762878	 1.9737020372	 1.0311257786	 0.129096
H	-1.099843013	-0.2207012625	 0.1336203117	 0.08116
H	-0.3054151684	 0.0348681007	-2.1705344656	 0.103221
H	 1.3785062035	-0.0420544507	-1.6558400114	 0.108562
H	-0.5996363265	-2.3346033101	-1.1853965853	 0.108706
H	 0.3892495902	-2.1792092222	-2.6388243481	 0.125891
H	-0.3271562163	-2.2519291255	 1.1433455257	 0.121601
H	 1.0250058202	-2.1444587938	 2.2717824577	 0.134667
H	 1.6535233424	-0.0851051126	 1.0972740923	 0.222771
