13
gdb 21886	6.70165	1.69391	1.38067	3.6975	60.15	-0.2278	0.0171	0.2449	835.2778	0.098259	-394.767915	-394.761678	-394.760734	-394.798636	23.011	
O	-0.1565701544	 1.3196017445	-0.0269673959	-0.398118
C	 0.07660184	 0.0024041644	-0.0506894302	 0.412744
N	-0.0222638141	-0.6849299482	-1.1911002222	-0.348597
N	 0.2158281929	-1.9337941031	-0.6948022074	 0.07483
C	 0.7162437831	-3.2991683708	-0.9432040807	-0.165788
C	 0.9587970644	-3.3579531188	 0.6252390263	-0.360054
C	 0.4934241898	-1.9099163864	 0.6007826897	 0.356676
N	 0.4129834586	-0.6866742037	 1.0953222553	-0.455756
H	-0.0240900802	 1.6027276098	 0.8859683819	 0.312609
H	-0.0291586719	-3.9818375696	-1.3568750739	 0.139082
H	 1.632328112	-3.3275768027	-1.537873642	 0.145162
H	 0.3267689233	-4.0629315448	 1.1685583178	 0.141935
H	 2.0026924765	-3.5065192105	 0.9081522814	 0.145275
