20
gdb 109427	2.3665	1.32823	1.05761	3.3378	76.51	-0.2601	0.021	0.281	1226.1424	0.169603	-440.296173	-440.286641	-440.285696	-440.330231	35.809	
C	-0.2797581088	 1.5778693283	-0.0447999995	-0.434248
C	-0.0309690261	 0.0821334116	 0.0441467399	 0.378813
C	-1.182020039	-0.7427497998	-0.5019127166	-0.432869
O	 1.2263122528	-0.2581427211	-0.6897280791	-0.290069
C	 1.8224557197	-0.6932899384	 0.4604211096	 0.447968
N	 3.0002387912	-1.067205205	 0.7038813592	-0.571732
C	 0.6259819194	-0.47234588	 1.3483716199	-0.210024
C	 0.9378624716	 0.3909146717	 2.5748303381	-0.084375
O	 1.8256197652	-0.3006708853	 3.4261512493	-0.421745
H	 0.5962594571	 2.1503033669	 0.2667679699	 0.133413
H	-0.5200728438	 1.8575775729	-1.0751011288	 0.130551
H	-1.1248500781	 1.8623463012	 0.5904139659	 0.127801
H	-1.3948695314	-0.4667406088	-1.5392048107	 0.130665
H	-0.9474256505	-1.8100355597	-0.4694970897	 0.130198
H	-2.0863190137	-0.5691351137	 0.0907100067	 0.12732
H	 3.5941554407	-1.0413925363	-0.1260624679	 0.228745
H	 0.1709319121	-1.4086033462	 1.6828168394	 0.110476
H	 1.3516217869	 1.36212976	 2.2629661588	 0.089082
H	 0.0287683849	 0.5903375827	 3.1523818396	 0.107893
H	 2.5784059096	-0.5771828408	 2.8812587659	 0.302137
