13
gdb 132814	2.39961	1.8574	1.04699	0.5697	64.11	-0.2378	-0.011	0.2267	1022.883	0.090195	-497.913682	-497.906609	-497.905664	-497.945076	27.436	
O	 0.0818242277	 1.3344930542	 0.1306214566	-0.410465
C	 0.0684499738	-0.0101325798	 0.0509778929	 0.334221
N	 0.0382612627	-0.5793992015	-1.1455281898	-0.378124
C	 0.0254304934	-1.9189546271	-1.2019460718	 0.000813
C	 0.0416660492	-2.7453282895	-0.0919438831	-0.234083
C	 0.0735207319	-2.1400238979	 1.1685516153	 0.319759
O	 0.0907224041	-2.8873995072	 2.2918528105	-0.427226
C	 0.0868593883	-0.7530367836	 1.2294615577	 0.035055
F	 0.1175113187	-0.1651793198	 2.439830157	-0.084796
H	 0.0652406507	 1.6485099674	-0.7847332875	 0.302021
H	 0.0006563747	-2.3484381715	-2.1992216901	 0.117413
H	 0.0305224852	-3.8243560662	-0.1756006264	 0.115178
H	 0.1119427296	-2.2894890874	 3.0506090986	 0.310235
