15
gdb 24031	4.51889	1.08954	0.88257	0.5178	79.21	-0.2463	-0.0516	0.1947	1240.815	0.113541	-379.684188	-379.676496	-379.675552	-379.71761	28.417	
C	-0.7054799002	-0.51900841	-1.1991111373	-0.439161
C	-0.2339219875	 0.1792483864	-0.342500659	 0.304871
C	 0.3257085188	 1.0218038412	 0.70609897	-0.451041
C	 1.6076923944	 1.756800557	 0.3495961202	 0.306147
N	 2.1142414392	 2.5279789872	 1.3175147303	-0.28783
C	 3.2376309429	 3.1847581082	 1.03455701	-0.022234
C	 3.8612383526	 3.0791616848	-0.2066569954	-0.01068
N	 3.3634439823	 2.3130841058	-1.1769210634	-0.238397
C	 2.2374932068	 1.6550384419	-0.8929071579	-0.049213
H	-1.1250478639	-1.137115448	-1.9539270653	 0.202412
H	-0.4144816887	 1.7696545636	 1.018334138	 0.159511
H	 0.5217569021	 0.4201893954	 1.6029201349	 0.159509
H	 3.6534315516	 3.8130896942	 1.8183809407	 0.117522
H	 4.7779532132	 3.6221575328	-0.4210410387	 0.117633
H	 1.8188621364	 1.0266431695	-1.6722828572	 0.13095
