15
gdb 18542	3.94269	2.06791	1.63014	3.5219	65.52	-0.2447	0.0024	0.2471	791.1664	0.121378	-362.695397	-362.689105	-362.688161	-362.725858	24.52	
O	-0.0859878301	 0.0416631212	 0.1914848979	-0.357721
C	-0.0442440841	 1.2332136628	 0.0450971066	 0.414518
N	-1.0232015528	 2.18815606	-0.1358986158	-0.327402
C	-0.1033339187	 3.3421298096	-0.006018314	-0.016948
C	-0.0385650196	 3.9928015517	 1.3523086153	-0.085382
C	 0.9834609016	 3.5362928691	 2.0770671262	-0.050784
C	 1.8318536429	 2.5197079111	 1.3455465002	-0.277026
C	 1.0728424357	 2.3102998967	 0.0209604352	-0.182017
H	-2.0129091214	 2.1212331638	 0.0599930036	 0.244583
H	-0.1775765468	 4.0392517793	-0.8454529696	 0.087132
H	-0.7605955141	 4.7313833043	 1.6825682331	 0.098318
H	 1.2086690761	 3.8440667038	 3.0930415213	 0.102567
H	 2.8480038228	 2.8970156631	 1.1769417481	 0.11468
H	 1.9391787539	 1.5845140776	 1.9076799245	 0.133331
H	 1.7065964247	 2.263338516	-0.8643774426	 0.102151
