15
gdb 32718	7.06074	0.77393	0.70061	2.4966	78.13	-0.2164	-0.0327	0.1837	1545.5982	0.112622	-453.971435	-453.962966	-453.962022	-454.007048	28.516	
C	 0.0445428371	 1.3472624823	 0.0066857539	-0.253664
O	 0.0377558036	-0.0809733116	 0.0020701338	-0.180764
C	-1.1628415042	-0.6567846926	 0.0091058636	 0.146908
N	-1.2471695621	-1.9261592246	 0.0054995702	-0.342208
C	-2.5050780648	-2.4707255203	 0.0128156102	 0.472941
N	-3.6846205671	-1.9104780263	 0.0247378898	-0.341368
C	-4.570611832	-2.9738219094	 0.0268363727	-0.112786
C	-3.8745206087	-4.135454908	 0.0160657039	-0.045648
O	-2.5444540904	-3.8264177321	 0.0069745897	-0.172087
H	 1.0928939422	 1.6449166319	-0.001851713	 0.154359
H	-0.4545552636	 1.7470110563	-0.8826885647	 0.139676
H	-0.4382957132	 1.7410666925	 0.9076139548	 0.139699
H	-2.0260703273	 0.0179516161	 0.0172653005	 0.130029
H	-5.6390419722	-2.8255619786	 0.0359798462	 0.121113
H	-4.1281918273	-5.1809495454	 0.0133352785	 0.143802
