17
gdb 130176	3.26007	1.52001	1.05688	2.3357	75.45	-0.1829	0.0558	0.2386	1096.252	0.140605	-414.196943	-414.189177	-414.188232	-414.228952	29.957	
N	-0.0771917749	 1.3875905532	 0.275272015	-0.592273
C	 0.0481912164	 0.0081096512	 0.0926932275	 0.196195
N	-1.036554095	-0.768280436	 0.0725274535	-0.323416
N	-0.5436559973	-2.0553272812	-0.0509463871	-0.352441
C	 0.7983720048	-2.0494328098	-0.0911827481	 0.43061
C	 1.2364454275	-0.7536311526	-0.0008124985	 0.165424
C	 2.7348512346	-0.7408343719	-0.1254322483	-0.369483
C	 3.0577665	-2.2660603794	 0.0388477524	-0.162814
N	 1.7962490924	-3.0033286812	-0.2922364856	-0.41262
H	 0.5528147597	 1.9215785033	-0.3089074189	 0.240696
H	-1.0325344095	 1.6873050976	 0.1235409925	 0.24617
H	-1.1898887289	-2.8227327	-0.0611914019	 0.263289
H	 3.0737426679	-0.3795503864	-1.1060699204	 0.106987
H	 3.2603887117	-0.1495447479	 0.6314144604	 0.111096
H	 3.8664982598	-2.5979194549	-0.6168830751	 0.112027
H	 3.3534184967	-2.4692199674	 1.0762687877	 0.107011
H	 1.6925723043	-3.8627605867	 0.233710495	 0.233541
