14
gdb 68705	2.10377	1.77772	1.18863	5.0134	68.05	-0.2942	-0.0265	0.2677	1034.1191	0.099844	-436.701926	-436.693969	-436.693025	-436.734549	29.119	
C	-0.0970368467	 1.4775503003	 0.0655858192	-0.483525
C	 0.0497673653	-0.0031207824	 0.0372372535	 0.411395
C	 1.1920639545	-0.8410575494	-0.3803483164	-0.353865
C	 0.6207094042	-1.0003030298	 1.0543849354	-0.082123
C	 1.3954983816	-0.8197545526	 2.2302755569	 0.21318
N	 2.0273923236	-0.6581605314	 3.1860578251	-0.341599
C	-0.735264471	-1.6659708667	 0.918716701	 0.447728
O	-1.334686775	-2.5470553643	 1.4312747565	-0.303813
O	-1.1645579809	-0.8027139941	-0.0770479932	-0.285706
H	 0.8607483645	 1.9471030184	 0.3038539016	 0.151364
H	-0.4249470823	 1.841868536	-0.9132342357	 0.155313
H	-0.8351827264	 1.7775294205	 0.8136378402	 0.156928
H	 1.0490081152	-1.6494581381	-1.0893012036	 0.155005
H	 2.1661727734	-0.3623237564	-0.3977053604	 0.159719
