20
gdb 65159	2.58324	1.24647	1.09329	4.0736	83.6	-0.2614	0.0301	0.2914	1212.1428	0.170729	-366.005637	-365.996628	-365.995684	-366.039653	34.383	
C	 0.1244910867	 1.5449787028	-0.0235446179	-0.499579
C	 0.0565657378	 0.0282580224	-0.0186675102	 0.380044
C	 1.125442409	-0.7308901037	-0.7752464131	-0.290439
C	 1.1529221771	-0.7013304829	 0.7316984122	-0.314064
C	-1.3040213749	-0.6195513835	 0.0261447101	-0.073524
C	-2.566117576	 0.1093335426	 0.3738929091	-0.310852
C	-2.383291262	-0.4153547318	-1.0436800026	-0.176762
C	-2.2015795393	 0.4939076533	-2.1382282353	 0.29704
N	-2.0643522096	 1.2136937838	-3.0344900036	-0.351295
H	 1.1663135602	 1.8722432238	-0.08705146	 0.11692
H	-0.4061395462	 1.9811536678	-0.8747149762	 0.150808
H	-0.2950464395	 1.9653675467	 0.8973715963	 0.116363
H	 0.8438403265	-1.6587767402	-1.2618559749	 0.112238
H	 1.8668810644	-0.1550934881	-1.3179324865	 0.118974
H	 1.911589755	-0.1003210242	 1.2215066363	 0.114085
H	 0.8971996062	-1.6097696113	 1.2673085416	 0.110053
H	-1.2685487845	-1.6541397345	 0.357172363	 0.098261
H	-3.3123077842	-0.3815529998	 0.9880665277	 0.128015
H	-2.5156148308	 1.1839687861	 0.4995759085	 0.142104
H	-2.9537974859	-1.2975565894	-1.3147937944	 0.131611
