20
gdb 38830	2.61714	1.92039	1.66504	2.0134	76.05	-0.2186	0.073	0.2917	924.0478	0.175519	-403.128374	-403.121689	-403.120744	-403.159061	28.397	
C	-0.0368787353	 1.3916053191	-0.2759083418	-0.250443
C	 1.2710632515	 0.7138006063	-0.0372378519	-0.030145
C	 2.0307087701	 0.8352328702	 1.2878350311	 0.072416
C	 1.523403357	 1.9242295694	 2.2562787546	-0.231448
C	 0.3580496366	 1.2037314427	 2.982914563	-0.240442
C	 0.469202136	-0.2529902472	 2.4601498739	 0.083997
C	-0.4351255541	-0.59248376	 1.2547934639	-0.166824
N	 0.0089525473	-0.0452542791	-0.0347351748	-0.082998
O	 1.8297262417	-0.3712087173	 2.0371871828	-0.254725
H	-0.4285712433	 2.0514936238	 0.4936186261	 0.109562
H	-0.3212852792	 1.6755394244	-1.286738122	 0.111967
H	 1.9019247798	 0.499439004	-0.8977395439	 0.090901
H	 3.1008529801	 0.9144532496	 1.0863809948	 0.077283
H	 2.3191942295	 2.1715748913	 2.9627932408	 0.107103
H	 1.2298623404	 2.8457180604	 1.7508721373	 0.104187
H	 0.4960215245	 1.2300931454	 4.066048235	 0.107546
H	-0.6201494123	 1.6427402129	 2.7704349758	 0.101904
H	 0.304193855	-0.9923664378	 3.2482193926	 0.079022
H	-0.4322456556	-1.6824425954	 1.1416835678	 0.111936
H	-1.4707707897	-0.2870962027	 1.4436604452	 0.099202
