16
gdb 127819	4.39401	1.06072	0.87037	5.085	77.19	-0.2416	-0.0398	0.2019	1293.5713	0.124582	-434.060558	-434.052107	-434.051162	-434.09412	30.709	
C	 0.0545610365	 1.3791846864	-0.1268491879	-0.341299
N	 0.0209511664	-0.0693395517	-0.1539933631	-0.262594
C	-1.1041317074	-0.6485012662	 0.0053598873	 0.241881
N	-2.3499471358	-0.0448258208	 0.1369507149	-0.565832
C	-1.1675980665	-2.121285036	-0.020535178	 0.42882
C	-2.1940739141	-2.9900912923	-0.26020774	-0.346642
C	-1.5807300278	-4.2622289432	-0.1410145778	 0.030278
N	-0.3058542594	-4.1673513131	 0.1493581791	-0.127375
O	-0.0410734982	-2.8086759248	 0.226835355	-0.193345
H	 1.0930048913	 1.7169330883	-0.1537799365	 0.133573
H	-0.4611512381	 1.8189017464	-0.9941056226	 0.12283
H	-0.407637401	 1.8041085323	 0.7808725627	 0.103949
H	-2.3407602498	 0.9424822099	 0.3417506283	 0.25884
H	-3.0388512896	-0.5547850683	 0.6689394448	 0.255876
H	-3.2130283821	-2.7596337222	-0.5213198921	 0.125447
H	-2.0213770042	-5.2420376246	-0.2590344343	 0.135593
