14
gdb 51992	6.87308	0.67767	0.63175	3.3823	63.14	-0.2885	-0.045	0.2435	1642.9675	0.098141	-511.00043	-510.991237	-510.990293	-511.036188	30.145	
N	-0.1571642188	 1.1242434294	 0.0047643964	-0.408431
C	-0.1324339333	-0.1204495984	 0.1590188002	 0.119048
O	-1.2231575221	-0.8390604509	-0.2914373105	-0.203495
C	-1.2212574726	-2.1903346498	-0.1135800858	 0.455749
O	-0.3456965667	-2.8271189232	 0.3980586033	-0.31864
C	-2.5322277276	-2.7592710111	-0.6364251229	-0.227912
O	-2.4666751138	-4.1608067009	-0.7893247455	-0.163021
C	-2.5248069315	-4.9086418279	 0.3424037079	 0.19293
O	-2.4241240575	-6.094154905	 0.3226656782	-0.260376
H	 0.698156722	 1.5390872022	 0.3720038246	 0.248574
H	 0.634942338	-0.7534223898	 0.6038653307	 0.153804
H	-3.3361111882	-2.4520385502	 0.0470296551	 0.154025
H	-2.7554880741	-2.3347058885	-1.6165857783	 0.172471
H	-2.6972352039	-4.3019562158	 1.2508238167	 0.085275
