19
gdb 83741	2.61377	1.63681	1.35373	2.0502	74.66	-0.2402	0.0731	0.3133	1027.1243	0.159045	-422.98789	-422.979734	-422.97879	-423.020706	31.173	
C	 0.0020930337	 1.5945028463	-0.0363714939	-0.403536
C	 0.0505712756	 0.0859650695	 0.0447348727	-0.044769
C	 1.3107567489	-0.7021649464	-0.1838169938	 0.076207
O	 2.5192141331	 0.0234613569	-0.1748103288	-0.261662
C	 2.9502476956	 0.1971725448	 1.1743267825	-0.146757
C	 1.705688385	 0.0444309699	 2.0471232106	 0.40053
C	 1.748506656	-0.0032292149	 3.5097931578	-0.255261
O	 1.2927062124	 1.1713917098	 2.8338797746	-0.271795
C	 0.7014450028	-0.6819864188	 1.1949185753	-0.197153
H	 0.9687173651	 2.0434043589	 0.1977961766	 0.135323
H	-0.27217441	 1.9074274675	-1.049453626	 0.114155
H	-0.7362036076	 2.0033344523	 0.6593395595	 0.125585
H	-0.8458928606	-0.4099497023	-0.3220877337	 0.086958
H	 1.3296696708	-1.5809485826	-0.8212961962	 0.095488
H	 3.7009712208	-0.5668271125	 1.4278976295	 0.100907
H	 3.4005059823	 1.188056422	 1.2841003655	 0.123398
H	 0.9861837617	-0.5587957343	 4.0555433611	 0.115878
H	 2.7029145418	 0.0946073437	 4.0279324457	 0.113081
H	 0.1836659225	-1.5359858896	 1.6150129509	 0.093423
