23
gdb 122584	3.65363	0.72152	0.63181	2.5424	87.37	-0.2363	-0.0169	0.2193	1850.3128	0.204196	-388.313108	-388.302816	-388.301872	-388.349582	37.068	
C	-0.1128944143	 1.6956827736	-0.009733682	-0.380356
C	-0.0343262201	 0.1726891041	-0.1454341312	-0.165399
C	-1.3901134372	-0.5164854178	 0.039676223	-0.163941
C	-1.3162225344	-2.0423024647	-0.1019565336	-0.21274
C	-2.6619880545	-2.7309778108	 0.1124309635	-0.086442
C	-2.760235294	-4.2919807655	 0.0940361447	-0.260585
C	-3.6106968041	-4.2704190953	 1.3997638359	-0.331812
C	-3.2311371455	-2.7876883716	 1.5442744176	 0.393061
O	-3.2512517898	-2.0107495074	 2.4563979615	-0.298637
H	 0.8694243005	 2.1606078312	-0.1399676955	 0.109428
H	-0.7866776987	 2.1259757055	-0.7592148661	 0.111909
H	-0.4910597784	 1.984481445	 0.9770406142	 0.118048
H	 0.3756135234	-0.088073537	-1.1306882554	 0.090016
H	 0.675868019	-0.2242643855	 0.5921039819	 0.095251
H	-1.8009383527	-0.2704550688	 1.0257209216	 0.126149
H	-2.1026254569	-0.1193671265	-0.6974169456	 0.086801
H	-0.9349455093	-2.3070544488	-1.0975946219	 0.096212
H	-0.591024624	-2.4422896199	 0.6198239603	 0.095924
H	-3.4194390743	-2.2922481239	-0.5517321583	 0.098318
H	-3.2326920331	-4.7338594941	-0.7840003	 0.107204
H	-1.7850916915	-4.7620271591	 0.2445165042	 0.112282
H	-4.684238269	-4.3949583499	 1.2233522681	 0.131169
H	-3.3177684311	-4.9250195028	 2.2242266232	 0.128138
