19
gdb 90920	3.33608	1.47045	1.36968	0.8023	75.89	-0.244	0.0322	0.2763	1023.0242	0.159227	-422.896764	-422.889259	-422.888314	-422.92825	30.572	
C	 0.0489209109	 1.5992552998	-0.0404557909	-0.416823
C	-0.0059705487	 0.0919429558	 0.0296577842	 0.024495
O	 0.9177311505	-0.5876654685	-0.9430443331	-0.343163
C	 0.9296658631	-1.7072413633	 0.0343349746	 0.115756
C	 1.7432810853	-2.4490734934	 1.1777388755	-0.006407
C	 2.9110270054	-1.5518057705	 1.5597039552	-0.213918
C	 2.127078963	-0.2108702703	 1.530867885	-0.236217
C	 0.7386456166	-0.7510858211	 1.1193588139	 0.314808
O	 0.634006006	-1.9414478784	 2.0524520138	-0.368218
H	 1.0491893446	 1.9863125851	 0.1601570776	 0.13148
H	-0.2558553443	 1.9338485774	-1.0370190882	 0.136784
H	-0.6477885023	 2.026789384	 0.6880546118	 0.128975
H	-1.0246517295	-0.2759941909	-0.1420184204	 0.097329
H	 0.0455396033	-2.319844438	-0.1622797649	 0.098823
H	 1.8348191496	-3.5350857282	 1.2110548087	 0.09013
H	 3.3008611337	-1.8038449245	 2.5479198887	 0.110979
H	 3.7290910207	-1.5961620421	 0.835558689	 0.108983
H	 2.0662377028	 0.2690482163	 2.510389905	 0.10775
H	 2.5383534993	 0.4964500109	 0.8113057445	 0.118453
