19
gdb 63126	2.28315	1.5667	1.18323	4.4623	78.38	-0.2393	-0.0274	0.2119	1120.5903	0.157008	-422.996108	-422.98714	-422.986196	-423.029375	33.754	
C	-0.0182743461	 1.5396719652	 0.0132514531	-0.461167
C	 0.0220547362	 0.0235894952	-0.0123532467	 0.244776
C	-1.2049253453	-0.61576007	-0.6430759977	-0.465554
C	 1.2953285954	-0.7500784677	-0.2404527315	-0.215364
C	 2.4804814508	-0.0913930203	 0.452670353	-0.113741
O	 1.7523875076	 0.0206321991	 1.7033224283	-0.300505
C	 0.6606088671	-0.7172176397	 1.1653196996	 0.336802
C	 0.0344383769	-1.7657057019	 1.9835925878	 0.053727
O	 0.3271683601	-1.9970858545	 3.1315813308	-0.264999
H	 0.7804149367	 1.9551977302	 0.6287875783	 0.145863
H	 0.0670397062	 1.9451613238	-1.0010715865	 0.118289
H	-0.9708925663	 1.8829502625	 0.430253709	 0.123601
H	-1.3252049838	-0.2474290136	-1.668044228	 0.126837
H	-1.1322113034	-1.7057438671	-0.6945179728	 0.121997
H	-2.1142767558	-0.3612486065	-0.0892680702	 0.129986
H	 1.352406698	-1.5815936204	-0.9316090314	 0.109635
H	 3.3393845511	-0.7602630132	 0.5712880856	 0.12268
H	 2.8144706446	 0.8807270826	 0.0737151297	 0.112603
H	-0.7563339602	-2.3413678138	 1.4560674897	 0.074532
