20
gdb 80060	2.55513	1.94486	1.51481	0.6133	83.98	-0.2008	0.0118	0.2126	972.0488	0.171308	-365.972583	-365.964669	-365.963725	-366.004291	32.084	
C	-0.0662976506	 1.5306645072	 0.0645787698	-0.334123
N	 0.1040202872	 0.084714738	 0.027147644	-0.112428
C	 1.1242220828	-0.5862547516	-0.8919767098	-0.05152
C	 2.3441287383	 0.291818789	-1.0150833735	-0.118197
C	 2.9487564162	 0.3383176223	 0.1838200955	-0.07512
C	 2.2847805959	-0.5973388181	 1.1157985269	-0.144272
C	 1.4370307506	-1.5445798667	 0.3003169936	-0.172418
C	 0.6796949627	-0.5917850723	 1.1615870275	 0.372665
C	-0.0612817226	-0.7494982083	 2.4545562013	-0.498052
H	 0.8355892424	 2.0889882213	 0.356298711	 0.103157
H	-0.3904040974	 1.8835666901	-0.9200082594	 0.115171
H	-0.8615567816	 1.7661267774	 0.7801340386	 0.116782
H	 0.6724817874	-0.9702072001	-1.8069794934	 0.069152
H	 2.5517315272	 0.9272659066	-1.8669084484	 0.092828
H	 3.7577013883	 0.9996042321	 0.4711442721	 0.094837
H	 2.7676258651	-0.9466016645	 2.0211178568	 0.077681
H	 1.4876153981	-2.6266202679	 0.2967843623	 0.089742
H	 0.4835271117	-1.4119716998	 3.1336518141	 0.121849
H	-0.1873746516	 0.2130681132	 2.9630454934	 0.124534
H	-1.05624043	-1.1737735077	 2.2820808576	 0.127732
