23
gdb 85889	1.84745	1.49077	1.03424	2.9885	86.39	-0.2404	-0.0203	0.2201	1297.1398	0.203308	-388.30102	-388.290779	-388.289835	-388.335998	38.481	
C	-0.983181174	 0.527227649	-1.3891009173	-0.423173
C	 0.1625815716	-0.3105849832	-0.8349624577	 0.033179
C	 1.6016199215	-0.0763218586	-1.3606716183	-0.276334
C	 2.1529645256	-0.2962252604	 0.0800114143	 0.320373
C	 2.5969267095	-1.7434901974	 0.3109271867	-0.431634
C	 3.2401481217	 0.6672899973	 0.5535702058	-0.457223
C	 0.6814360181	-0.0824913674	 0.6334693261	-0.142005
C	 0.4088329024	 1.2863051656	 1.1878544759	 0.154475
O	-0.0494337238	 1.4988439823	 2.2838393573	-0.263483
H	-0.7597711652	 1.5985831106	-1.3699555457	 0.117314
H	-1.1845581941	 0.2546479045	-2.4308565638	 0.118762
H	-1.9053394845	 0.3676967373	-0.8197158856	 0.125326
H	-0.0996829834	-1.3686034814	-0.9313147507	 0.085665
H	 1.9705686559	-0.745899885	-2.1431863161	 0.09537
H	 1.7454808738	 0.9567006935	-1.6959827961	 0.094456
H	 3.5185862145	-1.9536040811	-0.2439793913	 0.114385
H	 2.793834724	-1.9281750472	 1.3726940533	 0.119473
H	 1.8389549494	-2.4616133316	-0.0176428035	 0.115029
H	 2.9817148757	 1.7128230214	 0.3627386891	 0.113287
H	 3.4277916589	 0.5581846885	 1.6277913797	 0.123806
H	 4.1813113657	 0.4619311146	 0.0305160746	 0.115205
H	 0.3526538635	-0.8109345851	 1.3789558584	 0.077722
H	 0.6595579232	 2.1367959035	 0.5135881347	 0.070026
