19
gdb 73882	2.37197	1.5651	1.10834	4.0376	85.67	-0.2356	-0.0509	0.1847	1143.1724	0.159876	-385.885286	-385.87726	-385.876316	-385.917866	30.874	
C	-0.0336683715	 1.4626229737	 0.0736384514	-0.521121
C	 0.0088657042	-0.0217577908	-0.004474739	 0.249867
C	 0.0033542409	-0.8810856723	-1.0515187131	 0.16406
C	-0.0474566298	-0.6154651023	-2.4742844098	 0.02763
O	-0.0475240501	-1.4719471267	-3.3375553993	-0.28966
C	 0.0651965162	-2.2590412788	-0.3804068625	-0.118461
C	-0.9732438345	-2.0488268023	 0.771282458	-0.213784
C	 0.0735924621	-0.9610909093	 1.2039852019	-0.113275
C	 1.156308363	-1.9844440975	 0.7072564019	-0.213783
H	 0.8490649589	 1.8476977907	 0.6002127795	 0.141049
H	-0.0773643636	 1.9332916949	-0.9107319025	 0.138794
H	-0.9049917016	 1.7946700663	 0.6527110427	 0.141053
H	-0.0882714131	 0.4624828889	-2.7483782087	 0.056789
H	 0.0722711396	-3.1343200404	-1.0252600179	 0.088751
H	-1.974296013	-1.7079152922	 0.4966146848	 0.098135
H	-1.0259320765	-2.8876918734	 1.4714777828	 0.100425
H	 0.0901892619	-0.5190708583	 2.2004855705	 0.06497
H	 1.3014622702	-2.8173264198	 1.4015054452	 0.100425
H	 2.1166651666	-1.5842343606	 0.3736171642	 0.098136
