15
gdb 70166	2.66822	1.71407	1.17599	4.5511	65.94	-0.2404	-0.0921	0.1482	1017.4454	0.110834	-457.783443	-457.775417	-457.774473	-457.816181	29.535	
C	-0.3119407546	 1.5161314622	 0.1059992284	-0.494508
C	 0.1359699751	 0.0925638104	-0.0081829842	 0.282228
O	-0.6392339794	-0.9300837335	 0.6717527621	-0.280333
C	 0.7193078746	-0.7473160219	 1.0657617798	-0.030032
C	 1.6105733024	-1.8461020179	 0.524578711	-0.3646
C	 1.3601527662	-1.8113958571	-0.985236421	 0.31523
O	 1.7261794566	-2.6044774302	-1.805520709	-0.26894
C	 0.593547635	-0.4903074632	-1.3187489112	 0.284289
O	 0.4532890114	-0.0285135265	-2.4180310679	-0.284325
H	 0.5035055466	 2.195990721	-0.1587483228	 0.139711
H	-1.1405770456	 1.7064570102	-0.5820477814	 0.153454
H	-0.6403770887	 1.7342271464	 1.1248940584	 0.136051
H	 0.8692537049	-0.3382791799	 2.0617122323	 0.114396
H	 2.6724128069	-1.6493023465	 0.7174069716	 0.143269
H	 1.3704421787	-2.8274092035	 0.9430124038	 0.154109
