18
gdb 100359	2.12333	1.30738	1.16049	5.9325	73.44	-0.2593	0.009	0.2683	1179.5931	0.147164	-435.298701	-435.288838	-435.287894	-435.333388	35.475	
C	 0.0473532689	 1.572007857	-0.0292380909	-0.42238
C	 0.0377079037	 0.0340358194	-0.0538901598	 0.100826
C	 0.7503003407	-0.520897107	 1.2090261682	-0.185612
N	 0.6068035862	-1.9724192161	 1.2823424602	-0.526719
N	-1.3137788726	-0.5181704909	-0.0458755274	-0.287188
C	-2.2700199825	-0.2311966113	-0.976540349	 0.167651
O	-2.1959318489	 0.6249774123	-1.8300814714	-0.320129
C	 0.7871296591	-0.4564607347	-1.2387585787	 0.301272
N	 1.4093081499	-0.8776778019	-2.1171079975	-0.347125
H	 1.0758047718	 1.9363247356	 0.0439166175	 0.128049
H	-0.4171191003	 1.9683357685	-0.9301689958	 0.17941
H	-0.5164940104	 1.9170655188	 0.8417934742	 0.125888
H	 1.7882145259	-0.1595746279	 1.1979381043	 0.115843
H	 0.2499498272	-0.0819563081	 2.0779779305	 0.12226
H	 1.2157696567	-2.4243384411	 0.6061435549	 0.254133
H	 0.8709603533	-2.3117656352	 2.2000157562	 0.245652
H	-1.3714242054	-1.4023104098	 0.4483685762	 0.260285
H	-3.1623783632	-0.8744231879	-0.8436046619	 0.087884
