19
gdb 62260	3.44916	0.75248	0.64593	6.1208	74.95	-0.2422	0.0161	0.2582	1685.1701	0.158325	-456.391154	-456.380761	-456.379817	-456.428422	35.001	
C	 0.4816401532	 1.209974603	 0.0576596926	-0.350254
N	-0.0974854134	-0.1220315474	 0.0144445293	-0.028859
C	-0.3309322957	-0.8337338409	 1.2539164176	-0.180581
C	-1.5588147387	-0.3120940488	 2.0287608376	-0.167732
N	-1.7544092092	-1.0163220342	 3.2860155672	-0.265615
C	-2.2594461457	-2.2775711056	 3.3311901982	 0.15303
O	-2.5703480815	-2.9268891931	 2.3544076673	-0.321251
C	-0.3789791679	-0.696147538	-1.194537172	 0.148865
O	-0.2146815315	-0.1736134741	-2.2762530542	-0.340428
H	 1.4300326645	 1.1991201446	 0.6083864885	 0.122944
H	 0.6594548219	 1.5252551626	-0.9706207208	 0.172654
H	-0.1893387748	 1.9319299358	 0.5376741426	 0.123801
H	-0.5005873189	-1.8897722981	 1.0294204949	 0.151272
H	 0.5604799701	-0.7675651388	 1.8918029745	 0.102826
H	-1.455717147	 0.7534338178	 2.2489776687	 0.112146
H	-2.4490862704	-0.4461924696	 1.4066413529	 0.144284
H	-1.5113740807	-0.5640088064	 4.1519055858	 0.253699
H	-2.3614657113	-2.651252569	 4.3690413241	 0.082321
H	-0.7828337329	-1.7197469196	-1.0741228749	 0.086878
