18
gdb 90936	3.06982	1.48425	1.42149	1.7069	70.83	-0.2177	0.067	0.2848	1000.8904	0.148123	-439.02372	-439.016042	-439.015098	-439.055405	30.766	
C	-0.0024203217	 1.5727410617	-0.0327052844	-0.404947
C	 0.0396185048	 0.0580680337	 0.0464111521	 0.168189
O	 0.774799302	-0.4567509987	-1.089118587	-0.280679
C	 1.4929465106	-1.576487787	-0.6406134851	 0.023982
C	 2.5269362348	-1.391422438	 0.4818479775	-0.123162
N	 2.2331323128	-0.1012751491	 1.1390773252	-0.316451
C	 0.7857942672	-0.5389021799	 1.2410041906	-0.150958
C	 1.1573486925	-1.9805785749	 0.754321405	 0.314003
O	 0.7365847459	-3.1959058342	 1.2482955089	-0.462197
H	 1.0092978333	 1.9726060992	 0.0579350136	 0.145901
H	-0.429325816	 1.890353025	-0.9879340236	 0.123052
H	-0.6247485268	 1.979245506	 0.7715733068	 0.105512
H	-0.9840280233	-0.3555390978	 0.0232845527	 0.059107
H	 1.7096695688	-2.3114926415	-1.4075762534	 0.105887
H	 3.5213928834	-1.8211852229	 0.443063403	 0.098399
H	 2.635148656	-0.1282765626	 2.0736901651	 0.222948
H	 0.3174455751	-0.4064513619	 2.2155926925	 0.0827
H	 0.0080890106	-3.5158721871	 0.7038328107	 0.288715
