23
gdb 60593	3.46375	0.92388	0.85246	1.5078	86.03	-0.2576	0.0724	0.33	1482.2027	0.205794	-388.264198	-388.254579	-388.253635	-388.2992	36.151	
O	-0.2342092782	 1.5254511623	 0.0405597036	-0.435798
C	-0.0484816252	 0.1096849053	-0.0334641984	 0.071644
C	 0.6855135948	-0.2954478441	-1.2946121301	-0.001327
C	 0.3148259987	-1.5652853636	-2.0205385357	-0.265745
C	-0.0105570282	-0.2243503294	-2.6283826148	-0.274335
C	 0.6257087673	-0.4392109997	 1.2251329277	 0.05938
C	 1.9897487557	 0.156095462	 1.6873622309	-0.232382
C	 1.4875127445	 0.0612556058	 3.1531210261	-0.210045
C	 0.0379571864	-0.0535302095	 2.6105199714	-0.242746
H	 0.592282959	 1.9435004935	-0.2207080756	 0.278382
H	-1.0690410618	-0.2958418087	-0.0783263728	 0.075438
H	 1.7454842092	-0.0451803549	-1.2885584049	 0.079427
H	 1.1093670222	-2.1560908437	-2.4625456831	 0.111013
H	-0.5050537569	-2.1545122651	-1.6225331864	 0.112997
H	-1.0470611382	 0.0956961158	-2.6320070123	 0.120407
H	 0.5579920993	 0.1011644035	-3.4925005147	 0.109498
H	 0.7049808285	-1.5279621646	 1.1285450636	 0.068433
H	 2.9025681375	-0.3824532106	 1.4210179229	 0.092573
H	 2.0967185759	 1.200751274	 1.3765219079	 0.085129
H	 1.8177541521	-0.8650065071	 3.6324516907	 0.09897
H	 1.7154208486	 0.8959967241	 3.8202909641	 0.094545
H	-0.4502776923	 0.922687371	 2.5542330214	 0.116196
H	-0.6360910889	-0.7649233363	 3.0943833085	 0.088344
