19
gdb 27526	4.79254	0.9888	0.85736	2.2186	85.11	-0.1775	0.0497	0.2272	1375.2734	0.160096	-382.07701	-382.068267	-382.067323	-382.110935	32.674	
C	 0.1953505647	 1.502621196	-0.0428750088	-0.502094
C	 0.0541679495	 0.0159397056	-0.0351403999	 0.341428
C	 0.1622136186	-0.9043923912	-1.0549330891	-0.331057
C	-0.0543383635	-2.2010414449	-0.4993126627	 0.284397
C	-0.2889382471	-2.0359032049	 0.8483167226	-0.181846
N	-0.2252780628	-0.6822655346	 1.1121337691	-0.303295
N	-0.1067017356	-3.4046858762	-1.2322978715	-0.146985
C	 1.1246283065	-3.9095230203	-1.8362317682	-0.222353
C	 0.5105069085	-4.5950484828	-0.6643222798	-0.224883
H	 1.0191619965	 1.8455422037	 0.5961700887	 0.123774
H	 0.3994469378	 1.8511362394	-1.0577474834	 0.137279
H	-0.7161310077	 2.0070045261	 0.3021897918	 0.124947
H	 0.3689166022	-0.6806652186	-2.090506933	 0.086804
H	-0.5200591267	-2.7516757062	 1.6194382189	 0.108557
H	-0.3547039953	-0.2686741828	 2.0183999068	 0.253128
H	 1.0214771538	-4.324134646	-2.8348898541	 0.113367
H	 2.0392543062	-3.348318765	-1.6581025205	 0.115179
H	 1.0228085943	-4.4901540386	 0.2901222963	 0.110399
H	-0.0423742898	-5.5212883887	-0.7925121432	 0.113254
