15
gdb 128044	6.88931	0.79758	0.72071	4.879	72.57	-0.2445	-0.0068	0.2377	1512.7537	0.11362	-450.140214	-450.132011	-450.131067	-450.174277	28.556	
C	-0.00998491	 1.3738112274	-0.0330014669	-0.31701
N	-0.0573448457	-0.0362678664	-0.362574995	-0.192669
C	-1.0873253734	-0.6683675074	-0.0326355617	 0.115875
O	-1.1442208283	-2.0138576998	-0.2896771936	-0.220137
C	-2.3213975307	-2.6442722418	-0.1251222042	 0.456791
N	-3.4911315691	-2.0330169866	-0.0187924551	-0.310173
N	-4.3293755693	-3.0978039407	 0.114642206	-0.185779
C	-3.6350526275	-4.2475525894	 0.0681063095	 0.03318
N	-2.3474264211	-3.9992662481	-0.0818815705	-0.319566
H	 0.8551541603	 1.5661429702	 0.6110705262	 0.133651
H	 0.1401103335	 1.9544262989	-0.9496973568	 0.133596
H	-0.9128544106	 1.7484263884	 0.4744562897	 0.102426
H	-1.9756235505	-0.2726432482	 0.4683749223	 0.125495
H	-5.3189576996	-2.9435049476	 0.2130576578	 0.287373
H	-4.0923342179	-5.222241209	 0.146229372	 0.156946
