15
gdb 19135	3.37122	1.80168	1.35873	3.9039	65.52	-0.2953	0.0031	0.2984	908.1217	0.118427	-362.634998	-362.627577	-362.626632	-362.666891	27.334	
N	-0.2633837269	-1.1756879111	 0.7309032654	-0.327261
C	-0.173701458	-0.0686147324	 0.4120575625	 0.263239
C	-0.107925607	 1.3302049712	 0.0117122807	 0.237609
C	 0.7189886603	 2.2390756831	 0.8345261988	-0.203859
O	 1.183903696	 1.7586794513	-0.4270092817	-0.247697
C	-1.2896279071	 1.8158455899	-0.7762380299	-0.083623
C	-1.1475009444	 3.0182032932	-1.6718485367	-0.279962
C	-1.3000883081	 1.6444133456	-2.275180111	-0.255734
H	 0.4437367378	 3.291230256	 0.8618304024	 0.133089
H	 1.246399593	 1.8524976297	 1.7034394602	 0.141654
H	-2.2342610409	 1.6820902059	-0.257837103	 0.108995
H	-1.9820163795	 3.7076058976	-1.7237577103	 0.119527
H	-0.1669316753	 3.4747302613	-1.7375476922	 0.134688
H	-0.4200743665	 1.205988191	-2.7321730299	 0.135063
H	-2.2380056534	 1.3794926677	-2.7486521153	 0.124272
