15
gdb 67366	3.03129	1.9374	1.35976	4.0524	66.31	-0.2398	0.0032	0.243	897.6916	0.113578	-453.876132	-453.869414	-453.86847	-453.906853	27.707	
O	 0.1037316008	 1.3879067932	-0.0243080985	-0.48038
C	 0.0439915137	 0.0265664721	-0.0021157957	 0.382359
C	 0.0147349043	-0.8305630416	 1.319131718	 0.007151
O	-1.4116297785	-0.5682707479	 1.5259677331	-0.314534
C	-1.3069796224	-0.8040287671	 0.0876832931	-0.014412
C	-0.3182302684	-1.9901961861	 0.3427473415	-0.048786
N	 0.7355846746	-2.0455346697	-0.6657383033	-0.358893
C	 0.9180865982	-0.7016649909	-0.9935990978	 0.317845
N	 1.5939344853	-0.0846997379	-1.8720117898	-0.577291
H	 0.6989964424	 1.6082819793	-0.7603022912	 0.300287
H	 0.6818148105	-0.8085496652	 2.1806897884	 0.106811
H	-2.2133876881	-0.7388181815	-0.5152784422	 0.102213
H	-0.6821792189	-2.9356292475	 0.7324411057	 0.110307
H	 0.6762013798	-2.7259546768	-1.4105887573	 0.247035
H	 2.1215470965	-0.7017178024	-2.4892147339	 0.220287
