14
gdb 123974	3.86196	1.61007	1.14425	1.0188	68.71	-0.2271	-0.0148	0.2123	972.4902	0.104538	-432.872602	-432.865939	-432.864995	-432.904796	25.191	
C	 0.0266893131	 1.5242088541	-0.061095354	-0.284489
N	 1.3762400921	 2.0754704462	 0.1093481848	-0.255265
C	 2.3753413699	 1.3080752317	 0.2692594147	 0.090103
N	 2.3813997869	-0.0815391832	 0.3099570158	-0.422957
C	 1.1798515062	-0.7315591671	 0.1629664418	 0.461309
N	 0.9975400504	-2.0279997417	 0.1751914406	-0.263227
O	-0.3850939173	-2.1749739399	-0.0113003216	-0.177583
C	-0.9475570433	-0.9566455441	-0.123955155	-0.027473
C	-0.0143191434	 0.0201036365	-0.0234039348	 0.070239
H	-0.6100404655	 1.9593438784	 0.7207402043	 0.131021
H	-0.3711549159	 1.9094755325	-1.0094246711	 0.131022
H	 3.3650267527	 1.7459449047	 0.3932783064	 0.123907
H	 3.2347795679	-0.5976607108	 0.4427421783	 0.270429
H	-2.016729244	-0.9522581273	-0.2715413301	 0.152966
