19
gdb 83319	2.17543	1.73341	1.43614	2.6709	74.45	-0.2298	-0.0155	0.2143	1019.5	0.159316	-423.03366	-423.025116	-423.024172	-423.066331	32.862	
C	 0.012020927	 1.541606345	 0.0173916417	-0.503817
C	 0.034580004	 0.0356685402	 0.0481627349	 0.161813
C	 0.4863341832	-0.7417326976	-1.2146266791	-0.280784
C	 0.314588009	-2.2254729891	-0.723105062	-0.253371
C	-0.1928041458	-1.9727639006	 0.7148885465	-0.191692
C	 0.7481805181	-0.8040218923	 1.181972092	 0.124416
O	 2.1384546772	-0.9565816715	 1.1803620133	-0.443436
C	-1.1790727473	-0.8225763388	 0.4512629208	 0.40963
O	-2.3460195583	-0.6235747523	 0.6230919674	-0.325614
H	 1.0227045314	 1.9463186398	-0.1044668067	 0.124528
H	-0.5995880967	 1.9090864676	-0.8134027214	 0.127355
H	-0.4072814256	 1.9486336362	 0.9426700742	 0.12793
H	-0.1395975469	-0.5098610237	-2.0800125205	 0.117779
H	 1.5186952604	-0.4976647674	-1.4879929725	 0.101369
H	-0.4055940544	-2.786646587	-1.3224610407	 0.121423
H	 1.252289392	-2.7906895228	-0.7330244463	 0.103369
H	-0.4342393391	-2.8266627465	 1.3434182199	 0.08604
H	 0.4830141522	-0.4393656927	 2.1765936831	 0.104982
H	 2.4191631696	-1.3210211964	 0.3350907353	 0.288078
