16
gdb 5714	4.77131	2.00481	1.4508	1.4716	71.36	-0.1704	0.0509	0.2213	837.2971	0.134957	-342.811365	-342.804962	-342.804018	-342.841539	25.673	
C	 0.011550424	 1.43909057	 0.101179761	-0.1612
C	 1.4702122463	 1.934046345	-0.1355973742	-0.353423
C	 2.2322713042	 0.6442761168	-0.0169250795	 0.266401
C	 3.4931789798	 0.1165706528	 0.1017648715	-0.239977
N	 3.3595118668	-1.2520266022	 0.0673982814	-0.243755
C	 2.0237853587	-1.6141962321	-0.0726336369	-0.238258
C	 1.3223623672	-0.4366056119	-0.1295445859	 0.271297
N	 0.0041168994	 0.0182011849	-0.3340706998	-0.409115
H	-0.2299635211	 1.5286524891	 1.1715132724	 0.091975
H	-0.7270202893	 2.0165368637	-0.4622503959	 0.100352
H	 1.5689848284	 2.3709253725	-1.1380891263	 0.111071
H	 1.7499288158	 2.7084527518	 0.5845159061	 0.104946
H	 4.4633737597	 0.574217468	 0.2111002637	 0.113297
H	 4.1132331854	-1.902859929	 0.1933014363	 0.254676
H	 1.7283774964	-2.649124826	-0.1103445249	 0.106765
H	-0.7140924016	-0.5290653934	 0.1227520109	 0.224947
