23
gdb 118084	2.70415	0.84889	0.7929	2.6076	81.83	-0.2585	0.0786	0.3371	1586.0888	0.202762	-425.407235	-425.396241	-425.395297	-425.443781	39.646	
C	-0.1931112454	 1.7321293454	-0.242170036	-0.407591
C	-0.0542435223	 0.2059451173	-0.1167049468	-0.041007
C	-1.403200783	-0.5084607237	 0.0882354348	-0.179421
C	-2.0480721853	-0.2403745573	 1.4431885908	-0.086566
O	-3.2459113191	-1.0014572434	 1.5037617422	-0.420902
C	 0.6990507527	-0.3866330359	-1.3069535754	 0.431681
C	 0.0652437966	-0.2857443051	-2.6786621449	-0.47235
C	 2.1592281418	-0.5370598131	-1.2062276391	-0.237172
O	 1.29701863	-1.6646809971	-1.0307666067	-0.286697
H	 0.7754403863	 2.199863982	-0.4476697617	 0.114038
H	-0.8777583063	 2.0080032168	-1.0514088289	 0.119516
H	-0.5824196469	 2.1732255763	 0.6796410336	 0.118368
H	 0.5701521979	-0.00983015	 0.7604154955	 0.075465
H	-2.1156615968	-0.2180002293	-0.6932529758	 0.102266
H	-1.2523012558	-1.5898856071	-0.0013348915	 0.123061
H	-1.3508485422	-0.5295234987	 2.2471377142	 0.085469
H	-2.2602212114	 0.8332066537	 1.566004869	 0.083743
H	-3.6638065531	-0.8365950012	 2.3538750633	 0.284515
H	-0.0761321855	 0.7578355768	-2.9772634428	 0.121854
H	 0.7001418108	-0.7738573003	-3.4218833855	 0.126107
H	-0.9123283395	-0.7770034435	-2.6961747782	 0.132418
H	 2.7672096065	-0.5501608807	-2.1104925327	 0.107456
H	 2.6791737202	-0.2026112419	-0.3085994173	 0.105748
