20
gdb 82848	3.07213	1.72394	1.67119	1.4496	76.65	-0.2078	0.0812	0.289	928.1398	0.17458	-403.140034	-403.133284	-403.13234	-403.170741	28.597	
C	-0.3106261192	 1.511799168	-0.0332352877	-0.331995
N	 0.0834164999	 0.1214593279	 0.0108787226	-0.060028
C	 1.0478561197	-0.45228104	-0.946652462	-0.042552
C	 2.3992094435	 0.304164579	-1.0318419258	-0.234126
C	 3.0466246718	-0.1451604009	 0.2984198685	 0.059264
C	 2.1568202947	 0.3150644535	 1.4761624881	-0.234125
C	 0.8461608779	-0.4432120568	 1.1402822851	-0.042552
C	 1.4092841172	-1.5199639152	 0.1461522599	 0.095279
O	 2.8085776597	-1.5632934317	 0.281577014	-0.2542
H	 0.5141845632	 2.2417041363	 0.0432373076	 0.093436
H	-0.8376037732	 1.7067581675	-0.9737613059	 0.120392
H	-1.0076716692	 1.7144264697	 0.7873572971	 0.120393
H	 0.6279516602	-0.7433268015	-1.9127790692	 0.068446
H	 2.9938286025	-0.0585237998	-1.8754149428	 0.105629
H	 2.2861484514	 1.3869682223	-1.1266927997	 0.100184
H	 4.1153783507	 0.0429820744	 0.400893496	 0.075042
H	 2.5785903051	-0.0398448428	 2.42108553	 0.105629
H	 2.0285831936	 1.3985498801	 1.5382732283	 0.100183
H	 0.2487716605	-0.7262765938	 2.0105861061	 0.068446
H	 0.9694432001	-2.5120754362	 0.1079538399	 0.087255
