17
gdb 44853	3.25862	1.64385	1.4762	1.8757	69.89	-0.2407	-0.0187	0.2221	918.217	0.138597	-421.838423	-421.832052	-421.831108	-421.869049	26.614	
O	 0.015116948	 0.0276600565	 0.0468637421	-0.323128
C	-0.0020454933	 1.2283752669	 0.0256708128	 0.426044
C	-1.2564097527	 2.1362283756	 0.0211789525	-0.329375
C	-0.6320395018	 3.5525398414	 0.0367464328	-0.080102
C	 0.6200896218	 3.3382017213	-0.8496170427	-0.240798
C	 1.2066280291	 2.1855935743	-0.0019875688	-0.166233
C	 1.1734812481	 2.7979058398	 1.4092934357	 0.038041
O	 1.3186459805	 4.2218036532	 1.4680793236	-0.256404
C	-0.0043785921	 3.6772013319	 1.4302139982	 0.05495
H	-1.8374043129	 1.9462749622	-0.887497194	 0.130935
H	-1.9009835404	 1.9094535449	 0.8760504915	 0.126693
H	-1.3015442646	 4.3598400677	-0.2610186948	 0.077073
H	 0.3643427274	 3.0244064349	-1.8649159821	 0.103929
H	 1.2739004627	 4.2075067618	-0.8847367075	 0.131105
H	 2.138289939	 1.7199064065	-0.3171032545	 0.086637
H	 1.5344568475	 2.2421619955	 2.2682204119	 0.115289
H	-0.6155350961	 3.8406104056	 2.3130939833	 0.105346
