18
gdb 36283	4.0675	1.06291	1.00427	3.9884	80.15	-0.2392	0.0022	0.2414	1212.174	0.149612	-364.791174	-364.783736	-364.782792	-364.823553	29.347	
N	 0.041598365	-1.1482117678	-0.0401277311	-0.310444
C	 0.0027759483	-0.0023480103	 0.1055499002	 0.265608
C	-0.0179649357	 1.4497697337	 0.2796870833	-0.393314
C	 1.3780964904	 2.0654226355	 0.0885963724	 0.054726
C	 1.9753543875	 2.1415003538	-1.3694680376	-0.077732
C	 1.0872980744	 3.4179280105	-1.5710086208	-0.22113
C	 1.466757699	 3.633174554	-0.0647608903	-0.095169
C	 2.989494426	 3.7790810989	-0.1938215068	-0.089603
C	 3.3210720363	 2.8047378006	-1.0468472267	-0.081786
H	-0.7552949822	 1.8678632808	-0.4115451718	 0.151202
H	-0.3775581872	 1.6702182968	 1.2921439183	 0.152587
H	 2.0578933418	 1.6409657535	 0.8312180113	 0.089945
H	 1.9529762659	 1.291334683	-2.0500093767	 0.080457
H	 1.4503722905	 4.1636103062	-2.2803901149	 0.102977
H	 0.0287956407	 3.213073648	-1.7519955613	 0.095443
H	 0.9244482488	 4.3151219026	 0.5905202158	 0.064043
H	 3.6071615213	 4.5062051713	 0.3132431952	 0.10517
H	 4.2867882591	 2.5111626391	-1.4321318984	 0.107021
