20
gdb 47501	2.65515	1.4292	1.08983	2.477	79.05	-0.2118	-0.0147	0.1971	1156.6868	0.172781	-403.156439	-403.1483	-403.147356	-403.189219	32.046	
O	 0.0296328358	-0.071456077	-0.0114688684	-0.30497
C	-0.0067592991	 1.1365305769	-0.0351005836	 0.379034
C	-1.3199751125	 1.924906052	-0.0505733294	-0.259036
N	-1.3535899911	 3.0016137813	-1.0475641272	-0.282451
C	-0.185445546	 3.8808779939	-0.9501665132	-0.249656
C	 1.1354302899	 3.1347303924	-1.0692404483	 0.361811
C	 1.709410097	 2.9172893153	-2.4503555165	-0.304086
C	 2.3767281303	 3.8737399836	-1.4875288781	-0.324819
C	 1.2483686808	 2.0046937143	-0.0503733364	-0.380541
H	-2.1458361465	 1.2295459792	-0.2180758985	 0.124513
H	-1.459524899	 2.3751598792	 0.9439834181	 0.119414
H	-1.37246531	 2.5853258723	-1.9747752274	 0.223049
H	-0.2619214708	 4.6509263295	-1.725238743	 0.101422
H	-0.2367211976	 4.3964256097	 0.019776558	 0.104149
H	 2.2054991716	 1.9753097625	-2.658999359	 0.120172
H	 1.1822905829	 3.3378753541	-3.3013213121	 0.11018
H	 2.2955471255	 4.9375381343	-1.6875198585	 0.113787
H	 3.322984944	 3.5771467393	-1.0467489438	 0.114114
H	 1.3521048084	 2.4365793151	 0.9573920898	 0.117626
H	 2.1187220762	 1.3670516321	-0.2266742725	 0.116289
