21
gdb 6394	2.68927	1.29949	1.07838	3.3989	76.36	-0.2392	0.0388	0.2781	1236.0881	0.186354	-366.314766	-366.30426	-366.303316	-366.352332	36.296	
C	 0.0156381486	 1.6129404924	 0.3447731452	-0.380644
C	 0.0177654805	 0.1025114664	 0.1008133791	-0.170108
C	 0.7786562427	-0.7029304382	 1.1675297203	 0.048934
C	 0.6341613838	-2.2145325602	 0.9523614964	-0.395084
N	 2.1870377852	-0.3203326742	 1.2099334764	-0.310679
C	 2.8143296329	 0.1212227059	 2.3410601904	 0.409837
C	 4.3007852693	 0.4107147158	 2.1834841278	-0.48441
O	 2.2401536274	 0.2735265734	 3.404856167	-0.376327
H	 1.0341727756	 2.0117900696	 0.363168948	 0.117044
H	-0.5374346862	 2.1371410725	-0.4404771916	 0.110438
H	-0.4505402072	 1.8561924891	 1.305180001	 0.126396
H	-1.0134525784	-0.2693682301	 0.068243134	 0.100149
H	 0.447695514	-0.1175514403	-0.887358954	 0.084046
H	 0.393636738	-0.4429439331	 2.1579737567	 0.123895
H	 1.160236965	-2.768863848	 1.7343025272	 0.126101
H	-0.4195712909	-2.5099996769	 0.9708207775	 0.118591
H	 1.0472370911	-2.5172210772	-0.0177044536	 0.105401
H	 2.7362368415	-0.4568424824	 0.3761419728	 0.236096
H	 4.6594230537	 0.3405556818	 1.1529781939	 0.107544
H	 4.503686681	 1.4136699249	 2.5662027198	 0.151993
H	 4.8640942723	-0.2940291811	 2.8019466457	 0.150787
