21
gdb 84428	2.31908	1.66599	1.26444	1.6213	83.58	-0.234	0.0081	0.242	1100.9284	0.181894	-387.095319	-387.086249	-387.085305	-387.128273	35.743	
C	-0.0410527048	 1.5621747571	-0.0208359516	-0.488301
C	-0.0358534172	 0.0541452135	 0.0734174015	 0.274894
C	 1.2276348211	-0.7494741444	-0.214200031	-0.360513
C	 0.6354483931	-0.7683845308	 1.1736913906	 0.237999
C	 1.4109302168	-0.1702788735	 2.3241490356	-0.468762
C	-0.295180178	-1.9618649143	 1.4793664201	 0.041685
O	-0.802913133	-1.9646380516	 2.8130447626	-0.429346
C	-1.3956399738	-1.8322122873	 0.4502368296	-0.154603
C	-1.2759711607	-0.7093418306	-0.2631113547	-0.123785
H	 0.9142645523	 1.9885860346	 0.2978647642	 0.119387
H	-0.2155476423	 1.8890874892	-1.0527820212	 0.118932
H	-0.8280098549	 2.0019441471	 0.6025097686	 0.115716
H	 1.1390122543	-1.6261535885	-0.8486506746	 0.107315
H	 2.1557122552	-0.1965609332	-0.3356070866	 0.102989
H	 1.9601869834	 0.7227508624	 2.0123766616	 0.108748
H	 0.7521465376	 0.1019194006	 3.1529500692	 0.115931
H	 2.1413545884	-0.8879022456	 2.714579522	 0.121745
H	 0.2482456831	-2.9108801553	 1.3943621446	 0.091336
H	-1.4590394745	-1.2603292169	 2.8640833469	 0.27439
H	-2.1768116309	-2.5766429269	 0.3497508474	 0.098013
H	-1.9563843553	-0.3844670057	-1.0442757348	 0.096228
