27
gdb 112708	2.9308	0.94676	0.7991	0.163	95.72	-0.2924	0.0774	0.3698	1610.6693	0.252611	-353.58879	-353.578259	-353.577315	-353.624762	40.237	
C	-0.0368298445	 1.6012990445	 0.1271919527	-0.382912
C	 0.0196677813	 0.0838098528	-0.0781497189	-0.192183
C	-1.3511669343	-0.5984491395	-0.0519046358	 0.058945
C	-2.3061217754	-0.1819072773	-1.200401373	-0.227209
C	-3.1982306678	-1.419334948	-1.5331134881	 0.018855
C	-3.0501456388	-1.8357544048	-3.0025950708	-0.39455
C	-2.7576335131	-2.5087634892	-0.5036212629	 0.039695
C	-2.9660362777	-3.9648260417	-0.9191781324	-0.417302
C	-1.3069260399	-2.130233087	-0.1696562979	-0.22558
H	 0.9653867082	 2.041302369	 0.1171742752	 0.108884
H	-0.6213949235	 2.0907666273	-0.6586581883	 0.117448
H	-0.500168416	 1.8522102951	 1.0882460836	 0.111091
H	 0.5085760298	-0.1388847324	-1.0369745006	 0.088953
H	 0.6557923885	-0.3614370248	 0.6981645296	 0.08897
H	-1.8333961654	-0.3548323297	 0.9063646701	 0.061936
H	-2.9024985783	 0.6972507311	-0.9405804486	 0.093483
H	-1.7165456594	 0.0952874888	-2.0836621494	 0.089399
H	-4.2542695944	-1.17888045	-1.366285614	 0.061592
H	-2.0199667295	-2.1276685441	-3.2378140896	 0.111315
H	-3.7032799398	-2.6748295653	-3.2612556024	 0.110267
H	-3.3091505783	-0.9996782296	-3.6611320071	 0.109109
H	-3.3471777199	-2.3372684122	 0.4082231957	 0.065833
H	-2.3688100892	-4.2261305723	-1.7987130062	 0.113994
H	-2.6732777621	-4.6425531438	-0.1099858018	 0.107829
H	-4.0158505374	-4.1705358608	-1.1561630312	 0.109153
H	-0.6392512894	-2.4252594453	-0.9925581904	 0.087041
H	-0.9348664935	-2.619401801	 0.7369847528	 0.085946
