16
gdb 20871	6.74975	1.04119	0.9604	3.6628	66.8	-0.2671	-0.0363	0.2308	1209.3795	0.130193	-379.909579	-379.901828	-379.900884	-379.942593	27.457	
C	-0.0340738634	 1.5692734651	-0.0190789034	-0.383494
C	 0.1326722013	 0.0498188427	-0.0796800803	-0.160504
C	 0.6476862449	-0.5403542212	 1.2464455594	-0.300362
C	 0.7747517825	-2.0275506711	 1.2180348636	 0.257912
C	 1.8552306721	-2.8509492415	 1.2525921408	-0.053557
O	 1.4519706535	-4.1183753708	 1.1869119222	-0.162032
N	 0.0251045913	-4.0731487289	 1.1059951114	-0.003235
N	-0.3219089052	-2.8665074841	 1.1258734274	-0.170024
H	 0.9171249956	 2.06660531	 0.2017721132	 0.114384
H	-0.4025483779	 1.9639391687	-0.9705220043	 0.118627
H	-0.7474774601	 1.8586850272	 0.760398938	 0.119351
H	-0.8238570071	-0.424306687	-0.3263402684	 0.123729
H	 0.827248174	-0.2204433473	-0.8843546015	 0.100814
H	 1.6225557318	-0.1051676314	 1.4941007541	 0.108081
H	-0.0361947527	-0.2562930146	 2.0558204753	 0.124909
H	 2.9162076794	-2.6753298257	 1.3233561724	 0.165401
