25
gdb 63745	3.41433	1.06967	0.97393	0.0261	92.98	-0.2613	0.0798	0.3411	1378.1674	0.22837	-352.347871	-352.338308	-352.337364	-352.38185	37.911	
C	-0.8923703006	 1.4327363279	 0.0627169829	-0.450522
C	-0.022403461	 0.179134577	 0.0522149763	 0.367994
C	-0.8877850283	-1.0813790947	-0.0156080431	-0.440043
C	 1.1355238308	 0.1626467226	-0.9978712407	-0.352864
C	 2.132515608	-0.2636301842	 0.1040303736	 0.402965
C	 2.7277516581	-1.6997745213	 0.157103595	-0.272734
C	 4.03013733	-1.1028413597	 0.7535132498	-0.210602
C	 3.5731441589	 0.2893114272	 0.240712361	-0.287373
C	 1.0641129465	 0.0983902572	 1.1736828951	-0.330696
H	-0.2815732626	 2.3407166653	 0.1103144524	 0.105529
H	-1.5105536764	 1.4931753741	-0.8411689827	 0.109086
H	-1.5679778212	 1.4392729456	 0.9266595147	 0.108815
H	-1.5069942087	-1.08316753	-0.92042284	 0.108556
H	-0.2775453927	-1.990290658	-0.0296253223	 0.114845
H	-1.5587527546	-1.1441783369	 0.849231747	 0.108252
H	 1.0206957488	-0.5204487022	-1.8462870297	 0.086949
H	 1.356013652	 1.1623409353	-1.3881027852	 0.088335
H	 2.191923537	-2.4480333846	 0.7485430299	 0.0924
H	 2.8894707478	-2.1025517464	-0.8485022909	 0.094672
H	 4.0386551856	-1.1520494051	 1.8459184497	 0.101768
H	 4.9809043567	-1.4932721408	 0.3832359487	 0.09339
H	 4.0066251771	 0.5245543144	-0.7374499603	 0.095424
H	 3.7164266838	 1.1513464894	 0.8993054569	 0.089526
H	 1.2543608948	 1.0738649387	 1.6339807508	 0.087461
H	 0.8923527501	-0.6319276309	 1.9713491512	 0.088865
