16
gdb 46636	3.00826	1.65305	1.13575	4.8844	70.86	-0.223	-0.009	0.214	1029.5431	0.126888	-437.912002	-437.904959	-437.904015	-437.943668	27.068	
O	-0.1181391597	-0.0151165464	-0.0934034027	-0.331526
C	-0.0197753938	 1.1646946904	 0.0545214365	 0.448647
O	-1.1072954164	 1.9582010192	 0.3317493369	-0.239131
C	-0.7327238766	 3.3403331152	 0.5721231451	-0.177704
C	 0.751465311	 3.2740907732	 0.7073592701	 0.307438
C	 1.7104610513	 3.7268937353	 1.5038606181	-0.222523
C	 2.9549887301	 2.8836936147	 1.3181897111	-0.196007
N	 2.4437900262	 1.6870113708	 0.6112773089	-0.313863
C	 1.2130744182	 2.0741949112	-0.0610338379	-0.198242
H	-1.0698367852	 3.9400627728	-0.2826477346	 0.127288
H	-1.2518138664	 3.6838265228	 1.4701687908	 0.137917
H	 1.6400832404	 4.5240229871	 2.2331196071	 0.112249
H	 3.73416144	 3.4258861892	 0.7527771753	 0.100247
H	 3.4001085927	 2.6079763352	 2.2833802039	 0.119369
H	 3.1244251867	 1.279046522	-0.0144421079	 0.228693
H	 1.3337549315	 2.2886342072	-1.1410436907	 0.097147
