23
gdb 102499	2.08103	1.22304	0.95953	1.7037	78.32	-0.2339	0.0712	0.3051	1365.1707	0.201232	-462.549131	-462.537385	-462.536441	-462.585717	42.486	
C	-1.1598043784	 0.7606263587	 0.3556620252	-0.239143
O	 0.0799780943	 0.1651465276	 0.0222622791	-0.26023
C	 0.7233826577	-0.5407310868	 1.0689708645	 0.110495
C	 0.1241725576	-1.939026966	 1.2837752494	-0.087779
O	-1.150081031	-1.9051277102	 1.9207100049	-0.423873
C	 2.234435374	-0.5707637716	 0.7281493608	 0.320189
C	 2.5085220295	-1.3472355542	-0.5669080894	-0.421826
C	 2.7747936953	 0.8607181884	 0.6264814354	-0.418982
O	 2.8326614611	-1.2346472251	 1.8500841224	-0.47417
H	-1.0522917236	 1.4528955098	 1.2059047707	 0.095928
H	-1.479755741	 1.3312191637	-0.5204034516	 0.118009
H	-1.9204197653	 0.0157875209	 0.6094536213	 0.135396
H	 0.6228260442	 0.0193152906	 2.0158290541	 0.055514
H	-0.047539426	-2.4069890167	 0.3101578495	 0.113806
H	 0.8358837545	-2.5543688214	 1.8466266669	 0.113448
H	-1.0141742301	-1.617140789	 2.829070775	 0.281188
H	 1.9327620329	-0.9272407291	-1.395205312	 0.138732
H	 3.5721732153	-1.2913269573	-0.826114713	 0.098938
H	 2.2446990648	-2.4019932817	-0.4545027688	 0.121856
H	 2.6255013175	 1.3898025607	 1.5724844387	 0.11392
H	 3.8494105701	 0.8460491574	 0.4093876784	 0.096731
H	 2.2700863544	 1.4121780294	-0.1688916665	 0.134973
H	 3.7821657324	-1.2690309378	 1.695185905	 0.27688
