19
gdb 58147	3.19632	0.88292	0.87636	1.8344	79.21	-0.2329	0.0261	0.259	1433.1796	0.156777	-419.175975	-419.165573	-419.164629	-419.211607	38.172	
C	 0.0124973902	 1.3188860237	-0.6295640445	-0.372459
C	-0.3483214204	 0.214119969	 0.3602748827	 0.059076
O	-0.6638667311	 0.8495307683	 1.5991161519	-0.432428
C	-1.5202113576	-0.6177563964	-0.1670873441	 0.317616
N	-2.741791631	-0.269949139	 0.3514043645	-0.545003
N	-1.256348227	-1.5440390902	-1.0096507387	-0.294131
C	-2.364956928	-2.3507965829	-1.5185195947	-0.313522
C	-3.3870759145	-1.6119618621	-2.2699924909	 0.30355
C	-4.2240593899	-0.978478007	-2.8589799149	-0.472304
H	 0.8570291458	 1.8992998123	-0.2490307196	 0.122506
H	 0.2771436901	 0.8782644942	-1.5925647467	 0.142031
H	-0.8360536486	 1.9953461113	-0.7728945566	 0.118095
H	 0.5055921487	-0.4642825236	 0.4724269085	 0.095633
H	-0.7373580162	 0.1662301579	 2.2737757465	 0.289999
H	-2.7481788979	 0.5780435534	 0.8986730507	 0.257871
H	-3.5635930625	-0.4562820461	-0.2038289632	 0.262751
H	-1.9446788309	-3.1232579091	-2.1720144153	 0.13646
H	-2.8650217297	-2.8849028847	-0.6929157496	 0.125637
H	-4.9522452894	-0.433569309	-3.407390416	 0.198622
