17
gdb 100854	2.03999	1.22581	0.80272	2.6104	71.83	-0.262	-0.045	0.217	1366.7121	0.131614	-458.919277	-458.90897	-458.908026	-458.955775	36.07	
O	 0.1785184689	 1.3575586321	-0.0854438668	-0.420634
C	 0.1313766243	-0.0497749864	-0.0621828509	-0.070292
C	-1.3158924415	-0.5315110824	 0.083944685	 0.095742
O	-2.1093981006	 0.0454556005	-0.9450067474	-0.429847
C	-1.4280849198	-2.0851084812	 0.1041396731	-0.320874
C	-0.7851175366	-2.6332949508	 1.3872123189	 0.163743
O	 0.3172669886	-3.106112912	 1.4330745602	-0.238959
C	-2.8106128868	-2.5382336974	 0.0329290346	 0.310841
C	-3.9413117549	-2.945095441	 0.0308835281	-0.420536
H	-0.5420043401	 1.6345071736	-0.6661339855	 0.287328
H	 0.5605899338	-0.4895993792	-0.9815943397	 0.080489
H	 0.7477023751	-0.3882826106	 0.7759728648	 0.129445
H	-1.7339473058	-0.127660382	 1.0127625773	 0.113391
H	-1.8975941546	-0.3958258389	-1.7765669422	 0.288463
H	-0.8459497521	-2.4878210335	-0.7353480975	 0.121096
H	-1.4303541693	-2.5439297347	 2.2872886615	 0.104205
H	-4.9445725586	-3.2934182859	 0.0077605966	 0.206402
