18
gdb 90547	4.23903	1.09691	0.99569	3.7462	73.39	-0.2341	-0.0286	0.2055	1215.8389	0.146618	-439.040425	-439.032054	-439.03111	-439.073871	30.951	
C	 0.3356884413	 1.5843775875	-0.1076068048	-0.387073
C	 0.0657593169	 0.0957317864	-0.0059348146	 0.031147
N	 0.9647431857	-0.7784856536	-0.8336359013	-0.337708
C	 1.2345619702	-1.6618603914	 0.3187288566	-0.085263
C	 2.5193967968	-1.226017333	 1.082534879	 0.044816
O	 1.7850481267	-0.2242150981	 1.8056299364	-0.284579
C	 0.5250614853	-0.6663408636	 1.26432234	 0.097353
C	 3.0980117703	-2.3106534522	 1.9604722266	 0.133206
O	 2.8644543665	-2.4576198037	 3.1303925453	-0.232843
H	 1.3674041105	 1.8007588572	 0.1781101669	 0.136782
H	 0.1759252635	 1.9341539946	-1.1324120764	 0.115928
H	-0.3349193603	 2.145397878	 0.5522627152	 0.115809
H	-0.99696267	-0.1189691033	-0.1886276233	 0.071572
H	 0.4973948415	-1.240608183	-1.604465447	 0.222873
H	 1.0129606231	-2.7246000578	 0.2138236986	 0.088311
H	 3.2981643959	-0.8066740433	 0.4328377333	 0.106043
H	-0.2035580747	-0.8971221318	 2.0429111051	 0.093473
H	 3.7550735707	-3.0174162292	 1.3977019045	 0.070153
