17
gdb 35191	3.73016	1.14103	1.06998	1.8704	79.4	-0.2477	0.0216	0.2693	1170.6215	0.134414	-384.600208	-384.592288	-384.591344	-384.632667	30.994	
C	-0.1032319566	-1.1877741786	-0.004853264	-0.433208
C	-0.0313689291	 0.0125053027	 0.0020724612	 0.351115
C	 0.0425407828	 1.4466133561	-0.020542303	-0.288473
O	 0.645363831	 2.098649777	 1.12566421	-0.285086
C	 1.335665354	 2.1573248873	-0.1018255182	 0.47988
C	 2.7736443539	 1.629322225	-0.2482697548	-0.33384
C	 3.1311533496	 2.9538367489	-0.9489695166	-0.044877
C	 2.2561004255	 3.1588191982	-2.1488312217	-0.279174
C	 1.6904031894	 3.4605811113	-0.7821777668	-0.14923
H	-0.1660503848	-2.2479233773	-0.0036571164	 0.201887
H	-0.8435747726	 1.9568838824	-0.3968562904	 0.114914
H	 3.2341758636	 1.5237179402	 0.7367464664	 0.125731
H	 2.9205499057	 0.7080648092	-0.8198018631	 0.111058
H	 4.0526203997	 3.5029583319	-0.8058308311	 0.095505
H	 2.4800897083	 4.0322791145	-2.7527760456	 0.117899
H	 1.8912410031	 2.3062878159	-2.7172107137	 0.114242
H	 1.3206713464	 4.4371002753	-0.4963130023	 0.101657
