20
gdb 101378	3.64424	0.99755	0.88105	2.5776	74.35	-0.244	0.0612	0.3052	1346.2725	0.171085	-440.224914	-440.215967	-440.215023	-440.258818	33.908	
O	-2.3762113035	 1.6550676275	 0.9789077844	-0.42805
C	-2.441282801	 0.2475112701	 1.0726420648	-0.052987
C	-1.4824906133	-0.4142606454	 0.0859386699	 0.089098
O	-0.1902002626	 0.0994286329	 0.400957187	-0.457515
C	-1.4640387097	-1.9289361246	 0.1916951801	 0.040559
C	-2.6043951768	-2.8149573117	-0.3803013293	-0.294185
C	-1.5254195477	-3.4821672844	-1.2316545265	-0.006948
C	-0.8450267705	-2.4910745632	-2.0789056054	-0.244715
N	-0.4120148113	-2.6098955936	-0.6662683414	-0.171714
H	-1.4380031171	 1.8771407138	 1.017007701	 0.294517
H	-2.1994878321	-0.1012317454	 2.0902237154	 0.088037
H	-3.473410367	-0.0433057175	 0.8501385179	 0.105808
H	-1.7740546591	-0.0975235179	-0.9283220164	 0.069571
H	 0.4606343723	-0.4527654788	-0.0479566879	 0.301018
H	-1.2349258622	-2.1981417388	 1.2269727569	 0.094291
H	-3.0538790826	-3.4655281318	 0.3708794935	 0.11712
H	-3.4040201186	-2.3173303953	-0.9380184254	 0.108996
H	-1.3928886004	-4.551472466	-1.358175295	 0.101329
H	-0.083536449	-2.8479556346	-2.7650982918	 0.126047
H	-1.3784641378	-1.6070288952	-2.4190422717	 0.119723
