17
gdb 100162	2.46429	0.97161	0.86266	4.8472	74.96	-0.2467	-0.0355	0.2112	1429.6994	0.130963	-458.934099	-458.923199	-458.922255	-458.971727	36.862	
C	-0.1987750341	 1.4700242571	 0.0092762214	-0.502025
C	-0.1002203241	 0.0189659763	-0.0156685482	 0.067895
C	-0.0078925967	-1.182763409	-0.0307746138	 0.040385
C	 0.0929543429	-2.636910158	-0.0589905574	 0.060102
O	-1.1998634701	-3.2599578382	-0.1038387134	-0.46773
C	 0.9373465822	-3.1394077863	-1.2503978881	-0.072264
O	 0.8514814433	-4.5398067236	-1.3506881395	-0.424629
C	 0.7212252079	-3.0995937118	 1.2786461969	 0.152827
O	 1.899993339	-3.1279047877	 1.4889110364	-0.237798
H	 0.6815282576	 1.9101478635	 0.4897151331	 0.163753
H	-0.2688339669	 1.8823889307	-1.0028553122	 0.15658
H	-1.082028372	 1.7967701872	 0.5682656963	 0.157204
H	-1.7997616987	-2.6595845862	-0.5586290456	 0.294376
H	 0.59147526	-2.631773968	-2.1644022156	 0.085568
H	 1.9836288776	-2.8775406187	-1.0756827301	 0.138966
H	-0.0892736454	-4.7508396361	-1.2913332573	 0.287135
H	-0.0425398528	-3.3855898312	 2.0323681771	 0.099656
