22
gdb 114703	3.77498	1.01512	0.9084	2.3433	82.85	-0.2326	0.0722	0.3048	1384.0174	0.194459	-404.329895	-404.320704	-404.31976	-404.364031	34.992	
C	 0.1337696216	 1.2695813864	-0.2880153191	-0.236486
O	-0.0098650829	-0.0518797996	 0.176019342	-0.239906
C	-1.3300767768	-0.542525456	 0.1112011122	 0.159559
C	-1.8572144599	-0.8400209763	-1.3241451057	-0.242176
C	-2.7599838292	-2.0508610111	-1.1471068771	-0.096802
N	-2.0056747176	-3.3218161656	-1.0405418875	-0.362512
C	-2.5203439994	-2.673637704	 0.1873181254	 0.334657
C	-3.5940623067	-3.3537447562	 0.9968190371	-0.493549
C	-1.424704015	-1.8722263676	 0.8909463674	-0.297063
H	 1.1762579449	 1.5576549322	-0.1307735297	 0.125301
H	-0.0980864043	 1.3647909815	-1.3592847608	 0.106681
H	-0.5141430261	 1.9681413355	 0.2661746845	 0.099723
H	-2.0096906175	 0.1921580185	 0.5778606454	 0.05719
H	-2.3949815436	 0.0120312332	-1.7494542088	 0.092223
H	-1.0159484882	-1.0812726402	-1.9818094683	 0.118109
H	-3.7418809615	-2.071655713	-1.6110248488	 0.079579
H	-2.6234808598	-4.0927508581	-1.2904931249	 0.220088
H	-4.3650060138	-3.7828883975	 0.3473977357	 0.110716
H	-3.1776896401	-4.1652148219	 1.6054776144	 0.12562
H	-4.0840601003	-2.6493204003	 1.6781857835	 0.121728
H	-0.4651690234	-2.3929422831	 0.8284410067	 0.122672
H	-1.6513355703	-1.6991115768	 1.9465513366	 0.094646
