17
gdb 18457	4.18157	1.43256	1.35693	2.694	69.91	-0.2584	0.0192	0.2777	987.0338	0.142101	-363.836499	-363.828914	-363.82797	-363.868792	28.384	
C	-0.2669316791	 1.395893969	 0.0954224874	-0.376081
C	 0.2333379847	-0.0368129407	-0.1224981026	-0.210157
C	 0.844259073	-0.6267345179	 1.1312093997	-0.02601
C	 0.076907133	-1.3038732468	 2.2118419392	 0.072486
O	-1.0532616693	-2.0283928595	 1.6558156878	-0.273525
C	-0.1725557876	-2.8685665446	 0.9670080446	 0.451641
N	-0.4021018737	-3.9016080114	 0.2970723014	-0.555413
C	 1.0515184158	-2.1281555623	 1.3942935234	-0.240862
H	 0.5439518369	 2.0584384775	 0.4181633364	 0.113153
H	-0.685630311	 1.8083133058	-0.827286835	 0.117908
H	-1.0477775009	 1.4266109221	 0.8621998738	 0.124257
H	-0.5934250581	-0.6687528076	-0.4588214504	 0.122959
H	 0.9846081976	-0.0535865198	-0.920924511	 0.106426
H	 1.6858112121	-0.0588802019	 1.5288520427	 0.100448
H	 0.0355167415	-1.0688326224	 3.2667227884	 0.121345
H	-1.4018558035	-4.1090126001	 0.2694759891	 0.230171
H	 2.0099848685	-2.5627620996	 1.636503415	 0.121253
