16
gdb 84179	3.59057	1.20619	1.00437	2.0703	72.62	-0.2488	-0.0678	0.181	1150.0814	0.125203	-437.871157	-437.863521	-437.862577	-437.903545	29.035	
O	 0.0584764353	 1.3910046199	-0.1105381301	-0.431759
C	 0.0483500405	-0.0222513511	-0.0471277992	 0.106102
C	 0.6883168347	-0.5458687128	 1.2338405295	-0.208321
C	-0.1618909684	-1.2760911056	 1.9720887384	 0.278186
C	 0.1398059644	-1.9021386875	 3.2622103418	 0.073489
O	-0.6492721708	-2.5760506319	 3.8869932254	-0.270734
C	-1.5000770199	-1.3491170062	 1.3021741311	-0.158934
N	-2.1109910582	 0.0049514542	 1.1519415961	-0.350698
C	-1.3699166631	-0.6079646394	 0.0276862461	-0.083143
H	-0.5976821198	 1.6718258319	 0.5442574944	 0.292416
H	 0.5865685573	-0.3729772533	-0.9349969574	 0.09928
H	 1.6994121654	-0.274226051	 1.5182097023	 0.122104
H	 1.1721013569	-1.7238506213	 3.635475048	 0.074616
H	-2.1461588642	-2.2061102492	 1.4431972036	 0.116338
H	-3.1103913896	-0.096049518	 0.9865563834	 0.240748
H	-1.9011121304	-0.8812158387	-0.8762137334	 0.100308
