16
gdb 35540	4.67025	1.10758	0.99631	5.7276	75.28	-0.2456	-0.0018	0.2438	1172.2058	0.12681	-396.924495	-396.917144	-396.9162	-396.956617	27.645	
N	-0.0833387072	-1.144765171	-0.2122344741	-0.322072
C	-0.0240231356	 0.0047168397	-0.1134863338	 0.292031
C	 0.0076963037	 1.4589220685	 0.0414679401	-0.126583
C	-0.6252874169	 1.9347856164	 1.4102649087	-0.214321
N	 0.1985736574	 3.1218265859	 1.6353374027	-0.083425
C	 0.9896542013	 3.5707697147	 2.8211047676	-0.177686
C	 2.2296610145	 3.7002157975	 1.8666808958	-0.342185
C	 1.3666903646	 2.8926549866	 0.9192988779	 0.37131
N	 1.4083778103	 1.9856082248	 0.0288524396	-0.336197
H	-0.5519491634	 1.8995591243	-0.7940089788	 0.137911
H	-1.6896681524	 2.1578287967	 1.3207816364	 0.133156
H	-0.4775906756	 1.1797055598	 2.194572154	 0.125415
H	 0.6093093473	 4.4801545786	 3.2891640207	 0.126733
H	 1.1200679355	 2.783519091	 3.572594066	 0.123357
H	 2.4300647145	 4.7220550839	 1.5413194673	 0.144718
H	 3.154868402	 3.2194389626	 2.1822679799	 0.147837
