17
gdb 7996	2.86503	2.02831	1.5789	1.035	63.82	-0.2137	-0.0333	0.1804	869.0119	0.141936	-401.000635	-400.992685	-400.991741	-401.033397	29.382	
C	 0.8537528944	 1.2411844969	-0.1516775334	-0.331169
N	-0.0274371433	 0.0844703805	 0.0296085143	-0.076571
C	 0.0527187882	-0.8835146915	-1.0857779139	-0.197695
C	 1.1949934894	-1.8572085794	-0.7756643849	 0.035357
O	 2.4105854657	-1.4030726581	-1.3563421611	-0.428002
C	 1.3193923955	-1.7528048866	 0.7631092977	 0.36517
O	 2.1358122481	-2.3438415359	 1.4218912726	-0.315004
C	 0.3083203326	-0.6967785257	 1.2223754598	-0.285787
H	 1.9211499153	 0.9856361524	-0.247369941	 0.116212
H	 0.5529852295	 1.7773744081	-1.0565638495	 0.123738
H	 0.7301808786	 1.9225948553	 0.695555622	 0.119647
H	-0.8922333839	-1.4388181124	-1.1392582794	 0.105627
H	 0.2024627563	-0.3703198276	-2.0372062558	 0.12409
H	 0.9728712396	-2.8911461486	-1.0768252839	 0.088119
H	 3.1266160399	-1.8592398213	-0.8950978924	 0.293452
H	 0.6989641462	-0.0828031484	 2.0361981956	 0.134536
H	-0.5836542622	-1.2213958978	 1.5991141233	 0.12828
