16
gdb 51957	4.81121	0.80472	0.76704	2.3619	67.58	-0.2653	-0.0357	0.2297	1464.9324	0.122687	-475.028728	-475.019785	-475.018841	-475.063993	30.688	
O	 0.0403465127	 0.9891295501	 1.0129719889	-0.228146
C	 0.3432605926	 1.6361050479	 0.0491949703	 0.154636
C	 1.6456443396	 1.4196163634	-0.7117447585	-0.160669
O	 1.8661194615	 2.4224222321	-1.7082149252	-0.243643
C	 2.1418874561	 3.6522646199	-1.2250265746	 0.465978
O	 2.1858613043	 3.912203333	-0.0443234766	-0.381861
C	 2.3883040251	 4.6296922607	-2.3178398038	-0.134138
C	 1.7498640877	 5.9749811815	-2.1559607365	-0.21824
N	 3.1863036162	 5.8179192551	-1.979190652	-0.301051
H	-0.3196645355	 2.4180249665	-0.3830077537	 0.09343
H	 2.4744019691	 1.3800931593	-0.000341624	 0.161175
H	 1.5894187182	 0.4738837272	-1.2576777153	 0.151057
H	 2.5411468504	 4.2134916411	-3.3067017197	 0.11728
H	 1.4437192375	 6.5109767514	-3.0491843495	 0.133666
H	 1.1283334894	 6.1221465899	-1.2776259197	 0.137618
H	 3.3935429251	 5.7744412408	-0.9815510501	 0.252908
