17
gdb 10053	3.35353	1.23801	0.9708	5.1091	69.34	-0.2643	-0.0398	0.2245	1188.4571	0.139834	-363.891699	-363.882414	-363.88147	-363.926713	31.501	
C	 0.0182473209	 1.5639446992	 0.0438806186	-0.395064
C	-0.0155565897	 0.0381950881	-0.0742385671	-0.199567
C	 0.7456140237	-0.5052014042	-1.3079960727	-0.057189
C	 0.8920327267	-2.0401033947	-1.2113745751	-0.372834
C	 1.654240772	-2.6176066867	-2.3172663991	 0.260142
N	 2.2571833391	-3.0589908394	-3.1985203464	-0.294916
C	-0.0173054486	-0.1137512628	-2.5646186475	 0.173519
O	 0.2154471769	 0.8594025664	-3.2299778924	-0.238411
H	 1.0452896503	 1.9252254426	 0.1578929947	 0.126844
H	-0.4038780032	 2.0476233937	-0.8410869098	 0.143829
H	-0.5529647348	 1.892926038	 0.9166290408	 0.121597
H	 0.4251394425	-0.4127942015	 0.8232149289	 0.109364
H	-1.0553726254	-0.3150836298	-0.1111275415	 0.108093
H	 1.7340463353	-0.0384668613	-1.3612660379	 0.118769
H	 1.3863167729	-2.3037814891	-0.2704169924	 0.159741
H	-0.0984149004	-2.5117081188	-1.1872944173	 0.155939
H	-0.872375508	-0.7893264298	-2.8093759839	 0.080144
