18
gdb 68668	2.81877	1.90662	1.57023	1.8237	75.	-0.2409	-0.0047	0.2361	916.6662	0.150154	-401.967088	-401.960149	-401.959205	-401.997809	28.943	
C	 0.0232230577	 1.5134022814	 0.0470313277	-0.463209
C	 0.0069518569	-0.0033893374	-0.0205305495	 0.273321
C	 0.6637491877	-0.6354955208	-1.269838381	-0.267787
C	 0.1481616053	-2.0649154897	-1.0880201731	 0.063035
O	 0.8352533046	-2.647189622	 0.066571353	-0.244969
C	 1.0092161841	-1.7890758937	 1.1006736316	 0.123535
N	 0.6800882789	-0.5648398382	 1.181427613	-0.296028
C	-1.3004017562	-1.8325809532	-0.7003680536	-0.099955
C	-1.3774042849	-0.6562230784	-0.0732595602	-0.075629
H	 1.0518775694	 1.8863495547	 0.0514286675	 0.12071
H	-0.5025435425	 1.9485673998	-0.8092123302	 0.108326
H	-0.458057038	 1.8572309586	 0.9675398901	 0.123539
H	 0.2714418511	-0.2029625701	-2.193632901	 0.105783
H	 1.7544058485	-0.5622766627	-1.2628267226	 0.108079
H	 0.3347545412	-2.7611346206	-1.9050157853	 0.08576
H	 1.496148025	-2.2952938401	 1.932679985	 0.123401
H	-2.0821571266	-2.5743509741	-0.803847979	 0.105612
H	-2.2440566223	-0.2409753935	 0.4281614073	 0.106476
