17
gdb 32456	3.19981	1.24186	0.90513	1.3996	72.76	-0.1759	0.0505	0.2264	1254.2155	0.13628	-455.146453	-455.137227	-455.136282	-455.180137	33.88	
C	-0.0211681977	 1.3438237449	 0.0490702394	-0.248955
O	 0.0163844586	-0.0712302586	 0.0162980723	-0.26347
C	 0.6450785367	-0.5993411229	-1.0584544042	 0.295525
C	 1.252050513	 0.0039905827	-2.1160104167	-0.208825
O	 1.7514196799	-0.9775005932	-2.9627621402	-0.190209
C	 1.4299296278	-2.17078124	-2.4270437982	 0.403596
N	 1.8910040243	-3.3043182359	-3.0731317951	-0.594129
C	 0.7471548636	-2.0251008007	-1.2542863383	-0.056474
N	 0.2583499396	-3.0998088037	-0.4617016488	-0.628384
H	 0.9934698675	 1.7638368041	 0.0706292456	 0.12292
H	-0.5511001181	 1.744012002	-0.8258365377	 0.121684
H	-0.5526065983	 1.6268887623	 0.9590457172	 0.131776
H	 1.419996311	 1.0181142103	-2.4262495332	 0.125786
H	 1.790214548	-3.2597941209	-4.0799819694	 0.250856
H	 1.435188788	-4.1262159817	-2.6943271629	 0.260136
H	 0.7624742444	-3.167321413	 0.4187147243	 0.239158
H	-0.7157000783	-2.9488127756	-0.2150103342	 0.239009
