13
gdb 133334	2.408	1.88034	1.05672	3.8728	69.24	-0.2031	-0.0497	0.1534	1011.1499	0.089853	-490.179842	-490.172254	-490.17131	-490.211768	28.829	
N	 0.0469544037	 1.4124976716	 0.1488458013	-0.600465
C	-0.0188101676	 0.0492298911	 0.0509848747	 0.096647
C	-1.1364035204	-0.7050614498	 0.026404523	 0.337769
F	-2.3764757749	-0.2199548937	 0.0389980246	-0.060296
N	-1.0526422534	-2.072270036	-0.0162166791	-0.303562
N	 0.1040241643	-2.7535879317	-0.0400791797	-0.050827
N	 1.1964745686	-2.1041297489	-0.0327657703	-0.284153
C	 1.242442421	-0.6934656426	 0.0008304871	 0.3631
N	 2.3413013598	-0.0315336137	-0.0176083877	-0.551928
H	 0.9675228024	 1.7656295344	-0.0818855628	 0.279756
H	-0.7392876495	 1.9507156145	-0.177634803	 0.258443
H	-1.8852344207	-2.6408515052	-0.025621905	 0.289676
H	 3.1307516168	-0.6763221898	-0.061827813	 0.225841
