21
gdb 72798	2.58523	1.64604	1.25588	1.4658	85.24	-0.2329	0.0234	0.2563	1087.6769	0.184171	-387.093918	-387.085852	-387.084908	-387.125894	33.01	
O	 0.0405336157	 1.3903267078	-0.0506817226	-0.489668
C	 0.0364651677	-0.0391211389	-0.0316147742	 0.358689
C	 0.1764458602	-0.5860176535	 1.4300317325	-0.293569
C	-1.3896719001	-0.6144477797	 1.5287800668	-0.321976
C	-1.391849315	-0.5429663941	 0.0163150363	 0.342351
C	-2.0402686763	-1.093306595	-1.000520786	-0.231025
C	-1.431057879	-1.1144464906	-2.3829803155	-0.234612
C	-0.0738915865	-0.3834366188	-2.4712264681	-0.204472
C	 0.8006803367	-0.6109670841	-1.2217705913	-0.275455
H	 0.9435013978	 1.6742792207	 0.1328746348	 0.272801
H	 0.6069614721	-1.5900230478	 1.4604836078	 0.10198
H	 0.7062101355	 0.0637039061	 2.131742341	 0.090579
H	-1.8540875315	-1.4855434804	 1.9975381404	 0.103516
H	-1.775740095	 0.2935366976	 2.0017060664	 0.118651
H	-2.9853467721	-1.6140602771	-0.8571174677	 0.080758
H	-1.3082935392	-2.1671101327	-2.681203952	 0.102694
H	-2.1273030801	-0.6885027697	-3.117332417	 0.105737
H	 0.4531080784	-0.6988923425	-3.3772988123	 0.086135
H	-0.2479061831	 0.6943894293	-2.5577121038	 0.117219
H	 1.7780261441	-0.125510797	-1.3398013498	 0.078033
H	 0.9847149998	-1.6815017096	-1.0692941657	 0.091634
