19
gdb 35704	2.40839	1.43784	1.07111	1.8671	81.08	-0.2554	0.0457	0.3011	1174.4925	0.158314	-385.819661	-385.810963	-385.810019	-385.853364	32.859	
C	-0.4129360552	-1.1448036529	-0.5491195396	-0.454328
C	-0.2378811914	-0.0007409215	-0.220126045	 0.316476
C	-0.0104197804	 1.3723401355	 0.1776310056	-0.16698
C	 0.3089224276	 1.6988185577	 1.670918029	-0.219449
C	 1.3380861604	 2.7528711136	 1.1912175225	-0.242023
C	 1.3416522741	 2.085476609	-0.2139375128	-0.065061
C	 2.4919349721	 1.1456287904	-0.4793863167	 0.095329
C	 3.8853961492	 1.4992399547	-0.1864824333	-0.192672
O	 3.1732736794	 0.5814104395	 0.6467948905	-0.230213
H	-0.5711644063	-2.155949647	-0.8315431547	 0.194126
H	-0.8448691045	 1.994054325	-0.1645398875	 0.101765
H	-0.5272474877	 2.0368768089	 2.2860512469	 0.10111
H	 0.8015460918	 0.8550775646	 2.1562336719	 0.132924
H	 0.9237197075	 3.763474794	 1.157113364	 0.099561
H	 2.2889233944	 2.7740788492	 1.7248041484	 0.115495
H	 1.2493479879	 2.7598768472	-1.0715992623	 0.081592
H	 2.3119024402	 0.4284430272	-1.2810345556	 0.103715
H	 4.688962985	 1.0654080459	-0.7797124501	 0.11653
H	 4.1139952258	 2.4619243389	 0.2691870286	 0.112103
