20
gdb 71355	2.89731	1.90699	1.51698	1.5475	81.9	-0.224	0.0916	0.3156	948.7848	0.173102	-365.939528	-365.932451	-365.931507	-365.970729	29.571	
C	 0.0142192958	 1.5368069786	-0.0698176689	-0.523681
C	 0.0140512169	 0.0242370851	-0.0335278792	 0.310695
C	 0.570704358	-0.8452384089	-1.1895551981	-0.292024
C	 0.1107589068	-1.8689053043	-0.1445254406	-0.050757
C	 0.6821376735	-0.9491509518	 1.0026278148	-0.072378
C	-0.2565013949	-1.1577012966	 2.1808636138	-0.0519
C	-1.3418702864	-0.1740377926	 2.4460104829	-0.255779
N	-1.5753116711	-1.2929105682	 1.5158107616	-0.115394
C	-1.1688503758	-1.0246694832	 0.1227349547	-0.021383
H	 0.9937871504	 1.8986976369	-0.4036793223	 0.119359
H	-0.7310207236	 1.9060060666	-0.7835906521	 0.122678
H	-0.1890273898	 2.0038230228	 0.8964606397	 0.124172
H	 0.0187707735	-0.8172817822	-2.1343550687	 0.088501
H	 1.6477590267	-0.7705846603	-1.3673607625	 0.088704
H	 0.1621677925	-2.957129274	-0.1863459896	 0.074203
H	 1.7584830546	-0.9005590284	 1.1748809129	 0.063741
H	-0.0007846705	-1.9003750914	 2.9324228445	 0.09116
H	-1.8996014823	-0.255270274	 3.3755481912	 0.113611
H	-1.2746247412	 0.8325764291	 2.0555591221	 0.115816
H	-1.9957940334	-1.0237697232	-0.589187286	 0.070655
