25
gdb 86379	2.38831	1.4112	1.07029	0.2629	92.26	-0.2523	0.0833	0.3355	1286.106	0.229268	-352.377488	-352.367842	-352.366897	-352.411057	38.224	
C	-0.0264932214	 1.5835759063	 0.0165142575	-0.397165
C	 0.0453193795	 0.0549499731	 0.0307609258	 0.025523
C	 0.7896123347	-0.5518435004	-1.1820168378	-0.249768
C	 1.3077390118	-1.9321496908	-0.7168430919	-0.020418
C	 2.521583506	-2.4343728366	-1.5024511215	-0.405302
C	 1.5304967198	-1.774194144	 0.7926976795	 0.364971
C	 1.6136570739	-3.0263568374	 1.6332431109	-0.488096
C	 2.2789136469	-0.5327692765	 1.2259548216	-0.340918
C	 0.7657774574	-0.5466064887	 1.2337734159	-0.080368
H	 0.9772919364	 2.0219756275	 0.0450013027	 0.112263
H	-0.5269048916	 1.94946071	-0.8868681834	 0.10791
H	-0.5803292466	 1.9650423345	 0.8810682161	 0.108605
H	-0.9816724656	-0.3373672587	 0.0376546077	 0.066868
H	 0.1523110384	-0.6243431165	-2.0684443897	 0.092022
H	 1.6342736216	 0.0901034605	-1.4619017419	 0.093746
H	 0.4949328402	-2.663756532	-0.8391041926	 0.064011
H	 3.3723082046	-1.7536570614	-1.3856586997	 0.112612
H	 2.8391038294	-3.4260343332	-1.1634929871	 0.110973
H	 2.296803773	-2.5082629618	-2.5719833575	 0.108659
H	 2.4909065576	-3.6305545584	 1.3727255889	 0.115747
H	 1.6887127374	-2.7856517469	 2.6986216223	 0.11096
H	 0.7264687551	-3.6566764681	 1.4953235025	 0.110473
H	 2.7751535024	-0.5741789845	 2.1901556694	 0.102097
H	 2.8057878163	 0.0709878924	 0.4936907649	 0.103823
H	 0.2641773227	-0.5228015384	 2.1968916174	 0.070772
