18
gdb 43166	2.12686	1.93095	1.78275	3.5562	75.57	-0.223	-0.013	0.21	922.4193	0.151202	-401.969536	-401.962422	-401.961478	-402.000983	28.431	
O	 0.0078090444	 0.0412040032	-0.0148738212	-0.333771
C	-0.0112341495	 1.2405812143	 0.0202416226	 0.445527
C	-1.2156908947	 2.1785038723	 0.0528992795	-0.12905
C	-0.7229947252	 3.3074262173	 0.9868045696	-0.169881
N	 0.7512002381	 3.1178796062	 1.0960485011	-0.309214
C	 1.1579622463	 2.2264034231	-0.0039089743	-0.1381
C	 1.1137014456	 2.8819944641	-1.3825851513	-0.085311
C	-0.0531005406	 3.1054387321	-1.9932832101	-0.050499
C	-1.379932618	 2.6794524083	-1.4089456738	-0.271301
H	-2.1224923529	 1.6827412124	 0.4005378805	 0.091882
H	-0.9909331102	 4.291850911	 0.5819238273	 0.095124
H	-1.1751467781	 3.2255801816	 1.9812131869	 0.113016
H	 1.2358617104	 4.0068210856	 1.0515859705	 0.220155
H	 2.1178985361	 1.7513078246	 0.2021189394	 0.090207
H	 2.0518762582	 3.1826779238	-1.8410577346	 0.096676
H	-0.0785149086	 3.5986742101	-2.9619559796	 0.097302
H	-1.814686967	 1.8784264267	-2.0233983046	 0.126811
H	-2.098330194	 3.5093176635	-1.4413548579	 0.110428
