15
gdb 2903	6.6573	1.79542	1.50769	2.7834	62.84	-0.2471	-0.0192	0.2278	792.9438	0.125544	-308.540079	-308.533506	-308.532562	-308.57116	23.738	
O	 0.5431456637	-0.2576342396	-0.0839578522	-0.250658
C	 0.2390592795	 0.9039380787	-0.0029840573	 0.152624
C	 1.2008787416	 2.0661300389	 0.0212517907	-0.046398
C	 0.947725417	 3.064218977	-1.1507940487	-0.283066
C	 1.1196631384	 4.4184421966	-0.5053635096	-0.056845
C	 1.1792458145	 4.3414625361	 0.8210562977	-0.056848
C	 1.0586084861	 2.920914029	 1.3185928648	-0.283063
H	-0.8334076251	 1.2130177019	 0.0630460658	 0.068231
H	 2.2131462584	 1.6616039291	-0.0476725541	 0.098396
H	 1.6357829647	 2.8859371184	-1.9836667829	 0.119336
H	-0.0666547278	 2.9579693507	-1.564478133	 0.110755
H	 1.1512472983	 5.3343882712	-1.084742728	 0.098721
H	 1.267217124	 5.1845482278	 1.497150605	 0.098721
H	 0.0847011728	 2.7623637944	 1.8061964227	 0.110757
H	 1.8173840638	 2.6512339198	 2.0604918489	 0.119337
