19
gdb 38011	3.37024	2.07962	1.75244	1.2395	84.4	-0.1977	-0.0192	0.1785	848.3623	0.162435	-348.643662	-348.637799	-348.636854	-348.673282	26.662	
C	-0.0789662696	 1.615152533	-0.0134427679	-0.237392
C	 1.4739194734	 1.58977701	 0.036875444	-0.065941
C	 2.054109082	 1.3804974461	 1.404284984	-0.110088
C	 1.6574782943	 0.21772403	 1.9607514907	 0.045584
C	 2.6798144432	-0.910614823	 1.7576420582	-0.270164
C	 1.7853837046	-1.1055423591	 0.4687816163	-0.01731
C	 1.4331329866	 0.0660809626	-0.5587132948	-0.072509
C	-0.0407162189	 0.0870456721	-0.0338764186	-0.023839
C	 0.5434640619	-0.5731948548	 1.2400062864	-0.065554
H	-0.5870565327	 2.1173240411	 0.8135708434	 0.099769
H	-0.445390061	 2.0187698979	-0.9621739721	 0.094899
H	 2.0029240249	 2.3426829815	-0.5489585004	 0.06871
H	 3.0658330828	 1.7381314213	 1.5886220954	 0.082056
H	 3.7278852019	-0.6192251921	 1.6690447858	 0.102372
H	 2.5825558097	-1.8016023581	 2.3905726057	 0.097674
H	 1.7656905481	-2.0963145068	 0.0018278851	 0.076703
H	 1.6908820701	-0.0449457975	-1.611685272	 0.067174
H	-0.8346060858	-0.4930509893	-0.5087050152	 0.059855
H	-0.0587593854	-1.2276565148	 1.872206816	 0.068
