15
gdb 33294	5.863	0.74614	0.70767	2.0935	94.12	-0.2266	-0.0324	0.1942	1558.6537	0.110841	-383.388111	-383.379965	-383.379021	-383.421164	30.714	
C	 0.0282910174	-3.7356514831	 0.0091294579	-0.588419
C	 0.033168514	-2.527381767	 0.0107005489	 0.273119
C	 0.0364166331	-1.1696291751	 0.0133128457	-0.110283
C	 0.0569167996	 0.0428211081	 0.0063136361	 0.354712
C	 0.0521481205	 1.4563240977	 0.0041846157	 0.184245
C	 0.2613086657	 2.3402280809	-1.2002935519	-0.331909
C	 1.1739017182	 2.5019540085	-0.0132871405	-0.176601
C	 0.4051116013	 3.1405293133	 1.1340733373	-0.095628
O	-0.6755747592	 2.1752479008	 1.0138337925	-0.313925
H	 0.0260633585	-4.7973200605	 0.0071431882	 0.193208
H	 0.7089221771	 1.8543112651	-2.0604129037	 0.134629
H	-0.4996645033	 3.0837841605	-1.4212245823	 0.126914
H	 2.242881279	 2.3497746839	-0.0622288724	 0.119113
H	 0.9017047549	 3.0386183787	 2.1048610857	 0.119749
H	 0.0568374131	 4.1705635583	 0.9976138629	 0.111075
