19
gdb 89287	2.1781	1.82164	1.18035	4.2826	75.06	-0.2653	0.0105	0.2758	1097.4822	0.158428	-423.054709	-423.046148	-423.045204	-423.087741	32.631	
C	-0.5637185636	 1.3841633514	 0.0672601525	-0.410257
C	 0.0704284637	 0.0020363443	 0.0105944065	 0.025636
C	 1.3903155867	-0.1913205845	-0.8061279238	-0.303562
C	 2.0776645652	-0.7831747897	 0.4473747352	 0.45203
C	 2.9083022213	-2.0328679104	 0.3872032653	-0.482153
O	 2.7460438457	 0.2919400798	 1.2076902007	-0.287279
C	 1.6400784551	 0.4879282102	 2.0031377102	 0.453077
O	 1.5269176301	 1.2599166964	 2.9017588071	-0.337692
C	 0.7907445794	-0.5535249836	 1.2894624853	-0.305165
H	 0.1530008342	 2.1429403797	 0.3965570686	 0.138071
H	-0.9330397033	 1.6769025922	-0.9213938216	 0.118148
H	-1.4096063717	 1.4040181645	 0.7621186813	 0.126326
H	-0.6742982255	-0.7321800965	-0.3091583137	 0.087393
H	 1.2989832986	-0.8907021029	-1.6404117773	 0.108367
H	 1.8666439658	 0.7255169922	-1.1605157202	 0.118734
H	 3.8208812889	-1.857937537	-0.1926036863	 0.138165
H	 3.197413349	-2.3586703947	 1.3905863932	 0.134071
H	 2.3490514419	-2.8400800635	-0.0955878441	 0.125709
H	 0.2830736284	-1.2964807979	 1.9022252514	 0.100378
