15
gdb 13445	3.44847	1.7485	1.49581	2.7894	57.78	-0.2433	0.0048	0.2481	862.1062	0.11905	-436.932799	-436.925216	-436.924272	-436.96481	28.124	
O	-0.2976148818	 1.1396203392	-0.2965683916	-0.434878
C	-0.1393886675	-0.2184362171	-0.0610566534	 0.040961
C	-0.3410054882	-0.6227261186	 1.3720567511	 0.07066
O	-0.729183522	 0.3759321298	 2.2515929575	-0.42904
C	-1.3462587672	-1.070673398	 0.3074522219	-0.093747
N	-2.6598371977	-0.5003567357	 0.3548030878	-0.255491
C	-3.2227110905	 0.3076617067	-0.5706572445	 0.164404
O	-2.6727862829	 0.7649233784	-1.5604798435	-0.352558
H	-1.0087045501	 1.2240357727	-0.9614262906	 0.317706
H	 0.6297621045	-0.7120220419	-0.6527992506	 0.101831
H	 0.2941140206	-1.3771821337	 1.8255840313	 0.106608
H	-0.6798494022	 1.1997102894	 1.740840529	 0.297592
H	-1.3145234605	-2.1103766903	-0.0113930141	 0.107508
H	-3.2177052101	-0.7122595842	 1.1693417755	 0.26121
H	-4.2781836643	 0.5334101432	-0.3311589058	 0.097232
