23
gdb 70673	2.35307	1.60008	1.20684	0.209	90.36	-0.2333	0.0263	0.2596	1156.1125	0.207761	-351.162051	-351.153576	-351.152632	-351.194419	34.634	
C	 0.0986132529	 1.565106546	 0.1513802099	-0.465658
C	 0.047853316	 0.0520451163	 0.0700024031	 0.388331
C	-0.910380438	-0.6865926489	 0.9789569183	-0.372375
C	 0.5792265936	-0.7400446243	 1.2394493754	-0.015909
C	 1.3985864635	-1.9896851393	 0.9927867602	-0.238749
C	 2.7819414385	-1.6681482631	 0.4039814452	-0.236579
C	 2.7963685501	-1.0383673147	-0.96795277	-0.025941
C	 1.785535237	-0.5617108153	-1.6989945902	-0.060527
C	 0.3153858018	-0.5099508403	-1.3256444517	-0.339967
H	 1.0651169024	 1.9419095737	-0.203124	 0.119232
H	-0.6850519145	 2.023086158	-0.4645069477	 0.109582
H	-0.0397898628	 1.9142333618	 1.179648696	 0.108448
H	-1.531086592	-0.1070790504	 1.6548293022	 0.103539
H	-1.3904480496	-1.5831577656	 0.5978399416	 0.102432
H	 0.9318524106	-0.1443480687	 2.0796672586	 0.072967
H	 1.5267827091	-2.5415967346	 1.9322588129	 0.091135
H	 0.8669410049	-2.667805024	 0.3162897923	 0.098181
H	 3.3282939124	-1.0108040073	 1.0987304236	 0.103797
H	 3.3816037391	-2.5886146754	 0.3616010328	 0.098367
H	 3.7911756485	-0.9816443129	-1.409481788	 0.079444
H	 2.0316020323	-0.1723243982	-2.6850011279	 0.079599
H	-0.123891883	-1.5105275123	-1.4175357595	 0.107215
H	-0.2177900427	 0.1034147896	-2.061862907	 0.093434
