13
gdb 578	12.91115	1.97178	1.85558	3.3988	52.29	-0.2588	0.0211	0.2799	666.8787	0.107686	-286.46722	-286.46095	-286.460006	-286.497552	21.614	
N	-0.0887501197	 1.2144595276	-0.0185710641	-0.436181
C	-0.1890843797	-0.0234064962	 0.203038192	 0.127341
O	-1.0181528288	-0.7765942336	-0.5529258521	-0.185707
C	-1.0213050536	-2.1554252065	-0.2688806776	 0.12707
C	-1.8357154611	-2.6599224242	 0.8923725525	-0.287635
C	-2.3061865922	-2.8663181799	-0.5326780983	-0.27886
H	 0.569509413	 1.6303836439	 0.6371216764	 0.228909
H	 0.3374923857	-0.5984938595	 0.9761176595	 0.088277
H	-0.0861107106	-2.6537952406	-0.5126154829	 0.104413
H	-1.4630640065	-3.5101140331	 1.4526453059	 0.120774
H	-2.3611156118	-1.9176733644	 1.4824145275	 0.130903
H	-3.1313609088	-2.2527596653	-0.8745556023	 0.138508
H	-2.2645396959	-3.8599861383	-0.9629503265	 0.122188
