18
gdb 20062	4.67893	1.46063	1.30132	1.6971	72.77	-0.2399	0.0243	0.2642	985.7615	0.15491	-347.790329	-347.782972	-347.782028	-347.822813	27.475	
C	 0.2071618474	 1.4450242576	-0.0633350967	-0.18673
O	 1.0638261328	 0.3475474076	-0.3865549248	-0.23257
C	-0.276838971	 0.0612270412	 0.0187126821	 0.085267
C	-0.468155061	-0.7148791034	 1.3059981956	-0.063287
C	-0.0750883886	-2.2137212727	 1.1474060265	-0.220876
C	 0.5155647579	-2.6399100708	 2.5138175125	-0.25556
C	 0.8889615128	-1.3204293904	 3.1449717265	-0.070293
C	 0.3669357999	-0.2838214087	 2.4941405227	-0.055623
H	 0.4697623352	 1.9886436761	 0.8419334913	 0.113417
H	-0.0908353462	 2.0705462926	-0.9042884149	 0.11119
H	-0.9118688781	-0.2844271	-0.8009802093	 0.087468
H	-1.5370529466	-0.6284731674	 1.5620119759	 0.079255
H	-0.9135041506	-2.8381616929	 0.828649708	 0.094473
H	 0.7025927047	-2.2849795254	 0.3805064458	 0.121865
H	-0.2240659722	-3.1669716833	 3.1335429244	 0.104229
H	 1.3670785295	-3.3213703305	 2.408206421	 0.10555
H	 1.4809241579	-1.2519510667	 4.0512829575	 0.092037
H	 0.4649543362	 0.7521734672	 2.7972619259	 0.090188
