19
gdb 92585	2.69268	1.65504	1.40286	2.0991	76.5	-0.2388	0.0126	0.2514	1001.5054	0.161072	-423.015092	-423.007568	-423.006624	-423.046854	30.38	
O	 0.2789592252	 1.3807576569	-0.1286000387	-0.428848
C	 0.1230737653	-0.00944289	-0.0112614771	 0.122362
C	 0.2205662067	-0.5530286404	 1.4465905621	-0.273317
C	-1.3183539004	-0.5403084658	 1.5225501917	 0.087159
O	-1.7283913314	 0.7200157338	 2.0467205316	-0.275131
C	-3.0551522562	 1.0710275048	 1.6749814362	-0.130164
C	-3.2651803167	 1.0297546622	 0.1832746533	-0.087191
C	-2.4617899347	 0.3206367829	-0.6081323304	-0.060589
C	-1.3750259014	-0.5195742433	-0.0267598556	-0.091012
H	-0.3050701329	 1.7815358763	 0.5280543559	 0.282089
H	 0.7882698385	-0.4576348236	-0.7525695048	 0.082409
H	 0.6218677758	-1.5691600603	 1.4881575601	 0.102926
H	 0.7429246898	 0.0801652284	 2.1669149328	 0.111723
H	-1.832420674	-1.3567391874	 2.0476689443	 0.062531
H	-3.7819497182	 0.4194353451	 2.1914148382	 0.104743
H	-3.2123820475	 2.0853704906	 2.0577809239	 0.118422
H	-4.0909919127	 1.6118216469	-0.2158134617	 0.096156
H	-2.5883430957	 0.3328156272	-1.6872837716	 0.095419
H	-1.4031681496	-1.5388561041	-0.4280871804	 0.080312
