23
gdb 83638	2.14854	1.62869	1.35346	1.6939	84.55	-0.2367	0.0758	0.3125	1125.8659	0.205103	-388.265882	-388.256594	-388.25565	-388.299389	36.277	
C	-0.581974604	 1.3873529062	-0.0871176505	-0.421713
C	-0.0367583074	-0.0354224497	-0.0778322201	-0.027478
C	 1.1557280833	-0.3991966481	-1.0139238106	-0.100658
C	 2.2674667772	 0.6510731112	-1.1618265208	-0.08556
O	 2.9052357468	 0.2253637936	 0.0654057891	-0.291417
C	 1.9747857227	-0.8666218553	 0.2207951298	 0.086678
C	 0.7814579784	-0.5653875674	 1.1751832809	 0.295095
C	 1.0791389854	 0.4250627949	 2.2957142222	-0.444347
C	 0.1779533465	-1.858448573	 1.7274828938	-0.443786
H	 0.1822765571	 2.1344048369	 0.1447494765	 0.123163
H	-1.0027943017	 1.6351726822	-1.0683078098	 0.112463
H	-1.3823656336	 1.5017357583	 0.6517725963	 0.116232
H	-0.8690344582	-0.719486396	-0.2749918299	 0.068518
H	 0.9373498967	-1.017717601	-1.8837975073	 0.071979
H	 2.9244300375	 0.4826218697	-2.0252824473	 0.098655
H	 1.9815592729	 1.7091163944	-1.1396111448	 0.099925
H	 2.4840751552	-1.8302349679	 0.3272980999	 0.062804
H	 1.6121670399	 1.3028309659	 1.9255329538	 0.127912
H	 0.155547182	 0.7545489337	 2.7846201412	 0.106012
H	 1.7104083183	-0.0410038773	 3.0609158808	 0.110471
H	 0.8318934324	-2.3067625597	 2.4842770297	 0.112554
H	-0.795611522	-1.6672661715	 2.1933458997	 0.112945
H	 0.0250503944	-2.6017279502	 0.9362160373	 0.109553
