23
gdb 90704	3.16829	1.27234	1.03348	0.1151	90.88	-0.2307	0.0265	0.2572	1265.2768	0.206904	-351.165699	-351.156956	-351.156012	-351.198946	34.604	
C	-0.0865636691	 1.7762286747	 1.0277512969	-0.403495
C	-0.6987739551	 0.3917463472	 0.845710125	 0.030498
C	-0.3064297631	-0.3278723849	-0.4808688317	-0.245286
C	 0.6578640597	-1.2721554678	 0.3022726609	-0.015581
C	 0.0260591555	-0.7457813345	 1.6339660144	-0.064604
C	-0.842160755	-1.8993120668	 2.0602607085	-0.097411
C	-0.6497723433	-2.9881650462	 1.3156799167	-0.069975
C	 0.4170029242	-2.8014395442	 0.2521890366	-0.031623
C	 0.0611674566	-3.3853748675	-1.1213371159	-0.398983
H	 0.9968670941	 1.7573490511	 0.8605552304	 0.111768
H	-0.5178140443	 2.4955361107	 0.3225491686	 0.110646
H	-0.2581655672	 2.1560501397	 2.0413879297	 0.110639
H	-1.7777115414	 0.4398695515	 1.0277275043	 0.063004
H	-1.1452221809	-0.848809786	-0.9466673777	 0.098928
H	 0.1612809485	 0.3073705442	-1.2383304584	 0.091966
H	 1.7075202882	-1.0151073671	 0.1471435174	 0.060205
H	 0.6924481519	-0.4012304708	 2.4340045649	 0.061972
H	-1.543087603	-1.8248328613	 2.8861587374	 0.08688
H	-1.1689870526	-3.9328552248	 1.4478909679	 0.084989
H	 1.3348340967	-3.3113998199	 0.5855041822	 0.075084
H	-0.8684790823	-2.9651387548	-1.5165053636	 0.118083
H	 0.85548554	-3.1917590386	-1.8500054996	 0.111715
H	-0.0707259181	-4.4707568939	-1.0562442748	 0.110582
