15
gdb 125638	5.37244	0.86028	0.75968	1.6363	70.35	-0.2472	-0.021	0.2262	1427.6949	0.112426	-453.986817	-453.978381	-453.977437	-454.020742	29.624	
C	-0.3676832307	 1.3563546336	 0.2473550631	-0.489378
C	-0.0407985263	-0.0903184786	 0.0556286113	 0.367554
N	 0.2659193936	-0.5592703538	-1.1512321706	-0.276872
N	 0.4959329746	-1.8795286262	-0.9627851116	-0.264395
C	 0.3554373639	-2.2397614291	 0.3316388618	 0.46167
O	 0.5947232207	-3.532932061	 0.6921363758	-0.21949
C	-0.3357929587	-4.1523645945	 1.4887590877	 0.159758
O	-0.1581840188	-5.2457833598	 1.916663045	-0.24417
C	 0.0042988095	-1.1140479642	 1.0399705803	-0.414883
H	 0.3227858346	 1.8315546244	 0.9524033631	 0.132661
H	-0.3000838552	 1.8791387037	-0.7087877781	 0.144522
H	-1.3801032011	 1.4883538506	 0.6440959703	 0.131132
H	 0.7691092394	-2.4659770363	-1.7333666238	 0.284248
H	-1.2212774921	-3.5165338827	 1.6565252001	 0.11115
H	-0.1625654533	-1.033610756	 2.1013466455	 0.116494
