16
gdb 57012	3.21565	1.21804	0.93888	2.4012	70.59	-0.2498	0.0149	0.2648	1198.4891	0.123431	-437.852491	-437.843814	-437.84287	-437.886517	31.344	
O	-0.2550057068	 1.2916879599	 0.0388200863	-0.417482
C	 0.0451153492	-0.1003794338	 0.0380503823	-0.068453
C	 0.7048635262	-0.518458681	-1.1972214118	 0.289256
C	 1.2854895197	-0.8070754176	-2.2091667987	-0.428479
C	 0.8825305081	-0.4506690247	 1.2872087244	 0.071229
C	 0.1619486626	-0.1085832533	 2.6167366651	-0.202286
N	-0.1342244206	-1.4147994212	 3.2329960094	-0.258202
C	 0.3964630637	-2.2781480918	 2.4762375183	 0.119004
O	 1.0582799219	-1.8859186235	 1.3554387087	-0.225104
H	 0.5003867617	 1.7538111754	-0.3413526867	 0.291611
H	-0.9208172673	-0.6122187885	 0.1321001912	 0.129158
H	 1.7833648942	-1.0806745939	-3.1068621115	 0.205499
H	 1.8736821003	 0.0028554542	 1.1958883987	 0.096074
H	 0.78745974	 0.4827521337	 3.292743763	 0.117927
H	-0.7577333184	 0.4579179103	 2.4461722063	 0.136655
H	 0.3861282755	-3.3509418841	 2.632977995	 0.143592
