19
gdb 99627	2.2742	1.31025	1.04396	4.1255	76.39	-0.254	0.0236	0.2776	1229.5326	0.158137	-419.18049	-419.170833	-419.169889	-419.215529	34.868	
C	 0.5714675706	 1.4598960526	-0.4354779851	-0.433291
C	-0.0753337931	 0.1940660052	 0.078460697	 0.030137
C	 0.7206071292	-1.0363934759	 0.3319983632	-0.261828
N	 0.131803068	-0.2934557929	 1.4513835771	-0.123568
C	 0.9660506456	 0.453502008	 2.4063055154	-0.114515
C	 0.6568415375	-0.1103411339	 3.8129963905	-0.061718
O	 0.8493869902	-1.5001787494	 3.8673966812	-0.410507
C	 2.4122203913	 0.411667045	 2.132857477	 0.295545
N	 3.5430415288	 0.3769850155	 1.8936235744	-0.341252
H	 1.6281139929	 1.525844982	-0.1658934641	 0.14939
H	 0.5028554668	 1.4898581375	-1.5276155156	 0.132948
H	 0.0590410268	 2.3497390053	-0.0521546032	 0.125336
H	-1.1084403479	 0.0657084913	-0.2417628575	 0.099008
H	 0.297446773	-2.0219782017	 0.1579170857	 0.119828
H	 1.7966147715	-0.9709132513	 0.1882826839	 0.147634
H	 0.6613196861	 1.5076236257	 2.3907731515	 0.12645
H	 1.3217743206	 0.3409622054	 4.5551483575	 0.124901
H	-0.3787793543	 0.1733642217	 4.0513612224	 0.100326
H	 0.2535517964	-1.87625774	 3.2077418687	 0.295176
