13
gdb 130334	3.52793	1.15398	0.87167	1.9817	64.21	-0.2483	-0.0413	0.207	1220.0206	0.089034	-486.010977	-486.002945	-486.002001	-486.044563	28.439	
N	 0.0644974208	 1.3502582908	 0.1859690558	-0.59256
C	 0.0560588417	-0.0129584227	 0.0376409338	 0.28537
N	-1.0055163874	-0.7737349803	 0.030507606	-0.161182
O	-0.5320613431	-2.0733907892	-0.0603347628	-0.175442
N	 0.8353621494	-2.1046750849	-0.1282211713	-0.174411
C	 1.2052316472	-0.8618339741	-0.0628325851	 0.404844
O	 2.4633461693	-0.3826178651	-0.1067425465	-0.230597
C	 3.5116265323	-1.2671464926	 0.0135723286	 0.111404
N	 4.6717973499	-0.8181401895	-0.1466552943	-0.418982
H	 0.8688747167	 1.8146712372	-0.2086178812	 0.27514
H	-0.8114386833	 1.8073779724	-0.0203542368	 0.273633
H	 3.1877530453	-2.2820275614	 0.2506963672	 0.154827
H	 5.3571143014	-1.5592928805	-0.0129910834	 0.247956
