17
gdb 73754	2.51903	1.55035	1.03489	2.1107	84.25	-0.2237	-0.0265	0.1972	1146.8307	0.134468	-384.658964	-384.650637	-384.649693	-384.691671	31.854	
C	 0.0737089252	 1.5002022319	 0.120807121	-0.509885
C	 0.0016593729	 0.0138791563	 0.0220087808	 0.192407
C	-0.0345848278	-0.724851194	-1.1098153356	 0.143699
C	-0.0657305884	-0.248925027	-2.4404508924	 0.198301
C	-0.10715166	 0.1195093006	-3.5878701189	-0.433781
C	 0.0007675193	-2.1884694472	-0.7705186471	-0.093117
O	 1.1999429779	-2.5775375463	-0.0686807796	-0.252963
C	 0.0287676046	-2.2838817575	 0.6962304466	 0.03783
C	-0.0073016795	-0.869552817	 1.2565259264	-0.323266
H	 1.0079286622	 1.8143432975	 0.6039391556	 0.136006
H	 0.0231035008	 1.9670531224	-0.8652473218	 0.142559
H	-0.7436370696	 1.8937293243	 0.7385169922	 0.128824
H	-0.1331798035	 0.450757409	-4.5962281328	 0.190566
H	-0.4174258937	-2.9365004644	-1.4360579281	 0.101487
H	-0.3917889187	-3.1173072078	 1.2518801531	 0.097587
H	 0.8499967078	-0.6677517591	 1.9109282528	 0.128115
H	-0.9108658594	-0.7006248817	 1.8582302877	 0.11563
