21
gdb 69842	2.20921	2.03994	1.49953	1.204	81.43	-0.2416	0.075	0.3166	993.4502	0.183519	-387.054048	-387.046167	-387.045223	-387.085545	33.207	
C	-0.1605190348	 1.4740414014	-0.0020448051	-0.521508
C	-0.0134512421	-0.0296463158	 0.0390079838	 0.291093
C	 0.8699696655	-0.8397197751	-0.9839093886	-0.253068
C	 0.7495351416	-1.9441110133	 0.1228605725	-0.041951
C	 0.8147801214	-0.7666081682	 1.1305590871	-0.278384
C	-0.7547128915	-2.2665179005	 0.0152052049	-0.082712
C	-1.7306446406	-1.7818417204	 1.0774174714	-0.386988
C	-1.3145365064	-0.8732739276	-0.0541032148	 0.380378
O	-2.2306915072	-0.5219753147	-1.0479683021	-0.473265
H	 0.8148258084	 1.9701190506	-0.0278439346	 0.114328
H	-0.7186908199	 1.7849990935	-0.8917833663	 0.120309
H	-0.6979770256	 1.8441539037	 0.8797749005	 0.110667
H	 0.4323596419	-1.0515206603	-1.9629587634	 0.100403
H	 1.8814645371	-0.4361786806	-1.0905968837	 0.084037
H	 1.4426875899	-2.7831583722	 0.1840892224	 0.059093
H	 1.8250170962	-0.3552708886	 1.2001511473	 0.093023
H	 0.4077989518	-0.8827505426	 2.1363378886	 0.08938
H	-1.0815771306	-3.0338728137	-0.6768281301	 0.094021
H	-2.7331994472	-2.1844054137	 0.9680962441	 0.109953
H	-1.4347509747	-1.6179172653	 2.106986347	 0.109037
H	-2.8022881432	 0.1678613432	-0.6938529309	 0.282153
