19
gdb 39418	2.43819	1.96139	1.36411	2.3503	74.21	-0.2376	0.0815	0.3191	982.0227	0.161517	-422.983083	-422.97572	-422.974775	-423.014719	29.38	
C	-0.0322953542	 1.4090669133	-0.0722459131	-0.31105
C	 1.3390546007	 0.7878703126	 0.0879499662	-0.070294
C	 2.0632848319	 0.9686023555	 1.4059726949	-0.063606
O	 2.7103856244	-0.1900844999	 1.9318209566	-0.264696
C	 2.1157662786	-1.4584228596	 1.7684110635	-0.106173
C	 0.610256497	-1.589260469	 2.0156924276	 0.031487
O	-0.1166924665	-0.4480379884	 2.4771016046	-0.244477
C	-0.3654484381	-0.9143423394	 1.1447272381	 0.022926
C	 0.1076095222	-0.0886569285	-0.0085821752	-0.024977
H	-0.4439203021	 1.9064327095	 0.7999599639	 0.128566
H	-0.2971272073	 1.8638636324	-1.0200430565	 0.114298
H	 1.9761912968	 0.7840987865	-0.7916848848	 0.090165
H	 2.8705213795	 1.6979496634	 1.274539963	 0.100356
H	 1.3707455892	 1.3626968788	 2.1541050393	 0.11458
H	 2.3158230489	-1.8618570086	 0.7609506895	 0.093514
H	 2.6439600214	-2.1032043862	 2.4785859506	 0.113061
H	 0.3159365259	-2.5257913092	 2.4928607373	 0.093487
H	-1.3508823809	-1.3660823408	 1.0203282131	 0.091629
H	-0.0143783376	-0.6132883623	-0.9536905887	 0.091204
