22
gdb 104699	2.00073	1.34849	0.9838	4.0257	82.64	-0.2436	0.0383	0.282	1324.2017	0.192674	-404.386141	-404.375946	-404.375002	-404.421787	37.679	
C	 0.1743230653	 1.4647702724	 0.096117014	-0.394881
C	 0.0020046852	-0.0533286865	-0.0242189033	-0.215106
C	-1.4384858143	-0.565041956	 0.148537852	 0.346403
C	-2.3703168033	-0.0621674697	-0.9672487108	-0.231437
C	-3.8378239753	-0.4878971499	-0.8647350426	-0.397964
C	-1.5031442857	-2.0966897816	 0.4730109505	-0.458632
C	-2.0105005678	-1.6778722412	 1.8723827532	 0.440207
O	-2.3260752901	-2.2413780513	 2.8861947655	-0.366173
N	-1.9622410303	-0.3524049883	 1.5190315282	-0.347796
H	 1.2334037893	 1.734453662	 0.0480003526	 0.121716
H	-0.3375444061	 2.0069641185	-0.7040357089	 0.122962
H	-0.2114725516	 1.8328654711	 1.053449824	 0.111875
H	 0.3751533728	-0.3926233332	-0.9989437403	 0.101005
H	 0.6241865319	-0.5412126146	 0.7352230257	 0.101215
H	-2.3269734337	 1.0335244891	-0.9877247289	 0.101863
H	-1.9521499262	-0.3954757616	-1.9258025652	 0.103916
H	-3.9646616975	-1.5706951468	-0.9572444928	 0.122381
H	-4.2744426468	-0.1829584487	 0.0903856739	 0.126233
H	-4.4218023054	-0.0234265043	-1.6647650795	 0.116308
H	-2.2196521569	-2.6813583493	-0.1045699687	 0.127735
H	-0.5383677323	-2.6073364961	 0.4805811946	 0.124639
H	-2.1554590513	 0.483239226	 2.0519206668	 0.243531
