17
gdb 28173	4.95815	1.21527	0.98692	1.4505	82.94	-0.1739	0.0145	0.1884	1166.7156	0.138852	-380.90697	-380.899216	-380.898272	-380.939736	29.996	
N	 0.1798165417	 1.3898801873	-0.0221415227	-0.612197
C	-0.0059765169	-0.0136192506	-0.0193431218	 0.273575
C	-1.1215415689	-0.83052136	-0.0889745318	-0.422235
C	-0.6418995524	-2.1698099517	-0.0676690088	 0.32215
C	 0.7355811503	-2.122911665	 0.0164122294	 0.283456
C	 1.3355672226	-3.4924224561	 0.0577595189	-0.419456
C	 0.0743540745	-4.3486583619	-0.0218817503	-0.091095
C	-1.0313005164	-3.5796609497	-0.0919695438	-0.198829
N	 1.1231228114	-0.8179743781	 0.0439881547	-0.383777
H	-0.3676752183	 1.8311577902	-0.7526428442	 0.243425
H	-0.1010835863	 1.8125758031	 0.8577675178	 0.241757
H	-2.1427233621	-0.4832332775	-0.1407358051	 0.082643
H	 2.0162724331	-3.7023954164	-0.778761763	 0.122761
H	 1.9011108627	-3.6965317809	 0.9773964096	 0.123084
H	 0.1072975963	-5.4298008811	-0.0214124343	 0.089357
H	-2.0483427752	-3.9465135431	-0.1563445711	 0.089514
H	 2.0555450237	-0.4412400284	 0.0679369563	 0.255866
