11
gdb 1032	8.39202	2.03273	1.63636	6.8913	55.26	-0.2422	-0.0372	0.205	686.5487	0.080548	-339.481708	-339.476121	-339.475177	-339.511215	19.978	
O	-0.0721472185	-0.0259069993	-0.0010336721	-0.265297
C	 0.0197042378	 1.1779215412	 0.007867802	 0.082546
C	 1.2664064616	 1.9453855526	 0.0009924659	 0.182848
C	 1.3557829124	 3.322781016	 0.0114240076	-0.142569
N	 2.6927850243	 3.6001839658	-0.0007830682	-0.234333
C	 3.3559527408	 2.3975155665	-0.017310249	 0.026366
N	 2.5316970571	 1.3864860821	-0.0169214334	-0.277692
H	-0.8878443531	 1.8266191678	 0.0227380527	 0.057863
H	 0.6060303847	 4.0969880428	 0.0256901276	 0.150911
H	 3.1111353332	 4.5161588857	 0.0021201011	 0.276337
H	 4.4346905996	 2.3415211289	-0.0291527342	 0.143021
