16
gdb 48552	3.0013	1.48267	1.42789	2.3496	69.49	-0.2296	-0.0276	0.202	965.2994	0.125706	-437.842967	-437.835974	-437.835029	-437.874687	26.855	
O	-0.1329556623	 0.020800122	-0.1066753906	-0.269271
C	-0.0031532284	 1.2077192104	 0.0842209338	 0.024007
C	 1.2688854363	 1.9204340453	-0.0016733651	 0.213704
C	 1.914177857	 3.0148772779	 0.8710639916	-0.111225
N	 3.1648669483	 2.2596100594	 0.9405134149	-0.312516
C	 2.7016201651	 1.3787180147	-0.186069994	-0.091593
C	 3.1148334593	 1.9641408792	-1.5310835317	-0.097353
O	 2.5475991242	 3.2893747208	-1.5254774103	-0.2686
C	 1.5361072174	 3.31061816	-0.5534232601	 0.050977
H	-0.8751200249	 1.852126521	 0.3404790369	 0.069855
H	 1.4987906228	 3.5255620145	 1.7340212522	 0.109445
H	 3.9789431284	 2.8236996161	 0.6950566803	 0.223292
H	 2.8865139617	 0.3144325335	-0.0454607099	 0.108681
H	 4.1991458586	 2.0576437337	-1.6501731102	 0.116189
H	 2.7113505532	 1.3780923587	-2.3698715586	 0.113975
H	 0.7165791734	 3.9849017931	-0.7750783793	 0.120433
