19
gdb 39629	3.83011	1.24473	1.17469	1.8878	75.54	-0.2362	0.0773	0.3135	1119.4119	0.159625	-422.934793	-422.927072	-422.926128	-422.967843	29.518	
C	-0.0504585049	 1.0624541083	-0.3261927799	-0.056164
C	 1.4359518797	 1.3989329705	-0.0945875586	-0.300773
C	 1.4350498394	 0.1227927051	 0.7802690246	-0.015284
O	 0.0311710989	-0.1027715065	 0.5259585037	-0.287789
C	 2.283611134	-1.0114533409	 0.2998347613	 0.433589
C	 3.8188794147	-1.2226275411	 0.4103723483	-0.268642
C	 3.2185708864	-2.2920402511	-0.5318595346	 0.047968
C	 2.0721979314	-2.5396404294	 0.4738971542	-0.2549
O	 2.3992035113	-1.2359038772	-1.1706292024	-0.345935
H	-0.7711061648	 1.794305602	 0.0574183755	 0.100865
H	-0.3211594208	 0.7945106889	-1.3534963442	 0.114479
H	 2.0724217041	 1.3324958507	-0.9767067664	 0.13204
H	 1.6312373774	 2.3286492332	 0.4403940603	 0.109429
H	 1.626525448	 0.280106288	 1.8512074756	 0.0784
H	 4.4308409366	-0.4639266803	-0.0792238987	 0.106703
H	 4.2238910275	-1.5475757797	 1.3722855162	 0.095562
H	 3.7263716453	-2.9936797244	-1.1928911081	 0.09653
H	 2.318727528	-2.9844254801	 1.4411917346	 0.09359
H	 1.1460315876	-2.919482786	 0.0443805186	 0.120333
