23
gdb 108329	2.43248	1.5973	1.26879	0.2588	88.08	-0.2296	0.0848	0.3145	1135.9008	0.206724	-351.10849	-351.100102	-351.099158	-351.141005	34.207	
C	 0.1227981007	 1.5196175089	-0.1733532411	-0.38324
C	-0.0353826506	 0.0254088949	 0.1333256409	-0.287005
C	-1.4569166115	-0.5073164949	 0.0574942263	 0.389933
C	-1.6250281276	-2.0615245083	 0.0010278972	-0.305658
C	-2.4762773236	-1.9221831385	-1.3030543321	-0.239903
C	-2.3364611183	-0.373423494	-1.2280672678	-0.065353
C	-3.37588892	 0.4400776156	-0.4241289362	-0.052544
C	-3.9006872405	-0.3099568861	 0.7667948592	-0.30602
C	-2.5276526884	 0.2944650142	 0.8471886897	-0.098034
H	 1.176466839	 1.8124582074	-0.1318332214	 0.110446
H	-0.2486037493	 1.7616677782	-1.1747018289	 0.116637
H	-0.422688375	 2.143709227	 0.5405933579	 0.118157
H	 0.5885584252	-0.5494132091	-0.5639085706	 0.090826
H	 0.3636723195	-0.1846503672	 1.1368106828	 0.09397
H	-0.6782909629	-2.5876604603	-0.1504445888	 0.092254
H	-2.1293092802	-2.5165435671	 0.8574531376	 0.096685
H	-1.9893853346	-2.3522600059	-2.1818230941	 0.095883
H	-3.4964529954	-2.3127099342	-1.2585985238	 0.098617
H	-1.9557194606	 0.1371052932	-2.1139847183	 0.060678
H	-3.8908107661	 1.3149955965	-0.8042284333	 0.07949
H	-4.6580859747	 0.2219098962	 1.3350677703	 0.1075
H	-4.0572285993	-1.3837228757	 0.7457410093	 0.109326
H	-2.2938943358	 1.0371436693	 1.6022203753	 0.077355
