12
gdb 43427	3.08806	1.50666	1.01261	2.7945	65.21	-0.2733	-0.1299	0.1434	1044.8281	0.078729	-472.707137	-472.70007	-472.699126	-472.739151	25.893	
O	 0.0248182164	-0.0756281651	 0.0028234308	-0.328569
C	 0.0214065863	 1.1351588421	 0.0089394083	 0.458661
N	-1.1699712933	 1.8564024379	 0.0285792975	-0.427914
C	-1.3243750817	 3.2354898429	 0.0380161552	 0.358312
O	-2.4049665889	 3.7648997427	 0.0552037728	-0.297355
C	-0.0048220949	 4.046140587	 0.0249214937	 0.263831
O	-0.0468142986	 5.2522261204	 0.0318706428	-0.273162
C	 1.2582737278	 3.2822800504	 0.0043728463	-0.139674
C	 1.264968302	 1.9443002869	-0.0028485572	-0.190682
H	-2.0219459603	 1.3065524574	 0.0369690549	 0.274357
H	 2.1700514161	 3.8705040391	-0.0043796099	 0.148771
H	 2.1776355889	 1.3596266583	-0.0178415953	 0.153424
