20
gdb 108654	1.92399	1.66926	0.97094	5.4734	85.5	-0.2112	-0.0067	0.2045	1255.2823	0.171258	-403.211957	-403.202368	-403.201424	-403.246957	35.325	
C	-0.059934154	 1.5886910874	 0.1031714019	-0.370073
C	-0.0259570809	 0.0515984471	 0.0219638461	-0.313445
C	 0.7204378576	-0.4610310664	-1.1743117722	 0.101896
C	 2.017160484	-0.8599873237	-1.2577384682	 0.278941
N	 2.9319660904	-0.9326668568	-0.2498590696	-0.58153
C	 2.4102635845	-1.3163884811	-2.6454554473	-0.315324
C	 1.1287568248	-1.1337724894	-3.4759729252	-0.332529
C	 0.0867334442	-0.5863770491	-2.483017882	 0.342329
O	-1.0651719882	-0.3129282351	-2.7633240045	-0.371368
H	 0.9490776337	 2.0086241652	 0.1795983255	 0.10006
H	-0.5286498277	 2.0018881032	-0.7940542125	 0.141341
H	-0.6335322745	 1.9242093617	 0.9733055282	 0.108975
H	 0.3953309753	-0.3627231879	 0.9477576269	 0.080181
H	-1.0559861861	-0.3165617451	-0.0434104611	 0.125838
H	 2.7442737465	-0.4491114037	 0.6130380087	 0.262864
H	 3.905760703	-1.021765302	-0.4880072519	 0.257866
H	 3.249720369	-0.7185528587	-3.0233024853	 0.111617
H	 2.7566327961	-2.3566904969	-2.6207055641	 0.120902
H	 1.2533768075	-0.4289933958	-4.3029870259	 0.125041
H	 0.7647868149	-2.069767083	-3.9089998074	 0.12642
