15
gdb 20434	4.88283	2.16617	1.54207	3.5299	67.1	-0.1986	0.0399	0.2385	787.2373	0.12397	-358.858273	-358.852311	-358.851367	-358.888275	23.218	
C	 0.0441472183	 1.4546535995	 0.0680922588	-0.179639
C	 1.5310646139	 1.8468968316	-0.1389976744	-0.167052
N	 2.1527183203	 0.5539896402	 0.0518429191	 0.045963
N	 3.4487545558	 0.1668122293	 0.1117478937	-0.307261
C	 3.3597950905	-1.1615593172	 0.0601070432	 0.017563
C	 2.026458922	-1.6356148848	-0.0741419462	-0.383815
C	 1.2851428175	-0.4711658707	-0.0918852537	 0.437108
N	-0.0049549153	 0.0190708727	-0.3109514958	-0.410947
H	-0.2324924946	 1.6007603612	 1.1209841427	 0.115048
H	-0.6319248149	 2.0445190701	-0.5544495353	 0.123254
H	 1.7194930731	 2.228348181	-1.1502820899	 0.128075
H	 1.8805627656	 2.5841944149	 0.5865637294	 0.134032
H	 4.2612371018	-1.7546785694	 0.1248852577	 0.10565
H	 1.6827911707	-2.6533639675	-0.1458945974	 0.096563
H	-0.7469436848	-0.501021011	 0.1375551181	 0.24546
