18
gdb 45524	3.28397	1.46526	1.08788	3.7201	80.84	-0.215	-0.0027	0.2123	1099.6398	0.150459	-401.992619	-401.985319	-401.984375	-402.024382	28.852	
O	 0.0449885647	 0.0083486093	 0.3481928508	-0.351425
C	-0.0409484728	 1.1717494963	 0.0684220104	 0.407749
C	-1.1741572726	 2.2104609265	-0.1182713141	-0.421704
C	-0.0370712759	 3.2432196813	-0.3606483162	 0.056825
C	 0.2566243763	 4.3532623558	 0.6432838728	-0.235457
C	 1.7410291134	 4.7678344934	 0.5159533301	-0.266185
C	 2.6721190645	 3.575464703	 0.4878145234	-0.109704
C	 2.2474214391	 2.3411870579	 0.1941191162	-0.00736
N	 0.9240550366	 2.1419676024	-0.1883262031	-0.094299
H	-1.8536327313	 2.0277540474	-0.9526068247	 0.132246
H	-1.7524733653	 2.3701549859	 0.7950283887	 0.134359
H	-0.0128073305	 3.6359320213	-1.3840948599	 0.088448
H	-0.4012990902	 5.2130283146	 0.4840003483	 0.104951
H	 0.0708174273	 3.9779170204	 1.6568359555	 0.108576
H	 1.8803470889	 5.3815861106	-0.3857883663	 0.113756
H	 2.0086718099	 5.4190015694	 1.3562877529	 0.1117
H	 3.7152669717	 3.7297437276	 0.7391202002	 0.097497
H	 2.8690327462	 1.4545296569	 0.2305077951	 0.130026
