23
gdb 79518	2.87772	1.53871	1.24976	0.2032	88.84	-0.2834	0.0835	0.3668	1123.249	0.207859	-351.128172	-351.120143	-351.119198	-351.160291	32.975	
C	-0.1557067047	 1.5654709916	-0.0736730711	-0.40364
C	 0.0377268587	 0.0479013896	-0.0050213901	-0.016173
C	 0.9195572772	-0.5034320835	-1.1292631602	 0.012276
C	 1.3802271095	-1.9514523773	-0.7697404402	-0.078664
C	 2.7182695586	-1.6951171101	-1.5005433657	-0.241873
C	 2.4265614305	-0.3917082371	-0.7203667346	-0.05713
C	 1.9528675371	-1.2482336126	 0.5014019866	 0.012277
C	 0.8241845973	-0.5189686367	 1.2360830855	-0.016174
C	 1.3268348017	 0.496873754	 2.2659151511	-0.40364
H	 0.7994910144	 2.1001526091	-0.0863403036	 0.113796
H	-0.6947102038	 1.8380829016	-0.9875717087	 0.108577
H	-0.736973343	 1.9411486681	 0.7743533684	 0.111348
H	-0.9538520031	-0.4199045532	-0.0516214703	 0.063961
H	 0.6381398098	-0.2820292481	-2.1622907024	 0.052379
H	 0.7636563301	-2.8532468778	-0.7909271746	 0.060145
H	 3.5800894929	-2.2837263237	-1.1716391553	 0.085023
H	 2.6797615553	-1.6347773044	-2.5924446867	 0.085023
H	 3.0342449565	 0.515077822	-0.6912675237	 0.062427
H	 2.7044963811	-1.7714433032	 1.098617822	 0.052379
H	 0.1956682976	-1.248464045	 1.7624352551	 0.063961
H	 2.0077503565	 1.2292577581	 1.8204778307	 0.113796
H	 0.5030556051	 1.0472977434	 2.7312915043	 0.111348
H	 1.8740550849	-0.013401825	 3.0660538334	 0.108577
