17
gdb 91222	2.08464	1.65866	1.57175	3.7234	68.78	-0.2215	0.0251	0.2466	985.5318	0.13607	-455.135448	-455.12677	-455.125826	-455.16868	32.481	
N	 0.0125746789	 1.4815686029	-0.1650783954	-0.607275
C	-0.0497459393	 0.0538499235	-0.0447677767	 0.164984
C	 0.3617654791	-0.7431935859	-1.3121727735	 0.078361
O	 1.6191192952	-1.361435576	-1.2025959998	-0.419197
C	-0.9290492118	-1.6193825855	-1.227862641	-0.279734
C	-1.3720805678	-0.8143745008	 0.0206294315	-0.01507
N	-0.8755002545	-1.3518896859	 1.2867821414	-0.328986
C	 0.3348075882	-0.6757814407	 1.2754954156	 0.365387
O	 1.2630491194	-0.6592226866	 2.0356332038	-0.356062
H	-0.0787877669	 1.92591146	 0.7440390929	 0.239767
H	 0.9242375034	 1.7512965918	-0.5244828133	 0.243619
H	 0.3155832132	-0.0674177291	-2.1777595632	 0.082535
H	 1.8138580908	-1.8077691867	-2.0328667337	 0.28802
H	-1.5849225774	-1.5134982963	-2.0949229001	 0.106624
H	-0.7469733836	-2.6794156542	-1.0358218132	 0.102188
H	-2.3696606349	-0.3778181277	 0.0548711096	 0.090201
H	-1.0932974319	-2.2324227729	 1.7333773052	 0.244639
