14
gdb 123331	4.61506	1.0972	0.89494	2.3639	74.46	-0.2403	-0.076	0.1643	1210.3135	0.101081	-395.702013	-395.694334	-395.69339	-395.735722	27.794	
C	-0.4992444391	-0.7217306517	-1.0692149027	-0.427356
C	-0.1599169727	 0.1265868561	-0.2891217258	 0.291869
C	 0.2479974213	 1.1584055337	 0.6551468015	-0.444322
C	 1.5454964178	 1.8657356153	 0.3086493457	 0.324046
C	 2.1837483698	 1.7724120898	-0.9331729304	-0.032241
N	 3.3056808003	 2.436865561	-1.172842901	-0.234499
C	 3.7487441356	 3.1726021512	-0.1487483227	 0.106637
N	 3.1840651132	 3.290728616	 1.0519335939	-0.184274
N	 2.0599563723	 2.6208667758	 1.2799857415	-0.226211
H	-0.8046419725	-1.4777304351	-1.7500149161	 0.207026
H	-0.5423048466	 1.9164291046	 0.7394404863	 0.166314
H	 0.3545849336	 0.7369705501	 1.6613575484	 0.168628
H	 1.7776085512	 1.1514881488	-1.7264192818	 0.144292
H	 4.6651910158	 3.7362874844	-0.2959323867	 0.140092
