14
gdb 132629	3.23297	1.34678	0.95159	2.9544	69.06	-0.2089	-0.0178	0.1911	1125.8639	0.101969	-478.032219	-478.024732	-478.023787	-478.063895	29.284	
N	-0.0412710984	 1.4190205838	-0.1151935091	-0.594218
C	 0.0071461926	 0.0266091357	-0.0466612264	 0.294978
C	-1.1641082751	-0.7381808567	 0.0001416132	-0.081538
N	-1.1591883896	-2.0762294246	 0.0031789091	-0.303403
C	-0.0108080128	-2.6827554285	-0.036532071	 0.204124
F	 0.0072568919	-4.0324805295	-0.0308292499	-0.101333
C	 1.2330186336	-2.0421218695	-0.0809501861	 0.246182
O	 2.3945054223	-2.7395679883	-0.1155438732	-0.436975
C	 1.2314825385	-0.6575739625	-0.0861389375	-0.24533
H	 0.7715648287	 1.8908986999	 0.2536518134	 0.250747
H	-0.8936275432	 1.8260344199	 0.2422023259	 0.251478
H	-2.1368139925	-0.2545086189	 0.0325719217	 0.100087
H	 2.1690660485	-3.6782737663	-0.1063091886	 0.306431
H	 2.1758845755	-0.1254270747	-0.1261451515	 0.10877
