17
gdb 3319	6.19942	1.8862	1.72927	1.5634	63.72	-0.232	0.0879	0.3199	790.315	0.148256	-309.678068	-309.671194	-309.67025	-309.708832	25.961	
C	-0.0334017809	 1.5002907771	-0.1473591289	-0.378391
C	 0.0262331456	 0.0100068466	 0.2038262971	-0.195814
C	-1.3347413519	-0.6560538181	 0.1208365133	 0.158529
O	-1.942146307	-0.596408483	-1.2107195539	-0.308269
C	-2.2023711792	-2.0007780874	-1.1652106882	 0.114504
C	-0.9287442898	-2.7809393969	-1.1330177334	-0.297361
C	-1.4794087273	-2.1796588666	 0.1474873375	-0.155338
H	 0.958516558	 1.958715316	-0.0956543092	 0.110558
H	-0.4227075368	 1.6380632008	-1.1599971953	 0.138031
H	-0.6900548017	 2.0444458924	 0.5406012587	 0.112432
H	 0.7255877363	-0.5040771677	-0.4644910072	 0.099549
H	 0.4058876914	-0.1259683139	 1.2253683674	 0.09674
H	-2.0277171387	-0.1889072694	 0.8347811455	 0.077023
H	-3.1586291149	-2.3530176752	-1.5340036105	 0.101844
H	-1.0387548769	-3.8594444435	-1.1949418796	 0.113147
H	-0.0413164636	-2.3814518283	-1.6145631051	 0.116181
H	-1.7294269025	-2.7734606029	 1.0159879019	 0.096634
