21
gdb 112745	2.49961	1.19614	0.92178	2.1591	78.99	-0.2518	0.0597	0.3115	1343.4211	0.180823	-424.195301	-424.185706	-424.184762	-424.229808	35.76	
C	 0.009924967	 1.5681746383	-0.1066088341	-0.382204
C	 0.0448943077	 0.0436068978	 0.0424909743	-0.199362
C	-1.3409005154	-0.5892434752	 0.0488661299	-0.056923
C	-2.1749802491	-0.6295236925	-1.2721273116	-0.288022
C	-2.6330424851	-2.0773105509	-0.9102853777	 0.039495
O	-2.598473841	-3.0814744588	-1.8949219236	-0.431887
C	-1.4784404918	-2.1172132806	 0.0828441374	 0.419871
C	-0.4431406324	-3.1468398612	 0.1686867532	-0.257606
O	-1.4026681395	-2.9484042564	 1.2219827827	-0.284136
H	 1.0195973334	 1.9901321678	-0.1072730768	 0.113256
H	-0.4755076355	 1.8645148301	-1.0426992701	 0.118724
H	-0.5454133464	 2.0326574416	 0.7157429367	 0.115651
H	 0.6351668568	-0.3940073759	-0.7728012205	 0.094695
H	 0.5606494786	-0.220747762	 0.9749668486	 0.104095
H	-1.9421421356	-0.1581007621	 0.8593307207	 0.080399
H	-2.9508685085	 0.1259037928	-1.4081694306	 0.097286
H	-1.5270285399	-0.6538834884	-2.1532708092	 0.108352
H	-3.5939991389	-2.0669577375	-0.3764344653	 0.078701
H	-3.4324575249	-3.0716435435	-2.3739154594	 0.287072
H	-0.5635239349	-4.0644784172	-0.4027657499	 0.129869
H	 0.5807099456	-2.8710461661	 0.4159073155	 0.112675
