12
gdb 19784	3.42359	2.62755	1.78746	3.5541	53.11	-0.2504	-0.0595	0.1909	697.8175	0.083809	-418.433717	-418.427942	-418.426997	-418.463625	22.071	
O	 0.001515132	 0.0155674373	-0.0179975282	-0.295755
C	-0.0146211492	 1.2175725121	 0.0190398708	 0.415252
C	-1.2618158297	 2.0910927423	-0.0558281345	-0.095498
O	-1.3423696207	 3.1310182987	 0.9288170041	-0.21621
C	-0.8185919055	 3.4690617268	-0.3463991785	 0.011178
C	 0.7145975682	 3.4903841213	-0.3704257631	 0.011178
O	 1.287263812	 3.1675904776	 0.8876086669	-0.216211
C	 1.2048474074	 2.1253980706	-0.0944825636	-0.095498
H	-2.2000167824	 1.6458523752	-0.3738001515	 0.123614
H	-1.3947541809	 4.1668942976	-0.9459784519	 0.117168
H	 1.2520684295	 4.2037052237	-0.9874563734	 0.117168
H	 2.1446429294	 1.7062765168	-0.4418839572	 0.123614
