22
gdb 112180	2.37139	1.23228	1.02657	2.681	83.87	-0.257	0.035	0.2919	1317.7677	0.192401	-404.36903	-404.358795	-404.357851	-404.404059	37.721	
C	-0.0937795143	 1.6303835176	-0.1047213441	-0.386517
C	-0.0636197599	 0.1614291158	 0.331558038	-0.200537
C	-1.3489411538	-0.5648336343	-0.0107263952	 0.122055
O	-1.5430798745	-0.6789570719	-1.4678546627	-0.281743
C	-1.6391514376	-2.0493505493	-1.3924734432	 0.425114
N	-1.8147359864	-2.9085225385	-2.2899017705	-0.556462
C	-1.4674456091	-2.1185696207	 0.1170711744	 0.121592
C	-0.2345729487	-2.8969338781	 0.5768188999	-0.444368
C	-2.7267038214	-2.5913959696	 0.8478196831	-0.441155
H	 0.8478622315	 2.1311940068	 0.1376147365	 0.116003
H	-0.2531316033	 1.7079080886	-1.183961547	 0.138488
H	-0.9021581461	 2.1761048205	 0.3941795184	 0.116265
H	 0.7817497822	-0.348565375	-0.1420529332	 0.107964
H	 0.090123234	 0.0917160941	 1.4162755462	 0.103847
H	-2.2102337576	-0.0381948945	 0.4172598719	 0.082857
H	-1.8957298258	-2.475186385	-3.2115023758	 0.223623
H	 0.6706110135	-2.5962968762	 0.0440376204	 0.124393
H	-0.0642525985	-2.7621982073	 1.6503495172	 0.115232
H	-0.3869058706	-3.9635322919	 0.3881081836	 0.137984
H	-2.8993358332	-3.6542250802	 0.6554320823	 0.137591
H	-2.6211375432	-2.4509775787	 1.92931901	 0.114762
H	-3.6132598871	-2.0425546823	 0.5160334298	 0.123013
