16
gdb 80199	2.23506	1.59934	1.20054	2.669	78.44	-0.2485	0.0076	0.2561	1083.248	0.122383	-400.687406	-400.67896	-400.678016	-400.720295	31.94	
C	 0.018500151	 1.5627249248	 0.0494724671	-0.423414
C	 0.0970458239	 0.0547800319	 0.0778929564	-0.07515
C	 1.3345891316	-0.7309495367	-0.1415527937	 0.026756
O	 2.4852915702	-0.0199289433	 0.3682877928	-0.270501
C	 1.9826231557	-0.1067689611	 1.6689467014	 0.383301
N	 2.4969621805	 0.2157691611	 2.7611276283	-0.545805
C	 0.6985782956	-0.7683197166	 1.2537579374	 0.025491
C	-0.0214673708	-1.7684997517	 1.9558040903	 0.181713
C	-0.6424823888	-2.6121760553	 2.5465251651	-0.391947
H	 0.9574633467	 2.0181518833	 0.3690772145	 0.145493
H	-0.195759406	 1.9081074505	-0.9674074698	 0.127708
H	-0.7811680483	 1.9200287487	 0.7045079423	 0.135573
H	-0.7863567044	-0.4598670954	-0.2952053518	 0.117561
H	 1.5182244405	-1.5255647438	-0.8519912931	 0.13568
H	 3.4275491601	 0.616203299	 2.6324263719	 0.235243
H	-1.1808140276	-3.3580996555	 3.0768376708	 0.192298
