25
gdb 100018	2.41127	1.18088	1.11177	1.3419	88.03	-0.2527	0.0732	0.3259	1316.5149	0.22625	-389.482722	-389.471873	-389.470929	-389.51774	42.252	
C	-0.2568301082	 1.4416486147	 0.0733749193	-0.405963
C	-0.0396140585	-0.0648600105	-0.1112895628	-0.203795
C	 0.8096404255	-0.5049848589	-1.3372239303	 0.220222
C	 0.2156274469	 0.0919132713	-2.6252833409	-0.439552
C	 2.2721692023	-0.0400242464	-1.1851056153	-0.41315
C	 0.8149611058	-2.0490461306	-1.3663285773	 0.429421
O	 1.3112809068	-2.6333574482	-0.1795256482	-0.477484
C	-0.2255486701	-2.8665104229	-2.0930646604	-0.341553
C	 1.2128248492	-2.8354525945	-2.578549057	-0.314234
H	 0.6893067933	 1.9845209095	 0.1598207263	 0.120254
H	-0.8204524474	 1.8812571903	-0.7547110578	 0.118077
H	-0.8249018932	 1.6304767102	 0.9899223426	 0.11157
H	 0.4392313363	-0.4537026071	 0.7950338062	 0.09106
H	-1.0209864847	-0.5544051687	-0.1826798517	 0.088813
H	 0.3342046202	 1.1789394121	-2.6295084982	 0.117373
H	 0.7216291237	-0.2848068428	-3.5186555828	 0.114366
H	-0.8535849557	-0.1216101796	-2.7219411839	 0.111864
H	 2.7340788115	-0.505351428	-0.3108569571	 0.126423
H	 2.858141403	-0.3256665298	-2.0649502762	 0.109258
H	 2.3417108257	 1.0467887241	-1.0803815701	 0.10373
H	 0.6172749438	-2.5827515801	 0.485765332	 0.280734
H	-0.562990987	-3.7722120927	-1.6009561825	 0.108572
H	-0.9781679867	-2.3687689903	-2.6926500693	 0.110877
H	 1.431407929	-2.3174792405	-3.5046182102	 0.112139
H	 1.8212904684	-3.7125741706	-2.3927061144	 0.120978
