16
gdb 7620	5.28496	1.18585	1.09568	3.6468	66.48	-0.2478	-0.0249	0.2229	1083.8516	0.127869	-383.771538	-383.763268	-383.762324	-383.805496	29.234	
C	 0.1332117389	 1.6063353063	-0.2526936828	-0.483288
C	-0.0724584697	 0.1444806315	 0.0897656139	 0.379591
O	-0.2721729143	-0.2314476203	 1.2229826001	-0.30134
C	 0.0240768252	-0.8418831454	-1.062181497	-0.100616
C	 1.4344339973	-1.5343852266	-1.1948415855	-0.350901
C	 0.6844483207	-2.8770733442	-1.2714510353	 0.401605
O	 0.9991531712	-3.9701597813	-1.6378132631	-0.284828
C	-0.6321970604	-2.2333666554	-0.8306307286	-0.350798
H	 1.0547263819	 1.741409623	-0.8300863379	 0.141633
H	-0.6902129666	 1.9547240067	-0.8875850059	 0.145456
H	 0.1698715093	 2.2056219749	 0.6574886709	 0.14634
H	-0.2700675206	-0.3769164048	-2.0055307309	 0.08776
H	 2.0598100071	-1.2723850868	-2.0509052686	 0.133886
H	 2.0266658108	-1.4578321302	-0.2767847347	 0.146013
H	-0.8153866728	-2.3882834859	 0.238683352	 0.159887
H	-1.5282815279	-2.4928399214	-1.3979747167	 0.129601
