18
gdb 37135	3.74302	1.59265	1.51576	1.8242	73.61	-0.2123	0.051	0.2634	927.4872	0.149746	-401.846575	-401.839922	-401.838978	-401.877133	27.939	
C	 0.0394673292	 1.4529478125	-0.0385028404	-0.248246
C	 1.2791738509	 0.6558357707	-0.0187827142	-0.088402
N	-0.0836746187	-0.0138642333	 0.0419216284	-0.177364
C	 0.2499419865	-0.6212141186	-1.314739184	 0.23616
C	 0.658835674	 0.2533655058	-2.4616814897	-0.388274
C	 1.6480315398	-0.0158698666	-1.3579727524	 0.174865
C	 2.577826115	-1.1993604828	-1.4853918166	-0.150569
O	 1.7580168211	-2.2813728538	-1.9555301408	-0.259888
C	 0.4359158568	-2.1137822515	-1.4226019604	-0.141957
H	-0.245098674	 1.9266672299	 0.8970409519	 0.1284
H	-0.2910575141	 1.9933104852	-0.9180535769	 0.123093
H	 1.9456710458	 0.6371357046	 0.8376660476	 0.101585
H	 0.8521442863	-0.3009513205	-3.3744413224	 0.140575
H	 0.2476083942	 1.2403964343	-2.6306368623	 0.122384
H	 3.388958986	-1.0898987275	-2.2115222565	 0.112585
H	 3.02023746	-1.4297566059	-0.5027487636	 0.095519
H	 0.3375010633	-2.554192036	-0.4194200234	 0.107835
H	-0.2429135222	-2.6309721266	-2.1071835344	 0.111698
