14
gdb 77850	2.14567	1.67861	1.56904	3.8393	65.67	-0.2486	-0.0429	0.2057	939.7469	0.1013	-432.839499	-432.831625	-432.830681	-432.87196	28.971	
N	-0.0325034417	 1.5538706936	 0.201333435	-0.524427
C	-0.0403342858	 0.1387297444	-0.0374645246	-0.110522
C	-1.3608537719	-0.6412564929	-0.0341655501	-0.028228
C	-2.1600954015	-0.4664919867	-1.2685020655	-0.177229
C	-2.153494652	 0.7574941688	-2.035768074	 0.324344
N	-2.1576719235	 1.7451260213	-2.6379232849	-0.33246
N	-0.9999424648	-1.4143203632	-1.2964661402	-0.186328
C	 0.1956123779	-0.5500533104	-1.4192500159	 0.366974
O	 1.0122038684	-0.5300160898	-2.2774532471	-0.269731
H	 0.9127113678	 1.8952075831	 0.3311377988	 0.248999
H	-0.4454196523	 2.0706868854	-0.5677868775	 0.261494
H	 0.644131731	-0.344582019	 0.6699245132	 0.135289
H	-1.7815804714	-1.1570666959	 0.8203401326	 0.130753
H	-3.1073156303	-0.9957340888	-1.3153869397	 0.161072
