16
gdb 31453	4.68769	0.91112	0.81358	7.5558	79.47	-0.2421	-0.0145	0.2276	1395.0453	0.126085	-396.997111	-396.988728	-396.987784	-397.031454	30.121	
C	 0.2607068717	 1.3821688156	 0.3858342262	-0.374928
C	-0.2103748705	 0.0227206801	-0.1621960185	-0.298977
C	 0.5658345869	-0.4281182086	-1.3577236886	 0.346526
N	 0.2183184423	-0.2586847854	-2.6117130803	-0.336786
C	 1.2509637408	-0.7908602446	-3.3611163655	 0.170363
C	 2.2363408727	-1.289181562	-2.540582366	-0.169068
N	 1.7877979684	-1.0507163219	-1.2701972174	-0.272925
C	 1.2451237287	-0.8021978703	-4.7811477411	 0.212285
N	 1.2624228266	-0.8215663567	-5.9385783244	-0.343555
H	 1.3058585748	 1.3442828773	 0.7102314008	 0.113135
H	 0.1748658872	 2.1554335229	-0.3821856437	 0.144133
H	-0.3472636184	 1.6802476926	 1.2447095106	 0.124816
H	-0.1509835574	-0.73784177	 0.6259942359	 0.107913
H	-1.2577635811	 0.0883160335	-0.4667608853	 0.145535
H	 3.1726940013	-1.7775312279	-2.7500867513	 0.156911
H	 2.269568556	-1.2992538147	-0.4214913713	 0.27462
