20
gdb 98242	3.06709	1.12731	0.8473	2.3612	80.43	-0.2356	0.0158	0.2514	1382.7212	0.170097	-436.510796	-436.500148	-436.499204	-436.54745	37.184	
C	 0.018652108	 1.2705964706	-0.7292169398	-0.316253
N	-0.1074752566	 0.0157898806	-0.0086371252	-0.356022
C	-1.2019752656	-0.7822346694	-0.2424544236	 0.498898
O	-2.1131621445	-0.4137882348	-0.9629211408	-0.411769
N	-1.1814036854	-2.0091335047	 0.4435321339	-0.1817
C	-0.2270839745	-2.2114872136	 1.5369053763	-0.358782
C	-2.0282376515	-3.0912063564	 0.1246223304	 0.369021
C	-3.0139292056	-2.9439142136	-1.0116000528	-0.440258
N	-1.8946833503	-4.1585984482	 0.8165279264	-0.520906
H	 0.3151567433	 1.1293660065	-1.7765550336	 0.126797
H	-0.9439100072	 1.7827998094	-0.7207767732	 0.160565
H	 0.764169843	 1.8938118612	-0.2295684534	 0.120776
H	 0.7401271969	-0.4056520164	 0.3302512894	 0.248855
H	-0.1330146627	-1.2922873272	 2.1173425467	 0.132488
H	-0.6036505868	-3.0142999503	 2.1660929555	 0.18037
H	 0.76164137	-2.5161481774	 1.1677894021	 0.12022
H	-2.5244304867	-2.634222609	-1.9367720943	 0.147063
H	-3.5040085543	-3.9081335871	-1.1665247164	 0.103088
H	-3.7603115922	-2.1792672055	-0.7952836184	 0.160786
H	-2.5550893271	-4.8625697146	 0.4967269808	 0.216763
