20
gdb 80966	2.23873	1.45362	1.24866	3.6651	80.71	-0.2335	-0.0331	0.2004	1142.3877	0.169326	-403.079107	-403.070033	-403.069089	-403.112704	34.013	
C	-0.054305968	 1.5656352173	-0.1197568336	-0.449677
C	 0.1141101666	 0.0607638021	-0.0231898869	 0.049768
N	 1.352044436	-0.5899130484	-0.707526072	-0.164364
C	 2.1308826447	-0.129722439	 0.5410619917	-0.213433
C	 0.8197673123	-0.6500271506	 1.1708054121	 0.267168
C	 0.4160293939	-0.7300825395	 2.6219542005	-0.523482
C	 1.0258335184	-1.8234779542	 0.1408556485	-0.076839
C	-0.0958963381	-2.7429905627	-0.2523794088	 0.126181
O	-0.8922653352	-2.5768950536	-1.1422289279	-0.242153
H	-0.1768019265	 1.8509688544	-1.1697088735	 0.139493
H	-0.9657502299	 1.8630229642	 0.4100621327	 0.122513
H	 0.7727540067	 2.1473786931	 0.2924076685	 0.118192
H	-0.8009043213	-0.4162578646	-0.3740461339	 0.104416
H	 3.0451763102	-0.7034931085	 0.7184385993	 0.099129
H	 2.3396260422	 0.9389426075	 0.5644837973	 0.105483
H	 0.3829197404	 0.2700528065	 3.0678611697	 0.128425
H	-0.5764498453	-1.179300078	 2.7347594381	 0.126576
H	 1.1277772302	-1.3300886992	 3.199258042	 0.124003
H	 1.9094087924	-2.4438351333	 0.3411837045	 0.083622
H	-0.1342673595	-3.6607963235	 0.3821212817	 0.074976
