17
gdb 117520	2.24193	1.15228	0.82177	5.8027	70.33	-0.267	0.0054	0.2723	1393.4067	0.133688	-455.180084	-455.169845	-455.1689	-455.21681	35.052	
C	 0.8449951601	 1.5406115173	 0.2319286904	-0.39273
C	 0.3782157128	 0.1036744792	 0.0966589894	-0.05626
O	 0.8549580719	-0.6279570831	 1.2291322603	-0.258859
C	 0.4712467678	-1.9795593398	 1.2637890276	-0.089231
C	 1.1397197743	-2.7652027944	 0.2065784841	 0.288496
N	 1.6724236242	-3.3240628192	-0.6525083851	-0.325471
C	 0.7788986685	-2.6074537873	 2.651288253	 0.373169
N	 1.3210047254	-1.7405999236	 3.5326697694	-0.515472
O	 0.5099954455	-3.7683558129	 2.8631741651	-0.348729
H	 1.9369683542	 1.5895586808	 0.2585197851	 0.136859
H	 0.4939083967	 2.1283220553	-0.6209234763	 0.13065
H	 0.4532894064	 1.9925648187	 1.147650339	 0.128419
H	-0.7204352863	 0.0446881286	 0.0644333895	 0.103651
H	 0.7665594271	-0.3515225829	-0.8242855283	 0.128133
H	-0.615519229	-2.0882391021	 1.1218710933	 0.144756
H	 1.5302625471	-0.7980694137	 3.2508396502	 0.280285
H	 1.5634701833	-2.0716010208	 4.4515202631	 0.272333
