19
gdb 62973	2.26512	1.62151	1.2901	4.018	79.	-0.2535	0.0089	0.2624	1073.8776	0.158681	-382.043406	-382.034651	-382.033707	-382.076323	33.492	
C	-0.0952155074	 1.5868552914	-0.1106551021	-0.452264
C	 0.0211743552	 0.0670537346	-0.048128089	 0.287695
C	-1.3367476478	-0.577795673	 0.2346182714	-0.446794
C	 0.7511565355	-0.6371102546	-1.2012430814	-0.043312
C	 2.1894754559	-0.3274233814	-1.2602140798	-0.264381
N	 1.741504106	-1.3369227086	-0.277778418	-0.133447
C	 1.135854891	-0.5665476361	 0.8748847243	-0.179889
C	 2.0431520774	 0.3294990325	 1.5799706531	 0.311388
N	 2.7534396982	 1.0621528597	 2.1243759793	-0.340166
H	 0.8658137245	 2.0735173827	-0.2918401594	 0.132801
H	-0.7793397323	 1.8775269234	-0.9152521013	 0.120333
H	-0.4944926653	 1.9849784306	 0.8282392067	 0.128928
H	-2.0587474979	-0.3065528095	-0.5431637682	 0.122918
H	-1.2630528267	-1.6695988627	 0.2593748507	 0.130001
H	-1.7369557379	-0.2383280311	 1.195743233	 0.125511
H	 0.2443556448	-1.1876426794	-1.9882810404	 0.100695
H	 2.7604736188	-0.7743114502	-2.0677755867	 0.133519
H	 2.5804183228	 0.6221304382	-0.9055320982	 0.138032
H	 0.7179420951	-1.2766127863	 1.5922982559	 0.128431
