19
gdb 62088	4.16752	0.70631	0.66505	2.7049	75.21	-0.2532	0.022	0.2752	1693.5179	0.157166	-456.377903	-456.367013	-456.366069	-456.416057	36.674	
C	-0.219904974	 1.6175180983	-0.0661358691	-0.394738
C	-0.0318971688	 0.0895510313	-0.0355155598	-0.111956
C	-1.367168613	-0.6418477735	 0.0925647877	-0.074925
O	-1.9679778465	-0.2448198751	 1.3269186184	-0.19148
C	-3.2803926923	-0.5073733417	 1.4707039836	 0.12724
N	-3.8535436345	-0.2784329788	 2.5718822904	-0.441626
C	 0.6525103565	-0.3754292956	-1.3229309222	 0.411733
N	 2.0126409606	-0.4398330797	-1.2664368895	-0.526517
O	 0.025819843	-0.6449148121	-2.3315530012	-0.371644
H	 0.7439485541	 2.1334538621	-0.1011920228	 0.11447
H	-0.7938734638	 1.9109749009	-0.9507681904	 0.134571
H	-0.7580976456	 1.945940232	 0.8252987304	 0.147619
H	 0.5863440246	-0.1754474418	 0.8307500558	 0.088915
H	-2.0097383255	-0.3887598903	-0.757635702	 0.13104
H	-1.2124793161	-1.7279861008	 0.0900075363	 0.115064
H	-3.7490808272	-0.9085920239	 0.5611780845	 0.088492
H	-4.8413630051	-0.5138237788	 2.5020710754	 0.228744
H	 2.5304974157	-0.2063183094	-0.4381018796	 0.262077
H	 2.5164330278	-0.6781946331	-2.105182556	 0.262924
