18
gdb 84845	2.23308	1.9326	1.26864	1.9611	71.69	-0.2404	0.0206	0.261	1020.4382	0.147562	-439.078294	-439.070098	-439.069154	-439.110709	31.961	
C	 0.2296879834	 1.5700600338	-0.1185297099	-0.392561
C	 0.0247368497	 0.058101132	 0.0170640501	-0.023865
N	 0.3784383791	-0.592628583	-1.2441882705	-0.27694
C	 0.9721615993	-1.706511307	-1.2459632153	 0.120732
O	 1.4290193057	-2.4514589799	-0.2070587943	-0.222976
C	 1.3951975114	-1.845730877	 1.0646752572	 0.060554
C	 2.2280652703	-0.6066215062	 1.3066800941	-0.383047
C	 0.7139494578	-0.5331622326	 1.2430274987	 0.342392
O	 0.0186245376	-0.3937290916	 2.4516490145	-0.468226
H	 1.2875068296	 1.8077106905	-0.2680088683	 0.118718
H	-0.3281863397	 1.9456337658	-0.9796810564	 0.130922
H	-0.1200768871	 2.0968676053	 0.7760771323	 0.098959
H	-1.0466056651	-0.1274733062	 0.175208465	 0.105091
H	 1.1941219287	-2.2171561723	-2.1808187747	 0.126129
H	 1.3141694115	-2.5926058883	 1.8442717936	 0.124238
H	 2.6964756213	-0.5072725203	 2.2792061359	 0.122057
H	 2.7986916788	-0.2179285973	 0.4693687097	 0.131076
H	 0.1382649478	 0.5110622544	 2.7611507083	 0.286747
