16
gdb 42304	3.43789	1.22979	0.916	3.4524	82.95	-0.2132	-0.0323	0.1809	1220.9586	0.124181	-400.751259	-400.742835	-400.74189	-400.784935	30.578	
O	-0.0280509086	-0.0403900284	 0.0035639822	-0.372483
C	-0.0278101503	 1.1808447337	 0.007499543	 0.291797
C	 1.2043360536	 1.9555577445	 0.0006879897	 0.200383
C	 2.2570825072	 2.5371528948	-0.0053245869	-0.400284
N	-1.1808573338	 1.9109504341	 0.0184437643	-0.109964
C	-2.4978557496	 1.2468161391	 0.0258870678	-0.162324
C	-3.5169967445	 2.4203739911	 0.0361255888	-0.286093
C	-2.6357480381	 3.6502916939	 0.0335720327	-0.159979
C	-1.3493949402	 3.3018074683	 0.0235827749	 0.020706
H	 3.1938219338	 3.0392851886	-0.0103766607	 0.209013
H	-2.5868049133	 0.6055944124	-0.8547489931	 0.137303
H	-2.5745620841	 0.6010283412	 0.9043462878	 0.13727
H	-4.1783302058	 2.3877703689	-0.8371789772	 0.120902
H	-4.1663823574	 2.3827945855	 0.9181438967	 0.120898
H	-3.0054381495	 4.6651818314	 0.0390789459	 0.109162
H	-0.4690926894	 3.9270306109	 0.0192419641	 0.143692
