22
gdb 6290	3.32253	0.99461	0.94513	2.8416	79.42	-0.2444	-0.0175	0.2269	1368.5875	0.197246	-350.228721	-350.218393	-350.217448	-350.2646	36.632	
C	-0.1227439936	 1.5235751199	-0.0965121888	-0.382703
C	 0.0388437164	-0.0019318226	-0.0523830366	 0.028795
C	 0.8418105751	-0.4970036611	-1.2639608933	-0.389041
C	 0.7096396589	-0.4837481433	 1.2491163488	-0.182624
C	-0.0291377848	-0.1491052214	 2.5662665385	-0.070693
C	-1.4368178401	-0.7646395327	 2.6427503585	-0.410299
C	 0.8076233252	-0.6777811539	 3.7151784902	 0.161767
O	 1.382601373	-0.0033141838	 4.5294779821	-0.250982
H	 0.8500305591	 2.0216012562	-0.0045097422	 0.116026
H	-0.5684349163	 1.8399488616	-1.0451509575	 0.112393
H	-0.7636386459	 1.8961775468	 0.70804792	 0.116368
H	-0.9601784345	-0.4533874346	-0.1139588622	 0.076529
H	 1.8549230024	-0.0774631808	-1.2613145134	 0.114874
H	 0.9336971397	-1.588265345	-1.2650073833	 0.110573
H	 0.3625485707	-0.1994029836	-2.2022777565	 0.111847
H	 0.8442234325	-1.5731803815	 1.1918023001	 0.092462
H	 1.7191760729	-0.0531310997	 1.2982104439	 0.105637
H	-0.0854246686	 0.9358510889	 2.6978827971	 0.096571
H	-1.9136675328	-0.5383913862	 3.6014809985	 0.127294
H	-2.0824227566	-0.3752712507	 1.8517029104	 0.130344
H	-1.3967881818	-1.8547436236	 2.5343860818	 0.120087
H	 0.866631879	-1.7935863691	 3.7523734439	 0.064778
