16
gdb 47022	3.68007	1.39475	1.05412	4.8077	75.02	-0.2216	-0.0298	0.1919	1081.3462	0.126282	-437.883464	-437.876312	-437.875367	-437.915082	27.841	
O	-0.0131024572	-0.0390207893	-0.0350183567	-0.348773
C	 0.018418299	 1.1765899619	 0.0161329746	 0.360033
C	-1.3268360445	 1.9339065494	 0.1990330333	-0.192842
O	-1.2464612085	 3.2715329343	 0.7030728426	-0.259293
C	-0.3192715924	 3.9772382039	-0.0642930921	 0.043652
C	 0.4473446312	 5.1870920389	 0.5534122869	-0.214701
N	 1.6905532364	 4.5046294323	 0.0912209628	-0.375991
C	 1.0298614344	 3.3089277434	-0.0819660642	 0.410192
C	 1.2361230579	 1.9815671184	-0.0390233336	-0.386092
H	-1.8496562092	 1.9265810047	-0.7723409804	 0.115105
H	-1.9274260631	 1.3626772216	 0.9082493046	 0.141097
H	-0.7094358426	 4.2106464863	-1.0670600148	 0.095267
H	 0.2809284944	 6.1750016584	 0.1194687553	 0.123392
H	 0.3448836126	 5.2156585258	 1.6424391958	 0.133441
H	 2.5953641208	 4.594778139	 0.5332925983	 0.253818
H	 2.1999027407	 1.4961815612	 0.0602547675	 0.101693
