15
gdb 47774	2.17346	1.70991	1.22095	2.3614	66.56	-0.2434	-0.0435	0.1999	1029.7629	0.111542	-457.726155	-457.718087	-457.717143	-457.759153	29.682	
O	 0.0314838932	 0.0073660498	 0.1908834135	-0.283963
C	-0.0223058156	 1.1939372845	 0.0059343252	 0.374275
C	-1.3319111886	 1.9643989721	-0.1382535045	-0.19719
O	-1.2367819638	 3.0423576511	-1.0558427266	-0.227807
C	-0.116449364	 3.846445476	-0.805829513	 0.011057
O	 1.0877621278	 3.1401828622	-0.9895857534	-0.227634
C	 1.2496468326	 2.0773001842	-0.0505679561	-0.180272
C	 1.5584023078	 2.5531219173	 1.3002907667	 0.32988
C	 1.7772327332	 2.9446680046	 2.4156161812	-0.458976
H	-2.1123914427	 1.2869777535	-0.4887105682	 0.147178
H	-1.6100794265	 2.3281045671	 0.8671219668	 0.129801
H	-0.1232811491	 4.6439266656	-1.5495719129	 0.130548
H	-0.158882238	 4.264486155	 0.2145983949	 0.096308
H	 2.0661941699	 1.4544722116	-0.4259793	 0.144141
H	 1.991351814	 3.2857612855	 3.3989865766	 0.212652
