19
gdb 104495	2.83567	1.33911	1.08875	3.5571	76.82	-0.2535	-0.0287	0.2248	1153.4745	0.159373	-423.002151	-422.993749	-422.992805	-423.035145	32.16	
O	 0.1590219149	 1.2639566519	-0.328433375	-0.427278
C	 0.0868278113	-0.0653092231	 0.1478698815	-0.156985
C	-1.3261333715	-0.6232849672	 0.0874711691	 0.214305
C	-2.3005737147	 0.135587615	 0.9084714997	 0.122668
O	-2.043169166	 1.1597308578	 1.5033307265	-0.298251
C	-1.9975448851	-1.186452299	-1.1646125347	-0.080292
C	-0.9808320456	-1.9159669753	-2.0516257071	-0.250447
C	-0.6631060216	-2.8718608791	-0.8559692807	-0.246849
C	-1.6814671565	-2.1042536172	 0.0005984217	-0.1121
H	-0.3822615717	 1.784263886	 0.2793012409	 0.296231
H	 0.768818894	-0.6541317654	-0.4685798358	 0.107171
H	 0.4431318182	-0.139665292	 1.1869790588	 0.096595
H	-3.3271568989	-0.2955622521	 0.9443013689	 0.080794
H	-2.9549419119	-0.8011203601	-1.4954004168	 0.098356
H	-1.4611686843	-2.4409382342	-2.8796183265	 0.113789
H	-0.1631162585	-1.3109344784	-2.4508499682	 0.121911
H	-0.9935299233	-3.8933997747	-1.0545096102	 0.113926
H	 0.3663365507	-2.9081579277	-0.4900321098	 0.111049
H	-2.3517566796	-2.551893065	 0.7258334178	 0.095408
