21
gdb 92349	2.85752	1.57911	1.40744	1.6399	77.19	-0.2515	0.079	0.3305	1039.6777	0.185431	-424.251737	-424.244232	-424.243288	-424.283212	31.087	
C	 0.1612028719	 1.5745807862	 0.007265458	-0.400313
C	 0.0196666371	 0.0672436235	 0.0019166492	 0.224509
O	 0.5992828737	-0.425491813	-1.1904381337	-0.284266
C	 0.8067906672	-1.8424246285	-1.1843757281	 0.119789
C	-0.4648083579	-2.6284251853	-0.7822623535	-0.23996
C	-0.4339609684	-2.6368684621	 0.7753776997	-0.239962
C	 0.8527338034	-1.855012353	 1.1353270303	 0.119787
C	 1.7813841574	-2.1712139071	-0.0451212837	-0.225604
O	 0.6459696867	-0.4382638527	 1.1649459526	-0.284259
H	 1.2200976066	 1.8429679071	-0.0115987957	 0.129803
H	-0.3310122392	 1.9970759162	-0.8718642745	 0.123341
H	-0.296873451	 1.9876536192	 0.9090332263	 0.123321
H	-1.0475614379	-0.215005374	 0.0215470481	 0.059191
H	 1.1656452781	-2.0871712853	-2.1857398803	 0.074877
H	-1.3638459579	-2.1648815118	-1.1959721145	 0.111646
H	-0.4062099092	-3.6429455561	-1.1869611678	 0.101082
H	-1.3158160428	-2.1780299734	 1.2293562822	 0.111646
H	-0.359603409	-3.6557017801	 1.1664227209	 0.101082
H	 1.2508946428	-2.1105217108	 2.1189886014	 0.074877
H	 2.068846253	-3.2286534457	-0.0565641485	 0.091861
H	 2.6754447754	-1.5455805936	-0.0594274983	 0.107554
