19
gdb 105836	2.08453	1.54429	1.21314	4.0837	75.32	-0.2696	0.0038	0.2734	1145.6653	0.157836	-423.035582	-423.026474	-423.02553	-423.069697	33.407	
C	 0.4012396509	 1.2495995853	 0.5403195405	-0.378682
C	-0.3379464339	 0.1498474061	-0.2351701271	-0.300791
C	 0.5080605404	-0.4403640713	-1.329804518	 0.10201
C	 0.6086497449	 0.1085244458	-2.7735452778	-0.070539
C	 1.8785166683	 0.5579475576	-3.4605874296	-0.426848
C	 0.2363457934	-1.3125652389	-2.5376219584	 0.010663
O	 1.4333490857	-2.1047896155	-2.291694086	-0.26656
C	 1.6692369164	-1.383420647	-1.1258382929	 0.432024
O	 2.5025293004	-1.5932291207	-0.3043820599	-0.332024
H	 1.3235665678	 0.8569869034	 0.977663305	 0.147546
H	 0.6678642483	 2.0840215085	-0.116429528	 0.11742
H	-0.2220669357	 1.6411449286	 1.3494731897	 0.115315
H	-0.64125526	-0.6458076557	 0.4562759734	 0.115312
H	-1.2605854563	 0.5507393117	-0.671709726	 0.102938
H	-0.2613726558	 0.7319841088	-2.9815449801	 0.102371
H	 2.6928205377	-0.1504494382	-3.2956586978	 0.149695
H	 1.7169880683	 0.6371707631	-4.5408130756	 0.125794
H	 2.1941036088	 1.5395839006	-3.0945396363	 0.127475
H	-0.6469566497	-1.852118962	-2.850812215	 0.126879
