21
gdb 63493	3.14901	1.00181	0.86632	3.3642	80.04	-0.2455	-0.0221	0.2234	1405.7939	0.177515	-424.231727	-424.220875	-424.21993	-424.268283	38.534	
C	 0.1407125813	 1.4267403939	-0.3344224467	-0.456746
C	-0.0179000415	-0.019152401	 0.0977307911	 0.334629
C	-1.1452559612	-0.7227098563	-0.6361421592	-0.457521
O	 1.2048565644	-0.7739043169	 0.2058978147	-0.330056
C	 0.478177481	-0.4904197512	 1.4179421511	 0.308522
C	 1.1748744662	 0.4393553233	 2.3967961589	-0.464744
C	-0.1199187448	-1.71499682	 2.1106921904	-0.348342
C	 0.9658637497	-2.6845081399	 2.5398710569	 0.163992
O	 1.1068501601	-3.1031028675	 3.6604473478	-0.244501
H	 0.9499800675	 1.9379508436	 0.1849931202	 0.12691
H	 0.3513028094	 1.4674380159	-1.4085172762	 0.128712
H	-0.7883050916	 1.979953615	-0.1583519312	 0.122351
H	-1.0553187112	-0.5365229593	-1.7116214632	 0.126668
H	-1.1228840835	-1.8028540029	-0.4909346206	 0.129518
H	-2.1208975899	-0.3420123742	-0.3148801192	 0.123632
H	 1.7997337168	 1.1712724651	 1.8864638971	 0.134067
H	 0.4430072109	 0.9685173642	 3.0168267511	 0.126101
H	 1.8187874095	-0.1358530799	 3.070535728	 0.138627
H	-0.6931612844	-1.4197908896	 2.9943639917	 0.120711
H	-0.7859370109	-2.2586246377	 1.4341398739	 0.118999
H	 1.644876892	-2.9937448246	 1.7159473532	 0.098472
