17
gdb 55423	2.60433	1.50275	1.00776	3.1911	69.19	-0.2451	0.0145	0.2595	1139.4787	0.138624	-455.235678	-455.227487	-455.226543	-455.269011	30.706	
N	-0.0588221615	 1.3349151576	 0.0961335867	-0.522424
C	 0.0910460552	-0.0041588361	-0.0847298675	 0.38512
O	 1.1393622297	-0.5494824765	-0.3716570543	-0.362432
C	-1.2230056918	-0.7948434509	 0.0388502276	-0.232902
C	-1.0276239176	-2.3145254431	 0.1267808797	-0.224014
C	-2.1495339141	-2.8007040034	 1.0728779331	-0.178567
N	-2.474876189	-1.6028472621	 1.8327377675	-0.301738
C	-2.0521351419	-0.4359993446	 1.2833361925	 0.423134
O	-2.2976647465	 0.6843910184	 1.6985329891	-0.402443
H	 0.7875115954	 1.8808861631	 0.1422508293	 0.254933
H	-0.8743288651	 1.6479988754	 0.6129659862	 0.278
H	-1.840690229	-0.5113527942	-0.8234833718	 0.131737
H	-1.0713799503	-2.8082773763	-0.84438653	 0.118617
H	-0.0414743112	-2.5161704139	 0.5499361607	 0.142436
H	-3.0242124964	-3.1631423585	 0.5159713876	 0.112098
H	-1.8171150913	-3.6073958949	 1.7330234411	 0.121847
H	-3.1192378847	-1.5915876302	 2.6079027426	 0.256599
