18
gdb 27525	5.44763	0.90688	0.82249	2.6718	81.06	-0.1962	0.0398	0.2361	1408.4083	0.148183	-401.967652	-401.959094	-401.95815	-402.001436	31.558	
C	-0.1371923167	 1.5232485659	 0.1098815186	-0.501261
C	-0.0190151688	 0.0422506275	-0.0380950894	 0.340067
C	-0.053641283	-0.7613018572	-1.1558987334	-0.364614
C	 0.1086000077	-2.1155662065	-0.7339371619	 0.288994
C	 0.230943281	-2.0977158978	 0.6369708858	-0.18399
N	 0.1559330792	-0.788655734	 1.0443127633	-0.303281
C	 0.1434409324	-3.3180022227	-1.5906532997	-0.040267
C	 1.3011166303	-4.2330990957	-1.6347541617	-0.171375
O	 0.1154338676	-4.5859341249	-0.9235529826	-0.235598
H	 0.7593157776	 1.9693373158	 0.5588176716	 0.126185
H	-0.2772146917	 1.9833935924	-0.8708151146	 0.13818
H	-0.9922818632	 1.8114475106	 0.734502468	 0.126146
H	-0.1759038986	-0.4144230586	-2.1715365868	 0.087144
H	 0.3389516863	-2.908873254	 1.3373038644	 0.129917
H	 0.1920728325	-0.4824774153	 2.0011339018	 0.256058
H	-0.4802846727	-3.2756137526	-2.4851662592	 0.089127
H	 1.5009639551	-4.8206629636	-2.5309149056	 0.108759
H	 2.1676116451	-4.0069822293	-1.0153671887	 0.10981
