22
gdb 120322	3.1579	1.00942	0.9676	0.6755	82.53	-0.2204	0.0843	0.3047	1378.4444	0.195065	-404.323252	-404.314266	-404.313322	-404.357535	33.607	
C	-0.4068202105	 1.5161257709	-0.0215322471	-0.381156
C	-0.0259074023	 0.0357152335	 0.0549353793	-0.162014
C	 0.43880451	-0.3783512165	 1.4530337787	-0.138545
N	 0.6961928112	-1.8181502784	 1.4909622016	-0.095942
C	 1.9924206671	-2.3996903202	 1.1731961927	-0.053732
C	 3.2396050048	-1.5392750956	 1.2636732001	-0.108708
O	 3.1889814299	-0.8814727694	 2.5275361556	-0.251629
C	 2.3767598537	-1.6384887298	 3.4216948887	-0.105846
C	 1.4388810489	-2.4641833071	 2.560045896	-0.056755
H	 0.4387179343	 2.1603743736	 0.2441345899	 0.115734
H	-0.7299762116	 1.7911634345	-1.0300837344	 0.112629
H	-1.2278374842	 1.7500488498	 0.6654561511	 0.114102
H	-0.8762381307	-0.5929176449	-0.2326768104	 0.104491
H	 0.7729732981	-0.1792006392	-0.6664868371	 0.093619
H	 1.3010686475	 0.2308330369	 1.7570832324	 0.113868
H	-0.3647361685	-0.1823964343	 2.1744317554	 0.096615
H	 1.9954714623	-3.2421812434	 0.4866117464	 0.092913
H	 4.1309446954	-2.1820169817	 1.178462365	 0.097489
H	 3.3094659548	-0.7609903142	 0.4950120484	 0.111919
H	 2.9849806553	-2.3131457582	 4.04596462	 0.096654
H	 1.8711722152	-0.9268062254	 4.0843170783	 0.111479
H	 0.9961165194	-3.3587140108	 2.9908810692	 0.092815
