20
gdb 70570	2.43733	1.9018	1.34867	1.287	78.12	-0.2178	0.084	0.3017	1018.2121	0.172055	-403.097571	-403.089874	-403.08893	-403.129092	31.677	
C	-0.0256357395	 1.4952789859	-0.0317443238	-0.433083
C	-0.075196452	-0.0137690416	 0.0626222762	 0.289198
C	-0.8168546651	-0.6364247935	 1.2472633699	-0.393263
C	 0.6893331516	-0.7219944119	 1.151331609	 0.114198
O	 1.3521805744	-1.924000114	 0.885481999	-0.253071
C	 0.698301859	-2.7648928879	-0.0594514423	-0.125621
C	 0.4034195265	-2.026561706	-1.3539166714	-0.022303
C	-0.9945162006	-1.6258776102	-1.6979378306	-0.261195
N	-0.0347021372	-0.631608463	-1.2478927209	-0.127763
H	 0.8361128416	 1.8127326292	-0.6264754437	 0.12495
H	-0.9298075381	 1.88306174	-0.5145743494	 0.117294
H	 0.0483876683	 1.9506383496	 0.9610712789	 0.106552
H	-1.2405966771	 0.0399979251	 1.9817912148	 0.112682
H	-1.4054724366	-1.5319871619	 1.0937239096	 0.113614
H	 1.2908402763	-0.1317158694	 1.8345604973	 0.101137
H	 1.3910604304	-3.5894839942	-0.2414079306	 0.117432
H	-0.2132986721	-3.1919965122	 0.3822497028	 0.097405
H	 1.1169073445	-2.196899515	-2.1572949675	 0.09472
H	-1.301045994	-1.5353579264	-2.7367532761	 0.116148
H	-1.7858912204	-1.9413772726	-1.0205103514	 0.110968
