24
gdb 59992	3.16094	0.76458	0.73727	1.6639	85.94	-0.245	0.0687	0.3136	1708.777	0.215757	-405.525819	-405.514884	-405.513939	-405.562674	39.923	
C	 0.9742320773	-0.5972984174	-0.8728384572	-0.388068
C	-0.0168270309	 0.0521514611	 0.1030036712	 0.048008
C	-0.1136733197	 1.5623276373	-0.1504903969	-0.393823
C	-1.411991862	-0.5952923392	 0.0346934946	-0.194037
C	-1.476805593	-2.0495051786	 0.5213951221	 0.07995
O	-0.9698996953	-2.1888321189	 1.8504155965	-0.4285
C	-2.8781317184	-2.6135032385	 0.4058782746	 0.006324
C	-3.2381665522	-3.5042667495	-0.7265614152	-0.242179
N	-3.110036269	-4.0447887611	 0.635608967	-0.319856
H	 1.9546023462	-0.114033615	-0.8090828958	 0.111601
H	 1.1215375482	-1.660914372	-0.6635375277	 0.117979
H	 0.6253517228	-0.5026364087	-1.9086909285	 0.107433
H	 0.3598019194	-0.1042553671	 1.1212072066	 0.085927
H	-0.7825457452	 2.0479960223	 0.5682254402	 0.106614
H	 0.8684069997	 2.0399368173	-0.0697144158	 0.110225
H	-0.5002671857	 1.7697871983	-1.1558709376	 0.109788
H	-2.1118195696	-0.0032367649	 0.6432836471	 0.080853
H	-1.7945068241	-0.5519340249	-0.9946589846	 0.09618
H	-0.8069953846	-2.6734144552	-0.0834184184	 0.079395
H	-1.5775634197	-1.7359052286	 2.4463465034	 0.279672
H	-3.657826456	-1.9766818878	 0.8264264428	 0.082404
H	-4.248083478	-3.5005683344	-1.1266798351	 0.118408
H	-2.4650690078	-3.7307745553	-1.4573690108	 0.110335
H	-2.2137403726	-4.5137887594	 0.7489023175	 0.235369
