16
gdb 126012	3.03739	1.62974	1.11092	4.8332	71.63	-0.2123	-0.036	0.1763	1050.3803	0.125813	-434.031294	-434.023832	-434.022887	-434.063289	28.315	
C	-0.1934275682	 1.5905430877	-0.0274258287	-0.401611
C	 0.0362687631	 0.0791553332	 0.0438665708	-0.129876
C	 0.9010520525	-0.4894111055	-1.1477416387	-0.178463
N	 1.7228590035	-1.6219564488	-0.6104134838	-0.404663
C	 1.7736362356	-1.3449998888	 0.7613487981	 0.279695
C	 0.8659738798	-0.433307428	 1.1789238157	 0.352271
O	 0.9022285432	-0.3398892404	 2.4945714158	-0.242179
N	 1.9686654294	-1.2806259175	 2.8996337258	-0.045168
N	 2.416112856	-1.8353174911	 1.853373673	-0.215082
H	 0.7574868454	 2.1320817622	-0.0230397512	 0.12748
H	-0.7346477011	 1.8544392779	-0.941401808	 0.124808
H	-0.7848932472	 1.9346602326	 0.8255243808	 0.137515
H	-0.9395925049	-0.4266765765	 0.0580685316	 0.114311
H	 0.2771720961	-0.8344317156	-1.9750384307	 0.12377
H	 1.5500097083	 0.3163348622	-1.5178809136	 0.110998
H	 2.6251489585	-1.7015238736	-1.063957297	 0.246196
