25
gdb 86198	2.27118	1.35553	1.119	1.4137	87.92	-0.2572	0.0682	0.3253	1273.1558	0.228892	-389.513988	-389.503769	-389.502825	-389.548364	39.69	
C	-0.4653771111	 1.4434325609	-0.0066731979	-0.419652
C	-0.0372910451	-0.0187752809	 0.1125366513	 0.05149
C	 0.5228888621	-0.622332455	-1.2023858531	-0.249686
C	 1.5515157259	-1.7105179539	-0.7909389595	 0.103865
O	 2.8870916752	-1.3563282582	-1.15590417	-0.427784
C	 1.4619024924	-1.7766741758	 0.7512224639	 0.032997
C	 2.6822668115	-2.3838879494	 1.4414124285	-0.418755
C	 1.0405313612	-0.3472919353	 1.180013462	-0.006502
C	 2.2018672323	 0.6550532738	 1.2393466464	-0.400076
H	 0.3666122618	 2.0823755422	-0.3197924201	 0.117409
H	-1.2636509073	 1.5561370483	-0.7485955229	 0.108123
H	-0.8443105591	 1.8289238674	 0.9463580737	 0.10982
H	-0.9267808568	-0.6018886562	 0.3876527847	 0.066257
H	-0.27615318	-1.0199476506	-1.8360585147	 0.091521
H	 1.043537586	 0.144654004	-1.7875173549	 0.092571
H	 1.3079747177	-2.6879692637	-1.2321954245	 0.056188
H	 2.9211139045	-1.2924472769	-2.1151439131	 0.280165
H	 0.5978618934	-2.4219494811	 0.9650898678	 0.065733
H	 3.594786552	-1.8361120083	 1.2003922944	 0.137159
H	 2.5524955759	-2.3827982784	 2.5291031505	 0.102997
H	 2.8302993907	-3.4221750714	 1.1256241953	 0.106528
H	 0.5754143117	-0.3828398548	 2.173344164	 0.055443
H	 2.727744465	 0.7234542202	 0.2836684324	 0.12975
H	 1.8469057284	 1.6526188285	 1.5156046184	 0.104475
H	 2.9342747416	 0.3519874448	 1.9937876875	 0.109963
