18
gdb 33217	5.54469	0.68186	0.64704	1.5734	74.52	-0.2367	0.0079	0.2445	1707.9719	0.148092	-439.114807	-439.105871	-439.104927	-439.150079	31.42	
O	-0.0610358312	 1.4136583995	 0.2375756424	-0.420467
C	 0.009678663	 0.0103286601	 0.0456702705	-0.073726
C	-1.4139614125	-0.5307371044	 0.0494756536	-0.169766
C	-1.4552294506	-2.0572472956	-0.1410551543	-0.315285
C	-2.8376570576	-2.6107073881	-0.1338386519	 0.391375
N	-3.4796716549	-3.1983971604	-1.0947866832	-0.304045
C	-4.7241199988	-3.5011760896	-0.5531811866	-0.114617
C	-4.7658314536	-3.0707802842	 0.7271250867	-0.041993
O	-3.5590571359	-2.4948824436	 1.0143626311	-0.174533
H	 0.833459746	 1.7659661019	 0.2212241266	 0.28682
H	 0.4999204253	-0.239567729	-0.9098085828	 0.087543
H	 0.5932898322	-0.4745741989	 0.8462014765	 0.085021
H	-1.8926739182	-0.2595096749	 0.9960762243	 0.122357
H	-1.98183145	-0.0400013384	-0.7483399257	 0.119848
H	-1.0063828915	-2.3405208259	-1.0969122887	 0.134882
H	-0.8701142552	-2.5408102631	 0.6520842675	 0.121099
H	-5.487312719	-4.003057082	-1.126205815	 0.122518
H	-5.4950153877	-3.0832470835	 1.518450549	 0.142969
