22
gdb 103195	2.8027	1.52663	1.25742	1.7487	83.95	-0.2376	0.0741	0.3116	1110.7652	0.194792	-367.160897	-367.152385	-367.151441	-367.193715	33.815	
C	-0.2482918015	 1.5272279451	 0.0017910423	-0.387188
C	 0.0708034158	 0.0269617484	 0.0397907946	-0.255276
C	 0.7146819355	-0.5200297795	-1.2412469618	 0.342652
C	 2.1438866179	 0.0003507562	-1.4375041319	-0.453137
C	 0.655263853	-2.025240669	-1.4934194521	-0.091438
C	-0.6427271162	-2.3722775844	-2.1514763637	-0.050919
C	-1.4509075849	-1.1046160153	-2.3616123206	-0.259124
C	-0.0718630218	-0.4572837432	-2.584774957	-0.043318
N	 0.5065591718	-1.8598583818	-2.9786520311	-0.167682
H	 0.653531677	 2.1358159033	-0.1132361222	 0.120311
H	-0.9200535221	 1.7706790917	-0.8289754279	 0.117583
H	-0.7408548081	 1.8432476929	 0.9263943575	 0.114324
H	 0.7443019655	-0.1815626889	 0.8817972491	 0.092807
H	-0.8484482486	-0.5293328798	 0.2516948374	 0.097664
H	 2.780888155	-0.2821671981	-0.5915824363	 0.109302
H	 2.5861934794	-0.4124360193	-2.3481260741	 0.136542
H	 2.1632253908	 1.0919423069	-1.5170908937	 0.113513
H	 1.3088703011	-2.7897963654	-1.0840794056	 0.084963
H	-0.9783446426	-3.3997254249	-2.2420868896	 0.093609
H	-2.0089794415	-1.1612527968	-3.3000513752	 0.111009
H	-2.1030708355	-0.7246692188	-1.5696973022	 0.09772
H	 0.0597164701	 0.3818237207	-3.2667868658	 0.076083
