21
gdb 75465	2.5129	1.54537	1.14457	1.7604	84.06	-0.2311	0.025	0.2561	1145.7979	0.183244	-387.088227	-387.079569	-387.078625	-387.121935	32.751	
C	-0.0713990083	 1.4824418864	-0.0424728802	-0.499567
C	 0.0066737748	-0.0135515114	-0.0552449396	 0.271804
C	 0.0158003148	-0.8034064903	-1.1321075206	-0.174417
C	 0.0647758562	-2.2703431627	-0.7890655927	-0.263653
C	 0.3796673331	-2.2534085787	 0.7269350045	-0.301942
C	 0.0245045494	-0.8350063938	 1.2195667601	 0.219594
C	 0.7899675106	-0.2741623292	 2.4466587256	-0.127194
O	-0.4318233293	 0.0157408236	 3.1513483524	-0.275406
C	-1.2181303624	-0.6415452291	 2.1411326792	-0.116819
H	 0.8337282563	 1.9295389172	 0.3865960206	 0.128936
H	-0.1929670706	 1.8806163766	-1.0531710685	 0.122969
H	-0.909712406	 1.8387339543	 0.5681987478	 0.134139
H	-0.0417651383	-0.4436941775	-2.1547230628	 0.08584
H	-0.897155715	-2.7565848532	-1.0045391619	 0.105956
H	 0.8175849768	-2.8202794292	-1.3654526995	 0.103169
H	-0.1435131011	-3.0342595799	 1.2863001058	 0.098578
H	 1.4526026977	-2.4180504937	 0.8779237543	 0.105163
H	 1.3982972411	-1.0249097474	 2.9707885881	 0.091869
H	 1.3978641406	 0.6246971364	 2.2882642833	 0.098828
H	-2.0195226821	 0.0019119433	 1.7581418978	 0.099075
H	-1.6583039383	-1.5802181316	 2.5060477763	 0.093079
