21
gdb 119932	2.07847	1.22794	0.98235	0.968	86.02	-0.2268	0.0494	0.2762	1354.2007	0.179282	-387.041062	-387.030607	-387.029663	-387.076761	37.945	
C	-0.0055904616	 1.4749914163	 0.2387848828	-0.387212
C	-0.1931610255	-0.0122667383	 0.4779117179	-0.038587
O	 1.0699138434	-0.567271848	 0.834084806	-0.24262
C	 1.0256559659	-1.924001249	 1.0883814507	 0.114433
C	 2.0772407147	-2.4866559168	 1.9855934733	-0.075224
C	 3.143570362	-1.6011956193	 2.5873007362	-0.402306
C	 0.6235510852	-2.4242969125	 2.4847796581	-0.277738
C	 0.2409443273	-1.4980247239	 3.5056638033	 0.358368
C	-0.0958775177	-0.7357366	 4.3746391639	-0.475504
H	 0.7220830665	 1.6494358815	-0.5589350917	 0.125318
H	-0.9552293376	 1.9353584909	-0.0497598979	 0.114867
H	 0.3558513875	 1.9641457262	 1.1475581784	 0.130656
H	-0.9173415188	-0.193017104	 1.2834277742	 0.109572
H	-0.5706514576	-0.509374234	-0.4305311965	 0.085522
H	 0.675986914	-2.531236494	 0.2507464668	 0.086178
H	 2.4078583478	-3.4906946193	 1.7335371217	 0.092587
H	 2.7569779994	-0.6013054628	 2.7868472543	 0.144266
H	 3.5120754633	-2.0232772391	 3.5275196505	 0.11835
H	 3.9914637151	-1.5064645771	 1.9010499554	 0.117767
H	 0.0906691043	-3.3709875199	 2.5092323823	 0.108761
H	-0.3899655174	-0.062406677	 5.1407063804	 0.192546
