18
gdb 74736	2.33745	1.87805	1.38212	3.285	76.39	-0.2253	-0.0181	0.2072	995.8725	0.14972	-401.967605	-401.960163	-401.959219	-401.999395	29.588	
C	 0.0173659775	 1.4945318868	 0.081859984	-0.507412
C	-0.0712834285	 0.0089112324	-0.0128582786	 0.323743
C	-0.0522797187	-0.8046393175	-1.0763174248	-0.197456
C	 0.017466423	-2.2426709836	-0.5449213631	-0.065655
C	 1.452355239	-2.445402668	 0.0093854382	-0.305282
C	 1.4239080688	-1.4481415147	 1.1853173061	 0.455938
O	 2.3271837745	-1.1169658937	 1.9031340074	-0.330443
C	-0.0372541259	-0.9301103189	 1.208251344	-0.215726
N	-0.7169468441	-2.1598815554	 0.746938253	-0.294404
H	 0.9271763989	 1.7941381599	 0.6167437464	 0.147775
H	 0.0336934736	 1.9629372691	-0.905861364	 0.128578
H	-0.8270194479	 1.90912948	 0.6463907222	 0.129783
H	 0.0222152487	-0.5195814472	-2.118488551	 0.101141
H	-0.3454420877	-3.0333476901	-1.2010423402	 0.075321
H	 1.598304887	-3.4565520776	 0.4001297034	 0.133639
H	 2.2515081773	-2.2194971951	-0.6981168004	 0.123909
H	-0.3666677667	-0.535040586	 2.1676978262	 0.081409
H	-1.6937750088	-1.9387137006	 0.5566834213	 0.215141
