23
gdb 58475	2.41237	1.18689	1.09082	0.9727	81.89	-0.2482	0.0685	0.3168	1303.8616	0.201116	-425.421843	-425.410471	-425.409527	-425.45787	41.8	
C	 0.4457849577	 1.2143662921	 0.4769866761	-0.414224
C	-0.3247186023	 0.0414680264	-0.1312880488	 0.052226
O	-1.6843115383	 0.3725297788	-0.407897677	-0.432698
C	 0.3668249767	-0.5094073695	-1.3888131796	 0.345707
C	 0.1694734006	 0.361696464	-2.6187264355	-0.495157
O	 1.7083656018	-0.9796728198	-1.1644010868	-0.33779
C	 0.7014606748	-1.9523878455	-1.5139482981	 0.333773
C	 0.3675466184	-2.9569850333	-0.4251678911	-0.460435
C	 0.8723161074	-2.6133496526	-2.8696766477	-0.456807
H	 1.4694496442	 0.9119696722	 0.7121441745	 0.141098
H	 0.4969497238	 2.0666327287	-0.2111521316	 0.10788
H	-0.047904156	 1.5491470219	 1.3934004309	 0.121278
H	-0.3854342945	-0.7479443614	 0.6192139363	 0.085967
H	-1.6956039034	 1.2174152727	-0.8695001986	 0.28083
H	 0.3246453217	 1.418811871	-2.3760430645	 0.115529
H	 0.8829685855	 0.1091729548	-3.4021134371	 0.133985
H	-0.8443355273	 0.2508448811	-3.0143897232	 0.130893
H	 0.4857053116	-2.5382298345	 0.5740934578	 0.13269
H	-0.6583501492	-3.3250034235	-0.5343378535	 0.126549
H	 1.03970887	-3.8185688225	-0.5007936932	 0.119583
H	 1.6727591565	-3.3593688893	-2.8166509596	 0.124678
H	-0.0475048499	-3.1357639933	-3.1550962495	 0.122198
H	 1.1254537403	-1.9067560485	-3.6589120701	 0.122247
