23
gdb 88459	2.56045	1.29764	1.2089	1.5709	85.34	-0.2445	0.0783	0.3228	1211.7802	0.205003	-388.269644	-388.26008	-388.259135	-388.303857	36.564	
C	 1.8499972865	 0.4110637612	-0.8533169022	-0.422426
C	 1.0551366747	-0.728392755	-0.2487434792	-0.001154
C	 1.7472933795	-1.9364763175	 0.3416205786	-0.313341
C	 0.977920759	-0.9998978524	 1.2381561445	-0.041698
C	 1.6688535701	-0.1668045162	 2.3017511723	 0.407116
C	 0.9255101718	 1.1350324799	 2.5755363321	-0.433914
C	 2.0868700601	-0.9676383237	 3.5683453918	-0.322392
C	 3.5264267869	-0.6135693225	 3.1587286997	-0.067667
O	 3.0721698826	 0.0998618038	 1.9915241101	-0.316998
H	 2.7600046617	 0.607964787	-0.2840546637	 0.15055
H	 2.1329437879	 0.173623778	-1.8853573273	 0.107467
H	 1.2608819151	 1.3352041632	-0.8815452694	 0.107687
H	 0.1335142032	-0.9471870548	-0.7839689607	 0.077231
H	 1.3494167549	-2.9263538676	 0.1453621945	 0.100633
H	 2.8290366686	-1.8836459992	 0.4078608699	 0.120494
H	 0.0131367228	-1.3609656449	 1.590604628	 0.078208
H	-0.1072671548	 0.930545882	 2.8791830161	 0.112274
H	 1.4149031817	 1.7015320981	 3.3733811415	 0.112024
H	 0.8998995119	 1.756757372	 1.6762303136	 0.129613
H	 1.7465456773	-0.547353046	 4.5165533298	 0.10369
H	 1.8432009676	-2.0304615538	 3.5323924901	 0.110077
H	 4.0732133692	 0.0424413727	 3.8470280878	 0.100974
H	 4.1692219318	-1.4619937343	 2.8951318419	 0.101551
