23
gdb 99279	4.35791	0.62229	0.56542	1.5753	83.55	-0.2673	0.0193	0.2866	2033.8625	0.202722	-425.475811	-425.464374	-425.463429	-425.514493	39.559	
C	 0.0927002981	 1.395109611	 0.0144663373	-0.238874
O	-0.0376921102	-0.0261101534	-0.1064677073	-0.234526
C	-1.2871210195	-0.5083252838	 0.0693998423	 0.450065
O	-2.2410641676	 0.1913846632	 0.3010939309	-0.356739
C	-1.2996701829	-2.018546807	-0.0545114135	-0.345741
C	-2.7137695827	-2.6016906144	-0.0641510864	-0.157707
C	-2.7675866852	-4.1391081374	-0.0309098949	 0.036514
C	-4.215872198	-4.6148793852	 0.1465301104	-0.390056
C	-2.1395544168	-4.7789587495	-1.2776413134	-0.382565
H	 1.1480521034	 1.6122972566	-0.151599569	 0.131066
H	-0.5241715594	 1.9049274126	-0.7300858991	 0.139314
H	-0.2142961054	 1.7291891105	 1.0090010828	 0.13868
H	-0.732215694	-2.284855576	-0.9519845985	 0.131029
H	-0.7187886012	-2.4185207765	 0.7878033358	 0.129516
H	-3.2575673918	-2.1989709794	 0.7968671098	 0.111703
H	-3.2498106467	-2.236640614	-0.9499020814	 0.101556
H	-2.1940035701	-4.4749324109	 0.8461060768	 0.068663
H	-4.8361971298	-4.3034474846	-0.702484356	 0.113118
H	-4.2697163476	-5.7065294531	 0.2130424819	 0.108248
H	-4.6642284749	-4.199027461	 1.0547686306	 0.111822
H	-2.659962348	-4.4523926644	-2.1863505713	 0.112092
H	-1.0818595978	-4.5213519807	-1.3884305508	 0.111673
H	-2.2074061717	-5.8708992026	-1.232576157	 0.111149
