14
gdb 5633	3.30977	1.79845	1.17377	1.8679	59.24	-0.2065	0.0304	0.2369	947.827	0.106854	-419.684732	-419.677011	-419.676066	-419.717257	27.777	
O	-0.0394995122	 1.4463334312	 0.0588381882	-0.421611
C	 0.0194837229	 0.0301377282	-0.0077675998	-0.187591
C	-1.3766467889	-0.4985658072	-0.004459359	 0.169788
C	-2.5398178709	 0.2020730853	 0.0503677321	-0.07307
O	-3.613278142	-0.6269001179	 0.0336600787	-0.150281
C	-3.1318481121	-1.9050262799	-0.034160305	-0.143062
C	-1.77080594	-1.8766885291	-0.0596174946	 0.174636
O	-0.862017534	-2.8893357247	-0.1237048283	-0.442524
H	 0.8610567189	 1.7819018395	 0.0560705722	 0.290795
H	 0.5423711461	-0.3086765776	-0.9174958357	 0.104543
H	 0.5773875059	-0.3901655895	 0.8454003571	 0.104548
H	-2.7469586675	 1.2565433623	 0.1026029701	 0.148848
H	-3.8624994059	-2.6957347403	-0.0558839393	 0.124426
H	-1.3266097404	-3.7316249902	-0.1528983367	 0.300554
