16
gdb 74894	2.9404	1.67164	1.15946	1.8729	72.36	-0.2199	-0.028	0.1919	1023.4789	0.127034	-434.103369	-434.095822	-434.094878	-434.135145	29.934	
N	 0.0080223587	 1.3333822071	-0.0716145495	-0.536266
C	-0.052153854	-0.0237398726	-0.0332838368	 0.274312
N	-1.1631574509	-0.6639450873	 0.0118942037	-0.319437
C	-1.1353136527	-2.0854090041	-0.0403586986	 0.009766
C	-0.6895600458	-2.8186087172	-1.2921858967	-0.312259
C	 0.184449434	-2.8290699727	-0.0597576939	-0.006665
N	 1.3501658556	-1.9996710444	 0.008225559	-0.338122
C	 1.3358870992	-0.6458344161	-0.0221660714	 0.382515
O	 2.3439726937	 0.0447162304	 0.0034501897	-0.39258
H	 0.9121705996	 1.7437870012	 0.0993140957	 0.274142
H	-0.8284315341	 1.8532033176	 0.1321156214	 0.259485
H	-1.9512231614	-2.5422139144	 0.5110536569	 0.100343
H	-1.2036877764	-3.7348611251	-1.5611796564	 0.118076
H	-0.3619877722	-2.2062101407	-2.1256207935	 0.124882
H	 0.2865848637	-3.7524749916	 0.5006779175	 0.106189
H	 2.2666898529	-2.4238145002	 0.0079058828	 0.255619
