14
gdb 26079	3.31096	1.15751	1.02971	7.0618	67.4	-0.2512	0.002	0.2532	1144.7372	0.102949	-432.907789	-432.899981	-432.899037	-432.941194	28.269	
O	-0.0302634409	 1.4173493201	 0.0357714323	-0.405105
C	 0.0237139053	 0.0130364938	-0.0273198136	-0.120065
C	 0.7293448083	-0.4373502555	-1.257458562	 0.261531
N	 1.2694497666	-0.7960742353	-2.2139151835	-0.327666
C	 0.6922331745	-0.5581994502	 1.1979672892	 0.290403
C	 0.4753495421	-1.7215319799	 1.8847703831	-0.187099
N	 1.3918157542	-1.7036595416	 2.9125996005	-0.236689
C	 2.1043191787	-0.5488116024	 2.8075125798	 0.025424
N	 1.7071298989	 0.1642274325	 1.7798082523	-0.316838
H	 0.7784133528	 1.689370963	 0.4954148303	 0.305328
H	-1.0061211291	-0.3555508173	-0.0984214867	 0.136459
H	-0.2143510773	-2.5364748333	 1.743856298	 0.149271
H	 1.5045016411	-2.4129070318	 3.6180224873	 0.277807
H	 2.8866719848	-0.2834491221	 3.501986253	 0.147237
