15
gdb 74063	2.75752	1.3022	0.9503	8.3986	75.89	-0.2419	-0.0321	0.2099	1181.5343	0.113602	-416.869479	-416.861159	-416.860215	-416.9029	30.528	
N	 0.0518678844	 1.3484947212	-0.1235709957	-0.574437
C	-0.0435083835	 0.0037644178	-0.0306632302	 0.406839
C	-1.1670373362	-0.7599008967	-0.0210077319	-0.329104
C	-0.8480124142	-2.1696760797	 0.0486171065	 0.404982
O	-1.5801596684	-3.1285891246	 0.0891599391	-0.344182
C	 0.7268840468	-2.2801762269	 0.0284229766	-0.265481
C	 1.2251062816	-0.8171181882	 0.0448520025	-0.336288
C	 1.2372471315	-3.084481053	 1.1286681763	 0.282133
N	 1.6536419386	-3.7001987733	 2.0139570767	-0.326656
H	 0.9320572846	 1.8053968056	 0.0425826836	 0.270087
H	-0.7724766048	 1.9215611798	-0.0565289521	 0.273349
H	-2.186010355	-0.3985714558	-0.0558162741	 0.105448
H	 0.9921751637	-2.7778699862	-0.9100753842	 0.149714
H	 1.8875697508	-0.5942534815	-0.7981922745	 0.135843
H	 1.7793509902	-0.5844836285	 0.9603861315	 0.147753
