17
gdb 17322	2.91119	2.4431	1.78705	1.5708	67.99	-0.2133	0.0519	0.2652	811.1511	0.140145	-363.757752	-363.750182	-363.749238	-363.789073	29.074	
C	-0.1722953002	 1.5591174401	-0.0173469274	-0.30012
N	 0.1692535104	 0.1381616082	 0.0816685526	-0.102252
C	 1.3828792449	-0.5268947251	-0.2959304489	-0.156015
C	 2.6954854947	 0.1761095878	 0.2275986135	 0.000402
O	 2.3427762703	 1.3975364632	 0.8860424275	-0.234371
C	 2.1905336319	 0.1627942697	 1.593983373	-0.045515
C	 0.8581029441	-0.5644365964	 1.1204703075	 0.289755
C	 0.2034217688	-1.6445638069	 1.9283232453	-0.491891
H	 0.4754690799	 2.0776340593	-0.7273491275	 0.126415
H	-1.2093739642	 1.6423775038	-0.36454499	 0.105031
H	-0.0847714077	 2.0654103395	 0.9466910114	 0.124754
H	 1.3765482815	-1.2884953277	-1.0697057607	 0.092879
H	 3.7007000839	 0.0767506696	-0.1634534141	 0.109173
H	 2.6995538151	 0.0516444987	 2.544380761	 0.106311
H	-0.32377434	-1.2231166289	 2.7931252359	 0.122815
H	-0.5237274	-2.1851458056	 1.3173346442	 0.134267
H	 0.9431315465	-2.3587155891	 2.3073858968	 0.118362
