18
gdb 87271	2.05318	1.54177	1.05798	1.855	74.73	-0.2576	-0.0409	0.2168	1186.8	0.14459	-439.097418	-439.087696	-439.086752	-439.132337	34.551	
C	-0.2388533812	 1.6041573588	 0.4336009858	-0.407715
C	-0.1688796306	 0.1013432344	 0.3104018035	 0.002299
N	 0.8813830849	-0.4913478083	-0.4783659399	-0.353615
C	 0.910107575	-0.7609157867	 0.9753637115	 0.078202
C	 2.0247609083	-0.0766360485	 1.6962321505	 0.097847
O	 2.3657974956	-0.2946235786	 2.8330856088	-0.267876
C	 0.3929794653	-2.1227203799	 1.3967992756	 0.316174
C	 0.545939538	-2.5694647959	 2.8272261932	-0.474488
O	-0.154143083	-2.8115162035	 0.5584530043	-0.320892
H	 0.7489713329	 2.0640430963	 0.372996785	 0.135287
H	-0.8452532037	 2.0057781074	-0.3852869334	 0.136083
H	-0.7108119956	 1.8991535474	 1.3759157898	 0.132105
H	-1.1353711426	-0.4018719403	 0.2907969158	 0.116379
H	 0.5388947216	-1.3488451927	-0.9156037619	 0.256046
H	 2.5414199962	 0.6772916983	 1.0670621501	 0.103881
H	 1.6048206955	-2.6565920195	 3.0856657616	 0.166594
H	 0.1369246251	-1.8199139517	 3.5111755764	 0.148244
H	 0.0386131182	-3.526390857	 2.9550993534	 0.135444
