15
gdb 84329	3.02084	1.46653	1.01507	1.9276	71.46	-0.2621	-0.0582	0.204	1104.2317	0.114003	-453.988643	-453.980804	-453.97986	-454.021548	29.241	
N	 0.2867641491	 1.185902904	 0.5821770266	-0.504879
C	-0.0728434895	-0.0868096442	-0.0356366212	-0.196621
C	-1.5544544554	-0.2017956287	-0.2299961432	-0.064381
C	-2.0825814027	-0.8148079594	-1.2878778093	-0.121629
C	-1.2520444797	-1.3909379113	-2.341001915	 0.39353
N	-1.7330192315	-2.0825874139	-3.2839631127	-0.496628
O	 0.1159124821	-1.1322720402	-2.2974423587	-0.246212
C	 0.7165338192	-0.3817557994	-1.3200496317	 0.408184
O	 1.8445087144	-0.0184394705	-1.4852060401	-0.309474
H	 1.3000296607	 1.2318922294	 0.6518587688	 0.251093
H	 0.0206129776	 1.9467669407	-0.0385334363	 0.235493
H	 0.2352508375	-0.8778837794	 0.6686788272	 0.144043
H	-2.1724719254	 0.2209821426	 0.5554225486	 0.133951
H	-3.1489146292	-0.9409552526	-1.4259809721	 0.13547
H	-0.9938205472	-2.3918387371	-3.9177608008	 0.238061
