20
gdb 94231	2.95895	1.13116	1.03686	2.3547	75.44	-0.2458	0.029	0.2748	1235.9283	0.169799	-440.30231	-440.292726	-440.291782	-440.336597	35.842	
C	 0.3786496503	 1.4571879941	 0.022363385	-0.4527
C	 0.0066343172	-0.0273093108	-0.0220404106	 0.311901
C	 0.8732879041	-0.8410256244	-1.0295090467	-0.238411
C	 1.8159152505	-1.2364855592	 0.1405626856	-0.2827
C	 0.6699405146	-0.866628181	 1.1153947528	 0.097225
O	 0.9288624969	-0.2868942985	 2.3656875856	-0.426692
N	-1.4378057451	-0.2008063497	-0.1110039731	-0.342537
C	-2.1637799805	 0.0967565487	-1.2180991552	 0.148988
O	-1.7006109467	 0.4944878323	-2.2684109963	-0.334866
H	 1.4647812435	 1.598670205	 0.0494108527	 0.105578
H	-0.0011453594	 1.9516873014	-0.8741707372	 0.157899
H	-0.0551776938	 1.9384674375	 0.9046323226	 0.117522
H	 0.323068893	-1.6961076293	-1.4256450969	 0.113418
H	 1.2993540361	-0.2796737226	-1.8608186398	 0.117511
H	 2.1964484214	-2.2585076315	 0.1795016427	 0.108273
H	 2.6619762411	-0.5480148936	 0.2377575681	 0.100392
H	 0.0508708898	-1.7469242977	 1.3204970084	 0.090854
H	 1.548593242	 0.4391618875	 2.2393808155	 0.284564
H	-1.9339789306	-0.4619413366	 0.7277392137	 0.248098
H	-3.2480305243	-0.0788075016	-1.0634721569	 0.075682
