13
gdb 25469	2.78628	1.68088	1.04841	1.7181	67.98	-0.2666	-0.0906	0.1759	1031.519	0.091083	-452.825829	-452.818813	-452.817869	-452.857616	25.663	
O	-0.0399607895	-0.0681223651	-0.001638568	-0.280059
C	-0.0308391087	 1.1317100878	 0.0075305163	 0.186389
N	 1.1709885079	 1.8943661887	 0.0000953849	-0.213587
C	 2.3835160418	 1.2411679937	-0.0185241565	 0.140942
N	 3.5324003785	 1.8243801524	-0.0267594403	-0.302637
C	 3.5133460945	 3.2051014843	-0.015721967	 0.018486
C	 2.3864838063	 3.9564334385	 0.0027164631	-0.227999
C	 1.0807182228	 3.332215452	 0.0123160072	 0.44734
O	 0.0015567121	 3.8864467142	 0.0287657701	-0.375267
H	-0.9124703551	 1.7833993162	 0.0225312106	 0.163743
H	 2.30269729	 0.1589362055	-0.0260914854	 0.173571
H	 4.4927644021	 3.6743178285	-0.0229345245	 0.134514
H	 2.4102695574	 5.0385343834	 0.0109578096	 0.134565
