16
gdb 25717	2.65053	1.54838	0.98933	2.3461	74.6	-0.2534	-0.0571	0.1963	1150.9152	0.123326	-437.952638	-437.943945	-437.943001	-437.986605	30.574	
C	-0.0006774239	 1.5594503929	-0.1155874904	-0.483903
C	 0.0024392363	 0.0545580628	 0.0699475415	 0.301204
O	 0.0077752279	-0.4652500675	 1.1710621019	-0.315421
C	-0.0008854218	-0.7678737648	-1.1434345912	 0.169856
C	 0.0009976631	-2.1185806969	-1.3776970211	 0.190649
C	 0.006844238	-3.2468200076	-0.4072005046	-0.502636
N	-0.0037113298	-2.3306106251	-2.7491039601	-0.299372
C	-0.0081906522	-1.1409309144	-3.2624182665	 0.069092
O	-0.0068736443	-0.1367238096	-2.373678921	-0.176416
H	 0.8773173826	 1.8789124064	-0.6866180208	 0.145989
H	-0.8803026095	 1.8759923727	-0.685629577	 0.145893
H	-0.0006462132	 2.0353087698	 0.8651691671	 0.142983
H	-0.8749228816	-3.8789586134	-0.5571988488	 0.143441
H	 0.8853683961	-3.8803358648	-0.5695371621	 0.143398
H	 0.0138787524	-2.8680853631	 0.6141991896	 0.166673
H	-0.0126957001	-0.8683123072	-4.3069086567	 0.158571
