16
gdb 12580	3.10464	2.09697	1.27284	4.7764	72.02	-0.2079	0.0026	0.2105	928.3518	0.131364	-379.958511	-379.950534	-379.949589	-379.990802	29.424	
C	 0.0313066912	 1.5363693398	 0.0238650317	-0.509935
C	-0.0086625591	 0.0426730538	 0.0219473283	 0.139058
C	-1.0677021022	-0.7899329532	-0.0017577635	 0.218086
N	-2.415639625	-0.5146666707	 0.0409632624	-0.588613
C	-0.5767345179	-2.2136399433	 0.0146292021	-0.163564
O	 0.8409762252	-2.1123895333	 0.033396723	-0.253492
C	 1.2008176884	-0.7757161324	 0.0460429031	 0.356229
N	 2.3994798703	-0.3629084996	 0.0638849704	-0.56344
H	 0.902124001	 1.8847738298	-0.5378223153	 0.155945
H	-0.8684837094	 1.9714306918	-0.4265444937	 0.100007
H	 0.12251525	 1.9417568351	 1.0387230182	 0.136669
H	-2.6742394022	 0.4392885472	-0.1665820401	 0.258146
H	-3.0215817135	-1.1835180671	-0.41197001	 0.254369
H	-0.9229253449	-2.7602492807	 0.9023666137	 0.128782
H	-0.8925858533	-2.779068262	-0.874411761	 0.115771
H	 3.0503350914	-1.1484910152	 0.0636804606	 0.215983
