18
gdb 106695	2.50756	1.4808	1.17451	2.2696	70.87	-0.2504	0.0626	0.313	1101.2194	0.146706	-439.006959	-438.998433	-438.997489	-439.040242	32.23	
C	 0.0815533283	 1.4774831573	 0.0508134657	-0.488826
C	-0.0026247639	-0.0171695371	 0.1140097343	 0.23973
N	 1.1962577933	-0.8406382615	-0.0989056954	-0.415123
C	 0.4626812445	-0.9974218989	 1.1707913488	 0.249769
C	 1.2143700681	-0.7836050756	 2.4501130307	-0.165813
O	 2.1147146971	-1.8499139291	 2.7153772208	-0.417296
C	-0.802191476	-1.8168672551	 0.9510149113	-0.063947
O	-1.9395180069	-0.9691789277	 1.1840251513	-0.238632
C	-1.2588979467	-0.8664014583	-0.0760998288	-0.052859
H	 1.0314551454	 1.8303416705	 0.4597986516	 0.134701
H	 0.0144218638	 1.8284139992	-0.9852293822	 0.125667
H	-0.7379033176	 1.929590913	 0.6177227021	 0.135746
H	 1.0252864994	-1.6146429228	-0.738425211	 0.228302
H	 1.73868052	 0.1823779666	 2.4104797406	 0.095817
H	 0.5156631743	-0.7527808403	 3.2916959363	 0.122773
H	 2.7319825343	-1.8747699847	 1.9753681902	 0.288702
H	-0.9546273008	-2.8867106489	 1.0289423357	 0.113125
H	-1.8450003766	-1.0369315268	-0.9721239121	 0.108164
