21
gdb 59831	3.62786	0.60638	0.57849	2.4902	84.89	-0.2461	0.0394	0.2855	2024.2533	0.178788	-424.19941	-424.187989	-424.187045	-424.237649	40.251	
C	 0.1773022239	 1.3514635478	 0.6628002769	-0.403076
C	-0.4025739293	-0.0621457067	 0.6106312368	 0.150573
O	-1.757280856	-0.0880671335	 1.0333476781	-0.422146
C	-0.2309337295	-0.6900210001	-0.7925233733	-0.380538
C	-0.7312562922	-2.0555369427	-0.8797023795	 0.011672
C	-1.1475046851	-3.1843841625	-0.9427553502	 0.118422
C	-1.6991140087	-4.5426139148	-0.9475625291	-0.010549
C	-0.9481037521	-5.4611275464	 0.0277681234	-0.381639
O	-3.1017768917	-4.5384358819	-0.6823387545	-0.418115
H	 0.0273137517	 1.7807907146	 1.6565573637	 0.127942
H	 1.2493676752	 1.3532681742	 0.4405028669	 0.117561
H	-0.3170107317	 2.0027927409	-0.0691577172	 0.108009
H	 0.1206831607	-0.6975807954	 1.3338842019	 0.100217
H	-2.2690686129	 0.4562547017	 0.424168843	 0.277709
H	-0.7455990864	-0.052451423	-1.5269745044	 0.116689
H	 0.8324091179	-0.6639481826	-1.064672944	 0.129102
H	-1.6133754656	-4.9616639108	-1.9579519564	 0.112731
H	-1.0120892115	-5.0679981109	 1.0473584922	 0.117696
H	-1.3954072777	-6.458385575	 0.0058120986	 0.122474
H	 0.109304858	-5.5362110565	-0.2430074416	 0.120415
H	-3.2412859572	-3.9824248465	 0.0925010985	 0.284849
