14
gdb 129334	4.49446	1.19062	0.94127	4.0996	76.62	-0.228	-0.0674	0.1606	1164.3205	0.103308	-429.055881	-429.048489	-429.047545	-429.088685	26.634	
N	 0.3854185656	 1.251997971	 0.0023747116	-0.395104
C	 0.0761132998	 0.0235431	 0.0014977656	 0.082861
N	-1.2190829396	-0.4788345155	 0.0129636321	-0.350184
C	-2.4516699575	 0.1398252963	 0.0275512978	 0.508907
N	-3.4838414559	-0.7292334536	 0.0353748013	-0.305899
C	-4.677828068	-0.1676874641	 0.0492794855	-0.004581
C	-4.8149747369	 1.2217574695	 0.0549898313	-0.000077
N	-3.7478806062	 2.0149420367	 0.0465092789	-0.147658
N	-2.5355788931	 1.4771853982	 0.0324660912	-0.233046
H	 1.3997202643	 1.3463651661	-0.0077511358	 0.229042
H	 0.7877741606	-0.8117658439	-0.0086446824	 0.095104
H	-1.3054718613	-1.4837460154	 0.0106166148	 0.263029
H	-5.5423538209	-0.8279525871	 0.0560704765	 0.129665
H	-5.7824824608	 1.7109025617	 0.0664056515	 0.127942
