14
gdb 35314	5.61214	0.98227	0.91639	2.0097	72.54	-0.2646	-0.0285	0.2361	1202.4066	0.101881	-395.699802	-395.692143	-395.691199	-395.732296	28.252	
N	-0.105454463	-1.147037924	-0.2331949483	-0.313096
C	-0.0452729673	-0.0030403065	-0.0845229849	 0.3085
C	 0.0467553093	 1.4491020925	 0.0807997249	-0.143786
N	-0.1260261815	 1.9341967619	 1.4942022802	-0.356015
C	 1.1250755147	 2.7244652845	 1.3613045133	 0.261525
C	 2.2642980632	 1.7551078183	 1.2083750333	-0.306471
C	 1.440023204	 2.0957353951	-0.0013198381	-0.139714
C	 1.2368943356	 4.070749023	 1.8108232853	 0.183736
N	 1.3052693874	 5.1664247497	 2.1776595974	-0.333806
H	-0.6465442803	 1.9315184128	-0.6146207653	 0.141541
H	-0.9453794191	 2.528553824	 1.5709979012	 0.250331
H	 3.2566062656	 2.1919046941	 1.2082509476	 0.152436
H	 2.1705994932	 0.7892495528	 1.6950026545	 0.156649
H	 1.8564401383	 2.5415599619	-0.893505581	 0.138171
