19
gdb 126576	3.05816	1.0107	0.81157	4.156	77.49	-0.2871	-0.0323	0.2548	1444.8937	0.158223	-419.19122	-419.181863	-419.180918	-419.226461	33.124	
C	-0.0171296706	 1.584393268	 0.0619636305	-0.38095
C	-0.0738176793	 0.0581876308	-0.029851088	-0.170104
C	 0.7942676711	-0.4931201433	-1.1780841465	-0.302037
C	 0.7483150352	-1.9847096287	-1.2857313815	 0.266795
N	 1.7031148582	-2.7473547317	-0.8247522528	-0.146954
O	 1.3172811732	-4.0344709479	-1.0760550152	-0.158546
N	 0.1053413817	-4.0712390776	-1.7071029202	-0.136503
C	-0.267794065	-2.8278077022	-1.8473647533	 0.26424
C	-1.5514723823	-2.4528780676	-2.510642511	-0.505929
H	 1.0079412478	 1.9321545559	 0.2297201366	 0.122418
H	-0.3791206731	 2.0526153082	-0.8601141637	 0.116414
H	-0.633517444	 1.9527912404	 0.8872196198	 0.119501
H	 0.2656940334	-0.3883109526	 0.9116514741	 0.119153
H	-1.112872962	-0.2661858351	-0.166417968	 0.102543
H	 0.4652232018	-0.0520284353	-2.1274382002	 0.111064
H	 1.834964578	-0.189842296	-1.0283049673	 0.132145
H	-2.2257382916	-1.9463708849	-1.8124083323	 0.145992
H	-1.3750976477	-1.7705937802	-3.348743015	 0.142553
H	-2.0518815048	-3.3460501503	-2.8882522063	 0.158204
