23
gdb 104417	1.98168	1.59219	1.30057	0.4832	81.31	-0.2497	0.0828	0.3326	1171.4152	0.204516	-425.44444	-425.434321	-425.433377	-425.479092	37.643	
C	 0.2582369633	 1.331992327	 0.2432867286	-0.253436
O	 0.2253851016	-0.0746305792	 0.0924923409	-0.285529
C	 0.65145809	-0.580588707	-1.1662904758	 0.477472
C	-0.2340351161	-0.1008541398	-2.3110654243	-0.447843
O	 1.9780388603	-0.1752326314	-1.4486737592	-0.292393
C	 2.9116179197	-1.0880920223	-0.8510990671	-0.086508
C	 2.0848944108	-2.2374665478	-0.2521368359	-0.251992
C	 0.7423797343	-2.1114725625	-0.9927595786	-0.009407
C	-0.4447678037	-2.7782237483	-0.3039754203	-0.41091
H	 1.2123213354	 1.7489095979	-0.0988802508	 0.124135
H	-0.5606658527	 1.8270014574	-0.2969720362	 0.105259
H	 0.1390770379	 1.5357691625	 1.3104629208	 0.119766
H	-0.128422208	 0.9761943251	-2.4605454373	 0.126309
H	 0.0555277809	-0.5967503013	-3.2404957801	 0.121155
H	-1.2829096131	-0.3238138622	-2.0980047713	 0.123196
H	 3.5893084917	-1.4341397011	-1.6410688853	 0.099751
H	 3.5109207031	-0.5634914929	-0.0983614194	 0.101287
H	 2.5597009504	-3.2114829353	-0.3936634871	 0.097896
H	 1.9281594619	-2.0863473024	 0.819434818	 0.114201
H	 0.8588574805	-2.527365399	-2.0015145387	 0.073003
H	-0.6013679736	-2.3551283062	 0.6905053862	 0.134967
H	-1.3673926203	-2.6428855478	-0.8781937328	 0.111733
H	-0.2755277744	-3.8551563933	-0.2019277944	 0.107891
