18
gdb 17796	4.26087	1.58342	1.55647	1.0145	67.09	-0.2357	0.0833	0.319	909.0961	0.154826	-384.899967	-384.892505	-384.891561	-384.93244	27.012	
C	 0.0280269381	 0.9933612681	-0.4182848242	-0.054542
C	 1.4629304386	 1.3932080739	-0.025744299	-0.290565
C	 1.4263071291	 0.1123131408	 0.8403698007	 0.125448
O	 0.0607952408	-0.161394026	 0.4505372796	-0.295367
C	 2.3663589684	-1.0001666999	 0.4281169368	 0.125448
C	 1.8731743386	-2.4426563048	 0.689229396	-0.290564
C	 1.8527593419	-2.5579214538	-0.8467434921	-0.054542
O	 2.3581995312	-1.2126717168	-1.0023674858	-0.295367
H	-0.7630872234	 1.6945301448	-0.1272261819	 0.098528
H	-0.1084589236	 0.7064226084	-1.4666698443	 0.110071
H	 2.1891878323	 1.3685486169	-0.8380684552	 0.128194
H	 1.5544572118	 2.3267098241	 0.5304554159	 0.107016
H	 1.5059694181	 0.2707652714	 1.9258978694	 0.071216
H	 3.3794201068	-0.7718526578	 0.7906134466	 0.071216
H	 2.5861337168	-3.0914120935	 1.1990968636	 0.107016
H	 0.8977783206	-2.5061742555	 1.1714090162	 0.128195
H	 2.5347242646	-3.2977255344	-1.2824366829	 0.098528
H	 0.8596748293	-2.670787136	-1.2952048592	 0.110071
