17
gdb 79991	2.18913	1.70223	1.58758	2.9007	68.26	-0.2332	0.0012	0.2345	957.7424	0.13533	-458.921015	-458.912995	-458.91205	-458.952824	32.299	
O	 0.1542110925	 1.4747731683	-0.1236158012	-0.438194
C	 0.0490811703	 0.0963895786	-0.0105501725	 0.105554
C	 0.1167592232	-0.6224875616	 1.3924591679	-0.19234
C	-1.0794569906	 0.0031042903	 2.0982935362	-0.114857
C	-2.0409125781	-0.0028613446	 1.1614908827	-0.147924
C	-1.3591119052	-0.6309095153	-0.0448027678	 0.322784
O	-2.1346758984	-0.8019920152	-1.1781204529	-0.495727
C	-0.6312803586	-1.8216112059	 0.6762196365	 0.08467
O	 0.0965542881	-2.5931504245	-0.2467307165	-0.447937
H	-0.4896714578	 1.8561473736	 0.4885309107	 0.27582
H	 0.7511714098	-0.3397841257	-0.7223384836	 0.102274
H	 1.0525157436	-0.7593854212	 1.9310077859	 0.067817
H	-1.1275889396	 0.3257176271	 3.1288294498	 0.106877
H	-3.0751168844	 0.3074596185	 1.2040383197	 0.11247
H	-1.631470558	-1.353724604	-1.7878757337	 0.290653
H	-1.2597410205	-2.434428259	 1.3321795616	 0.075759
H	 0.4922759437	-3.3396529693	 0.2123155072	 0.292303
