21
gdb 40092	3.27119	1.39607	1.20954	1.4623	81.99	-0.2464	0.0793	0.3256	1110.2407	0.184647	-387.070923	-387.063248	-387.062304	-387.103369	30.871	
C	-0.3196613667	 1.3958825028	 0.125551997	-0.320547
C	 1.1144494954	 0.9448449894	-0.0327710693	-0.33039
C	 0.0069398973	-0.0653329603	 0.0405906564	 0.408152
C	-0.1712572296	-1.1312760316	 1.1295070193	-0.321266
C	-0.4963364535	-2.1791405767	 0.0226418726	-0.018694
C	-1.9577098159	-2.6187700025	-0.0663810298	-0.09284
O	-2.6596699798	-1.5019509834	-0.5998002271	-0.247893
C	-1.8188183658	-0.9489820338	-1.6067948807	-0.090667
C	-0.3862359893	-1.0529386705	-1.0697701092	-0.139912
H	-0.6320193604	 1.7918731406	 1.0867365987	 0.112148
H	-0.8016074397	 1.8686040922	-0.7248073743	 0.109678
H	 1.5973000653	 1.10806791	-0.9918025784	 0.108009
H	 1.7792368891	 1.0365194507	 0.8209111144	 0.109235
H	 0.7256719644	-1.348107461	 1.7166888983	 0.095974
H	-1.0038256653	-0.9462884796	 1.8159279847	 0.102875
H	 0.2062365212	-3.0099717472	-0.0506238485	 0.07042
H	-2.0564420818	-3.4927861629	-0.7325963659	 0.082828
H	-2.4092036014	-2.8655273665	 0.8992301062	 0.106149
H	-1.9135033001	-1.5212557599	-2.5451195026	 0.082421
H	-2.1536654008	 0.0756954423	-1.7912789128	 0.106058
H	 0.3510043473	-1.1860481524	-1.8650444189	 0.068261
