22
gdb 16566	2.71685	2.40681	1.96972	0.0177	79.56	-0.2861	0.0753	0.3614	846.0212	0.205785	-313.109072	-313.102462	-313.101518	-313.139291	28.268	
C	-0.0369954959	 1.5624334889	-0.0737418019	-0.209964
C	 1.4559191604	 2.0193217714	-0.0849175805	-0.209954
C	 2.2833063573	 0.7115292538	 0.0154022932	 0.020895
C	 1.3487153509	-0.3118403785	-0.6572173905	-0.208804
C	 0.0106947709	 0.0159869989	 0.0322674434	 0.020898
C	 0.0716525939	-0.4638878241	 1.4968187288	-0.19787
C	 1.2061421207	 0.2251828067	 2.2788243624	-0.189131
C	 2.5212251435	 0.2858169414	 1.4786406655	-0.197869
H	-0.6073435081	 2.0123964725	 0.7449977366	 0.091914
H	-0.5338863448	 1.859599247	-1.0023931939	 0.09158
H	 1.6886644603	 2.5395912969	-1.0191355788	 0.091582
H	 1.6878924064	 2.7149979735	 0.7276816565	 0.091908
H	 3.2454069905	 0.8027450611	-0.4981911851	 0.053084
H	 1.285490305	-0.1314434913	-1.7370195078	 0.082075
H	 1.6673938652	-1.3495242413	-0.5097869295	 0.082891
H	-0.8445300633	-0.4489821168	-0.4678595775	 0.053085
H	-0.8861253009	-0.2786997855	 1.9981762858	 0.086219
H	 0.2200283414	-1.5518794425	 1.5028804206	 0.087508
H	 0.8953058941	 1.2468645447	 2.5281342035	 0.098305
H	 1.3675397278	-0.2789087705	 3.2380854168	 0.087921
H	 3.0072641266	-0.6988317596	 1.4821859532	 0.087509
H	 3.2180177582	 0.9773850535	 1.9677285392	 0.086218
