21
gdb 86312	1.96877	1.68775	1.13632	1.2588	77.75	-0.2492	0.0574	0.3065	1157.2597	0.182119	-424.198716	-424.18963	-424.188685	-424.232308	35.149	
O	 0.8965548784	 0.7916561508	-0.5767459259	-0.430935
C	 0.3267516825	-0.2400359698	 0.1897526987	 0.082236
C	-0.0335335848	 0.0017226889	 1.6794326204	-0.327636
C	-1.2632646864	-0.91743613	 1.4626108984	 0.100835
O	-2.4693873865	-0.661722245	 2.1378616753	-0.428776
C	-1.1406173707	-0.6733048657	-0.0717693122	 0.281313
C	-2.1401352544	 0.3416199696	-0.6972621657	-0.293603
C	-2.8720387712	-0.8533457009	-1.3632750241	-0.200854
C	-1.6156263042	-1.7257394592	-1.0968005746	-0.306716
H	 0.3558585637	 1.580416171	-0.463784598	 0.278546
H	 1.0053075404	-1.0922502093	 0.0803812893	 0.092581
H	 0.6927621979	-0.2563174649	 2.4527423896	 0.106968
H	-0.3543087046	 1.0410611764	 1.830267633	 0.084033
H	-1.0194185667	-1.9597421986	 1.6935737647	 0.092098
H	-2.6699146409	 0.275583042	 2.0491238732	 0.279042
H	-2.7264186881	 0.9810267087	-0.0291813145	 0.076693
H	-1.6407592949	 0.9774121924	-1.4358280066	 0.10122
H	-3.7234492715	-1.1812811812	-0.7622058132	 0.114602
H	-3.1956180236	-0.7287550754	-2.3990033168	 0.096502
H	-0.9511149101	-1.7709162576	-1.9659348963	 0.105377
H	-1.7739342543	-2.7416837424	-0.7231528448	 0.096474
