21
gdb 120647	3.51249	0.79788	0.75555	1.1925	76.95	-0.2402	0.063	0.3032	1605.9488	0.179726	-461.325291	-461.314705	-461.313761	-461.361403	37.95	
C	-0.3242582131	 1.1981002662	-0.5495120749	-0.222607
O	-0.4265035775	-0.2037017414	-0.5333673165	-0.236056
C	-1.0983169383	-0.6875885978	 0.613480976	-0.070169
C	-1.1676292359	-2.1882262471	 0.5222331536	-0.090968
C	-2.1501180716	-2.9640422511	 1.3814610091	-0.364176
C	-2.3450286355	-2.8603130409	-0.1154354447	 0.449866
O	-3.3631092863	-2.0210354584	-0.5808134589	-0.476106
C	-2.1449839999	-4.0668325267	-0.9937385965	-0.151337
O	-3.3969874231	-4.7540527543	-1.0356117634	-0.433634
H	 0.208526219	 1.4785931148	-1.4617314736	 0.122484
H	-1.3141794507	 1.6817728888	-0.5540781529	 0.104606
H	 0.2367247288	 1.579686133	 0.3196632591	 0.097825
H	-0.5531631923	-0.3879768307	 1.5258978265	 0.079756
H	-2.1118790418	-0.2650692376	 0.6758394221	 0.102903
H	-0.2002186309	-2.6539623245	 0.3524791908	 0.089806
H	-1.8298200647	-3.9036526234	 1.8183381979	 0.110631
H	-2.83990052	-2.3872471085	 1.9882379059	 0.115077
H	-4.1200075681	-2.6011460129	-0.7327657724	 0.28798
H	-1.8482893221	-3.7357972936	-1.9990574394	 0.103596
H	-1.3488158295	-4.7096574175	-0.5907049844	 0.088145
H	-3.4082261264	-5.3183811765	-1.8133965235	 0.292376
