14
gdb 127191	2.41209	2.0466	1.11488	0.7709	67.81	-0.2645	-0.0806	0.1839	998.1545	0.1026	-466.196418	-466.188639	-466.187695	-466.229216	28.045	
C	-0.0158890178	 1.4905080782	-0.0131225973	-0.340107
N	-0.0089685512	 0.028350156	-0.0130196839	-0.2013
C	-1.1973327742	-0.6537488482	-0.1289375331	 0.534462
O	-2.2961104747	-0.161811467	-0.2356948588	-0.383198
N	-1.0136956835	-2.0390038881	-0.1115824322	-0.307638
N	 0.1522294329	-2.7084725542	 0.0013883792	-0.013774
N	 1.2214750533	-2.0597844418	 0.1057653381	-0.250316
C	 1.2175081446	-0.6357343139	 0.1062592013	 0.46778
N	 2.2919607058	 0.0350587211	 0.2114703516	-0.523602
H	 0.5927386908	 1.8590448586	-0.8416750777	 0.156776
H	-1.0484719658	 1.8170807264	-0.1137042782	 0.168067
H	 0.4211293019	 1.8583593951	 0.9177132409	 0.156782
H	-1.8358442902	-2.6181896624	-0.1919459551	 0.292714
H	 3.075081408	-0.61311149	 0.2874096751	 0.243354
