23
gdb 91737	3.01184	1.34021	1.25825	1.4356	83.71	-0.2476	0.0801	0.3277	1160.4199	0.208471	-388.318341	-388.31007	-388.309126	-388.350821	33.539	
C	-0.3403616418	 1.5372696456	-0.009582804	-0.420393
C	 0.0160456878	 0.052329794	-0.0026457156	 0.05631
C	 0.8044931196	-0.4589363095	-1.2506424648	-0.259954
C	 1.9498017099	-1.2537059533	-0.5823701499	 0.080898
O	 1.3444146202	-1.7356505688	 0.6294258072	-0.268012
C	 0.9430022494	-0.4517730117	 1.1328297155	 0.061327
C	 2.2805030932	 0.3181530609	 1.1796686603	-0.245102
C	 3.035259137	-0.2843199842	-0.0499931485	 0.047984
C	 4.321792344	-1.0116002217	 0.3430742326	-0.415677
H	 0.5370213576	 2.17156336	-0.1730004162	 0.115859
H	-1.0536890525	 1.7588182117	-0.8101621597	 0.117159
H	-0.8031129703	 1.8426062341	 0.9357791105	 0.113032
H	-0.9116031627	-0.5233100538	 0.0827511742	 0.078207
H	 0.1876805962	-1.1032359784	-1.8814735469	 0.099876
H	 1.1790517253	 0.3599083151	-1.8729426702	 0.093007
H	 2.3331322803	-2.0980950051	-1.1574111648	 0.068892
H	 0.4480667851	-0.57634538	 2.0972327149	 0.069656
H	 2.1608229409	 1.4023283929	 1.1249140426	 0.097793
H	 2.8119497231	 0.0914413618	 2.108129113	 0.099996
H	 3.2631844386	 0.486776378	-0.7932762968	 0.063777
H	 4.0948447123	-1.8323735527	 1.0311061377	 0.128716
H	 4.8294511499	-1.4307954384	-0.5327205966	 0.107248
H	 5.0221362171	-0.3344072767	 0.8436234054	 0.109402
