15
gdb 28733	4.46641	0.95649	0.81558	3.6517	72.5	-0.1915	0.0136	0.2051	1351.0945	0.112596	-453.959036	-453.950603	-453.949659	-453.993281	30.286	
N	 0.1397138782	 1.3984527276	 0.0413669988	-0.592622
C	-0.0195298363	 0.0212046471	-0.0279951315	 0.373908
C	-1.0470309897	-0.8304967472	 0.2415597726	-0.255422
C	-0.509601354	-2.1611119169	 0.1025982371	-0.272248
C	 0.7838121223	-2.0038665598	-0.2503414135	 0.385684
O	 1.7453144929	-2.8768316359	-0.623554171	-0.210516
C	 2.8360223435	-2.9856533504	 0.1984387445	 0.111247
N	 3.8019241946	-3.702121376	-0.1638961363	-0.423024
O	 1.1112787491	-0.6723968011	-0.3358737754	-0.200748
H	 0.696928385	 1.7693709288	-0.7194712484	 0.258106
H	-0.746869937	 1.8811578493	 0.0947278751	 0.256637
H	-2.0560994063	-0.5582397194	 0.5053612626	 0.101417
H	-1.0228872746	-3.099721289	 0.2321095008	 0.119741
H	 2.7246485449	-2.4103773949	 1.1239833811	 0.109948
H	 4.5259332175	-3.699974412	 0.5516695434	 0.237891
