20
gdb 113766	2.51118	1.11179	0.90837	3.8676	77.28	-0.2352	0.0297	0.2649	1338.468	0.170139	-440.285471	-440.275675	-440.274731	-440.32034	35.457	
C	-0.9800657813	 0.9917296302	-0.0185222446	-0.360582
N	-0.1271869806	-0.1838275979	 0.1306884498	-0.050304
C	 0.6795898825	-0.2912754998	 1.2306892562	 0.148468
O	 0.6715102848	 0.4596680769	 2.183851115	-0.343083
C	 0.0602478508	-1.0110171457	-1.0227212518	 0.017683
C	 0.2515691791	-2.4995951119	-0.8811372238	-0.33682
C	-1.0241375722	-1.9669735012	-1.4826479024	-0.001309
C	-2.3129441844	-2.1291147423	-0.7230021093	-0.107153
O	-3.246634555	-1.1726471986	-1.2163788088	-0.411047
H	-0.5415596638	 1.7029381497	-0.7312439782	 0.118564
H	-1.9634838862	 0.6886740394	-0.3840744539	 0.151508
H	-1.0573434176	 1.4742433904	 0.9555149339	 0.15829
H	 1.3479953625	-1.1688674513	 1.1643020088	 0.076555
H	 0.6173687447	-0.5316478452	-1.8277854528	 0.098891
H	 0.9783170231	-2.9856852448	-1.521342253	 0.125079
H	 0.1829741227	-2.9231138299	 0.1147728384	 0.127542
H	-1.1373933114	-2.0535255261	-2.559044444	 0.099683
H	-2.6926983615	-3.1522761694	-0.8681973446	 0.098742
H	-2.1311994285	-1.9916123233	 0.3530160599	 0.09921
H	-4.0830293275	-1.3076757591	-0.7603373248	 0.290084
