17
gdb 19911	4.63943	1.60725	1.45472	1.5436	68.08	-0.2165	0.0467	0.2632	917.2156	0.14086	-363.752087	-363.744829	-363.743884	-363.783841	27.903	
C	-0.4251395666	 1.5687844918	-0.2971312858	-0.372874
C	 0.0203549006	 0.1924705749	 0.1982365213	-0.096738
N	 0.7417141754	-0.5091113902	-0.8742988279	-0.062983
C	 1.9460695859	-1.2772033053	-0.8117588545	-0.098649
C	 1.9744252935	-2.3506937071	 0.3508406176	-0.00331
O	 0.7803113536	-2.2251953395	 1.1300875382	-0.229276
C	 0.7200917834	-2.9252928777	-0.1169536905	-0.00331
C	 0.6475313827	-1.8720568938	-1.2960371791	-0.098645
H	 0.4366213703	 2.1731861809	-0.5968859343	 0.114525
H	-1.0857430673	 1.4760265986	-1.1647626473	 0.114526
H	-0.9648614439	 2.1056484709	 0.4906810712	 0.104016
H	 0.6657786572	 0.2937640162	 1.0751856452	 0.108753
H	-0.8450337734	-0.3981131445	 0.5115875783	 0.108746
H	 2.8270306872	-0.9746905442	-1.3682791019	 0.097327
H	 2.8431448378	-2.80329959	 0.8127819752	 0.110283
H	 0.3527816111	-3.9441149532	-0.115987222	 0.110283
H	 0.3245917227	-2.1210306979	-2.3015437138	 0.097327
