19
gdb 66342	2.76434	1.28858	1.23588	2.5254	78.1	-0.2347	-0.0296	0.2052	1129.475	0.157959	-423.044321	-423.035487	-423.034542	-423.078014	33.057	
C	 0.1291849431	 1.5302557292	-0.1636420664	-0.415161
C	-0.015020512	 0.0023733228	-0.0889393447	 0.22553
O	 0.6139933284	-0.5194464111	-1.2529597377	-0.296504
C	 1.0162185615	-1.8805475893	-1.1601220578	-0.089927
C	 2.0468508594	-2.078926127	-0.0505944709	-0.257827
C	 1.53134166	-1.4560335193	 1.2179309163	-0.089422
C	 0.5720103626	-0.5342498748	 1.1954531135	-0.074345
C	-1.5167589478	-0.343001881	-0.1343244759	 0.131144
O	-2.325553675	 0.0488651315	 0.6645291601	-0.257469
H	 1.1819144117	 1.8058455557	-0.0680078991	 0.126606
H	-0.2432323276	 1.8926724951	-1.1261606856	 0.128344
H	-0.4474982519	 1.9968012491	 0.637805953	 0.137855
H	 0.1470260256	-2.5301791075	-0.970314954	 0.0933
H	 1.4192597407	-2.1375263636	-2.1431794244	 0.110568
H	 2.2357469686	-3.1496848562	 0.0940131417	 0.108219
H	 3.0060164115	-1.6296896083	-0.3410876438	 0.121176
H	 1.9498869269	-1.7860100503	 2.1647021251	 0.098011
H	 0.1543346536	-0.1155123922	 2.1054256122	 0.111859
H	-1.7983535892	-0.9811488827	-1.0032384819	 0.088042
