18
gdb 97068	2.5487	1.4216	1.09193	1.4681	70.75	-0.2598	0.0161	0.2759	1152.6467	0.147703	-476.234282	-476.225421	-476.224477	-476.268097	32.552	
C	 0.0449941106	 1.2253372719	-0.4098978127	-0.334326
N	-0.0951239148	-0.1903151174	-0.1075576278	-0.359019
C	-1.2368660918	-0.700029131	 0.0373922162	 0.435071
O	-2.4401116132	-0.0824376139	-0.0517286581	-0.251619
C	-3.4893142289	-1.0794810385	-0.0990432032	-0.100515
C	-2.7987137408	-2.4167974631	-0.3863662367	 0.088776
O	-2.6313775378	-2.5722397214	-1.7757204856	-0.443421
C	-1.4298361401	-2.1844917557	 0.2787779981	-0.006169
O	-0.4028028829	-2.9433453638	-0.3061160707	-0.4414
H	 0.8212090453	 1.3521736032	-1.1706747608	 0.126932
H	-0.8829004331	 1.6897865624	-0.7618636826	 0.129562
H	 0.3815571384	 1.7608753857	 0.4857231514	 0.130592
H	-4.0140673539	-1.0857102156	 0.8625863818	 0.115123
H	-4.181446682	-0.8040156348	-0.8963897005	 0.139525
H	-3.3523985991	-3.2581575554	 0.0514030174	 0.079859
H	-1.763957022	-2.9908778783	-1.8829786789	 0.293293
H	-1.4990891043	-2.3787590239	 1.3604483954	 0.099765
H	 0.3225806604	-2.3100461903	-0.4421398526	 0.297972
