19
gdb 47307	2.54821	1.35842	1.03136	3.1003	75.2	-0.2463	-0.0312	0.2151	1181.6594	0.159958	-423.079462	-423.070973	-423.070029	-423.114102	31.663	
O	 0.0091608835	-0.0656338235	 0.6219163846	-0.299711
C	-0.038787239	 1.0417056096	 0.138970598	 0.379978
C	-1.3740637439	 1.7579216112	-0.0388206784	-0.29709
C	-1.7750720142	 1.9884735855	-1.5133000345	-0.216453
C	-1.0972501952	 3.183425627	-2.2155809035	-0.290971
C	 0.4190093143	 3.0762147595	-2.2700040748	 0.386235
O	 1.0139915639	 2.9250422043	-3.3121202578	-0.301773
C	 1.1636519572	 3.1235278198	-0.9385115664	-0.310612
C	 1.2611834624	 1.7264114242	-0.2979504611	-0.296765
H	-2.1192374472	 1.1267840269	 0.4507016287	 0.126565
H	-1.3515473192	 2.7201686912	 0.4903016606	 0.111325
H	-1.5916343154	 1.0732989692	-2.0885994779	 0.125894
H	-2.8562648665	 2.1561396745	-1.5447700036	 0.119562
H	-1.4619686734	 3.2647039267	-3.242396776	 0.124303
H	-1.3642474397	 4.1054108158	-1.6817647085	 0.112099
H	 2.1738304948	 3.4867021759	-1.1428621596	 0.129234
H	 0.6795123565	 3.8238661704	-0.2495804268	 0.106284
H	 1.8949067414	 1.7721859463	 0.5949850824	 0.139939
H	 1.7684548098	 1.0391018655	-0.9846911452	 0.151956
