16
gdb 88921	3.72116	0.82747	0.71725	4.3266	71.14	-0.2799	-0.0902	0.1897	1522.8873	0.121224	-437.884122	-437.874678	-437.873734	-437.920014	32.332	
C	-0.023729389	 1.537565442	-0.127762623	-0.422675
C	 0.0084841405	 0.0418653601	 0.0575385487	 0.069673
O	 1.2829146496	-0.611040626	 0.0107118522	-0.253151
C	 0.5481203279	-0.6576714967	 1.2353533268	 0.057124
C	 1.1578963423	 0.0552686272	 2.4185214699	-0.349439
C	 2.0564687744	-0.8447740163	 3.243770659	 0.296112
O	 2.1961513603	-2.0292680467	 3.0861909124	-0.254983
C	 2.777210175	-0.1476659684	 4.3344322972	 0.23132
N	 3.3294846362	 0.4124424544	 5.1819314787	-0.291573
H	 0.7594520021	 2.0431779111	 0.4407961778	 0.126184
H	 0.1171007506	 1.7853689838	-1.1846504809	 0.139299
H	-0.9951829714	 1.9379286035	 0.181767893	 0.128395
H	-0.7672856021	-0.4919781855	-0.495444751	 0.097727
H	 0.1438137216	-1.6410940018	 1.4730433335	 0.114001
H	 1.741335214	 0.9268840549	 2.1052250827	 0.157197
H	 0.380497688	 0.4379012742	 3.0968809129	 0.154789
