19
gdb 112283	2.62986	1.09898	0.86819	3.1183	72.05	-0.2485	-0.0289	0.2196	1340.6275	0.157771	-460.1565	-460.146999	-460.146055	-460.191333	34.524	
O	-0.1564255347	 1.538939612	-0.2585894959	-0.420597
C	-0.0073688194	 0.1952708517	 0.1724097055	-0.086564
C	-1.360286009	-0.4773559322	 0.0081626659	-0.034833
C	-1.758043754	-0.6832698623	-1.4913355586	-0.337182
C	-1.4315121919	-2.1661764172	-1.3017783807	 0.394453
O	-1.1519159339	-3.0753870605	-2.038430454	-0.320389
C	-1.376841019	-2.0339938825	 0.2227766581	-0.137309
C	-0.2549871174	-2.8281791741	 0.8972139568	-0.087447
O	-0.4396121873	-4.210967094	 0.6678307127	-0.423859
H	 0.6982975203	 1.9752129203	-0.1943182923	 0.290235
H	 0.7530366063	-0.3300254668	-0.4288278618	 0.090564
H	 0.3140261479	 0.1435961764	 1.2246282464	 0.095136
H	-2.0976849394	 0.0659139505	 0.6015435759	 0.090021
H	-2.8232250274	-0.5238404089	-1.6856735413	 0.13466
H	-1.1807629666	-0.1397036303	-2.2428611292	 0.139613
H	-2.3353362578	-2.3517839925	 0.6497270598	 0.115799
H	 0.7263509909	-2.4882670622	 0.5300703711	 0.088313
H	-0.2651463155	-2.6811488834	 1.9823669079	 0.111958
H	-0.5002882123	-4.326335684	-0.2903853564	 0.297428
