17
gdb 37260	3.25986	2.1384	1.71031	1.7298	72.97	-0.2186	0.0639	0.2826	822.8425	0.139938	-380.76651	-380.760755	-380.759811	-380.796215	25.335	
N	-0.0304278538	 1.5026559708	 0.1139774547	-0.343589
C	 1.2663195227	 0.8072990601	-0.014212242	-0.062348
C	 0.0148289704	 0.0225194552	 0.0174973111	-0.058866
C	-0.3887968981	-0.5723961992	-1.2881400417	-0.004606
C	-0.1353166215	 0.0828909761	-2.5850871497	-0.053281
C	 1.1661973398	 0.9026957432	-2.6471332927	-0.114329
C	 1.9316205317	 0.8348031123	-1.3484953195	-0.02943
C	 1.8844543091	-0.3672510187	-2.2693979056	-0.028549
N	 0.605942162	-1.181076396	-2.2456655968	-0.184871
H	-0.1697609146	 1.760371553	 1.0886518788	 0.229954
H	 1.9233741629	 0.7800066165	 0.8507754324	 0.08489
H	-0.2277367821	-0.5573666681	 0.9029420177	 0.087056
H	-1.2733903777	-1.2038131183	-1.2607842698	 0.096125
H	-0.8664675968	 0.0970703409	-3.3873922036	 0.095789
H	 1.3846279964	 1.6278481716	-3.4189180165	 0.09461
H	 2.8844304535	 1.3549910619	-1.4002434364	 0.09149
H	 2.7655654163	-0.8502769312	-2.6718097102	 0.099954
