16
gdb 36673	3.34642	0.79907	0.68432	3.6389	75.82	-0.2705	-0.0079	0.2626	1575.6636	0.122045	-400.702054	-400.692876	-400.691932	-400.737104	32.461	
C	-0.103463513	-1.1905694516	 0.0399199831	-0.42635
C	-0.0231754248	 0.0026781378	 0.1556076336	 0.28782
C	 0.1039377065	 1.4486581883	 0.2757796602	-0.350268
C	 1.3756728837	 1.9893566562	-0.4157575254	-0.23188
C	 1.453582939	 3.4901233978	-0.3137937459	 0.064708
O	 1.7710990568	 4.044200885	 0.9656033654	-0.231104
C	 2.71540713	 4.2307375029	-0.0887612048	-0.106932
C	 3.9808549505	 3.5393794451	 0.0385077472	 0.305418
N	 5.0023814836	 3.0047587879	 0.1186939165	-0.323179
H	-0.1845216115	-2.245352232	-0.0523335682	 0.199564
H	-0.7831596514	 1.932525493	-0.1541322475	 0.131898
H	 0.1280838869	 1.7354253091	 1.3339785897	 0.153255
H	 2.2610303299	 1.5353313877	 0.037073208	 0.145138
H	 1.3683030803	 1.7048225536	-1.4738355765	 0.127568
H	 0.67396858	 4.0425860898	-0.8423361879	 0.112114
H	 2.8034282633	 5.2512176094	-0.4572928876	 0.14223
