16
gdb 3292	5.82613	2.36025	1.94126	2.0956	61.15	-0.2122	0.0744	0.2866	695.9037	0.1372	-325.717105	-325.710683	-325.709739	-325.747269	24.011	
C	-0.0599845922	 1.5560470816	 0.0945555976	-0.325081
N	 0.0538579583	 0.1154448454	 0.0938006223	-0.072519
C	-1.1766198595	-0.6743039323	 0.3536717446	-0.188933
C	-0.4022664658	-1.5412545927	 1.3640742879	 0.108638
O	 0.392213698	-2.5885766172	 0.7764828529	-0.296826
C	 1.5791336175	-1.7517276769	 0.7585303194	-0.070766
C	 0.7641180546	-0.5337736099	 1.2201055684	-0.042469
H	 0.9324617634	 2.0084638282	-0.0046425639	 0.120667
H	-0.6584240821	 1.8773790588	-0.7646100796	 0.123841
H	-0.5343320429	 1.9662485622	 1.0075890954	 0.087573
H	-1.9682820312	-0.0884385759	 0.8483582799	 0.08676
H	-1.5929015286	-1.1838812277	-0.521353471	 0.111197
H	-0.8991900499	-1.8529451671	 2.2849018995	 0.081727
H	 2.3242059631	-2.112714972	 1.479959499	 0.094808
H	 2.0220159829	-1.6721268932	-0.2393038342	 0.108794
H	 1.1513272445	 0.1234672788	 2.001994902	 0.072589
