21
gdb 82755	2.19882	2.12063	1.51809	1.5856	80.94	-0.2336	0.0882	0.3218	988.2164	0.183561	-387.058254	-387.050507	-387.049563	-387.089795	31.982	
C	-0.0752441269	 1.4954735546	-0.0419264273	-0.428331
C	 0.0577480751	-0.0218545458	 0.0330287714	 0.007899
C	 1.0714252182	-0.6261232487	-0.9640765172	 0.056107
O	 2.309830874	 0.0528153612	-0.5865690298	-0.293435
C	 2.2367071455	-0.7835640615	 0.5725187607	 0.07211
C	 1.5219905859	-1.9218966272	-0.1792201779	-0.079757
C	 0.5862016015	-2.141117897	 1.0178410114	-0.295556
C	 0.7913266644	-0.6194924753	 1.2732223283	 0.283239
C	 0.5968923685	-0.0034788666	 2.6373237212	-0.511448
H	 0.9021494977	 1.9769448922	 0.0284221819	 0.135844
H	-0.5329283123	 1.7971218408	-0.9909246661	 0.108645
H	-0.7112617014	 1.8753506839	 0.7640666035	 0.110375
H	-0.928919203	-0.4870247352	-0.0761719825	 0.064669
H	 0.8689990957	-0.600134322	-2.0347692367	 0.07399
H	 3.1422642099	-0.8456716565	 1.1757168495	 0.07936
H	 2.0380254365	-2.7068189879	-0.7291013514	 0.075145
H	-0.4359574536	-2.4962150467	 0.8548527354	 0.093092
H	 1.072380492	-2.7630262283	 1.7764604648	 0.095432
H	 1.1994652278	-0.5192339183	 3.3930614431	 0.112126
H	 0.8852881193	 1.052870538	 2.6460370377	 0.123889
H	-0.4506070646	-0.0633185438	 2.9562859801	 0.116605
