22
gdb 97065	3.1913	1.13506	0.92852	2.6122	85.4	-0.2388	0.034	0.2728	1357.9947	0.193913	-404.377645	-404.367686	-404.366742	-404.412895	36.226	
C	 0.2452544999	 1.4361091904	-0.1008557378	-0.333645
N	 0.290573751	-0.0173277578	-0.09953179	-0.329219
C	 0.5211513683	-0.63687094	 0.9718754642	 0.431664
O	 0.7633092322	-0.0457083327	 2.1885914928	-0.251077
C	 0.9100916446	-1.0490236738	 3.200045989	-0.092184
C	 1.2990160618	-2.3341147556	 2.4551979471	 0.003782
C	 1.0374152431	-3.6160064072	 3.2413026886	-0.421022
C	 0.5491355036	-2.1505951763	 1.1134907169	-0.110504
C	-0.8799869308	-2.7164567209	 1.0644258404	-0.400807
H	 1.1036392182	 1.8251404909	-0.6622284561	 0.121559
H	-0.6537187943	 1.7629830679	-0.6350825518	 0.119454
H	 0.2495942326	 1.890154476	 0.8964476357	 0.120429
H	 1.6676810412	-0.7054172668	 3.9092770516	 0.115381
H	-0.0411459645	-1.1650312075	 3.7383931329	 0.104001
H	 2.3725434758	-2.2708156036	 2.2376139887	 0.087066
H	-0.0172260999	-3.7176643754	 3.5148759363	 0.123156
H	 1.3203858469	-4.5001799004	 2.6615144194	 0.123198
H	 1.6231258854	-3.628702828	 4.1667618943	 0.117925
H	 1.115651268	-2.572531245	 0.2799311428	 0.098585
H	-1.5026423953	-2.3314858949	 1.8793693885	 0.116246
H	-1.3492568598	-2.424837828	 0.1217360857	 0.140969
H	-0.877062778	-3.8085725211	 1.1275760107	 0.115042
