21
gdb 118786	3.17701	0.95846	0.84851	2.8467	76.39	-0.2332	0.0672	0.3004	1449.5601	0.178593	-461.333227	-461.322597	-461.321653	-461.368642	39.133	
C	-0.0311430431	 1.2847053904	-0.207966264	-0.226088
O	 0.2348498247	-0.0958745553	-0.1223157087	-0.250118
C	 0.5391544524	-0.5269159973	 1.1952599353	-0.137098
C	 0.6409983015	-2.0266985997	 1.1408454368	 0.3248
O	-0.5537907736	-2.6240612147	 0.700387638	-0.485653
C	 1.938812962	-2.7205083969	 0.7513844494	-0.402255
C	 1.3659710553	-2.8780475147	 2.1512262669	 0.388582
C	 2.0834147385	-2.305579354	 3.3485908519	-0.4426
O	 0.7518553109	-4.0911171649	 2.4793940278	-0.480163
H	 0.8386547402	 1.8862683033	 0.0985789154	 0.107813
H	-0.2642331205	 1.5093570678	-1.2515605195	 0.12934
H	-0.8877630734	 1.5750246843	 0.4201410497	 0.108818
H	 1.4762420033	-0.0699256498	 1.546164812	 0.090279
H	-0.2667016934	-0.2258440624	 1.8846620314	 0.096164
H	-0.7405584638	-2.2536168709	-0.1704787024	 0.295375
H	 1.850042688	-3.5760060857	 0.090949401	 0.113058
H	 2.8262597661	-2.1118416047	 0.6097000003	 0.107658
H	 2.6266332302	-1.3906563204	 3.1002784391	 0.111908
H	 1.377865374	-2.0904169266	 4.1572422602	 0.12335
H	 2.8072549911	-3.0382414199	 3.7197195284	 0.131143
H	-0.0295851905	-4.166804788	 1.9154112409	 0.295687
