21
gdb 86078	2.47994	1.327	1.06328	2.8036	81.	-0.2483	0.0071	0.2554	1238.4836	0.181013	-424.251062	-424.241471	-424.240527	-424.284782	37.205	
C	-0.1010053507	 1.5923017471	-0.0262012983	-0.488781
C	 0.0113873253	 0.1010068166	-0.034741979	 0.309487
C	-0.3890329344	-0.7315996838	-1.0035408153	-0.247946
C	-0.0772141226	-2.1721868673	-0.6937732526	 0.316628
C	-1.1476985284	-3.1865494316	-1.0712858771	-0.426382
O	 1.1262353097	-2.6003894577	-1.3844476423	-0.478666
C	 0.2228253973	-2.1282627293	 0.8418752088	 0.116183
O	 1.1603442498	-3.1010252083	 1.2274247958	-0.446401
C	 0.6322144319	-0.6588477555	 1.1187650763	-0.348369
H	 0.8853473565	 2.0607952092	 0.0827218066	 0.129599
H	-0.5625541708	 1.9721208144	-0.9416542259	 0.125272
H	-0.6992822662	 1.9332119273	 0.8280885066	 0.132019
H	-0.8480882726	-0.4273495157	-1.9391911745	 0.09006
H	-1.2898090298	-3.210428283	-2.1554357077	 0.11708
H	-0.8463258586	-4.1854499771	-0.7414045821	 0.13125
H	-2.1001696984	-2.9363507619	-0.5958666054	 0.116539
H	 1.6630172532	-1.8140539922	-1.5329863071	 0.279193
H	-0.7091197476	-2.3357444257	 1.3812603595	 0.082114
H	 1.6785224385	-3.2734024055	 0.4257875423	 0.280052
H	 1.7258806049	-0.5568007318	 1.124914682	 0.105696
H	 0.2854916929	-0.3024453781	 2.0954769894	 0.105373
