20
gdb 96429	2.24032	1.53458	0.98498	3.0598	77.07	-0.2347	0.0278	0.2625	1211.0138	0.172718	-440.315235	-440.306748	-440.305804	-440.348487	32.346	
C	-0.1367466628	 1.531562436	-0.0639419018	-0.432834
C	 0.0367119549	 0.0167983935	 0.0134934457	 0.041033
C	 0.8212751347	-0.5039170674	-1.2048149106	-0.067267
O	 0.9768399966	-1.9075004513	-1.1804352408	-0.24721
C	 1.6709181207	-2.3367155516	-0.0192992844	-0.081645
C	 0.9292525362	-1.9159949045	 1.2462316681	-0.180595
N	 0.7022864232	-0.4731704399	 1.2250090433	-0.074319
C	 1.0882893903	 0.2799246114	 2.2941832218	 0.143974
O	 1.6320203977	-0.1554533586	 3.2912019982	-0.349389
H	 0.8234093307	 2.0565621392	-0.0471805523	 0.134097
H	-0.6363208577	 1.7766650712	-1.0059657268	 0.128028
H	-0.7573504245	 1.9184884754	 0.7479808977	 0.136694
H	-0.9593295484	-0.4511321125	-0.0260214413	 0.092593
H	 0.2808791617	-0.2669836183	-2.1261133774	 0.110972
H	 1.805380615	-0.0045665879	-1.2351339803	 0.090202
H	 1.7424836465	-3.4258415084	-0.0829309178	 0.113993
H	 2.6899832014	-1.9171027433	-0.0086218445	 0.099701
H	-0.0361103606	-2.4387015636	 1.2940155415	 0.111084
H	 1.5001721728	-2.1457024851	 2.1469685855	 0.150241
H	 0.8617290915	 1.3503936756	 2.1702860261	 0.080645
