22
gdb 6410	4.17422	0.89703	0.87832	2.3526	74.72	-0.2554	0.0605	0.3159	1434.0297	0.198244	-387.345208	-387.335001	-387.334057	-387.380554	37.205	
C	 0.9036494801	-0.3140235531	-1.1026670646	-0.387535
C	 0.0249999505	-0.0161671501	 0.1200241036	 0.049429
C	-0.0002894844	 1.4893847262	 0.4148534528	-0.392325
C	-1.4086909652	-0.555245192	-0.0479242536	-0.206944
C	-1.5305933596	-2.0781338406	-0.0927905688	 0.087655
O	-0.9893409681	-2.7019575228	 1.0817582096	-0.437598
C	-2.972365986	-2.5584394455	-0.2806205354	-0.060407
O	-3.0437038511	-3.9669252821	-0.2481357083	-0.4257
H	 1.9135725426	 0.0837595234	-0.9600084344	 0.112491
H	 0.9981816509	-1.3873622118	-1.290150042	 0.121099
H	 0.4892158901	 0.150591779	-2.0058536094	 0.109709
H	 0.4658100265	-0.5287302952	 0.9845218723	 0.081415
H	-0.5886147152	 1.7140642251	 1.3111208612	 0.106458
H	 1.0112798909	 1.8777195296	 0.5723238557	 0.111881
H	-0.4418391578	 2.046633436	-0.4203568425	 0.111751
H	-2.0317603656	-0.1851926943	 0.7808619422	 0.081656
H	-1.8520653407	-0.1406833027	-0.9642525788	 0.098606
H	-0.9313051724	-2.4904780167	-0.9118451459	 0.099911
H	-1.3962227469	-2.2793791384	 1.8481356656	 0.280894
H	-3.6080064531	-2.1032777609	 0.5024975275	 0.068387
H	-3.3629290232	-2.2279131298	-1.2495933842	 0.105503
H	-2.4311805626	-4.2328197933	 0.4506368473	 0.283664
