19
gdb 60629	2.99647	1.07796	0.95616	3.9502	74.	-0.2162	0.0616	0.2777	1293.358	0.158849	-456.347608	-456.337952	-456.337008	-456.382444	35.834	
C	-0.2086942027	 1.5033014444	 0.1097223916	-0.361252
N	-0.1755583501	 0.0563152906	-0.0232214406	-0.105035
C	-0.118148346	-0.7991295206	 1.1315274191	 0.046523
C	 0.3627665331	-0.331731428	 2.4865913459	-0.384209
C	-1.0884089908	-0.7325799072	 2.277542736	 0.083492
O	-2.0662522245	 0.2679549687	 2.2380428882	-0.415933
C	-0.0933786088	-0.5728282669	-1.2495957583	 0.450078
N	-0.0115121516	 0.2745102292	-2.3534493951	-0.577295
O	-0.1301654591	-1.7856703585	-1.3835318836	-0.40987
H	 0.7964565753	 1.9503419428	 0.1493768925	 0.10861
H	-0.7572432659	 1.93487294	-0.7298083517	 0.143418
H	-0.7497528699	 1.7700734179	 1.016277105	 0.152198
H	 0.1661459239	-1.7967449103	 0.8257350876	 0.143248
H	 1.0286264111	-0.9741085785	 3.0534925939	 0.117286
H	 0.5373481562	 0.7298363529	 2.6255008909	 0.115906
H	-1.426519229	-1.6812103329	 2.6941110942	 0.095601
H	-2.2496979707	 0.5384284537	 3.1440933554	 0.289923
H	 0.5155780052	 1.1293246612	-2.2625738028	 0.249449
H	 0.2106544943	-0.2501133285	-3.1863545783	 0.257863
