17
gdb 128798	6.08017	0.80788	0.74645	2.3206	72.26	-0.271	-0.022	0.249	1542.8617	0.134763	-455.142086	-455.13295	-455.132006	-455.177387	31.134	
C	-0.634571617	 1.3656755419	-0.646775845	-0.22477
O	-0.6282634921	-0.0451036255	-0.6713960485	-0.230005
C	-0.7964570388	-0.6049491026	 0.607981737	-0.177761
C	-0.7193167234	-2.0927980445	 0.5000159919	 0.412446
N	-1.5810676526	-2.9653306519	 0.9241753779	-0.34729
C	-0.9742053118	-4.1600486389	 0.5883635073	 0.35153
C	-1.579173643	-5.4913977818	 0.8686988433	-0.489936
N	 0.1827749944	-4.0246899798	-0.005796885	-0.163698
O	 0.362752063	-2.6363678842	-0.0642832222	-0.187755
H	-0.4961036399	 1.7043717968	-1.6753503282	 0.138472
H	-1.5873500768	 1.7624579871	-0.2637740208	 0.111379
H	 0.1818252713	 1.7641688504	-0.024674834	 0.111151
H	-0.0121016139	-0.2489870381	 1.2983954286	 0.117177
H	-1.7714839063	-0.3516951611	 1.0480539841	 0.128874
H	-2.5511148767	-5.5772134801	 0.3738246279	 0.150464
H	-0.9235109828	-6.2877925251	 0.5140482048	 0.150983
H	-1.7463408035	-5.6130094626	 1.9430712607	 0.14874
