19
gdb 104372	2.20469	1.49553	1.31311	0.9209	70.89	-0.2525	-0.0389	0.2137	1095.3678	0.157759	-460.182648	-460.173514	-460.17257	-460.21636	34.079	
C	-0.0483930499	 1.5363152917	 0.0988820187	-0.404301
C	-0.0700737384	 0.015055549	-0.062498116	-0.211701
C	 0.8105035814	-0.5103570456	-1.220537277	 0.287883
O	 2.1574277478	-0.1321759414	-1.0604225438	-0.486177
C	 0.6274190722	-2.0256074664	-1.405218522	-0.134739
O	-0.5984649095	-2.1559995498	-2.1356448708	-0.255385
C	-0.6353187133	-1.1290468654	-3.1106386098	-0.176999
C	 0.2752808157	-0.0309885498	-2.5764631698	 0.323202
O	 0.6210595223	 0.9840796957	-3.1262663727	-0.330698
H	 0.9722581903	 1.8888836151	 0.2715847627	 0.127227
H	-0.4357077264	 2.048571252	-0.78697029	 0.128781
H	-0.6575218318	 1.8385311605	 0.955495285	 0.116678
H	 0.3099727537	-0.4584538646	 0.8509406165	 0.111857
H	-1.0938359106	-0.3501825343	-0.2043304467	 0.112573
H	 2.2880698476	 0.6536840542	-1.6103256011	 0.292683
H	 1.4802684884	-2.4361993093	-1.9659229772	 0.106424
H	 0.5103699411	-2.5778124586	-0.4706933024	 0.119437
H	-0.2473361158	-1.4650464891	-4.0858927041	 0.130762
H	-1.6660874746	-0.7890078337	-3.2535262195	 0.142491
