20
gdb 64431	2.65272	1.49365	1.23863	1.588	75.64	-0.2446	0.0088	0.2534	1096.7496	0.170857	-440.291981	-440.283137	-440.282193	-440.325118	33.852	
C	-0.2074309457	 1.60942201	 0.1060894073	-0.430802
C	-0.0296994312	 0.0889508942	-0.0178522922	 0.306964
C	-1.3888915369	-0.6105513586	 0.0658891313	-0.405554
C	 0.6611629175	-0.303091269	-1.3394945406	-0.158157
N	 1.9880557824	 0.2223594193	-1.6245560777	-0.250476
C	 2.9528073703	 0.1431367791	-0.8177522131	 0.109986
O	 3.0034132414	-0.3011797473	 0.4708034232	-0.226674
C	 1.9525109031	 0.0649943157	 1.3696336524	 0.009417
O	 0.7100444949	-0.4688719346	 1.0914667265	-0.258475
H	 0.7140626633	 2.1625983492	-0.0877829191	 0.129809
H	-0.9456406275	 1.9463829671	-0.6273360491	 0.123713
H	-0.5741643415	 1.8701703568	 1.1034112262	 0.121553
H	-2.027126927	-0.3236470341	-0.7743961458	 0.116946
H	-1.2579688232	-1.6958989965	 0.0539326159	 0.125764
H	-1.8962030752	-0.3386851104	 0.9955268562	 0.121878
H	 0.7208946695	-1.3999390979	-1.363763632	 0.11803
H	 0.0069488552	-0.0015611981	-2.1648675443	 0.104023
H	 3.9541028396	 0.413879811	-1.1552167813	 0.118822
H	 2.2635841527	-0.3498638184	 2.3298145233	 0.124299
H	 1.9273146882	 1.1611074525	 1.4215004928	 0.098933
