17
gdb 3242	7.50121	1.51878	1.38594	2.2583	64.89	-0.2374	0.0691	0.3065	896.8256	0.14929	-305.831035	-305.823995	-305.823051	-305.862478	25.799	
C	-0.0170083808	 1.472828384	 0.362182892	-0.173466
C	 0.0242361498	-0.0070721249	 0.0647887316	 0.040898
C	-1.2181753879	-0.7269319243	-0.3027088928	-0.248523
N	-0.1600407396	-0.5132715411	-1.3067790346	-0.311751
N	 1.2875397082	 2.0892240141	 0.1525555194	-0.054995
C	 1.561228448	 2.6199309989	-1.1773217019	-0.212935
C	 1.3075613538	 3.5345479532	-0.0290856007	-0.22051
H	-0.8102280744	 1.9478875331	-0.2486446095	 0.068264
H	-0.2881072707	 1.6260066144	 1.4148380357	 0.110414
H	 0.7905139486	-0.5449394712	 0.6182064242	 0.102288
H	-1.3616398828	-1.7597582917	 0.0011996442	 0.119744
H	-2.1368333848	-0.1498115935	-0.3819913174	 0.107148
H	-0.4282986124	 0.2518866572	-1.9217599198	 0.22416
H	 2.5673471424	 2.4633101963	-1.5545402391	 0.121752
H	 0.7777833247	 2.5480811136	-1.9310196205	 0.101694
H	 0.3562931838	 4.0657902275	-0.0202876567	 0.10703
H	 2.126185714	 4.0614784942	 0.452793996	 0.118788
