18
gdb 37397	2.84682	2.21235	1.7905	1.1635	72.88	-0.2211	0.0627	0.2838	831.2613	0.151525	-401.872208	-401.866365	-401.865421	-401.901978	25.779	
C	-0.0606288466	 1.5628068671	 0.0548821889	-0.233491
C	 1.4851211348	 1.4696385614	 0.0292563311	-0.045179
C	 1.9921161557	 1.3100854777	 1.4634211201	 0.024797
O	 0.9913508299	 1.3705899284	 2.5066083025	-0.255106
C	 1.4799632135	 0.0968291455	 2.1103132722	 0.064224
C	 0.7102583783	-0.7759729143	 1.1343330413	-0.116464
C	 1.7855589896	-1.0770499169	 0.0462069008	-0.164881
N	 1.3398988006	 0.1240235424	-0.7257148481	-0.145785
C	-0.0013238569	 0.0345778909	-0.0130558157	 0.014379
H	-0.5280731695	 2.0579120968	 0.9011294975	 0.126955
H	-0.4471638372	 1.9471317283	-0.8915924002	 0.107939
H	 2.0563584543	 2.2036565302	-0.5404246666	 0.073516
H	 2.9486873136	 1.7450023244	 1.7391010541	 0.096628
H	 2.0639942879	-0.4288040352	 2.8656943257	 0.098314
H	 0.1638439714	-1.5950389882	 1.6066854097	 0.068889
H	 2.8345853076	-1.1079696614	 0.3583648949	 0.101204
H	 1.563620082	-1.9621700583	-0.5574644633	 0.110643
H	-0.796184409	-0.527280429	-0.5126421351	 0.073418
