15
gdb 62346	3.96647	1.1437	1.0939	2.285	72.76	-0.2806	-0.023	0.2576	1112.7183	0.111892	-416.789109	-416.781089	-416.780145	-416.82167	29.817	
C	 0.0055308972	 1.5364448713	 0.0610035303	-0.469494
C	 0.06302052	 0.0186795874	 0.0612292861	 0.10663
C	-1.1006586996	-0.6327322617	-0.496890153	 0.238647
N	-2.0310825316	-1.1452362613	-0.9544873133	-0.325434
C	 1.3363345095	-0.7690625903	-0.148979337	 0.062967
O	 2.4603922457	-0.0261963425	 0.3622565413	-0.270671
C	 1.9355690727	-0.1290649737	 1.6606947768	 0.438803
N	 2.4180645114	 0.2090121005	 2.761703915	-0.542098
C	 0.6904030882	-0.8230593464	 1.2086871796	-0.231422
H	 0.9566910702	 1.9538048015	 0.3927176656	 0.154654
H	-0.2000173439	 1.9044494702	-0.9478541872	 0.145641
H	-0.7870173806	 1.8896488902	 0.7254355783	 0.148522
H	 1.5181972801	-1.5135608308	-0.9111903521	 0.151099
H	 3.3408089363	 0.6339052385	 2.6575658884	 0.242034
H	 0.1428762342	-1.5968507429	 1.7248938113	 0.150121
