20
gdb 78281	2.39077	1.64449	1.26883	1.6086	80.42	-0.2114	0.0615	0.2728	1088.588	0.168297	-403.03868	-403.029264	-403.02832	-403.073057	35.299	
C	-0.1482749351	 1.5373551416	-0.0066051201	-0.331057
N	 0.1645501561	 0.1178804697	 0.0453418642	-0.114431
C	 1.2516937789	-0.6879027784	-0.4130004761	-0.117582
C	 2.7236181878	-0.3665373574	 0.0421340196	-0.157868
C	 2.9893658687	 0.8016794368	 0.9352907778	 0.085627
O	 2.5260102302	 2.1177057324	 0.8261895481	-0.412586
C	 2.242047831	-0.349266952	 1.5165529863	-0.164907
C	 0.7813286372	-0.7216187349	 1.0150194707	 0.315156
C	-0.0030841651	-1.7488676094	 1.7788760409	-0.473303
H	 0.0567164194	 1.9067918963	-1.01667622	 0.108309
H	-1.2228980991	 1.6545489546	 0.175358285	 0.108465
H	 0.4109619304	 2.1453334686	 0.7040262277	 0.146236
H	 1.0794866703	-1.4043578605	-1.2115262297	 0.091129
H	 3.5401752713	-0.9476669752	-0.3724820946	 0.084862
H	 4.0264007667	 0.7711655921	 1.2834178973	 0.096608
H	 2.8769813254	 2.4845356683	 0.0075724935	 0.283941
H	 2.6623155957	-0.9049416521	 2.3474981505	 0.087061
H	-0.3931643213	-1.3289763441	 2.7146345691	 0.120218
H	-0.8498590288	-2.0945877226	 1.1806927106	 0.128042
H	 0.6211047804	-2.610808234	 2.040089219	 0.11608
