15
gdb 44284	3.48968	1.8807	1.48263	4.9136	67.08	-0.2361	0.0143	0.2504	860.1085	0.115069	-420.603177	-420.59729	-420.596346	-420.633314	24.675	
O	-0.0021967579	-0.0267031604	 0.2588185863	-0.351624
C	-0.0116059008	 1.1512728047	 0.0230773892	 0.454645
O	-1.1888723641	 1.8003922863	-0.1722171454	-0.238938
C	-1.1259912153	 3.1806881595	-0.4443839183	 0.121317
C	-0.1625317562	 4.1222544156	 0.2090713168	-0.133842
C	-0.0783151458	 3.8205563006	-1.3015556968	-0.133839
C	 1.2982252185	 3.1597329054	-1.0711285239	-0.088948
C	 1.2163326441	 3.4531237047	 0.3978681605	-0.088949
C	 1.194913511	 2.0054582438	-0.080274461	-0.215258
H	-2.1345888957	 3.5562606607	-0.5756251236	 0.123885
H	-0.4766483082	 5.0202303728	 0.7242787517	 0.104511
H	-0.3163060438	 4.4458351149	-2.1517647231	 0.104511
H	 2.1368558482	 3.2366659936	-1.7485931094	 0.110168
H	 1.9791891786	 3.8015271	 1.0796622864	 0.110167
H	 2.1157449276	 1.4574771978	 0.0804985505	 0.122193
