15
gdb 22210	1.99886	1.49604	0.8968	5.6163	76.49	-0.1958	-0.056	0.1398	1220.5867	0.111747	-450.101916	-450.092781	-450.091837	-450.136013	33.286	
N	 0.0397189577	 1.207667535	 0.5600756272	-0.559386
C	-0.0394956482	-0.1056139734	 0.228578394	 0.371953
N	 1.1342172271	-0.7870708012	 0.1493610465	-0.533791
H	 1.9633757259	-0.2731732317	-0.1045371552	 0.261295
H	 1.0274130695	-1.7125251087	-0.2499480817	 0.279363
C	-1.2508160413	-0.7629264174	-0.0243702214	 0.245923
C	-2.6404633195	-0.1849045029	 0.1179428371	-0.462371
C	-2.8266188786	 0.6857687719	 1.2715614099	 0.251285
N	-2.9110526911	 1.4181949116	 2.1641409191	-0.33244
N	-1.1100140409	-2.0460915621	-0.4705776978	-0.078642
O	-2.1425380612	-2.6925198948	-0.7003411502	-0.35328
H	 0.8838176914	 1.5162058476	 1.0180265397	 0.268225
H	-0.7988734476	 1.6662288993	 0.8873018696	 0.29142
H	-2.9516928699	 0.3688458039	-0.778612087	 0.161001
H	-3.3032435832	-1.059836727	 0.1766980303	 0.189447
