22
gdb 118552	1.54334	1.21327	0.7609	3.9446	80.35	-0.2457	0.0363	0.282	1574.5004	0.192644	-441.515423	-441.504383	-441.503438	-441.552723	38.577	
C	 0.1930646609	 1.3549729905	 0.0463243065	-0.382971
C	 0.0191409228	-0.164359806	-0.0294535814	-0.166897
C	-1.4506293188	-0.591504752	 0.0239106639	-0.163414
C	-1.6629449731	-2.1160038512	-0.002584702	 0.019041
C	-3.1407810919	-2.4901991084	 0.1181050765	-0.101312
O	-3.7928580954	-2.035695101	-1.0647455684	-0.427492
N	-1.128358362	-2.7302782702	-1.21327668	-0.267705
C	-0.0227275208	-3.51650145	-1.2329645336	 0.155347
O	 0.6920952114	-3.7517054278	-0.2797362434	-0.334703
H	 1.2494376579	 1.6371739414	 0.0003756179	 0.112962
H	-0.3216625853	 1.8553784384	-0.781839765	 0.111164
H	-0.2181092689	 1.7571522266	 0.9792372672	 0.111044
H	 0.4715109199	-0.5399647125	-0.9542126335	 0.103174
H	 0.5684516642	-0.6438725442	 0.7900640965	 0.108297
H	-1.908844542	-0.2062036243	 0.9450138567	 0.090491
H	-2.006145064	-0.1396311191	-0.8067365826	 0.105342
H	-1.1182260319	-2.5711043099	 0.8301896574	 0.116
H	-3.2328743827	-3.5807893299	 0.2229190122	 0.098416
H	-3.5691934538	-2.0202793361	 1.0157520531	 0.094479
H	-4.7035270252	-2.3424539803	-1.0507692418	 0.294697
H	-1.6912416608	-2.6467947456	-2.0460838641	 0.253203
H	 0.1677969595	-3.9296897584	-2.2440398621	 0.070836
