21
gdb 59244	2.43662	1.43355	1.0565	1.0077	77.96	-0.249	0.0735	0.3225	1205.3342	0.180649	-424.188261	-424.178783	-424.177839	-424.222359	35.84	
C	 0.7549513585	-0.9960464616	-1.2500639991	-0.410279
C	 0.1621213642	-0.3944697523	 0.0255607557	 0.117622
O	 0.3636102208	 1.0206499474	 0.0687332429	-0.441522
C	-1.3421679609	-0.6039810698	 0.1131560619	-0.016677
C	-1.8545175935	-2.0457167736	 0.2411095652	-0.001381
O	-1.4016678488	-2.5578520833	 1.5032365949	-0.25036
C	-2.5776489224	-1.7362139071	 1.4824321852	 0.017794
C	-2.1152380215	-0.2693592437	 1.4605529417	-0.031088
C	-1.3534710205	 0.2401339038	 2.6766273642	-0.410345
H	 1.8338245379	-0.8092211301	-1.3014123807	 0.104142
H	 0.6078145234	-2.0804257425	-1.2815647933	 0.122951
H	 0.2912666098	-0.5510334661	-2.1365901404	 0.119872
H	 0.6337805044	-0.87053652	 0.8966235928	 0.080775
H	 1.3120513052	 1.1839560204	 0.0741087179	 0.279976
H	-1.8185297293	-0.0875273202	-0.7267886132	 0.079371
H	-2.0658098169	-2.7714024835	-0.5363132895	 0.100367
H	-3.482638504	-2.1676251425	 1.8956806071	 0.099159
H	-2.9554314537	 0.3931105373	 1.2305956941	 0.077134
H	-0.6037413963	-0.4883449701	 2.9972465761	 0.126534
H	-0.8444883298	 1.179408682	 2.4468729751	 0.131441
H	-2.0366939768	 0.4103587355	 3.5160232414	 0.104517
