23
gdb 102166	1.83333	1.1209	0.83287	2.015	88.1	-0.2529	0.0613	0.3142	1516.3581	0.202069	-388.264447	-388.252997	-388.252052	-388.301402	41.616	
C	 0.6812760538	-0.1657448549	 1.4409744731	-0.393906
C	 0.106244812	-0.1832983998	 0.0210570167	-0.184566
C	-1.3433901884	-0.6992207866	-0.0771001485	 0.042072
C	-1.9750828724	-0.2989343119	-1.4370270666	-0.374105
C	-2.1299320464	 1.1420615483	-1.594682959	 0.299039
C	-2.2614479977	 2.3323844912	-1.7055831012	-0.445689
C	-1.4231809513	-2.2221562145	 0.1433691119	 0.114561
C	-2.8416412299	-2.7538686334	 0.363087767	-0.418156
O	-0.8089217354	-2.8362283711	-0.9903032059	-0.434647
H	 1.6968555744	 0.2424847089	 1.4423053748	 0.113096
H	 0.0731149	 0.4581142206	 2.105982003	 0.113468
H	 0.7355674859	-1.1659621411	 1.8831962746	 0.113908
H	 0.1339809027	 0.8350318935	-0.3808207046	 0.108577
H	 0.7360907334	-0.7980951957	-0.6322350838	 0.110699
H	-1.9340969475	-0.227085542	 0.7185861968	 0.075787
H	-1.3550626465	-0.7005279964	-2.2458079616	 0.14612
H	-2.9582101295	-0.7696853196	-1.5484982925	 0.122527
H	-2.3790212448	 3.3814315542	-1.8174870934	 0.189425
H	-0.8388408594	-2.4546206837	 1.0475912454	 0.066339
H	-3.310984229	-2.2706731989	 1.2262414573	 0.119922
H	-3.4756038576	-2.5940136876	-0.5134401549	 0.127493
H	-2.8171989337	-3.831713601	 0.5625495466	 0.104911
H	-0.8329058325	-3.7896226884	-0.8651405654	 0.283125
