19
gdb 117265	3.39657	0.9362	0.85569	3.0897	71.91	-0.2293	-0.0219	0.2074	1419.1303	0.156887	-460.13709	-460.127363	-460.126418	-460.173719	33.298	
C	-0.7625260349	 0.5863613724	-0.5396976665	-0.241197
O	 0.2904825549	 0.5609078689	-1.4852026623	-0.215698
C	 0.7455862449	-0.7191420468	-1.806146666	-0.174626
C	 1.6291090132	-1.3549258624	-0.7342021248	 0.313061
O	 1.8348639402	-0.8505132447	 0.3444708869	-0.303347
C	 2.2598267484	-2.6970645851	-1.0819932001	 0.054754
C	 1.6639546484	-3.9434536754	-0.3799470561	-0.280425
C	 1.4125956532	-4.4456957999	-1.8164879387	-0.064951
O	 1.9013817656	-3.2073223046	-2.3835275904	-0.287658
H	-1.6237637832	-0.0057888756	-0.8888049255	 0.096373
H	-0.4419946293	 0.2140514754	 0.4392191092	 0.132095
H	-1.0723993153	 1.6293611506	-0.442096132	 0.129052
H	-0.0801323705	-1.4168058392	-2.0325969953	 0.110029
H	 1.3324524383	-0.6466003071	-2.7299726277	 0.145492
H	 3.3474472452	-2.5972018312	-0.9672406588	 0.11185
H	 2.3646102367	-4.5229247944	 0.2204956741	 0.126707
H	 0.7673679243	-3.7436817384	 0.2087583216	 0.124392
H	 2.0267166153	-5.2991610213	-2.1263738183	 0.112165
H	 0.3699638645	-4.637405801	-2.0932778796	 0.111931
