18
gdb 25639	6.22966	0.72059	0.65111	1.5892	97.73	-0.1876	0.0106	0.1982	1741.2375	0.147336	-364.842396	-364.83276	-364.831816	-364.878707	33.948	
C	-0.1042247258	 1.4830429273	 0.0364709154	-0.508693
C	-0.0213461473	 0.0312385855	 0.0173354113	 0.170659
C	 0.0583971339	-1.1741114485	 0.0019964204	-0.061431
C	 0.1399586234	-2.5804513659	-0.0163303072	 0.192059
C	 1.2305087486	-3.4364907172	 0.0152499919	-0.363984
C	 0.751202355	-4.7731200344	-0.024960689	 0.301489
C	 1.5716883475	-6.0280208513	-0.0105558038	-0.505064
C	-0.6262527559	-4.6954771287	-0.0803066342	-0.183437
N	-0.9875768686	-3.3763970329	-0.0748337747	-0.321429
H	 0.8959528943	 1.9305147862	 0.0355569239	 0.152097
H	-0.637503609	 1.8685799325	-0.8403588868	 0.146628
H	-0.626533314	 1.8470012148	 0.9290614779	 0.146589
H	 2.2614473415	-3.120266576	 0.0624359387	 0.092043
H	 2.1847906427	-6.1022519864	 0.8951590035	 0.125055
H	 0.934252516	-6.9163147932	-0.0502104315	 0.116798
H	 2.2568436778	-6.0753843434	-0.8649801406	 0.125055
H	-1.3687017832	-5.4770721152	-0.1227028961	 0.113905
H	-1.9263600269	-3.0197132432	-0.107978019	 0.261661
