23
gdb 71391	3.06201	1.34847	1.28277	0.294	89.54	-0.2382	0.0926	0.3308	1158.8477	0.205057	-351.119725	-351.110829	-351.109885	-351.15227	36.097	
C	-0.0483441415	 1.4727633803	 0.0619068983	-0.504201
C	-0.0137725735	-0.0235429682	-0.0382445999	 0.330004
C	-0.6644878011	-0.8937645492	-1.1172920999	-0.302352
C	-0.4039683994	-2.090495241	-0.167386668	-0.092928
C	-0.3305491022	-1.0515884745	 1.0254026704	-0.128685
C	 1.107984332	-0.8624351758	 0.6079795623	-0.132212
C	 1.1562293288	-2.2369222439	-0.0733739308	 0.335243
C	 1.5279832989	-3.3429130151	 0.9194786659	-0.436861
C	 1.9710715342	-2.388204635	-1.357947639	-0.460272
H	 0.5510258328	 1.9405890861	-0.7284283307	 0.117613
H	-1.072180379	 1.8539423345	-0.0287680247	 0.115385
H	 0.3492350635	 1.8159794342	 1.0233367109	 0.116135
H	-1.7348464295	-0.6721472595	-1.1852182642	 0.090755
H	-0.2420030559	-0.9223012019	-2.1279076612	 0.083772
H	-1.0282842186	-2.9827056718	-0.2059529031	 0.059278
H	-0.8263541661	-0.9722882096	 1.9822880751	 0.082329
H	 1.8980691021	-0.3758315428	 1.1698739029	 0.070024
H	 0.9366932785	-3.2719192972	 1.8375308831	 0.113376
H	 1.3556791937	-4.3325129332	 0.4800634409	 0.106082
H	 2.5870204722	-3.2862024492	 1.1966644867	 0.1061
H	 3.043195373	-2.4001978032	-1.1287589325	 0.108742
H	 1.7362448526	-3.3312261381	-1.8662760933	 0.108436
H	 1.7978810045	-1.5714557259	-2.0619034192	 0.114236
