23
gdb 92106	2.55085	1.60044	1.31948	0.2508	88.51	-0.2411	0.0884	0.3295	1114.3454	0.207464	-351.150238	-351.141905	-351.140961	-351.182492	33.975	
C	-0.2731819419	 1.5674856494	-0.0132024208	-0.398623
C	 0.0175106139	 0.0615487572	-0.0301594987	 0.014017
C	 0.7391667522	-0.4593937686	-1.3141621389	-0.228027
C	 2.1293245121	-0.9020026509	-0.8337550542	-0.033439
C	 2.925268049	 0.3031721513	-0.2417909273	-0.289305
C	 2.4098241468	-0.0781627575	 1.1494738315	 0.357583
C	 3.109261627	 0.2570536641	 2.4362499848	-0.502669
C	 1.9318775857	-1.4267264336	 0.6192915962	-0.141635
C	 0.9235368901	-0.4246941926	 1.1038021974	-0.085198
H	 0.6411986864	 2.1590181446	-0.1195441964	 0.11858
H	-0.9497490554	 1.8478722447	-0.8279007303	 0.108323
H	-0.7492120119	 1.862759699	 0.9285392489	 0.107732
H	-0.9441291598	-0.4574417523	 0.0689946248	 0.066142
H	 0.1945125505	-1.3102549602	-1.7382943413	 0.090457
H	 0.8027016708	 0.3069412261	-2.0948139382	 0.090404
H	 2.6736486981	-1.5296121702	-1.5398216355	 0.060436
H	 4.0056193252	 0.1356219194	-0.3033594419	 0.091833
H	 2.7058281949	 1.302134736	-0.6370238803	 0.082416
H	 3.0354688875	 1.3277901871	 2.6636624749	 0.116537
H	 2.6771650404	-0.2895832058	 3.2813772954	 0.114117
H	 4.1750656906	 0.0036431834	 2.3851437074	 0.112477
H	 2.0764829625	-2.4295194461	 1.0011814054	 0.076456
H	 0.4800459556	-0.5784606745	 2.083381267	 0.071383
