17
gdb 53209	2.61845	1.0052	0.94006	3.1895	77.84	-0.2351	-0.0277	0.2074	1356.0431	0.133189	-421.805109	-421.795433	-421.794489	-421.841244	33.868	
C	-0.0911797362	 1.4512692445	-0.1752423528	-0.49974
C	-0.05033854	-0.0027186655	-0.1001066	 0.079703
C	 0.0251843017	-1.2050732252	-0.0409333617	 0.066261
C	 0.0265768982	-2.6526910535	 0.0465817223	-0.266039
C	 0.1986135595	-3.1945117758	 1.5069053416	-0.345941
C	-1.3381318317	-3.2943273801	 1.5843370098	 0.352845
O	-2.1281143171	-3.2561737437	 2.479464565	-0.28652
C	-1.4574058422	-3.2283918662	 0.0407282041	 0.056999
O	-2.4863111671	-2.547834642	-0.5857499539	-0.410393
H	 0.9169508701	 1.8763722107	-0.1217276476	 0.154834
H	-0.5451945867	 1.789419044	-1.1129257434	 0.153642
H	-0.6739194549	 1.8755612525	 0.6494719011	 0.154177
H	 0.6859381876	-3.1005569622	-0.6994336756	 0.107418
H	 0.6768958381	-4.1781053337	 1.5335672423	 0.132709
H	 0.6765045099	-2.5358414188	 2.2321835054	 0.140874
H	-1.4418968953	-4.2483988257	-0.3618204768	 0.120054
H	-2.4213434736	-1.6194504693	-0.3257256498	 0.289117
