15
gdb 123597	4.19096	1.64324	1.41915	2.8753	70.29	-0.2524	-0.0034	0.249	891.4736	0.11626	-416.721863	-416.716127	-416.715183	-416.751825	24.006	
C	-0.0281608748	 1.5107121006	-0.0677595562	-0.180824
C	 1.5339931034	 1.3533568593	-0.0070706422	-0.179462
C	 1.150001625	 0.1641235804	 0.9453075332	-0.180821
N	-0.0959301702	-0.0247475712	 0.0566403758	-0.235889
C	 0.6007923568	-0.3438525813	-1.1780200977	 0.227205
C	 0.6899777192	-1.098994312	-2.2860473176	-0.132873
O	 1.7747195642	-0.6926029254	-3.0062734549	-0.195282
N	 2.4268964778	 0.3825609951	-2.3355263331	-0.283308
C	 1.7052671923	 0.5501698761	-1.2737222003	 0.409459
H	-0.4553314181	 1.9724179981	 0.8252803045	 0.121332
H	-0.4816170788	 1.9126534842	-0.975221619	 0.127726
H	 2.2218252827	 2.1531567539	 0.2561294802	 0.098889
H	 1.8083653591	-0.7047060517	 0.9938670036	 0.127732
H	 0.8456485553	 0.4855126098	 1.9439310948	 0.121341
H	 0.1289747659	-1.9127740658	-2.7157812813	 0.154775
