22
gdb 88436	2.99472	1.10161	1.0184	2.6538	82.92	-0.2287	0.0713	0.3	1311.0538	0.192259	-404.307961	-404.297857	-404.296913	-404.343378	37.944	
C	 0.9534459827	 1.1266407535	-0.8050384775	-0.401694
C	 0.6571861413	-0.2571808461	-0.2774256596	-0.029587
N	 1.7889263861	-1.0521642581	 0.2222368605	-0.363687
C	 0.7256134143	-0.6721216579	 1.1601455749	 0.31387
C	 1.1520867003	 0.2799737626	 2.2613923268	-0.451907
C	-0.2918271591	-1.6838380873	 1.6346817283	-0.080835
C	-0.5563453564	-3.0049786906	 0.9437516288	-0.361787
C	 0.1031910783	-2.9708037711	 2.3025830912	 0.096477
O	 1.47482576	-3.2256686361	 2.3957286467	-0.41306
H	 1.7328282963	 1.6206304192	-0.2215673003	 0.125451
H	 1.3025349368	 1.0718482029	-1.842347888	 0.11662
H	 0.054720218	 1.7533821233	-0.7876980264	 0.110756
H	-0.0946858344	-0.795581003	-0.8554653315	 0.073649
H	 1.7217824447	-2.0301731614	-0.0413040358	 0.219547
H	 1.8884366692	 1.0001768749	 1.901801718	 0.122822
H	 0.2931584637	 0.8295846727	 2.6638657764	 0.104005
H	 1.6084500584	-0.2853365042	 3.0804034293	 0.132465
H	-1.1715490967	-1.2092630264	 2.0643362322	 0.090068
H	-1.580590085	-3.3505695696	 0.8542100824	 0.112691
H	 0.0816834751	-3.27913452	 0.1086239182	 0.109797
H	-0.481402355	-3.2985534332	 3.1623449156	 0.085515
H	 1.6079377613	-4.176852844	 2.3258808999	 0.288825
