18
gdb 57081	3.0696	1.20698	0.91478	3.6077	78.19	-0.2506	0.0003	0.2509	1258.1852	0.147548	-401.970158	-401.961417	-401.960473	-402.004084	31.809	
C	-0.0523679762	 1.5456484889	-0.0280415537	-0.399808
C	-0.0559966547	 0.0079264649	 0.0379116399	-0.145219
C	 0.7721870111	-0.4779990038	 1.1438298651	 0.266093
N	 1.4031844986	-0.8684841425	 2.0304681056	-0.331329
C	-1.500424738	-0.5568714949	 0.1751453937	 0.084066
O	-2.2713726537	-0.1197201435	-0.9400949345	-0.276721
C	-2.8169476039	-1.2386970369	-1.6416954514	-0.119491
C	-2.322613559	-2.4431481276	-0.8938948272	-0.101034
C	-1.5850663965	-2.0594395181	 0.1409428442	-0.098193
H	 0.9585189312	 1.9279441432	-0.1876520606	 0.13274
H	-0.692179351	 1.8659166655	-0.8520962957	 0.147624
H	-0.4379483282	 1.9736436428	 0.9019564139	 0.134251
H	 0.3596961453	-0.3972449103	-0.8926121451	 0.127108
H	-1.932061102	-0.1415256725	 1.1003058702	 0.100287
H	-3.9153545236	-1.1683899602	-1.6483022825	 0.115083
H	-2.4837277097	-1.2216215118	-2.6903091521	 0.11313
H	-2.5601003873	-3.4584933327	-1.183943723	 0.116165
H	-1.0952192325	-2.6892260607	 0.8712495433	 0.135245
