19
gdb 83979	2.59701	1.56725	1.20896	2.2184	74.5	-0.2471	-0.0289	0.2182	1074.6735	0.160365	-423.044421	-423.036269	-423.035325	-423.07733	31.15	
O	 0.6405714515	 0.5542598707	 1.0830644355	-0.434309
C	 0.0863556913	-0.3932970761	 0.2179478783	 0.051766
C	-1.4653837286	-0.4771207922	-0.0095382508	-0.072484
C	-2.2396786379	 0.8488961273	 0.0771369345	-0.217794
C	-3.095300341	 0.8812484755	-1.2048096139	-0.19196
C	-2.1915807435	 0.2841792596	-2.3117350269	-0.234435
C	-1.2315090037	-0.6572583178	-1.5535267809	-0.1228
C	 0.1786587252	-0.1071206575	-1.2809486974	 0.32369
O	 0.9213411611	 0.6138124995	-1.8903523577	-0.313797
H	 1.115488209	 1.1900005674	 0.5327758554	 0.29804
H	 0.4698976234	-1.3966719086	 0.4531035158	 0.102038
H	-1.9607438254	-1.295077012	 0.5145317228	 0.075441
H	-2.8339885934	 0.927764586	 0.9905880565	 0.106097
H	-1.5354812041	 1.6893345539	 0.0877990835	 0.105433
H	-3.9783964666	 0.2452426737	-1.0708273007	 0.100693
H	-3.4557525477	 1.8848881041	-1.448796206	 0.100871
H	-2.7675413559	-0.2401894033	-3.0778457488	 0.103298
H	-1.6162356503	 1.0653530951	-2.8195274434	 0.121881
H	-1.2251899933	-1.6899086051	-1.9084459659	 0.09833
