16
gdb 32019	3.9306	1.14794	0.89826	5.2577	73.22	-0.263	-0.0614	0.2016	1252.0213	0.126131	-434.14728	-434.1392	-434.138255	-434.181021	29.052	
C	 0.1085186356	 1.5591505115	 0.0080573351	-0.37135
C	-0.0356587783	 0.0384076313	 0.002462781	-0.303941
C	-1.4629781623	-0.4468236578	 0.01339537	 0.436337
N	-2.4693016676	 0.3857654854	 0.0231122651	-0.319741
C	-3.7040958035	-0.2081984964	 0.0320989104	 0.073868
N	-4.0035521611	-1.4732683445	 0.0320543574	-0.299946
C	-2.9566850937	-2.3821773311	 0.0213973811	 0.441317
O	-3.0569614842	-3.5844657131	 0.0206062755	-0.367591
N	-1.6663226169	-1.7828061685	 0.0125300101	-0.363146
H	 1.1669870541	 1.8322133951	-0.0008747363	 0.117697
H	-0.3744893265	 2.0014365619	-0.8656527361	 0.141435
H	-0.3574594843	 1.9934099063	 0.8949716971	 0.141276
H	 0.4577518525	-0.3938215492	-0.8787625219	 0.136175
H	 0.4742159471	-0.4019723201	 0.8701425838	 0.135984
H	-4.5388640767	 0.4916555673	 0.0403080292	 0.131894
H	-0.8883114842	-2.430276588	 0.0051541785	 0.269732
