17
gdb 24247	3.8564	1.62152	1.24623	0.9242	78.54	-0.1821	0.0505	0.2325	985.2697	0.140111	-380.875243	-380.86866	-380.867716	-380.905888	27.337	
C	 0.0208126404	 1.4668706525	 0.0125547655	-0.246911
C	 1.2595044455	 0.6513221556	 0.0313473928	-0.010988
C	 1.9700966915	 0.3592406462	 1.3739332435	-0.385028
C	 0.8859677498	-0.3777118753	 2.1192610171	 0.271278
C	-0.1800754774	-0.5457552007	 1.2799760026	 0.335198
N	-1.1690454772	-1.2291721194	 1.9175392963	-0.375816
C	-0.7283346072	-1.5058764831	 3.2031632935	-0.081485
C	 0.5425817007	-0.9886628729	 3.3576023646	-0.327214
N	-0.0856215764	-0.0197121595	-0.0310200076	-0.205896
H	-0.2894660393	 1.9526532656	 0.9337578752	 0.122235
H	-0.276563603	 1.9677320778	-0.9043291345	 0.115619
H	 1.8442105569	 0.5825348214	-0.8800907737	 0.096672
H	 2.8641334038	-0.2529599817	 1.2002463553	 0.111254
H	 2.3094248975	 1.2808741619	 1.8623311693	 0.111872
H	-2.059140914	-1.4881523941	 1.5299142378	 0.263468
H	-1.3507681568	-2.0588556514	 3.8876848453	 0.114299
H	 1.138215455	-1.062433503	 4.2549307769	 0.091443
