15
gdb 15569	3.42033	1.78353	1.22778	3.8378	69.69	-0.2683	-0.0452	0.2231	943.6968	0.119896	-362.692472	-362.685012	-362.684068	-362.724461	27.276	
O	-0.0913810141	 1.4600730731	-0.0131996079	-0.421548
C	 0.0497714593	 0.0527372687	-0.0300146552	 0.018907
C	-1.3485124786	-0.597892451	 0.002304836	-0.228448
C	-1.2932054932	-1.7976403934	-0.9743965333	-0.262193
C	-0.0938554024	-1.4974505943	-1.8319702804	-0.156358
C	 0.6411736939	-0.4993385668	-1.328206374	 0.197273
C	 1.8502765796	 0.026263729	-1.8538397429	 0.189394
N	 2.8381051462	 0.5065025844	-2.2239339718	-0.339144
H	 0.7860049812	 1.8564167817	 0.0275259797	 0.296063
H	 0.6704658082	-0.2754808382	 0.8188081025	 0.086254
H	-1.6538204463	-0.8797737352	 1.0114166271	 0.112437
H	-2.0517923665	 0.1555973021	-0.363161905	 0.133696
H	-1.1483146844	-2.7501536515	-0.4464280012	 0.126462
H	-2.2082923303	-1.9143077907	-1.5648179919	 0.123429
H	 0.1489301474	-2.0507684979	-2.7319259916	 0.123777
