19
gdb 70559	2.60311	1.45478	1.16463	1.9406	74.89	-0.2369	-0.0144	0.2226	1106.2499	0.159682	-423.044341	-423.036073	-423.035129	-423.07732	32.28	
O	-0.0546300796	 1.4085475	 0.0767303878	-0.468327
C	-0.0139686189	 0.0105767071	-0.0401452086	 0.39529
C	-0.5301588451	-0.5920638589	-1.3192365814	-0.347382
C	-1.3645696842	-0.6544001132	-0.0475843656	-0.061201
C	-1.5986909901	-1.9917034858	 0.6527536349	-0.243967
C	-0.4690864322	-2.3753172531	 1.6366213116	-0.289226
C	 0.8976906015	-2.1117718373	 1.0297154507	 0.375722
O	 1.7182673169	-2.9772825933	 0.8337733624	-0.311747
C	 1.1492966485	-0.647720837	 0.6908993797	-0.3734
H	 0.6612717985	 1.7713927	-0.4574480117	 0.28188
H	-0.8503037041	 0.0925691871	-2.0965446707	 0.114162
H	-0.0799681573	-1.5145158046	-1.6762284977	 0.119879
H	-2.1925599366	 0.0455498703	-0.0177890289	 0.102333
H	-2.5448125193	-1.9585294484	 1.2009990631	 0.111435
H	-1.7049907072	-2.7869465681	-0.0937705402	 0.117579
H	-0.5596236075	-1.7560368748	 2.5386810758	 0.117657
H	-0.5345996718	-3.4253879399	 1.9286338929	 0.118813
H	 2.0862986639	-0.5682340112	 0.130251692	 0.111616
H	 1.2778058846	-0.1129356088	 1.6417155542	 0.128883
