19
gdb 83051	2.57212	1.4641	1.21266	1.07	88.19	-0.2224	0.0126	0.235	1117.8764	0.158665	-348.724142	-348.715646	-348.714701	-348.756729	33.493	
C	-0.0892222922	 1.5253173643	 0.0801348384	-0.421195
C	 0.0680729116	 0.028617049	-0.0474171339	-0.039942
C	 0.7259507149	-0.6645847153	-1.2069539105	-0.112926
C	 1.6634201451	 0.1193150909	-2.1264155784	-0.285784
C	 2.793293714	 0.552054687	-1.2163124083	-0.07732
C	 2.6497772538	 0.0824355585	 0.0237335932	-0.154387
C	 1.3953071785	-0.7198505279	 0.1836850815	 0.142268
C	 1.4012336373	-1.8897297183	 1.0094532343	 0.192221
C	 1.4112732881	-2.8637748095	 1.7167396969	-0.413484
H	 0.8092514424	 2.0630780677	-0.2292382129	 0.126553
H	-0.9231214369	 1.8736410992	-0.5399812135	 0.117678
H	-0.3069928398	 1.8041244765	 1.1164275376	 0.121665
H	-0.775101943	-0.5301164888	 0.3510180797	 0.095761
H	 0.2469881544	-1.5549771314	-1.5961675047	 0.097798
H	 2.0281718621	-0.5064386124	-2.9509017023	 0.113827
H	 1.1629748841	 0.9789256894	-2.5924830463	 0.113027
H	 3.5993256921	 1.194767319	-1.5521845674	 0.097837
H	 3.3283949964	 0.2481776673	 0.8517043456	 0.102456
H	 1.4218183471	-3.7264411253	 2.3351034213	 0.183946
