19
gdb 7352	4.14426	1.09749	0.9552	1.9885	68.85	-0.2427	0.0159	0.2586	1283.1705	0.163748	-402.237276	-402.227312	-402.226368	-402.273203	34.245	
C	-0.0656106853	 1.495941083	-0.1546047121	-0.391171
C	 0.0230344521	-0.0119538629	-0.0223218574	-0.042437
O	 0.6541451351	-0.5202912636	-1.2162410378	-0.244592
C	 0.8219349887	-1.8546738028	-1.2748299063	 0.425935
O	 0.4654562822	-2.616724753	-0.409520801	-0.367653
C	 1.5390156227	-2.2725039905	-2.563379168	-0.083896
C	 3.0289146253	-1.9105149102	-2.4541493491	-0.375498
N	 1.3881091535	-3.6903598819	-2.8668183287	-0.496178
H	 0.9293359027	 1.9388425687	-0.2546451364	 0.129852
H	-0.6567527275	 1.7772779661	-1.0306332022	 0.130172
H	-0.5433562474	 1.919110411	 0.7340275382	 0.123981
H	 0.6151980211	-0.3143139621	 0.8471475717	 0.122193
H	-0.96384173	-0.4744563249	 0.0785542262	 0.122199
H	 1.1030544726	-1.6916831091	-3.3838509457	 0.103152
H	 3.5375490841	-2.1834241725	-3.3813241738	 0.131729
H	 3.1604864669	-0.8418845594	-2.268739428	 0.126846
H	 3.4975351815	-2.4634363728	-1.6323645593	 0.121718
H	 1.6346947927	-4.2207704298	-2.0334753947	 0.234218
H	 0.404884899	-3.8981579133	-3.0211602357	 0.22943
