20
gdb 99213	4.96957	0.6195	0.57804	2.4271	77.09	-0.2441	-0.0073	0.2369	1932.6752	0.167936	-440.352402	-440.341446	-440.340502	-440.390522	37.67	
C	 0.0474259533	 1.5068631096	 0.2287152583	-0.375982
C	-0.1246505668	 0.0410329655	-0.1610172788	-0.276244
C	 0.7866886707	-0.4026553004	-1.2973213508	 0.374679
O	 1.4692417707	 0.3842325716	-1.9159141146	-0.306295
C	 0.8014119906	-1.8954707472	-1.5934889475	-0.297163
C	 1.4897631715	-2.2512874397	-2.9069743344	-0.320288
C	 2.0375427076	-3.6762470955	-2.9010079703	 0.411532
N	 2.2550158578	-4.208257568	-4.1403103317	-0.523371
O	 2.2708804824	-4.2950498881	-1.8797772567	-0.359498
H	 1.0638335021	 1.7008469247	 0.581786143	 0.128858
H	-0.1271626155	 2.1597124181	-0.6297942105	 0.132837
H	-0.6516172619	 1.7809051589	 1.0237365421	 0.109583
H	 0.0430161505	-0.6272304423	 0.694166379	 0.122266
H	-1.1576821036	-0.1624712987	-0.4785212084	 0.12276
H	 1.3356522755	-2.3979392346	-0.7756562977	 0.159332
H	-0.2213524164	-2.2878419316	-1.548260565	 0.115516
H	 0.8217604197	-2.1037109675	-3.7624352845	 0.108994
H	 2.3291832124	-1.561262625	-3.0569614604	 0.153718
H	 2.1855039127	-3.6502879044	-4.9735793806	 0.258556
H	 2.7403683868	-5.0891180152	-4.1944994804	 0.260212
