14
gdb 25507	4.55935	1.14469	0.91497	2.9587	75.37	-0.2449	-0.0536	0.1914	1179.7699	0.103271	-432.933909	-432.926595	-432.925651	-432.967016	26.322	
O	 1.8877270725	 4.2103128491	 0.2088154599	-0.261256
C	 1.0603936568	 3.3414058538	 0.1624416738	 0.156719
N	 1.2761569472	 1.9792313855	 0.0197074472	-0.392553
C	 2.4690025362	 1.2634214311	-0.1053157401	 0.421254
C	 2.3978474816	-0.1370594172	-0.2401300506	-0.07688
N	 3.4825300916	-0.8849085294	-0.3631835653	-0.225542
C	 4.6579146014	-0.2435306069	-0.3534764605	-0.023653
C	 4.7231751966	 1.1376070812	-0.2204233278	-0.011802
N	 3.6345682417	 1.8998611951	-0.0956626853	-0.275718
H	-0.0304573714	 3.5333201969	 0.2316340003	 0.081248
H	 0.437304176	 1.4180642075	 0.0038422759	 0.257198
H	 1.436139032	-0.6486418141	-0.2468171784	 0.106735
H	 5.5551540906	-0.8463338709	-0.4537386856	 0.119887
H	 5.679029187	 1.6551960384	-0.2130933733	 0.124361
