17
gdb 109499	2.25219	1.55941	0.96245	3.4269	68.55	-0.2511	-0.0533	0.1978	1175.8878	0.134944	-459.009966	-459.001341	-459.000396	-459.044415	31.338	
O	-0.112342698	 1.5389807331	 0.2814538411	-0.42443
C	 0.0215693392	 0.13753356	 0.2724759512	-0.066001
C	-1.3094730399	-0.5539565037	-0.0668773544	-0.251061
C	-1.8286867348	-0.2463638842	-1.463953583	 0.3873
O	-1.6140142837	 0.7731650144	-2.0773391958	-0.322125
C	-2.6173968421	-1.4486253285	-1.9851241748	-0.328273
C	-2.1163135718	-2.654496888	-1.169621115	-0.331894
C	-1.3107794871	-2.080778893	 0.0083651894	 0.385193
O	-0.74447506	-2.7358681709	 0.8431182475	-0.305051
H	-0.4375412767	 1.7849367549	-0.5953950828	 0.297163
H	 0.7908820566	-0.1980061878	-0.4410964377	 0.095313
H	 0.3422904861	-0.175784402	 1.2691687126	 0.132377
H	-2.0685580909	-0.1940329075	 0.6462924672	 0.148702
H	-3.6800864359	-1.2503127217	-1.7982087724	 0.14477
H	-2.4967272393	-1.5417412487	-3.0661862004	 0.14295
H	-2.9141230906	-3.2983640246	-0.7900057609	 0.145172
H	-1.445864831	-3.2986831918	-1.7485598419	 0.149894
