14
gdb 128946	4.11991	1.04328	0.90823	3.5889	67.28	-0.2344	-0.0082	0.2262	1220.384	0.102624	-432.876868	-432.869078	-432.868134	-432.91043	27.733	
N	 1.5251278521	-0.3895155464	 0.5055231528	-0.287756
C	 0.7413928227	 0.3964033758	 0.1869034636	 0.264763
C	-0.2759307079	 1.3755850639	-0.2301481892	-0.208288
O	-0.2308088722	 2.5749603027	 0.5179114939	-0.254334
C	 0.7846674889	 3.4195427059	 0.2142055765	 0.478723
C	 1.8837677434	 3.3524580258	-0.6164012462	-0.351572
C	 2.5043630158	 4.6130613692	-0.4374827834	 0.004024
N	 1.8557220919	 5.3878652832	 0.4199799995	-0.222253
N	 0.7979472719	 4.6327063838	 0.8093180669	-0.281867
H	-0.1620288285	 1.5790996535	-1.3024736002	 0.165415
H	-1.2677978791	 0.9498435957	-0.0602122683	 0.174517
H	 2.2081418768	 2.5281727891	-1.2278284795	 0.120667
H	 3.4069395928	 4.9754125762	-0.9074983084	 0.118551
H	 0.1323293416	 4.9918656816	 1.472310652	 0.27941
