18
gdb 67505	2.90097	1.42801	1.13258	3.9361	78.36	-0.2252	0.0069	0.2321	1110.2393	0.146358	-401.887575	-401.879459	-401.878514	-401.920143	31.285	
C	 0.2275599083	 1.3904749085	-0.1008120113	-0.511703
C	 0.0069833449	-0.0860561193	-0.012835004	 0.326252
C	-1.3898943796	-0.7657277052	 0.1744092222	-0.119134
C	-1.393916541	-2.2159829403	-0.2261185187	-0.289302
C	-0.7412740659	-1.8190200252	 1.0681432669	-0.076102
C	 0.6395277191	-1.1360962637	 0.8472765958	-0.095445
N	 0.9338746969	-1.0744731149	-0.5755371432	-0.112368
C	 2.1816505916	-0.8203243743	-1.1027294784	 0.124746
O	 3.2226595028	-1.2706116396	-0.6830948447	-0.303165
H	 1.282578777	 1.6422866308	 0.0435841625	 0.13969
H	-0.0892053721	 1.7847402127	-1.0733993126	 0.134938
H	-0.3563951154	 1.9041514562	 0.6698520787	 0.135068
H	-2.2939277302	-0.1960377916	 0.3465210991	 0.095906
H	-2.3541285953	-2.7098303977	-0.1148384337	 0.114299
H	-0.7938346944	-2.5557688848	-1.0617654083	 0.135543
H	-1.0700660896	-2.1770732376	 2.0341872109	 0.099981
H	 1.4455529425	-1.052297096	 1.5648793894	 0.120465
H	 2.1158284803	-0.2012462981	-2.0183547504	 0.080333
