19
gdb 103410	2.50407	1.37693	1.2505	1.9009	70.01	-0.2514	0.0616	0.313	1098.3619	0.157328	-460.112874	-460.103721	-460.102777	-460.14645	34.623	
C	-0.0448925367	 1.5781227191	-0.0423290377	-0.474084
C	-0.0149884028	 0.0550884759	-0.017513681	 0.211097
C	-1.3994553043	-0.5607903328	 0.2020963955	-0.120645
O	-1.929996587	-0.3035213436	 1.491252013	-0.416024
C	 0.7240463141	-0.6377380166	-1.1781493726	-0.0119
O	 2.098307024	-0.2251247443	-1.129460649	-0.268201
C	 1.6722807881	-1.303024878	-0.2719970557	-0.02522
C	 1.0605160807	-0.6148650359	 0.956049633	 0.083061
O	 1.9156812168	 0.220037735	 1.6838987358	-0.432409
H	 0.9237884176	 1.982546487	-0.344842438	 0.129159
H	-0.7980995792	 1.9471200671	-0.7484503142	 0.112134
H	-0.269306605	 1.9843398959	 0.9497893009	 0.123443
H	-2.0860173494	-0.217972656	-0.5897040179	 0.087399
H	-1.338717762	-1.6527758071	 0.1240013334	 0.106118
H	-2.0419183358	 0.6476014062	 1.5845908158	 0.28835
H	 0.3432568385	-0.9581531773	-2.1419352233	 0.104192
H	 2.2093374396	-2.2403898049	-0.3613225529	 0.107849
H	 0.5812947644	-1.2908211047	 1.6665862626	 0.104945
H	 2.4689884785	 0.6716509449	 1.0339065122	 0.290736
