13
gdb 123335	4.24887	1.103	1.00541	2.7256	70.39	-0.2588	-0.0978	0.161	1147.0874	0.088414	-411.726001	-411.718271	-411.717327	-411.760008	27.237	
C	 0.0260581031	-1.1962399092	 0.1236085675	-0.446156
C	 0.004562476	 0.0013461132	 0.0411969004	 0.30837
C	-0.0007820991	 1.4566312845	-0.0666449314	-0.410224
C	 1.4035451758	 2.0178014606	-0.0108985401	 0.402825
N	 2.0349040997	 2.0451684161	 1.1619212648	-0.238266
C	 3.2619215476	 2.5395133734	 1.0824176202	 0.112898
N	 3.854476559	 2.9828819695	-0.0324089353	-0.165242
N	 3.1586882155	 2.9389041851	-1.1533847524	-0.046807
N	 1.9278345582	 2.4590154971	-1.1635359543	-0.205508
H	 0.0366002387	-2.255690883	 0.1974543126	 0.209178
H	-0.4581159103	 1.76958623	-1.009755675	 0.16551
H	-0.5778252473	 1.8898489116	 0.758607696	 0.15972
H	 3.8505904431	 2.6000394412	 1.994070317	 0.153701
