17
gdb 124777	2.58743	1.39173	0.96719	2.6952	70.06	-0.2364	0.0036	0.24	1190.441	0.135986	-455.136163	-455.127359	-455.126415	-455.169705	32.892	
C	 0.1016413362	 1.4413743155	-0.2537831774	-0.407902
C	 0.0231317864	-0.0391932828	 0.1354112791	-0.015621
O	 0.5785664951	-0.2653048	 1.426551995	-0.419544
C	-1.3790314032	-0.5832671794	 0.0534217041	 0.095175
C	-2.1060496363	-1.1659424566	 1.0396830336	-0.003383
O	-3.3293393898	-1.5047212488	 0.6121569727	-0.177752
N	-3.4412082077	-1.163100084	-0.7385923347	-0.223401
C	-2.289008092	-0.6148964174	-1.0562212043	 0.319386
N	-2.0766167673	-0.0913552927	-2.3267723318	-0.589371
H	 1.1394914905	 1.7831119101	-0.217142391	 0.124611
H	-0.2994368073	 1.6124291988	-1.2564355679	 0.136156
H	-0.4942502171	 2.0452204211	 0.4410707142	 0.11549
H	 0.6717326898	-0.6129486045	-0.5414133537	 0.09774
H	 0.1856505258	 0.379914168	 2.0253737323	 0.281189
H	-1.8765616221	-1.4023688297	 2.0664696689	 0.151033
H	-2.8138497412	-0.3558618274	-2.9688313028	 0.261426
H	-1.1691143797	-0.3158998701	-2.7128396162	 0.254766
