18
gdb 95268	2.6111	1.87975	1.42692	1.94	69.86	-0.2372	0.0585	0.2957	945.6251	0.150114	-439.023449	-439.016297	-439.015352	-439.054976	28.785	
O	-0.0286546473	 1.4323488439	 0.0530587567	-0.424897
C	 0.0237503354	 0.0108735576	 0.0077287658	 0.063076
C	 0.9846266186	-0.533155902	 1.0959013227	-0.126912
O	 0.667748422	-1.8296009687	 1.5722812246	-0.259806
C	-0.7033013391	-1.9762119548	 1.8810142831	 0.08454
C	-1.4642260758	-0.7619778512	 2.4888532633	-0.199852
N	-2.2966742664	-0.5881759234	 1.2534954945	-0.148763
C	-1.6536375156	-1.8429238109	 0.6854321708	-0.07349
C	-1.3931658232	-0.5248810354	 0.079125186	-0.016631
H	 0.8311914948	 1.77502929	-0.2118324599	 0.286903
H	 0.3938719864	-0.3207347637	-0.9758802347	 0.079988
H	 2.000768796	-0.6040206016	 0.6950511014	 0.103868
H	 1.002909147	 0.1952482745	 1.9177899637	 0.105747
H	-0.7921001704	-2.9026694911	 2.4490859093	 0.093056
H	-2.1175860577	-1.0663185104	 3.3095145508	 0.114701
H	-0.9040132741	 0.1241081193	 2.7926147715	 0.119401
H	-2.2232518723	-2.6345488483	 0.2109177998	 0.093252
H	-1.9724831082	-0.278893884	-0.8067062794	 0.105819
