15
gdb 27821	2.07875	1.95383	1.01349	4.4524	73.37	-0.2278	-0.0387	0.189	1115.5084	0.113417	-450.193392	-450.184887	-450.183943	-450.226919	30.504	
C	 0.0460579295	 1.4504536677	 0.0027554343	-0.47068
C	-0.0535688486	-0.0394032954	 0.0014506565	 0.428226
N	-1.1839619945	-0.649356379	-0.0858532564	-0.371592
C	-1.0800177748	-2.0380011653	-0.0714806394	 0.432459
N	-2.2656850116	-2.6683567821	-0.1627480494	-0.549728
N	 0.0190769427	-2.7351598683	 0.0189677652	-0.378257
C	 1.2014386319	-2.0536738049	 0.1101802053	 0.413334
N	 2.3787241034	-2.503307073	 0.2058723835	-0.539928
O	 1.134198208	-0.6335573824	 0.0986719463	-0.214153
H	 0.672467646	 1.7803734126	-0.8316894147	 0.160618
H	-0.9476567289	 1.8880568146	-0.0787057339	 0.152262
H	 0.5321126559	 1.7882129076	 0.9231840928	 0.160628
H	-3.1074162042	-2.1261533189	-0.2337975692	 0.274919
H	-2.294303106	-3.6725419555	-0.1620265682	 0.274398
H	 2.3300167312	-3.5207806076	 0.2064137275	 0.227493
