19
gdb 91518	2.55045	1.48467	1.11942	2.3099	75.54	-0.2403	0.0188	0.2591	1138.7449	0.159816	-419.202954	-419.19416	-419.193215	-419.236388	33.483	
C	-0.0991944848	 1.560668387	-0.1406739314	-0.419117
C	 0.0512025219	 0.0553904231	 0.025757277	-0.047883
C	 1.1456526973	-0.7330828046	-0.7544541986	-0.182668
N	 1.7039615194	-1.3509235708	 0.507205751	-0.187448
C	 2.1691539489	-0.2209568064	 1.3203980998	-0.266191
C	 0.7114127837	-0.4956859707	 1.2901535454	 0.252874
C	-0.0476192804	-1.0118773679	 2.4705999208	 0.284049
N	 0.4777805412	-2.1508042752	 3.0115071958	-0.538887
O	-1.030035665	-0.4338135937	 2.8981067357	-0.365277
H	 0.8553650705	 2.0838134851	-0.0227115869	 0.111532
H	-0.4922634915	 1.806598466	-1.1330352287	 0.115403
H	-0.7945562542	 1.952426885	 0.6078419077	 0.143461
H	-0.922300382	-0.4232645936	-0.1091535737	 0.096774
H	 0.7590196941	-1.5101320714	-1.4155776514	 0.115277
H	 1.885589985	-0.1346724835	-1.2968916827	 0.106744
H	 2.7091003601	-0.5250424089	 2.2113263539	 0.130357
H	 2.5642728372	 0.6630447412	 0.824915215	 0.119427
H	 1.0996643112	-2.7046291217	 2.4416543975	 0.271808
H	-0.0541678326	-2.6099204991	 3.733500514	 0.259765
