19
gdb 90602	2.37465	1.6498	1.2427	4.449	78.11	-0.2215	0.0267	0.2482	1084.107	0.158748	-419.173936	-419.165037	-419.164093	-419.207887	32.542	
C	 0.4872300755	 1.4406647481	-0.4585974479	-0.412752
C	 0.1033347514	 0.0446157522	-0.0191433813	 0.139675
O	 0.7682835178	-0.9957724671	-0.7877172688	-0.30757
C	 1.2234998392	-1.6685619792	 0.4038379769	 0.024753
C	 0.6445924585	-0.5500141446	 1.3116631488	-0.088122
N	 2.0186481413	-0.2240611968	 1.6716090163	-0.057462
C	 2.579753796	 0.88423861	 2.3982753726	-0.352483
C	 2.6067301362	-1.1929631132	 0.8600198747	 0.367462
N	 3.781297876	-1.559068676	 0.5662321883	-0.569072
H	 1.566580613	 1.5918603394	-0.3784664236	 0.130726
H	 0.2015521546	 1.594368501	-1.503663718	 0.135117
H	-0.0274649829	 2.1930699351	 0.1489414749	 0.115588
H	-0.9851915217	-0.0970498576	-0.0846039578	 0.079584
H	 0.9768433759	-2.7295440801	 0.436025535	 0.100942
H	-0.0458074799	-0.6869507301	 2.145678642	 0.086998
H	 3.6187540861	 0.6497993955	 2.6500689674	 0.139025
H	 2.5682895717	 1.8260000636	 1.8331692073	 0.12758
H	 2.0346547625	 1.0383808802	 3.3360119272	 0.133214
H	 4.4907592188	-0.9702718202	 1.0069400761	 0.206795
