21
gdb 42115	2.13122	1.72398	1.08224	1.3295	84.84	-0.2324	-0.0008	0.2316	1158.5343	0.184915	-387.074346	-387.066183	-387.065239	-387.106615	32.741	
C	-0.0251257956	 1.3785139527	 0.0720247809	-0.052202
C	 1.4051494043	 2.0097168967	 0.0382421434	-0.274713
C	 1.5863277333	 3.0141779884	-1.0745470439	-0.047416
C	 1.831383345	 2.7283229894	-2.3556346887	-0.044248
C	 1.9952450363	 1.3284506783	-2.9211113928	-0.312343
C	 0.6516934406	 0.6771869487	-3.179700681	-0.019546
C	 0.0126153339	-0.1819902266	-2.3820961089	-0.080374
C	 0.5150996375	-0.6937261989	-1.057007263	-0.116789
O	-0.0553661987	-0.0405456875	 0.0779233295	-0.253175
H	-0.5395539027	 1.660285708	 0.9950805183	 0.105247
H	-0.6091334766	 1.771334706	-0.7689266053	 0.10181
H	 1.6108734091	 2.4872818286	 1.0005290206	 0.10206
H	 2.1352713272	 1.1995576753	-0.0517749676	 0.114958
H	 1.4609838186	 4.060501324	-0.8029195262	 0.087363
H	 1.8889714558	 3.5464334188	-3.0699350145	 0.087349
H	 2.5573781288	 1.3798597491	-3.8597965861	 0.105588
H	 2.5895737147	 0.7193254494	-2.2348294985	 0.113951
H	 0.1511757098	 1.0028825444	-4.0902647904	 0.092484
H	-0.9830306687	-0.5141538014	-2.6690473312	 0.08978
H	 0.2401452608	-1.7455613799	-0.9289646502	 0.11007
H	 1.6107120564	-0.6442385835	-1.0149662445	 0.090145
