15
gdb 7685	4.27364	1.61971	1.54704	3.1264	63.02	-0.2501	0.0163	0.2663	861.3438	0.117315	-399.763159	-399.755707	-399.754763	-399.794457	28.485	
C	-0.0106095765	 1.5789378331	 0.0667757618	-0.464758
C	 0.0493848056	 0.0722672469	 0.0777601822	 0.364714
O	-1.1105529372	-0.5757386268	-0.3707574186	-0.455991
C	 1.2942236511	-0.7250320813	-0.1666146625	 0.000417
O	 2.4535344588	-0.0345927984	 0.3609160572	-0.270569
C	 1.9308255335	-0.1406761275	 1.6570895292	 0.442481
N	 2.4419489388	 0.1634855482	 2.7587094161	-0.553991
C	 0.6543750694	-0.7669677329	 1.2110486823	-0.241237
H	 0.9275532194	 2.0188784246	 0.4078515142	 0.149696
H	-0.1990825232	 1.9406715297	-0.9517041243	 0.111998
H	-0.823102007	 1.9285412243	 0.709877584	 0.137509
H	-1.2818965982	-0.2827166573	-1.2731127934	 0.290263
H	 1.4493832887	-1.4914641211	-0.9137977552	 0.126448
H	 3.3789304783	 0.5514117361	 2.6374759746	 0.231444
H	 0.0777002884	-1.5273788875	 1.7155405123	 0.131575
