17
gdb 31499	3.23062	1.12288	0.84568	3.0346	73.45	-0.1827	0.0334	0.2161	1324.2218	0.135818	-455.187798	-455.17841	-455.177466	-455.222294	33.53	
C	 0.0164721336	 1.5266526477	 0.1499681574	-0.514527
C	 0.0359048636	 0.0446989716	 0.0136273203	 0.206985
C	 0.0080052565	-0.7842209303	-1.0805610282	 0.264017
O	-0.0306167895	-0.3963103278	-2.3792034765	-0.445773
N	 0.0164452343	-2.1053002146	-0.7309832001	-0.407361
C	 0.0553143213	-2.1035954463	 0.5889307804	 0.344707
C	 0.1216672034	-3.3029720304	 1.4776686767	-0.190182
O	-0.2517511509	-2.8873373427	 2.7869292451	-0.428992
N	 0.0761020532	-0.8439824779	 1.0835597028	-0.322174
H	 0.9099452186	 1.9154575102	 0.6555088	 0.122526
H	-0.0203188211	 1.9747154898	-0.8456751941	 0.151167
H	-0.8580708557	 1.8863789657	 0.707551871	 0.12349
H	-0.055068598	-1.2080181348	-2.8991204378	 0.297039
H	-0.5473682396	-4.0801536079	 1.0818814003	 0.121996
H	 1.141691745	-3.719892927	 1.4748149735	 0.112208
H	-0.0175069944	-3.5867021465	 3.4028422646	 0.296378
H	 0.0580299896	-0.6257359188	 2.0659475047	 0.268496
