14
gdb 19102	5.17517	2.14686	2.05142	3.1176	63.21	-0.225	-0.0087	0.2163	683.2132	0.108891	-345.339018	-345.333727	-345.332783	-345.36825	21.915	
O	 0.0031802106	-0.0146027187	 0.0417328218	-0.325599
C	-0.0125830259	 1.1802572966	 0.0724282309	 0.445131
C	-1.0982686354	 2.2694882522	-0.0242577072	-0.193695
C	-0.7997862609	 3.2598759692	 1.1190075408	-0.066965
C	-0.0515851379	 4.2454282256	 0.2561498928	-0.107377
C	 0.7473599659	 3.2809142469	 1.0970103331	-0.066958
C	 1.0399979278	 2.2984861755	-0.0546049996	-0.193703
C	-0.0521359828	 3.1363539048	-0.8456751531	-0.049148
H	-2.1228358844	 2.0710213704	-0.3278784354	 0.086804
H	-1.3649435352	 3.4255129521	 2.0258571546	 0.099205
H	-0.06671903	 5.3257744801	 0.2252795268	 0.097239
H	 1.3333598052	 3.4622157616	 1.9874864527	 0.099204
H	 2.0605384374	 2.127746815	-0.3872566618	 0.086801
H	-0.0688459044	 3.2378227387	-1.9262893767	 0.08906
