19
gdb 8893	3.19926	1.36609	1.03045	3.2816	69.87	-0.238	0.0376	0.2756	1188.1593	0.163342	-402.227427	-402.217365	-402.216421	-402.263094	34.232	
C	-0.2598130749	 1.4000140016	 0.7858262904	-0.333896
N	 0.0019724163	 0.0005790473	 1.0451329783	-0.298826
C	 0.906466434	-0.7177913624	 0.3392130911	 0.373994
O	 1.5802608131	-0.280449333	-0.5796583511	-0.3962
C	 1.0356971318	-2.1921776296	 0.7630989614	 0.039181
C	 2.5066885331	-2.5524324032	 0.9779485564	-0.398019
O	 0.235559163	-2.4228281017	 1.9163254213	-0.260922
C	-0.1252954522	-3.7704834026	 2.1269615606	-0.24059
H	-1.3087444605	 1.5660581682	 0.5152274029	 0.123576
H	-0.0241048742	 2.0191492421	 1.6589478272	 0.124324
H	 0.3753234971	 1.703485306	-0.047615132	 0.167604
H	-0.4768268198	-0.4879998316	 1.7850432761	 0.259249
H	 0.6369930133	-2.7803228552	-0.0795967135	 0.095288
H	 2.8943967451	-2.0356052141	 1.8610536412	 0.124327
H	 2.6392773451	-3.6287547096	 1.1164356363	 0.110924
H	 3.079601158	-2.2350233197	 0.1049201528	 0.152291
H	-0.6516818571	-4.1875371014	 1.2549803123	 0.111214
H	 0.7447281719	-4.4049575735	 2.3439617843	 0.116943
H	-0.7958816533	-3.7935797177	 2.9893736541	 0.129538
