21
gdb 103858	2.76524	1.17232	0.96137	1.8889	79.35	-0.2602	0.0769	0.3371	1321.4067	0.180056	-424.191272	-424.181438	-424.180494	-424.226381	35.897	
C	-0.7117708288	 1.1395599803	 0.2980554938	-0.383066
C	 0.1964455472	-0.0350818969	-0.0926281517	-0.265547
C	 1.0205536078	-0.5615540287	 1.0702960628	 0.393515
C	 2.0239238152	 0.4015751372	 1.6742240565	-0.460514
O	 0.2804705982	-1.3193854317	 2.0568278009	-0.294071
C	 1.2512907748	-2.0087024447	 1.2771101136	-0.03359
C	 0.7883348544	-3.146764456	 0.4169930612	 0.041574
C	-0.3518746126	-3.9826115809	 0.8243132748	-0.175012
O	-0.4587760934	-3.0619479123	-0.2635241796	-0.223356
H	-0.1444238251	 2.0237402171	 0.6046804537	 0.11241
H	-1.3411926225	 1.4310449883	-0.5478412685	 0.113972
H	-1.3697579217	 0.8551432545	 1.1249842056	 0.131287
H	-0.4148662429	-0.8470987446	-0.4850925932	 0.145936
H	 0.8835721509	 0.2737292835	-0.8913161675	 0.091764
H	 1.5234178615	 1.2939549653	 2.0611763565	 0.131482
H	 2.5627316663	-0.0665658571	 2.5016377435	 0.12347
H	 2.7511352991	 0.7243044538	 0.9213051062	 0.119786
H	 2.1583886691	-2.2815440592	 1.8267023834	 0.082259
H	 1.5871072825	-3.6121683665	-0.1635998735	 0.097946
H	-0.3793315386	-5.0353851963	 0.5491657431	 0.115685
H	-0.9066752412	-3.7021505249	 1.7166709383	 0.134072
