13
gdb 131953	4.7967	1.07815	0.88514	5.4861	64.7	-0.2871	-0.0959	0.1912	1217.6999	0.088049	-489.794779	-489.787032	-489.786088	-489.828146	26.908	
C	 0.0394405921	 1.479644707	 0.0152805877	-0.491674
C	-0.1034595982	 0.0015789948	 0.0488018058	 0.468836
C	-1.1408974152	-0.8544771276	-0.157424034	-0.431995
C	-0.5401843135	-2.1183606171	 0.0420080771	 0.486127
N	 0.7323673945	-2.0598001091	 0.3400693649	-0.158714
O	 1.0106861739	-0.7116118844	 0.344531171	-0.197659
N	-1.2074070783	-3.4129951951	-0.0567930398	 0.367177
O	-2.3988435327	-3.3680083752	-0.3403808046	-0.350464
O	-0.548919928	-4.416351207	 0.1444349676	-0.331259
H	 0.7790106446	 1.7820130601	-0.7327962532	 0.163132
H	-0.9173719237	 1.9422502841	-0.2315079491	 0.153911
H	 0.3736051328	 1.8602348282	 0.9855903812	 0.163131
H	-2.1642617084	-0.6422996687	-0.4089043945	 0.159451
