16
gdb 131139	3.82268	1.23521	1.02822	4.5898	70.77	-0.2436	0.0015	0.2451	1132.0544	0.125524	-434.046649	-434.038962	-434.038018	-434.079379	29.271	
O	 0.0410665622	 1.3605229661	 0.0423962241	-0.464675
C	-0.0173285979	-0.044935448	 0.0729307905	 0.283433
C	-0.401714483	-0.6221392963	 1.4123178516	-0.283385
C	-1.3645574156	-0.7006846271	 0.2517820717	-0.32485
C	 1.0309728268	-0.6938021378	-0.7435999387	 0.305942
C	 1.2088169276	-1.9352086872	-1.316282535	-0.184575
N	 2.4155369551	-1.9631286427	-1.9492078232	-0.187241
N	 2.9992052799	-0.8080167856	-1.8096692724	-0.114627
N	 2.1692715032	-0.0391450575	-1.0786063882	-0.245925
H	-0.3313369195	 1.6537982632	-0.7978627621	 0.290114
H	 0.1010669529	-1.5262774868	 1.7339171898	 0.13295
H	-0.614222133	 0.0991308175	 2.1927908778	 0.135549
H	-2.2197001721	-0.0344706449	 0.2682587323	 0.125745
H	-1.5396838095	-1.6596644875	-0.2227741749	 0.12976
H	 0.554965352	-2.7920328886	-1.3131315071	 0.11944
H	 2.4142937408	 0.9096878132	-0.8424314262	 0.282347
