20
gdb 58542	2.08038	1.46361	1.41176	2.3651	74.9	-0.2458	0.0298	0.2755	1101.2469	0.169871	-440.313322	-440.303638	-440.302694	-440.3474	36.291	
C	 0.0526850654	 1.5722763836	 0.0657230744	-0.428239
C	 0.009738502	 0.046038861	-0.0355007583	 0.071948
O	 0.7949428531	-0.5515903233	 0.9956970574	-0.439866
C	-1.4211798038	-0.5269434096	-0.021168708	 0.162626
C	-2.3387993737	 0.0730923922	-1.0844595612	-0.468515
C	-1.4870758539	-2.0885137944	 0.0896492849	-0.216345
N	-2.1716175049	-1.9043509236	 1.3767091111	-0.318481
C	-2.0260601637	-0.5442052435	 1.4133165355	 0.388428
O	-2.2367258375	 0.2852371172	 2.2640480366	-0.384524
H	 1.0927740048	 1.8971666602	 0.1557517305	 0.123006
H	-0.3789075961	 2.0524977421	-0.8164416339	 0.119671
H	-0.5039847423	 1.9120500234	 0.9455939027	 0.146348
H	 0.4926381318	-0.2712289529	-0.9690995674	 0.087765
H	 0.5276630931	-0.1480125791	 1.8304328651	 0.291167
H	-1.8910889017	-0.0088535085	-2.0817259069	 0.118516
H	-3.3018531892	-0.4459959209	-1.1041862442	 0.124571
H	-2.5360854574	 1.129503216	-0.8857434471	 0.138883
H	-2.0931342308	-2.5926089816	-0.6688649322	 0.104418
H	-0.5070580543	-2.5625324006	 0.181448	 0.129201
H	-2.3532011707	-2.5559559079	 2.126707151	 0.249422
