18
gdb 75787	2.29546	1.3241	1.21833	2.6164	73.81	-0.2598	-0.0438	0.216	1146.1205	0.144698	-439.101738	-439.092237	-439.091293	-439.136449	34.121	
C	-0.5108896126	 1.1731189336	-0.1743059077	-0.41885
C	 0.083392121	-0.2276902823	-0.1105599374	-0.183887
C	 1.4049610846	-0.4546007368	-0.8164221461	 0.438315
N	 1.8232773178	-0.2756721306	-1.982983293	-0.543195
O	 2.0659496653	-0.9206726978	 0.3106120935	-0.305137
C	 0.8654362112	-0.7081335747	 1.1428648407	 0.310524
C	 1.144517293	 0.2589582561	 2.2797670269	-0.456078
C	 0.4355870277	-2.0613028803	 1.6888945887	 0.118939
O	-0.6937970721	-2.4726779858	 1.666170312	-0.239188
H	 0.2145845193	 1.9420771062	 0.1043266827	 0.124176
H	-0.8360000431	 1.382233124	-1.1969481709	 0.147698
H	-1.3802563731	 1.2592854235	 0.4842773434	 0.12805
H	-0.6677112117	-0.9683468019	-0.3982741451	 0.128635
H	 2.8067285973	-0.5355373173	-2.0753968258	 0.229997
H	 1.577393613	 1.1864326344	 1.8976834651	 0.142003
H	 0.2197531329	 0.4933841647	 2.8156051385	 0.143666
H	 1.8537646141	-0.1795916071	 2.9891706188	 0.135928
H	 1.2732128953	-2.650473778	 2.1244158158	 0.098405
