19
gdb 104475	2.23473	1.34918	1.15597	1.6679	74.34	-0.2354	-0.0245	0.2109	1175.8439	0.155573	-460.140444	-460.13026	-460.129316	-460.175428	36.294	
C	-0.3418237173	 1.272532869	-0.090142728	-0.273083
O	 0.0700397278	-0.098030346	 0.0225183941	-0.30798
C	 0.7409229083	-0.6003913491	-1.0859223561	 0.262748
C	 1.9836178006	 0.0538400387	-1.5424190303	 0.110681
O	 2.496766952	 1.0283288348	-1.0460241275	-0.281364
C	 0.6538920431	-2.1296762423	-1.2514008505	-0.136541
C	 0.0724136761	-2.9864680853	-0.1493577306	-0.405415
C	-0.1856400926	-1.2668527414	-2.1352615147	 0.064773
O	-1.5516749606	-1.1272568516	-1.9356258768	-0.422194
H	 0.5224060899	 1.9385913558	-0.0741412588	 0.15974
H	-0.9174045201	 1.4349957211	-1.0097040653	 0.123564
H	-0.9795540945	 1.4661575821	 0.7750127451	 0.128771
H	 2.4330403958	-0.4466470858	-2.4327515146	 0.071386
H	 1.5283282995	-2.5566676911	-1.7372180954	 0.10116
H	-0.7519299418	-2.4906556949	 0.3642633183	 0.128333
H	-0.3001044112	-3.9280740058	-0.564732008	 0.130147
H	 0.8336528043	-3.2202940727	 0.6003554768	 0.131569
H	 0.066844774	-1.1831707448	-3.1873619862	 0.114367
H	-1.6773267232	-0.8878212508	-1.0077937915	 0.299338
