17
gdb 87385	2.23443	1.60848	1.08173	3.7191	70.68	-0.2394	-0.0393	0.2001	1125.4253	0.132857	-458.944081	-458.9351	-458.934155	-458.977805	32.998	
C	-0.0076532384	 1.5106448258	-0.1767814687	-0.407457
C	 0.0595349601	 0.0196333723	 0.012498374	-0.005391
O	 1.3395655979	-0.6063575809	-0.1026766644	-0.283642
C	 0.7202546672	-0.6326216049	 1.1661488246	 0.306866
C	 1.2650078452	-0.0480687518	 2.4811420417	 0.003226
O	 0.8609743216	 1.2754056553	 2.7361741369	-0.425006
C	 0.5358211097	-1.1949367722	 3.2597351749	-0.398914
C	 0.2430568368	-1.8713361145	 1.9039929234	 0.337956
O	-0.1574399844	-2.9469065071	 1.5667117896	-0.300316
H	 0.8094105636	 2.0085769794	 0.3444848636	 0.1438
H	 0.0418907979	 1.7480227265	-1.2448185768	 0.126767
H	-0.953726865	 1.8976783454	 0.214078446	 0.129
H	-0.7405974029	-0.5581104617	-0.4543404383	 0.112088
H	 2.3565670435	-0.157583007	 2.5267503499	 0.095296
H	 1.281034337	 1.5694004983	 3.5504349396	 0.293045
H	 1.1245485789	-1.7816110549	 3.9678121325	 0.132984
H	-0.3779422088	-0.8389717582	 3.7460764715	 0.139697
