19
gdb 51534	4.33562	0.72217	0.66855	3.6533	77.89	-0.2517	-0.0332	0.2185	1642.5162	0.156931	-423.032522	-423.023074	-423.02213	-423.068874	32.88	
O	-0.6239960582	 1.6509301143	 1.1556789352	-0.235699
C	 0.1424456139	 1.2483442875	 0.3185146178	 0.158132
C	 1.412479452	 1.9552001616	-0.0974146124	-0.282475
C	 1.2602176289	 2.5499495453	-1.5065966148	 0.003942
C	 0.3508233926	 3.8118777505	-1.5683351608	-0.259798
C	 1.6238304759	 4.7165655989	-1.614696627	-0.050188
C	 2.4574358362	 3.4382146735	-1.9494246124	-0.265196
C	 1.6327936006	 5.8018980743	-2.6536253168	 0.158337
O	 1.8891072456	 6.9608076302	-2.4538598045	-0.248731
H	-0.0685164846	 0.308507212	-0.2444137307	 0.075534
H	 1.6352856209	 2.7354704823	 0.6371245838	 0.123448
H	 2.2360823756	 1.228531671	-0.1024063244	 0.114866
H	 0.9947049268	 1.7536679122	-2.2091487353	 0.079029
H	-0.2211862904	 3.8644631637	-2.4998683792	 0.109372
H	-0.3302907732	 3.977257674	-0.7311659178	 0.13301
H	 1.8768541479	 5.1499918709	-0.6457005525	 0.097672
H	 3.3989033906	 3.319261614	-1.4082070659	 0.114789
H	 2.6593188842	 3.3514002314	-3.0217792406	 0.109858
H	 1.3731332848	 5.4397493923	-3.6793158917	 0.064096
