21
gdb 106792	2.51825	1.51548	1.10867	1.7012	83.41	-0.2387	0.0083	0.247	1188.5628	0.18115	-387.098012	-387.08888	-387.087936	-387.131562	35.112	
C	 0.0388610802	 1.4148744048	-0.5242258835	-0.377182
C	 0.0351576077	 0.1175055957	 0.2963396183	-0.290805
C	-1.3344342014	-0.5064037537	 0.3780144916	 0.336793
O	-1.8624349826	-1.0453335682	-0.8690027162	-0.343898
C	-1.6765207277	-1.9431039348	 0.2359136618	 0.329175
C	-0.7119970968	-3.0777795831	 0.0219185121	-0.485404
C	-2.9710840772	-2.1892524191	 1.017428626	-0.331766
C	-3.327559088	-0.8199636508	 1.5529592206	-0.08176
C	-2.4191940642	 0.0985128156	 1.2209397016	-0.124835
H	 1.0470272344	 1.835031326	-0.5860051859	 0.111155
H	-0.3168942565	 1.2219038097	-1.540189347	 0.136869
H	-0.6120365079	 2.175012048	-0.0797418138	 0.116713
H	 0.7334956229	-0.5962036021	-0.1516408321	 0.103323
H	 0.3921626661	 0.315226054	 1.3151330087	 0.100663
H	 0.1771442866	-2.7445108006	-0.5174433628	 0.129267
H	-0.4024479972	-3.5135742419	 0.977763901	 0.119585
H	-1.1832014878	-3.8706158944	-0.5701727662	 0.126933
H	-3.7544840598	-2.5969781124	 0.3664826712	 0.121811
H	-2.8182777599	-2.9175431256	 1.8249106699	 0.107223
H	-4.2377888286	-0.6328718549	 2.1116091816	 0.098569
H	-2.4485404921	 1.1482334977	 1.487354563	 0.097572
