20
gdb 72996	2.63079	1.44547	1.14956	3.3122	80.3	-0.2386	-0.0244	0.2142	1140.9442	0.168904	-403.121384	-403.112094	-403.11115	-403.15516	34.785	
C	-0.2801845141	 1.3480728961	 0.0272238527	-0.494293
C	-0.0941299675	-0.1442083213	 0.0877258584	 0.311557
C	-0.817546105	-1.096027334	-0.8732274584	-0.312427
C	-1.0707532028	-1.9960612636	 0.3589585832	-0.153743
N	-0.4104462708	-1.0120807146	 1.2865523556	-0.215701
C	 1.006854941	-0.8622182927	 0.8171968518	 0.162287
C	 1.8453816747	-1.981372527	 0.2388405005	-0.495995
C	 1.7480958773	-0.026291149	 1.8242924186	 0.128653
O	 2.9487990115	-0.0028932523	 1.9324221851	-0.269241
H	 0.23999631	 1.7552737474	-0.8477531334	 0.131208
H	-1.3425419517	 1.5961296849	-0.0707186399	 0.125326
H	 0.1039018954	 1.8588086845	 0.9120208189	 0.132334
H	-1.7350812476	-0.6518874009	-1.2658542221	 0.114416
H	-0.2436417571	-1.5002089886	-1.711341206	 0.110184
H	-2.1246118391	-2.0895512725	 0.6273672786	 0.117224
H	-0.6167665031	-2.9904163314	 0.3664111049	 0.112858
H	 1.4371233301	-2.4009571076	-0.6806350982	 0.120102
H	 2.8435635469	-1.5899021229	 0.0301452444	 0.149858
H	 1.9610922854	-2.7909598076	 0.9674678023	 0.132976
H	 1.0894973464	 0.5629265532	 2.494725453	 0.092418
