16
gdb 32482	6.45622	0.85108	0.759	3.7747	76.8	-0.2564	-0.0738	0.1826	1455.9981	0.12394	-437.934535	-437.926136	-437.925192	-437.968539	29.655	
C	 0.3723465745	 0.807575853	 0.8660265024	-0.391893
C	-0.350181453	 0.3754881282	-0.4123726416	-0.289199
C	 0.5635943157	-0.1154773175	-1.4902516317	 0.250016
C	 1.9237605005	-0.2368108977	-1.5047877832	-0.097551
O	 2.3084126417	-0.731217922	-2.7079400804	-0.14691
C	 1.1489137753	-0.893297648	-3.3890889234	 0.27865
C	 1.1692261796	-1.4203361433	-4.7593975383	 0.081669
O	 2.168013508	-1.7354545206	-5.3592156165	-0.257226
N	 0.0887796472	-0.5448715267	-2.715926981	-0.32634
H	 0.9360935529	-0.0220567529	 1.3053600423	 0.124165
H	 1.073428164	 1.6257695665	 0.6707342048	 0.124209
H	-0.34465976	 1.1553308863	 1.6140034558	 0.124801
H	-1.07617431	-0.4155122727	-0.1871929007	 0.128894
H	-0.9410517104	 1.2085883256	-0.8126529747	 0.128913
H	 2.7084795079	-0.0322010062	-0.7969957786	 0.158866
H	 0.150908696	-1.4978460019	-5.1884865352	 0.108936
