20
gdb 26182	3.91221	0.9603	0.93236	1.0425	82.3	-0.2264	0.0153	0.2417	1399.4128	0.170254	-403.20503	-403.195495	-403.194551	-403.239935	34.599	
C	-0.0364988261	 1.5255927556	-0.006239102	-0.391526
C	-0.0291367703	-0.0134126094	 0.0473631731	-0.075688
C	 0.7027207847	-0.5273849016	 1.3010492986	-0.391523
C	-1.4171325232	-0.5646895132	-0.0334449515	 0.389655
N	-1.9300965308	-1.331425689	-0.9434028941	-0.354242
C	-3.2488062789	-1.5478121873	-0.5387918199	 0.246676
C	-4.1870265175	-2.3926671986	-1.3318446948	-0.491385
C	-3.451015867	-0.8792573975	 0.6205332601	-0.126369
O	-2.2858803764	-0.2420812027	 0.9607884895	-0.184888
H	 0.9879253431	 1.9100438624	 0.0123980607	 0.11507
H	-0.521288481	 1.887932303	-0.9173661812	 0.124588
H	-0.5716924972	 1.9420691772	 0.8525890683	 0.12849
H	 0.4803241747	-0.3964373496	-0.8421909722	 0.108076
H	 1.7288556211	-0.1476864021	 1.3227591067	 0.115081
H	 0.1966967748	-0.1922555428	 2.2116414767	 0.128454
H	 0.7420600127	-1.6203982969	 1.3164798076	 0.12463
H	-3.8011419093	-3.4122523764	-1.4364950212	 0.137757
H	-5.169780064	-2.4440391691	-0.856026549	 0.12189
H	-4.3143148857	-1.9914943182	-2.3429326708	 0.137741
H	-4.2835292036	-0.7506686439	 1.2907077952	 0.13751
