16
gdb 51896	6.88875	0.73178	0.70075	4.8841	73.98	-0.2433	-0.0194	0.2238	1560.306	0.122251	-437.851993	-437.843633	-437.842689	-437.886688	29.629	
O	-0.284463053	 0.3148583494	 0.6853557514	-0.240719
C	 0.0857603532	 1.0172549037	-0.2176662649	 0.156565
C	 1.1299539509	 2.1140754883	-0.0660826793	-0.255195
N	 1.0448849097	 3.041826066	-1.1799462827	-0.367692
C	 1.250633079	 4.2579266409	-0.9756624237	 0.502985
O	 1.5613267246	 4.9264877202	 0.2149933087	-0.281796
C	 1.4217266264	 6.1987241612	-0.4716815171	 0.098594
C	 2.46824366	 6.3128036572	-1.5161077081	-0.289305
C	 1.1947676206	 5.5019901071	-1.794659275	-0.230642
H	-0.3003770488	 0.9075178166	-1.2554161812	 0.089967
H	 1.0313564455	 2.5761919893	 0.9236705198	 0.142832
H	 2.109214005	 1.6103774364	-0.0872210568	 0.142458
H	 0.883798716	 6.9841617801	 0.0398591516	 0.131594
H	 2.5101861378	 7.2577265445	-2.0491523974	 0.133281
H	 3.4206137801	 5.810646523	-1.3799536099	 0.138158
H	 0.5256822031	 5.7086356462	-2.6161350654	 0.128915
