19
gdb 90387	2.18121	1.55937	1.30421	3.6419	79.99	-0.2512	0.0104	0.2616	1095.2749	0.158863	-382.048239	-382.039316	-382.038372	-382.081406	33.554	
C	-0.217026407	 1.5902386656	-0.0650103234	-0.436793
C	 0.0227314411	 0.0882608344	 0.0226575587	-0.038917
C	 1.1043570804	-0.6229563203	-0.837988916	-0.198424
N	 1.6609570275	-1.350942032	 0.3641646935	-0.174232
C	 2.1902161261	-0.3006876535	 1.2751548	-0.207178
C	 2.8633261421	 0.877877957	 0.7920122285	 0.316481
N	 3.4360441853	 1.8106513395	 0.4160751281	-0.354193
C	 0.7175468232	-0.5427207694	 1.2382771258	 0.311783
C	 0.0008913535	-1.1175137813	 2.4255905075	-0.492229
H	 0.7058451986	 2.1639061254	 0.0412226869	 0.153548
H	-0.661138398	 1.8466000458	-1.032817028	 0.121589
H	-0.9149589209	 1.9180456724	 0.7131879736	 0.118667
H	-0.9305702138	-0.4336177318	-0.1130148561	 0.089532
H	 0.7138278069	-1.3479847015	-1.5528443737	 0.118834
H	 1.8365893322	 0.0170828739	-1.338016412	 0.133428
H	 2.7003506237	-0.7439039442	 2.1265117836	 0.137566
H	-0.3657226516	-0.3184511617	 3.0797758506	 0.134208
H	-0.8592693599	-1.7139314409	 2.1043220505	 0.131293
H	 0.6612280405	-1.7622243475	 3.0124261017	 0.135038
