19
gdb 68425	2.63808	1.59106	1.24409	1.1063	80.49	-0.2412	0.0483	0.2895	1064.1267	0.158852	-385.847448	-385.839258	-385.838314	-385.879776	32.669	
C	-0.0684466976	 1.5042751536	 0.0055125869	-0.501802
C	 0.0240443211	 0.0076525596	-0.0468890752	 0.411242
C	 0.4336076967	-0.8133383948	-1.2928867557	-0.2776
C	-0.4555640988	-1.8260702668	-0.5459340532	 0.076301
C	 0.3691478885	-2.2038320097	 0.6990256248	-0.242582
C	 0.7565410407	-0.7405028612	 1.1245937761	-0.203154
C	 2.1796461282	-0.4715561897	 1.219507603	 0.324113
C	 3.3578541307	-0.2348594313	 1.2792509099	-0.473517
O	-1.2545812978	-0.7051966232	-0.0528264632	-0.327932
H	 0.9349725572	 1.9403372009	 0.0111961759	 0.136964
H	-0.6176480389	 1.8911393516	-0.8568564344	 0.126771
H	-0.5861653188	 1.823537228	 0.9163070138	 0.128861
H	-0.0463459219	-0.4332816286	-2.1954441621	 0.108397
H	 1.4892710392	-1.0397900916	-1.457589784	 0.107683
H	-1.0360882275	-2.6010863441	-1.0454099607	 0.08065
H	-0.2397866458	-2.7025894798	 1.4550518535	 0.112051
H	 1.2392897325	-2.8234445852	 0.4723122421	 0.112507
H	 0.2656022615	-0.4695681798	 2.0644087273	 0.106642
H	 4.397289171	-0.0275124578	 1.3414652252	 0.194405
