16
gdb 49849	2.87924	1.49384	1.19022	4.0303	70.79	-0.2554	-0.0364	0.219	1041.5511	0.124639	-437.89496	-437.887345	-437.8864	-437.92762	28.453	
N	-0.0316716766	 1.1989663841	 0.3482010466	-0.54678
C	 0.0010374832	-0.0125804194	 0.0036695292	 0.422272
O	 1.1316745807	-0.6707482434	-0.4309191737	-0.236573
C	 0.8088360566	-1.9145858105	-1.0442656622	-0.005588
C	 1.7340338816	-3.0176191133	-0.5561170551	 0.157622
O	 2.4455479547	-2.9432804796	 0.4075556259	-0.234091
C	-0.650293157	-2.2135832431	-0.6821545066	-0.093555
C	-0.9512641249	-2.2271879739	 0.7884156561	-0.294237
C	-1.1482778175	-0.9543831581	-0.0103211247	-0.104944
H	 0.8862619256	 1.6314312101	 0.2335574268	 0.228447
H	 0.9172998899	-1.825309735	-2.1354051808	 0.106708
H	 1.6631986732	-3.9452331661	-1.1700616049	 0.082698
H	-1.255359234	-2.7762531398	-1.3807079304	 0.11136
H	-1.8513924882	-2.7396187936	 1.1065886249	 0.129654
H	-0.1239280172	-2.2747566099	 1.4888301962	 0.153114
H	-2.13988048	-0.5493707885	-0.1544648275	 0.123893
