15
gdb 44617	2.99915	1.96582	1.56236	4.3083	62.79	-0.2511	0.001	0.2521	849.9652	0.115215	-457.780604	-457.774476	-457.773532	-457.811181	24.61	
O	-0.0378688286	 0.0409464885	 0.2565269502	-0.336263
C	-0.0113451976	 1.20802679	 0.0078582874	 0.451907
O	-1.1447817718	 1.9472426729	-0.1925694849	-0.209708
C	-0.8103010662	 3.2698626373	-0.5512364787	 0.051654
C	-0.0049159533	 4.1115685525	 0.4234951736	 0.062237
O	 0.3679518224	 3.536903426	 1.6466653742	-0.254971
C	 1.4467918335	 2.6282060249	 1.3984441216	-0.081254
C	 1.2060543614	 2.1445979592	-0.0472789008	-0.221689
C	 0.680044948	 3.413451723	-0.7256890825	-0.16814
H	-1.5436085728	 3.7201056453	-1.2078778692	 0.121344
H	-0.1635829395	 5.1840320898	 0.4554647609	 0.113208
H	 2.4149477446	 3.1426433503	 1.479921767	 0.10572
H	 1.3965651099	 1.8266249535	 2.1393095319	 0.141457
H	 2.0680702762	 1.6633107209	-0.505913774	 0.114395
H	 1.1741242639	 3.887557326	-1.5626176467	 0.110104
