23
gdb 89299	2.13823	1.66771	1.12758	1.5784	85.5	-0.2315	0.0758	0.3074	1205.1054	0.204496	-388.27361	-388.264064	-388.26312	-388.307589	36.844	
C	-1.0582884583	 0.9605748495	 0.0035816454	-0.421281
C	-0.0732796353	-0.2018124169	 0.029146522	 0.051181
C	 1.2458302159	-0.1380490549	-0.8050709081	-0.306722
C	 2.0159585286	-0.7562884047	 0.3976460119	 0.474215
C	 2.8298552318	-2.0078476658	 0.1972334974	-0.478242
O	 2.7171905351	 0.2573730477	 1.1565591801	-0.349075
C	 1.6083457127	 0.3985804153	 2.0846745912	 0.150967
C	 1.2286204881	 1.8471543484	 2.3273549549	-0.41258
C	 0.7421887202	-0.6126894659	 1.2906792631	-0.190237
H	-0.5752130202	 1.9246983551	 0.1757217814	 0.119471
H	-1.5543751546	 1.0140861569	-0.9722130265	 0.113576
H	-1.8391521854	 0.8369870224	 0.76258253	 0.112874
H	-0.6176008699	-1.1051377242	-0.2717360545	 0.076606
H	 1.2430714223	-0.7173141271	-1.7326507999	 0.092884
H	 1.5997528501	 0.8735517688	-1.018889471	 0.10428
H	 3.7140648652	-1.7885425801	-0.4123790779	 0.126918
H	 3.1703063191	-2.4108917048	 1.1558365316	 0.120171
H	 2.2450181267	-2.7764990577	-0.3187181977	 0.113631
H	 1.8867633373	-0.0528089182	 3.049579133	 0.0727
H	 0.3267815225	 1.914474349	 2.9450855177	 0.11448
H	 2.0415687136	 2.3534072607	 2.8584069997	 0.122818
H	 1.0584513259	 2.3842872083	 1.3928123521	 0.126091
H	 0.3255071686	-1.4243054318	 1.8895259143	 0.065273
