19
gdb 133797	2.87684	0.85625	0.77258	0.9789	64.74	-0.2564	0.0791	0.3355	1519.3915	0.155011	-550.726104	-550.716029	-550.715084	-550.761861	36.09	
C	-0.0395242978	 1.5876733351	 0.0446841008	-0.383852
C	 0.0190044349	 0.0582851689	 0.0342121546	-0.171291
C	 0.6662177259	-0.4964359249	-1.2386343665	-0.171593
C	 0.6856668002	-2.0299523935	-1.2866757386	-0.132408
N	-0.6683231319	-2.5722760757	-1.3218739443	-0.507765
C	 1.5356294575	-2.5257776853	-2.4603227402	 0.271395
F	 2.8069020512	-2.1032641977	-2.381159987	-0.077452
F	 1.5642804351	-3.8708244494	-2.4994580081	-0.086968
F	 1.0416724137	-2.1068024012	-3.639514988	-0.08905
H	 0.9618118233	 2.0267686929	-0.0291094039	 0.113834
H	-0.6282867068	 1.9674669647	-0.7978980153	 0.114279
H	-0.4992884446	 1.960364601	 0.9651061863	 0.114059
H	 0.5842227701	-0.2942207966	 0.9071606928	 0.093872
H	-0.9874775807	-0.3601000976	 0.1328306531	 0.120107
H	 0.130880883	-0.1251305361	-2.1227581084	 0.101848
H	 1.69486823	-0.1295964689	-1.326173582	 0.111541
H	 1.18086881	-2.412709445	-0.3853606276	 0.106573
H	-1.1252381264	-2.2867903725	-2.1842896589	 0.23422
H	-0.6367097968	-3.5870916882	-1.3324109588	 0.238652
