20
gdb 104640	2.57559	1.22357	0.98279	1.4013	82.84	-0.2131	0.0356	0.2487	1296.96	0.167742	-403.070598	-403.060701	-403.059757	-403.105155	36.433	
C	 0.0089375701	 1.4018573712	 0.0838266912	-0.254806
O	-0.0782364509	-0.0009558605	-0.0818038864	-0.27785
C	 0.6041751237	-0.5179919092	-1.2046651466	 0.232664
C	 2.1588526779	-0.6056353437	-1.0271929254	-0.226113
N	 2.0029699483	-1.9888476103	-0.5498428618	-0.068759
C	 2.9697747605	-2.9750542342	-0.9707573735	-0.321299
C	 0.6356163772	-2.0673699838	-1.0906894961	-0.211533
C	 0.123201781	 0.0437606341	-2.4624353215	 0.311439
C	-0.2718522281	 0.5071103668	-3.4994719306	-0.491572
H	 1.0481351865	 1.7376836964	 0.2094474913	 0.106945
H	-0.4329560319	 1.9393014364	-0.764936936	 0.121354
H	-0.548688545	 1.6404721147	 0.9919131006	 0.13017
H	 2.681369525	-0.51993007	-1.9922310662	 0.094106
H	 2.60964983	 0.085104457	-0.3067791535	 0.109312
H	 3.9509953624	-2.7376757228	-0.5459874664	 0.121655
H	 2.6768530838	-3.9635391594	-0.6012101046	 0.122736
H	 3.0798126463	-3.0394599372	-2.0711994712	 0.089267
H	-0.1124034905	-2.4897781439	-0.4130104717	 0.118789
H	 0.5689089441	-2.5527060513	-2.0758020235	 0.094768
H	-0.6225744505	 0.9112374797	-4.417027668	 0.198728
