18
gdb 31060	2.39439	1.30895	0.86093	1.1336	77.28	-0.1549	0.0571	0.2121	1323.5605	0.147754	-435.274959	-435.265026	-435.264082	-435.310193	35.825	
C	 0.0033761458	 1.4279014988	-0.0714699354	-0.315526
N	 0.0015128405	 0.0205800963	 0.2954590221	-0.402373
C	-1.2074396684	-0.6794399158	 0.1356708008	 0.225984
C	-1.3164803579	-2.0426796083	-0.0028211851	 0.1992
O	-0.3457318283	-2.999899713	-0.1235498474	-0.443785
N	-2.6604122508	-2.3719706044	-0.0482125353	-0.310945
C	-3.4087632953	-1.2267907819	 0.0416710002	 0.276065
N	-4.8152785893	-1.3145179586	-0.0686993684	-0.609736
C	-2.5427746189	-0.1608639044	 0.1709685674	-0.308497
H	 1.0194495424	 1.8197748704	 0.0257536282	 0.114498
H	-0.352879979	 1.6268978637	-1.0959654293	 0.103815
H	-0.6327999898	 1.9929704747	 0.6181135428	 0.126032
H	 0.7579380467	-0.4824009676	-0.1513469938	 0.227642
H	 0.0024401659	-3.2112579911	 0.7516260939	 0.298254
H	-3.0242984856	-3.2662547118	-0.3289275307	 0.258003
H	-5.2607634323	-1.4924575942	 0.8277928018	 0.239788
H	-5.1966749361	-0.4468748053	-0.4265215667	 0.24254
H	-2.8331141096	 0.8702121825	 0.2998789447	 0.079043
