16
gdb 98815	3.14713	1.14449	0.9519	2.58	67.25	-0.2595	-0.0025	0.257	1239.8481	0.123602	-475.072776	-475.063719	-475.062775	-475.107881	30.987	
C	 0.0633245542	 1.3955085648	 0.123009731	-0.24117
O	-0.0385633663	-0.0326159393	 0.2173115588	-0.229913
C	-1.2618227556	-0.5384448763	-0.007290079	 0.457126
O	-2.2428529831	 0.1273138286	-0.2312500894	-0.365008
C	-1.2231179726	-2.0446575523	 0.0156035469	-0.283109
C	-2.5963061791	-2.7610622408	 0.0619033425	-0.171572
N	-2.2852333282	-3.3193624093	-1.260267747	-0.318417
C	-1.0828736402	-2.6893907971	-1.4165821303	 0.424737
O	-0.2695187182	-2.6512985558	-2.294800609	-0.344158
H	 1.1101179298	 1.6296961245	 0.314459994	 0.137863
H	-0.230013739	 1.7348947156	-0.8731823367	 0.147153
H	-0.5801639491	 1.8760637327	 0.8640991574	 0.141256
H	-0.4655871592	-2.4109372608	 0.7080689223	 0.126887
H	-2.7017333162	-3.512139149	 0.849617999	 0.116408
H	-3.4415266491	-2.0698997083	 0.0674311553	 0.143541
H	-2.8309751781	-3.8669336973	-1.9087555157	 0.258375
