16
gdb 72016	2.5868	1.98976	1.48466	3.7415	68.	-0.2408	-0.022	0.2188	898.7724	0.125343	-437.828883	-437.821939	-437.820995	-437.86001	27.895	
O	-0.0162130426	 1.4268363439	-0.0608700001	-0.473631
C	 0.0386788602	 0.0469087334	-0.0741735272	 0.388724
C	 0.430919995	-0.8410147211	-1.2561159928	-0.247598
N	-0.3387932825	-1.9369569682	-0.5460847846	-0.148105
C	 0.5601168216	-2.1403966677	 0.6481001155	-0.17383
C	 0.4274074515	-0.7402864875	 1.2736170794	-0.25549
C	-1.0883190149	-0.7664711198	 1.5372298804	 0.444415
O	-1.8061364588	-0.5768019658	 2.472089697	-0.315862
C	-1.2631285581	-0.8361003775	 0.0256385422	-0.165963
H	 0.8208321972	 1.7756761879	 0.2636944788	 0.292157
H	-0.0885520085	-0.5518896796	-2.1725355643	 0.123497
H	 1.4784312842	-1.0721472396	-1.4738934766	 0.101801
H	 0.1815615276	-2.942668776	 1.288190188	 0.123185
H	 1.5672888391	-2.4012046833	 0.3166996449	 0.11311
H	 1.1504268973	-0.3692947698	 1.9973013147	 0.087319
H	-2.1826515684	-0.6780177092	-0.5305572853	 0.10627
