15
gdb 28110	5.26751	1.30239	1.05103	3.9603	75.81	-0.193	0.0082	0.2012	1087.6982	0.115428	-416.85508	-416.847998	-416.847053	-416.886512	27.164	
C	 0.0997303507	 1.4498828695	 0.0367205678	-0.48947
C	-0.0809087688	-0.0240546476	 0.0098099183	 0.36216
C	-1.1876562101	-0.8082713475	-0.1929609249	-0.443162
C	-0.7002445485	-2.1472233123	-0.0974952545	 0.296032
C	 0.6469300334	-2.0650036389	 0.1526573695	 0.348522
O	 1.058681014	-0.7757919659	 0.2243908071	-0.231395
N	 1.2697132621	-3.2592389598	 0.2737617728	-0.352265
C	 0.2763062975	-4.1149140044	 0.0926845205	-0.013379
N	-0.9407799479	-3.5033274131	-0.1367405971	-0.403473
H	 0.8071302566	 1.7820785416	-0.7319555739	 0.140987
H	-0.8579507422	 1.9437856483	-0.1423473918	 0.133021
H	 0.4865586497	 1.7900830306	 1.0042977688	 0.140969
H	-2.1848571083	-0.4427310416	-0.3791660417	 0.111286
H	 0.3707331378	-5.1896109064	 0.1143014899	 0.132507
H	-1.8145901659	-3.9744762426	-0.2939203008	 0.267657
