20
gdb 14268	2.8248	2.54701	1.73623	0.2075	79.34	-0.2341	0.0376	0.2717	843.1304	0.180654	-311.875313	-311.868677	-311.867733	-311.90562	27.634	
C	 0.0294193812	 1.4826184298	-0.3519576376	-0.230416
C	 1.5295593893	 1.4992170696	 0.0595337216	 0.0045
C	 1.26995089	 0.2109713459	 0.8920289211	-0.230418
C	-0.0287974977	-0.0146974465	 0.0659856449	 0.0045
C	 0.1335900782	-0.9921960062	-1.095199522	-0.25753
C	 1.2918213436	-0.7821308078	-2.035418199	-0.045709
C	 2.2495279815	 0.1482611695	-2.0393825293	-0.045712
C	 2.4970014155	 1.3038085955	-1.1049814103	-0.25753
H	-0.5793268107	 2.1120261292	 0.3029916938	 0.091458
H	-0.2098740579	 1.72450401	-1.3918034554	 0.094379
H	 1.848519625	 2.3734091235	 0.6350889833	 0.058622
H	 2.0318369726	-0.5734330919	 0.856153569	 0.09438
H	 1.0519697075	 0.4398127657	 1.9388337291	 0.091458
H	-0.9093872651	-0.3058458028	 0.6465073751	 0.058622
H	 0.2056707861	-2.0140255258	-0.6912903143	 0.102915
H	-0.7919505199	-0.9913019442	-1.6917308013	 0.102916
H	 1.3328599596	-1.5229245709	-2.8335599045	 0.078867
H	 2.9854204364	 0.0825012576	-2.8403994364	 0.078867
H	 2.5203391237	 2.2265116086	-1.705439711	 0.102916
H	 3.5180281409	 1.2038592012	-0.7049950168	 0.102915
