21
gdb 59208	3.32038	1.20215	1.08143	1.6934	81.97	-0.2338	0.0026	0.2363	1223.4453	0.182197	-387.04556	-387.037073	-387.036129	-387.078517	33.5	
C	 0.0084487046	 1.490511566	-0.11473029	-0.395473
C	 0.0358729483	-0.0306717556	 0.0989379947	 0.010885
C	 0.7307732361	-0.3778885144	 1.4244383923	-0.395474
C	-1.3784046196	-0.6072132326	 0.0627639025	 0.043383
C	-2.0737132991	-0.7244595087	-1.342757487	-0.005222
O	-1.2580373758	-1.9183169582	-1.5851167099	-0.286457
C	-1.5199254342	-2.1570234248	-0.162516186	-0.00523
C	-3.0475630001	-2.3305079317	-0.1500890798	-0.083547
C	-3.4293086944	-1.3429819507	-0.9636593591	-0.083549
H	 1.022291746	 1.9037422082	-0.1059709884	 0.112452
H	-0.4508708803	 1.7582737281	-1.0714571821	 0.111884
H	-0.5593163519	 1.989774161	 0.6798847305	 0.11037
H	 0.5999310573	-0.4885098468	-0.7215360438	 0.090813
H	 0.7932261788	-1.459597989	 1.5793589932	 0.111886
H	 1.7505392078	 0.0200208141	 1.4458960484	 0.112452
H	 0.1901116278	 0.0511166109	 2.2768898146	 0.110369
H	-1.997824552	-0.1875931687	 0.8627391116	 0.065874
H	-2.0116132381	 0.0333907366	-2.1229496158	 0.077754
H	-0.8756597618	-2.9051665454	 0.2980229696	 0.077753
H	-3.6195555401	-3.0628924011	 0.3997800681	 0.109539
H	-4.4090978892	-1.0204484674	-1.2828832336	 0.109538
