18
gdb 41184	3.06444	1.79857	1.5975	1.365	77.17	-0.2139	0.0091	0.223	905.7069	0.149083	-401.800257	-401.793613	-401.792669	-401.830718	28.401	
C	-0.0518536734	 1.5780435381	-0.0841136628	-0.168921
O	 1.4286843635	 1.5405867059	 0.0815273133	-0.361446
C	 1.2112937603	 0.261139187	 0.8097908709	 0.349228
C	 1.3976019582	-1.3024329344	 0.7753443137	-0.268618
N	-0.160090957	-1.3434737031	 0.7940265891	-0.173833
C	-0.6624947003	-1.1989704645	 2.1705479072	-0.210681
C	 0.0317111573	-0.0918221522	 2.9298116398	-0.07082
C	 0.9450989249	 0.6059399592	 2.2608021219	-0.120688
C	-0.007910666	 0.0165404237	 0.0353159319	 0.006472
H	-0.5208781867	 2.1265016665	 0.7361967149	 0.12151
H	-0.3319027815	 1.9877730691	-1.0568636665	 0.11945
H	 1.7491490974	-1.7190582944	-0.1691920688	 0.124594
H	 1.8715868897	-1.7847555753	 1.6338090372	 0.114861
H	-1.7459259072	-1.0321083007	 2.1161580427	 0.119779
H	-0.5307471244	-2.1621731824	 2.6825758684	 0.116757
H	-0.2066184251	 0.0835529295	 3.9750944741	 0.094609
H	 1.5191934553	 1.4255763541	 2.680559665	 0.103567
H	 0.2347328751	-0.3168484763	-0.976329502	 0.10418
