17
gdb 41371	2.55314	1.94245	1.83742	1.6493	71.3	-0.248	0.0008	0.2488	868.3232	0.137398	-421.776049	-421.769358	-421.768414	-421.806832	27.257	
C	 0.0700299576	 1.4169692559	 0.3021207658	-0.147095
O	 1.4171843858	 1.5528301412	-0.2503595214	-0.338755
C	 1.403384947	 0.1639644752	-0.6644185389	 0.330508
C	 1.8847615778	-0.8225337872	 0.4268773834	-0.146649
O	 0.508794365	-0.9938089057	 0.8942031436	-0.338813
C	 0.0224931281	-0.072208774	-0.1049471888	 0.34581
C	-0.8739750667	-0.6201494031	-1.2144195829	-0.36314
C	 0.0854406054	-0.6021415968	-2.4041956433	-0.050299
C	 1.3227653477	-0.1727680075	-2.115845208	-0.183511
H	 0.0437733498	 1.6022174881	 1.3806165191	 0.113636
H	-0.6397925158	 2.0757122218	-0.2123285486	 0.105705
H	 2.3067505365	-1.7701714919	 0.0748578663	 0.108244
H	 2.5303192032	-0.3780570022	 1.1908737889	 0.113281
H	-1.2118959183	-1.6353008886	-0.9769172039	 0.129319
H	-1.7703918889	-0.0166665757	-1.4018966435	 0.111359
H	-0.2331086535	-0.9257897126	-3.3908121522	 0.104446
H	 2.1388022392	-0.0942159068	-2.8244958259	 0.105954
