16
gdb 22462	3.40288	0.78439	0.64243	0.6728	82.66	-0.2456	-0.0365	0.209	1644.6355	0.120058	-400.639605	-400.62965	-400.628706	-400.675143	35.658	
O	-0.0857624293	 1.4274277462	 0.0105948768	-0.392437
N	 0.071573049	 0.0496868257	 0.00164899	-0.151532
C	-1.0484170823	-0.5807454495	 0.0090006737	 0.165384
C	-1.0185126722	-2.0927917077	 0.0004580019	-0.277535
C	 0.3979618396	-2.6958702948	-0.0163442876	-0.370816
C	 0.3639694085	-4.1529982109	-0.0241004226	 0.282493
C	 0.3110290333	-5.3537821875	-0.0298797686	-0.420434
C	-2.3266569852	 0.0500904093	 0.0246252683	 0.322322
C	-3.4351662136	 0.5190993125	 0.0377561836	-0.43187
H	 0.825802898	 1.7406625153	 0.0035258985	 0.310444
H	-1.5673157274	-2.4578182356	 0.8766242593	 0.137716
H	-1.5839569211	-2.4482883814	-0.8690207395	 0.137722
H	 0.9423880182	-2.3267116086	-0.8922991693	 0.144423
H	 0.9589981428	-2.3363102299	 0.8531018458	 0.144433
H	 0.2792873081	-6.4149254451	-0.0344679628	 0.192303
H	-4.4045819863	 0.9534633321	 0.0493618825	 0.207382
