22
gdb 104310	2.85013	1.27338	1.19328	0.1616	81.01	-0.234	0.0698	0.3038	1186.2177	0.194849	-404.342365	-404.333321	-404.332377	-404.375664	35.572	
C	 0.086104942	 1.5412681249	-0.0004974139	-0.407011
C	-0.014794077	 0.0116293022	 0.001594328	-0.213874
C	-1.4483903383	-0.5353052973	-0.0159233369	 0.414708
O	-2.1529843359	-0.1882297128	 1.1837606591	-0.492865
C	-2.2696756955	-0.134784804	-1.2738026895	-0.267805
C	-3.3076172842	-1.2644908039	-1.473505385	-0.214778
C	-2.6139431216	-2.4919524211	-0.9138710547	-0.028945
N	-1.2097260737	-2.6212558767	-1.374703312	-0.354403
C	-1.502167378	-2.0563070725	-0.0410317719	-0.058587
H	 1.1318840398	 1.86172837	 0.0225005391	 0.117898
H	-0.3733211032	 1.9784105172	-0.8930509667	 0.120725
H	-0.3991656987	 1.9810824202	 0.8790805247	 0.104385
H	 0.5113508125	-0.3981688584	-0.8676591739	 0.112916
H	 0.4851068211	-0.3825076651	 0.8948781907	 0.093123
H	-2.217632675	 0.7713099892	 1.2182594431	 0.276309
H	-2.7378451125	 0.8457044359	-1.1477818033	 0.083439
H	-1.6076145389	-0.0792053499	-2.1409408186	 0.115813
H	-4.2116185085	-1.0712590408	-0.8859736543	 0.105587
H	-3.6032229398	-1.3766306918	-2.5212796204	 0.097521
H	-3.1786885168	-3.3953183072	-0.7074782007	 0.08189
H	-0.9116637811	-3.5868914911	-1.2630301781	 0.230056
H	-1.2100803264	-2.5946329272	 0.8546290353	 0.083896
