21
gdb 117388	3.15512	0.74418	0.65379	1.1861	79.49	-0.239	-0.0106	0.2284	1757.0505	0.180421	-424.225597	-424.215252	-424.214308	-424.263031	36.453	
O	-0.46318184	 1.0280062927	 0.999271725	-0.426081
C	-0.1293000008	-0.1393131149	 0.2615165503	-0.073343
C	-1.4089351694	-0.9404898643	 0.0813717788	-0.292174
C	-1.21722101	-2.2212638285	-0.7074977534	 0.37839
O	-0.1463595427	-2.530241797	-1.1829740945	-0.316891
C	-2.4308894562	-3.1381324682	-0.847517324	-0.311709
C	-2.3445010806	-4.2814220805	 0.1523811991	 0.039793
C	-2.908367244	-4.1379891401	 1.5453738661	-0.257694
C	-3.5796492077	-5.0481296251	 0.5456173043	-0.278796
H	 0.3381373512	 1.5472349701	 1.1120582258	 0.286953
H	 0.2914131575	 0.1063622717	-0.723611072	 0.102664
H	 0.6184122219	-0.752440936	 0.7848497509	 0.10051
H	-1.8441902261	-1.1894936046	 1.0584111937	 0.134229
H	-2.1675957289	-0.3270741844	-0.4241312092	 0.130744
H	-3.3620292652	-2.5808460243	-0.6965010309	 0.097416
H	-2.4282631465	-3.5380305048	-1.8673269868	 0.123377
H	-1.4281995927	-4.8576697711	 0.0643852839	 0.103956
H	-2.3662789973	-4.585456787	 2.3708824929	 0.116932
H	-3.4150012391	-3.2123086081	 1.799707861	 0.112716
H	-4.5292292266	-4.7283371743	 0.1290203164	 0.112688
H	-3.4954904767	-6.1202579713	 0.6844846425	 0.116319
