16
gdb 60872	2.63419	1.35629	1.02773	1.8855	69.49	-0.2749	-0.0516	0.2233	1145.116	0.121232	-437.877855	-437.868599	-437.867654	-437.912557	32.434	
C	-0.0926079977	 1.5934157492	 0.2610127643	-0.433857
C	-0.022849018	 0.0814504958	 0.0114351718	-0.153157
C	 0.7987430915	-0.6047815488	 1.1089384621	 0.149655
O	 1.3569507687	-1.6606755328	 0.9672993773	-0.246339
C	-1.4113103944	-0.5639352417	-0.0435762956	 0.24637
C	-1.6335643164	-2.0025443324	 0.2053420753	-0.211236
O	-1.9459062845	-1.0266954325	 1.2035254345	-0.253672
C	-2.3690422678	 0.118910202	-0.8997505112	 0.267828
N	-3.1003327643	 0.674804632	-1.6011879411	-0.331177
H	 0.914406957	 2.0180619741	 0.3102377817	 0.132387
H	-0.6354412932	 2.1019768451	-0.5387412782	 0.157023
H	-0.5995459469	 1.8099771047	 1.2070546627	 0.142031
H	 0.475884087	-0.1287535693	-0.9418479486	 0.127796
H	 0.8546736631	-0.0436256826	 2.066011486	 0.100396
H	-2.4937535953	-2.4857102111	-0.2518851101	 0.144136
H	-0.7700766887	-2.6289527815	 0.4118680591	 0.161816
