22
gdb 90095	2.72705	1.44026	1.27302	1.9501	88.02	-0.2031	0.057	0.2601	1138.6253	0.194286	-367.057944	-367.049453	-367.048509	-367.090441	34.155	
C	-0.0775090727	 1.6553759639	-0.0538870029	-0.409438
C	 0.0180744972	 0.1339804723	-0.0118853562	-0.018306
C	 0.9404510288	-0.6006067466	-1.1010594492	-0.360791
C	 1.8451707001	-1.0063902419	 0.0911989077	 0.23716
C	 2.4499263165	-1.9724364663	 1.1634266365	-0.268636
N	 2.0785389037	-0.7083495118	 2.0078381958	-0.199364
C	 2.6565627453	 0.0987555421	 0.8344236648	 0.087854
C	 4.1636244786	 0.2499275167	 0.7187776875	-0.449892
C	 0.769979028	-0.7477413447	 1.0967838293	 0.00575
H	 0.8867339332	 2.1483587643	-0.1975479341	 0.123228
H	-0.7217809125	 1.9635003638	-0.8855409328	 0.115424
H	-0.5210857677	 2.0433057394	 0.8689123326	 0.126367
H	-1.0037412803	-0.2561010525	-0.0495904172	 0.087856
H	 0.4143172608	-1.428211555	-1.5838928916	 0.107137
H	 1.3942474076	 0.031519815	-1.870788611	 0.100152
H	 1.8566899862	-2.8539620305	 1.4182206811	 0.104446
H	 3.5163775465	-2.2020344161	 1.1854759033	 0.102617
H	 2.2127692541	 1.0941421133	 0.8261084067	 0.072885
H	 4.7023437819	-0.690482952	 0.5861168794	 0.118833
H	 4.4027104867	 0.8901367816	-0.1373838663	 0.11645
H	 4.5547863924	 0.7392972492	 1.6176798021	 0.129555
H	 0.1294457557	-1.5685670741	 1.4278223147	 0.070713
