13
gdb 3312	6.58125	1.94869	1.75196	3.1831	54.12	-0.2437	-0.0274	0.2163	704.1266	0.100985	-344.415609	-344.409456	-344.408512	-344.446015	22.135	
O	-0.0396751005	-0.0491732803	-0.0877700208	-0.254628
C	 0.0169945636	 1.129838895	 0.1591984254	 0.154224
C	 1.2689759597	 1.9605144762	 0.0501898893	-0.104916
C	 1.2230897743	 3.219525595	-0.9067659504	-0.276737
C	 1.5007648701	 4.1060379198	 0.3133296579	 0.040978
O	 0.443612625	 3.8706117774	 1.2500405143	-0.236805
C	 1.5334923932	 2.9454236225	 1.2156330063	 0.004447
H	-0.878677746	 1.6975292367	 0.4903796533	 0.094965
H	 2.1206724241	 1.3135315573	-0.1670606519	 0.100858
H	 2.0357475552	 3.1935243911	-1.6349280561	 0.123695
H	 0.277927518	 3.4197472097	-1.4172666856	 0.122845
H	 2.0036400594	 5.063753527	 0.3683353664	 0.11479
H	 2.066110284	 2.7645784326	 2.1416146018	 0.116285
