19
gdb 96651	3.17876	1.14332	0.85901	1.5134	83.34	-0.2379	-0.015	0.2229	1350.928	0.157843	-419.243203	-419.233394	-419.23245	-419.27923	34.057	
C	-0.1011412341	 1.386978542	-0.0616279383	-0.31969
N	-0.022869712	-0.0614674701	-0.0012782517	-0.274667
C	 0.5813164491	-0.5970543441	 0.9838756819	 0.362794
C	 1.2526561324	 0.102801435	 2.1416557181	-0.517886
N	 0.6291843348	-1.9890429274	 0.9961392308	-0.134385
C	 0.0713201858	-2.9314603442	 0.0164242599	-0.157902
C	 0.6306391644	-4.0843899235	 0.896305706	-0.374942
C	 1.1552097533	-2.978139127	 1.8282574593	 0.419411
O	 1.770272149	-2.9290898254	 2.8600606328	-0.358995
H	 0.8902566078	 1.8613402923	-0.1034787561	 0.11644
H	-0.6465473269	 1.6774882958	-0.9629370775	 0.125062
H	-0.6297299911	 1.8167146766	 0.8018351417	 0.116492
H	 0.524092244	 0.7279043196	 2.668944069	 0.143309
H	 1.6915987502	-0.6058535269	 2.8424886782	 0.176401
H	 2.0350037839	 0.7712957953	 1.7666230192	 0.143334
H	-1.0163306459	-2.8719456257	-0.0625482743	 0.129079
H	 0.5136781391	-2.8273258884	-0.9766714953	 0.12908
H	-0.1140177531	-4.7365149864	 1.3561523341	 0.138534
H	 1.4154760193	-4.6919671473	 0.4423051121	 0.138534
