14
gdb 46829	2.71924	1.66353	1.18268	4.0587	68.97	-0.2478	-0.0117	0.2361	1007.9507	0.10051	-436.664578	-436.656904	-436.65596	-436.696735	28.982	
O	-0.0402363111	-0.0357639603	-0.0580949387	-0.356337
C	-0.0320369864	 1.1703764426	-0.0221895127	 0.361549
N	-1.1110865184	 1.9989562122	 0.1394184076	-0.335438
C	-0.8434345935	 3.4259521596	 0.082552787	-0.19042
C	 0.6710729416	 3.4782609456	-0.0345597309	-0.045802
O	 1.3400921517	 2.8805822315	 1.0649974734	-0.283415
C	 1.1837003583	 2.0965649931	-0.1490199632	 0.149918
C	 2.3585271741	 1.6829637074	-0.845452696	 0.226625
C	 3.3334078398	 1.3130624022	-1.4413443953	-0.367297
H	-2.0097650613	 1.613974805	 0.3813176349	 0.260953
H	-1.314435927	 3.8972782566	-0.7896936953	 0.123094
H	-1.1865409233	 3.9454015037	 0.9853148077	 0.132751
H	 1.162579536	 4.3268875253	-0.4994837994	 0.123411
H	 4.1975855493	 0.9810193656	-1.9624245892	 0.200408
