22
gdb 113788	3.3146	0.98025	0.92752	2.4833	83.47	-0.2271	0.0661	0.2932	1409.207	0.193631	-404.312394	-404.302857	-404.301913	-404.346903	36.633	
C	-0.1369780955	 1.545309993	 0.1263293125	-0.376795
C	 0.4855902753	 0.17800149	-0.177912919	-0.20239
C	 0.8885807802	-0.5551539304	 1.0827037473	 0.015273
N	-0.1711287439	-1.2177375031	 1.8729906258	-0.364831
C	 0.8925132862	-2.0347565587	 1.260034064	-0.128002
C	 0.4012688835	-3.0252892007	 0.2370644327	 0.460264
O	-0.8419508156	-2.700030088	-0.31493088	-0.471476
C	 1.3635210289	-3.7052290395	-0.6856236914	-0.311184
C	 0.7113315305	-4.4925910084	 0.43719831	-0.326745
H	 0.5599566733	 2.1911252667	 0.6731663428	 0.106308
H	-0.4185876024	 2.0651040527	-0.7943307203	 0.112627
H	-1.0368119076	 1.4310455402	 0.7391808757	 0.12408
H	-0.2099386463	-0.4412148829	-0.7482817206	 0.127923
H	 1.3806022392	 0.3050984887	-0.8006398885	 0.0953
H	 1.644745122	-0.0312854663	 1.669917918	 0.079416
H	-0.0326056876	-1.1014843192	 2.8716169267	 0.23552
H	 1.6637026575	-2.4320764144	 1.9178330942	 0.081648
H	-1.3217487095	-2.2578227562	 0.4031910893	 0.287388
H	 1.0128817897	-3.8898617187	-1.6947285648	 0.12449
H	 2.4186772968	-3.4643609152	-0.6081165277	 0.109033
H	 1.3234553532	-4.7958979208	 1.2808823534	 0.103273
H	-0.0727495478	-5.1890252487	 0.1638596299	 0.11888
