16
gdb 51322	4.55422	0.94545	0.80951	3.6194	68.54	-0.2519	-0.0261	0.2259	1348.4535	0.124423	-475.048487	-475.040357	-475.039413	-475.081994	28.992	
O	 0.1266397892	-0.0543904007	-0.0306987385	-0.25289
C	 0.0394868175	 1.1227787831	 0.1196793089	 0.175252
O	 1.0871134525	 1.9519747749	-0.206784079	-0.228217
C	 0.9094139451	 3.3156589194	-0.1442992386	 0.400838
N	-0.2323476013	 3.8453097708	-0.1853367626	-0.300197
C	-0.2910325573	 5.3036854882	-0.0786422231	-0.154646
C	 0.9898181449	 5.9145609602	 0.4821071729	-0.095716
O	 2.1182665747	 5.4056498979	-0.2163110912	-0.239673
C	 2.2437927697	 4.0150719298	-0.0474403185	-0.17252
H	-0.8187810149	 1.6735766821	 0.5243433903	 0.131191
H	-0.4995382411	 5.7066342312	-1.0773576379	 0.128663
H	-1.1469311277	 5.5669950936	 0.5533770414	 0.117579
H	 1.0045702729	 6.9993524148	 0.3505092255	 0.121171
H	 1.0774326169	 5.6959634127	 1.5591675368	 0.097529
H	 2.7076949416	 3.7569538206	 0.9208278412	 0.121698
H	 2.9060876674	 3.6409550213	-0.8342958976	 0.149936
