15
gdb 5264	7.3215	1.12737	0.98909	1.0283	62.94	-0.2392	0.007	0.2463	1138.1036	0.119225	-399.813942	-399.80637	-399.805426	-399.846849	26.059	
C	-0.0005418789	 1.3964962239	 0.0326164726	-0.223608
O	 0.0001724396	-0.0109346905	-0.0034159887	-0.234926
C	 0.6598222487	-0.5854460948	 1.1002683662	-0.167523
C	 0.605847618	-2.0696385818	 0.9651856341	 0.225642
C	 0.0470775072	-2.8239921934	-0.0098317997	-0.090327
O	 0.2546523129	-4.1415082985	 0.3063146817	-0.141431
C	 0.9361712186	-4.1002833322	 1.4701791239	 0.073006
N	 1.177716864	-2.9112500345	 1.9156395322	-0.31216
H	 1.0220732147	 1.8053074801	 0.0216539952	 0.108142
H	-0.5303848763	 1.7449963047	-0.8568220933	 0.129701
H	-0.5143985575	 1.7813548489	 0.9275051744	 0.108143
H	 1.7105829283	-0.2510916617	 1.1526345804	 0.108697
H	 0.1876400326	-0.2773751923	 2.0493474302	 0.108743
H	-0.4886260971	-2.614941511	-0.9173019215	 0.15791
H	 1.2091905154	-5.0473097769	 1.9084842623	 0.149992
