21
gdb 101445	2.76324	1.09566	0.87984	2.1407	74.68	-0.247	0.0485	0.2955	1384.4072	0.181092	-461.340824	-461.330932	-461.329988	-461.375923	36.338	
C	 0.0840166783	 1.5116442785	-0.0446699287	-0.386464
C	 0.0022261641	-0.0129482907	 0.0609842289	-0.201402
C	 0.7567286061	-0.576991557	 1.2615273973	 0.107351
O	 0.2388472264	-0.1040963065	 2.5172565369	-0.442036
C	 0.7662258579	-2.10308192	 1.2861472045	 0.072071
O	 1.5528131895	-2.679683204	 0.222160411	-0.296927
C	 2.4884512707	-3.2611082168	 1.1643851866	-0.08346
C	 1.677941352	-2.7434128091	 2.3660666085	 0.066406
O	 2.393962985	-1.865944467	 3.1962150588	-0.438835
H	 1.1184415844	 1.8389597909	-0.1941780311	 0.120258
H	-0.5087664967	 1.8818463772	-0.8861362579	 0.11315
H	-0.2843209288	 1.9859479284	 0.8694349722	 0.123988
H	-1.0490763607	-0.3327492395	 0.1241368088	 0.082305
H	 0.4119227008	-0.4866027792	-0.8387473822	 0.126891
H	 1.7939294626	-0.2279302777	 1.2462340329	 0.105555
H	-0.6972001122	-0.3333168993	 2.5562991381	 0.28453
H	-0.2670907612	-2.4845671594	 1.2666275232	 0.059835
H	 2.5551887535	-4.3483022219	 1.049478227	 0.103864
H	 3.4862558394	-2.8149602381	 1.0899333718	 0.114388
H	 1.1836901423	-3.5341573666	 2.9459194176	 0.073039
H	 1.7599906565	-1.209733462	 3.5184248856	 0.295494
