16
gdb 29595	3.1105	1.23537	0.97475	1.1979	76.18	-0.1955	0.0244	0.2198	1187.8286	0.12427	-400.734294	-400.725823	-400.724879	-400.767473	32.113	
N	 0.2025234605	 1.3542970585	 0.2597763821	-0.615267
C	 0.0590324197	-0.029410645	 0.098252646	 0.124752
C	-1.0724890881	-0.7729163927	-0.0588363762	-0.081674
O	-0.7517980834	-2.0879174446	-0.2771645312	-0.150145
C	 0.5961957716	-2.1716271256	-0.2452984303	-0.103984
C	 1.1593408875	-0.9540234017	-0.0267893173	 0.220415
C	 2.624180879	-0.6140605305	 0.0364001608	-0.476291
C	 3.0123336329	 0.0482710361	 1.2837562497	 0.306293
C	 3.3058389476	 0.6130088697	 2.3041586173	-0.460976
H	 0.9413901148	 1.5855004523	 0.9145879	 0.252249
H	-0.6555156118	 1.8097001673	 0.5423502758	 0.241345
H	-2.1229641837	-0.5368078	-0.0528801234	 0.121589
H	 1.0162975269	-3.1535707873	-0.393325746	 0.132232
H	 3.218120854	-1.5266642731	-0.0908244154	 0.139805
H	 2.891220095	 0.0433300457	-0.802911903	 0.149391
H	 3.5840225777	 1.0920394309	 3.2101888112	 0.200265
