18
gdb 89333	1.90223	1.74486	1.10816	4.1843	78.38	-0.2429	0.0197	0.2625	1141.3087	0.146698	-401.939771	-401.930878	-401.929934	-401.973073	33.539	
C	-0.1101255855	 1.5753296494	 0.064845727	-0.41277
C	 0.0461168505	 0.061417065	 0.0091821007	-0.0331
C	 1.1265283747	-0.5545627942	-0.9467462243	-0.296927
C	 1.7814002509	-1.2621606675	 0.230504482	 0.385531
O	 2.2474730142	-2.5408179368	 0.0735138006	-0.442454
C	 2.2006436469	-0.3071093701	 1.2860985058	-0.402428
C	 0.7107475088	-0.6512167504	 1.205502326	 0.123429
C	 0.0279344765	-1.2378007385	 2.3038912049	 0.17755
N	-0.5340139399	-1.7368032646	 3.186540399	-0.357629
H	 0.8406196518	 2.0783374409	 0.2692987785	 0.116693
H	-0.4875047806	 1.9577018365	-0.8893834056	 0.123451
H	-0.818754377	 1.8660280099	 0.8468671094	 0.132197
H	-0.9236479026	-0.4020680609	-0.1885705437	 0.099362
H	 0.6958932627	-1.2624540957	-1.6567158149	 0.126988
H	 1.7685199846	 0.148821867	-1.4865994227	 0.106432
H	 2.8015720692	-2.7814099603	 0.8233343642	 0.297963
H	 2.695507636	-0.7538302148	 2.1447806138	 0.131821
H	 2.5453174789	 0.6988279052	 1.0550705594	 0.12389
