17
gdb 69196	2.38055	1.59198	1.13274	5.7222	77.12	-0.2402	-0.016	0.2241	1107.5801	0.135255	-418.004608	-417.996062	-417.995118	-418.037979	31.407	
C	 0.093523909	 1.5419268409	 0.1063394573	-0.486343
C	 0.0998478623	 0.0476516478	 0.002024454	 0.356383
C	-0.9306350964	-0.9032261843	 0.5272851055	-0.322844
C	 0.5195076426	-1.0088519605	 1.011839643	-0.283619
C	 1.3575148874	-1.6312512445	-0.0917085928	 0.450177
O	 2.1137782858	-2.5465521319	-0.1929518644	-0.322385
N	 0.9123822322	-0.6431880064	-1.019818278	-0.143523
C	 0.7545595572	-0.6204164015	-2.3941497897	 0.056511
N	 1.3346765696	-1.439335235	-3.1715694003	-0.418898
H	 1.1135092447	 1.9376355543	 0.0896676204	 0.140641
H	-0.4643062413	 1.9993499197	-0.7183998831	 0.132063
H	-0.3865419004	 1.8531555313	 1.0382980683	 0.134643
H	-1.6202904529	-0.5086191993	 1.2685066756	 0.128681
H	-1.3444222814	-1.6748850307	-0.1146129224	 0.134469
H	 0.8008745882	-0.8998536948	 2.049220793	 0.124334
H	 0.0938079667	 0.2010969939	-2.7033623668	 0.091924
H	 1.0937128564	-1.2303187792	-4.1388500195	 0.227787
