23
gdb 106373	3.59838	1.13857	1.08019	1.5162	85.12	-0.2399	0.0882	0.3281	1275.2133	0.206252	-388.289632	-388.280729	-388.279785	-388.322849	35.211	
C	-0.1802149179	 1.5495784113	 0.0264489631	-0.387802
C	 0.0470946311	 0.0348674735	 0.024269594	-0.289077
C	 0.8296785353	-0.4808866873	 1.2059960227	 0.439521
C	 2.1588927049	 0.1218835017	 1.7371823319	-0.284561
C	 1.5714119537	-0.4904306792	 3.0212802101	 0.073404
O	 0.2351295247	-0.1761994573	 2.5208470366	-0.334796
C	 1.6583393842	-2.0181390123	 2.7882446574	 0.038478
C	 0.8450428585	-2.8313655242	 3.7913045536	-0.411336
C	 1.0728043862	-2.004294	 1.3363806693	-0.28316
H	 0.7622100387	 2.0967364499	-0.0770059781	 0.113932
H	-0.8280679013	 1.8459864904	-0.8036956254	 0.109329
H	-0.6513547268	 1.8643678358	 0.9612369072	 0.137099
H	-0.9201128202	-0.4845207232	 0.0152766308	 0.107323
H	 0.5687768193	-0.2726682074	-0.891284691	 0.100166
H	 3.1079896764	-0.2580497603	 1.3484414735	 0.088454
H	 2.1409260432	 1.2116003931	 1.7563513744	 0.106026
H	 1.7726962936	-0.1009024076	 4.0201929544	 0.07093
H	 2.7025647109	-2.3496128929	 2.7960627754	 0.065267
H	-0.1813549542	-2.4546189684	 3.834741289	 0.130591
H	 0.8088565933	-3.8888239333	 3.5091529703	 0.110343
H	 1.2753266446	-2.7699007154	 4.7973945842	 0.106689
H	 0.1326389949	-2.5582683562	 1.2636805356	 0.100115
H	 1.7629481667	-2.3903501806	 0.5808320409	 0.093063
