21
gdb 84499	2.9711	1.36657	1.09605	1.9142	84.39	-0.238	0.0105	0.2485	1182.5128	0.182255	-387.087655	-387.078903	-387.077959	-387.120838	34.303	
C	-0.0013021956	 1.6248327584	-0.0660482919	-0.40542
C	 0.0628036975	 0.0935860413	-0.0317928648	-0.035571
C	 0.8469492289	-0.5206584644	-1.1746326272	-0.074143
C	 1.575664224	-1.5671116022	-0.7901310536	-0.157457
C	 1.4086055234	-1.8122790666	 0.6657443927	 0.436598
C	 1.2931627554	-3.1613724976	 1.2465446569	-0.251238
O	 2.4915528866	-2.4000160616	 1.4029934661	-0.286761
C	 0.7158903472	-0.5593383767	 1.2353960009	-0.121693
C	 1.7416976878	 0.3306585265	 1.9495366557	-0.385011
H	 0.9937620491	 2.0771809749	-0.0347438586	 0.12308
H	-0.4899239104	 1.9607887516	-0.9869842184	 0.111363
H	-0.5795640412	 2.0188494177	 0.775968108	 0.115109
H	-0.9733933161	-0.2709118609	-0.1022261378	 0.084661
H	 0.7672551321	-0.1494666433	-2.1912414801	 0.095601
H	 2.1940581833	-2.1992081627	-1.4162372412	 0.102748
H	 0.705998436	-3.3056676978	 2.1537412861	 0.110311
H	 1.3770317216	-4.0408910728	 0.6078296563	 0.108909
H	-0.0586550699	-0.8409106236	 1.9559055243	 0.070225
H	 2.5283402367	 0.6618578238	 1.2641097135	 0.121117
H	 1.2680732633	 1.2161572983	 2.3819031935	 0.108585
H	 2.2230557003	-0.2328107722	 2.7520294595	 0.128988
