14
gdb 98966	5.16071	0.73504	0.64601	7.6036	62.86	-0.2566	-0.0966	0.16	1594.6779	0.096824	-510.987937	-510.978123	-510.977179	-511.024627	32.076	
O	 0.228868239	 1.3158144247	 0.0105380123	-0.382851
C	-0.0053379991	-0.0622590731	 0.0010204712	-0.196273
C	-1.5197168368	-0.2946501223	 0.0148585194	 0.424683
O	-2.3399570709	 0.5754271172	 0.026770658	-0.261583
N	-1.8291612685	-1.6722780846	 0.0111964822	-0.410617
C	-3.094382733	-2.254301206	 0.0196794785	 0.341274
O	-4.1465218978	-1.6788791255	 0.0317897903	-0.270968
C	-3.0025717504	-3.799080198	 0.0114609221	 0.081891
O	-3.9761984241	-4.4920684775	 0.0163571499	-0.189958
H	 1.1794270164	 1.4607864646	-0.0092628901	 0.299422
H	 0.4056695171	-0.5600014682	-0.8950603492	 0.114515
H	 0.4246894828	-0.5752809895	 0.8795036147	 0.114136
H	-1.0451809055	-2.3101159571	 0.0013867176	 0.256581
H	-1.9717272592	-4.2297045946	 0.0005710531	 0.079749
