12
gdb 8996	7.3584	1.01222	0.92199	6.0333	59.8	-0.2812	-0.0824	0.1989	1152.8232	0.080299	-418.464859	-418.456674	-418.455729	-418.498405	27.406	
O	 0.2658231527	 0.1024533408	-0.113693286	-0.26498
C	 0.3789691921	 1.2806430608	-0.2418210018	 0.187719
O	 0.5752380454	 2.1047466893	 0.8185799858	-0.165158
C	 0.7633421358	 3.4748730217	 0.5405031879	-0.205434
C	 2.1325672667	 3.7576578792	-0.0847122086	 0.226392
O	 2.8323015618	 2.8778094213	-0.5269697163	-0.262661
C	 2.4891553913	 5.1605768744	-0.1299680617	 0.246711
C	 2.7496975715	 6.3354922519	-0.147425172	-0.38355
H	 0.3074877101	 1.8229944672	-1.2023845948	 0.085073
H	-0.0087876345	 3.8718571585	-0.135844718	 0.146693
H	 0.6691033255	 4.0097143228	 1.4889093159	 0.161738
H	 2.9999219816	 7.3690288421	-0.1741649103	 0.227455
