21
gdb 95878	2.5457	1.2684	1.0851	2.747	78.73	-0.2368	-0.0246	0.2121	1227.3518	0.182469	-424.24885	-424.239947	-424.239003	-424.282407	33.789	
C	-0.0469611773	 1.5677433307	 0.0093145472	-0.40405
C	 0.0238351882	 0.04060937	-0.0547273663	 0.029218
C	 0.8064463944	-0.4573447906	-1.2803068943	-0.197844
C	 0.8956155585	-1.9826750796	-1.2836635491	-0.089767
O	 1.4757160251	-2.4849418194	-0.0781894903	-0.250944
C	 0.824588626	-2.0848628076	 1.1009722594	 0.007675
C	 0.6657797056	-0.5518852272	 1.2106503181	-0.233038
C	-0.5092311568	-2.785706215	 1.3385803741	 0.157931
O	-1.066140987	-3.5217280504	 0.567712255	-0.245476
H	 0.956316034	 2.0039310549	 0.0814970829	 0.115629
H	-0.5237766965	 1.9778629887	-0.887137503	 0.114851
H	-0.6203381807	 1.9054925117	 0.8793885718	 0.11162
H	-1.002482907	-0.3486444034	-0.1319447724	 0.081057
H	 0.3292737688	-0.1188576842	-2.207765845	 0.095333
H	 1.8187561016	-0.0318016781	-1.261323667	 0.097918
H	-0.0960641334	-2.4264975902	-1.4330155901	 0.118677
H	 1.5501748104	-2.3381496329	-2.0842756904	 0.106962
H	 1.4691428162	-2.4227109319	 1.9270190052	 0.104189
H	 1.6630890062	-0.1176968597	 1.3495908293	 0.10872
H	 0.0806366814	-0.2996212982	 2.1035717359	 0.098904
H	-0.9464504576	-2.5580965376	 2.3417876491	 0.072435
