9
gdb 107	19.32586	2.84998	2.52198	0.4777	45.22	-0.2633	0.0345	0.2978	470.3666	0.065276	-192.736096	-192.730524	-192.72958	-192.764175	19.399	
C	-0.0478653981	-1.2249459022	-0.0040577385	-0.442494
C	-0.0074990859	-0.0254089728	 0.0019798973	 0.316516
C	 0.0253578888	 1.4380295789	 0.0095301156	-0.481697
C	 1.37953427	 1.9938244221	-0.000431744	 0.316539
C	 2.484608281	 2.4621179786	-0.0084700013	-0.442517
H	-0.0782401306	-2.2863303134	-0.0094381026	 0.202461
H	-0.5303977177	 1.8187347073	-0.8583480499	 0.164364
H	-0.5136639047	 1.8093294445	 0.8919158861	 0.164365
H	 3.4644066073	 2.871302697	-0.0155942129	 0.202463
