17
gdb 33001	4.27731	1.06561	0.91928	2.8416	78.31	-0.2406	-0.0331	0.2075	1279.5187	0.139117	-414.257069	-414.248915	-414.247971	-414.290856	29.424	
C	-0.004799625	 1.0010417279	 0.5518292669	-0.3728
C	-0.0845942142	 0.1649951136	-0.7288104267	-0.141724
N	-1.3292244763	-0.5766500883	-0.8588928112	-0.347075
C	-1.5600713951	-1.7949957635	-0.3307848328	 0.481338
N	-0.5542523553	-2.4267928316	 0.3068214072	-0.317437
C	-0.8750334467	-3.6280934997	 0.7691189958	 0.07958
N	-2.0584567444	-4.237249093	 0.6707758538	-0.270662
C	-2.9738375508	-3.5035629883	 0.0245328311	 0.082435
N	-2.8046649668	-2.2993943368	-0.4948640324	-0.324188
H	 0.9411964876	 1.5506891497	 0.5877093114	 0.119251
H	-0.8228386609	 1.7267052676	 0.6034559294	 0.115681
H	-0.0601641309	 0.3543005399	 1.4314385185	 0.139942
H	 0.0088462234	 0.806320983	-1.6111825727	 0.109408
H	 0.7343745195	-0.5568667371	-0.7548506517	 0.145329
H	-2.1361671261	-0.1328785801	-1.2680758539	 0.256707
H	-0.0864655705	-4.1718168288	 1.2870336024	 0.122061
H	-3.9632427776	-3.9446175946	-0.0850221053	 0.122155
