20
gdb 99116	2.89205	1.09114	0.93749	2.0143	75.77	-0.2432	0.0078	0.251	1337.3949	0.169462	-440.296145	-440.28614	-440.285196	-440.331957	35.529	
C	-0.817997294	-0.402024379	 0.8153716405	-0.240932
O	-0.2513941644	-1.56848341	 0.2019979242	-0.230384
C	 1.0479584128	-1.4590841285	-0.1580913524	 0.448506
O	 1.7114179699	-0.4725146905	 0.0362426604	-0.357853
C	 1.5081199062	-2.7153837081	-0.8715862672	-0.386124
C	 1.2117257024	-2.6232168189	-2.3699026592	 0.339564
C	 2.082690068	-1.6550069694	-3.1431580713	-0.446466
C	 0.6648523869	-3.83341499	-3.036976916	-0.288047
N	-0.2015958374	-2.6659603064	-2.7875825046	-0.344488
H	-0.2698321648	-0.1425640733	 1.7241914173	 0.142927
H	-0.783741552	 0.4476173909	 0.129014166	 0.144889
H	-1.8499044076	-0.6616924585	 1.0512097554	 0.133606
H	 2.583731366	-2.8200091692	-0.7065063269	 0.130098
H	 0.9964329093	-3.5801975701	-0.4413589345	 0.115611
H	 3.1265051416	-1.9883055797	-3.1459523566	 0.114604
H	 1.7356190819	-1.581175334	-4.1761577644	 0.126587
H	 2.053011107	-0.6564256744	-2.6963380384	 0.139276
H	 0.8880992149	-4.0189739994	-4.0844100443	 0.116925
H	 0.5217252025	-4.7314358917	-2.4408408476	 0.108298
H	-0.7962193492	-2.8335712698	-1.9792598206	 0.233402
