17
gdb 69203	2.78585	1.5705	1.15718	4.0694	75.29	-0.2437	-0.0563	0.1874	1070.9114	0.135784	-421.849877	-421.842033	-421.841089	-421.882065	30.232	
C	-0.0828283023	 1.5276454142	 0.058164416	-0.469301
C	-0.0400405535	 0.0172757898	 0.0528149318	 0.392419
C	-1.1262296345	-0.6821765845	-0.745737941	-0.344459
C	-1.236441346	-2.1582735826	-0.5010682187	-0.034582
C	-0.6462256948	-2.80614773	 0.5093759318	-0.169822
C	 0.1777177496	-2.1109152796	 1.5154199052	 0.405014
O	 0.4862181396	-2.6119032851	 2.579247505	-0.33659
C	 0.6067140255	-0.7107109358	 1.1700040926	-0.146905
O	 1.2561018703	-0.5557782343	-0.104885255	-0.281479
H	 0.7699537004	 1.9320451157	 0.6080082585	 0.137847
H	-0.0447869033	 1.9153742963	-0.965888798	 0.130159
H	-1.0053014917	 1.8908642404	 0.522646038	 0.127079
H	-2.0975226227	-0.2122092674	-0.5332609777	 0.129468
H	-0.9463486348	-0.5000498591	-1.8145695372	 0.131829
H	-1.8695509999	-2.7087113246	-1.1933583717	 0.112473
H	-0.7949449665	-3.8686251851	 0.6715163272	 0.114579
H	 1.0632881947	-0.1633786384	 1.9926982133	 0.10227
