14
gdb 124147	6.90352	0.76702	0.6937	2.4252	79.56	-0.234	-0.0432	0.1908	1569.7512	0.100866	-432.852562	-432.84394	-432.842995	-432.888092	29.994	
C	-0.0606855868	 1.4307273953	 0.0166222188	-0.515041
C	 0.0067365195	-0.0191235567	 0.0010147603	 0.353067
C	 0.0662211136	-1.2225606777	-0.0131425827	-0.137834
C	 0.1220938325	-2.6307892157	-0.0289585214	 0.265342
N	 1.178674737	-3.3965004478	-0.0709210588	-0.362899
C	 0.6179116275	-4.6507388845	-0.0682775918	 0.368384
N	 1.3908314342	-5.777540695	-0.1648784091	-0.603217
N	-0.6976198434	-4.6753688826	-0.0187825937	-0.187963
O	-1.0350487823	-3.3115192484	 0.0000367225	-0.209918
H	 0.9411446909	 1.8700926604	-0.0263498166	 0.164983
H	-0.6321615866	 1.8044520159	-0.8397917043	 0.165256
H	-0.5500355422	 1.7898289541	 0.9283881648	 0.164638
H	 2.3306077292	-5.6623760314	 0.1819205321	 0.268133
H	 0.9406846969	-6.6306999859	 0.13015957	 0.267067
