18
gdb 113745	2.62641	0.96562	0.78504	3.2665	72.92	-0.2559	0.0211	0.277	1447.0289	0.147535	-435.229009	-435.219174	-435.218229	-435.264688	34.816	
N	 0.3079063806	 1.3929415425	 0.1634978046	-0.50861
C	-0.1458765398	 0.0094692182	-0.0041477959	-0.124947
C	-1.6158220522	-0.040793804	 0.0500548725	 0.293087
N	-2.7694854794	-0.0992072115	 0.0555261057	-0.317857
C	 0.3501902966	-0.6659038989	-1.2829533193	-0.046573
N	 1.7651340622	-1.0534176933	-1.2556629698	-0.344544
C	 0.734888423	-2.0973637171	-1.3898516114	 0.01022
C	 0.6055600728	-3.1088017179	-0.2798926126	-0.089265
O	 1.429679804	-4.2106997644	-0.6272023663	-0.422295
H	 1.3235988347	 1.3885293784	 0.1120414065	 0.248051
H	-0.0240288608	 1.9615482017	-0.6114030398	 0.236607
H	 0.2335782059	-0.5557773005	 0.8534351832	 0.135951
H	-0.0401337068	-0.2014529596	-2.1883313594	 0.096936
H	 2.216189731	-0.8677341891	-2.1466238747	 0.240298
H	 0.6080512543	-2.5456728328	-2.3739135635	 0.102789
H	 0.9186090522	-2.6598720242	 0.6732880222	 0.095655
H	-0.4499410442	-3.4104558008	-0.1861711337	 0.103393
H	 1.3384485459	-4.8814951468	 0.0558822917	 0.291105
