19
gdb 97750	3.87943	0.79157	0.75992	1.5064	85.67	-0.2224	0.0507	0.2731	1599.9667	0.158343	-385.818183	-385.809093	-385.808149	-385.854328	32.79	
C	 0.032557604	 1.2952875431	-0.4830724197	-0.363104
C	-0.0939940787	 0.0847405493	 0.4599957523	-0.31659
C	-1.3970454183	-0.5678851235	 0.3911258135	 0.118988
C	-2.4781774081	-1.0975985807	 0.32572311	 0.058618
C	-3.7618880441	-1.7322513729	 0.2490316982	-0.251366
C	-4.4845648526	-2.0250284379	-1.0692189348	-0.146844
C	-3.4684474463	-2.5129675132	-2.0960259366	-0.094064
O	-2.986819387	-3.5404631488	-1.1827502033	-0.278052
C	-3.9642019531	-3.1572501725	-0.2256139174	 0.095725
H	 1.024555713	 1.7483408412	-0.3932037782	 0.112694
H	-0.1151734125	 0.9935235117	-1.5236714434	 0.125375
H	-0.7167645328	 2.0546738619	-0.2433736748	 0.126302
H	 0.6903265559	-0.6463866435	 0.2248282342	 0.130884
H	 0.0957728602	 0.4047230275	 1.4928739232	 0.127835
H	-4.4667619567	-1.4613812341	 1.0332794233	 0.111221
H	-5.488626407	-1.6768984316	-1.269349584	 0.103609
H	-3.9251723099	-2.9739282799	-2.9779442801	 0.111357
H	-2.6766124636	-1.8172550177	-2.3921811372	 0.117943
H	-4.439100662	-3.9346144083	 0.3626074247	 0.109468
