18
gdb 12862	2.87262	2.29899	1.78739	2.4647	66.2	-0.2413	0.0715	0.3128	819.0138	0.154784	-384.933756	-384.92653	-384.925586	-384.965127	28.352	
O	 0.0383177582	 1.4163165032	-0.3630988398	-0.483856
C	 0.0408402652	 0.0529676652	-0.0022855177	 0.392901
C	 0.4030231778	-0.9582613049	-1.1349368721	-0.290862
C	-0.9779505005	-1.6520518797	-0.9544756811	-0.25147
C	-1.3817804783	-0.57473902	 0.0983595683	 0.089997
O	-1.5788587237	-1.0270939905	 1.4221478109	-0.255067
C	-0.2929820068	-1.2984272509	 1.9730478717	-0.091697
C	 0.6407116656	-0.2255426155	 1.3890646235	-0.300788
H	 0.9528765712	 1.7038879329	-0.4573491835	 0.276101
H	 0.513198776	-0.4523358952	-2.0965057987	 0.105975
H	 1.2841526163	-1.581611272	-0.9583900144	 0.091731
H	-1.6062156679	-1.6766186691	-1.8468224953	 0.10545
H	-0.936364798	-2.6592945465	-0.5342818422	 0.108613
H	-2.2172248754	 0.0701350722	-0.1784209899	 0.088911
H	-0.3807118112	-1.2590741635	 3.0616326367	 0.113106
H	 0.0466760521	-2.3095417699	 1.6975150584	 0.091857
H	 1.6871360006	-0.5438355144	 1.363158132	 0.094889
H	 0.5649063888	 0.6971999086	 1.9717906134	 0.11421
