16
gdb 54582	3.70921	1.38459	1.17141	14.2083	70.14	-0.1723	-0.0155	0.1568	1030.8997	0.125731	-437.79076	-437.783556	-437.782611	-437.822858	27.756	
O	 0.177790416	 0.1849285743	-0.5661503764	-0.467002
C	 0.0438650924	 1.2536103438	 0.0343334938	 0.28197
O	 0.8075303123	 1.9959661874	 0.6853275577	-0.495439
C	-1.3859048009	 1.8560050701	-0.0171328596	 0.230974
C	-2.6941204891	 1.423869547	-0.6915892926	-0.305346
C	-3.189944308	 2.8536135338	-0.4120194988	-0.073736
N	-3.2839727768	 2.8626413258	 1.1352202649	-0.278215
H	-3.6283139368	 3.7531849847	 1.4937666561	 0.302525
H	-3.7932278369	 2.0885956885	 1.5702556868	 0.298141
C	-1.7690819243	 2.7954764391	 1.1187946238	-0.079265
C	-1.7010693025	 3.3307915586	-0.2735782711	-0.106289
H	-2.5297674257	 1.2718703335	-1.7589297304	 0.158107
H	-3.2778014818	 0.5870663119	-0.2894114361	 0.106341
H	-4.032946383	 3.3427700873	-0.8969821325	 0.117457
H	-1.1717358642	 2.9567886996	 2.0015572887	 0.170107
H	-1.1322348907	 4.1361803345	-0.7094133642	 0.139671
