14
gdb 49002	2.56693	1.64544	1.16014	2.5784	64.58	-0.2743	-0.0602	0.2141	1017.5377	0.099705	-473.784079	-473.776562	-473.775618	-473.816586	27.358	
N	 0.0386662153	 1.0912422386	-0.5221270004	-0.537267
C	-0.0082610738	-0.0711965221	-0.0703481369	 0.443141
O	 0.9930079794	-0.9071667659	 0.4189998997	-0.275106
C	 0.0658826682	-1.99486624	 0.6333808516	 0.274883
C	-0.6378608307	-1.9211190945	 2.0020604941	-0.132008
O	-1.6591726523	-1.0322179449	 1.4895491205	-0.27312
C	-1.116272175	-1.0864555555	 0.1619892495	-0.069381
C	 0.4708560882	-3.3007697585	 0.024396	 0.080225
O	 1.432838895	-3.4530723048	-0.6786010543	-0.231932
H	 0.9849808999	 1.4754830215	-0.5013005222	 0.242083
H	-1.0761520639	-2.8690049919	 2.3358144199	 0.123601
H	-0.0379426137	-1.4747992144	 2.800098378	 0.13755
H	-1.8537236499	-1.2817013475	-0.616119785	 0.126036
H	-0.2219524867	-4.1360551502	 0.2725576654	 0.091295
