18
gdb 99204	4.09517	0.61751	0.58637	2.4771	78.76	-0.2468	0.0403	0.2871	1950.866	0.14524	-439.101316	-439.090346	-439.089402	-439.140538	35.837	
C	 0.2912021105	 1.0356776353	-0.3806303694	-0.231859
O	-0.1869952564	-0.1467351329	 0.264206511	-0.265019
C	 0.6446221059	-0.6476551667	 1.2122528242	 0.526711
O	 1.717651323	-0.1685808067	 1.5057612011	-0.413267
N	 0.0749479158	-1.7435365297	 1.7897423555	-0.356173
C	 0.831914637	-2.5990692422	 2.6927479021	-0.299575
C	 1.0706078966	-3.9369326749	 2.1530326179	 0.070691
C	 1.2414062255	-5.0418983055	 1.7068132612	 0.046055
C	 1.4649091269	-6.3753062322	 1.1673114726	-0.495831
H	 1.2404137599	 0.8463552664	-0.888447153	 0.13903
H	-0.4779708129	 1.3082445763	-1.1040682842	 0.128559
H	 0.4356815367	 1.843178758	 0.3419102125	 0.138428
H	-0.7570062775	-2.1122808093	 1.3582407085	 0.255321
H	 1.7758542699	-2.077829926	 2.8793889901	 0.172626
H	 0.3109274556	-2.6757574422	 3.6562367185	 0.132821
H	 2.5294254046	-6.6336616355	 1.1766468707	 0.1523
H	 0.9319232445	-7.1366756861	 1.7472335018	 0.148664
H	 1.1176324445	-6.4445345862	 0.1305706088	 0.150519
