23
gdb 69317	2.69079	1.31222	1.24351	1.2124	84.64	-0.2492	0.0815	0.3307	1177.2323	0.205485	-388.300162	-388.290975	-388.290031	-388.332956	37.338	
C	 0.0118614342	 1.5435864315	 0.0025327602	-0.426617
C	 0.0026256323	 0.0096976262	 0.0074488083	 0.301177
C	-1.4492974731	-0.5039737149	 0.0027764418	-0.422835
C	 0.7887920999	-0.5771525693	-1.2047151449	-0.259882
C	 1.3384311046	-1.9426315857	-0.7392490779	-0.287861
C	 1.5298556945	-1.7843202832	 0.7632720078	 0.414504
O	 1.5432185056	-2.9380420463	 1.5514942846	-0.477889
C	 2.2521267138	-0.5497020372	 1.2432173921	-0.381211
C	 0.7324386236	-0.5926993241	 1.2109435308	-0.078972
H	 1.0332087971	 1.9335623635	 0.0601348523	 0.108784
H	-0.4478515676	 1.9366218571	-0.9116967497	 0.106874
H	-0.5485237082	 1.9459431033	 0.8538083929	 0.108206
H	-1.9965842642	-0.1201922902	-0.8653125006	 0.106166
H	-1.4880367461	-1.5975210208	-0.0278226897	 0.118886
H	-1.9830893183	-0.1798892868	 0.9030720866	 0.109961
H	 0.158711801	-0.6611476445	-2.0952301031	 0.094825
H	 1.6144491098	 0.0915327028	-1.4698820658	 0.095575
H	 0.6084864338	-2.7433204021	-0.9026991408	 0.107482
H	 2.2558470032	-2.2267184638	-1.2684202334	 0.086087
H	 2.409270619	-3.3497509876	 1.4594296145	 0.27922
H	 2.7001064762	-0.621417545	 2.2284007951	 0.109598
H	 2.7989340755	 0.0748453831	 0.5433534764	 0.104376
H	 0.2203539232	-0.616005026	 2.1673946924	 0.083544
