16
gdb 98709	2.28668	1.29964	1.06655	2.5385	71.77	-0.251	-0.0037	0.2473	1190.2388	0.121894	-437.855953	-437.846504	-437.84556	-437.891028	33.145	
C	-0.312613634	 1.565314357	-0.152125954	-0.333579
N	-0.8467363713	 0.2594597905	-0.476947637	-0.306795
C	-0.7411060876	-0.8022337021	 0.3557210332	 0.370487
O	-0.2485429882	-0.7882431119	 1.4701759226	-0.381347
C	-1.3132846743	-2.0879964087	-0.2015116952	-0.029299
O	-1.9695451775	-2.054493579	-1.4675315748	-0.248887
C	-0.7249940681	-2.7728682688	-1.380645389	-0.15403
C	 0.4010317615	-2.2574161886	-2.1094573657	 0.342029
C	 1.3531631951	-1.8762146324	-2.7356572533	-0.419577
H	 0.4919563578	 1.8493288186	-0.8397639398	 0.129043
H	-1.0938434073	 2.3317944873	-0.1909265166	 0.128826
H	 0.0876984586	 1.5133986184	 0.8612815883	 0.169797
H	-1.2855412031	 0.0956000158	-1.3698731539	 0.262757
H	-1.7779858644	-2.7129940024	 0.5586965511	 0.128372
H	-0.845278675	-3.8545714187	-1.4269814839	 0.131682
H	 2.1965896479	-1.5309042649	-3.281637952	 0.210519
