20
gdb 97163	3.11965	1.35306	1.07913	2.6707	81.57	-0.2399	0.0284	0.2683	1183.8889	0.172383	-403.156868	-403.148417	-403.147473	-403.190684	31.332	
C	-0.0145816044	 1.4368188507	-0.0316373329	-0.328903
N	-0.010915636	-0.0139829422	-0.1308570575	-0.327775
C	-1.0838453943	-0.6504267425	 0.040774558	 0.432709
O	-2.3053095946	-0.0692303492	 0.2935684086	-0.254981
C	-3.2868776882	-1.0589546196	 0.6405638796	-0.107227
C	-2.7498059072	-2.3829145385	 0.1089196842	-0.022895
C	-2.8292212797	-2.6229499299	-1.4290448426	-0.234529
C	-1.2778811266	-2.7141015462	-1.4833011872	-0.214885
C	-1.218200727	-2.1562916047	-0.0327449692	-0.133159
H	 0.9260832632	 1.764689815	 0.4220831354	 0.117575
H	-0.0555690376	 1.8777752711	-1.0360302351	 0.121262
H	-0.8525968292	 1.8408321781	 0.5485085135	 0.118619
H	-3.4048184609	-1.0732658403	 1.7319121119	 0.107714
H	-4.2374563624	-0.756663137	 0.190525277	 0.115304
H	-3.0604392754	-3.2375629449	 0.7107398527	 0.078768
H	-3.381817625	-3.508159263	-1.7501771231	 0.102843
H	-3.2266597735	-1.7561499196	-1.9650448908	 0.111081
H	-0.9229254524	-3.7462937631	-1.5320445961	 0.105154
H	-0.7593360692	-2.1273421059	-2.2435858947	 0.11769
H	-0.5276685995	-2.6417064483	 0.657788268	 0.095637
