16
gdb 8347	5.80143	1.27663	1.24741	2.2071	67.71	-0.2579	0.0143	0.2721	998.7115	0.131342	-379.835512	-379.828386	-379.827442	-379.868161	26.138	
N	-0.1266993432	 1.2802695715	 0.0082759603	-0.440751
C	-0.0511648436	 0.0217257135	-0.0108694175	 0.109354
O	-1.1811957251	-0.7198915696	 0.0233530276	-0.229889
C	-1.0270979442	-2.1110500076	-0.0036437936	 0.374018
C	-0.3364824357	-3.0633479511	 1.001148631	-0.227014
N	-0.9529009304	-4.016090579	-0.0345879966	-0.134358
C	-2.1920184533	-3.0987681072	 0.0364249404	-0.219442
C	-0.4342407895	-3.0329715756	-1.0952995109	-0.226839
H	 0.8071101303	 1.6848286895	-0.0221613723	 0.231258
H	 0.866916003	-0.5776060611	-0.053823014	 0.088222
H	 0.7552560056	-3.0991000049	 1.0259462879	 0.107248
H	-0.7709068411	-3.160491238	 1.9984461031	 0.115704
H	-2.7533854375	-3.1956621299	 0.9678886277	 0.114766
H	-2.8376375512	-3.1695468015	-0.8412512531	 0.114808
H	-0.959643786	-3.1019417381	-2.050245819	 0.115719
H	 0.650424272	-3.0661907409	-1.2225275709	 0.107197
