23
gdb 101488	3.34293	0.90833	0.76785	2.4923	81.35	-0.2542	0.0633	0.3175	1533.7007	0.206978	-425.438586	-425.429	-425.428056	-425.473801	36.301	
O	-0.0292273863	 1.477292379	 0.0143868387	-0.426292
C	 0.047920013	 0.0721835442	 0.1135619113	-0.062623
C	-1.347130501	-0.5583474622	 0.0595121832	 0.082702
O	-2.0302479581	-0.037410136	-1.0914345556	-0.444222
C	-1.3362791157	-2.0872411063	 0.0806899879	 0.013313
C	-0.7101844408	-2.672615142	 1.3771471382	-0.219897
C	-1.5196661219	-3.9456380374	 1.6691485599	-0.204177
C	-2.9487295768	-3.5382798182	 1.2821440131	-0.192892
C	-2.7624316044	-2.7178728592	-0.0115087132	-0.227856
H	-0.7203284371	 1.6440441569	-0.640506378	 0.283269
H	 0.6626777568	-0.3575594386	-0.7006260079	 0.06766
H	 0.5477685482	-0.1656380287	 1.0580820768	 0.108885
H	-1.9314768231	-0.182025616	 0.9090145835	 0.093049
H	-1.6468312944	-0.4575186769	-1.8709668917	 0.280035
H	-0.7399053858	-2.4195878342	-0.7812065924	 0.057997
H	 0.364101653	-2.853521752	 1.2835137762	 0.098338
H	-0.8438848867	-1.9632991488	 2.2045851001	 0.102362
H	-1.1761921906	-4.7667268312	 1.0270865532	 0.095899
H	-1.4268574146	-4.2814455886	 2.7060964109	 0.094868
H	-3.6233662432	-4.3889123238	 1.1506584433	 0.09402
H	-3.3752310853	-2.9082516445	 2.0723586931	 0.098379
H	-3.5314801424	-1.9531244975	-0.1447435683	 0.11329
H	-2.8230416127	-3.376903658	-0.8836942921	 0.093893
