15
gdb 67540	2.56416	1.88092	1.53243	4.38	65.63	-0.2421	0.0137	0.2558	899.5552	0.112583	-453.868901	-453.861654	-453.86071	-453.90034	28.506	
N	-0.0318223526	 1.4859823093	 0.1363644383	-0.60373
C	 0.0294366491	 0.0735837638	-0.0213621997	 0.16674
C	 1.2254579606	-0.6398894277	 0.6902162411	 0.000772
O	 0.9884652966	-2.0427596456	 0.6812267859	-0.214455
C	 1.5296967263	-1.4558576651	-0.5017195752	-0.012272
C	 0.3496720813	-0.8102225586	-1.2827452667	 0.004477
O	-0.92128559	-1.4942978614	-1.1278944996	-0.26367
C	-1.2725377383	-0.7227653606	-0.0269025658	 0.422747
N	-2.3317155151	-0.6860585908	 0.6375130118	-0.544756
H	 0.8442784017	 1.9367796345	-0.1052368102	 0.236858
H	-0.7733572046	 1.8973826986	-0.419248934	 0.246811
H	 1.8510805937	-0.2277472332	 1.4746490053	 0.116507
H	 2.4614105169	-1.8580922816	-0.8818583024	 0.11577
H	 0.5222838619	-0.4341733833	-2.2901863076	 0.096018
H	-3.0099181777	-1.3725781383	 0.3020056886	 0.232183
