21
gdb 31615	2.88999	1.18237	0.89744	1.366	88.67	-0.1819	0.0531	0.235	1373.8571	0.182598	-383.301523	-383.291397	-383.290453	-383.336903	36.354	
C	 0.2259558119	 0.845108722	-0.6568827205	-0.325842
N	-0.4519839941	 0.1023033364	 0.413389438	-0.383196
C	 0.3954185401	-0.5397887334	 1.3386570491	 0.286998
C	 0.9343047471	-0.1263273367	 2.5396509911	-0.342345
C	 1.6908789353	-1.2093798036	 3.0763405695	 0.287607
C	 2.4503940413	-1.2295821967	 4.3685276388	-0.497824
C	 1.5920342902	-2.240613735	 2.1701915273	-0.201486
N	 0.7971261687	-1.8417235556	 1.1196099638	-0.012949
C	 0.4328744553	-2.6515954552	-0.0216292369	-0.339858
H	 0.8025697448	 0.1506746368	-1.2751692163	 0.126198
H	-0.5251088807	 1.3185304418	-1.296610493	 0.115387
H	 0.915832785	 1.6181132103	-0.2856701972	 0.110504
H	-1.0918144355	 0.7133168758	 0.9055013559	 0.232419
H	 0.795191984	 0.8479870466	 2.9858751322	 0.077913
H	 1.7946183566	-1.0562392971	 5.2304525973	 0.119171
H	 2.943791331	-2.194543166	 4.520190892	 0.114035
H	 3.226453991	-0.4551442409	 4.3995780863	 0.119004
H	 2.0221998552	-3.2303189849	 2.1871684607	 0.103363
H	 0.2462957419	-3.6806990036	 0.2971829914	 0.131278
H	-0.4783149352	-2.2398148148	-0.4591810948	 0.154419
H	 1.2188690763	-2.6624663963	-0.7871484946	 0.125207
