19
gdb 30820	2.35202	1.27483	0.87506	1.0937	80.44	-0.157	0.0634	0.2204	1339.7694	0.158837	-419.239872	-419.229706	-419.228762	-419.275372	36.776	
C	 0.244212703	 1.5828470417	-0.1801605136	-0.359731
C	-0.0630857183	 0.0940784927	 0.0745132243	-0.311949
C	 0.592584462	-0.4771566049	 1.2884626759	 0.239941
C	 0.0904815183	-0.8665071351	 2.5097181126	 0.183904
N	-1.2649525191	-0.8888800981	 2.9089039789	-0.610113
C	 1.1760544756	-1.3436563917	 3.3169304787	-0.372005
C	 2.3086072509	-1.2245572541	 2.5478819357	 0.384778
O	 3.616862569	-1.5146480859	 2.7735320597	-0.438744
N	 1.9744234172	-0.7085359835	 1.3382446222	-0.356632
H	 1.3193589332	 1.7489307429	-0.3074030713	 0.108499
H	-0.258010307	 1.9421702855	-1.0848877758	 0.106457
H	-0.0827770581	 2.1981702585	 0.6637146382	 0.116144
H	-1.1466069134	-0.0404581977	 0.1715716323	 0.104052
H	 0.2168791187	-0.4838605042	-0.8189559197	 0.098571
H	-1.8243032735	-0.2197040653	 2.3945531809	 0.232835
H	-1.3638636254	-0.6828246387	 3.8957285256	 0.235588
H	 1.1157715029	-1.7331285303	 4.3218446328	 0.075899
H	 3.6903838915	-1.8991810648	 3.6518002859	 0.305142
H	 2.6280765124	-0.5512039571	 0.5919420867	 0.257363
