18
gdb 97038	3.13596	1.31143	0.94233	2.8455	77.61	-0.2309	0.0041	0.235	1229.2881	0.148205	-435.324977	-435.315661	-435.314717	-435.359403	32.861	
C	-0.0222067096	 1.4178864573	 0.0496116989	-0.335931
N	-0.0500050521	-0.033427498	 0.0115390918	-0.351347
C	 0.5685346558	-0.6010427594	-0.9389041622	 0.478246
N	 1.3102560449	-0.0650580431	-1.9885139832	-0.376194
C	 1.679952846	-1.1044351079	-2.9368528084	-0.29745
C	 1.2800310236	-2.3925936878	-2.2133767257	 0.409411
O	 1.4861678167	-3.5281872391	-2.5718206189	-0.373926
N	 0.6329927661	-1.9941750267	-1.066197378	-0.151666
C	 0.0789877698	-2.9049547083	-0.0860585072	-0.339753
H	 0.9938116606	 1.8294184475	-0.0544085166	 0.111553
H	-0.6441815346	 1.8681337896	-0.7410172882	 0.105796
H	-0.4256172217	 1.7611675577	 1.005505129	 0.12763
H	 1.0319987074	 0.840336828	-2.330420701	 0.256422
H	 1.1369987428	-1.0408341385	-3.8883323066	 0.14053
H	 2.7521640849	-1.1165059507	-3.1584947436	 0.145653
H	 0.3149533022	-3.9171829999	-0.4162988694	 0.158581
H	 0.5155399395	-2.7132867751	 0.8972034676	 0.146721
H	-1.0036749322	-2.7744282856	-0.0113617783	 0.145725
