19
gdb 90658	4.09774	1.02355	0.96518	3.1864	78.05	-0.2441	-0.0225	0.2216	1280.0953	0.156952	-423.001679	-422.992696	-422.991752	-423.035145	33.524	
C	 0.0508556491	 1.4742577193	-0.1204267192	-0.401351
C	 0.0256212898	-0.0266803847	 0.0789628948	 0.114451
O	 1.0092268957	-0.689778345	-0.7831334809	-0.29433
C	 1.745911014	-1.0930474284	 0.359624108	 0.059506
C	 0.7506787682	-0.5362162421	 1.3262895857	-0.195195
C	 0.9354029344	-2.0604654073	 1.2312107286	 0.184416
C	-0.0924753969	-3.0043726238	 0.6529512585	-0.484297
C	 1.7420798615	-2.5769754321	 2.3660940947	 0.122502
O	 1.6337847663	-3.6809776852	 2.8424370626	-0.272508
H	 1.0495983261	 1.877418365	 0.0700584961	 0.127261
H	-0.2341098554	 1.7205674551	-1.1472749509	 0.134568
H	-0.6589403274	 1.9576071233	 0.5597030851	 0.121995
H	-0.97774546	-0.4309192128	-0.0958890688	 0.093251
H	 2.8283371065	-1.0819273902	 0.3012453671	 0.117554
H	 0.8779748281	 0.0130182798	 2.2504514338	 0.108122
H	-0.3605213671	-2.7112349375	-0.3637623399	 0.136851
H	 0.3173464159	-4.0169601677	 0.6286621133	 0.140044
H	-0.9983291474	-3.0319066366	 1.2664969508	 0.123995
H	 2.4927527286	-1.8543830091	 2.7663220307	 0.063166
