20
gdb 13002	2.6294	2.37862	1.53079	0.2977	80.5	-0.2155	0.0325	0.2481	921.7273	0.177417	-311.882836	-311.87491	-311.873966	-311.914372	31.242	
C	-0.0264308671	 1.4872586012	 0.0347334368	-0.501332
C	-0.0235777686	-0.0096043906	-0.0069968033	 0.277249
C	 0.0174230744	-0.7853509672	-1.095839694	-0.181972
C	 0.0030080238	-2.2619172553	-0.7659921057	-0.27322
C	 0.0619756494	-2.2777964648	 0.7596895559	-0.076797
C	 1.2531194383	-1.6415166215	 1.4342950448	-0.319279
C	-0.0236571309	-0.8402178892	 1.2501235538	 0.277762
C	-0.8363748024	-0.4066194596	 2.4478281208	-0.490386
H	 0.8401926404	 1.8716526409	 0.5881338237	 0.124741
H	-0.0052814511	 1.9147377816	-0.9712887162	 0.121179
H	-0.9167928597	 1.8732856165	 0.5464512714	 0.125257
H	 0.0821892364	-0.4154874189	-2.1139807294	 0.080543
H	-0.9090419657	-2.7495910226	-1.1378851623	 0.101463
H	 0.8445932685	-2.798989687	-1.2239147661	 0.103617
H	-0.4514852459	-3.0686565315	 1.2953226064	 0.078397
H	 1.4858906131	-1.9854828616	 2.4379342142	 0.101443
H	 2.1188676131	-1.3760103163	 0.8353384687	 0.105463
H	-0.4679650278	 0.5374990408	 2.8662154188	 0.115982
H	-1.8919462424	-0.2652462749	 2.187612291	 0.115873
H	-0.7878928657	-1.1567643	 3.2433257907	 0.114017
