17
gdb 33674	3.14144	1.44005	1.38497	4.9427	76.87	-0.2519	0.0034	0.2553	1000.4955	0.139099	-380.85208	-380.845168	-380.844224	-380.883336	27.566	
N	-0.0715614761	-1.1198105443	-0.2109726534	-0.349347
C	-0.0526009448	 0.0300942995	-0.0801317227	 0.156529
C	 0.0136125864	 1.440915184	 0.102272818	 0.251839
C	-0.9614432777	 2.3207481078	 0.7996245246	-0.060571
C	-0.2481961531	 3.287625885	 1.7379816182	-0.246972
C	 1.2610794738	 3.0424949717	 1.4629066455	-0.215837
C	 1.2637219345	 2.3686773	 0.0870775159	-0.117903
C	 0.4673127765	 3.2205746618	-0.9294966552	-0.159788
N	-0.8056624152	 2.4559291077	-0.6732945244	-0.175591
H	-1.9382032183	 1.9291138854	 1.0609769047	 0.121822
H	-0.5455973931	 4.3213486138	 1.5335224971	 0.120623
H	-0.5191374118	 3.0786450769	 2.776027572	 0.119142
H	 1.8474977945	 3.9663888412	 1.467038772	 0.108549
H	 1.6868670404	 2.3710883613	 2.2158852657	 0.116343
H	 2.2152843851	 1.9517856271	-0.2378216537	 0.096014
H	 0.3974244804	 4.2975811464	-0.7443506339	 0.108051
H	 0.7574354085	 3.0502488347	-1.9676903705	 0.127096
