22
gdb 9954	2.83676	1.43784	1.28646	1.2406	78.82	-0.2525	0.0755	0.328	1112.126	0.198007	-350.195823	-350.18561	-350.184666	-350.230253	37.121	
C	-0.2633732876	 1.0017287025	-1.7629454972	-0.416766
C	-0.0611707082	-0.1756669387	-0.8330918521	-0.035744
C	 1.3017789772	-0.6301804257	-0.3441518684	-0.075132
C	 2.5954974465	 0.0599121613	-0.7240554072	-0.412813
C	 0.3025705656	-0.036322374	 0.6345863326	 0.33138
C	 0.532648029	 1.3248233653	 1.2659066978	-0.464484
C	-0.3647436573	-1.0143214546	 1.5765842457	-0.137633
O	-1.6642182785	-0.5251251692	 1.8948554442	-0.423904
H	 0.4540921953	 1.8081329182	-1.594803948	 0.113473
H	-0.1615342202	 0.6900724536	-2.8087195279	 0.113352
H	-1.2662599093	 1.425156301	-1.6399493731	 0.121983
H	-0.7578882866	-0.9861380173	-1.0369510791	 0.07842
H	 1.4164953565	-1.7105506755	-0.2717108919	 0.071732
H	 2.4881621287	 1.1424340852	-0.8206559507	 0.115752
H	 3.3729018699	-0.1251898148	 0.0258751046	 0.114722
H	 2.9676609986	-0.3178485662	-1.6830545813	 0.115649
H	 0.9296192003	 2.0614415161	 0.5657744379	 0.109415
H	-0.4092906511	 1.7113188627	 1.6649854027	 0.134447
H	 1.2413713011	 1.2491005329	 2.0998999428	 0.10639
H	-0.4262816607	-2.0056910688	 1.0998969254	 0.076803
H	 0.2437952283	-1.1258154239	 2.489946568	 0.078401
H	-2.0266039072	-1.07272488	 2.597249035	 0.284557
