20
gdb 126541	4.53915	0.80348	0.71628	2.5716	82.29	-0.2438	0.0217	0.2655	1644.583	0.171831	-399.381172	-399.371595	-399.370651	-399.417054	33.892	
C	 0.0680737534	 1.5741375037	-0.0353390319	-0.38431
C	 0.1325140113	 0.0459505941	-0.0529204134	-0.155399
C	 0.6613754639	-0.538162286	 1.2699141141	-0.313635
C	 0.6606878454	-2.0324064033	 1.2816854768	 0.367328
N	-0.3902327157	-2.8234086904	 1.1469417486	-0.34636
C	 0.1405123388	-4.0821447573	 1.213840216	 0.336074
C	-0.6841926323	-5.3206059104	 1.1096732064	-0.482511
N	 1.4547733387	-4.1146779623	 1.3816601023	-0.266931
N	 1.7673205114	-2.7936551306	 1.4206433352	-0.245888
H	 1.05726041	 2.0152377198	 0.1323588955	 0.112463
H	-0.3120868837	 1.9630815484	-0.984639824	 0.117885
H	-0.5934590498	 1.9335317092	 0.7606937377	 0.118594
H	-0.8598521461	-0.3759860552	-0.2411502915	 0.130387
H	 0.7733007603	-0.2931601673	-0.8759072021	 0.100946
H	 1.6761336909	-0.170270714	 1.4656986793	 0.097281
H	 0.033880933	-0.1819391957	 2.0959567884	 0.130761
H	-1.218228918	-5.3510858233	 0.1547057367	 0.136545
H	-0.0483080302	-6.2038819614	 1.1892122073	 0.137379
H	-1.4377240819	-5.3518102375	 1.9029622787	 0.136883
H	 2.7244559406	-2.5086339405	 1.5468918499	 0.272507
