16
gdb 24340	3.70923	1.60503	1.14018	1.9583	80.07	-0.1876	0.0019	0.1895	1017.4208	0.127687	-400.786132	-400.779247	-400.778303	-400.817223	27.65	
C	 0.0045707918	 1.4842181873	 0.1118629508	-0.142706
O	 1.3089320011	 2.079247596	 0.023720102	-0.290132
C	 2.1374139304	 1.465495284	-0.8628122875	 0.275303
C	 3.2383327451	 1.9874384755	-1.4895288007	-0.20645
N	 3.8069409019	 0.9460642529	-2.2070389705	-0.247321
C	 3.0828191835	-0.202290441	-2.0444690637	-0.195118
C	 2.0281040352	 0.0817639327	-1.1997296036	 0.174488
C	 0.9602095348	-0.6899615414	-0.6045073526	-0.155543
C	 0.005620784	-0.0257228212	 0.0605578742	-0.123469
H	-0.4111232401	 1.8451679648	 1.0571034418	 0.116266
H	-0.6272570535	 1.890930722	-0.6985613644	 0.103088
H	 3.6714988841	 2.9726468427	-1.4758292946	 0.123558
H	 4.6084617273	 1.0395258324	-2.8039372343	 0.262541
H	 3.3661362396	-1.1178974296	-2.5384224356	 0.122605
H	 0.9582990672	-1.7733945395	-0.672722604	 0.089487
H	-0.8176489427	-0.5374436277	 0.5478027528	 0.093405
