19
gdb 70450	3.08049	1.24769	1.14715	0.995	74.68	-0.2401	0.0776	0.3177	1143.9434	0.158778	-422.964955	-422.956635	-422.955691	-422.997881	32.111	
O	-0.0956735175	 1.3627676896	-0.1650763279	-0.464794
C	-0.048710592	-0.0116151091	-0.0000336497	 0.383139
C	-0.3202626721	-0.9772558223	-1.1191501164	-0.352527
C	-1.2139474209	-0.9826439652	 0.1038520475	-0.109162
C	-0.5161774959	-1.7319213405	 1.2466020608	-0.262702
C	 0.6546085508	-0.6901876445	 1.1917771405	-0.0832
C	 2.0768506881	-1.1555537103	 1.0252081119	 0.064056
C	 2.595130823	-2.3831359029	 1.6424799492	-0.1843
O	 2.3067276416	-2.3345560801	 0.2429142774	-0.231019
H	 0.5388095865	 1.6096328477	-0.8459847476	 0.286625
H	-0.7692773495	-0.5113219125	-1.9912574578	 0.108467
H	 0.3434885329	-1.8106290777	-1.3288271909	 0.134046
H	-2.2753303634	-0.78300278	 0.0319364077	 0.092755
H	-1.0584915667	-1.7066775698	 2.1936641705	 0.10294
H	-0.2354995942	-2.7634892354	 1.0177572624	 0.111437
H	 0.6058068241	-0.0177592631	 2.0553610127	 0.087128
H	 2.7969226382	-0.3580641685	 0.8262690926	 0.087647
H	 3.6508407749	-2.4597939125	 1.8984067587	 0.114598
H	 1.9272552119	-3.007691973	 2.2339541984	 0.114866
