19
gdb 55404	2.52876	1.39242	1.02671	2.5087	76.64	-0.2458	-0.0326	0.2132	1203.2584	0.158395	-423.089559	-423.080671	-423.079727	-423.123723	32.821	
C	-0.1611622163	 1.5051196419	-0.0764740308	-0.487444
C	 0.0149900868	 0.0147244065	 0.0937891659	 0.37861
O	 0.1054591383	-0.521493787	 1.1734699515	-0.296
C	 0.0395302862	-0.8055991593	-1.2035340012	-0.199012
C	 0.5506803198	-2.2442822222	-1.0561324925	-0.234341
C	-0.2663584914	-3.0748119401	-2.0692464921	-0.226209
C	-1.6584926185	-2.4312513857	-2.0386008081	-0.302849
C	-1.3956869875	-0.9494959215	-1.7858090836	 0.392305
O	-2.1539137889	-0.0408157796	-2.0055059854	-0.312021
H	 0.7113209403	 1.9241484613	-0.5919264456	 0.135988
H	-1.031213717	 1.6942190547	-0.7143440107	 0.172851
H	-0.277139603	 1.985133321	 0.8957880867	 0.137962
H	 0.6006991705	-0.2378752096	-1.9571385566	 0.111306
H	 1.6280107218	-2.3251568854	-1.2177484617	 0.106275
H	 0.348741626	-2.5732217825	-0.0321403534	 0.134299
H	 0.1634976047	-2.9817311243	-3.073426101	 0.106896
H	-0.2819104958	-4.1383861371	-1.8203506051	 0.110042
H	-2.2713252119	-2.5718680525	-2.9313192186	 0.130125
H	-2.2394802839	-2.8004217386	-1.1816637676	 0.141218
