17
gdb 30117	3.83344	1.12167	1.08649	0.765	74.93	-0.235	-0.006	0.229	1164.7981	0.137164	-418.002254	-417.994391	-417.993446	-418.035538	28.966	
C	 0.3224891763	 1.4895506505	-0.433511689	-0.31857
N	-0.0204487234	 0.1345998678	-0.0208689463	-0.078611
C	 1.0709517849	-0.818392379	 0.0875264365	-0.247513
C	 0.3946054744	-0.3261698025	 1.3227672765	-0.135877
C	 1.1222083851	 0.5293445375	 2.269671743	 0.349254
C	 2.4183257455	 0.8638066996	 2.5034587028	-0.194365
N	 2.4935377193	 1.7410420152	 3.5778797307	-0.257306
C	 1.2626510696	 1.8896156959	 3.9423591436	 0.072635
O	 0.3659721738	 1.195925974	 3.2088405664	-0.180323
H	 1.3031043991	 1.8359747165	-0.0739317698	 0.109936
H	 0.3225213717	 1.5261428664	-1.5270694041	 0.126619
H	-0.4428949306	 2.1808805471	-0.067773602	 0.129055
H	 0.873708801	-1.8246566352	-0.2720320079	 0.122092
H	 2.0821198665	-0.4594583084	-0.1021234137	 0.114178
H	-0.3566319867	-0.9578921068	 1.7918267896	 0.109998
H	 3.302390058	 0.5277231932	 1.9860949858	 0.126652
H	 0.8703879355	 2.487759558	 4.749999298	 0.152145
