15
gdb 34525	4.40873	1.27758	1.1677	5.599	71.51	-0.275	-0.0539	0.2211	1038.8608	0.115227	-416.807977	-416.801282	-416.800338	-416.83911	26.285	
N	 0.0831091705	-1.0953380109	 0.0185514059	-0.31916
C	 0.0077132153	 0.0572507	 0.0126425346	 0.295132
C	-0.0841544515	 1.497820337	 0.0051712761	 0.277851
N	-1.2073862803	 2.0905452483	 0.0411769874	-0.290084
C	-1.0839633853	 3.5517386232	 0.0257926567	 0.00354
C	-0.0621048657	 3.9518774347	-1.0836037259	-0.246097
C	 1.0128940355	 3.5398521626	-0.0496253927	 0.108383
C	 0.0148230153	 3.9678720474	 1.0527142244	-0.246097
O	 1.1310301746	 2.095264002	-0.0430627788	-0.267934
H	-2.0691729538	 4.0124523552	 0.0578198822	 0.092718
H	-0.0993864362	 3.411416131	-2.0307957058	 0.124148
H	-0.0453101341	 5.0294481844	-1.2541869756	 0.120151
H	 2.0310983383	 3.921227754	-0.0891463193	 0.103151
H	 0.0432628425	 5.0478637008	 1.205516481	 0.120151
H	 0.0460532449	 3.4416538702	 2.0081095098	 0.124148
