16
gdb 11849	7.15462	1.05874	1.02832	2.0578	66.74	-0.2542	-0.0277	0.2265	1121.4801	0.129096	-383.714572	-383.707053	-383.706109	-383.747011	27.499	
O	 0.954404134	-0.2665452283	-0.2814779636	-0.250083
C	 0.4294166687	 0.7930310864	-0.0574351369	 0.163158
C	 1.143666691	 2.107881233	 0.0723965323	-0.064927
C	 0.5827712807	 3.2875073679	-0.7942408037	-0.341644
C	 0.6964652371	 4.171855588	 0.4474269462	 0.473096
C	 1.3345188795	 5.4808139736	 0.5847150778	-0.266021
O	-0.0877892672	 5.3116142102	 0.7131469185	-0.267054
C	 0.8172723195	 2.947795643	 1.3550815512	-0.341632
H	-0.677548456	 0.8710155766	 0.0756381213	 0.068976
H	 2.2145896072	 1.9558023914	-0.0684556464	 0.098201
H	 1.1466633695	 3.5618851096	-1.6875417885	 0.121559
H	-0.4656803987	 3.1250001782	-1.0675584432	 0.12216
H	 1.8575001311	 5.736405315	 1.5054397896	 0.120234
H	 1.6602349082	 6.0222020865	-0.3026282155	 0.120234
H	-0.1549812734	 2.6749237266	 1.780074921	 0.122169
H	 1.5653590687	 2.9553702724	 2.1497847996	 0.121574
