20
gdb 90244	3.61565	1.42625	1.35137	1.6572	79.52	-0.2088	0.0528	0.2616	1036.9615	0.172241	-403.013784	-403.006462	-403.005517	-403.045021	30.519	
C	 0.0362839864	 1.55919146	-0.0174309614	-0.32574
N	-0.0194998048	 0.1128171578	 0.0851208161	-0.041951
C	-1.3545208994	-0.466327831	 0.3635991682	-0.218168
C	-0.9854264565	-1.4010327323	 1.5490693117	 0.389745
C	-0.235619162	-0.3844321572	 2.4813297497	-0.339793
C	 0.7479989695	-0.4694318858	 1.1815210335	-0.05726
C	 0.3402765332	-1.9894528336	 1.2027120683	-0.026623
C	-0.5494775733	-3.1126712327	 0.5763806467	-0.179483
O	-1.6539359624	-2.6936688437	 1.4825130782	-0.362017
H	 1.0701562205	 1.8745018325	-0.1934212148	 0.119101
H	-0.5616005034	 1.8855024822	-0.8740556884	 0.12361
H	-0.3357500259	 2.092918761	 0.87696727	 0.092946
H	-2.0851615533	 0.2912902614	 0.6759644506	 0.094174
H	-1.7623992837	-0.9958896679	-0.5016887211	 0.104644
H	-0.6931126929	 0.5858789598	 2.6969537265	 0.099065
H	 0.1963946556	-0.8253274162	 3.3783997504	 0.115994
H	 1.7831834772	-0.1291060353	 1.2308956066	 0.080053
H	 0.7763403426	-2.4267127964	 2.1029607552	 0.093856
H	-0.8399538581	-3.0019799449	-0.471033625	 0.12095
H	-0.2417586591	-4.1395257178	 0.7848067887	 0.116897
