20
gdb 46349	3.39791	1.07498	0.8611	2.4497	80.36	-0.2601	0.0286	0.2887	1354.049	0.172183	-403.136943	-403.128514	-403.127569	-403.170878	31.488	
N	-0.2162233547	 1.1362642749	-0.4596890209	-0.544652
C	-0.050217354	-0.0360059709	-0.0475827054	 0.431354
O	 1.0700974824	-0.6571422477	 0.4676934695	-0.25486
C	 0.3306556232	-1.8992046766	 0.6881190993	-0.103861
C	-0.9475629674	-1.2532821791	 0.1022491271	-0.155288
C	-2.1587376108	-1.1003769418	 1.0033603875	 0.04941
C	-3.3933853868	-0.3200062993	 0.4709356064	-0.219468
C	-4.304118932	-1.3600447486	 1.1780160893	-0.213095
C	-3.0898116945	-2.3265306625	 1.2349078225	-0.241269
H	 0.6435845743	 1.6830154037	-0.3847682031	 0.226644
H	 0.7719662812	-2.7228568453	 0.1221746165	 0.119283
H	 0.2930252396	-2.145237532	 1.7528847515	 0.118497
H	-1.2416379203	-1.6740596871	-0.8645503816	 0.099283
H	-1.8441584952	-0.6830772678	 1.9672828244	 0.073807
H	-3.4843008738	 0.7305136685	 0.7514083597	 0.111541
H	-3.4663755718	-0.3926511744	-0.6186088412	 0.105055
H	-4.6026190259	-1.0270462635	 2.1761706841	 0.104298
H	-5.1957045993	-1.6996346202	 0.6463968225	 0.098833
H	-3.0748752013	-3.0029655732	 0.3734850783	 0.097857
H	-2.941147863	-2.9174450768	 2.1421733035	 0.096633
