21
gdb 104322	2.94832	1.27702	1.18366	2.0744	77.4	-0.252	0.0645	0.3165	1152.8238	0.183331	-424.224043	-424.215365	-424.214421	-424.256881	34.602	
O	-0.1285839778	 1.4591842227	 0.104650321	-0.437675
C	 0.0046360839	 0.0406531882	 0.0054165266	-0.137799
C	-1.4113718472	-0.5289780787	-0.0392971807	 0.411158
O	-2.1062287601	-0.103886887	 1.1339701723	-0.495668
C	-2.2031276721	-0.1276195359	-1.3140852007	-0.262827
C	-3.2710350693	-1.2319295642	-1.4757215921	-0.221145
C	-2.6183594084	-2.4834291963	-0.904646364	-0.02826
C	-1.201766312	-2.7832575751	-1.3238288019	-0.312251
C	-1.464135095	-2.0467432972	-0.0302345428	-0.050107
H	 0.7215631215	 1.832546285	 0.352104856	 0.293465
H	 0.5663182597	-0.2449134044	-0.8951534445	 0.089407
H	 0.5253630724	-0.3654312599	 0.8842357269	 0.092345
H	-1.8855200861	 0.8313463647	 1.2339832763	 0.281069
H	-2.632340759	 0.8701930941	-1.2066895931	 0.102805
H	-1.5378006172	-0.0973124465	-2.1833705766	 0.094216
H	-4.154807314	-0.9871027826	-0.8772744544	 0.110227
H	-3.5970168242	-1.3467348393	-2.5151426304	 0.090185
H	-3.2509751005	-3.313135016	-0.6100055637	 0.080447
H	-0.8659866368	-3.8105733626	-1.2335802163	 0.108612
H	-0.7682741594	-2.2566165703	-2.1680192264	 0.106602
H	-1.2431166684	-2.5334601286	 0.9126078586	 0.085191
