19
gdb 80497	2.21521	1.4423	1.24707	1.8275	83.66	-0.2313	0.0348	0.2661	1132.8188	0.157495	-385.828263	-385.819139	-385.818194	-385.86146	35.248	
C	-0.2541170389	 1.5583213414	 0.0195960221	-0.421253
C	 0.0496727742	 0.0662793901	-0.0107634936	-0.023954
C	 1.1934077155	-0.4950742519	-0.9165135677	-0.255078
C	 1.792408565	-1.2329174819	 0.2846289036	-0.180793
C	 2.1629585321	-0.2674832286	 1.3610552858	 0.04457
O	 2.6226465758	 1.0281919438	 1.1003770115	-0.414524
C	 0.7021716991	-0.599832288	 1.22590394	 0.143229
C	-0.0353761469	-1.1837751171	 2.2946731532	 0.196945
C	-0.6815168562	-1.6718808524	 3.1861891697	-0.410641
H	 0.6464998969	 2.14031789	 0.2206059898	 0.141603
H	-0.6762604907	 1.8826319438	-0.9384978158	 0.106382
H	-0.9903856846	 1.7844937072	 0.7986523364	 0.118871
H	-0.8671176528	-0.4885128996	-0.2312297749	 0.082816
H	 0.8297141352	-1.1606852737	-1.7006720346	 0.104415
H	 1.8513095298	 0.2548994652	-1.3651542094	 0.096945
H	 2.150259957	-2.2558827891	 0.2848308333	 0.098876
H	 2.6112485335	-0.7310113224	 2.2401858752	 0.099647
H	 3.5144592319	 0.9584108897	 0.7418358446	 0.288538
H	-1.2473076558	-2.0992263364	 3.976087651	 0.183404
