17
gdb 69173	2.1505	1.95113	1.28395	5.3039	73.36	-0.2378	-0.0179	0.2199	1018.6128	0.13531	-417.958134	-417.949941	-417.948997	-417.990719	30.952	
C	 0.0151540383	 1.5545169395	 0.0472655057	-0.500224
C	-0.0356182288	 0.0598700136	-0.0351610767	 0.25336
C	-0.8787597418	-0.8152179785	 0.7951780779	-0.291866
N	 0.6001067993	-0.8310464877	 1.0432417315	-0.226563
C	 1.1672439598	-1.6545782548	-0.0261020874	 0.375583
O	 1.8748161711	-2.6067606148	 0.0519972088	-0.297581
C	 0.6046935505	-0.7800359662	-1.1335630852	 0.160663
C	 0.1510556711	-1.0828223116	-2.5126934129	-0.301913
N	 1.3901465712	-0.3272575495	-2.2776073443	-0.355719
H	 1.0195382974	 1.9281215641	-0.1771995816	 0.137618
H	-0.6877173551	 2.0101254319	-0.6600980222	 0.127937
H	-0.2541045967	 1.8926849041	 1.0512796426	 0.144253
H	-1.4260404725	-0.3775160993	 1.6248477012	 0.136625
H	-1.3417272903	-1.6997768364	 0.3645600238	 0.132442
H	 0.2975337399	-2.0806882331	-2.9155897828	 0.142629
H	-0.7303990481	-0.558706822	-2.8744260843	 0.12134
H	 1.2362249548	 0.6679099608	-2.429538554	 0.241416
