21
gdb 117712	4.13564	0.74003	0.73588	4.2709	76.56	-0.2424	-0.017	0.2255	1626.5976	0.177972	-461.363482	-461.35242	-461.351476	-461.400319	38.834	
C	-0.0106205976	 1.3889813124	 0.1066601739	-0.231337
O	-0.0106653423	-0.0188848237	 0.0292964575	-0.254759
C	-1.305793268	-0.5821716995	-0.049806412	-0.086309
C	-1.1355889446	-2.1080911772	 0.0005271788	 0.31888
C	-0.3866982649	-2.6105205926	-1.2444040198	-0.422331
O	-0.411243251	-2.4379580259	 1.1844709179	-0.475226
C	-2.5143651833	-2.776937512	 0.1399679398	-0.294136
C	-2.43313082	-4.2851143689	 0.2639204874	 0.149061
O	-3.0980931919	-5.0538653656	-0.3838926974	-0.248833
H	 1.0305101578	 1.7120709225	 0.177434327	 0.132964
H	-0.4647900075	 1.8422711488	-0.787138259	 0.112812
H	-0.5581580642	 1.7461573343	 0.9919859056	 0.112405
H	-1.9162022166	-0.2501575489	 0.8050405852	 0.091597
H	-1.8124378368	-0.2700658667	-0.97697717	 0.092958
H	 0.5639081401	-2.0818532722	-1.3483648271	 0.128237
H	-0.1821995544	-3.6809125565	-1.1578259793	 0.128942
H	-0.9733343052	-2.4442719686	-2.1539614892	 0.11614
H	 0.3323560478	-1.8229164281	 1.2177130523	 0.287781
H	-2.9784161022	-2.4034693366	 1.0631605991	 0.123813
H	-3.1648538683	-2.5308890677	-0.7039081806	 0.115185
H	-1.7103644969	-4.6444683673	 1.02559713	 0.102156
