23
gdb 115896	3.08781	1.24502	1.11134	1.5848	84.25	-0.2334	0.0789	0.3123	1232.2271	0.208173	-388.291631	-388.283245	-388.282301	-388.324506	33.423	
C	 0.1746761943	 1.6131082557	-0.16571987	-0.391698
C	 0.1046871632	 0.0865966818	-0.0661791612	-0.168581
C	 0.6345857824	-0.4861064486	 1.2612120021	 0.035963
C	-0.2664938195	-0.1703179396	 2.4936835105	-0.236684
C	-1.2612156848	-1.314410578	 2.8270195413	-0.200535
C	-0.6764717079	-2.6530971433	 2.3831811636	 0.104413
C	 0.8596775658	-2.7021692577	 2.5319079474	-0.267264
C	 0.7952512408	-2.0086368308	 1.1555361642	 0.07971
O	-0.5209676174	-2.5978408878	 0.9346144149	-0.296876
H	 1.2057188903	 1.9706769246	-0.0623976107	 0.110285
H	-0.2005495664	 1.9593809495	-1.1339113177	 0.112294
H	-0.4225191959	 2.1048519488	 0.6091800551	 0.115816
H	-0.9236741447	-0.2591287195	-0.2163286481	 0.111185
H	 0.6884791455	-0.3470621755	-0.889381552	 0.089026
H	 1.6303305655	-0.0556662714	 1.4419949862	 0.061929
H	 0.3778199361	-0.0059758975	 3.3632255454	 0.099775
H	-0.8068044905	 0.7692064468	 2.3477068799	 0.09782
H	-1.4858342084	-1.3191926644	 3.9003366897	 0.090942
H	-2.2119761039	-1.1816894136	 2.2995201333	 0.108989
H	-1.2697830229	-3.5153426808	 2.7003456481	 0.07109
H	 1.3310562377	-2.1819108803	 3.368433383	 0.09663
H	 1.2421364793	-3.7210345055	 2.4551397408	 0.107516
H	 1.5082652416	-2.303342503	 0.3790579742	 0.068255
