18
gdb 17657	3.25675	1.84476	1.52003	2.4049	66.96	-0.2428	0.0782	0.321	905.0814	0.152681	-384.901249	-384.893235	-384.892291	-384.933904	29.501	
C	 0.189582643	 1.8072301561	 0.6378510448	-0.438579
C	 0.0565727626	 0.3347574955	 0.2743504963	 0.404037
C	 0.5028439996	-0.0835036997	-1.1494280504	-0.339296
C	 1.5798919872	-0.907469781	-0.4210770486	-0.064599
O	 1.1318427957	-0.4468298732	 0.871393298	-0.325913
C	-1.2776785189	-0.2126393084	 0.7329572031	 0.046659
C	-2.4872336793	-0.1632907417	-0.0950842105	-0.187044
O	-1.7739471798	-1.388115419	 0.0944318148	-0.235547
H	 1.1834339817	 2.1743763626	 0.3681599624	 0.123115
H	-0.5615511352	 2.4087290406	 0.1149250949	 0.117281
H	 0.057004214	 1.9510364103	 1.71545818	 0.125642
H	-0.2286470026	-0.6710820817	-1.7033755128	 0.12623
H	 0.8736132959	 0.7368798076	-1.765731773	 0.103607
H	 1.4842403545	-1.9946336568	-0.5207183852	 0.111099
H	 2.6197600131	-0.6201754757	-0.6171353416	 0.09978
H	-1.3931441056	-0.2157071199	 1.8183047119	 0.101459
H	-3.4662699154	-0.1112288513	 0.3780670917	 0.119771
H	-2.4355713904	 0.2529286656	-1.100725196	 0.1123
