16
gdb 11847	6.47597	1.15653	1.13515	2.8661	66.03	-0.2388	-0.0347	0.2041	1064.8571	0.128561	-383.709852	-383.702173	-383.701228	-383.742753	27.884	
O	-0.4263441857	 1.2299780441	-1.4451345286	-0.239426
C	 0.1076997719	 0.8850121004	-0.4238912143	 0.138394
C	 1.4187372747	 1.4516428406	 0.0785245628	 0.04785
C	 1.2775964889	 2.5128728127	 1.2073374829	-0.381668
C	 2.0521223446	 1.4960820645	 2.0374787456	 0.464302
C	 3.2020406384	 1.6858430845	 2.9665675046	-0.330906
C	 1.8930451675	 1.0751407935	 3.4577458339	-0.331786
O	 2.0974743269	 0.5420558688	 0.9685071615	-0.313651
H	-0.3372618776	 0.1264057959	 0.2599173155	 0.088875
H	 2.0413200871	 1.7559875393	-0.7691964821	 0.107386
H	 1.7786069159	 3.4611751495	 1.0097175326	 0.128972
H	 0.2533922994	 2.7021936606	 1.5375280357	 0.124121
H	 4.047891563	 1.0176648831	 2.845662597	 0.130322
H	 3.4572900082	 2.6932471997	 3.2797825789	 0.118329
H	 1.2529277386	 1.6639218493	 4.107059849	 0.118897
H	 1.8861910381	 0.0087164533	 3.656219905	 0.129988
