19
gdb 37785	2.61738	2.0001	1.43935	1.5511	79.59	-0.2232	0.0201	0.2433	954.3274	0.162172	-385.856334	-385.849477	-385.848533	-385.887241	28.571	
C	-0.0412893914	 1.4925352216	 0.2238465579	-0.260157
C	 1.3794903946	 2.0374740638	-0.0064641395	-0.221147
C	 1.9839997125	 1.7068271107	-1.3680836541	 0.138558
O	 2.725154262	 0.4460101342	-1.407085586	-0.293743
C	 2.0362093131	 0.0632980391	-2.5901793064	 0.087905
C	 0.5597864353	-0.136869581	-2.3298391356	-0.098999
C	 0.0383540295	-0.683934124	-1.0565632676	-0.029075
C	-0.1871158729	-0.0031073234	 0.0670439696	-0.078252
C	 1.1233730948	 1.2621553275	-2.5574525798	-0.203647
H	-0.3706314856	 1.7885202497	 1.2250584447	 0.096316
H	-0.7187206984	 1.997383796	-0.4772658021	 0.112566
H	 1.3601006371	 3.1277121714	 0.1150403292	 0.092717
H	 2.0684847213	 1.6496416598	 0.7530210617	 0.117972
H	 2.672723672	 2.5040272356	-1.675680788	 0.083944
H	 2.6033728932	-0.4129906337	-3.3818333324	 0.101724
H	 0.0614292739	-0.5092882387	-3.2248575377	 0.092229
H	-0.1291893694	-1.7598142797	-1.0590728374	 0.082162
H	-0.5237421275	-0.5549673289	 0.9413501843	 0.084715
H	 0.7776960258	 1.9045725098	-3.3564155306	 0.094213
