19
gdb 39091	3.202	1.69566	1.61335	1.7221	78.87	-0.2391	0.0072	0.2463	926.2089	0.162188	-385.838555	-385.832082	-385.831138	-385.86891	28.043	
C	-0.0702327114	 1.5420576053	 0.1535237169	-0.215429
C	 1.4596363918	 1.7870387732	 0.0618148729	-0.245836
C	 1.9168446849	 0.3147763912	-0.1232417299	 0.443289
C	 3.3005043282	 0.1218675851	-0.7229219856	-0.39955
C	 2.8896364824	 0.3474059641	-2.1991651017	-0.042421
C	 1.5725250189	 0.1932364985	-2.4297965121	-0.172942
C	 0.9754831165	-0.3061594665	-1.1334938669	-0.003823
C	-0.0092621397	 0.0154433136	 0.0390083535	-0.006283
O	 1.1184773626	-0.3302606284	 0.9454222023	-0.374967
H	-0.5050693658	 1.8595787799	 1.1034977321	 0.105786
H	-0.6377503528	 1.9992522702	-0.6621951975	 0.098639
H	 1.7526798116	 2.4385921739	-0.7626358061	 0.104283
H	 1.8798461541	 2.1804290903	 0.9905713562	 0.103606
H	 4.0664999633	 0.8246666706	-0.3810275558	 0.106353
H	 3.6839520313	-0.8973256042	-0.5822714082	 0.123373
H	 3.6281407223	 0.5835607417	-2.9576967323	 0.098908
H	 1.0941179648	 0.2762618601	-3.3982668347	 0.098583
H	 1.0982661184	-1.3960077854	-1.0907749659	 0.100371
H	-0.9004441014	-0.5821455833	 0.2291342528	 0.078058
