20
gdb 79294	2.58451	1.74717	1.50543	2.7578	76.79	-0.2369	0.0702	0.307	985.8873	0.17361	-403.14476	-403.137314	-403.13637	-403.176114	30.741	
C	-0.1230095149	 1.5671917326	 0.054799784	-0.419929
C	 0.0314612797	 0.0545649701	-0.0110625341	 0.089544
C	 0.9427625989	-0.5331346559	-1.113853057	-0.124725
C	 2.3455778553	-0.1239817591	-0.6210499674	-0.2505
C	 2.1539203424	-0.6061423652	 0.8149540866	-0.041469
C	 1.2640830996	-1.8000085213	 0.7654323902	-0.048624
C	 0.9211764446	-2.0296963812	-0.6996472175	 0.128729
O	-0.3286689429	-2.6838462999	-0.8165967578	-0.44277
N	 0.7223236395	-0.4899718704	 1.193115689	-0.126876
H	 0.8382084384	 2.0821122352	 0.1375135323	 0.116591
H	-0.6349997293	 1.9415083399	-0.8379523563	 0.109518
H	-0.7192672032	 1.8416444055	 0.9297677166	 0.128118
H	-0.9560940562	-0.4129025176	-0.0619686619	 0.089551
H	 0.6912918914	-0.311850207	-2.1511961863	 0.057901
H	 3.1461292939	-0.6646831744	-1.1367551771	 0.099882
H	 2.5516946059	 0.9461745734	-0.7011551072	 0.104613
H	 2.8855211454	-0.4410405892	 1.5963467791	 0.090099
H	 1.2721989849	-2.6077277642	 1.4866267792	 0.094107
H	 1.7090394442	-2.6011999366	-1.2132619548	 0.063681
H	-0.5142191975	-2.8066433246	-1.7530223893	 0.282559
