19
gdb 122261	2.79137	0.82404	0.70247	5.8564	76.74	-0.2726	0.023	0.2956	1614.3992	0.158376	-419.185167	-419.175278	-419.174334	-419.221005	34.928	
O	 0.0124413636	 1.3877672868	 0.3330856139	-0.417568
C	 0.0273572091	 0.0325633221	-0.0799629378	-0.074553
C	-1.3726994783	-0.5298798693	 0.1320479463	-0.174077
C	-1.4719873226	-2.0123059044	-0.2460850936	-0.293261
C	-2.8688772648	-2.5884182454	-0.0593237154	 0.157002
C	-3.0383117521	-4.0115504736	 0.3647919488	-0.270717
N	-3.3567836399	-2.9262576258	 1.2956491885	-0.322062
C	-3.880299972	-2.0097847642	-0.9250606967	 0.290876
N	-4.6544591668	-1.5497892504	-1.6498975876	-0.34276
H	 0.8812702771	 1.7651426731	 0.1679892307	 0.288449
H	 0.3076048782	-0.0617874919	-1.1420355747	 0.090178
H	 0.7585164342	-0.5551267123	 0.5011592826	 0.08202
H	-1.6505910128	-0.3865484261	 1.1828941488	 0.112891
H	-2.0812993409	 0.0571239516	-0.4623741208	 0.138015
H	-1.1690618603	-2.1537126883	-1.2911314215	 0.123343
H	-0.779454628	-2.6071178589	 0.3632896197	 0.100166
H	-3.8948807422	-4.5786367973	 0.0147117978	 0.144805
H	-2.1283925086	-4.5889532835	 0.5070605572	 0.125207
H	-2.5984985029	-2.7891171722	 1.9606527037	 0.242045
