18
gdb 72757	3.13755	1.45875	1.18565	4.596	79.69	-0.2392	-0.0274	0.2119	1072.743	0.149038	-401.975024	-401.967345	-401.966401	-402.006786	30.756	
C	-0.1715116592	 1.5874316516	-0.2029534954	-0.450686
C	-0.0604124868	 0.0754150369	-0.0109378012	 0.298707
C	 0.8590829223	-0.6050054505	-1.1148658503	-0.270553
C	 2.0633711128	-0.5483311127	-0.1017527325	-0.313607
C	 0.9783433088	-0.4537214445	 0.9420675087	 0.232595
C	 0.4214141743	-1.1745696155	 1.9181940399	-0.338912
C	-1.0666174881	-1.1131637716	 1.7452537649	 0.390906
O	-1.9390564112	-1.5375966302	 2.468777434	-0.376706
N	-1.2735550587	-0.5204324515	 0.487389557	-0.393419
H	 0.7903069763	 2.0239982217	-0.4866389066	 0.125191
H	-0.8852376541	 1.8156386249	-1.0027310376	 0.124006
H	-0.5144599975	 2.0711603512	 0.7161689873	 0.133444
H	 0.5486413057	-1.6319395821	-1.308547892	 0.127385
H	 0.9734158394	-0.0540603396	-2.0515054533	 0.10644
H	 2.7299583786	-1.4096230955	-0.0485569529	 0.124737
H	 2.6567541703	 0.3621113758	-0.2232560679	 0.122191
H	 0.8860577473	-1.8342441398	 2.6374855668	 0.117914
H	-2.1845691802	-0.1286864885	 0.298528861	 0.240367
