16
gdb 16219	3.13672	2.28879	1.52168	4.3145	64.53	-0.2638	0.0137	0.2775	838.4295	0.13217	-383.779169	-383.772277	-383.771333	-383.810399	26.06	
O	 0.0327148935	 0.0494732104	-0.338133554	-0.361607
C	 0.0443003374	 1.2284068503	-0.1184447653	 0.416819
O	-1.089401368	 1.9402861947	 0.130130478	-0.228436
C	-0.7732866061	 3.2957835084	 0.4956487657	-0.082368
C	 0.6606880861	 3.5561146077	-0.004975738	-0.336158
C	 1.2240454277	 2.1499743765	-0.0590141	 0.187993
C	 2.4285052541	 1.6657469064	 0.7316163291	-0.296572
C	 2.4895978242	 1.7356842846	-0.7632776432	-0.304224
H	-1.5216242003	 3.9462188626	 0.0389418916	 0.126037
H	-0.8485225458	 3.3842540427	 1.5854332979	 0.119394
H	 0.6409867442	 4.005924643	-1.003373031	 0.12036
H	 1.2090141357	 4.2297123871	 0.6574961587	 0.115745
H	 2.9666949792	 2.4095968068	 1.3093329253	 0.119344
H	 2.3514479561	 0.686891557	 1.1910900153	 0.140955
H	 2.4462720953	 0.8025898614	-1.3139826425	 0.143785
H	 3.0797867965	 2.5226513905	-1.2203441577	 0.118934
