19
gdb 126543	4.63453	0.80977	0.72129	2.0872	78.87	-0.2071	0.0262	0.2333	1599.809	0.161318	-415.43234	-415.4231	-415.422156	-415.467366	33.656	
C	 0.0570805281	 1.5809284993	-0.001378941	-0.384167
C	 0.1242546941	 0.0534340256	-0.0480220093	-0.155024
C	 0.661259322	-0.5543683444	 1.2608169474	-0.312683
C	 0.6674524027	-2.0479654458	 1.2442688287	 0.378097
N	-0.3889433206	-2.83597311	 1.1033508538	-0.360769
C	 0.1525831598	-4.0885034558	 1.1394909688	 0.384028
N	-0.6222878536	-5.2187748636	 0.9631791979	-0.584394
N	 1.4686726582	-4.1360436485	 1.2997730548	-0.301489
N	 1.7744376914	-2.8037310523	 1.3568985123	-0.248784
H	 1.0463474169	 2.0205423976	 0.1698443228	 0.112152
H	-0.3283724211	 1.9871523135	-0.9412910563	 0.117457
H	-0.6010713295	 1.9242030582	 0.8045877488	 0.117583
H	-0.8681402159	-0.366845313	-0.2397142196	 0.129657
H	 0.7615316995	-0.2690814699	-0.8802422332	 0.102004
H	 1.6758248948	-0.1871364716	 1.4586880302	 0.097087
H	 0.0364005835	-0.2158927683	 2.0965054486	 0.128201
H	-1.5781128553	-5.0877281877	 1.2599751081	 0.255684
H	-0.2054412562	-6.0565300082	 1.3423480235	 0.254596
H	 2.7305228213	-2.5169402551	 1.4807559738	 0.270763
