21
gdb 41950	2.20838	1.97085	1.58856	2.423	76.21	-0.2463	0.0682	0.3145	974.1907	0.187385	-424.24325	-424.236061	-424.235117	-424.274592	29.711	
C	-0.0122619959	 1.3989574054	-0.121394006	-0.068317
C	 1.391757145	 2.0204600733	-0.0401711326	-0.226597
C	 2.2904834178	 1.3538937727	 1.0209240942	-0.015378
C	 1.8722646863	 1.5822436344	 2.4875254913	-0.226573
C	 0.5539169535	 0.8826343405	 2.8570224537	-0.068328
O	 0.4045288099	-0.4229876376	 2.2998487593	-0.27329
C	 0.8167361244	-0.6129315782	 0.9602644437	 0.232587
C	 2.2623527518	-0.158484283	 0.7639818018	-0.242582
O	-0.0340536667	-0.0234028735	-0.0035847563	-0.273337
H	-0.6733272898	 1.8433165136	 0.6327319313	 0.100385
H	-0.4603300398	 1.613719678	-1.0969028845	 0.105221
H	 1.888160746	 1.9097001647	-1.0117695164	 0.103699
H	 1.2920614017	 3.0968196692	 0.1443591288	 0.094415
H	 3.3073904444	 1.7419751299	 0.8948663132	 0.067856
H	 2.6745420969	 1.1923148621	 3.1254940481	 0.103695
H	 1.780173698	 2.6517740007	 2.7115089619	 0.094398
H	 0.4966981818	 0.741081335	 3.9410796178	 0.105219
H	-0.3037618091	 1.5058917573	 2.5757716093	 0.100381
H	 0.6982222561	-1.6870690992	 0.7964949336	 0.089142
H	 2.5817650932	-0.3991052097	-0.2550054108	 0.098692
H	 2.9088196647	-0.6972719756	 1.4640075386	 0.098712
