16
gdb 30113	4.00047	1.14795	1.01138	2.4587	72.5	-0.2404	-0.0105	0.2298	1180.134	0.12464	-437.896515	-437.888757	-437.887813	-437.929569	28.478	
C	 0.152585189	 1.4995601324	-0.4203138922	-0.436628
C	-0.0418684405	 0.0779008492	 0.0314734558	 0.080598
O	 1.0951064788	-0.7861474224	 0.0209656973	-0.242104
C	 0.511064117	-0.4831055526	 1.2873303713	-0.068033
C	 1.3228345523	 0.2835675693	 2.2511027161	 0.405836
N	 2.2048458525	 1.2161715532	 2.0636170487	-0.307321
C	 2.6317206656	 1.5552588474	 3.339070891	-0.108134
C	 1.9730176446	 0.7949274224	 4.2441172871	-0.046913
O	 1.1284980796	-0.0315671955	 3.560393426	-0.174032
H	 1.050476488	 1.9311447877	 0.023896071	 0.168583
H	 0.2421186816	 1.5316118214	-1.5111492894	 0.128746
H	-0.715993457	 2.1044517379	-0.1380138909	 0.119113
H	-0.952716447	-0.406200865	-0.3291443461	 0.094777
H	-0.0227322485	-1.3071039416	 1.7600268823	 0.106668
H	 3.3791476132	 2.3145392053	 3.5051706991	 0.129191
H	 1.9746025109	 0.7051129109	 5.3164006129	 0.149653
