23
gdb 58417	1.96374	1.31133	1.25317	2.0107	81.42	-0.2275	0.0539	0.2814	1237.7802	0.202924	-425.409334	-425.398515	-425.397571	-425.444588	40.818	
C	 0.22163763	 1.3728984656	 0.3192971876	-0.40598
C	-0.1324467653	-0.0770123818	-0.0458963309	 0.007074
C	-1.6476755716	-0.2719313543	-0.2088469455	-0.406724
C	 0.6438808497	-0.550814119	-1.2765250751	 0.265786
C	 0.3489794552	 0.1428644939	-2.5958410498	-0.472376
C	 2.0831644481	-1.0174647898	-1.0861955602	 0.043105
O	 2.6545615845	-1.0734284092	 0.1860632327	-0.435637
C	 0.9937555451	-2.0206871391	-1.3993793194	-0.030649
O	 0.6223516023	-2.8585224091	-0.3275693558	-0.430665
H	 1.2993152874	 1.4810165287	 0.4705055959	 0.128927
H	-0.0898311574	 2.0788939681	-0.4583494684	 0.107896
H	-0.2830963622	 1.6674447885	 1.2455461093	 0.105372
H	 0.1812615958	-0.7027299582	 0.7938627148	 0.076454
H	-2.0559486719	 0.3570205536	-1.007623956	 0.109256
H	-1.8867806001	-1.3144448945	-0.4395415104	 0.120713
H	-2.1695103746	-0.0023195797	 0.7155115697	 0.107038
H	 0.5291531856	 1.220639085	-2.5297606716	 0.123332
H	 0.9917133116	-0.2436575076	-3.393953107	 0.109923
H	-0.6886720477	-0.0095235181	-2.9117021612	 0.120223
H	 2.8157172942	-0.7565052009	-1.8456346753	 0.091313
H	 2.1991929654	-1.7882152691	 0.6525405353	 0.283912
H	 0.9301386681	-2.4892598433	-2.3799876584	 0.085443
H	 1.1131261179	-3.6827945597	-0.4177066004	 0.296263
