14
gdb 83078	2.87143	1.55365	1.31348	2.9923	62.65	-0.2472	-0.0348	0.2125	960.4718	0.099974	-473.812951	-473.805302	-473.804358	-473.845141	28.114	
O	 0.1623176505	 1.1451222978	-0.0340587816	-0.412789
C	-0.1407576506	-0.1960195142	 0.0400958306	 0.072281
C	-0.7070060702	-0.7902307701	 1.2714106967	-0.045843
O	-1.2562381096	 0.1542491971	 2.1760467828	-0.22984
C	-2.3261867309	 0.715249163	 1.5256121863	 0.081256
N	-2.6202566001	 0.2940131299	 0.3660459724	-0.283879
C	-1.6243636636	-0.6788928224	 0.0260206267	 0.176996
C	-1.968413731	-1.8127917008	-0.8523515484	 0.071454
O	-1.2147964223	-2.7342309524	-1.0694036468	-0.278258
H	 0.2351508856	 1.4904398888	 0.8638385586	 0.30393
H	 0.4923183898	-0.8495234134	-0.5537594193	 0.147311
H	-0.3681137584	-1.7100776392	 1.7314357668	 0.140273
H	-2.841904657	 1.4831782937	 2.087272428	 0.158452
H	-2.9762762421	-1.7459890978	-1.3113420328	 0.098654
