20
gdb 82567	3.17133	1.39206	1.18877	2.714	78.14	-0.2343	0.0698	0.304	1104.9938	0.17128	-403.077559	-403.069422	-403.068478	-403.110206	31.566	
C	-0.2286838786	 1.5213715986	-0.0232394394	-0.422538
C	 0.0468860329	 0.0351412578	-0.0268604148	 0.025001
C	 0.6009541506	-0.7443489004	-1.150478395	-0.045905
C	 1.658879847	 0.0264156657	-1.9349813439	-0.343803
C	 2.3988061521	 0.2035604906	-0.5904956742	 0.303442
C	 3.8487128072	-0.285229945	-0.4329405423	-0.126358
O	 4.2954119808	 1.0237007109	-0.0215497803	-0.277716
C	 2.948787426	 1.5318210831	-0.0346380939	-0.127947
N	 1.3758669121	-0.5968097897	 0.1629362126	-0.191266
H	 0.4210150082	 2.084732026	-0.6961339923	 0.125963
H	-1.2618315759	 1.6999845451	-0.3399523616	 0.124015
H	-0.1158478992	 1.9352427576	 0.984155711	 0.13011
H	-0.6794181115	-0.5229821605	 0.5623293534	 0.098053
H	 0.1860373393	-1.7009887165	-1.4523311232	 0.09503
H	 2.2181152124	-0.5994571808	-2.6339360455	 0.113896
H	 1.3276981997	 0.9263165827	-2.4628461006	 0.105606
H	 3.969086565	-1.035895631	 0.3576386346	 0.111906
H	 4.3513766275	-0.6244756051	-1.3475469625	 0.097114
H	 2.8458784218	 2.4113132166	-0.6836652004	 0.099508
H	 2.5913519626	 1.7804411241	 0.9728090683	 0.10589
