19
gdb 63727	3.09676	1.20449	1.04632	3.4392	78.07	-0.2426	-0.0169	0.2256	1200.1246	0.156929	-423.014392	-423.005438	-423.004494	-423.047677	34.345	
C	-0.1270307684	 1.5757463004	 0.0542722806	-0.447919
C	 0.0578340281	 0.0643319061	 0.0117114305	 0.410367
O	-1.1894379403	-0.5943524346	-0.13935083	-0.477129
C	 1.1516874644	-0.5181139717	-0.9559218755	-0.36375
C	 1.7945375954	-1.2457088879	 0.2247126209	 0.282185
C	 2.19640371	-0.2621811182	 1.3035890185	-0.350687
C	 0.7574183838	-0.6127165525	 1.2012346591	-0.110887
C	 2.2441259982	-2.6391553456	 0.2313650531	 0.053426
O	 2.3030726118	-3.347525154	-0.7465475542	-0.27154
H	 0.816004988	 2.0984668247	 0.2382439926	 0.11724
H	-0.5203931182	 1.9379337429	-0.9037443403	 0.111492
H	-0.8377104774	 1.8475732343	 0.8403715858	 0.128486
H	-1.5825778205	-0.2992371301	-0.9680396895	 0.277994
H	 0.7128104861	-1.2124322195	-1.6736992197	 0.127861
H	 1.7912078895	 0.2004148123	-1.4779922551	 0.093832
H	 2.7182490008	-0.6914846319	 2.1538854785	 0.127978
H	 2.5679957836	 0.7132588493	 1.0013275024	 0.120546
H	 0.2176309488	-1.113784146	 1.9955901934	 0.110167
H	 2.525156816	-3.0212976882	 1.2414983689	 0.060339
