20
gdb 77879	2.07354	1.63015	1.29285	3.4925	80.68	-0.227	0.0196	0.2466	1125.5218	0.169465	-403.152424	-403.142784	-403.14184	-403.186482	35.144	
C	 0.2354939407	 1.5948562562	 0.0613053087	-0.426013
C	 0.1692265366	 0.0830503169	 0.078152465	-0.060665
C	 1.3294615457	-0.8479211452	-0.1671328451	-0.080491
N	 2.5764165126	-0.3392746363	 0.406749468	-0.081644
C	 3.5991240401	 0.4819165611	-0.2030609329	-0.347373
C	 2.0254753637	-0.2163941486	 1.679517866	 0.349987
O	 2.4749849567	 0.2237106564	 2.7046937677	-0.371491
C	 0.6885977757	-0.8087475777	 1.2143092814	 0.141245
C	-0.133775142	-1.8158465877	 1.9625042884	-0.497904
H	 1.1652395341	 1.9698201844	 0.4952163122	 0.138849
H	 0.1564226517	 1.9773043475	-0.9622801473	 0.118615
H	-0.5898901933	 2.0201385796	 0.6415698791	 0.126874
H	-0.7643296488	-0.3149823572	-0.3225744266	 0.091339
H	 1.3395159695	-1.6638591468	-0.8798220208	 0.106684
H	 3.1756604322	 1.2841713974	-0.8218009119	 0.120703
H	 4.1868066292	 0.9301207466	 0.6024737344	 0.155752
H	 4.2672093872	-0.120505984	-0.8274450734	 0.127259
H	-0.5988344683	-1.3589683335	 2.8426209207	 0.13809
H	-0.9340025646	-2.2197861969	 1.3344098198	 0.119275
H	 0.4803805713	-2.6530001522	 2.3104917768	 0.130908
