25
gdb 103836	2.5839	0.93863	0.88337	1.3264	89.7	-0.2481	0.0737	0.3218	1544.1282	0.226055	-389.490107	-389.478898	-389.477954	-389.526086	42.043	
C	-0.0131935046	 1.6000460365	 0.1170614243	-0.398627
C	-0.0219224007	 0.0802746072	 0.3269052315	-0.22822
C	-1.3747372738	-0.5467483519	 0.0427733131	 0.39734
O	-2.4047336361	-0.0798020115	 0.8852192226	-0.478387
C	-1.7707430379	-0.9062706542	-1.3737578482	-0.375118
C	-1.5432566666	-1.9909498749	-0.3341360789	-0.016986
C	-0.4110405753	-2.9965344159	-0.4532798651	 0.010448
C	-0.0309941413	-3.5643255922	 0.9225771644	-0.387318
C	-0.7924127306	-4.1204250994	-1.4289877541	-0.383698
H	 0.9778165429	 2.018798561	 0.3147881209	 0.115484
H	-0.2892807973	 1.8601195402	-0.910812759	 0.116734
H	-0.7155484343	 2.0976103703	 0.7944990497	 0.112103
H	 0.7365539502	-0.3774059964	-0.3161966881	 0.097379
H	 0.2598063333	-0.1450934286	 1.3628476981	 0.104455
H	-2.6200299153	 0.8199322781	 0.6170889483	 0.280045
H	-2.789779241	-0.6999831477	-1.6825300335	 0.106393
H	-1.0256383446	-0.7919375348	-2.1564129855	 0.103309
H	-2.4604489823	-2.4152198405	 0.0699627116	 0.089341
H	 0.4685774689	-2.4856118207	-0.8663973817	 0.066862
H	-0.8838749987	-4.081897035	 1.3771977143	 0.113834
H	 0.7896335503	-4.2851789642	 0.8409226083	 0.106343
H	 0.2797499923	-2.7722263819	 1.6103736771	 0.117676
H	-1.0477073444	-3.7202128542	-2.4151365418	 0.113179
H	 0.0302748816	-4.8325904776	-1.5526927858	 0.105906
H	-1.6619279345	-4.6773764321	-1.0601362125	 0.111523
