25
gdb 90453	3.37741	1.05625	1.04846	0.1027	92.86	-0.2514	0.0818	0.3331	1356.9118	0.229368	-352.370776	-352.361024	-352.36008	-352.404719	38.081	
C	-0.786048877	 1.0705837278	-0.1931212741	-0.409252
C	 0.2346407192	-0.0665000507	-0.0899500805	 0.044248
C	 1.2617229955	-0.0754061862	-1.2598903215	-0.246168
C	 2.6240491396	-0.4084704262	-0.6677385902	-0.080241
C	 2.5127497674	-0.3709553908	 0.8468403711	-0.080241
C	 1.0797469273	-0.0140659877	 1.2164887188	-0.246166
C	 2.8467480394	-1.6719492451	 0.1417654345	 0.334202
C	 1.9080744841	-2.8640673208	 0.1023174622	-0.468178
C	 4.3032521966	-2.0990229558	 0.259377722	-0.445239
H	-0.2868099062	 2.04667487	-0.1806133397	 0.111771
H	-1.3648906382	 1.0038229069	-1.1208885256	 0.110544
H	-1.4944562561	 1.0474976724	 0.6422785165	 0.110544
H	-0.3289257137	-1.0043824296	-0.1081309774	 0.076897
H	 0.9556895966	-0.7622000766	-2.0578059567	 0.094023
H	 1.3153411432	 0.9218655284	-1.7141984468	 0.093374
H	 3.4928106208	 0.0059788	-1.1706384724	 0.070324
H	 3.3002154613	 0.0708947704	 1.4502383655	 0.070324
H	 1.0700290969	 1.00455547	 1.6240886273	 0.093374
H	 0.6579448409	-0.6618363739	 1.9939770554	 0.094023
H	 0.8560124553	-2.5926026463	 0.0182041366	 0.118286
H	 2.14969609	-3.5122962077	-0.748768344	 0.11208
H	 2.0203095937	-3.4686385335	 1.0105165218	 0.112081
H	 4.4704329982	-2.6817253741	 1.1734121608	 0.109805
H	 4.60007124	-2.7254015556	-0.5906215017	 0.109805
H	 4.9757272851	-1.2359927455	 0.2874300781	 0.10978
