19
gdb 75562	2.14394	1.59821	1.03945	3.5966	79.29	-0.2367	-0.0236	0.2131	1187.7098	0.158292	-423.039723	-423.030937	-423.029993	-423.073618	32.482	
C	-0.122358876	 1.5320294795	 0.0471719945	-0.491191
C	 0.0234273092	 0.0339607535	-0.0062543877	 0.276192
C	 0.1010213434	-0.6450099814	-1.1521245455	-0.156959
C	 0.1516668729	-2.1469137054	-1.2085878061	-0.257841
C	-0.3738651733	-2.7131177047	 0.1079499537	-0.076532
O	 0.2742189428	-2.0967373205	 1.2083955155	-0.245443
C	 0.0383739674	-0.7208066581	 1.3199260973	-0.037679
C	 1.087803114	-0.1414608911	 2.2717741389	 0.145752
O	 2.030294216	-0.743639568	 2.7033862339	-0.228934
H	 0.7628600482	 2.0239901765	 0.467699611	 0.135131
H	-0.2824621834	 1.9381532288	-0.9547943746	 0.128841
H	-0.9740790734	 1.830491416	 0.6717011261	 0.125804
H	 0.0964987967	-0.0985093941	-2.0925956658	 0.086561
H	-0.4545857353	-2.5180319038	-2.0441976667	 0.104389
H	 1.1768776054	-2.498199343	-1.3864878003	 0.123233
H	-1.4642420943	-2.5648773713	 0.1703429963	 0.090553
H	-0.1696428726	-3.7825377744	 0.2039994829	 0.112581
H	-0.9352782122	-0.5269420785	 1.8225607846	 0.086088
H	 0.8884512446	 0.91554296	 2.5574466419	 0.079456
