21
gdb 122640	3.82626	0.74617	0.66431	2.7	76.68	-0.2431	0.0578	0.301	1745.3883	0.179983	-461.325895	-461.315474	-461.31453	-461.362982	36.012	
C	 0.0025768767	 1.4673345599	-0.0792983371	-0.384499
C	 0.1703797704	-0.0393409219	 0.0219664359	-0.024306
O	 0.5895199539	-0.5305223211	-1.2339250056	-0.248577
C	 0.7720183802	-1.9277346369	-1.2519853731	-0.054989
C	 1.2866271104	-2.3124216005	-2.6253631661	 0.097428
O	 2.6907524017	-2.0162304737	-2.8225102044	-0.286078
C	 3.026366732	-3.4122422896	-2.9405680812	-0.097518
C	 1.5365872061	-3.8174648286	-2.8707499375	 0.042266
O	 1.1256028955	-4.6344701763	-1.7997074202	-0.422982
H	 0.9476961946	 1.9385262148	-0.3633457408	 0.129414
H	-0.7463144788	 1.7201077163	-0.83534762	 0.12441
H	-0.3190096635	 1.8814075073	 0.8810963984	 0.11183
H	 0.912852272	-0.2948585171	 0.7970928287	 0.085843
H	-0.7795538627	-0.5164206969	 0.3199117117	 0.081701
H	 1.4878858909	-2.2461299512	-0.4791586682	 0.095805
H	-0.1771479297	-2.4556376707	-1.0592693602	 0.093869
H	 0.674538526	-1.8091232337	-3.3834778207	 0.086705
H	 3.5596722461	-3.6318662097	-3.8735230495	 0.098086
H	 3.6125219944	-3.7772014301	-2.0865619573	 0.100171
H	 1.1308170434	-4.1756167281	-3.8246738783	 0.080627
H	 1.3068131407	-5.551933932	-2.0246754645	 0.290794
