19
gdb 62455	3.50635	1.17409	1.1592	3.4624	80.28	-0.2647	0.0313	0.296	1147.8706	0.161936	-382.084451	-382.076149	-382.075205	-382.117052	32.08	
N	-0.1946237288	 1.4671617945	 0.0888421364	-0.560004
C	-0.078062354	 0.0316813257	 0.0345898755	 0.124752
C	 1.0296482678	-0.4837378968	-0.7469953054	 0.236613
N	 1.9264852091	-0.8506900732	-1.3809755155	-0.349018
C	-0.4595710576	-0.8165149029	 1.248844128	-0.067477
C	-1.2238123	-0.1475016297	 2.3834789954	-0.228257
C	-2.4798279007	 0.4984016145	 1.7426373678	-0.199701
C	-2.6674298465	-0.1884800485	 0.3647951122	-0.228253
C	-1.333953171	-0.8413112166	 0.0261106577	-0.067485
H	 0.645865791	 1.8777675037	 0.4840029716	 0.244239
H	-0.304353423	 1.850840223	-0.844925434	 0.244241
H	 0.2064153988	-1.638607611	 1.4841864679	 0.105734
H	-1.5030632956	-0.9270532328	 3.1011446309	 0.106244
H	-0.6211354249	 0.5851012643	 2.9292209003	 0.10483
H	-3.3627523006	 0.3778513591	 2.3764926082	 0.093749
H	-2.3121682963	 1.5651815922	 1.6010873807	 0.122977
H	-3.4217487623	-0.9815025154	 0.4181636185	 0.106247
H	-3.0028469855	 0.5175196168	-0.4012434369	 0.104833
H	-1.3253853899	-1.6820494069	-0.6578828592	 0.105735
