17
gdb 112246	2.22401	1.43715	0.92477	5.901	73.5	-0.2449	-0.0157	0.2292	1230.0219	0.135427	-455.158502	-455.149419	-455.148474	-455.192868	32.185	
O	-0.1024832714	 1.4382102304	 0.2787365474	-0.41811
C	 0.0106992242	 0.0587101634	-0.0366638345	-0.08848
C	-1.3817635452	-0.5391976905	 0.0225215581	 0.043721
C	-1.4788162979	-2.0816772788	-0.1141153034	-0.418745
C	-2.0748715872	-2.0741910974	 1.3095227721	 0.437138
O	-2.4911057844	-2.8950768192	 2.069725429	-0.322332
N	-1.9471807623	-0.6764453679	 1.3806929791	-0.10093
C	-2.290281993	 0.3030484913	 2.302854668	 0.056627
N	-2.8096233513	 0.0249916561	 3.4272869281	-0.415068
H	 0.7806588865	 1.8091224037	 0.36384737	 0.296265
H	 0.4187110879	-0.0912484761	-1.0489488969	 0.100613
H	 0.6630605917	-0.46867481	 0.6757074104	 0.100897
H	-2.0455681428	 0.0154914859	-0.6491536322	 0.104068
H	-2.1593650241	-2.4475052075	-0.8841809519	 0.141151
H	-0.523737709	-2.6064291461	-0.1923468148	 0.134794
H	-2.0429591073	 1.2999127617	 1.925064228	 0.120109
H	-2.9844736145	 0.8848113008	 3.9455362733	 0.228281
