21
gdb 73846	2.51518	1.56212	1.10288	1.8801	85.04	-0.2271	0.0238	0.2509	1173.9322	0.182784	-387.099742	-387.090933	-387.089988	-387.133135	33.328	
C	 0.126120648	 1.4819929022	 0.1644303912	-0.49256
C	-0.0549079794	-0.0008526832	 0.062956683	 0.216479
C	-0.0552396518	-0.7607580658	-1.0436167191	 0.220382
C	 0.1496020549	-0.3572434747	-2.4702001397	-0.508242
C	-0.2588620497	-2.2152327929	-0.7053285092	 0.041783
O	 0.9653443003	-3.0038749305	-0.7686792997	-0.297047
C	 1.0855296415	-2.9777919281	 0.6702669261	-0.079898
C	-0.2776014953	-2.2690261532	 0.8389904909	-0.078389
C	-0.27564547	-0.813745013	 1.3276038086	-0.321166
H	 1.0013194283	 1.7280666437	 0.7796562731	 0.126353
H	 0.2554702253	 1.95895922	-0.8097243814	 0.12451
H	-0.7374133795	 1.9484592512	 0.6563755491	 0.124811
H	 0.346628866	 0.7110565593	-2.5867783715	 0.119545
H	 0.9956138116	-0.9081925507	-2.8985647801	 0.142343
H	-0.7282710632	-0.6067880172	-3.0803708953	 0.122692
H	-1.0531849779	-2.7009014309	-1.2861032533	 0.067559
H	 1.1598407304	-3.9897111235	 1.0856274745	 0.099329
H	 1.9525152114	-2.3911986975	 1.0043604992	 0.093901
H	-1.0465057531	-2.8895564169	 1.2992821948	 0.075941
H	 0.509585809	-0.623867969	 2.0730362045	 0.100294
H	-1.2224139165	-0.5394165294	 1.8136869644	 0.101379
