13
gdb 46660	2.45462	1.75694	1.51622	5.8546	62.08	-0.2971	-0.0283	0.2688	899.3454	0.090474	-452.761691	-452.754648	-452.753704	-452.793618	25.598	
O	-0.0260979994	-0.0180578054	 0.0185590056	-0.315977
C	-0.0159639624	 1.1684069435	 0.0195662923	 0.4718
O	-1.1359541909	 1.9415322448	 0.0676622645	-0.221102
C	-0.8184765979	 3.3352363136	 0.0266132852	-0.115128
C	 0.7023237828	 3.3790757179	 0.0235825148	-0.055548
C	 1.4296211794	 2.7772883259	 1.1808832144	-0.177742
C	 0.733270284	 2.4935196771	 2.4103211853	 0.323118
N	 0.1859085889	 2.2962373143	 3.4094180326	-0.322777
N	 1.1704688533	 1.9973425538	-0.065944961	-0.181413
H	-1.222033875	 3.7658134488	-0.8940962767	 0.142532
H	-1.2771287576	 3.8266028464	 0.8892078442	 0.154748
H	 1.2092568339	 4.1171258071	-0.5884484507	 0.136048
H	 2.480999201	 3.0127739222	 1.3134110396	 0.161441
