17
gdb 19108	4.50509	2.24116	2.17965	1.5283	69.66	-0.2156	0.0852	0.3008	718.8837	0.143978	-326.632075	-326.626151	-326.625207	-326.661684	24.712	
C	-0.0617810127	 1.6175073011	 0.0204687787	-0.416092
C	 0.0227294586	 0.1074212352	-0.0514442352	 0.064684
C	 0.7135376711	-0.6237126295	-1.224732523	-0.096457
C	 2.2025232937	-0.200133046	-1.1648625858	-0.084538
C	 2.6353980286	-1.4357269686	-0.3912093218	-0.120365
C	 2.359482182	-0.1688461747	 0.3594304407	-0.021332
N	 1.0135838396	-0.5865520659	 0.8667778753	-0.170547
C	 1.1297763617	-1.7134531038	-0.1813145281	-0.00502
H	 0.9048292493	 2.0809229679	-0.1987370266	 0.119965
H	-0.7915042029	 1.9982989058	-0.7020248812	 0.115488
H	-0.3757744564	 1.9380732143	 1.0193355822	 0.125525
H	-0.9556054929	-0.3462855876	 0.1496429083	 0.076226
H	 0.2513103497	-0.8208741993	-2.1920100747	 0.063161
H	 2.7744953733	 0.4207097409	-1.8402228386	 0.088734
H	 3.5136812464	-2.0629906143	-0.4510893034	 0.093675
H	 3.0213274064	 0.4937276677	 0.9009235357	 0.090146
H	 0.6230195646	-2.6574242932	 0.0087776074	 0.076746
