23
gdb 115912	3.50593	1.11456	0.94469	1.1901	85.41	-0.2439	0.0818	0.3256	1344.2625	0.207527	-388.294156	-388.285399	-388.284454	-388.327555	34.364	
C	 0.0414530648	 1.5424295635	 0.0936705378	-0.387959
C	-0.0203473692	 0.0139545817	 0.047831445	-0.188405
C	-1.442548413	-0.5349500453	-0.0144496836	 0.154147
C	-1.4865353224	-2.0600368951	-0.1983388602	-0.241071
C	-2.8457174239	-2.6562717316	 0.1645331921	-0.033968
C	-3.2031244032	-2.8695318316	 1.6179438496	-0.281014
C	-3.8814569475	-1.7780818487	 0.836579812	-0.029442
C	-3.5069739453	-0.3348131316	 1.1066113684	-0.101601
O	-2.1051048794	-0.1540230309	 1.1905088502	-0.259768
H	 1.074411337	 1.8939971601	 0.1755726547	 0.107917
H	-0.3895571452	 1.9834547746	-0.8123089076	 0.107972
H	-0.5199021446	 1.9218422914	 0.9511080487	 0.133294
H	 0.5316262463	-0.3638255456	-0.8218242911	 0.092935
H	 0.4659969682	-0.4079454868	 0.936175393	 0.103015
H	-1.9751760364	-0.0631980206	-0.8603906604	 0.056438
H	-1.2463112229	-2.2907073974	-1.2422331876	 0.096448
H	-0.6987422678	-2.5196795225	 0.4117963838	 0.099495
H	-3.2224618565	-3.4011131406	-0.5290932958	 0.081199
H	-3.7777136495	-3.7486812504	 1.8881789967	 0.104105
H	-2.4645232325	-2.5639414388	 2.3525525365	 0.11807
H	-4.92149495	-1.9284172031	 0.5614226454	 0.080345
H	-3.9202203007	 0.3112422981	 0.3123861074	 0.084165
H	-3.9160008162	 0.008607671	 2.063440115	 0.103684
