20
gdb 110840	2.69865	1.24437	1.0897	2.1511	80.41	-0.2158	0.0099	0.2258	1214.2468	0.17108	-403.123917	-403.11508	-403.114135	-403.157438	33.534	
C	-0.1183941457	 1.5147399167	 0.0575807711	-0.495107
C	-0.0468478232	 0.0232427088	-0.0009250753	 0.316564
C	-0.0437016683	-0.7711487744	-1.0747053836	-0.185167
C	 0.0786850915	-2.2012738539	-0.6796540523	-0.092412
C	 1.3168293554	-2.6474579167	 0.0296560362	-0.02604
C	 2.6237155851	-1.8932284698	 0.0558816792	-0.086529
O	 3.3868088839	-2.2106006495	 1.2158959068	-0.42559
N	 0.1210573687	-2.2436486663	 0.8061451635	-0.12893
C	 0.0662002827	-0.8306700722	 1.249796779	-0.262696
H	 0.7926851094	 1.9412293862	 0.4964736218	 0.130992
H	-0.2492183857	 1.9513229251	-0.9359594569	 0.128834
H	-0.9520694671	 1.8457755807	 0.6898731327	 0.129185
H	-0.1275670919	-0.446143878	-2.1049928678	 0.096673
H	-0.5371664157	-2.9444632186	-1.1824759186	 0.093235
H	 1.4694993101	-3.7243683378	 0.0958198604	 0.098899
H	 3.2371114607	-2.2086303542	-0.7954777958	 0.111999
H	 2.4680947239	-0.8122043809	-0.0398354514	 0.094107
H	 2.8124222817	-2.1044416898	 1.9810883677	 0.288262
H	 0.9468773106	-0.5637916247	 1.85234753	 0.099868
H	-0.804035256	-0.7013999906	 1.9082930533	 0.113851
