16
gdb 49794	2.4508	1.57948	1.03224	3.362	72.76	-0.2505	-0.0267	0.2238	1116.807	0.124054	-437.905029	-437.896784	-437.89584	-437.939535	29.419	
N	 0.0963201675	 1.1853291045	 0.5815513273	-0.510405
C	 0.1007767443	 0.0523794459	 0.0135042284	 0.375364
O	 1.2364125234	-0.469662585	-0.5116825735	-0.255372
C	 1.2376203076	-1.5953714819	-1.3985154942	-0.120564
C	 0.0414398226	-2.482218203	-1.291039522	-0.10502
C	-1.0596180261	-2.111943309	-0.6523147406	-0.041813
C	-1.1796667001	-0.7651798931	-0.0108486372	-0.249486
C	-1.7740252229	-0.8450103892	 1.4092234129	 0.152442
O	-2.3082590202	-1.8288297066	 1.845144282	-0.240378
H	 1.0239398435	 1.6105185902	 0.5388352749	 0.224018
H	 1.3534150584	-1.2165272747	-2.4252449249	 0.127708
H	 2.1523399153	-2.1508157102	-1.1621901264	 0.133882
H	 0.1232231087	-3.453894052	-1.7688314312	 0.109914
H	-1.9131235135	-2.7725458573	-0.5536619655	 0.123892
H	-1.9152411222	-0.1523216513	-0.5580217875	 0.14877
H	-1.6814163363	 0.0975956827	 1.9811028076	 0.127047
