13
gdb 129436	4.01413	1.31346	0.98964	1.3783	66.81	-0.253	-0.0881	0.1649	1087.1557	0.091264	-448.969199	-448.96191	-448.960966	-449.001322	26.64	
N	-0.0802943331	 1.3185848636	 0.0086708766	-0.537303
C	 0.0524226687	-0.0262694342	 0.0030397791	 0.369696
O	 1.1095369049	-0.6312503415	-0.0081149117	-0.358099
C	-1.258423521	-0.7746394593	 0.0114582313	 0.230922
C	-1.26755087	-2.1742241664	 0.0071753699	-0.010915
N	-2.4142945483	-2.837597872	 0.0144859686	-0.23667
C	-3.5070892954	-2.0636401815	 0.0257678008	 0.11398
N	-3.5505271312	-0.7308712086	 0.0303070234	-0.180463
N	-2.3926602706	-0.0796585471	 0.0228733862	-0.25779
H	 0.7460541777	 1.8917777766	 0.0026438889	 0.270047
H	-0.9995269021	 1.7309813101	 0.0169145417	 0.282901
H	-0.3343810552	-2.7281332431	-0.002189197	 0.16614
H	-4.4716125646	-2.5625636166	 0.0322331123	 0.147554
