13
gdb 15751	3.93975	1.40342	1.11131	1.6111	57.98	-0.2798	-0.0402	0.2396	1018.5108	0.094112	-435.733849	-435.726176	-435.725232	-435.766883	25.929	
N	-0.0856280815	 1.0670216051	-0.74075394	-0.415146
C	-0.0300439612	-0.048368775	-0.1655889716	 0.120155
O	-0.9907396469	-0.9803066673	-0.4843560623	-0.200027
C	-0.9937700903	-2.1597067247	 0.204642935	 0.458358
O	-0.2444638621	-2.4345260569	 1.102271437	-0.345757
C	-2.075308163	-3.0718835606	-0.2841063788	-0.0457
C	-3.3759496477	-2.5408313854	-0.742323548	-0.16542
O	-2.4133735311	-3.0216810488	-1.6657701272	-0.204691
H	 0.6831714775	 1.6571247102	-0.425623492	 0.243272
H	 0.6849749378	-0.4127040391	 0.5719027002	 0.147239
H	-2.018861788	-4.0618891518	 0.1611617986	 0.128807
H	-4.2597914219	-3.1624083494	-0.6101242945	 0.132307
H	-3.5342715616	-1.4653678763	-0.7515484063	 0.146604
