21
gdb 66352	2.28415	1.39149	1.2906	1.0936	83.61	-0.2432	0.0543	0.2975	1143.933	0.18263	-387.071409	-387.062502	-387.061558	-387.104285	35.265	
C	-0.0192655404	 1.5414920794	 0.0106771871	-0.424269
C	-0.0366670671	-0.0006382709	 0.0025620381	 0.069065
C	 0.69256706	-0.5404520625	-1.257951536	-0.215173
C	 0.8892173652	-2.0558083306	-1.188823065	-0.0883
O	 1.5953716274	-2.4389525274	-0.0203620449	-0.246587
C	 0.9035064969	-2.0683299636	 1.1606180101	-0.088298
C	 0.7078222341	-0.5538107101	 1.248284626	-0.215174
C	-1.4306408856	-0.4606362115	 0.0085858959	 0.366652
C	-2.5786853539	-0.8199968737	 0.0136927676	-0.524293
H	 1.0131792219	 1.9061737892	 0.0063339166	 0.113634
H	-0.5309800052	 1.9413344815	-0.8696467096	 0.122122
H	-0.5201955812	 1.9318951598	 0.9013792339	 0.122123
H	 0.1333020137	-0.273499931	-2.1610451959	 0.101322
H	 1.6750073708	-0.0569871563	-1.3172777776	 0.100578
H	-0.0891866742	-2.5617826134	-1.2258932405	 0.09984
H	 1.4852409432	-2.4073233598	-2.0360260888	 0.104448
H	-0.0744114798	-2.5747250843	 1.2041894054	 0.09984
H	 1.5097645586	-2.4288193345	 1.9967150121	 0.104447
H	 1.6909477271	-0.0709506697	 1.3008034341	 0.100579
H	 0.1596092487	-0.2965359061	 2.1609132367	 0.101323
H	-3.5918664201	-1.1382728643	 0.0181479646	 0.196123
