18
gdb 98512	2.27548	1.3842	0.94656	1.7243	74.1	-0.26	-0.0393	0.2207	1257.1332	0.145212	-439.093039	-439.083514	-439.08257	-439.128069	33.748	
C	-0.185765805	 1.6634060789	-0.3432606296	-0.38579
C	-0.3811771153	 0.2057011834	-0.7524135382	-0.283839
C	 0.9186355397	-0.5371590718	-0.9518729183	 0.30414
O	 2.0026881318	-0.0275130591	-0.7478995912	-0.329708
C	 0.8868351154	-1.969367392	-1.4534366213	 0.118106
C	 1.7040484495	-2.1921979852	-2.7139160536	-0.242191
N	 2.1864396005	-2.6799951676	-1.4474825369	-0.331946
C	-0.2738525364	-2.8888176044	-1.2572411748	 0.111786
O	-1.376916065	-2.5773427316	-0.8839740109	-0.266515
H	 0.3725666437	 1.7361020233	 0.5933263085	 0.133436
H	 0.3769385407	 2.2156366991	-1.1005832541	 0.127388
H	-1.1543514143	 2.151816233	-0.2076072931	 0.11502
H	-0.9722529694	-0.3553388981	-0.0192224684	 0.157296
H	-0.9654896546	 0.1151239551	-1.6777307892	 0.129859
H	 1.3756777246	-2.9485683242	-3.4225622594	 0.135994
H	 2.1464344967	-1.2989291753	-3.1468512905	 0.144885
H	 2.8593891416	-2.0108104238	-1.0681004861	 0.260046
H	-0.011952404	-3.9416676397	-1.498991263	 0.102034
