19
gdb 111653	2.28334	1.55332	1.21755	4.4019	74.71	-0.261	0.0104	0.2714	1112.744	0.160539	-423.065358	-423.057129	-423.056184	-423.098543	31.065	
C	-0.3571553589	 1.4131801787	-0.193566683	-0.378274
C	 0.2243684459	 0.0259595901	 0.1063194947	-0.222555
C	 0.8353432682	-0.6186773747	-1.1233965702	-0.001884
C	 0.9637194684	-2.0962354819	-1.34977599	-0.113464
C	 0.0691089699	-3.0106886029	-0.5273133302	-0.104104
O	-1.2865617997	-2.6106036106	-0.7863057027	-0.226736
C	-1.3626140906	-1.726031118	-1.831105205	 0.447063
O	-2.41105394	-1.3955531028	-2.3047990114	-0.347787
C	 0.0167570507	-1.2973613723	-2.2180405426	-0.209961
H	 0.4078949901	 2.0856098661	-0.5971168911	 0.112572
H	-1.1654928113	 1.3452694094	-0.92811947	 0.139606
H	-0.7618600728	 1.8730754512	 0.7127754116	 0.116306
H	 1.001917047	 0.107351705	 0.8767618406	 0.099304
H	-0.5590490043	-0.6124865674	 0.526344127	 0.123636
H	 1.6617800352	-0.0462021529	-1.5399073211	 0.098661
H	 1.8880792268	-2.5062635685	-1.7382654187	 0.103847
H	 0.1846743263	-4.0566147535	-0.8316398032	 0.123034
H	 0.2395606401	-2.9406688624	 0.551593624	 0.123608
H	 0.184798489	-1.0491381226	-3.2570638787	 0.117129
