16
gdb 41865	2.70591	2.23839	1.70459	2.0683	66.62	-0.2492	0.013	0.2622	827.3182	0.128238	-437.88793	-437.881768	-437.880824	-437.918512	24.896	
C	-0.0383195498	 1.511109496	-0.1691429163	-0.108437
O	 1.2716436716	 1.9900277103	 0.1731789261	-0.247681
C	 1.9810851013	 1.0101124283	 0.8740060249	 0.187124
O	 1.9405814355	 1.3143447306	 2.2876121086	-0.226672
C	 0.8067578782	 0.9737658668	 2.9396382931	 0.12721
N	-0.0963683239	 0.158040662	 2.5829847867	-0.269413
C	 0.1280170815	-0.5847398469	 1.3816316068	 0.000951
C	-0.0046232153	 0.0021362578	-0.0092092176	-0.084868
C	 1.3596147292	-0.3374156569	 0.54318441	-0.152007
H	-0.7849278819	 1.9889082096	 0.477033526	 0.120911
H	-0.2372124253	 1.7971597228	-1.206326147	 0.114307
H	 3.0398516779	 1.091565854	 0.6270179221	 0.10698
H	 0.7409410428	 1.493136939	 3.8937539068	 0.126678
H	-0.2154974691	-1.610987738	 1.4668297445	 0.103599
H	-0.469945746	-0.6125031683	-0.7698034133	 0.100975
H	 1.9915216531	-1.133670087	 0.1722931585	 0.100341
