21
gdb 97685	2.50696	0.82127	0.69702	1.2591	89.93	-0.2356	0.0344	0.27	1714.0007	0.180218	-387.046308	-387.035631	-387.034687	-387.083517	37.947	
C	-0.0903346053	 1.5426822614	-0.5018322093	-0.377115
C	-0.0631956722	 0.1412871571	 0.1147504367	-0.252222
C	-1.4294628349	-0.5412789225	 0.128395034	 0.180391
C	-1.8773015899	-1.2695216789	-1.133355385	-0.286189
C	-1.4737588248	-2.0626739812	 0.0748039321	-0.305459
C	-2.4472731938	 0.1162539209	 0.9053211148	 0.017762
C	-3.2846508691	 0.6848615911	 1.5604958014	 0.109701
C	-4.2949043384	 1.3496917039	 2.3707434627	-0.221267
O	-5.0175379413	 2.2861061593	 1.5766765564	-0.40976
H	 0.9027776071	 2.0014774578	-0.4743223635	 0.10822
H	-0.4180596628	 1.5077472042	-1.5460951463	 0.115097
H	-0.7818645137	 2.1929573246	 0.0418982545	 0.13408
H	 0.6345091909	-0.4969528612	-0.4410454671	 0.09088
H	 0.3154859428	 0.1955562876	 1.1427126524	 0.102503
H	-2.9280975136	-1.225731802	-1.3923740361	 0.12671
H	-1.1996954976	-1.2402654272	-1.9802869566	 0.115762
H	-0.5201552634	-2.5798636687	 0.0587605764	 0.114852
H	-2.2498959502	-2.560726296	 0.6433353694	 0.12238
H	-4.9702089655	 0.5904471872	 2.7990104682	 0.11314
H	-3.8024663127	 1.8494944572	 3.2212645379	 0.113621
H	-5.6699441017	 2.7021075254	 2.1496911968	 0.286915
