19
gdb 110889	2.87721	1.43713	1.1531	2.7521	74.91	-0.2292	-0.0201	0.2091	1123.2029	0.159664	-423.021735	-423.01365	-423.012706	-423.054514	31.012	
C	 0.0212481171	 1.5582310769	-0.072433771	-0.390279
C	 0.0021824224	 0.0286106041	 0.0094415921	-0.197017
C	-1.4161245529	-0.5571421129	 0.0507538674	-0.101146
C	-1.4770127403	-2.0948569166	 0.1784244249	 0.057412
C	-2.9415159294	-2.404702629	 0.5609390694	-0.254668
C	-2.432958375	-1.7212539404	 1.853234345	-0.028574
O	-1.1093480015	-2.2932352823	 1.5896834475	-0.297517
C	-2.184342774	-0.2816770062	 1.3709305038	 0.443614
O	-2.4780968311	 0.7598171991	 1.8902363715	-0.332187
H	 1.0488641441	 1.9340902059	-0.0722477717	 0.111269
H	-0.4621023087	 1.9094054108	-0.991129949	 0.110056
H	-0.5100170347	 2.0030467589	 0.7724377851	 0.148272
H	 0.5255268984	-0.3958230444	-0.8576213851	 0.094205
H	 0.5455020389	-0.3122948335	 0.89710471	 0.11828
H	-2.0002157024	-0.1864721408	-0.8009982113	 0.093744
H	-0.8972699528	-2.7003912064	-0.5179536512	 0.08955
H	-3.7521038548	-1.9415327638	-0.0079962855	 0.110469
H	-3.114416522	-3.4701096174	 0.7167279661	 0.124139
H	-2.8282013512	-1.887646542	 2.852947342	 0.100375
