19
gdb 24146	4.66385	0.86142	0.82398	0.7956	80.9	-0.2185	0.0236	0.242	1443.2476	0.160552	-385.903711	-385.895574	-385.89463	-385.937736	30.722	
C	-0.0968781057	 1.5637069252	-0.1159112224	-0.358603
C	-0.187771151	 0.0513809456	-0.2541953526	 0.045325
C	-0.1547733749	-0.823976532	 0.9697716047	-0.247517
C	-1.4335526888	-0.6767824028	 0.1786705012	-0.275759
C	 1.3140241785	 2.0704247742	-0.0240715943	 0.263946
C	 1.9321997188	 2.6033789271	 1.063937082	-0.103307
O	 3.2213183743	 2.9393738299	 0.7827835996	-0.142717
C	 3.432710269	 2.6122502914	-0.5183055031	 0.0058
C	 2.3103783768	 2.079517394	-1.0640298626	-0.279818
H	-0.6029172504	 2.0342641285	-0.9695337416	 0.106942
H	-0.6523521192	 1.8739641898	 0.7773645911	 0.09807
H	 0.3149859529	-0.3447837042	-1.1326978773	 0.083382
H	 0.3772408538	-1.7675350421	 0.9207794336	 0.110562
H	-0.0977292281	-0.3353003281	 1.9373257611	 0.107904
H	-2.2361464072	-0.0915943226	 0.6165857488	 0.108505
H	-1.7748886948	-1.5191729098	-0.4130248981	 0.109772
H	 1.6039783144	 2.8082725417	 2.0700206039	 0.129062
H	 4.4186150547	 2.8222400884	-0.8992434148	 0.132704
H	 2.1922653571	 1.7368658957	-2.0808128593	 0.105748
