15
gdb 14617	16.03178	0.61022	0.5944	1.3602	63.62	-0.27	-0.0403	0.2297	1713.9566	0.115864	-399.806998	-399.797889	-399.796945	-399.84261	29.26	
O	-0.2511159012	 0.2163513922	 0.5411035593	-0.230133
C	 0.0374697661	 1.1157748419	-0.2001747033	 0.139768
C	 1.3566014518	 1.8677097605	-0.1308838993	-0.150041
O	 1.354937607	 2.8488440477	-1.1391828779	-0.24815
C	 2.5347127076	 3.6163693435	-1.1816450382	-0.051209
C	 2.3649815411	 4.6263108439	-2.3227946519	-0.341214
C	 3.5350149003	 5.4867682738	-2.467221526	 0.248317
N	 4.4690709037	 6.159122282	-2.5666463344	-0.296136
H	-0.6398266435	 1.4763103163	-1.0056832037	 0.099414
H	 1.4623047236	 2.3097659768	 0.8736863703	 0.130445
H	 2.183149539	 1.1489096118	-0.2571258959	 0.130412
H	 2.6990801379	 4.1428208114	-0.2289001634	 0.118213
H	 3.4143416026	 2.9801638638	-1.3643826267	 0.118212
H	 2.1909736621	 4.0889830226	-3.2608622787	 0.166042
H	 1.4807700619	 5.2437357818	-2.1332074303	 0.166059
