15
gdb 9655	3.58332	1.39589	1.35289	2.8279	63.41	-0.2597	0.009	0.2687	973.0424	0.116608	-399.773602	-399.765127	-399.764183	-399.806498	30.098	
C	-0.4006563558	 1.0227723117	-0.1827690819	-0.244165
O	 0.5656559952	 0.0164871661	 0.0958630714	-0.227643
C	 1.015582563	-0.6317967917	-1.029754654	 0.097465
C	 1.5036444061	-2.029742709	-0.8487729031	-0.378889
C	 0.1822289584	-1.7982024437	-1.5794447935	 0.203952
O	-1.0117632099	-2.0494844825	-0.9107750199	-0.433653
C	 0.1473399773	-1.9929717209	-3.0107408219	 0.239196
N	 0.1202982803	-2.1508503163	-4.156957678	-0.343235
H	 0.0024166388	 1.7819577693	-0.868096571	 0.113617
H	-1.3081948673	 0.5890914202	-0.6176127486	 0.13774
H	-0.6424931078	 1.495719072	 0.7707377938	 0.134957
H	 1.5002146457	-0.0031966203	-1.7781858365	 0.113504
H	 2.3619992653	-2.3728855893	-1.4136308228	 0.142331
H	 1.3921628464	-2.4365687642	 0.1501612551	 0.14477
H	-1.1438653758	-3.0033839417	-0.865117409	 0.300054
