18
gdb 52905	1.72171	1.2351	0.78798	3.4642	82.37	-0.2338	-0.0193	0.2145	1475.6258	0.144642	-401.907084	-401.896869	-401.895925	-401.944619	34.764	
C	-0.1163577179	 1.5491879147	 0.1946677658	-0.501797
C	-0.0447355794	 0.0960432836	 0.1625357675	 0.107833
C	 0.014331783	-1.1077639672	 0.1401183086	 0.024953
C	 0.1181727973	-2.5438367115	 0.0684971637	 0.103949
C	 1.4033748824	-3.0808958945	-0.5464835063	-0.337764
C	 1.5519268557	-2.6726592655	-2.0003380785	 0.169038
O	 2.5847305742	-2.3182383243	-2.5063648782	-0.24454
C	-0.6181342764	-3.3583356475	 1.0833340226	-0.273278
N	-1.0972960379	-3.3197646524	-0.3026744075	-0.345743
H	 0.8083490394	 1.9939688335	-0.1883104296	 0.158904
H	-0.9425041143	 1.9206301713	-0.4215515668	 0.152378
H	-0.2672163791	 1.9197119283	 1.2145044172	 0.151441
H	 2.2861789971	-2.7526567218	 0.0084618403	 0.12446
H	 1.3620548942	-4.1775507934	-0.5203891051	 0.131733
H	 0.6110950407	-2.7451349394	-2.589706865	 0.088476
H	-0.1993739339	-4.3101456369	 1.3993434642	 0.123422
H	-1.1739200079	-2.8235130732	 1.8471406805	 0.125153
H	-1.8883422671	-2.6849232037	-0.3753597035	 0.241384
