20
gdb 109966	2.31608	1.34356	0.96397	4.3691	79.18	-0.2665	0.0194	0.2859	1260.7854	0.170992	-403.154568	-403.145192	-403.144248	-403.188714	34.892	
C	-1.0735468242	 1.0683665424	-0.0681039404	-0.418374
C	-0.0459912578	-0.0549348768	-0.0595468684	 0.022581
C	 1.3165146127	 0.170966863	-0.7693215099	-0.248859
C	 2.0014319103	-0.6537370875	 0.3635939989	-0.15217
C	 3.2789392914	-0.1930860456	 0.8792249579	 0.275326
N	 4.2698197401	 0.2083318541	 1.3237526899	-0.346782
C	 0.7246895417	-0.4224326987	 1.2529329769	-0.039057
C	 0.8642037812	 0.6924073241	 2.2915974141	-0.084946
O	 1.6321500615	 0.2846434656	 3.4082893605	-0.426602
H	-0.6546257225	 2.0110837983	 0.297622557	 0.123145
H	-1.4379654781	 1.2430896296	-1.0861994085	 0.121135
H	-1.9407739019	 0.8222987038	 0.5538951051	 0.124209
H	-0.5087690681	-0.9660440765	-0.4548345824	 0.083104
H	 1.4389538966	-0.2036905544	-1.7870778879	 0.115936
H	 1.624199577	 1.219342443	-0.7398410819	 0.122865
H	 2.0929230273	-1.706234336	 0.0831676633	 0.126581
H	 0.3809716934	-1.3206450298	 1.7715947341	 0.090512
H	 1.2739130492	 1.6069349544	 1.8368272989	 0.097519
H	-0.130142717	 0.9443184951	 2.6758359279	 0.113385
H	 2.5629751572	 0.3161382018	 3.1595039047	 0.300491
