18
gdb 13892	3.88076	1.53085	1.35332	2.6236	63.51	-0.2501	0.078	0.3281	971.4122	0.15359	-422.076656	-422.068275	-422.067331	-422.110224	30.003	
C	 0.531857162	 0.3904413934	-0.8738303346	-0.405284
C	 0.047311327	-0.2364653844	 0.4314570516	 0.103697
O	-0.0406314858	 0.7050647823	 1.4916709132	-0.437878
C	-1.3077387391	-0.9334675525	 0.287834508	 0.210421
O	-2.2829993482	 0.0186661358	-0.0842623606	-0.26786
C	-3.3008096458	-0.7278025895	-0.7326453474	-0.108103
C	-2.5076341961	-1.8211912831	-1.4687398449	-0.0878
O	-1.2921669921	-1.9206068825	-0.7284980068	-0.272039
H	 1.4919419967	 0.8855688413	-0.7097240202	 0.119393
H	 0.6522989937	-0.3748440284	-1.645072011	 0.126563
H	-0.1882423781	 1.1311183243	-1.2345628222	 0.116556
H	 0.7666368932	-0.9914427875	 0.7676007129	 0.097092
H	-0.7542123116	 1.3126365089	 1.2630064297	 0.287868
H	-1.5899744951	-1.3962283002	 1.2503747707	 0.070894
H	-3.9924211667	-1.1635843596	 0.0035449961	 0.104642
H	-3.856850919	-0.0609532139	-1.3946306301	 0.121257
H	-3.0263618604	-2.7861230502	-1.4736851521	 0.109901
H	-2.2799198145	-1.5371455041	-2.5031549222	 0.11068
