19
gdb 104771	2.64445	1.18257	0.94045	2.6257	73.42	-0.2634	-0.0476	0.2158	1279.9297	0.156109	-460.14545	-460.135442	-460.134498	-460.181193	35.375	
C	 0.9083325775	 0.3485593905	-0.6930855661	-0.388225
C	 0.1672663859	-0.5922361767	 0.2697755666	-0.268227
C	-1.3275504409	-0.6601626466	 0.0180959194	 0.344429
C	-2.165655959	 0.5806519136	 0.3117075455	-0.118714
O	-1.9568998204	 1.5975844787	-0.650747041	-0.405603
O	-1.7264967829	-1.299930761	-1.2008652905	-0.271643
C	-2.0648927342	-1.9644059499	 0.0111120041	-0.096441
C	-1.4024917012	-3.2712854763	 0.314563596	 0.1371
O	-0.4203102001	-3.7003019119	-0.2343915974	-0.243963
H	 1.9795640459	 0.3402793618	-0.4719837483	 0.112654
H	 0.7764176481	 0.0114420905	-1.7257055043	 0.129029
H	 0.5418958956	 1.3739593501	-0.6224521521	 0.139516
H	 0.5858530896	-1.5962835448	 0.1766730953	 0.138553
H	 0.3215152644	-0.2670033384	 1.3065346145	 0.099206
H	-3.2281291667	 0.3002653619	 0.3625927488	 0.093027
H	-1.8833991042	 1.0063022943	 1.279810822	 0.117187
H	-2.1465034232	 1.2061938916	-1.511698474	 0.29655
H	-3.1243622118	-1.941231127	 0.2742013043	 0.101657
H	-1.9076539824	-3.8359244003	 1.1308387971	 0.083907
