19
gdb 6210	3.62899	1.58611	1.47706	1.5642	72.11	-0.2373	0.0353	0.2727	977.7357	0.164357	-365.106731	-365.098084	-365.09714	-365.139852	31.959	
C	-0.2340041493	 1.4449357846	 0.1110023752	-0.474677
C	-0.0199558563	-0.0225525483	-0.0441962892	 0.399324
N	-0.1935498623	-0.698475882	-1.107094053	-0.309824
C	 0.1403958603	-2.0863088519	-0.7738024283	-0.226237
C	 0.5527765973	-2.0751370319	 0.7308897193	 0.364617
C	-0.3946378639	-2.8760968861	 1.6191386351	-0.425294
C	 2.0140849493	-2.4523969255	 0.9555683355	-0.425217
O	 0.4004799075	-0.6625171242	 1.0798052467	-0.283844
H	 0.6938936987	 1.9326369174	 0.4260811901	 0.141997
H	-0.5680140155	 1.8689286857	-0.8353111319	 0.15018
H	-0.9818995002	 1.639483797	 0.8861967339	 0.142005
H	-0.7240314288	-2.7355254122	-0.9566464873	 0.107016
H	 0.9524428958	-2.4431715216	-1.4182698084	 0.107036
H	-0.326491556	-3.9426490091	 1.3810188882	 0.118833
H	-0.147012123	-2.7429477984	 2.6764471239	 0.123217
H	-1.4289937558	-2.5561206459	 1.4632327894	 0.124415
H	 2.6694000139	-1.8354828172	 0.3338202661	 0.124428
H	 2.2983598466	-2.3123591639	 2.0027172527	 0.12321
H	 2.1794891713	-3.5019440168	 0.6910499822	 0.118815
