18
gdb 105755	2.33871	1.49515	1.22802	3.4605	71.65	-0.2871	0.0225	0.3096	1112.3955	0.146915	-439.101724	-439.092604	-439.09166	-439.136334	32.382	
C	-0.151373841	 1.543193348	 0.0123899802	-0.402244
C	 0.0101080242	 0.0219870081	 0.0105702168	-0.23413
C	 0.7184880665	-0.5188234594	 1.247370903	 0.312963
O	-0.0098624708	-0.2131759807	 2.4075958774	-0.253836
C	 0.3772654848	-1.1847342815	 3.3781706485	-0.126574
C	 0.7444225584	-2.4226294751	 2.5270932009	-0.109002
O	 0.7973563639	-1.9244718377	 1.1861439244	-0.273772
C	 2.1100050711	 0.0392028448	 1.3723162931	 0.268525
N	 3.1810430273	 0.460115649	 1.4772637888	-0.346572
H	 0.8192971661	 2.0477942425	 0.0305583917	 0.142535
H	-0.6803333396	 1.8658051671	-0.888192348	 0.122465
H	-0.7236959556	 1.8733847647	 0.8830008079	 0.139561
H	-0.962471044	-0.4785934375	-0.014546865	 0.120582
H	 0.5759271115	-0.3126667192	-0.8644584273	 0.128545
H	 1.2359258569	-0.8262065296	 3.9587547693	 0.128567
H	-0.4692107792	-1.3452873818	 4.0477133468	 0.130817
H	 1.711056659	-2.8476958065	 2.8166109748	 0.125711
H	-0.0169599895	-3.206614685	 2.563457137	 0.125859
