17
gdb 49478	3.10829	1.54005	1.22191	5.1228	75.37	-0.2505	-0.0143	0.2362	1026.682	0.138693	-418.021638	-418.014477	-418.013533	-418.053437	27.932	
N	-0.1091159275	 1.257611317	 0.0236907739	-0.566434
C	-0.0629266479	-0.0013186326	-0.0016107255	 0.406179
C	-1.2041577296	-1.0020192755	-0.0249702733	-0.105699
C	-0.6904396498	-2.0523481605	 1.023786408	-0.230843
C	 0.4229951688	-2.2290779716	-0.0453485147	-0.016552
C	-0.684598213	-2.0091271548	-1.112532977	-0.230847
N	 1.0551649733	-0.8936759281	-0.016586395	-0.072604
C	 2.3806154274	-0.5864014011	-0.0070079853	 0.138543
O	 2.8304487996	 0.54086076	 0.0168894097	-0.3227
H	 0.8372247784	 1.6435575591	 0.034064881	 0.252022
H	-2.2074756712	-0.5865431807	-0.0193096981	 0.102559
H	-0.3909840434	-1.6946059455	 2.0109028249	 0.118861
H	-1.349134668	-2.9187475227	 1.1006416131	 0.115784
H	 1.1401455328	-3.0482465119	-0.0599567251	 0.092643
H	-1.3427688101	-2.871635149	-1.227971345	 0.115785
H	-0.3797936479	-1.6117812753	-2.0827202178	 0.118862
H	 3.0188823483	-1.4918201868	-0.0237068936	 0.084443
