22
gdb 121275	3.77922	0.91598	0.81528	0.9259	81.67	-0.2278	0.0833	0.311	1465.9565	0.195772	-404.329231	-404.320307	-404.319363	-404.363218	34.067	
O	-0.04483611	 1.4663798507	 0.1254377417	-0.425139
C	 0.0431184145	 0.0542635987	-0.0165572928	-0.075401
C	-1.3729791969	-0.5046865642	 0.0448098828	-0.181794
C	-1.4272755127	-2.0272607028	-0.0419291133	 0.052084
C	-2.8478496855	-2.6298241712	 0.0911654877	-0.258587
C	-2.7572685529	-3.9587879126	-0.6868302472	-0.231309
C	-1.6650182699	-3.7001331681	-1.7155925626	-0.004343
C	-1.7250305876	-2.4252547281	-2.4747090819	-0.254737
N	-0.8412082386	-2.5483348706	-1.3023954697	-0.097887
H	 0.838716278	 1.8313307143	 0.0236441169	 0.283816
H	 0.5111670022	-0.2285513412	-0.9695833174	 0.105327
H	 0.6509795503	-0.3890675987	 0.7897339646	 0.080266
H	-1.8367321112	-0.1796933527	 0.9839167109	 0.103936
H	-1.9636209751	-0.0613355244	-0.7661960601	 0.1011
H	-0.7970257007	-2.4461985733	 0.7547488972	 0.076411
H	-3.1358494466	-2.7705849402	 1.135820148	 0.102183
H	-3.5934079331	-1.9634772988	-0.3546315032	 0.104531
H	-2.4453549538	-4.7758569148	-0.0264896041	 0.10525
H	-3.709336836	-4.253042576	-1.1394101311	 0.104524
H	-1.1332358382	-4.5513966099	-2.1318845268	 0.085965
H	-1.2011650056	-2.3321874304	-3.4214690513	 0.113116
H	-2.6261384008	-1.8211629259	-2.4041521984	 0.110687
