15
gdb 12902	3.50276	1.82292	1.55469	5.0357	66.05	-0.2556	0.0284	0.2841	858.2747	0.118526	-362.637994	-362.630666	-362.629721	-362.669464	27.126	
C	-0.0655433087	 1.508891189	 0.031991068	-0.489045
C	 0.0352096495	 0.0214254642	 0.0993061803	 0.45607
O	-1.1586929268	-0.7388419473	-0.0498744125	-0.305833
C	-0.6814991692	-1.7129502479	 0.9233808214	-0.104451
C	 0.6477715374	-0.9813799356	 1.046071768	-0.191326
C	 1.2395038962	-0.7933259854	-0.3534170436	-0.259956
C	 1.1558005378	-1.8076243573	-1.3672829263	 0.310627
N	 1.0850622814	-2.6298222283	-2.1779809679	-0.345943
H	 0.907207224	 1.9724023098	 0.216865799	 0.130832
H	-0.4100321538	 1.8187298998	-0.9602537892	 0.14924
H	-0.7797341491	 1.8789867939	 0.7732983739	 0.13936
H	-1.2858211261	-1.666935471	 1.8343938422	 0.122299
H	-0.6706997014	-2.7305037741	 0.5211618408	 0.136857
H	 1.2514711929	-0.8643194614	 1.9357699934	 0.116111
H	 2.1719075758	-0.2366511084	-0.3505432876	 0.135159
