19
gdb 59852	3.14732	0.88179	0.8106	0.4289	74.75	-0.2382	-0.0271	0.2111	1505.4384	0.158303	-456.428565	-456.418291	-456.417346	-456.465065	36.741	
C	-0.048636634	 1.3540637568	-0.2777553338	-0.382405
C	 0.0569821687	-0.1097859623	 0.1657988084	 0.044816
C	 0.7098796303	-0.247669351	 1.5461846419	-0.382401
N	-1.2564331553	-0.7429142025	 0.1560079842	-0.309012
C	-1.5905641268	-1.7863118017	-0.6213629636	 0.330631
O	-0.8724190763	-2.3632849325	-1.4266618115	-0.404597
C	-3.0575821791	-2.2176084405	-0.3901709753	 0.331905
N	-3.3886919422	-3.262658559	-1.1701551561	-0.51631
O	-3.7821676978	-1.6498869654	 0.4097529018	-0.380013
H	 0.9422600389	 1.8173609491	-0.3070496044	 0.12115
H	-0.4945937248	 1.4292048936	-1.2730677708	 0.128247
H	-0.6674818472	 1.9313710194	 0.4190056973	 0.115654
H	 0.6448199532	-0.667873916	-0.5687601886	 0.122375
H	 0.1199427263	 0.26859322	 2.3124589617	 0.115654
H	 0.7973040309	-1.2988601555	 1.8334565631	 0.128249
H	 1.7110743987	 0.1938817403	 1.5416482716	 0.121148
H	-1.9989792471	-0.4084165061	 0.7584177472	 0.263689
H	-2.680322585	-3.6295385797	-1.7870993134	 0.282723
H	-4.3127384516	-3.6567200471	-1.1321776796	 0.268496
