18
gdb 30427	3.16496	1.18864	0.87825	3.7975	79.06	-0.2014	0.0302	0.2316	1338.7154	0.145367	-439.119324	-439.109604	-439.108659	-439.155084	33.824	
C	-0.0504884383	 1.3881697272	 0.0365022106	-0.330309
N	 0.0650362979	-0.0579564186	 0.0263791182	-0.364526
C	 0.6243942802	-0.638165722	 0.9830602701	 0.512953
O	 1.1824279945	-0.0882952319	 2.1142824966	-0.25752
C	 1.6790893941	-1.1420339806	 2.8797930455	 0.218051
C	 2.3336788212	-0.7913357041	 4.1609239386	-0.494101
C	 1.4314167117	-2.2834932453	 2.2371714937	 0.229382
C	 1.701897259	-3.7115996559	 2.5202938531	-0.493006
O	 0.7722159016	-1.9945374893	 1.0475323629	-0.249829
H	 0.4424248363	 1.7984147865	-0.8526175375	 0.124099
H	-1.1081267156	 1.6686021947	-0.0305782483	 0.124108
H	 0.3789631796	 1.8713650574	 0.922748207	 0.117481
H	 3.1956344292	-0.134517082	 3.9974631564	 0.145856
H	 1.641235749	-0.2644311412	 4.8272527611	 0.145855
H	 2.6805030112	-1.6933995765	 4.6693842035	 0.138248
H	 0.7702144193	-4.2865894636	 2.5654092646	 0.148254
H	 2.3241383436	-4.1567372686	 1.7358509581	 0.148253
H	 2.2206182855	-3.8192709761	 3.4751057659	 0.136751
