17
gdb 26430	4.25881	1.08249	0.9064	1.8506	80.93	-0.1991	0.007	0.2062	1265.4978	0.136909	-418.032731	-418.02421	-418.023266	-418.066791	30.736	
C	-0.3459218293	 1.4055337656	-0.0502090794	-0.343596
N	 0.0891364199	 0.0099294959	-0.0254272654	-0.148592
C	 0.3847600403	-0.572156479	 1.1876339858	 0.066874
N	 0.2444526824	 0.0626381362	 2.2848108771	-0.481243
C	 0.0042314339	-0.7722183627	-1.164643162	 0.426931
C	-0.3884513464	-2.0595321209	-1.386818642	-0.277633
C	-0.1649103967	-2.3038998132	-2.7831488149	-0.163976
C	 0.3186088085	-1.1492535297	-3.3019538502	-0.020951
O	 0.4421528564	-0.2034755834	-2.3217569837	-0.179728
H	 0.3254417528	 1.9997503162	 0.5713594478	 0.153735
H	-0.3203004326	 1.7638873476	-1.0782007605	 0.142657
H	-1.3593865126	 1.5069825446	 0.3541958422	 0.136889
H	 0.7531875918	-1.5966363105	 1.0739455779	 0.103359
H	 0.5563292475	-0.5133152095	 3.0631929507	 0.224059
H	-0.8142296024	-2.7327409404	-0.6610765351	 0.112082
H	-0.3635576924	-3.2158322755	-3.3239262375	 0.113509
H	 0.598547539	-0.8298209212	-4.2912857608	 0.135623
