19
gdb 36598	3.43117	1.11728	0.99924	1.9183	80.77	-0.2294	0.0381	0.2675	1236.7003	0.159693	-381.940541	-381.932144	-381.931199	-381.974294	32.329	
C	-0.3115822665	 0.0154734324	 1.160424528	-0.467662
C	 0.0247009412	 0.5561721659	 0.1399849276	 0.318999
C	 0.4851480844	 1.2069777088	-1.0936216632	-0.338491
N	 1.6436516486	 2.0926427821	-0.9459605804	-0.396902
C	 1.4056817896	 3.304847357	-0.2279105658	 0.341176
C	 0.8780868409	 3.6235922312	 1.2113740753	-0.209407
N	 1.1509050611	 5.0184156906	 0.6354359886	-0.138026
C	 2.443430389	 4.4011412074	 0.0739255788	-0.218107
C	 0.4990767718	 4.4840685035	-0.6507526343	-0.195048
H	-0.6179307213	-0.4598527514	 2.0593978056	 0.200865
H	 0.7344977574	 0.4370875616	-1.8330381531	 0.136601
H	-0.3328079687	 1.7934462403	-1.5285124294	 0.141839
H	 2.4175345613	 1.5835575216	-0.5300879503	 0.222848
H	-0.1755322475	 3.4395305854	 1.4313881429	 0.105416
H	 1.5164803547	 3.3708922352	 2.0623993846	 0.095768
H	 3.1981385304	 4.2019845436	 0.8405531248	 0.096669
H	 2.8637885848	 4.9555196547	-0.7696135352	 0.10265
H	 0.7753044857	 5.0453099861	-1.5476285624	 0.101548
H	-0.5849921668	 4.367294504	-0.5675372019	 0.099264
