18
gdb 101290	2.78118	0.9898	0.8499	5.3105	73.03	-0.2672	0.0228	0.2901	1377.0671	0.146761	-439.076177	-439.066752	-439.065808	-439.11103	34.248	
O	 0.0646699484	 1.4053989327	 0.0697457842	-0.421089
C	 0.0008940577	 0.0088678824	 0.2347669092	-0.058692
C	-1.3920203549	-0.51874264	-0.1276726461	 0.077948
O	-1.7440629708	-0.0495988571	-1.4317913865	-0.437897
C	-1.4821625313	-2.0224178351	-0.01775102	-0.033132
C	-1.8176575436	-2.6821616333	 1.2875187021	-0.29307
C	-2.8240307871	-2.7235984835	 0.1484106022	-0.181591
C	-4.038408464	-1.9626359891	 0.2506705896	 0.296954
N	-5.02258064	-1.3618174387	 0.343462018	-0.338255
H	-0.426239449	 1.5930371124	-0.7414085577	 0.287877
H	 0.7527837204	-0.5101897634	-0.3902686831	 0.069408
H	 0.235935616	-0.2162822204	 1.2806045201	 0.112802
H	-2.1266323314	-0.0507954317	 0.5364788572	 0.118223
H	-1.202894405	-0.5212641035	-2.0764659386	 0.282771
H	-0.7820922858	-2.5593368379	-0.6552904235	 0.097965
H	-1.3275740038	-3.611926169	 1.5506204531	 0.134816
H	-2.0611606876	-2.0428164021	 2.1286331515	 0.147855
H	-2.9435900482	-3.6699058728	-0.3680874717	 0.137106
