18
gdb 22802	2.612	1.41083	1.02438	2.9447	76.53	-0.2347	-0.0461	0.1886	1175.2905	0.148076	-439.075507	-439.067111	-439.066167	-439.108784	31.778	
O	-0.0340819176	 1.3490937998	-0.0717741792	-0.37278
N	 0.0348943458	-0.0387867132	-0.0381955689	-0.178215
C	-1.1060992782	-0.6110409863	 0.0405570368	 0.275372
C	-1.1342319501	-2.1209673257	 0.0431321848	-0.281539
C	-2.1154360082	-2.657499548	-1.0145897664	-0.198521
C	-3.5123226131	-2.0549223775	-0.8211264925	-0.206701
C	-3.476718473	-0.5151379935	-0.877233558	-0.304174
C	-2.4548151132	 0.0812721206	 0.0824439487	 0.334909
O	-2.7005996006	 1.0035313859	 0.8213825276	-0.291023
H	 0.8932637037	 1.5955006508	-0.1595563793	 0.310696
H	-0.1187977736	-2.4938762986	-0.1133103243	 0.121289
H	-1.4609421977	-2.46874003	 1.0339814812	 0.1168
H	-1.7411381781	-2.409783396	-2.016137758	 0.106905
H	-2.1608279263	-3.7498451347	-0.9534058569	 0.10353
H	-4.2028452193	-2.4314509691	-1.5828493538	 0.106272
H	-3.915190088	-2.3719147931	 0.1496184463	 0.109446
H	-3.1825588127	-0.2019703025	-1.8900480703	 0.125803
H	-4.4500050397	-0.0674360687	-0.6611075778	 0.121929
