19
gdb 95947	2.15856	1.50565	1.40057	2.3243	70.97	-0.2446	-0.0304	0.2142	1074.3967	0.156876	-460.176411	-460.167038	-460.166094	-460.210741	33.914	
C	 0.2393889604	 1.3046333654	-0.4722978684	-0.428338
C	-0.0958262765	-0.0487766823	 0.1456763164	 0.074475
O	 0.0862027808	-1.1207688429	-0.7882160292	-0.264144
C	 1.4279484492	-1.5208196195	-0.684518154	 0.012276
O	 1.8701476837	-1.2134000465	 0.6317275701	-0.306768
C	 0.8135743941	-0.5161716852	 1.299916411	 0.270692
C	 1.4110057033	 0.558604557	 2.2051550867	-0.448612
C	 0.0694533482	-1.5265877745	 2.1860702784	 0.133522
O	-1.0823625704	-1.4278363768	 2.51628911	-0.25348
H	 1.2935242891	 1.3746024322	-0.7577908436	 0.126117
H	-0.3685006112	 1.4494114291	-1.3692312646	 0.13289
H	 0.0190635931	 2.118984521	 0.2241701263	 0.124904
H	-1.1411573052	-0.0803744784	 0.4613517294	 0.116438
H	 1.4806217229	-2.6003793001	-0.8700102243	 0.115733
H	 2.0742334921	-0.9893043269	-1.4015170404	 0.096038
H	 2.0320727779	 1.2449011536	 1.6254521301	 0.133784
H	 0.6165475683	 1.1198009074	 2.7051204622	 0.139001
H	 2.0417153183	 0.098747033	 2.9720063167	 0.133408
H	 0.716887672	-2.3690150158	 2.5184328772	 0.092063
