17
gdb 108094	2.60226	1.54939	1.27051	0.3728	68.08	-0.2153	0.0638	0.2791	1044.4512	0.134283	-458.86376	-458.855598	-458.854654	-458.89647	31.02	
C	-0.258639441	 1.1979309022	 0.0564490021	-0.25769
O	 0.3181023574	-0.0951741951	-0.0606493788	-0.281788
C	 0.9000380713	-0.5452718844	 1.0913663325	 0.342268
C	 2.209558779	-0.1159112241	 1.7558321792	-0.305997
C	 2.0033011185	-1.3718725172	 2.6444642834	-0.015028
O	 0.8407857172	-1.0549724862	 3.4573771698	-0.283196
C	 0.061668412	-1.1683704152	 2.2710035044	-0.089192
C	 1.0596523026	-1.9863082636	 1.5055308756	 0.249569
O	 1.0505276004	-3.1277823542	 0.7596441247	-0.442292
H	 0.5002554674	 1.957876034	 0.2859283649	 0.118467
H	-0.7145889484	 1.4289132209	-0.9082422658	 0.131564
H	-1.0276637277	 1.2223338609	 0.8401919073	 0.114279
H	 3.0561076204	-0.2347598961	 1.0748995442	 0.11406
H	 2.262004528	 0.8374023831	 2.289596795	 0.102569
H	 2.8152982941	-1.8421811001	 3.1944218459	 0.091824
H	-1.0193193582	-1.155377937	 2.3174381332	 0.113563
H	 0.7364638769	-3.853968208	 1.3114808223	 0.297022
