17
gdb 24677	3.70308	1.59495	1.15077	3.6133	81.42	-0.2177	-0.0124	0.2053	1028.0642	0.140647	-380.928529	-380.921863	-380.920919	-380.959508	26.777	
C	-0.0505891697	 1.4972522649	 0.0630228857	-0.264953
C	 1.3824919441	 2.0728428957	 0.0110303607	-0.33109
C	 2.2096996203	 1.3616319931	-1.0129949946	 0.294502
C	 3.2727134453	 1.6632399353	-1.8203066256	-0.196879
N	 3.7007664627	 0.5470839104	-2.5138496412	-0.281703
C	 2.908145265	-0.4219682604	-2.1295866561	 0.001164
N	 1.9799322414	 0.0087603847	-1.2163429202	-0.0618
C	 0.9188461123	-0.6818306593	-0.615204803	 0.029438
C	-0.0483321604	-0.0122591085	 0.0132230777	-0.126742
H	-0.5579370192	 1.8492517375	 0.966676036	 0.110554
H	-0.6359411001	 1.8821531218	-0.7850009668	 0.123273
H	 1.3615100318	 3.146477659	-0.1946633526	 0.11995
H	 1.8438905793	 1.952097727	 1.001725385	 0.120314
H	 3.7622322248	 2.6180277371	-1.941258843	 0.108111
H	 2.9334700466	-1.4453148935	-2.4744981959	 0.129079
H	 0.9546473956	-1.7601270482	-0.7100724616	 0.122391
H	-0.8658970898	-0.5617144565	 0.4649075557	 0.104391
