19
gdb 39746	3.15413	1.68798	1.49033	1.597	78.18	-0.2345	0.0912	0.3257	958.3241	0.161346	-385.842741	-385.835877	-385.834933	-385.873729	28.625	
C	-0.0246929134	 1.5189102513	 0.0046354528	-0.325806
C	 1.2739026537	 0.7332878453	-0.0137891062	-0.359681
C	-0.0426038323	 0.023115965	 0.0345860894	 0.418472
C	-0.5035965176	-0.9449822382	 1.1020226727	-0.176573
C	-1.899038118	-1.4489686918	 0.7459179558	-0.087055
C	-2.7082781275	-0.6548202429	-0.2769257356	-0.101381
O	-1.8937159417	-0.6063693659	-1.4567431392	-0.258627
C	-0.5781671433	-0.9455973337	-1.0471187267	-0.029592
C	-0.7065084291	-2.0325316278	 0.0529169465	-0.077263
H	-0.2788814209	 2.0567819342	 0.9127533625	 0.108465
H	-0.339838359	 2.0104342266	-0.9102711031	 0.119236
H	 1.8407705963	 0.7027737134	-0.939497584	 0.111045
H	 1.888582608	 0.7426611932	 0.8811163508	 0.109625
H	-0.1023923734	-1.0389836225	 2.1048179392	 0.083952
H	-2.4178119565	-2.0320381245	 1.4978509626	 0.092208
H	-3.6510367883	-1.155009282	-0.5267317926	 0.102183
H	-2.9355007769	 0.3625477004	 0.0671768798	 0.101555
H	 0.033193343	-1.1194225833	-1.9323883479	 0.078778
H	-0.4120669731	-3.0721032867	 0.0263740931	 0.090458
