14
gdb 27081	3.38905	1.13381	0.88628	3.2631	66.15	-0.2024	-0.0025	0.1999	1223.1768	0.100406	-473.857668	-473.849405	-473.848461	-473.891583	29.383	
N	-0.2313968399	 1.2558193602	 0.3517588483	-0.600206
C	-0.1505612779	-0.0988196329	 0.0885384863	 0.31487
C	-1.0784819997	-1.0321690632	-0.274174783	 0.18843
O	-2.3913567037	-0.7486089514	-0.6093539705	-0.22952
C	-3.3384176235	-1.013353973	 0.3352941669	 0.150706
O	-4.4967315218	-0.8182792087	 0.1411533404	-0.258916
C	-0.4038781455	-2.2969881368	-0.328140257	-0.264757
C	 0.8818871466	-2.0394435331	 0.0077189467	-0.023871
O	 1.046076035	-0.6964856109	 0.267476852	-0.170112
H	 0.6087509913	 1.7600703392	 0.0970130319	 0.262985
H	-1.0486799505	 1.6762022352	-0.0715145904	 0.268246
H	-2.8938894402	-1.4145259062	 1.2641292115	 0.094327
H	-0.8315815463	-3.2503540976	-0.5945501487	 0.125853
H	 1.767772866	-2.6405273607	 0.1116470956	 0.141965
