19
gdb 41384	2.66912	1.90387	1.34026	2.0313	81.55	-0.2292	0.0142	0.2434	991.8522	0.161228	-385.852347	-385.845245	-385.844301	-385.883664	28.837	
C	-0.1540395058	 1.4553571329	 0.0460943669	-0.319957
C	 1.4258299174	 1.4943003703	 0.050679949	-0.334061
C	 1.4221917623	 0.1385220231	-0.7162383125	 0.261867
C	 1.7798589345	-0.006449381	-2.2042255769	-0.133374
O	 2.1605984463	-1.3825322886	-2.0097879099	-0.293
C	 2.0336220849	-1.2818719694	-0.5699421497	 0.030871
C	 0.9002930791	-2.1807316636	-0.0034307597	-0.266463
C	-0.2847399314	-1.238721734	 0.1892504735	-0.223772
C	 0.0058598875	-0.0196259639	-0.2565635295	 0.250724
H	-0.6801799381	 1.7317665482	 0.9625767448	 0.112633
H	-0.5611025972	 2.0396851891	-0.7854437505	 0.114215
H	 1.8978679403	 2.3387209735	-0.4594651697	 0.103179
H	 1.8307840824	 1.4093190196	 1.0617884253	 0.115143
H	 0.9699262017	 0.1070986606	-2.9356728682	 0.101634
H	 2.6371728258	 0.6082348555	-2.5151722788	 0.092228
H	 3.0015272675	-1.4275691713	-0.0771379681	 0.072357
H	 0.7138468157	-3.0052699441	-0.7022485564	 0.12213
H	 1.1774395988	-2.6368701682	 0.9562304106	 0.100985
H	-1.1713896915	-1.5344029288	 0.7396409896	 0.092663
