25
gdb 76618	2.1687	1.28518	1.11734	1.4505	88.88	-0.2452	0.0617	0.3069	1303.2552	0.226642	-389.478023	-389.467123	-389.466178	-389.513065	42.082	
C	 1.70751473	-1.0545762485	-0.8748989474	-0.420622
C	 0.5182384132	-0.4494315855	-0.1582576062	-0.08129
C	-0.2331768022	-1.2370406634	 0.9016802135	 0.041712
O	 0.2987035496	-2.4485634952	 1.3671194132	-0.411493
C	 0.4825812705	 0.0278105097	 1.2900052969	-0.020207
C	 1.6082094547	 0.1727772058	 2.3272622578	 0.241691
C	 2.141774542	 1.6175239197	 2.2329787091	-0.3985
C	 0.9735470618	-0.0449057615	 3.7177552691	-0.394698
C	 2.7980815298	-0.7942398065	 2.1760741079	-0.423461
H	 2.1860149373	-1.8379927343	-0.2858387806	 0.129289
H	 1.3822074753	-1.5005255477	-1.8222971503	 0.10629
H	 2.4652083585	-0.301334613	-1.1151906318	 0.119036
H	-0.1148122786	 0.1387617091	-0.819426897	 0.079352
H	-1.3234851026	-1.2183798276	 0.8869935052	 0.079027
H	 0.1328783061	-3.1234585405	 0.7002372587	 0.288493
H	-0.2183745401	 0.8525976267	 1.4150297824	 0.079689
H	 1.3470393155	 2.3500060955	 2.4133683765	 0.103151
H	 2.9287241657	 1.7893746033	 2.9756417417	 0.104571
H	 2.5641497139	 1.8185360491	 1.2426428889	 0.10943
H	 0.6144800951	-1.0729948985	 3.8213139649	 0.128468
H	 1.7031277888	 0.1458555454	 4.5129157416	 0.100707
H	 0.123706799	 0.6285551367	 3.8764284675	 0.09974
H	 3.3609765102	-0.6061953552	 1.2582041234	 0.106123
H	 3.487950102	-0.6468543909	 3.014850464	 0.098083
H	 2.4719435245	-1.8346931424	 2.178995281	 0.135418
