19
gdb 54586	2.71134	1.35322	1.24718	2.7452	75.02	-0.2443	-0.0182	0.2261	1113.2733	0.157742	-423.009618	-423.000683	-422.999739	-423.044765	32.218	
C	 0.0258203959	 1.4731312797	 0.0243632381	-0.491106
C	-0.1359181119	-0.0368912595	 0.0509763205	 0.264097
O	-0.4213985661	-0.6391209212	 1.0621958303	-0.295641
C	 0.0536221878	-0.7476787896	-1.2605412803	 0.224149
C	-1.1757480404	-0.7826664449	-2.234536354	-0.296838
C	-1.0458077104	-2.3357162668	-2.3308727172	-0.229029
C	 0.2029283071	-2.2824132891	-1.4266277415	 0.068588
O	 1.4271875118	-2.1110139588	-2.1772132751	-0.290854
C	 1.4111071208	-0.6804824924	-1.9935750938	-0.13353
H	 1.0596733831	 1.7361842646	-0.2287984919	 0.144116
H	-0.6120746501	 1.9161502921	-0.7487117334	 0.140115
H	-0.2255663876	 1.8915671815	 0.9995870159	 0.144751
H	-2.1066234359	-0.4512564382	-1.7688714763	 0.116994
H	-1.0334066346	-0.2242541571	-3.1634032172	 0.107615
H	-1.8879030648	-2.8630576595	-1.8758674248	 0.113087
H	-0.8559359144	-2.7484972907	-3.3233659294	 0.114867
H	 0.3071167982	-2.9908671527	-0.6030790251	 0.093498
H	 1.4303884007	-0.130505698	-2.9433574963	 0.101623
H	 2.2531837309	-0.3485941295	-1.3705722284	 0.103498
