15
gdb 125703	3.13238	1.46448	1.0042	3.2727	73.99	-0.2427	-0.0443	0.1983	1122.7841	0.11337	-450.121909	-450.113851	-450.112907	-450.154817	29.891	
C	-0.1552121267	 1.4939169767	 0.0147357363	-0.481687
C	-0.0067586711	 0.0035500502	-0.0413516231	 0.444828
N	 0.2914796851	-0.5214537877	-1.1766731795	-0.176225
O	 0.4252672285	-1.9391349738	-1.1964763029	-0.292193
C	 0.254431982	-2.7254913811	-0.0962442859	 0.366334
N	 0.380482207	-3.9832495189	-0.1473936198	-0.513297
C	-0.0920066044	-2.0730684432	 1.2049994438	 0.32177
N	-0.2807021252	-2.6696488775	 2.3077563828	-0.513128
N	-0.1991843038	-0.6953670152	 1.1208271627	-0.386824
H	 0.5602162216	 1.9263418143	 0.722529329	 0.147865
H	 0.0251682588	 1.9111564229	-0.9751872415	 0.170906
H	-1.1636916672	 1.7689387015	 0.3420502222	 0.147878
H	 0.616755478	-4.2911901201	-1.0915437776	 0.239151
H	-0.1565845933	-3.6722185053	 2.1597733054	 0.254336
H	-0.4318873695	-0.211848473	 1.9761571581	 0.270286
