16
gdb 20174	3.51069	2.76258	2.035	1.5583	68.19	-0.2178	0.0211	0.2389	707.8569	0.133204	-346.573242	-346.56758	-346.566636	-346.602615	23.786	
C	-0.0166092395	 1.5348006983	 0.0735412709	-0.268639
C	 1.3436879761	 2.1792080516	-0.0390268829	-0.076839
C	 2.4222229274	 1.516944592	-0.4618407621	-0.034805
C	 2.3622526933	 0.1015823422	-0.8967358637	-0.109311
C	 1.8316117581	-1.0236504135	-0.0056406513	 0.093573
O	 0.941522166	-0.5318231989	 0.9834838642	-0.294201
C	 0.0782355903	 0.0229385542	-0.0639588531	 0.096914
C	 1.010262318	-0.5308277646	-1.1561683349	-0.17451
H	-0.4581160682	 1.7630432404	 1.052486561	 0.118253
H	-0.7154879208	 1.9412053799	-0.6735701718	 0.105935
H	 1.4238290228	 3.2224115634	 0.253287157	 0.086771
H	 3.3882748988	 2.0118377513	-0.5012515397	 0.085962
H	 3.1459054373	-0.2365170502	-1.5689441742	 0.088884
H	 2.3565399141	-1.9521234994	 0.1877049653	 0.104113
H	-0.9015306376	-0.4638010626	-0.0331339168	 0.082125
H	 0.7104844838	-0.9921637042	-2.0869952681	 0.095777
