15
gdb 43816	2.0863	1.7526	1.06769	3.8582	71.77	-0.2665	-0.0004	0.2661	1101.5514	0.110594	-420.59588	-420.587792	-420.586848	-420.628746	30.362	
O	-0.2536259144	 0.1327410296	 0.4537228116	-0.312683
C	-0.1056776832	 1.2363321123	 0.0499374734	 0.459434
O	-1.0059048605	 2.0291002548	-0.6116374253	-0.258926
C	-0.0730468206	 3.1375555798	-0.6684001451	 0.471724
C	-0.0409418248	 4.0774242337	-1.8159528213	-0.338515
C	-0.5080951772	 4.5341473398	-0.4349109233	-0.331468
C	 1.0247603448	 2.3019759007	 0.0009409901	-0.498993
C	 1.5873217635	 2.7548429719	 1.2517458275	 0.347557
C	 2.0461329328	 3.1485031433	 2.2899413066	-0.442764
H	 0.9238469652	 4.41535448	-2.179350721	 0.130847
H	-0.7985136475	 3.9510439158	-2.5815621068	 0.140042
H	-1.5697187166	 4.7083610929	-0.300291826	 0.140093
H	 0.1424816786	 5.1718974486	 0.1539389993	 0.138065
H	 1.8060920366	 1.9890413848	-0.7001838223	 0.146603
H	 2.4512251234	 3.482616282	 3.2132783025	 0.208985
