18
gdb 102229	1.88114	1.31828	0.86692	4.5139	74.36	-0.2628	0.0061	0.2689	1362.3437	0.146321	-435.274627	-435.264462	-435.263518	-435.310466	35.499	
C	-0.0427639071	 1.4148397497	 0.0669820254	-0.44509
C	 0.1050594357	-0.0746161684	-0.0392203707	 0.419309
N	 1.2215238934	-0.6359659107	-0.2224723484	-0.503379
O	-1.1355743684	-0.6623510492	 0.090880404	-0.254457
C	-1.2247397956	-2.0809059568	 0.1458860069	-0.035141
C	-2.6169491827	-2.4162195903	 0.6948865303	-0.17111
N	-2.7110436542	-1.9274220581	 2.0639911615	-0.514231
C	-1.0204395758	-2.687851214	-1.1827520016	 0.27458
N	-0.8790505691	-3.1868878306	-2.214997596	-0.310837
H	 0.9319470809	 1.8848297581	-0.0525544409	 0.155463
H	-0.7273945363	 1.7805494223	-0.7043982798	 0.146071
H	-0.4688579953	 1.6870999582	 1.0376347181	 0.138682
H	 1.1755929992	-1.6495418544	-0.3065545811	 0.231006
H	-0.4725343299	-2.4755986176	 0.8403841427	 0.141316
H	-3.3644477248	-2.0101937099	-0.0047722141	 0.115446
H	-2.7238063084	-3.5054810428	 0.6951322289	 0.131716
H	-2.7356526718	-0.9129472321	 2.0603932572	 0.241463
H	-3.5763916697	-2.2440867134	 2.4875982178	 0.239194
