18
gdb 95442	2.61151	1.51615	0.98337	1.8503	75.86	-0.2107	-0.0268	0.1839	1181.8222	0.148969	-435.315117	-435.306047	-435.305102	-435.349491	32.633	
C	-0.120704859	 1.4379842304	 0.0364366283	-0.352223
N	 0.0328580508	 0.0100658776	 0.2369374236	-0.114463
C	-1.1338228165	-0.8615799535	 0.0689284607	-0.184249
C	-0.480534089	-2.2654800665	 0.060093474	-0.17702
N	 0.954855324	-2.0281447507	-0.1581012128	-0.33259
C	 1.1384507232	-0.7590227287	-0.0380824171	 0.292913
C	 2.5399524436	-0.1856080684	-0.1311415782	 0.354368
N	 3.4482457478	-1.1330850878	-0.4559228937	-0.512784
O	 2.8090671457	 0.9879960586	 0.0629538163	-0.37442
H	 0.8433431937	 1.9247384691	 0.1608362712	 0.186226
H	-0.5166270724	 1.6632734371	-0.9667094555	 0.108577
H	-0.8288457515	 1.8342363731	 0.7724948544	 0.120373
H	-1.8556772717	-0.7175077772	 0.8790694106	 0.113276
H	-1.6433754023	-0.6303812651	-0.8801958369	 0.100983
H	-0.6142162811	-2.778054334	 1.02159664	 0.115124
H	-0.8883886225	-2.9219170118	-0.7137036005	 0.114795
H	 3.1407612325	-2.090836377	-0.5267971679	 0.278356
H	 4.4216023349	-0.8834109452	-0.4879055865	 0.262758
