15
gdb 125838	3.37828	1.09449	0.83666	6.0106	74.36	-0.2335	-0.0319	0.2016	1309.2861	0.112072	-450.105234	-450.096394	-450.09545	-450.139411	30.779	
C	 0.0548246494	 1.4707187151	 0.01314831	-0.49269
C	-0.0526659307	-0.014739141	 0.0576069607	 0.268889
N	-0.0540882617	-0.7676890623	-1.0057383493	-0.145013
O	-0.1715234951	-2.0599189638	-0.5591959547	-0.17027
N	-0.245879735	-2.1081922566	 0.8089340552	-0.175364
C	-0.1633831643	-0.8611595139	 1.2122224619	 0.305104
N	-0.2143788575	-0.4171595645	 2.5172979261	-0.351734
C	 0.153315654	-1.2299448052	 3.4432078671	 0.133723
N	 0.0297849069	-0.9233246197	 4.7507291401	-0.492005
H	 0.962120619	 1.8095098216	 0.523491558	 0.141486
H	 0.0796928471	 1.8190886228	-1.0206587086	 0.147866
H	-0.7936601974	 1.9318166599	 0.5279198046	 0.146393
H	 0.5758727654	-2.2192409627	 3.2428718927	 0.13781
H	 0.4507331246	-1.4984501295	 5.4572608993	 0.273657
H	-0.3136696947	-0.0122728803	 5.0090868868	 0.27215
