21
gdb 77570	2.3259	1.45013	1.28491	1.7122	78.28	-0.2457	0.0712	0.317	1142.4945	0.178974	-424.202609	-424.192736	-424.191791	-424.23634	37.796	
C	-0.4664031367	 1.5046509639	 0.3766319811	-0.422436
C	-0.1458238214	 0.0197164752	 0.2809815674	-0.105454
C	 0.2429522594	-0.5365524928	-1.1052488555	 0.416628
C	-0.6504871873	-0.9755146372	-2.2188059525	-0.507835
O	 1.496023226	 0.0922410364	-1.4479754671	-0.298624
C	 1.5190720192	-1.0583078503	-0.5944606368	-0.072572
C	 1.2327023868	-0.5617027614	 0.8319983719	 0.37307
C	 2.2367913841	 0.4028265045	 1.4396079718	-0.462584
O	 1.0358216735	-1.7068548354	 1.646316853	-0.483972
H	 0.2888805626	 2.100803592	-0.1423792255	 0.132783
H	-1.4394635827	 1.7239839289	-0.076945564	 0.113809
H	-0.5099481857	 1.8401471796	 1.4185111508	 0.109923
H	-0.9417905198	-0.5901470985	 0.7209669888	 0.074795
H	-1.1828151427	-0.1221136387	-2.6542107002	 0.128856
H	-0.0669008156	-1.4512485729	-3.0115361303	 0.134404
H	-1.397675937	-1.6882297403	-1.8551511853	 0.127109
H	 2.1214429427	-1.9093911905	-0.8941860302	 0.099545
H	 2.4783847182	 1.2023937446	 0.7359713489	 0.139496
H	 1.8399797506	 0.8620397149	 2.3536443287	 0.104591
H	 3.156823609	-0.1304758519	 1.6985753836	 0.121697
H	 0.7773417367	-1.4057886702	 2.5240123914	 0.27677
