18
gdb 96916	4.99048	0.91392	0.88069	0.538	75.51	-0.2551	0.0239	0.2791	1363.2906	0.146499	-439.056654	-439.047892	-439.046948	-439.091068	31.222	
C	 0.357763164	 1.4464774451	 0.2091938691	-0.341292
N	 0.3797365865	-0.0097202576	 0.1897288782	-0.325083
C	 0.4392380636	-0.6071238056	-0.9037163935	 0.456512
C	 0.4805257438	-2.0529137364	-1.3428017855	-0.46311
C	 0.5378069795	-1.4543419233	-2.759752522	 0.365136
C	 1.6293465232	-1.7615064276	-3.794336536	-0.128059
O	 0.6413414077	-2.1803025469	-4.7588804261	-0.271669
C	-0.4436322481	-1.7915223609	-3.8907964827	-0.128061
O	 0.4926694156	-0.1120521507	-2.2074956432	-0.28691
H	 1.2061899389	 1.8078058413	 0.8003753362	 0.129753
H	 0.3971210416	 1.9091469707	-0.7837264347	 0.126887
H	-0.5518028097	 1.7823703397	 0.7188463528	 0.129752
H	 1.3661791186	-2.6074561228	-1.0264015672	 0.139557
H	-0.4143260649	-2.6331691498	-1.1092294272	 0.139561
H	 2.1843799565	-0.872358286	-4.1181243006	 0.11875
H	 2.3318805425	-2.5648602912	-3.5425586314	 0.109763
H	-1.1430046363	-2.6151750996	-3.7042528527	 0.109762
H	-0.9916611029	-0.9183455383	-4.2659113331	 0.11875
