25
gdb 58468	2.2977	1.20946	1.08935	1.3208	89.1	-0.244	0.0714	0.3153	1327.6947	0.225395	-389.48963	-389.478329	-389.477385	-389.524989	43.069	
C	-0.5850867265	 0.2835001013	-2.7699804321	-0.396548
C	-0.3051142829	-0.5519115471	-1.5098390297	-0.019872
C	 0.8286635844	 0.0701285158	-0.6789882445	-0.399415
C	-1.5779684333	-0.7883136387	-0.6864760139	 0.324129
C	-2.2552119161	 0.4636539462	-0.1487010681	-0.46492
C	-2.4963894537	-1.9170573992	-1.1416203223	-0.408175
C	-1.7060589891	-2.052300998	 0.1421182555	 0.351918
C	-0.6110777092	-3.0905082241	 0.2718815853	-0.450046
O	-2.4143028869	-1.8838093325	 1.3500350333	-0.463821
H	 0.3060761716	 0.3305027334	-3.4046066998	 0.106571
H	-1.3986033941	-0.1495642307	-3.3608397865	 0.112792
H	-0.8622769726	 1.3127932525	-2.5201053216	 0.116348
H	 0.0464918687	-1.5301739248	-1.857990424	 0.0649
H	 1.7467478995	 0.1417515887	-1.2717752899	 0.107092
H	 0.5752084507	 1.0825602172	-0.3481909901	 0.117337
H	 1.0476321326	-0.5267180473	 0.2116068344	 0.115994
H	-2.5843065357	 1.1125633065	-0.9667141331	 0.109149
H	-3.1247470407	 0.2039944005	 0.4547154446	 0.130349
H	-1.5799120381	 1.0439809456	 0.4885495152	 0.11482
H	-3.5669264357	-1.7627596076	-1.0509086633	 0.103878
H	-2.1954942195	-2.5129781432	-1.9988161399	 0.099947
H	-0.0481997966	-3.2313928923	-0.6528406754	 0.120472
H	 0.0874098583	-2.8188047994	 1.069734109	 0.125785
H	-1.0511362038	-4.0616163804	 0.533230323	 0.103184
H	-2.9075689813	-2.6955166024	 1.512270824	 0.278137
