18
gdb 82079	2.54793	1.54757	1.17184	4.626	71.18	-0.2424	0.0268	0.2691	1082.9608	0.146472	-439.076799	-439.067854	-439.066909	-439.110952	33.089	
C	-0.2336243001	 1.5326676786	-0.1485687032	-0.40831
C	-0.0181325728	 0.0311934923	-0.0136444452	-0.040779
C	 0.669488475	-0.6657638299	-1.2015784463	 0.021721
O	 1.9778891425	-0.1015325858	-1.3133183225	-0.235589
C	 1.7773335239	-1.1515365998	-0.3650083913	 0.035199
C	 1.1687830098	-0.5342552208	 0.8945346528	-0.17902
C	 2.0900422773	 0.3745355757	 1.697369456	 0.401929
N	 1.4704255542	 1.0977921824	 2.6812254088	-0.524664
O	 3.291120421	 0.4071732731	 1.5241175027	-0.353159
H	 0.6947066087	 2.0273130376	-0.4445618784	 0.149661
H	-0.9912126557	 1.7388070705	-0.9126519905	 0.118435
H	-0.5814658757	 1.9858709937	 0.7853605136	 0.100651
H	-0.9519854196	-0.4746023742	 0.2513392491	 0.077931
H	 0.2220916117	-1.0757123483	-2.0997617678	 0.104101
H	 2.4068534312	-2.0278828936	-0.4520707166	 0.111379
H	 0.7704184258	-1.3037284747	 1.5650316039	 0.104268
H	 0.4696579112	 1.1746743396	 2.730936856	 0.256146
H	 2.0246607716	 1.7714470537	 3.185239199	 0.2601
