19
gdb 104472	1.73872	1.57661	1.14255	2.6077	73.11	-0.2398	-0.0219	0.2179	1182.6407	0.156184	-460.151681	-460.141725	-460.140781	-460.186258	36.342	
C	 0.523627382	 1.4303177763	 0.5558353797	-0.38373
C	-0.1345283041	 0.1235381762	 0.0917637739	-0.285731
C	 0.4454311737	-0.4056180123	-1.2085258436	 0.142583
C	 0.0904449799	 0.3019189164	-2.4586753333	 0.091983
O	 0.4264516867	-0.0598763281	-3.5663920103	-0.286782
C	 1.8910767262	-1.0002253067	-1.2267158294	 0.080058
O	 2.5972379356	-1.0873434618	-0.0404927037	-0.422114
C	 0.7190202996	-1.8959260602	-1.4122930709	-0.012938
O	 0.4069864005	-2.7219784228	-0.3201518211	-0.434266
H	 1.5886163874	 1.2731281525	 0.743715465	 0.141659
H	 0.4254665839	 2.2209422743	-0.1957877427	 0.114066
H	 0.0588083692	 1.7929036476	 1.4778839347	 0.112081
H	-0.0375154524	-0.6365042038	 0.8702672959	 0.116634
H	-1.2137231394	 0.2726958047	-0.0427026564	 0.102574
H	-0.5167461031	 1.2240931764	-2.3222358001	 0.077419
H	 2.5021112845	-0.7270540497	-2.0804987661	 0.128564
H	 2.1594677827	-1.7725984828	 0.4856346126	 0.290959
H	 0.4860837757	-2.2877214313	-2.3992907879	 0.123018
H	 0.7347474314	-3.6057536548	-0.5195122162	 0.303962
