18
gdb 81874	2.93457	1.42448	1.09599	2.8015	72.76	-0.227	0.0258	0.2528	1117.0714	0.147413	-439.111009	-439.102497	-439.101553	-439.143912	32.41	
C	-0.0546117302	 1.4249807073	-0.093284907	-0.347684
N	-0.0255099597	-0.0104206665	 0.0860059455	-0.061049
C	-1.2062979964	-0.8236033392	 0.0745160515	-0.10011
C	-1.4608219876	-1.6514544311	-1.1768348675	-0.330158
C	-0.7492158718	-2.2619961277	-0.00268677	 0.411518
O	-1.4276048086	-3.2942482936	 0.6399663412	-0.469197
C	 0.7692435326	-2.2291977281	 0.0285420474	-0.43258
C	 1.1411691863	-0.7374537063	 0.0016761829	 0.398688
O	 2.2567622966	-0.2714554354	-0.0927083475	-0.386574
H	 0.9793999802	 1.7721252113	-0.1245905612	 0.165695
H	-0.5578981356	 1.6990375044	-1.0289665015	 0.125648
H	-0.5765028494	 1.9147785631	 0.7366990089	 0.12378
H	-2.0313778438	-0.508503148	 0.7040821239	 0.104758
H	-2.4749319994	-2.0037612433	-1.329391886	 0.129983
H	-0.9052252192	-1.4110514379	-2.0777994683	 0.120861
H	-1.185157831	-3.2816384171	 1.5731218639	 0.282099
H	 1.1540438381	-2.6782904888	 0.9520064468	 0.122986
H	 1.2506362891	-2.745997233	-0.8056953331	 0.141336
