16
gdb 72216	3.47834	1.66771	1.38813	1.236	67.53	-0.2349	0.0158	0.2506	918.3627	0.126339	-437.860475	-437.853742	-437.852797	-437.891208	27.459	
O	-0.1146302737	 1.4183081884	-0.0288878169	-0.456304
C	 0.0239555348	 0.047426557	-0.0556892692	 0.370593
C	 0.7748380023	-0.7359804356	-1.1329114368	-0.329382
C	-0.2996987463	-1.8613374746	-0.9831145931	 0.095411
O	 0.2027313048	-3.066474133	-0.3891477286	-0.232317
C	 0.7089158741	-2.9052983883	 0.8576990672	 0.120187
N	 0.6116737802	-1.8951993268	 1.618504085	-0.273142
C	-0.220660576	-0.8175075999	 1.1711389456	-0.066009
C	-1.1117742147	-0.9697843461	-0.0396846893	-0.180533
H	 0.6290481513	 1.7913344161	 0.4579826503	 0.292139
H	 0.7062680124	-0.2425285024	-2.1053629911	 0.117265
H	 1.8113710553	-1.026031932	-0.9373956152	 0.109676
H	-0.7878049645	-2.1711798439	-1.9047223478	 0.102109
H	 1.2467433986	-3.7972891434	 1.1712265319	 0.124963
H	-0.6551829708	-0.2460631023	 1.9850084722	 0.10463
H	-2.1861540076	-0.849462103	-0.0202528841	 0.100714
