18
gdb 107377	3.43951	1.16367	0.98138	3.169	72.86	-0.2511	0.022	0.2731	1209.6922	0.148195	-439.083786	-439.07556	-439.074616	-439.116878	31.429	
O	 0.073475916	 1.4341062376	 0.3969499707	-0.410186
C	 0.0909038198	 0.0442915269	 0.1104331708	-0.155899
C	-1.285614296	-0.5098158156	-0.1538648407	 0.274293
C	-2.1346890739	-1.0233525914	 1.0056299249	-0.370786
C	-1.6161086767	-1.9712413041	-0.0372571845	 0.047106
O	-2.5175379462	-2.3428976248	-1.0590385591	-0.23754
C	-2.8706158253	-1.2439888716	-1.8088369211	 0.398248
N	-3.7406954491	-1.2568685156	-2.7202491034	-0.530743
C	-2.0590938075	-0.0335901387	-1.3725310866	-0.372791
H	-0.4961626506	 1.5657195612	 1.1625244885	 0.284607
H	 0.7178785063	-0.0604954855	-0.7823124534	 0.116369
H	 0.5737604298	-0.5285027703	 0.9189780745	 0.086431
H	-1.6679880261	-1.0605167197	 1.985233557	 0.119172
H	-3.2001770759	-0.8161853098	 1.0144991406	 0.130553
H	-0.9001090384	-2.7514113752	 0.1903578748	 0.114316
H	-4.1448010891	-2.1895195964	-2.8200935009	 0.22487
H	-2.7171821282	 0.8181572284	-1.1876615127	 0.141853
H	-1.3764912188	 0.2585710844	-2.1776452392	 0.140125
