25
gdb 99969	2.17861	1.27463	1.22154	2.2575	84.7	-0.2492	0.0722	0.3214	1268.3649	0.224392	-426.630029	-426.618361	-426.617417	-426.665834	44.361	
C	-0.1610853724	 1.3134365812	-0.1043598373	-0.247315
O	-0.017547903	-0.0736384377	 0.0999100183	-0.301901
C	 0.7359468416	-0.540737061	 1.2439157357	 0.345689
C	 2.1725725662	-0.0032377403	 1.1992399064	-0.444995
C	 0.0395450195	-0.1143974955	 2.5441575767	-0.436592
C	 0.6576177054	-2.1007691909	 1.0511982961	 0.370632
C	 1.394149387	-2.5456452012	-0.2257868824	-0.431808
C	 1.1825380825	-2.8864471758	 2.2554298622	-0.422658
O	-0.7221858947	-2.4530557285	 0.9392366295	-0.479661
H	 0.8039505339	 1.8212408606	-0.2342816691	 0.110563
H	-0.7361216382	 1.4302555104	-1.0268714644	 0.128039
H	-0.7098884022	 1.809555879	 0.7072468269	 0.111581
H	 2.2010919863	 1.0625839011	 1.4450413985	 0.113968
H	 2.799553655	-0.5169084745	 1.9327440219	 0.122547
H	 2.6167471001	-0.1377418784	 0.210440142	 0.126455
H	-0.946437034	-0.5775232096	 2.6154586674	 0.133019
H	 0.6294740031	-0.4116997232	 3.4148961119	 0.118769
H	-0.0712421466	 0.9723320404	 2.5922185647	 0.107177
H	 2.4807758637	-2.4633532565	-0.1265827716	 0.105212
H	 1.1479109893	-3.592366933	-0.4223695652	 0.11631
H	 1.0781132935	-1.9464897937	-1.082672615	 0.120384
H	 0.5948127187	-2.6808158333	 3.1519519255	 0.122624
H	 1.0978322169	-3.9559787606	 2.0431517514	 0.122767
H	 2.233769519	-2.6664000984	 2.4599370747	 0.109129
H	-1.0936871705	-1.8210381906	 0.3100366352	 0.280065
