22
gdb 66153	3.84649	0.81863	0.75855	1.4552	83.61	-0.2406	0.0812	0.3218	1602.7345	0.192942	-404.297859	-404.288134	-404.28719	-404.333432	36.098	
C	-0.4378664653	 1.4582425283	-0.7176756207	-0.463142
C	-0.1046625684	 0.1393100162	-0.0519230753	 0.316597
C	-1.2534887923	-0.5314593387	 0.664493271	-0.095357
O	-1.8184088723	 0.39169034	 1.5817524032	-0.256719
C	-2.8759541458	-0.1373915162	 2.3155996943	 0.155014
C	-2.5778947786	-0.9452616708	 3.5536518708	-0.288291
C	-3.1201948844	 0.4679851216	 3.6583575462	-0.288321
C	 0.9535606481	-0.7217286172	-0.6387792768	-0.286425
N	 1.1945270918	-0.0093379065	 0.6306159351	-0.339062
H	 0.4344404938	 1.8646950029	-1.2399298588	 0.10518
H	-1.2424890903	 1.3363944417	-1.4517693137	 0.118949
H	-0.7752994585	 2.1862604327	 0.0248852693	 0.142502
H	-2.0163674056	-0.8511593259	-0.0665648387	 0.080923
H	-0.8899696237	-1.4245889728	 1.190574413	 0.097746
H	-3.7383885535	-0.4293015899	 1.7134740631	 0.07872
H	-3.226461379	-1.7767659237	 3.8068947388	 0.110089
H	-1.5317506475	-1.0865617749	 3.8009594394	 0.126841
H	-2.4256844521	 1.2395350235	 3.9700685151	 0.125893
H	-4.1442305718	 0.6163084909	 3.9818381456	 0.111725
H	 0.8992491708	-1.8041072662	-0.5507418771	 0.11319
H	 1.4447253203	-0.3699702206	-1.5427198102	 0.107947
H	 1.7685517144	 0.8131701554	 0.4600722566	 0.225999
