18
gdb 99384	7.37553	0.54473	0.51705	3.7564	71.67	-0.2574	-0.0298	0.2276	2056.9445	0.144732	-476.27142	-476.26068	-476.259736	-476.310017	34.771	
C	 0.1595930906	 1.3662423649	-0.0143236368	-0.330166
N	-0.0939925792	-0.0491565967	-0.1771136971	-0.358989
C	-1.3026986125	-0.6065352878	 0.0893581926	 0.522231
O	-2.2921659285	-0.0247320732	 0.4753813243	-0.409742
O	-1.2484763999	-1.9488593935	-0.1474977046	-0.279272
C	-2.4656576009	-2.6521335563	 0.1197032657	-0.062514
C	-2.2340821038	-4.1107254856	-0.2633252817	-0.289252
C	-3.5150544699	-4.9160725259	-0.2196822887	 0.155109
O	-3.6511987693	-5.9568974455	 0.3677424259	-0.230065
H	 0.9404736887	 1.5510792858	 0.7320674497	 0.127859
H	 0.4624467254	 1.8302066244	-0.9597499349	 0.127408
H	-0.7682010235	 1.8285437644	 0.3243732151	 0.171658
H	 0.6408848941	-0.6645252775	-0.4823789138	 0.253973
H	-2.7249995983	-2.5509779858	 1.1784991055	 0.132881
H	-3.2815565831	-2.2084177884	-0.4611236967	 0.126206
H	-1.8644859589	-4.1376370358	-1.2983922007	 0.132159
H	-1.489178328	-4.5847520158	 0.3800306495	 0.132141
H	-4.357052693	-4.4723528916	-0.8012913534	 0.078376
