18
gdb 117463	5.93283	0.61265	0.58419	3.9497	71.91	-0.2758	-0.0058	0.27	1880.7222	0.145275	-476.250842	-476.240762	-476.239818	-476.287738	34.009	
C	-0.0343235865	 1.4353321703	-0.2536526095	-0.390755
C	-0.0586460704	-0.0761859107	-0.1358333082	-0.033201
O	 0.8267788031	-0.6044771946	-1.1419589725	-0.249102
C	 0.957388062	-1.9397697177	-1.1863538476	 0.383191
N	 0.3393614768	-2.7285718849	-0.4160560236	-0.522463
C	 1.9472472091	-2.2930699373	-2.2844993947	-0.182457
O	 2.0926248857	-3.7022639014	-2.4029050618	-0.175484
C	 1.5419264184	-4.3067049462	-3.4818171537	 0.179242
O	 1.5850540906	-5.4855436627	-3.6458881755	-0.261166
H	 0.9749936603	 1.8245711101	-0.0926468599	 0.128724
H	-0.3739492264	 1.7572292155	-1.2422658252	 0.128001
H	-0.6968122	 1.8750350302	 0.4976489563	 0.12539
H	 0.2789931287	-0.4207201528	 0.8467835094	 0.125635
H	-1.060414174	-0.487254573	-0.2965075422	 0.124545
H	 0.6028501279	-3.6923814758	-0.6152073462	 0.242803
H	 1.6172128976	-1.8452344023	-3.2299296679	 0.136028
H	 2.9295463159	-1.8757680793	-2.0455270472	 0.15343
H	 1.0680166213	-3.5872932073	-4.17737476	 0.087638
