18
gdb 128163	1.92643	1.80562	0.98969	2.1189	74.81	-0.2074	0.0459	0.2534	1195.2337	0.148354	-435.279534	-435.270192	-435.269247	-435.313751	33.912	
C	-0.5792466442	 1.3900511559	 0.1624788255	-0.324872
N	 0.3525488819	 0.2790678472	-0.0592638667	-0.414466
C	 0.8043424967	-0.395344678	 1.1070158463	-0.048753
C	 2.1283403459	-0.3493929247	 1.4973847459	 0.44476
O	 3.1704048375	 0.2682032111	 0.9187700615	-0.431055
N	 2.244946688	-1.0736505355	 2.624052206	-0.281
N	 1.0500329486	-1.6174795624	 3.0095391537	-0.310133
C	 0.1765854013	-1.2069367746	 2.0960019173	 0.313736
C	-1.2584950028	-1.6185716725	 2.187583992	-0.497124
H	-0.0988307292	 2.1391144166	 0.7984576831	 0.128872
H	-0.8161341689	 1.8586857057	-0.7980397872	 0.115651
H	-1.5237015055	 1.0957203246	 0.6447425755	 0.110443
H	-0.0385313448	-0.3680470178	-0.7355440913	 0.22849
H	 2.7997797148	 0.6748802629	 0.1191822072	 0.303498
H	 3.0747356578	-1.2527132381	 3.1615371808	 0.274857
H	-1.9132620003	-0.7658456642	 2.4014081649	 0.127847
H	-1.6080246048	-2.0670044254	 1.2505169176	 0.117557
H	-1.3810263618	-2.3515005507	 2.987915098	 0.141691
