17
gdb 127377	3.86398	1.10062	1.08998	3.9633	74.93	-0.2422	-0.009	0.2333	1164.747	0.137666	-414.15005	-414.142094	-414.14115	-414.18401	29.199	
C	-0.4185176546	 1.4207861528	-0.0682652886	-0.318043
N	-0.1131077428	 0.0003059632	 0.0387379975	-0.07312
C	 1.2278238485	-0.4212639061	-0.3236439795	-0.265353
C	 0.8018753665	-0.4498053696	 1.1084752292	-0.107923
C	 1.3653616658	 0.4633263539	 2.1225800923	 0.345765
C	 1.0093030499	 0.6890348517	 3.4361350341	-0.155931
N	 1.833005743	 1.6288467065	 3.9736813708	-0.183079
N	 2.6913217063	 2.0073518528	 3.0707216724	-0.11498
N	 2.4146829719	 1.3107074749	 1.9514984242	-0.245026
H	 0.4350446354	 2.0868040891	 0.1326195224	 0.103466
H	-0.7768915956	 1.619857281	-1.082507232	 0.13139
H	-1.2182234097	 1.6715162385	 0.6344013113	 0.136612
H	 1.3133550234	-1.3489127159	-0.8833239765	 0.128662
H	 1.9363942468	 0.3491514678	-0.6305153169	 0.098952
H	 0.4992246416	-1.4060055288	 1.5277916571	 0.11333
H	 0.2188059494	 0.2320927747	 4.0096079249	 0.127765
H	 2.9997515342	 1.4332682935	 1.1407772573	 0.277513
