18
gdb 88413	2.05284	1.37803	0.92005	2.9369	74.26	-0.246	-0.0515	0.1945	1277.404	0.143625	-439.0626	-439.052952	-439.052008	-439.098002	33.773	
C	-0.2456679738	 1.5550763135	-0.2595485396	-0.420107
C	-0.1379922637	 0.0605279251	-0.054539893	 0.015471
C	 1.1517728127	-0.657183514	-0.2504689856	-0.232023
N	 0.5699079674	-0.5509045334	 1.0839458391	-0.09177
C	 1.2280560418	 0.2624871785	 2.0716812338	-0.152968
C	 0.3351992274	 0.4352596851	 3.3019539548	 0.135161
O	 0.6111896897	 1.1615575875	 4.2201983709	-0.245317
C	 2.5573541045	-0.3479039954	 2.5415581764	 0.157892
O	 3.1024349245	-1.2747510874	 2.0111132822	-0.227381
H	 0.7118250231	 2.0683758156	-0.1361652059	 0.12534
H	-0.5922854647	 1.758535852	-1.2778863559	 0.132953
H	-0.9683832573	 2.005975345	 0.4300182054	 0.128603
H	-1.0526400318	-0.4799391906	-0.2920584234	 0.099691
H	 1.1886169501	-1.6594097115	-0.6665736438	 0.12617
H	 2.0240100179	-0.0458385879	-0.475481362	 0.114368
H	 1.5063359024	 1.2859618579	 1.7560562903	 0.11166
H	-0.5776455511	-0.1963572732	 3.2815944375	 0.109157
H	 2.9782231209	 0.1743902732	 3.4259088288	 0.113101
