16
gdb 25646	6.06588	0.76008	0.67891	2.9464	90.06	-0.1812	-0.0022	0.179	1628.8427	0.125127	-396.949788	-396.940661	-396.939717	-396.985316	32.489	
C	-0.039318294	 1.4347106827	 0.0197749805	-0.510895
C	 0.0079213214	-0.0179494028	 0.0013692397	 0.246148
C	 0.0626678022	-1.2233802788	-0.0161882516	-0.086598
C	 0.105381275	-2.6342477891	-0.0334656072	 0.179564
N	 1.1898856362	-3.4033403483	-0.0698708375	-0.354571
C	 0.7359692935	-4.6902673542	-0.0756801541	 0.2736
N	 1.6360709679	-5.7534350156	-0.1768013231	-0.609387
C	-0.6436176319	-4.7228099369	-0.0398328236	-0.179699
N	-1.0255663589	-3.3976959473	-0.0102563601	-0.291884
H	 0.9712568252	 1.8557488829	-0.016137051	 0.158387
H	-0.5937761627	 1.8293168902	-0.8393623314	 0.150383
H	-0.5227961912	 1.8095469195	 0.9291963196	 0.149804
H	 2.5678046906	-5.453861542	 0.0805395488	 0.249659
H	 1.3667516346	-6.5662226895	 0.3607971376	 0.240394
H	-1.3577263824	-5.5281388523	-0.0422116158	 0.119235
H	-1.9666984055	-3.0447664386	 0.0231056091	 0.265859
