14
gdb 30336	3.12302	1.66659	1.1819	1.1015	63.04	-0.2238	-0.0162	0.2076	975.7924	0.103059	-473.824768	-473.817896	-473.816951	-473.856376	25.956	
O	 0.0179125748	 1.4697770675	 0.1157178513	-0.420323
C	 0.0295190256	 0.0609820802	-0.0586799923	-0.048376
C	 0.6184383585	-0.7401364313	 1.1772178926	-0.120778
O	-0.4601891618	-1.4291639251	 1.8920590647	-0.275119
C	-1.4965717047	-1.3455520188	 1.0362570129	 0.362172
C	-1.2963907312	-0.605329571	-0.0696643786	 0.164841
O	-2.464549123	-0.6221484194	-0.7884530296	-0.186722
C	-3.2756510432	-1.4046369786	-0.0289834605	 0.052493
N	-2.7608892418	-1.8692416362	 1.0769833767	-0.348711
H	-0.6604942925	 1.6800081066	 0.7682456952	 0.282626
H	 0.657524524	-0.0997795577	-0.9391767453	 0.113275
H	 1.3228177314	-1.5058270742	 0.840814114	 0.131342
H	 1.1104452023	-0.0605760648	 1.8751382057	 0.135155
H	-4.2693864284	-1.5749852172	-0.4123346066	 0.158126
