16
gdb 132730	2.38425	1.78488	1.03378	2.794	73.36	-0.2607	-0.0339	0.2268	1095.1642	0.124081	-442.110148	-442.101911	-442.100967	-442.143282	29.854	
C	 0.0849351479	 1.4939778087	 0.0595259573	-0.484939
C	 0.0244107234	-0.0071033033	-0.0017660418	 0.26883
C	-0.0198900002	-0.6808974208	-1.2307534668	 0.064681
C	-0.0110612931	 0.0196979979	-2.5617119474	-0.513078
C	-0.073364879	-2.0688456228	-1.1178116258	 0.305911
F	-0.1182093392	-2.7997093369	-2.2283090387	-0.063895
N	-0.0839512228	-2.7409936067	 0.011239797	-0.309927
C	-0.0383952227	-1.9891989657	 1.1129814072	 0.060347
N	 0.0150583017	-0.6634329121	 1.1699405077	-0.304569
H	 0.9731469069	 1.8756033543	-0.4569838489	 0.13798
H	-0.7843919545	 1.9454705466	-0.4321723113	 0.137972
H	 0.1124401139	 1.8160217035	 1.1004441874	 0.149302
H	 0.8924986037	 0.6270348495	-2.685689524	 0.139361
H	-0.051272216	-0.7003718905	-3.3792002088	 0.147417
H	-0.8668291597	 0.6968390532	-2.6605937157	 0.139363
H	-0.0460277601	-2.5216331551	 2.0605103226	 0.125243
