20
gdb 78560	2.75336	1.45969	1.16206	1.8579	80.3	-0.2314	0.0846	0.316	1136.3351	0.169278	-403.082314	-403.073535	-403.072591	-403.115256	33.898	
C	-0.0411516424	 1.5361977334	 0.0107004847	-0.325367
N	 0.1304638613	 0.0905267999	 0.1084420543	-0.120517
C	 1.3912862367	-0.5686911149	-0.1775102638	-0.199548
C	 2.5746310453	 0.2079502012	 0.365579151	 0.45719
C	 3.9819169313	 0.1223807326	-0.0188610492	-0.267478
O	 3.2058674845	 1.2966574313	-0.296745094	-0.276138
C	 1.9648427151	 0.247945145	 1.7778855003	-0.399648
C	 0.7768299773	-0.5743478663	 1.217266739	 0.32996
C	 0.0583646293	-1.6584285893	 1.9643552641	-0.484126
H	 0.8227024459	 2.1331420514	 0.3272412701	 0.129137
H	-0.2556116089	 1.785611708	-1.0326690259	 0.127267
H	-0.908339003	 1.8256673412	 0.6127514123	 0.118134
H	 1.4215049782	-1.3354073204	-0.9456150667	 0.089601
H	 4.7564362379	 0.2412939758	 0.7382178715	 0.114167
H	 4.2735662268	-0.4601690092	-0.8926125729	 0.115402
H	 2.5595674916	-0.3092043718	 2.5066256469	 0.110288
H	 1.7317226606	 1.2343281234	 2.1880815	 0.110192
H	-0.5566216155	-1.236876053	 2.7685459392	 0.122364
H	-0.6020792797	-2.2100452352	 1.2907223033	 0.132786
H	 0.7656700677	-2.3592572831	 2.4207096061	 0.116332
