19
gdb 46388	3.85757	0.9352	0.79732	2.3034	77.37	-0.2365	-0.0262	0.2102	1429.3317	0.159017	-419.160084	-419.151403	-419.150459	-419.194321	31.932	
O	 0.0204216262	 0.0905518286	-0.5197753395	-0.287352
C	-0.0330788046	 1.2096328801	-0.1074270374	 0.382863
C	-1.1442839828	 2.13784829	 0.4082219134	-0.284107
N	-0.0795190311	 3.0552182433	 0.8976688958	-0.326204
C	 1.0026682225	 2.309325323	 0.1880770609	-0.090805
C	 2.218511338	 1.9307562239	 1.0207161641	-0.142125
N	 3.0874960651	 3.0845900039	 1.2189962007	-0.075364
C	 2.792192083	 3.9148606857	 2.387653508	-0.217014
C	 3.9803424499	 3.0199819206	 2.3726180546	-0.224698
H	-1.7718269042	 2.5224693386	-0.4079480312	 0.124451
H	-1.7960437136	 1.7311409916	 1.1891317405	 0.134485
H	-0.187578198	 4.0120588182	 0.5840410026	 0.228221
H	 1.3408098847	 2.7893406738	-0.7421830978	 0.105619
H	 1.8769078694	 1.4892381093	 1.9732805828	 0.086372
H	 2.7817844727	 1.1614180857	 0.4788419714	 0.118581
H	 2.9105643874	 4.985233762	 2.24441872	 0.112836
H	 1.9492506451	 3.6264976364	 3.0106798957	 0.125608
H	 3.9411687885	 2.1287345482	 2.9968569566	 0.111377
H	 4.9767919819	 3.424162317	 2.2194625988	 0.117258
