23
gdb 86219	2.48926	1.1666	0.84879	0.8127	92.16	-0.2532	0.0571	0.3104	1435.4065	0.205131	-351.150855	-351.14093	-351.139986	-351.18597	37.872	
C	 0.0099599649	 1.6431400603	 0.0123175894	-0.408986
C	 0.027957428	 0.117452313	-0.0777588451	 0.049396
C	 0.9281763648	-0.4467586519	-1.1932618984	-0.225735
C	 1.1998894037	-1.8953046022	-0.7676005138	 0.038674
C	 2.3146468573	-2.6089208145	-1.5256889325	-0.416224
C	 1.4734014278	-1.7390371746	 0.7561368025	-0.151912
C	 0.5242983753	-0.5870818858	 1.2188742586	-0.246664
C	 1.3350551809	-2.9743637611	 1.5122072566	 0.30901
C	 1.2047559352	-4.0020673698	 2.1239604132	-0.45982
H	 1.0137570289	 2.0352748641	 0.2147158056	 0.110981
H	-0.3416585971	 2.0937037872	-0.9222420089	 0.111666
H	-0.6494140102	 1.9882774753	 0.8159430503	 0.113694
H	-0.9957455578	-0.2242891925	-0.276859571	 0.072736
H	 0.4716858276	-0.3721514463	-2.1854495498	 0.091417
H	 1.8770370702	 0.1083212663	-1.2313834328	 0.088033
H	 0.2700837698	-2.4692444763	-0.8786586747	 0.079535
H	 3.2581412168	-2.0552195157	-1.4481596944	 0.109869
H	 2.4804564748	-3.6137468241	-1.1246152354	 0.126609
H	 2.0724041108	-2.7063545526	-2.5889945417	 0.111799
H	 2.5111706855	-1.3921690633	 0.8588533688	 0.095244
H	 1.0628421935	 0.1085274987	 1.8697491463	 0.100764
H	-0.3103266498	-0.9841173241	 1.8011462782	 0.110516
H	 1.0952392894	-4.9058445502	 2.670043539	 0.189398
