18
gdb 97181	2.68904	1.3483	0.92978	2.2231	76.98	-0.2452	0.0022	0.2474	1241.5614	0.149995	-435.332612	-435.324015	-435.323071	-435.366139	31.788	
C	 0.0637726861	 1.4428731556	-0.1278724412	-0.346039
N	 0.0330085369	-0.0103449016	-0.108579305	-0.291567
C	 0.4641151284	-0.6155265627	 0.9237639094	 0.396972
C	 0.4925732363	-2.1242709632	 0.9790291221	-0.274484
C	 0.2206716926	-2.6285374428	 2.3958406823	-0.178277
N	 1.138557924	-1.965393337	 3.3119247644	-0.341052
C	 1.3775183227	-0.6175455717	 3.2578973069	 0.446367
O	 1.9030849091	 0.020477523	 4.1476049911	-0.396518
N	 0.9729414611	-0.0027560162	 2.0674808051	-0.402588
H	 1.0902299558	 1.8407843384	-0.0934679982	 0.11741
H	-0.3914216547	 1.7998225089	-1.0545533696	 0.129282
H	-0.4941706683	 1.890271791	 0.7095753591	 0.115218
H	-0.2366916648	-2.5083173511	 0.2654174826	 0.136018
H	 1.4873788874	-2.4651158315	 0.6662121957	 0.132316
H	-0.8288769296	-2.4416535443	 2.6695404109	 0.116648
H	 0.389031706	-3.7069937254	 2.4547079957	 0.12134
H	 1.2898515271	-2.3577648395	 4.2278433696	 0.2578
H	 1.1223763838	 0.99446871	 2.0726051192	 0.261154
