18
gdb 94094	3.83674	0.91745	0.76845	3.982	75.65	-0.2674	-0.0237	0.2438	1462.5389	0.147165	-439.136884	-439.127956	-439.127012	-439.171635	31.671	
C	-0.0455171571	 1.5756799027	-0.0712265516	-0.386095
C	 0.0462343684	 0.0552205488	 0.0089473863	 0.065061
C	 0.7634437569	-0.606292112	-1.2061562364	-0.231668
C	 1.5775546594	-1.7500629812	-0.5717802891	-0.332967
C	 1.5756101562	-1.3089613884	 0.8694586607	 0.431567
O	 2.4151735875	-1.9787642807	 1.7141411489	-0.234608
C	 2.2918256413	-1.780619238	 3.0714704838	 0.166188
O	 3.0499443725	-2.2981516278	 3.8285184324	-0.252964
N	 0.7984447074	-0.3690756409	 1.2070623479	-0.299169
H	 0.9538378058	 2.0184220483	-0.1381422541	 0.118471
H	-0.6157393152	 1.8799769606	-0.9549866866	 0.114632
H	-0.5388060561	 1.982066033	 0.815702004	 0.127445
H	-0.9709573961	-0.3486287586	 0.1109083696	 0.086645
H	 0.0645570632	-0.9469673417	-1.9726063564	 0.110007
H	 1.4362615304	 0.1205942642	-1.6727188747	 0.111676
H	 1.0884588296	-2.7281660006	-0.6580357253	 0.13218
H	 2.5903725441	-1.8645987615	-0.9666215619	 0.133377
H	 1.4460206918	-1.1282984062	 3.3227193027	 0.140221
