23
gdb 114659	3.22492	1.08266	0.99476	1.4982	84.83	-0.2427	0.0741	0.3168	1329.0351	0.20712	-388.280441	-388.271595	-388.270651	-388.313683	35.063	
C	 0.0501332103	 1.5678774682	 0.0106827286	-0.382208
C	 0.0821030403	 0.0365601205	-0.0407311158	-0.204225
C	 0.6788397824	-0.5949077841	 1.2204325975	 0.059197
C	-0.1799078027	-0.4445339801	 2.533174869	-0.236695
C	-0.2766480479	-1.9236818422	 2.9495898135	-0.055813
C	 1.1755362563	-2.427065693	 2.6909718182	-0.270524
C	 0.800830577	-2.13467581	 1.2059818996	-0.079699
C	-0.6469668625	-2.591693539	 1.5868346503	 0.192002
O	-0.9138471844	-3.9737797825	 1.5821602135	-0.459782
H	 1.0586968701	 1.9794741716	 0.13078927	 0.112564
H	-0.3734390258	 1.9874118358	-0.9070323938	 0.111724
H	-0.5544633946	 1.9285401442	 0.8497129807	 0.117761
H	-0.9333951155	-0.3424955328	-0.2096667015	 0.098372
H	 0.6734390792	-0.2828555246	-0.9089695031	 0.093063
H	 1.6734827201	-0.1575263684	 1.3740180064	 0.064713
H	 0.3075506719	 0.1752534126	 3.2907747887	 0.095804
H	-1.1658634002	-0.01144142	 2.332507442	 0.097182
H	-0.8231245491	-2.1613608167	 3.8632564316	 0.059843
H	 2.0015743967	-1.8586329901	 3.1288630129	 0.091999
H	 1.32419962	-3.4868443758	 2.9154123472	 0.082704
H	 1.3359219032	-2.5881438668	 0.3696691568	 0.057295
H	-1.4764767659	-2.1431191633	 1.034413433	 0.075436
H	-0.1978814888	-4.4362664034	 2.0286558848	 0.279287
