19
gdb 90349	2.90095	1.60697	1.24168	1.5025	76.7	-0.2302	0.0214	0.2516	1052.1885	0.161376	-419.193508	-419.185571	-419.184627	-419.225868	30.794	
C	-0.2803449277	 1.3722586262	 0.1221885039	-0.391946
C	 0.0250568404	-0.1104767453	-0.0031433108	-0.007739
N	 1.2429271516	-0.4490291249	-0.8128149423	-0.371715
C	 2.0034086205	-0.6074028939	 0.3381466116	 0.369375
N	 3.217621836	-0.4320911426	 0.6475971133	-0.325873
C	 3.3358410749	-0.4941509543	 2.1177755638	-0.183033
C	 2.2401541078	 0.3545087427	 2.7824527164	-0.070056
O	 0.9019320261	-0.0525334814	 2.4456661909	-0.276227
C	 0.7895387345	-0.7373903596	 1.2245714971	 0.023548
H	 0.5988178713	 1.9299624738	 0.4577035213	 0.129896
H	-0.6067414477	 1.7851269133	-0.8380408473	 0.116824
H	-1.0807237752	 1.5327722145	 0.8506585912	 0.134681
H	-0.8556101656	-0.670938226	-0.3302836911	 0.083768
H	 1.5633979385	 0.1192539319	-1.5882761493	 0.239485
H	 3.2836702308	-1.5299339867	 2.4830577593	 0.107744
H	 4.3123786449	-0.098049449	 2.4125678301	 0.109119
H	 2.3061995818	 0.2913126723	 3.8733259007	 0.108856
H	 2.3852614485	 1.403958364	 2.4880753044	 0.101137
H	 0.4683789386	-1.769400135	 1.4058895467	 0.102155
