18
gdb 51135	3.99768	1.05971	0.93452	3.0259	76.98	-0.2316	-0.0209	0.2107	1250.3786	0.147787	-401.941853	-401.933738	-401.932794	-401.975438	30.477	
O	-0.4213149254	 0.2269589397	 0.2550843691	-0.243409
C	-0.0038593399	 1.3554059924	 0.2002949999	 0.159347
C	 1.4100759115	 1.7382580697	-0.189723171	-0.349313
C	 1.4132439383	 2.745895781	-1.3218391564	 0.306077
C	 0.9809496358	 2.2984845575	-2.7243547557	-0.331843
C	 1.7606428412	 3.2075435732	-3.6498714476	-0.089039
C	 2.5957810487	 4.0043024769	-2.9763140657	-0.075405
C	 2.4524295863	 3.8110071843	-1.5032148458	-0.120556
N	 1.1220299646	 4.1332038201	-0.9302451208	-0.365649
H	-0.6565646093	 2.2259476926	 0.4358141964	 0.08843
H	 1.8797711039	 2.200946485	 0.6871707477	 0.128584
H	 1.9632517939	 0.8316508975	-0.4523434292	 0.116668
H	 1.2328891691	 1.2429986805	-2.892879839	 0.12462
H	-0.1047420055	 2.3775677832	-2.8706418538	 0.119511
H	 1.6207531997	 3.2033349006	-4.7246413849	 0.104689
H	 3.2740715901	 4.728521708	-3.4115097222	 0.105425
H	 3.2911905361	 3.9546685926	-0.8294904942	 0.095112
H	 0.556458201	 4.6001552351	-1.6371711668	 0.226751
