19
gdb 39847	2.7442	1.78142	1.37318	2.0001	77.74	-0.2438	0.0646	0.3085	990.1505	0.160957	-385.844219	-385.837157	-385.836212	-385.875458	29.438	
C	-0.1249455759	 1.3898259176	-0.0494012113	-0.304512
C	 1.2875688694	 0.8718575922	 0.0363895619	-0.040736
C	 1.947208001	 0.6785369649	 1.3968162643	-0.040736
C	 1.1869302766	 1.0053535026	 2.6561883375	-0.304512
C	 1.1992383584	-0.4128335771	 2.1338621735	-0.128146
C	 0.0635445853	-0.8603785878	 1.2376041647	 0.459723
C	-0.4971680296	-2.2149600997	 1.3169927484	-0.259801
O	-1.2255174764	-1.0994385441	 1.8286713422	-0.283106
C	 0.1305767333	-0.0996406274	-0.07012559	-0.128147
H	-0.5988063426	 1.8374139965	 0.815406965	 0.124056
H	-0.4277690284	 1.8370671243	-0.9903829475	 0.110935
H	 1.947782098	 1.0459263838	-0.8051271987	 0.085435
H	 3.0293222175	 0.7289602423	 1.4254190026	 0.085435
H	 1.7735702117	 1.1919192372	 3.5496201259	 0.110935
H	 0.2716154752	 1.5823181447	 2.6105502042	 0.124056
H	 1.7098839849	-1.169677261	 2.7187057658	 0.085349
H	-0.9145972668	-2.680702496	 0.4238873615	 0.109211
H	-0.1194124478	-2.9137450179	 2.063853319	 0.109211
H	-0.0849472635	-0.6436646451	-0.9829238691	 0.085349
