23
gdb 107397	2.91194	1.13654	1.04755	1.4059	84.73	-0.2559	0.0678	0.3237	1294.9463	0.206558	-388.291573	-388.282176	-388.281232	-388.325617	36.172	
C	 0.6995826011	 1.4651415689	 0.0761921715	-0.398288
C	-0.0192559245	 0.1217832132	-0.1086040674	 0.025906
C	 0.5034415155	-0.705965334	-1.3233116372	-0.238658
C	 1.3070667918	-1.8624348191	-0.751204337	-0.053991
C	 2.4163829157	-1.5511428358	 0.2261192508	-0.350257
C	 1.0530411242	-1.9568251987	 0.7366081716	 0.363297
C	 0.9195008334	-3.2861702139	 1.4444532878	-0.174019
O	-0.3514470889	-3.9036730612	 1.2731379332	-0.417942
C	 0.1015739486	-0.827954856	 1.1214667153	-0.304288
H	 1.7747711475	 1.3467276693	 0.2435388284	 0.119378
H	 0.5746172679	 2.0964362982	-0.810276592	 0.112577
H	 0.2919352549	 2.0118747467	 0.9335815294	 0.110729
H	-1.0767523495	 0.3550749867	-0.2704213593	 0.074278
H	-0.3380965951	-1.1081732206	-1.8981898636	 0.099337
H	 1.0859597169	-0.082314141	-2.0118798405	 0.093715
H	 1.400273967	-2.764948206	-1.3464498221	 0.082356
H	 3.2118782421	-2.2850138045	 0.3160273339	 0.105339
H	 2.7536819953	-0.5284403313	 0.351735498	 0.108332
H	 1.6477508484	-3.9926170187	 1.0313014008	 0.103308
H	 1.1564061724	-3.1709560156	 2.5147241656	 0.08481
H	-0.9884372829	-3.4275756292	 1.8133591005	 0.283596
H	 0.4258023768	-0.2884885327	 2.0198714988	 0.092208
H	-0.8814454087	-1.258726135	 1.3490449334	 0.078276
