18
gdb 54726	2.95534	1.47381	1.42433	4.0458	75.47	-0.2122	0.0152	0.2275	1008.1365	0.146454	-401.872232	-401.864183	-401.863239	-401.904894	31.132	
C	 0.6687733296	 0.3932294284	 1.2215308285	-0.46104
C	 0.0440804899	 0.0695983022	-0.1233924284	 0.399562
O	 0.3712395828	 0.6268229182	-1.1450663659	-0.330344
C	-1.173554174	-0.8412004378	-0.100050125	-0.12825
C	-1.3993092742	-2.0443039585	-0.9664115116	-0.075957
C	-0.1477766649	-2.9602734769	-1.052125005	-0.047879
N	 0.9416135403	-2.3398810041	-0.2614884635	-0.326287
C	-0.1214247575	-3.1128479004	 0.4164977364	-0.061046
C	-1.3616493299	-2.1846128771	 0.560891095	-0.09636
H	 1.5673613425	 0.9946272258	 1.0749430515	 0.131813
H	-0.0487672284	 0.9688104479	 1.8206774743	 0.123927
H	 0.9058498499	-0.5160875772	 1.7768366493	 0.134034
H	-2.0803335991	-0.2402905861	-0.0193414416	 0.113505
H	-2.2477701074	-2.1460378006	-1.6299235003	 0.096473
H	 0.0673439368	-3.6677209316	-1.841306151	 0.101533
H	 1.7704727279	-2.9262735048	-0.3450916196	 0.235924
H	 0.1051769249	-3.9692655753	 1.0375641449	 0.09882
H	-2.1808618591	-2.397724132	 1.2354361119	 0.091572
