16
gdb 42810	3.92356	1.18492	1.15467	2.0591	72.78	-0.2564	-0.0278	0.2286	1076.0927	0.126291	-400.767265	-400.760036	-400.759091	-400.799143	27.808	
O	 0.0309817233	 0.0021309938	 0.0200730135	-0.309958
C	-0.0101041512	 1.1927384857	-0.0267374391	 0.427424
C	-1.0899135362	 2.288482765	 0.0515607949	-0.135152
C	-0.0460107381	 3.0040913669	 0.973822127	-0.255416
C	 1.0184195578	 2.3475932885	 0.0352395659	-0.144736
C	 0.7192085451	 3.041224797	-1.3244806865	-0.160278
C	-0.8655515882	 3.0087084929	-1.2950847487	-0.246916
C	 1.267861138	 4.3896671154	-1.4126062017	 0.274108
N	 1.695592943	 5.4622260197	-1.4726902655	-0.324749
H	-2.1132693722	 2.084050781	 0.3566760269	 0.097313
H	-0.0724323595	 4.0957764354	 0.985751801	 0.134393
H	-0.0193859486	 2.604553017	 1.9881681011	 0.130604
H	 2.0597140183	 2.2048118829	 0.311685728	 0.107836
H	 1.1158383196	 2.4575293963	-2.1599822157	 0.137942
H	-1.2714176113	 2.4606784365	-2.1477077133	 0.129723
H	-1.2882945397	 4.015004166	-1.295796448	 0.137862
