18
gdb 29275	5.55953	0.97467	0.89147	0.7247	81.68	-0.2052	0.0234	0.2286	1341.1986	0.147843	-401.948973	-401.940656	-401.939711	-401.982546	31.002	
C	 0.2299630528	 1.5442724328	-0.0447087144	-0.49942
C	 0.0288599832	 0.0618918433	 0.0081866791	 0.266288
C	-0.2954024205	-0.7627771614	-1.0212978307	-0.117045
O	-0.3959604638	-2.0588351595	-0.5997593344	-0.190036
C	-0.1262913201	-2.056929698	 0.7440866234	 0.431436
C	 0.1381611311	-0.7923294331	 1.162602188	-0.380927
N	-0.1551613384	-3.2551239353	 1.453802886	-0.190724
C	-1.1438033455	-4.275375357	 1.0673579341	-0.224875
C	 0.2978289036	-4.4818806526	 0.7774556409	-0.224867
H	 1.2402786113	 1.8235451834	 0.2752539958	 0.1298
H	 0.0834706734	 1.9269118218	-1.0587272806	 0.1226
H	-0.4715121182	 2.0679328063	 0.6147230203	 0.129816
H	-0.4814460929	-0.5944647293	-2.0697153883	 0.127067
H	 0.3817126265	-0.5057943464	 2.1733292807	 0.108404
H	-1.6155617064	-4.7872012484	 1.900848241	 0.122438
H	-1.7925023318	-4.0483818321	 0.2268846174	 0.133794
H	 0.6146788689	-4.3932319372	-0.2571822935	 0.133815
H	 0.8931057768	-5.1465696073	 1.3963774853	 0.122434
