16
gdb 79108	2.61177	2.06779	1.57954	3.7216	67.6	-0.2257	-0.0025	0.2232	876.2973	0.125559	-437.865501	-437.858621	-437.857677	-437.896682	27.104	
C	-0.1587425975	 1.5247430305	 0.0543760798	-0.341404
N	 0.0997653626	 0.0894018022	-0.0275608043	-0.075286
C	 0.7217146635	-0.461217814	-1.2189191597	-0.061462
C	 2.2469309946	-0.3559756446	-1.1513362466	 0.078305
O	 2.8198277601	 0.6022640637	-0.2805829389	-0.225758
C	 2.2991317472	 0.415644459	 0.97881649	 0.44389
O	 2.6574246595	 1.0456761033	 1.9288796476	-0.342125
C	 1.1447481863	-0.5746697885	 0.8262207739	-0.16636
C	 1.5462971937	-1.4348010879	-0.3914706003	-0.150506
H	 0.7090670981	 2.161305665	-0.16920182	 0.129993
H	-0.9537379646	 1.7649404177	-0.658854	 0.125714
H	-0.5220185744	 1.765244958	 1.057579283	 0.137209
H	 0.1740560549	-0.5856161993	-2.1471535117	 0.106375
H	 2.8611142742	-0.5598756868	-2.0183877096	 0.123421
H	 0.7849784425	-1.0041625127	 1.7587413821	 0.102622
H	 1.6967227392	-2.5027150457	-0.4477325054	 0.115373
