16
gdb 45399	2.19446	1.75885	1.2592	3.8004	76.47	-0.2409	0.0172	0.2581	1032.8077	0.124119	-400.721767	-400.713799	-400.712854	-400.75424	30.542	
O	-0.0241872154	 0.0335584372	 0.0974401528	-0.346591
C	-0.0158254993	 1.2278906779	 0.0067171629	 0.374056
N	-1.0136810226	 2.1806947846	 0.0130631095	-0.324818
C	-0.130830811	 3.3453192242	 0.0084458631	-0.029302
C	 0.3528585647	 3.8120802551	 1.4066803816	-0.22786
C	 1.5204427733	 2.7851964827	 1.3562189575	-0.280991
C	 1.0818463086	 2.3352543416	-0.086405033	 0.040057
C	 2.0484651913	 2.2902039839	-1.1416501643	 0.178437
C	 2.8662855007	 2.2547432793	-2.0230731054	-0.404812
H	-1.9612863319	 2.0916956564	 0.3552942383	 0.249938
H	-0.3501972071	 4.0876901089	-0.7584483301	 0.100339
H	 0.6996774255	 4.8478199579	 1.4084558918	 0.116119
H	-0.3767920713	 3.6871557335	 2.2096680273	 0.107349
H	 2.5068726621	 3.2493471343	 1.3535448338	 0.128136
H	 1.5105086974	 1.9832952562	 2.0963820002	 0.125953
H	 3.5846098449	 2.2120280663	-2.8040031158	 0.19399
