25
gdb 101704	3.37101	0.69792	0.64569	1.3356	89.94	-0.2612	0.078	0.3393	1860.1631	0.227207	-389.480639	-389.46946	-389.468516	-389.517591	40.832	
C	 0.3214142451	 1.4900533033	-0.2335446909	-0.39266
C	-0.0332368054	 0.026894934	 0.0619265109	 0.05244
C	 0.6983321073	-0.4640223213	 1.3125587804	-0.080593
O	 2.0984216255	-0.3746612858	 1.0849078507	-0.424071
C	-1.549062279	-0.2060072235	 0.2162052933	-0.226401
C	-2.3484001296	 0.0811389969	-1.0394103465	 0.006635
C	-2.4435870937	-0.9396186704	-2.1515507846	-0.291024
C	-3.6727559944	-0.5846991252	-1.3484282357	-0.005684
C	-4.3331142725	-1.5944384431	-0.4343846704	-0.404048
H	 1.4057544812	 1.6187179457	-0.250969663	 0.13204
H	-0.0771470707	 1.8166851856	-1.1980075469	 0.111032
H	-0.0860997655	 2.1534518336	 0.5400746725	 0.102
H	 0.3231542663	-0.5906392184	-0.7738587253	 0.08338
H	 0.3978259454	 0.1489384052	 2.1795387749	 0.079533
H	 0.4025206696	-1.5036177726	 1.5285468793	 0.078915
H	 2.5515987301	-0.6124894404	 1.8985074335	 0.285143
H	-1.7116402294	-1.2454495249	 0.5246565426	 0.087147
H	-1.9250672125	 0.4189385146	 1.0397009985	 0.089773
H	-2.2859710447	 1.1147614302	-1.3688965848	 0.082256
H	-2.3687080583	-0.6106420399	-3.1824501036	 0.105562
H	-1.998596493	-1.9138235595	-1.9673378316	 0.104658
H	-4.3853159124	 0.059176781	-1.8589578475	 0.079366
H	-3.6078667334	-2.2734644837	 0.0228148261	 0.115504
H	-4.8847783648	-1.1036385062	 0.3757795387	 0.114037
H	-5.0460221213	-2.2112907652	-0.9930226506	 0.115062
