19
gdb 84402	3.01648	1.42754	1.13561	2.2887	76.4	-0.2529	0.0108	0.2637	1117.9002	0.159953	-423.021209	-423.013009	-423.012065	-423.053883	32.017	
C	 0.5521391682	 1.5143918229	-0.0055033119	-0.393101
C	-0.0280482596	 0.0871474063	 0.0091566768	-0.080113
C	 0.2580415024	-0.6369150959	-1.2811786256	-0.048406
C	 0.7084774196	-1.885606969	-1.3747275537	-0.106235
C	 1.0174566402	-2.7820118375	-0.2056698593	 0.060195
O	 2.2955779247	-3.3988529002	-0.3557508383	-0.436488
C	 0.9430133963	-2.0637024759	 1.1253332235	-0.001212
O	 1.8719216687	-0.9761119072	 1.2579646285	-0.270049
C	 0.4710102366	-0.6755750415	 1.2195205308	 0.055443
H	 1.6432776926	 1.4771340574	-0.0668538862	 0.137281
H	 0.1764801772	 2.0794571104	-0.8639739521	 0.115379
H	 0.2782730431	 2.0590561354	 0.9037010904	 0.115341
H	-1.1207055726	 0.1722249998	 0.1200537578	 0.090647
H	 0.0744223438	-0.0665002588	-2.1897501091	 0.090858
H	 0.8985568677	-2.3314674942	-2.3476142205	 0.098636
H	 0.3063486561	-3.6189741389	-0.1876247845	 0.0946
H	 2.9424377683	-2.6873684128	-0.2690734839	 0.289653
H	 0.8906609756	-2.7082243001	 2.0022886567	 0.097829
H	 0.0758285313	-0.3323547703	 2.1768480103	 0.089741
