17
gdb 36468	2.90465	1.08104	0.84577	1.465	80.08	-0.2546	0.0138	0.2684	1334.808	0.133222	-384.595383	-384.586127	-384.585182	-384.630545	33.448	
C	 0.0428119009	-1.2162261094	-0.1390007974	-0.424882
C	-0.0194665565	-0.0168802354	-0.0876971927	 0.286827
C	-0.0522970853	 1.4396333273	-0.0265485476	-0.38683
C	 1.3556653819	 2.0344715267	 0.0797047755	-0.055622
C	 2.2223102526	 1.9606138373	-1.1930910746	-0.073519
O	 2.2053427642	 3.3974817204	-1.3503587858	-0.27842
C	 1.4876997471	 3.580532282	-0.1064533214	-0.070522
C	 0.2774381266	 4.3740764646	-0.2399937866	 0.347154
C	-0.7247200079	 5.0316293546	-0.3349457846	-0.457192
H	 0.0800639717	-2.2764003521	-0.1844072706	 0.196958
H	-0.5523556678	 1.8407760693	-0.9163169701	 0.146337
H	-0.6541109317	 1.7661319168	 0.8304500147	 0.139429
H	 1.8461011979	 1.66815066	 0.9829274717	 0.097303
H	 3.2396168814	 1.5784339777	-1.0496532647	 0.106719
H	 1.7642852598	 1.4494942983	-2.0476861042	 0.115303
H	 2.1393902772	 4.0402124913	 0.6493388615	 0.105783
H	-1.6056337122	 5.6186673207	-0.4242627031	 0.205174
