16
gdb 85097	2.02262	1.61014	1.26722	5.6342	71.74	-0.258	-0.0067	0.2513	1071.2634	0.123047	-434.066644	-434.057465	-434.056521	-434.100459	33.368	
C	-0.3154240595	 1.4224361541	 0.0431002887	-0.397696
C	 0.0135623978	-0.057388397	-0.0339563694	 0.00671
N	 1.2205741416	-0.4169839413	-0.81190921	-0.338529
C	 1.9809861314	-0.774510956	 0.2788415724	 0.337066
N	 3.179443318	-1.0220161193	 0.5853154537	-0.549646
C	 0.7651702217	-0.658460626	 1.2206884945	 0.169838
O	 0.9571161388	 0.2334738043	 2.2812997472	-0.446543
C	 0.2121132966	-1.9411444879	 1.6763109132	 0.259607
N	-0.2351672313	-2.9459402217	 2.0305652668	-0.334288
H	 0.5386973337	 1.9993291279	 0.4034150798	 0.135684
H	-0.6067831437	 1.7931627087	-0.9452550498	 0.120855
H	-1.1534013134	 1.5885807002	 0.7259487267	 0.144456
H	-0.8599790105	-0.6427357014	-0.3344711459	 0.110575
H	 1.5338890259	-0.0198377011	-1.6861210943	 0.248939
H	 3.8230545877	-0.9357369856	-0.2014835401	 0.223496
H	 1.8643555453	 0.102120462	 2.5895053966	 0.309478
