16
gdb 25722	2.72264	1.57129	1.00255	4.8072	76.93	-0.2094	-0.0356	0.1737	1126.7553	0.124669	-437.958187	-437.949858	-437.948914	-437.99146	30.8	
C	 0.0497320757	 1.4731051727	 0.0067577837	-0.504758
C	 0.0213192035	-0.0435317679	 0.0367126522	 0.342611
O	 1.0751999955	-0.6952899204	 0.0683923658	-0.403082
C	-1.231835927	-0.7314598965	 0.0296277166	 0.061188
C	-1.3715117458	-2.1279209711	 0.0564193115	 0.348325
O	-0.3513596134	-2.9875550373	 0.091733144	-0.424097
C	-2.7486802752	-2.4367627275	 0.039333033	-0.263912
C	-3.4195730163	-1.2261505532	 0.0025888878	-0.053199
N	-2.5218082046	-0.207806791	-0.0035310314	-0.348865
H	 1.0863907617	 1.8110839296	-0.0013974827	 0.150042
H	-0.4610585235	 1.8566533522	-0.8840148642	 0.133586
H	-0.4563827137	 1.8891031159	 0.8856781697	 0.135185
H	 0.4551445066	-2.4225600055	 0.0937985893	 0.313266
H	-3.1929739966	-3.4184951892	 0.0520715561	 0.11411
H	-4.4800197056	-1.0280833073	-0.0195800821	 0.132961
H	-2.7535880413	 0.7688810866	-0.0266436393	 0.26664
