15
gdb 17809	4.58178	1.70074	1.50848	10.3473	62.48	-0.1952	0.0126	0.2077	841.676	0.120519	-399.712852	-399.706286	-399.705342	-399.744109	24.678	
O	 0.1029810716	 0.1467686615	 0.6831861861	-0.489366
C	 0.1371470169	 1.2085887681	 0.0293487059	 0.352055
O	 1.010678642	 1.8227549193	-0.5874199659	-0.443917
C	-1.2330680991	 1.9478840518	-0.0437174357	-0.073792
C	-2.2319346157	 1.7643805949	-1.2328080568	-0.063461
C	-2.4045785521	 0.2984073406	-0.7376649094	-0.173173
N	-2.4667735667	 1.1446774527	 0.5321566541	-0.074528
H	-2.5412899015	 0.7806683313	 1.4827473819	 0.292094
C	-3.3648402505	 2.1135140242	-0.2238233587	-0.194081
H	-1.2051299519	 2.9514817752	 0.3871111056	 0.119875
H	-2.1152058863	 2.1160536293	-2.2509094056	 0.130657
H	-3.3526067424	-0.2006387147	-0.9490884264	 0.127141
H	-1.5370232642	-0.3562463295	-0.7320353627	 0.203195
H	-3.3819079612	 3.1148384873	 0.2077142708	 0.148724
H	-4.365682569	 1.7140388383	-0.4035913131	 0.138579
