22
gdb 110531	3.6699	1.1077	1.07	1.7471	85.86	-0.2298	0.0834	0.3132	1279.2213	0.194526	-367.157854	-367.149081	-367.148137	-367.19125	33.992	
C	-0.2195507655	 1.4977914836	 0.0786837913	-0.377325
C	 0.008305282	-0.0179715494	 0.0779713265	-0.218843
C	 0.6717031562	-0.5166752939	-1.2025081339	 0.042306
C	 0.8685642245	-2.0067932188	-1.4818957311	-0.126862
N	-0.3398425797	-2.5767313103	-2.1994650861	-0.190261
C	-1.2690598273	-1.4130284803	-2.3691750782	-0.15628
C	-0.0642381328	-0.4865238804	-2.5802661393	-0.152415
C	 0.7126799028	-1.8224972409	-2.9434794189	 0.363109
C	 1.4491692411	-2.3127717149	-4.1423724658	-0.532071
H	 0.7237929365	 2.0397797994	-0.0530243688	 0.113122
H	-0.8888463466	 1.8003858607	-0.7341436753	 0.116974
H	-0.667703423	 1.8333822753	 1.0188395662	 0.113019
H	 0.6479947648	-0.2932978097	 0.9269683908	 0.095982
H	-0.9424256767	-0.5364601353	 0.2432560629	 0.102316
H	 1.6432781773	-0.021018575	-1.3258127652	 0.071036
H	 1.4713616846	-2.7270323521	-0.9422911328	 0.088751
H	-1.8484389371	-1.5732453936	-3.2825451141	 0.103926
H	-1.9537833447	-1.2226618317	-1.5352928507	 0.093825
H	-0.1204964428	 0.4314485378	-3.1635769203	 0.067711
H	 2.3477623855	-1.7143610105	-4.3293408436	 0.122171
H	 1.7550320151	-3.352769524	-3.9917773458	 0.135482
H	 0.8248247258	-2.2718983259	-5.042112928	 0.124325
