16
gdb 29659	2.41936	1.67902	1.00512	4.7034	68.71	-0.1889	0.0465	0.2354	1127.5183	0.125115	-471.251915	-471.242909	-471.241965	-471.285443	32.717	
C	-0.0936970724	 1.4574949779	 0.0035916922	-0.350434
N	-0.0151939734	 0.0148858047	 0.0517116655	-0.157623
C	-0.0528667466	-0.7856844416	-1.0769059704	 0.470447
O	-0.1017947965	-0.4437873225	-2.2317149159	-0.421941
O	-0.0283655064	-2.0798865124	-0.6372258201	-0.242823
C	 0.0412077302	-2.0719876832	 0.77275213	 0.193969
N	 0.0577890843	-3.2544295515	 1.4996475781	-0.601356
C	 0.0362621651	-0.7950055616	 1.1887749819	 0.259579
N	-0.0303008415	-0.2513203251	 2.469831368	-0.60701
H	 0.857106703	 1.927246886	 0.2825861199	 0.127437
H	-0.3278608493	 1.7308740831	-1.026221118	 0.173937
H	-0.8787250989	 1.8206455063	 0.6729096682	 0.146084
H	 0.8516197481	-3.8463288511	 1.2726100594	 0.24835
H	-0.7870251674	-3.8066996395	 1.3805321847	 0.248784
H	-0.0122882186	-0.9972175708	 3.1563950133	 0.262126
H	 0.7251385702	 0.398255601	 2.6654068632	 0.250472
