18
gdb 11918	4.57791	1.46591	1.28206	1.1582	67.85	-0.2297	0.0651	0.2947	985.251	0.154044	-384.923746	-384.916098	-384.915154	-384.956272	29.343	
O	 0.0106077841	 1.406734599	-0.0620086197	-0.428916
C	 0.0107089655	-0.0074202686	 0.0004512134	 0.11357
C	 0.5552594177	-0.5914449217	 1.3175627725	-0.126145
O	-0.0429047679	-1.8714039245	 1.4123257049	-0.283722
C	-1.375688376	-1.7371452304	 0.9450690364	 0.464876
C	-2.1265326002	-3.0126808956	 0.7581271366	-0.337705
C	-2.483933006	-2.0777478802	 1.9041548913	-0.324882
C	-1.4346390279	-0.5355763345	 0.0013419714	-0.326453
H	 0.9183336589	 1.7034979771	-0.1791193292	 0.285786
H	 0.5689029927	-0.4366542788	-0.8436571105	 0.075761
H	 1.6409399694	-0.7233652755	 1.338340344	 0.097762
H	 0.2573398569	 0.069374229	 2.1480950926	 0.093954
H	-2.8089722811	-3.0925838543	-0.0816654541	 0.111899
H	-1.6032093012	-3.928671342	 1.0094644869	 0.123001
H	-2.1931726896	-2.3862767275	 2.9021118245	 0.119722
H	-3.4122829182	-1.5181651528	 1.8469639002	 0.109415
H	-2.0862709017	 0.2528372745	 0.3896552446	 0.121496
H	-1.7812818554	-0.8004013331	-1.0002667459	 0.110582
