21
gdb 122116	2.58023	0.78191	0.65011	3.5661	76.52	-0.245	-0.0318	0.2132	1779.7873	0.178802	-461.359276	-461.348221	-461.347277	-461.397151	37.768	
C	 0.2814450947	 1.3702915634	 0.021263383	-0.384117
C	 0.0777540117	-0.1266950497	-0.2247291443	-0.186509
C	-1.338752129	-0.5787847461	 0.0978251448	-0.046279
O	-1.4473965401	-1.9684543066	-0.1774072657	-0.272792
C	-2.7147079422	-2.5279252105	 0.1041821689	 0.006351
C	-2.7530492147	-3.8871482021	-0.6066630688	-0.07885
O	-1.6868923305	-4.7127264475	-0.1860329581	-0.424215
C	-2.9112205345	-2.7214666018	 1.6088574147	 0.150944
O	-3.9847930484	-2.8991068153	 2.1201958819	-0.243991
H	 1.3053946033	 1.6696049918	-0.2185081962	 0.122489
H	-0.3938116825	 1.9723031201	-0.5964336169	 0.120099
H	 0.0956665954	 1.6325783501	 1.0684797728	 0.12078
H	 0.2901344468	-0.3735788254	-1.2712525019	 0.110115
H	 0.7776093036	-0.7110036471	 0.383688912	 0.108522
H	-1.5753890688	-0.3739404643	 1.1548743079	 0.096224
H	-2.0715852654	-0.022549299	-0.5095749762	 0.096334
H	-3.5335843886	-1.8969069864	-0.2746218363	 0.09232
H	-3.68523897	-4.4006398411	-0.3552842425	 0.131533
H	-2.7310982586	-3.7109233225	-1.6926391655	 0.098663
H	-0.8805202359	-4.2029031496	-0.3275401219	 0.294229
H	-1.965273336	-2.7105678803	 2.1955677084	 0.088151
