27
gdb 122963	3.04517	0.59347	0.52088	0.9283	94.45	-0.2457	0.0878	0.3334	2282.1214	0.249156	-390.705133	-390.692879	-390.691934	-390.744166	43.194	
C	-0.0422690894	 1.5608651744	-0.0830880257	-0.378764
C	-0.0255358568	 0.0433360302	 0.1196727383	-0.165087
C	-1.4050600782	-0.5978466026	-0.0602016808	-0.176031
C	-1.387325313	-2.1077982506	 0.1411754823	-0.058772
O	-2.699036923	-2.5999009735	-0.0367361759	-0.260693
C	-2.8330873814	-4.0168400688	-0.0112957184	 0.160279
C	-2.7800584781	-4.5640741181	 1.4183124127	-0.403205
C	-4.1578027559	-4.3482901427	-0.7024328192	-0.171747
C	-4.2057066937	-3.9098969196	-2.1674813267	-0.38477
H	 0.9539457316	 1.9931832262	 0.0530019115	 0.110511
H	-0.3840843097	 1.8212737324	-1.0908944145	 0.114954
H	-0.7173774186	 2.0473749191	 0.6295208507	 0.114976
H	 0.6835570863	-0.4112670144	-0.5849588635	 0.095167
H	 0.3559110401	-0.1867464727	 1.1234360573	 0.09535
H	-2.1183789362	-0.1597153482	 0.648878626	 0.102448
H	-1.793041281	-0.3827099244	-1.0635814595	 0.101078
H	-0.7015917364	-2.5823337735	-0.5823402472	 0.080541
H	-1.0044961548	-2.3449666559	 1.1473835337	 0.083673
H	-2.0078006126	-4.4616055048	-0.5958010882	 0.057245
H	-2.884821662	-5.6538422348	 1.4167780943	 0.111951
H	-1.8327062752	-4.3236021017	 1.909182803	 0.114399
H	-3.5924072103	-4.1388437907	 2.0166603257	 0.120555
H	-4.3268360173	-5.4290329976	-0.6246272692	 0.090218
H	-4.9645072593	-3.8620599395	-0.1394823064	 0.101494
H	-5.1786335675	-4.1334998322	-2.6156514847	 0.107015
H	-4.0274255825	-2.8350967656	-2.2502305579	 0.130775
H	-3.440555405	-4.4248449804	-2.7599293778	 0.106439
