21
gdb 87808	2.82309	1.31443	1.13702	1.759	82.65	-0.2453	0.085	0.3303	1190.2796	0.181328	-387.048509	-387.039638	-387.038694	-387.081754	34.384	
C	-0.0446964283	 1.512725927	-0.1096837947	-0.416982
C	 0.0787299786	 0.0107036695	 0.0438553331	-0.001166
C	 1.3333599016	-0.792605173	-0.1662713785	-0.077254
C	 2.587739013	-0.0542435467	 0.3374788141	-0.331724
C	 1.9179828237	 0.046528645	 1.7210779236	 0.454092
O	 2.6040176751	-0.3594002725	 2.8952706242	-0.308704
C	 2.0947923011	 0.9883067806	 2.8315180877	-0.029627
C	 3.117638975	 2.0944071815	 2.8178152768	-0.417881
C	 0.6911035075	-0.6956707658	 1.2309635312	-0.17418
H	 0.8343831465	 2.0426140333	 0.2652749575	 0.123373
H	-0.1748887445	 1.7872934206	-1.1622835282	 0.116438
H	-0.913789947	 1.8880043091	 0.4416927965	 0.117321
H	-0.7981749673	-0.5244948841	-0.317741515	 0.087749
H	 1.3583084836	-1.6463313791	-0.8323141404	 0.087732
H	 3.4607917397	-0.7086983844	 0.3939506073	 0.12051
H	 2.8672219773	 0.8719637698	-0.1751643396	 0.097168
H	 1.2363358177	 1.1559522062	 3.485625011	 0.084673
H	 3.9246601559	 1.8717054129	 2.1150126719	 0.1267
H	 2.6524587517	 3.0432797746	 2.5281128019	 0.11993
H	 3.5572521983	 2.2272938731	 3.8120898129	 0.128354
H	 0.1637134508	-1.4478763876	 1.8053442268	 0.093477
