19
gdb 51675	4.1418	0.94385	0.86384	4.0113	77.1	-0.2748	0.0102	0.285	1363.6058	0.159468	-423.022286	-423.014	-423.013056	-423.056656	30.569	
O	 0.0796850107	-0.0072946196	-0.1292010399	-0.276554
C	 0.0522662225	 1.1859381545	-0.1642202612	 0.165266
O	 1.073547487	 1.9536828633	 0.2573891677	-0.187227
C	 0.9616519114	 3.3721412792	 0.1508762617	 0.14167
C	 1.3717328297	 4.1699930667	 1.4128861382	-0.27828
C	 2.2781573552	 5.0794931066	 0.5286705612	-0.012494
C	 3.7743934086	 4.6958265459	 0.5530817735	-0.218716
C	 3.4937388936	 3.5624572256	-0.4804411699	-0.233862
C	 2.042137002	 4.0910699018	-0.677335216	-0.059321
H	-0.8047033101	 1.781283514	-0.5374635801	 0.07554
H	-0.0476234173	 3.6313425269	-0.1904961846	 0.086237
H	 0.5493373969	 4.6636731892	 1.934608186	 0.108397
H	 1.9282165827	 3.5651106637	 2.1337222877	 0.119267
H	 2.0088367289	 6.1350327124	 0.4973459467	 0.068798
H	 4.4128132143	 5.48163943	 0.1404109494	 0.102403
H	 4.1818512887	 4.3975358576	 1.5236864196	 0.099762
H	 4.1096638902	 3.6026830369	-1.380502654	 0.106479
H	 3.537793404	 2.5466818411	-0.0829479578	 0.125695
H	 1.7712463908	 4.4065935742	-1.6856474482	 0.06694
