14
gdb 128609	2.64432	1.35335	0.90035	6.2539	66.85	-0.2529	-0.0723	0.1805	1206.891	0.099721	-473.799169	-473.791034	-473.79009	-473.832564	28.355	
C	 0.0592395842	 1.322052385	 0.0063943723	-0.260656
O	 0.0047763999	-0.0989472035	 0.0027019947	-0.255845
C	-1.2299567529	-0.6275892757	 0.010530844	 0.171953
C	-2.468273709	-0.0588989797	 0.0218048752	-0.055464
O	-3.4004240801	-1.0407320634	 0.0259108222	-0.152347
N	-2.7940882738	-2.2669669668	 0.0174864049	-0.162303
C	-1.495666842	-2.0344243047	 0.0082214076	 0.187443
C	-0.4909434835	-3.123698711	-0.0028896196	 0.094999
O	-0.7519304556	-4.3000202971	-0.0042257669	-0.243256
H	 1.1150429582	 1.592802059	-0.000992841	 0.151121
H	-0.4329942317	 1.7334282024	-0.8839057941	 0.133555
H	-0.4191266592	 1.7282482599	 0.906578741	 0.133555
H	-2.8406041656	 0.9507703517	 0.0277857856	 0.15915
H	 0.554926431	-2.753992806	-0.0101211259	 0.098096
