21
gdb 74729	2.23334	2.09905	1.49009	0.292	88.56	-0.2088	0.0195	0.2283	999.0495	0.183702	-349.85756	-349.850052	-349.849108	-349.888885	31.689	
C	 0.1422654623	 1.4202719918	 0.0817141967	-0.521287
C	 0.0305634304	-0.0630996769	-0.0155739393	 0.308794
C	 0.0562567583	-0.8815043019	-1.0708535171	-0.184899
C	-0.0271918082	-2.2692520731	-0.4443416363	-0.129372
C	 1.0337581357	-2.0931200748	 0.7574209476	-0.304777
C	-0.0699969127	-1.0342992909	 1.1929524933	 0.197656
C	-1.1026080354	-0.5818877184	 2.2684915233	-0.323258
C	-2.2066792772	-1.0915182549	 1.2368930143	-0.285444
C	-1.0895245068	-2.050681383	 0.707991725	 0.05126
H	 0.9976387488	 1.7166480117	 0.7029084771	 0.125832
H	 0.2719423007	 1.8703888142	-0.9068513556	 0.123008
H	-0.7450968824	 1.8729425634	 0.5420073069	 0.124149
H	 0.161859861	-0.6527796167	-2.1225606456	 0.091024
H	-0.0116734609	-3.1483460795	-1.0906139221	 0.05925
H	 1.1096215444	-2.9644300246	 1.4153638436	 0.095285
H	 2.0241354431	-1.7250320411	 0.4745484456	 0.09197
H	-1.0896297098	-1.2020953389	 3.1684558918	 0.106238
H	-1.1239536254	 0.4722722084	 2.5605044764	 0.094587
H	-3.1112381095	-1.5483621354	 1.6454990144	 0.092355
H	-2.4791349144	-0.3006496779	 0.535525961	 0.116363
H	-1.0861888919	-2.9319511016	 1.359827159	 0.071267
