21
gdb 58484	2.22684	1.29571	1.05873	1.7149	85.22	-0.2415	0.0453	0.2868	1262.13	0.178863	-387.050547	-387.040172	-387.039227	-387.085167	39.427	
C	-0.3138881984	 1.4741415381	 0.0974284159	-0.412892
C	 0.1054200751	 0.0124322897	-0.1233755209	-0.013798
C	 1.0070496798	-0.1344960452	-1.357154389	-0.394332
C	 0.790315254	-0.5445611763	 1.1174373189	 0.418631
O	 2.0157063324	 0.0618720752	 1.4448656608	-0.475122
C	-0.0196204678	-1.078420136	 2.2646447154	-0.36132
C	 0.8045167247	-2.0356938578	 1.3970456582	-0.258795
C	 0.1599167068	-2.9802970306	 0.5344219342	 0.335599
C	-0.3770092529	-3.7836698138	-0.1832076851	-0.458705
H	 0.5615811202	 2.1214463071	 0.2285502614	 0.1086
H	-0.8661488125	 1.8540663579	-0.7673034283	 0.117712
H	-0.9538821776	 1.5811559083	 0.9798292853	 0.112025
H	-0.8004287735	-0.5841369735	-0.2821234907	 0.085155
H	 1.9577957753	 0.3832283981	-1.1993728479	 0.12252
H	 1.2223409389	-1.18734797	-1.5592909404	 0.127804
H	 0.5260979449	 0.2913677574	-2.2434781857	 0.103308
H	 1.8248209802	 0.9321525121	 1.8119318663	 0.285245
H	 0.3488266821	-0.902942011	 3.2690486822	 0.117198
H	-1.0980538046	-1.1253700136	 2.1624367554	 0.123546
H	 1.7298720371	-2.3766841624	 1.8511137612	 0.123797
H	-0.8472529943	-4.4926098637	-0.8182450273	 0.193824
