18
gdb 42826	2.57408	1.82339	1.65207	1.8561	74.68	-0.2347	-0.0172	0.2174	915.9302	0.150216	-401.926942	-401.920116	-401.919172	-401.957897	28.026	
O	-0.0241166728	 0.0173517272	 0.0659810319	-0.331147
C	-0.0384499322	 1.2131209657	 0.0034999605	 0.422652
C	-1.1177460059	 2.2959552758	 0.094892058	-0.13827
C	-0.0150595191	 3.1544399429	 0.7970533264	-0.246343
C	 1.036423947	 2.3149394596	-0.0053842568	-0.158846
C	 1.1219276452	 2.922412587	-1.4029719214	-0.015698
C	 0.6846111869	 2.1525562701	-2.5991999058	-0.261109
N	-0.1552725914	 3.2272239532	-2.0625984804	-0.088139
C	-1.3764832335	 2.8697235541	-1.3223035484	-0.17806
H	-2.053771252	 2.0730631628	 0.6101069955	 0.088632
H	-0.0314425824	 4.2277804631	 0.5956645635	 0.114694
H	 0.0331854497	 2.9700758817	 1.871636437	 0.115539
H	 2.0178586659	 2.0997465744	 0.4195087384	 0.090855
H	 1.883532925	 3.6930345748	-1.5114836433	 0.099047
H	 1.1178160688	 2.3578521493	-3.5746811715	 0.116175
H	 0.3796718734	 1.118563123	-2.4498576067	 0.133526
H	-1.9685430128	 2.164348506	-1.9159933783	 0.118952
H	-1.9729184897	 3.7830261495	-1.2095488087	 0.117543
