23
gdb 100914	2.04145	1.11612	0.77092	1.8634	83.68	-0.2427	-0.0304	0.2124	1552.6136	0.201521	-425.431194	-425.419637	-425.418693	-425.469001	40.098	
C	 0.0818421544	 1.5662145816	 0.1159229378	-0.394014
C	 0.0616046153	 0.036449614	 0.0357722197	-0.174693
C	 0.7263326799	-0.534566326	-1.232808623	-0.001414
C	 2.2341811126	-0.246271493	-1.2778153179	-0.408385
C	 0.455572097	-2.055064001	-1.3416454568	 0.038697
O	-0.9380339207	-2.2780349381	-1.2313388258	-0.244761
C	-1.2811740514	-3.6247320677	-0.9717645487	-0.245429
C	 0.9266083563	-2.5802622609	-2.6954143949	 0.135559
O	 2.0080369068	-3.0547417046	-2.9259835234	-0.245345
H	 1.0980410589	 1.9665641773	 0.1800533756	 0.117836
H	-0.3977226623	 2.0138737962	-0.7620206089	 0.114886
H	-0.4619225529	 1.9121149071	 1.0005413604	 0.114173
H	 0.5645751939	-0.3865348411	 0.9167484172	 0.088742
H	-0.972382218	-0.3146027588	 0.0704576809	 0.11805
H	 0.2479107933	-0.0620247018	-2.1036604336	 0.079648
H	 2.7155894294	-0.6917802113	-2.1513171023	 0.136792
H	 2.4215375751	 0.8298634386	-1.3069249532	 0.119696
H	 2.7316262027	-0.6477429854	-0.3872171258	 0.117359
H	 1.0074132817	-2.5832214244	-0.5475233343	 0.083081
H	-0.951009361	-4.3028976257	-1.7728446854	 0.115787
H	-0.8449493926	-3.9753787523	-0.0246386085	 0.114601
H	-2.3702219208	-3.6701585588	-0.901460272	 0.1335
H	 0.1493457424	-2.4649113439	-3.4876186872	 0.085633
