19
gdb 72290	3.11064	1.57253	1.31354	1.9131	73.82	-0.2408	0.0763	0.3171	1009.5114	0.161582	-422.993216	-422.985911	-422.984966	-423.024494	30.101	
O	-0.1726858845	 1.4566802974	-0.0531418445	-0.459064
C	-0.006826591	 0.0817470097	-0.0739714681	 0.371654
C	 0.6592269289	-0.672838364	-1.2223761998	-0.34932
C	-0.3608941494	-1.8447680082	-0.9762774746	 0.107906
O	 0.142470214	-3.0538907974	-0.4431212915	-0.262405
C	 1.1037129956	-2.8683470119	 0.585211361	-0.076334
C	 0.6400541125	-1.9117525421	 1.698145485	-0.245302
C	-0.1909890789	-0.7459121951	 1.1844389276	-0.100122
C	-1.1243383145	-0.94977988	 0.0170594963	-0.143579
H	 0.5926744091	 1.8487088133	 0.3812859128	 0.28489
H	 0.4378857833	-0.1819531158	-2.1736286514	 0.110482
H	 1.7313096297	-0.8825824029	-1.1766862472	 0.093541
H	-0.924186104	-2.1263161893	-1.8661925164	 0.088594
H	 1.2935900459	-3.8638062471	 0.9958474638	 0.106062
H	 2.0501070456	-2.5123303943	 0.1539376929	 0.092746
H	 0.0134381075	-2.4654242635	 2.4086399088	 0.107716
H	 1.5181436732	-1.5650163424	 2.2571000479	 0.094588
H	-0.6325080873	-0.1342533551	 1.9681584714	 0.088847
H	-2.1974586657	-0.8193776013	 0.0752478859	 0.089099
