18
gdb 117283	3.23573	0.81325	0.72746	1.947	70.17	-0.2754	-0.0041	0.2713	1590.2926	0.144189	-476.254319	-476.243776	-476.242832	-476.29174	35.485	
C	-0.1168818579	 1.3348321356	-0.2658334945	-0.478747
C	 0.2830249788	-0.1162991786	-0.3275521142	 0.429099
O	 1.3923675844	-0.555639285	-0.1887300997	-0.3439
O	-0.81382834	-0.8953627189	-0.5580021772	-0.244676
C	-0.6361160526	-2.2844155851	-0.6144748118	 0.390837
N	-1.0756980846	-2.9360160174	 0.3671676608	-0.449599
C	-0.0228244481	-2.7398766127	-1.910441263	-0.26874
C	 0.1112519297	-4.2500006967	-2.0563500069	-0.101567
O	 0.678977825	-4.4898327052	-3.3317283849	-0.418124
H	 0.7721552724	 1.9505983809	-0.1370620196	 0.151185
H	-0.6469846562	 1.6197711592	-1.1786207871	 0.152049
H	-0.8035438486	 1.490413414	 0.5712291688	 0.161158
H	-0.9663326654	-3.9389453273	 0.2215790492	 0.23411
H	-0.6283820122	-2.3469100995	-2.7361413333	 0.137557
H	 0.9646045232	-2.2764866459	-2.0022188949	 0.161353
H	 0.7492632567	-4.6452563083	-1.2501673096	 0.102548
H	-0.8780688818	-4.726683529	-1.9623771355	 0.09454
H	 0.8051044573	-5.43765705	-3.4333678467	 0.290918
