25
gdb 122636	3.46203	0.74387	0.66185	0.8609	90.57	-0.248	0.0833	0.3313	1834.9064	0.227855	-389.480408	-389.469768	-389.468824	-389.516788	38.752	
C	-0.106611016	 1.4778939753	-0.1677498445	-0.384058
C	-0.0517577296	-0.0380791143	-0.2577169339	-0.025989
O	-1.3398462506	-0.5522888586	 0.0041529677	-0.244399
C	-1.4057793629	-1.9621202054	-0.0572627845	-0.063312
C	-2.8385649999	-2.3791772946	 0.2310549152	-0.019232
C	-3.8222666256	-2.0401516908	-0.9251165638	-0.213676
C	-3.7429511928	-3.517752553	-1.395019779	-0.226974
C	-3.1585158042	-3.8943847258	-0.003825713	 0.040224
C	-2.0684497827	-4.9539104735	 0.0895916782	-0.414182
H	 0.8792934035	 1.9090669963	-0.3659445184	 0.112368
H	-0.8151633154	 1.8795219912	-0.897783372	 0.125391
H	-0.4292935012	 1.7910996889	 0.8292669177	 0.125686
H	 0.289094333	-0.3536824066	-1.2591307485	 0.081779
H	 0.6752899577	-0.4422685883	 0.4678400868	 0.082139
H	-1.0831115757	-2.3113475237	-1.0540489339	 0.078623
H	-0.7143937223	-2.4097210958	 0.6775203474	 0.08153
H	-3.1110631411	-1.9887468202	 1.2160404381	 0.06791
H	-4.8167118929	-1.7781968749	-0.5544557018	 0.096384
H	-3.4976415792	-1.264539388	-1.622084716	 0.102016
H	-4.6718341913	-4.0068853697	-1.6995080815	 0.091351
H	-3.0075153484	-3.6575781803	-2.1940295131	 0.095603
H	-3.9815489011	-4.1733603097	 0.6640407768	 0.071924
H	-1.2234538583	-4.7320441804	-0.5708696893	 0.113085
H	-1.6803060301	-5.0448926272	 1.1103924837	 0.113355
H	-2.4607952731	-5.934851351	-0.201546678	 0.112454
