17
gdb 35259	3.13238	1.13115	0.92771	3.1903	73.56	-0.2547	0.0037	0.2584	1244.0443	0.136032	-417.956001	-417.947624	-417.94668	-417.990297	29.822	
N	-0.3776281854	-1.1548134438	 0.3162200275	-0.3332
C	-0.2315750652	-0.0133661373	 0.1970226736	 0.286039
C	-0.0490358124	 1.405894998	 0.0095507307	-0.143779
C	 0.5365848749	 2.2172190572	 1.1272097001	-0.243379
N	 1.3000160105	 1.9880350903	-0.0864342326	-0.082354
C	 2.4421815028	 1.0917605474	 0.002384837	-0.007233
C	 2.9962520805	 0.610230439	-1.3540010564	-0.081756
O	 4.2691756905	 1.2422991923	-1.1061394278	-0.268761
C	 3.7999382912	 1.8138392483	 0.1300923293	-0.086133
H	-0.7817633236	 1.8593246504	-0.6514744918	 0.145259
H	 0.1770965218	 3.2294926428	 1.285219672	 0.139155
H	 0.8193846885	 1.6743424505	 2.0270792854	 0.138614
H	 2.2941928745	 0.2857317008	 0.7324766516	 0.095685
H	 3.0895201367	-0.4737012717	-1.4797608676	 0.116067
H	 2.4797568745	 1.0407902535	-2.2202962982	 0.109927
H	 3.7248550724	 2.9071470901	 0.0832470734	 0.109859
H	 4.424481068	 1.5230389523	 0.9826096538	 0.105989
