15
gdb 14486	4.97223	1.79769	1.74772	0.8248	63.97	-0.2086	0.064	0.2726	795.2689	0.117634	-362.535608	-362.528888	-362.527944	-362.565953	26.664	
C	-0.0043573826	 1.4979727682	 0.0219425901	-0.523226
C	-0.0650839279	 0.0119904631	-0.0705427995	 0.376641
C	 0.5107756796	-1.0047450189	-1.0960987768	-0.227242
C	 0.8191473346	-1.9159777716	 0.0803637987	-0.108138
N	 0.2675945425	-0.9062414715	 1.0814041075	-0.211954
C	-1.0744233768	-0.9836111663	 0.3900413998	-0.212288
C	-0.5108235542	-2.031257101	-0.6236804782	 0.376561
O	-1.0800755421	-3.0140521416	-1.3815052955	-0.447677
H	 1.0314125446	 1.8530513863	-0.0167651734	 0.128222
H	-0.5582982798	 1.9677651188	-0.79832601	 0.124705
H	-0.442016582	 1.8306250564	 0.9683859375	 0.134243
H	 0.9804346848	-0.9132320366	-2.0650722448	 0.100974
H	 1.6320801689	-2.6049761016	 0.2734435421	 0.101161
H	-2.0083747947	-0.8710806997	 0.9304398461	 0.094081
H	-1.263404255	-3.772877364	-0.8146718934	 0.293938
