21
gdb 73499	2.83639	1.76799	1.44023	1.3876	80.77	-0.2257	0.0837	0.3094	1005.1902	0.185259	-387.101912	-387.094439	-387.093495	-387.133363	30.786	
C	 0.0325871688	 1.4684124695	 0.0311929208	-0.477697
C	-0.0071998798	-0.0340283575	 0.0026001105	 0.450515
O	 0.9802564088	-0.6079191094	-0.8342284501	-0.300127
C	 0.3514113273	-1.6156464739	-1.631108172	-0.085006
C	-0.8289025333	-2.1387273817	-0.7935636989	-0.056753
C	-0.3743377826	-3.1112331175	 0.3174566442	-0.200101
C	 0.2699330585	-2.2139179298	 1.4033813217	-0.232439
C	-0.3954933336	-0.8499967111	 1.2239577877	-0.108543
C	-1.2548450307	-0.8638253186	-0.0359564449	-0.159638
H	 1.0051125094	 1.8221544301	 0.3893873	 0.127119
H	-0.129296872	 1.8816844301	-0.970000138	 0.11967
H	-0.7395404749	 1.8636825441	 0.6977159348	 0.114837
H	-0.0058963783	-1.1796475563	-2.5770600767	 0.087404
H	 1.1011837813	-2.3791297348	-1.8622893775	 0.101489
H	-1.6163000777	-2.5582384886	-1.4240287898	 0.069527
H	-1.2560381713	-3.6122107139	 0.7324076195	 0.095665
H	 0.3002364847	-3.8905417254	-0.0528395125	 0.091262
H	 0.0989974295	-2.6077847812	 2.4089648714	 0.092956
H	 1.3524158668	-2.1378263438	 1.258982983	 0.11231
H	-0.7252958502	-0.3002331813	 2.0997464068	 0.076669
H	-2.2551285205	-0.452954929	-0.0991660002	 0.08088
