17
gdb 24261	3.94205	1.57823	1.23245	1.804	78.91	-0.1628	0.0485	0.2113	994.2068	0.140156	-380.875506	-380.868801	-380.867857	-380.906237	28.044	
C	-0.0041041387	 1.4813988219	 0.1069160766	-0.303088
C	 1.3066729526	 0.7273059057	 0.0047245128	 0.009808
N	 2.0706313095	 0.3422278608	 1.1897869639	-0.415065
C	 1.1844531889	-0.4473139807	 1.9683951459	 0.281397
C	 0.0401478462	-0.750590998	 1.277708063	 0.303855
N	-0.7253917707	-1.5766957863	 2.0601595054	-0.380653
C	-0.0605672544	-1.7898038974	 3.2481725509	-0.076402
C	 1.1373232447	-1.0929939941	 3.2290185748	-0.307725
C	-0.021999955	-0.0366539817	-0.0133099121	-0.201776
H	-0.2966059457	 1.9129213594	 1.0579957135	 0.112645
H	-0.2887435774	 2.0565556797	-0.7683115053	 0.107061
H	 1.8938677422	 0.8506826762	-0.8987888525	 0.093433
H	 2.4795065129	 1.1323023889	 1.6752780242	 0.228749
H	-1.6171909523	-1.9707299068	 1.8201490511	 0.257676
H	-0.4785164511	-2.4351629515	 4.0039166593	 0.112252
H	 1.868758422	-1.0793656695	 4.0219110403	 0.088505
H	-0.3979662337	-0.5010251667	-0.9187847918	 0.089325
