19
gdb 87833	2.94274	1.33171	1.14367	2.6698	75.98	-0.2454	0.0703	0.3157	1148.9724	0.157133	-422.973658	-422.964867	-422.963923	-423.006779	33.721	
C	-0.0843711026	 1.4195925091	-0.1116464131	-0.415773
C	-0.0111593331	-0.0697847111	 0.1033204494	-0.039414
O	 1.3005103534	-0.6684718199	 0.0466165807	-0.29574
C	 0.6106027974	-0.6811563357	 1.2811755803	 0.373452
C	 1.2472868596	-0.0873537046	 2.5564416523	-0.322173
C	 0.94432904	-1.4129722146	 3.2770060163	-0.110739
C	-0.5407622172	-1.6890472054	 3.2256874857	-0.348172
C	 0.3094618288	-1.9832285499	 2.013636729	 0.315126
O	 0.4608405177	-3.2444475883	 1.481182816	-0.443986
H	 0.6796521693	 1.9370876957	 0.4741500648	 0.127628
H	 0.0691249727	 1.6654215554	-1.1677927754	 0.129549
H	-1.0684383332	 1.8013759599	 0.1819863546	 0.119396
H	-0.7719408193	-0.6524704777	-0.4220174302	 0.077796
H	 2.3145997385	 0.0867143857	 2.4011606908	 0.123635
H	 0.786824029	 0.8111044436	 2.9800072298	 0.098938
H	 1.5921291238	-1.9032429624	 3.9916193515	 0.100261
H	-0.8551049386	-2.5795047717	 3.7614740788	 0.116336
H	-1.2604493255	-0.8728498189	 3.2355550342	 0.104671
H	-0.3806878106	-3.5230732193	 1.1039171245	 0.289208
