16
gdb 88330	3.66351	0.85349	0.84268	2.2165	68.67	-0.2841	-0.0395	0.2446	1406.181	0.121524	-475.021664	-475.012587	-475.011642	-475.056556	31.694	
C	-0.466262299	 1.4473135406	 0.2708760445	-0.43187
C	-0.0330335352	 0.0068156332	 0.2572681216	 0.081164
O	 1.2395442026	-0.2965869388	-0.3072123088	-0.229825
C	 1.0759182194	-0.5475342983	 1.0772550151	-0.012041
C	 1.8632212732	 0.2743397514	 2.0388028131	 0.368793
N	 2.4522086362	 1.3506606724	 1.7534537395	-0.475057
O	 1.8641345824	-0.3679018845	 3.2789393289	-0.204324
C	 1.7291313867	 0.3800520531	 4.4141527471	 0.158723
O	 1.8579908658	-0.0926497125	 5.4976539835	-0.243779
H	 0.3537583075	 2.1002988389	 0.5724238852	 0.160964
H	-0.7950322126	 1.7402358178	-0.7314833163	 0.136584
H	-1.3133532866	 1.5821642588	 0.9520911711	 0.121727
H	-0.8103781496	-0.7126330046	-0.0091782157	 0.103576
H	 1.0241306683	-1.5969107357	 1.3649230604	 0.120476
H	 2.9807077748	 1.7393120603	 2.5335702262	 0.2386
H	 1.4670225662	 1.4295267279	 4.1984369745	 0.106288
