19
gdb 104642	2.502	1.27821	1.00668	1.7819	77.91	-0.2516	0.0419	0.2935	1221.9955	0.157052	-422.972556	-422.96301	-422.962066	-423.006646	36.175	
O	 0.0244175723	 1.0645480373	-0.5840953753	-0.424216
C	-0.1929174599	-0.2700460771	-0.1768147863	-0.11581
C	-1.6747843928	-0.5513610536	 0.1461612863	 0.128426
C	-2.5686157674	-0.5434166979	-1.1414198003	-0.291358
C	-2.501629406	-2.0960285414	-1.1731277095	 0.115516
O	-1.505788299	-2.62138657	-2.0345682712	-0.427028
C	-1.9645015828	-2.0862963441	 0.2758434106	-0.273991
C	-2.1091800681	 0.3028134101	 1.2379866075	 0.233568
C	-2.4348006203	 1.0394461891	 2.1332799655	-0.451725
H	-0.2890592273	 1.6327164091	 0.130021394	 0.285438
H	 0.1102652476	-0.9077432256	-1.0105932703	 0.125835
H	 0.4173412008	-0.5356730527	 0.700845816	 0.0902
H	-3.5765271134	-0.1721811774	-0.9444588333	 0.108451
H	-2.1450256145	-0.0109048779	-1.9965094863	 0.117052
H	-3.4589687397	-2.6101642045	-1.3260347745	 0.069621
H	-1.7568377938	-2.4138530714	-2.9408873255	 0.284724
H	-1.0973840456	-2.7271375379	 0.4529762248	 0.118284
H	-2.7362441711	-2.3015712563	 1.0162996692	 0.112294
H	-2.743450459	 1.6720305822	 2.9286144885	 0.19472
