18
gdb 36822	10.35471	0.43616	0.4239	3.3556	78.89	-0.2614	0.0208	0.2822	2379.2974	0.147514	-398.149468	-398.139408	-398.138463	-398.186265	33.883	
N	-0.1176125053	-1.1534607494	 0.0168230587	-0.298211
C	-0.0728093264	 0.0009890243	 0.0174426507	 0.257836
C	 0.0078954394	 1.4587697856	 0.0164315504	-0.347513
C	 1.453188302	 1.9630487154	-0.1457392907	-0.130296
N	 1.4666010253	 3.4196931832	-0.1135854705	-0.305328
C	 2.8064832789	 3.9912454894	-0.1460867012	-0.1303
C	 2.7173334735	 5.5194137527	 0.0158588423	-0.34751
C	 4.0324454337	 6.1535464781	 0.0165871058	 0.257836
N	 5.0812077296	 6.6381664317	 0.015723975	-0.298212
H	-0.6191747519	 1.8406114264	-0.7985855056	 0.149708
H	-0.4107794252	 1.8487699277	 0.9497195788	 0.165698
H	 2.0557612355	 1.595100583	 0.691609287	 0.134535
H	 1.890094081	 1.5344763014	-1.0636971401	 0.111199
H	 0.9312212499	 3.7767915692	-0.9010527479	 0.219418
H	 3.3776948813	 3.576232862	 0.6912373321	 0.134533
H	 3.3697873043	 3.7521755952	-1.0640984724	 0.111199
H	 2.1239072438	 5.9517295553	-0.7991404401	 0.149709
H	 2.1966402507	 5.7564594187	 0.9491856177	 0.165698
