21
gdb 42025	3.18115	1.39927	1.03951	1.2248	78.18	-0.244	0.0893	0.3333	1168.7205	0.186278	-424.237822	-424.230232	-424.229288	-424.269963	30.221	
C	-0.0352869789	 1.4253287981	 0.0232203178	-0.07338
C	 1.4344973621	 1.9413994383	-0.003131536	-0.303376
C	 2.2016587226	 0.7004604843	 0.461048953	 0.042752
C	 3.659363427	 0.4544277844	 0.0978177393	-0.126761
O	 4.0439819886	-0.8261382138	 0.5868677669	-0.24734
C	 3.2620369987	-1.8981477375	 0.079328769	-0.071082
C	 1.7563998862	-1.7579802048	 0.387017066	-0.258028
C	 1.3374693383	-0.4022849441	-0.1466656477	 0.163467
O	 0.0100706347	-0.005518216	 0.1450369129	-0.284328
H	-0.5960117352	 1.8141562543	 0.8797908287	 0.10721
H	-0.574576774	 1.7063695292	-0.8906920316	 0.097948
H	 1.7276678712	 2.2229466208	-1.0206955748	 0.104359
H	 1.5786364416	 2.8139148249	 0.638288892	 0.106339
H	 2.1173916427	 0.6139538551	 1.5521907851	 0.085439
H	 3.802553006	 0.512855679	-0.9955432583	 0.084724
H	 4.3391697805	 1.1718979143	 0.5661973383	 0.108581
H	 3.4021911947	-1.9801380525	-1.0124356207	 0.087977
H	 3.6691121005	-2.8041498647	 0.5357662952	 0.111734
H	 1.204388496	-2.577961506	-0.0849991825	 0.101286
H	 1.5822029081	-1.8067678596	 1.4673335866	 0.110022
H	 1.4913758886	-0.4022905139	-1.2443262194	 0.052458
