23
gdb 122932	5.76515	0.48399	0.46518	2.2147	84.83	-0.2716	-0.0362	0.2354	2383.0635	0.202874	-425.447633	-425.436521	-425.435577	-425.485183	39.037	
C	-0.0287734146	 1.6138538478	 0.0410644734	-0.380034
C	-0.0109872708	 0.0836915955	-0.0017501416	-0.163532
C	 0.7234491137	-0.4773555683	-1.2244506888	-0.164775
C	 0.732022398	-2.0081466138	-1.2754288742	-0.177319
C	 1.4714316897	-2.5661277684	-2.4954646518	-0.209907
C	 1.4105702666	-4.1035059753	-2.5624296973	 0.04707
O	 0.0896660624	-4.565820864	-2.6485835045	-0.432937
C	 2.2224379229	-4.6141081861	-3.73353785	 0.136734
O	 1.7352972033	-5.3040233443	-4.5969438835	-0.261849
H	 0.9879591923	 2.0217893987	 0.0693848589	 0.11229
H	-0.5250734904	 2.0287241806	-0.8434066219	 0.11378
H	-0.5597517153	 1.9833649816	 0.9239190714	 0.111588
H	 0.4594190434	-0.303979649	 0.9116550485	 0.093869
H	-1.0410935087	-0.2961995561	 0.0048641764	 0.097748
H	 0.2559515968	-0.0857803312	-2.1387992312	 0.09382
H	 1.757066159	-0.1026000709	-1.2303037992	 0.088404
H	 1.1963442883	-2.4035949055	-0.3610662491	 0.090832
H	-0.29621653	-2.3864983436	-1.2876877823	 0.12287
H	 1.0295522385	-2.1639816769	-3.4160843598	 0.10801
H	 2.5232816876	-2.2493485156	-2.4759941453	 0.092985
H	 1.8958366211	-4.503169312	-1.6511049084	 0.090263
H	 0.0530608682	-5.0996472696	-3.4580216864	 0.293804
H	 3.2905374179	-4.3147869434	-3.7597300132	 0.096288
