12
gdb 20673	3.45716	1.99067	1.27323	4.9915	62.08	-0.285	-0.0611	0.224	872.4969	0.084294	-377.530793	-377.523853	-377.522909	-377.562395	24.291	
C	-0.0357394576	 1.5195366969	 0.0418401606	-0.512027
C	-0.0118765895	 0.0265365097	-0.0001340479	 0.065261
C	-0.0273261421	-0.8190407726	-1.0626274051	 0.005122
O	 0.0051907176	-2.1022205941	-0.658840217	-0.149727
N	 0.043932737	-2.1516267372	 0.7119856289	-0.185015
C	 0.0342046017	-0.8895198984	 1.0997567165	 0.232142
C	 0.0668070744	-0.5547005136	 2.4837465305	 0.251584
N	 0.091974602	-0.2228652823	 3.5912010366	-0.324662
H	 0.8528828913	 1.9157857626	 0.5434744555	 0.155461
H	-0.070252276	 1.9371717513	-0.9668262635	 0.139348
H	-0.9084536481	 1.8863142921	 0.591524431	 0.155464
H	-0.0596597708	-0.6625367543	-2.129542696	 0.167048
