19
gdb 91271	2.80524	1.42318	1.22272	4.4179	74.12	-0.2626	0.0157	0.2784	1091.8021	0.160501	-423.071049	-423.063119	-423.062175	-423.105018	30.418	
C	-0.4734518541	 1.507035578	-0.0810764719	-0.413848
C	-0.0114364227	 0.0557868449	-0.0486546794	 0.020434
C	 1.2778193422	-0.2869372967	-0.8619798895	-0.258448
C	 1.9684617721	-0.7780345081	 0.4296344069	 0.101274
O	 2.9833891937	 0.1113345241	 0.9030000509	-0.221908
C	 2.5584529844	 0.8767504298	 1.9487558135	 0.419787
O	 3.2544334787	 1.7087103189	 2.4520069487	-0.331918
C	 1.1315073374	 0.4837001038	 2.3350422595	-0.382864
C	 0.6779779728	-0.4909727244	 1.2550536982	-0.05815
H	 0.3360602496	 2.2032224318	 0.1633683199	 0.127236
H	-0.8321401047	 1.7667095185	-1.082866292	 0.121933
H	-1.2952087631	 1.6858312555	 0.6210876504	 0.118941
H	-0.8486161105	-0.5883947858	-0.3317681171	 0.078774
H	 1.1490049463	-1.0586784588	-1.6242202114	 0.107108
H	 1.7839258655	 0.5700630897	-1.313402414	 0.118153
H	 2.381214358	-1.7885949341	 0.4253539989	 0.09109
H	 1.1697852256	 0.0207338594	 3.3261462787	 0.139501
H	 0.5239195482	 1.3858857939	 2.4300743199	 0.141897
H	 0.1834961307	-1.3717970504	 1.6650853196	 0.081009
