15
gdb 30529	3.69462	1.04033	0.81261	7.7687	90.89	-0.1508	-0.0351	0.1157	1326.4251	0.113161	-453.957598	-453.949355	-453.948411	-453.990653	30.637	
N	-0.1616494182	 1.5112610276	 0.1558627732	-0.519574
C	 0.0673361303	 0.1596832155	-0.0026777697	 0.074887
N	-0.889078552	-0.7322687453	 0.0032295156	-0.290985
H	-1.8637381508	-0.4157542594	 0.0223994983	 0.273097
C	-0.8770907031	-2.1038260736	-0.0047703911	 0.14119
C	-2.1453923297	-2.7467955912	-0.0251601532	 0.361295
O	-3.27404842	-2.2787246979	-0.036173235	-0.449658
O	-1.8744616575	-4.1177299586	-0.0263323465	-0.210456
C	-0.5089654835	-4.2788345467	-0.0064925105	 0.013542
C	 0.1512721411	-3.095919545	 0.0084004853	-0.311835
H	 0.5039051889	 2.1102363461	-0.3122919151	 0.27286
H	-1.1132440314	 1.8233840637	 0.0125494523	 0.266965
H	 1.094119486	-0.1771205728	-0.035299086	 0.155432
H	-0.16115351	-5.2985299497	-0.0060062695	 0.126495
H	 1.2221850299	-2.9655662629	 0.0272711618	 0.096745
