19
gdb 117424	5.62209	0.59549	0.54569	2.0048	79.35	-0.2619	0.0127	0.2746	2001.82	0.155672	-423.037344	-423.026691	-423.025747	-423.07525	36.451	
C	 0.0830439216	 1.5306120092	 0.19166262	-0.391384
C	 0.0123709094	 0.0244361447	 0.0324961574	-0.045549
O	 0.6905946788	-0.5662180327	 1.1610511147	-0.248805
C	 0.7278087158	-1.9107113343	 1.1867154593	 0.45122
O	 0.2370328172	-2.6148679401	 0.3386916927	-0.355897
C	 1.4637204477	-2.4054210588	 2.4156532216	-0.32233
C	 1.5224325506	-3.9404215276	 2.4700749701	-0.351894
C	 2.2285445747	-4.4239916056	 3.6496388897	 0.28363
C	 2.8147745793	-4.7983070552	 4.6298410917	-0.426488
H	 1.1213728871	 1.8732174041	 0.2132308367	 0.130678
H	-0.4228099627	 2.0161076609	-0.6481351133	 0.124496
H	-0.403531922	 1.8491254707	 1.1178218912	 0.130684
H	-1.0198626905	-0.3388912704	 0.0110312931	 0.123131
H	 0.4971545458	-0.3151011428	-0.8881862686	 0.123164
H	 2.4709995068	-1.975747226	 2.4163329321	 0.144157
H	 0.9687969712	-2.0017765768	 3.3052508893	 0.14418
H	 0.5033023819	-4.3419965578	 2.448714028	 0.146571
H	 2.0044715593	-4.3160975897	 1.5607550733	 0.146528
H	 3.3298779079	-5.1457123617	 5.4907136011	 0.193909
