14
gdb 23299	3.05375	1.33051	0.999	2.4066	66.25	-0.2526	-0.0414	0.2112	1111.808	0.099898	-473.781555	-473.774026	-473.773082	-473.813892	28.331	
O	-0.0555690715	 1.3088069599	-0.0760840038	-0.380344
N	 0.0366498091	-0.0844446721	-0.0621779685	-0.233413
C	-1.1100962021	-0.6271542174	 0.0338185402	 0.425389
C	-2.4729795408	 0.0053219418	 0.1905329574	-0.439337
C	-3.3419377675	-1.1175054776	 0.7864148337	 0.414473
O	-4.3744659393	-0.9790220588	 1.3848325848	-0.302743
C	-2.6206362724	-2.4280892725	 0.5516609438	-0.085801
O	-2.2517958195	-2.5650296652	-0.8297234161	-0.242659
C	-1.2505923954	-2.1072936134	 0.090310957	-0.048862
H	 0.8681476997	 1.5791133988	-0.1251932012	 0.314377
H	-2.4566380133	 0.8771500307	 0.8480962029	 0.163987
H	-2.8856417084	 0.3328929466	-0.7704790434	 0.16759
H	-2.8995022707	-3.3327875091	 1.0819888108	 0.123721
H	-0.3962568679	-2.7561897017	 0.2472822123	 0.123624
