17
gdb 73142	2.46373	1.86318	1.58015	3.3065	66.4	-0.2433	0.0522	0.2954	915.9456	0.136279	-458.926576	-458.9193	-458.918356	-458.957993	28.935	
O	 0.2247156654	 1.4030491016	-0.0242522836	-0.474502
C	 0.0103869783	 0.017990761	 0.0166453163	 0.315234
C	-1.3515560002	-0.3856129195	 0.6065502157	-0.099859
O	-0.7234070672	-1.3079171824	 1.5236237172	-0.289331
C	 0.5985420083	-0.8484001351	 1.1748109441	 0.064078
C	 1.5222479517	-1.9256447562	 0.5785209805	-0.274388
C	 1.3130467429	-1.8415964892	-0.9249841293	 0.046979
O	-0.0426071761	-2.0527628452	-1.3297419742	-0.237205
C	 0.4292520995	-0.7064112727	-1.2577814917	-0.070607
H	 1.1190839244	 1.5714950842	-0.3411322382	 0.282844
H	-1.8420782755	 0.4459892888	 1.1259348821	 0.107445
H	-2.0532487483	-0.8884088198	-0.0645492972	 0.1182
H	 1.0583331972	-0.2919280684	 2.0002346531	 0.08001
H	 2.5711104723	-1.7190538581	 0.8211323821	 0.102077
H	 1.2720731461	-2.9148670127	 0.9732899483	 0.133646
H	 2.0645311607	-2.2247569447	-1.6121315089	 0.098458
H	 0.4587073106	-0.1578566713	-2.1977212162	 0.096921
