17
gdb 45188	2.91216	1.91356	1.61675	4.4552	70.88	-0.2586	0.0117	0.2703	878.7651	0.139161	-421.835527	-421.829327	-421.828383	-421.865912	26.01	
O	-0.0118038	 0.0133981563	-0.2148798389	-0.342299
C	 0.0258914195	 1.1912590091	-0.0009459	 0.424579
O	-1.1259747506	 1.9175643476	 0.1381490452	-0.236258
C	-0.9216044388	 3.2235704042	 0.7015315925	 0.092774
C	-0.1316908931	 3.069328133	 2.025508131	-0.253681
C	 1.1316889313	 3.1889111562	 1.1594432083	-0.038291
C	 0.3220259403	 3.9670537226	 0.0724725238	-0.039672
C	 1.0116867336	 3.1729843068	-1.0383760422	-0.243289
C	 1.2583539462	 2.0681493311	 0.045203428	-0.173968
H	-1.89301953	 3.7151619663	 0.6902480598	 0.095821
H	-0.2439245577	 3.9495137306	 2.6652553843	 0.110969
H	-0.321671605	 2.161957562	 2.6058048681	 0.117601
H	 2.0820490667	 3.5279363193	 1.5716293888	 0.078563
H	 0.2331039604	 5.0532898953	 0.0405085721	 0.07574
H	 0.4506259739	 2.8929554769	-1.9336482401	 0.120169
H	 1.9509287443	 3.6509364294	-1.328354327	 0.113357
H	 2.1611918991	 1.4632804632	-0.0018002839	 0.097885
