21
gdb 59216	2.8823	1.23724	1.15483	1.4348	77.01	-0.2414	0.067	0.3085	1184.1026	0.183391	-424.203945	-424.195426	-424.194482	-424.237177	33.331	
C	 0.1331812209	 1.584717934	-0.062317861	-0.404823
C	 0.1620860252	 0.0602945367	 0.0609897429	 0.096719
O	 0.81098116	-0.3578939957	 1.263260528	-0.434339
C	-1.2320854131	-0.5473856101	-0.0200569691	 0.018047
C	-2.0518286634	-0.7020504319	-1.3290177533	 0.045339
C	-1.1250865516	-1.4805428662	-2.2881942246	-0.22071
C	-0.6667471033	-2.5769206238	-1.2734888021	-0.223091
C	-1.4806356556	-2.076201829	-0.063128591	 0.055925
O	-2.7798434326	-1.7889540756	-0.6775280986	-0.302625
H	 1.1427849505	 1.9917155629	 0.0385166115	 0.12567
H	-0.2730490184	 1.8971457892	-1.030372669	 0.119296
H	-0.4956596174	 2.0268626302	 0.720431953	 0.108219
H	 0.7968019915	-0.3432928655	-0.7344675598	 0.088641
H	 0.2903380393	-0.0285502465	 2.00462016	 0.27646
H	-1.882490362	-0.1086023384	 0.7451956163	 0.073054
H	-2.6908252913	 0.0839383373	-1.7321997342	 0.076291
H	-1.6926729355	-1.892105501	-3.1249499295	 0.108083
H	-0.3058107437	-0.8778878312	-2.6901694139	 0.09877
H	-0.981931493	-3.5796508764	-1.5678081056	 0.106848
H	 0.4104215603	-2.5906174586	-1.0898553426	 0.109796
H	-1.536032087	-2.6955750406	 0.8311782226	 0.078433
