18
gdb 35857	2.13672	1.72731	1.17629	1.7687	77.02	-0.2432	0.0397	0.2829	1088.4227	0.147881	-401.882464	-401.874139	-401.873195	-401.916055	31.593	
C	 0.0364586582	-1.3128225998	 0.2800152279	-0.491369
C	 0.03588627	-0.1174318592	 0.1516477831	 0.365539
C	 0.0305066471	 1.3308971528	-0.0115452966	-0.290558
C	-0.6237834486	 2.0617021466	 1.1884620518	-0.089703
O	 0.4125676335	 2.2026923251	 2.1391231775	-0.245372
C	 1.5910128413	 2.5551228435	 1.4268689993	-0.124878
C	 1.4472296736	 1.9482610371	 0.0251675746	 0.306183
C	 2.5686917252	 1.4126637779	-0.7730545661	-0.285892
N	 1.9811828645	 2.728993762	-1.0964107127	-0.361995
H	 0.037014536	-2.3679006856	 0.4001664346	 0.199816
H	-0.4771872945	 1.589702762	-0.9481546951	 0.102962
H	-0.9995661047	 3.0434315207	 0.85580057	 0.092811
H	-1.4394855542	 1.5013002043	 1.6476720121	 0.123769
H	 1.6952965444	 3.6463507067	 1.3367075984	 0.107457
H	 2.4464708603	 2.1630587573	 1.9838249184	 0.115792
H	 3.5809726291	 1.4496985999	-0.378658536	 0.121099
H	 2.3677772161	 0.5682010991	-1.4271836958	 0.123744
H	 1.3782454027	 2.6490331497	-1.9120838855	 0.230597
