20
gdb 82508	3.20827	1.42006	1.31665	2.5972	77.9	-0.2195	0.0634	0.283	1063.881	0.171718	-403.102864	-403.094763	-403.093819	-403.134912	32.648	
C	 0.0899116413	 1.5292343163	 0.0162306199	-0.471183
C	-0.07644106	 0.0277538128	 0.0162725294	 0.346496
C	-0.8951319075	-0.6480900323	 1.0578095666	-0.299014
N	 0.5834610637	-0.7327305115	 1.1001883301	-0.145913
C	 1.242294373	-1.8892544547	 0.5159628706	-0.033977
C	 0.5832511	-3.0376764623	-0.2174700434	 0.076553
O	-0.7815501278	-3.3261061172	-0.1092696881	-0.40707
C	 1.1120830673	-1.8639741207	-1.0048123946	-0.113019
C	 0.1532264596	-0.7105333117	-1.3168073507	-0.319014
H	 1.0693188626	 1.8167236008	-0.3835724212	 0.114468
H	-0.6792565528	 2.0076350255	-0.6015693892	 0.113031
H	 0.0079188007	 1.9264143878	 1.0312219693	 0.125315
H	-1.3147118901	-0.0483030299	 1.8628524081	 0.10095
H	-1.4576012994	-1.5320277963	 0.7959105578	 0.148679
H	 2.18610055	-2.1193353637	 0.9993717936	 0.096538
H	 1.2083921477	-3.9318800949	-0.2543667164	 0.08825
H	-1.0794081968	-3.6543346301	-0.96479137	 0.289839
H	 1.9576553902	-2.0197977896	-1.6666469231	 0.084723
H	-0.7888151759	-1.056772937	-1.75657893	 0.099494
H	 0.615915734	-0.0365653214	-2.0431994288	 0.104853
