18
gdb 68712	2.36153	1.69897	1.35516	1.9967	83.44	-0.226	0.0273	0.2532	1032.9734	0.146388	-364.71957	-364.711291	-364.710347	-364.751981	32.572	
C	-0.0122413263	 1.5692562006	 0.0509001197	-0.488248
C	-0.0409777198	 0.0678359352	 0.0625921154	 0.25018
C	 1.1235842276	-0.7945866967	-0.3622574714	-0.377634
C	 0.5929997957	-0.9529097412	 1.0396322668	 0.136876
C	 1.3440265825	-0.746452907	 2.2281691415	 0.254549
C	 1.9588259481	-0.5617525706	 3.2467078822	-0.429098
N	-0.5965222645	-1.8492375273	 0.997227254	-0.161801
C	-1.7181886127	-1.0372956584	 1.5105737304	-0.246328
C	-1.273034095	-0.7998789765	 0.1183670833	-0.098192
H	 0.9745671017	 1.9418099295	 0.3428006039	 0.129735
H	-0.2325602454	 1.9616933352	-0.9490403996	 0.124735
H	-0.7478689053	 1.9867735022	 0.7459574181	 0.123701
H	 0.9837311603	-1.6182225253	-1.0571172912	 0.120705
H	 2.0776165828	-0.2827372859	-0.4396547918	 0.124948
H	 2.5095875394	-0.4110188895	 4.1417951073	 0.190276
H	-2.6247364826	-1.6174318069	 1.6545069767	 0.122264
H	-1.5158976015	-0.2981009124	 2.2812711805	 0.124677
H	-1.8681419548	-1.1024000551	-0.7385227457	 0.098654
