21
gdb 82769	2.70645	1.82866	1.48213	1.3812	80.55	-0.253	0.0819	0.3349	977.3887	0.186816	-387.090573	-387.083636	-387.082692	-387.121377	29.845	
O	-0.119294387	 1.4622153806	-0.0975522719	-0.451608
C	-0.025199232	 0.0476600018	-0.0373785294	 0.149766
C	-1.4200835336	-0.5713103862	-0.2051565126	-0.050371
C	-1.7528192287	-0.1541121886	-1.6655434836	-0.236411
C	-0.6127939084	-1.1397443493	-2.0037737668	-0.031547
C	-1.0724397249	-1.9950628236	-0.7825122313	 0.006528
C	 0.1447191246	-2.7376969767	-0.2130192465	-0.24648
C	 1.3441137228	-1.9169698192	-0.7784405856	-0.221967
C	 0.6624156109	-0.6280758177	-1.2714619608	-0.052305
H	 0.7725171868	 1.819554577	-0.0478145291	 0.278287
H	 0.4576173157	-0.252728775	 0.9038327952	 0.054824
H	-2.1237689904	-0.4303947441	 0.6160381214	 0.058814
H	-2.7255475202	-0.5312231593	-1.9913053498	 0.088494
H	-1.6432462113	 0.8988554278	-1.9255248706	 0.108077
H	-0.4749217625	-1.5655141189	-2.9990554561	 0.053846
H	-1.9657238892	-2.6004968938	-0.944832149	 0.063864
H	 0.13830943	-2.7636336656	 0.8817977695	 0.099287
H	 0.1694912239	-3.777316105	-0.553102449	 0.096347
H	 2.1202237009	-1.7218272266	-0.0310768449	 0.088847
H	 1.8190722506	-2.4476689174	-1.6108205619	 0.094379
H	 1.307783232	 0.0524384999	-1.8320577671	 0.049329
