19
gdb 79508	3.04959	1.60583	1.25633	2.9923	79.5	-0.2306	-0.0104	0.2202	1040.4779	0.16093	-385.877815	-385.870491	-385.869547	-385.909478	29.322	
C	-0.1445975726	 1.5569500194	 0.055892021	-0.407283
C	 0.0248514593	 0.0384330024	-0.0242117282	-0.127899
C	 0.9380133055	-0.4947128357	-1.1252765845	-0.012072
C	 1.3752610224	-1.9544300028	-0.7733340897	-0.066656
C	 2.735868624	-1.7010978533	-1.4624523441	-0.240243
C	 2.4351811676	-0.4112365478	-0.6652729729	-0.057791
C	 1.9323498118	-1.2909282284	 0.5404074559	-0.127784
C	 0.7939337711	-0.5405773698	 1.1828692227	 0.411807
O	 0.5459736894	-0.3928434246	 2.3520333844	-0.340722
H	 0.8250994069	 2.0662350955	 0.0578000193	 0.117293
H	-0.7217037043	 1.9364857586	-0.7929965366	 0.11498
H	-0.6664118033	 1.8281388885	 0.9779217515	 0.138098
H	-0.9648849412	-0.4358861544	-0.0660698569	 0.094174
H	 0.7045405782	-0.2615147571	-2.1657453572	 0.069709
H	 0.7527442046	-2.8501661899	-0.8150208099	 0.079801
H	 3.5811735107	-2.3048197625	-1.12235397	 0.098048
H	 2.7242165054	-1.6165384178	-2.5535573587	 0.093676
H	 3.0511186113	 0.4855342313	-0.5814464749	 0.081513
H	 2.6418502731	-1.8194001015	 1.1752477088	 0.081349
