17
gdb 96695	2.70973	1.06247	0.77051	4.6731	82.42	-0.2348	-0.0385	0.1963	1454.9887	0.132048	-418.003411	-417.992807	-417.991863	-418.041171	35.988	
C	-0.072996466	 1.6470386843	-0.1419421121	-0.333203
N	 0.0590065175	 0.2092604716	-0.1603895169	-0.243513
C	-0.9495445039	-0.5343613399	 0.0345385676	 0.27669
N	-0.8697652017	-1.9386134448	 0.0258305242	-0.389583
C	 0.2369631028	-2.7634583057	-0.1809513589	 0.407172
C	-0.128955202	-4.2418665094	-0.1045798714	-0.505593
O	 1.3548542201	-2.368429917	-0.3954749956	-0.302429
C	-2.3023153471	-0.0862383041	 0.28938485	 0.261733
C	-3.4305809596	 0.2742505511	 0.5020463103	-0.457804
H	 0.6003785714	 2.0523793057	 0.6223356022	 0.134898
H	 0.2728028912	 2.044453684	-1.1033639181	 0.134903
H	-1.088996291	 2.0181377836	 0.049218921	 0.112411
H	-1.7479698643	-2.4028847107	 0.1949693614	 0.256724
H	-0.8759071444	-4.5017153805	-0.8624257774	 0.139482
H	 0.7731884231	-4.8283117869	-0.2731381239	 0.155524
H	-0.5458090524	-4.4936632363	 0.8765500823	 0.139456
H	-4.4233165237	 0.604644835	 0.6890781553	 0.213131
