20
gdb 57699	3.20534	0.77222	0.73294	3.4627	80.38	-0.2617	-0.0347	0.227	1590.5955	0.167798	-403.182397	-403.171802	-403.170858	-403.218811	37.272	
C	 0.057263737	 1.6118597407	-0.0094611438	-0.417104
C	-0.0019288057	 0.0803677423	 0.0129923925	 0.144456
C	 0.8340827995	-0.4946591775	 1.1782422542	-0.430121
C	-1.4580150464	-0.4547192472	 0.0465878045	-0.210985
C	-2.2626604289	-0.0611529946	 1.3038851651	-0.362226
C	-3.6216853727	-0.596747589	 1.2624709215	 0.263012
N	-4.6920853782	-1.0293199605	 1.2142343869	-0.299775
C	 0.6083285354	-0.4836662936	-1.2705846657	 0.147146
O	 1.0819753643	 0.168961607	-2.1620553619	-0.245078
H	 1.0822722231	 1.9507082893	-0.1779038081	 0.135446
H	-0.555958356	 2.0192878712	-0.8180876567	 0.129597
H	-0.2874612049	 2.0376538608	 0.9374859212	 0.111175
H	 0.4590220401	-0.1446707455	 2.1441305313	 0.12764
H	 0.815527345	-1.5899460781	 1.1854558161	 0.124148
H	 1.8775212459	-0.1744476589	 1.0991246194	 0.135302
H	-1.9946166967	-0.0864765953	-0.8348662559	 0.13207
H	-1.4467041102	-1.5483380184	-0.0289287325	 0.122017
H	-1.778693139	-0.4328169507	 2.2129383043	 0.156023
H	-2.3254364428	 1.0276945932	 1.3990247534	 0.159662
H	 0.5899030112	-1.5984426651	-1.3235250356	 0.077595
