13
gdb 28856	3.21991	1.46108	1.1085	3.8929	71.83	-0.2506	-0.0855	0.1652	1024.4294	0.090393	-452.780528	-452.773481	-452.772537	-452.812236	26.517	
O	 0.0752675838	 1.2530788063	 0.428399138	-0.38729
C	-0.0154438703	-0.0436237616	 0.0935944636	 0.419483
C	-1.2541633185	-0.6318184827	 0.0828745965	-0.185639
C	-1.4869367291	-2.0044549581	-0.2110000599	 0.013424
N	-0.6773844562	-3.017267186	-0.1409556652	-0.260763
C	 0.6318530419	-2.9160779418	 0.2731335442	 0.3356
O	 1.170391463	-3.6790970598	 1.0444115973	-0.318005
C	 1.4399771175	-1.831575633	-0.3767904838	-0.056025
N	 1.1648946833	-0.5789902389	-0.3513523257	-0.273865
H	 0.9862904351	 1.526473471	 0.2500156417	 0.309514
H	-2.1115363964	 0.0199615634	 0.2087471846	 0.121931
H	-2.5032535909	-2.2476429129	-0.5286236992	 0.128533
H	 2.3799454866	-2.1333576558	-0.8407859022	 0.153103
