16
gdb 117034	2.45049	1.16119	0.82205	1.3872	68.67	-0.2592	-0.1101	0.149	1366.5243	0.120842	-475.037255	-475.027406	-475.026462	-475.073581	32.96	
C	-1.0884114839	 0.8430448844	 0.9848481348	-0.39225
C	-0.0770827013	-0.0446610836	 0.2877366851	-0.043905
O	 0.3494368143	-1.0439691142	 1.2353781521	-0.233928
C	 1.2509113223	-1.9269860308	 0.8039392182	 0.328208
N	 1.7289538829	-1.9503878707	-0.3703202151	-0.516082
C	 1.6258587277	-2.9374486057	 1.8765865171	 0.230453
O	 2.2044169304	-3.9589750807	 1.5905559022	-0.271837
C	 1.3684212723	-2.6677354088	 3.3665643424	 0.091106
O	 1.3739522674	-1.5759104988	 3.8634852218	-0.204235
H	-0.6457447787	 1.3228024212	 1.8618146343	 0.139303
H	-1.4297644303	 1.6225246809	 0.2974702561	 0.125399
H	-1.9581408842	 0.2652357496	 1.309831988	 0.130398
H	-0.4972942665	-0.5496586913	-0.5884510546	 0.127219
H	 0.8034934423	 0.5119585795	-0.049196031	 0.129659
H	 2.3715173359	-2.7398800419	-0.4518403552	 0.247514
H	 1.2891520694	-3.608700839	 3.9510142337	 0.112978
