19
gdb 107494	2.20016	1.69812	1.24115	1.3505	75.32	-0.2305	0.0637	0.2942	1079.3725	0.157831	-422.955239	-422.94665	-422.945706	-422.988318	33.052	
O	 0.2100778817	 1.4040973925	-0.1183421903	-0.417467
C	 0.0889809829	-0.0086657461	-0.0285094484	-0.175184
C	-1.3317417044	-0.4873965977	 0.0179476884	 0.144281
C	-1.9070748324	-1.6411377749	-0.7914528949	-0.358116
C	-2.4925571621	-0.2706649689	-0.9266553795	 0.064267
O	-3.4122527174	 0.006610567	 0.1391978684	-0.319239
C	-2.3440319737	-0.1378667246	 1.0896481478	 0.424784
C	-2.5780235822	-0.6719399984	 2.4599647146	-0.33621
C	-2.219169279	 0.7968251699	 2.2519597039	-0.365097
H	-0.3805226088	 1.7906073237	 0.5357403488	 0.28793
H	 0.5889965055	-0.4110474499	-0.9153040574	 0.111695
H	 0.6371275468	-0.3960037192	 0.8476359407	 0.08849
H	-1.2818581521	-1.9653172152	-1.6184451893	 0.116367
H	-2.4798900335	-2.4255285484	-0.3053913585	 0.118407
H	-2.5907057134	 0.300265534	-1.8413886573	 0.115384
H	-3.6036802061	-0.8958738333	 2.7315558192	 0.130437
H	-1.8344322976	-1.3288120131	 2.8992866943	 0.120482
H	-1.2330169985	 1.1273120485	 2.5659958086	 0.115921
H	-3.0079170257	 1.5299704041	 2.3807332911	 0.132866
