19
gdb 82132	3.20706	1.10665	0.96327	2.3859	78.	-0.2442	0.0202	0.2644	1274.7587	0.158951	-419.155278	-419.146438	-419.145494	-419.189768	32.339	
C	-0.220290965	 1.6181510401	 0.0818798202	-0.406261
C	 0.0161580208	 0.1205691847	 0.0369600646	 0.019116
C	 1.0363298435	-0.4847306372	-0.9786532756	 0.090942
O	 1.8106155031	 0.4178473502	-1.7571296189	-0.190175
C	 1.5718483991	 0.4823236487	-3.0823841901	 0.122713
N	 2.1585905217	 1.3461834581	-3.789678089	-0.44183
C	 1.7683016181	-1.0642601562	 0.2151574609	-0.057329
C	 2.1236911728	-0.0035531056	 1.1769173038	-0.242732
N	 0.743714747	-0.5148941343	 1.2026644151	-0.13994
H	 0.7067808387	 2.1939996715	 0.0508217348	 0.138045
H	-0.8256506489	 1.9296615679	-0.7756208097	 0.123692
H	-0.7653374173	 1.8796054318	 0.9944695809	 0.130097
H	-0.9421177444	-0.3999936935	-0.0490937551	 0.088203
H	 0.5855644602	-1.2427531848	-1.6271609421	 0.089353
H	 0.8571722146	-0.2757958818	-3.4339099737	 0.085561
H	 1.8832400336	 1.2422388771	-4.7639945956	 0.230012
H	 2.1481803419	-2.0775383634	 0.2852960848	 0.099629
H	 2.6926014329	-0.3077450775	 2.0496777962	 0.12644
H	 2.3366419776	 1.000262834	 0.8245525684	 0.134463
