19
gdb 114969	2.86278	1.44927	1.13563	2.0784	78.11	-0.2356	0.0064	0.242	1130.2513	0.159136	-422.970422	-422.962173	-422.961229	-423.003492	30.94	
C	 0.086218865	 1.3018208985	 0.1497618732	-0.234158
O	-0.1181075181	-0.0667705534	-0.1111174108	-0.22659
C	 0.6009288545	-0.5564203781	-1.2168290887	 0.06356
C	 2.0830894993	-0.9333398505	-0.8361901579	-0.281225
C	 1.94538993	-2.3457716964	-0.2669780606	-0.198167
C	 0.8456854529	-2.8900704992	-0.7702551783	 0.201004
C	-0.4281945378	-3.6436472114	-0.4814795505	-0.155986
O	-1.1759587995	-2.5138873063	-1.0316864711	-0.2977
C	 0.0434508443	-1.9500598522	-1.6038710589	 0.104446
H	 1.1282514346	 1.5328173587	 0.418575335	 0.102876
H	-0.189765707	 1.9245216397	-0.7157737747	 0.105668
H	-0.5554790805	 1.5657944725	 0.9937924617	 0.130448
H	 0.5612634086	 0.1671392103	-2.0455157637	 0.05668
H	 2.7380475654	-0.8818258331	-1.716510643	 0.108338
H	 2.4917327198	-0.2331225333	-0.1004212695	 0.111892
H	 2.5888143888	-2.7390111519	 0.5106720813	 0.100314
H	-0.6040227494	-4.5533657966	-1.0704334471	 0.107466
H	-0.6636878947	-3.8341632424	 0.5709462474	 0.123791
H	 0.0481031038	-2.0892928448	-2.6940434435	 0.077342
