18
gdb 95841	2.61617	1.33667	1.11188	2.8921	71.6	-0.2784	0.0128	0.2912	1149.4064	0.148484	-439.103789	-439.095454	-439.094509	-439.136737	31.295	
C	 0.0332793145	 1.5637835949	 0.078316828	-0.405717
C	 0.0416474381	 0.0462735854	 0.0263225513	 0.119367
C	 0.6816340389	-0.5136933165	-1.2503299501	-0.221621
C	 0.8428969766	-2.0428863462	-1.1324970899	-0.049661
O	 1.4684708271	-2.3910964457	 0.0895201011	-0.235991
C	 0.8180808928	-1.816427605	 1.2106585039	 0.002885
O	 0.7847135691	-0.4227735298	 1.1562416404	-0.244928
C	-0.4587942486	-2.7375275027	-1.2858858125	 0.270537
N	-1.4738010058	-3.2758430712	-1.4103590984	-0.326257
H	 1.0531620551	 1.9547292586	 0.0134911798	 0.129428
H	-0.5516681463	 1.9721151538	-0.7511262817	 0.122027
H	-0.4071653317	 1.9067894635	 1.0179554674	 0.132632
H	-0.9909675402	-0.3342129071	 0.1042361608	 0.091296
H	 0.0876983159	-0.2601969226	-2.1335929688	 0.122788
H	 1.681606215	-0.0841812242	-1.3671507061	 0.121605
H	 1.5021058022	-2.4154423647	-1.9223644	 0.138896
H	-0.2043972929	-2.2252606436	 1.2905030591	 0.103846
H	 1.4116175402	-2.1003382669	 2.0806159758	 0.128867
