14
gdb 61118	2.50783	1.24858	1.00642	3.1955	68.51	-0.2803	-0.077	0.2034	1170.8356	0.09665	-436.657647	-436.648223	-436.647279	-436.692243	33.177	
O	-0.0413943739	 1.45809873	-0.0023318914	-0.427747
C	 0.0015683481	 0.0669093188	-0.0353596208	 0.127551
C	 0.708238014	-0.4317219158	-1.3313704108	-0.385879
C	 0.0112851072	-0.0292206975	-2.5414566992	 0.311412
C	-0.5700425898	 0.2997113492	-3.5386668621	-0.410654
C	 0.7893654102	-0.4589643092	 1.1860479061	 0.127442
O	 1.2467652367	 0.3073629298	 1.9897923829	-0.239926
C	-1.354659833	-0.5228991245	 0.0674668546	 0.263154
N	-2.3922415535	-1.0165603726	 0.1888139509	-0.315968
H	 0.3417757531	 1.7175260043	 0.8528151043	 0.306234
H	 1.7215497802	-0.0133127504	-1.3159291537	 0.154826
H	 0.7991197294	-1.5244648511	-1.2913210625	 0.14705
H	-1.0876691419	 0.5900860724	-4.4195510429	 0.209795
H	 0.9016985733	-1.5560261034	 1.2651533346	 0.132712
