18
gdb 83669	2.34624	1.66872	1.31794	4.1312	74.93	-0.2586	0.0204	0.2791	1030.8428	0.148301	-401.930515	-401.92235	-401.921406	-401.963569	30.479	
C	 0.228759914	 1.5944445863	-0.2423540923	-0.408263
C	 0.1183368979	 0.0968878789	-0.0166682662	-0.01321
C	 0.580518893	-0.8452889151	-1.1578824299	 0.110763
O	 1.6876084771	-0.3287279236	-1.9184303972	-0.285039
C	 2.6434208919	-1.0950669973	-1.1422903587	-0.089902
C	 1.5423089497	-1.6026110747	-0.2014103419	-0.099384
C	 1.1463707812	-0.6219407629	 0.9542420447	-0.191512
C	 2.2136317226	 0.1795567972	 1.5276763158	 0.292073
N	 3.069600073	 0.8229499761	 1.9655233479	-0.343736
H	 1.2139244909	 1.8588562399	-0.632275267	 0.147596
H	-0.5206705354	 1.9238911462	-0.9693200804	 0.12089
H	 0.0638921451	 2.1457257119	 0.6883164012	 0.126914
H	-0.894892688	-0.1702953081	 0.2999760436	 0.087033
H	-0.1822889863	-1.3045044489	-1.7921067015	 0.082159
H	 3.104023322	-1.882501916	-1.7509446912	 0.109158
H	 3.4264990761	-0.4691689253	-0.7013483957	 0.134985
H	 1.5008102311	-2.6650350422	 0.0290402337	 0.092864
H	 0.6334298443	-1.1397390025	 1.7681812552	 0.126611
