22
gdb 100555	3.18362	0.99702	0.86535	3.3262	85.32	-0.2303	0.0305	0.2608	1454.4213	0.193295	-404.370217	-404.359721	-404.358777	-404.407565	36.997	
C	 0.0493748228	 1.4470529866	 0.1284114837	-0.375803
C	-0.0585908215	-0.0567665995	-0.1367033348	-0.153202
N	-1.4367618057	-0.5489573014	-0.1110936939	-0.100669
C	-2.2092340807	-0.4475985967	-1.3392957602	-0.343294
C	-1.9169458004	-1.0524849247	 1.069900959	 0.441665
O	-1.2481627576	-1.0210256364	 2.0972183906	-0.41553
C	-3.2896140307	-1.6549557292	 1.0731335137	-0.142672
C	-3.5527994346	-2.7089217781	 2.1325509345	-0.248326
C	-4.1572400435	-1.3526801708	 2.28591633	-0.247996
H	 1.0947983159	 1.7682667205	 0.0771216622	 0.115257
H	-0.5166119729	 2.0310012396	-0.6056046183	 0.109729
H	-0.3339169612	 1.6789964175	 1.1253145561	 0.142265
H	 0.3712930036	-0.3079497434	-1.1133918406	 0.095764
H	 0.4928874317	-0.6043449451	 0.6286779295	 0.141886
H	-2.2049206709	-1.3796800539	-1.9212434519	 0.125388
H	-3.2450575927	-0.1644133181	-1.1418560377	 0.141281
H	-1.7761366606	 0.3377224877	-1.9637556505	 0.13228
H	-3.8006051531	-1.7857337137	 0.1291918283	 0.084444
H	-4.1919489432	-3.5393229214	 1.8550695729	 0.109025
H	-2.7096058973	-2.9489469468	 2.768524448	 0.141766
H	-3.7158589202	-0.6962155023	 3.0263056822	 0.136422
H	-5.2208752872	-1.2257938305	 2.1190800173	 0.110319
