22
gdb 96086	2.52416	1.51013	1.1569	1.2843	83.47	-0.2013	0.0848	0.2861	1172.6852	0.194005	-404.323445	-404.31444	-404.313496	-404.356735	35.068	
C	 0.0722066896	 1.4182926868	-0.1168124254	-0.326221
N	-0.0475440701	-0.0128084178	 0.0702880029	-0.064095
C	-1.4081670141	-0.5218987486	 0.0220531615	-0.154642
C	-1.355769489	-2.0444884272	 0.039446723	-0.082809
O	-0.8023850516	-2.5463710659	 1.2462390097	-0.300274
C	 0.3019407148	-1.8565119026	 1.7715842433	 0.413329
C	 0.3621326055	-2.0904554601	 3.2615749548	-0.436741
C	 1.5984032565	-1.7205088715	 1.0040253744	-0.363466
C	 0.6861005935	-0.5115779169	 1.2105257842	-0.048738
H	 1.1290170487	 1.6957460734	-0.18205213	 0.122921
H	-0.4117575344	 1.7084990975	-1.0553672644	 0.115616
H	-0.3855491622	 2.0120601768	 0.6978127066	 0.092282
H	-2.0375827419	-0.1642155138	 0.8600575313	 0.080345
H	-1.8774023931	-0.1895056237	-0.9112072687	 0.098925
H	-2.3607066706	-2.471959173	-0.0266485923	 0.105297
H	-0.7751629771	-2.3900787079	-0.8294778698	 0.096017
H	 0.4590711584	-3.1610244799	 3.4708990512	 0.12509
H	 1.2191602822	-1.5761102098	 3.7045189697	 0.112127
H	-0.551474794	-1.7304739803	 3.7452008489	 0.118811
H	 2.529735684	-1.7957283547	 1.5561933525	 0.103604
H	 1.634666448	-2.0925486297	-0.0136010424	 0.115307
H	 0.993454057	 0.2480376989	 1.9295477389	 0.077316
