13
gdb 3965	5.29942	1.56486	1.20812	1.1191	67.42	-0.198	-0.0184	0.1797	912.1028	0.09696	-398.579695	-398.573169	-398.572225	-398.610316	24.876	
O	-0.0968680878	 1.3538400986	 0.1118964235	-0.401917
N	 0.054048021	-0.0469544899	 0.0699038856	-0.258165
C	-1.093285982	-0.6301625236	-0.0492256177	 0.352461
C	-2.4003649695	 0.0093536969	-0.134050026	-0.239263
C	-3.506134233	-0.7367509982	-0.2560610749	 0.066994
O	-3.5152210246	-2.0953326363	-0.3098704186	-0.208115
C	-2.3049913824	-2.7233426529	-0.2327113249	 0.058603
C	-1.1377637378	-2.0807337823	-0.1095752405	-0.206154
H	 0.8146399967	 1.6494548533	 0.1999995593	 0.304955
H	-2.47841799	 1.0859220069	-0.0985712923	 0.133354
H	-4.5113960024	-0.3408753508	-0.3250416487	 0.138913
H	-2.4203540838	-3.7975381934	-0.2843274529	 0.13809
H	-0.2140086045	-2.6424650482	-0.0538929018	 0.120244
