19
gdb 86714	2.71974	1.41563	1.16611	3.6665	75.71	-0.2442	-0.0193	0.2249	1122.6785	0.158509	-423.029388	-423.020974	-423.02003	-423.062713	31.674	
C	 0.1776314801	 1.5392000091	-0.1957210664	-0.399285
C	 0.1035896613	 0.0341341321	 0.0030004721	 0.1258
O	 0.6920724645	-0.6034247769	-1.1386338962	-0.262641
C	 1.1419701263	-1.888968033	-0.7780320011	 0.014847
C	 2.3318242425	-2.2999989895	-1.6267981758	 0.154142
O	 2.9570091037	-1.5734003169	-2.3500067277	-0.239064
C	 1.5134524798	-1.8046690885	 0.7074491592	-0.085972
C	 2.3590171726	-0.6101795091	 1.0744568214	-0.296939
C	 0.8586604163	-0.5375310371	 1.1955043806	-0.052264
H	 1.2174557598	 1.8728007462	-0.2454245464	 0.128677
H	-0.3222104758	 1.8236040193	-1.1255629416	 0.129884
H	-0.317275231	 2.0546550468	 0.6332487201	 0.113931
H	-0.9536935944	-0.2706631455	 0.0875549197	 0.069197
H	 0.3538263466	-2.6539052492	-0.9091302853	 0.081119
H	 2.6071555842	-3.3727926469	-1.4908133	 0.071644
H	 1.5438747365	-2.7125540712	 1.2968271734	 0.096354
H	 2.9312133579	-0.6697606059	 1.9929899015	 0.115245
H	 2.8431660358	-0.0683559767	 0.2681723492	 0.142809
H	 0.3983204331	-0.483129177	 2.1751139932	 0.092517
