20
gdb 53681	6.1717	0.52603	0.50878	3.3897	86.45	-0.2379	0.0322	0.27	2203.9731	0.167976	-403.16778	-403.156181	-403.155237	-403.208874	38.076	
C	 0.1010205204	 1.4095819253	 0.121149443	-0.49658
C	-0.0251049258	-0.0410217821	 0.1320114693	 0.091744
C	-0.11894423	-1.2413752695	 0.1545098097	 0.037469
C	-0.2746135371	-2.6903524363	 0.1521540808	-0.343594
C	-1.5496192542	-3.1385268838	-0.5992423854	-0.154913
N	-1.6961547121	-4.5820186479	-0.6498323392	-0.305795
C	-2.2285293353	-5.2883164908	 0.3920365686	 0.401592
C	-2.2763425377	-6.7969799845	 0.2023879591	-0.482028
O	-2.6397813726	-4.7459082444	 1.4024383814	-0.374206
H	 0.1294928958	 1.8147646169	 1.1387575705	 0.1483
H	 1.0180105436	 1.727691884	-0.387409374	 0.145061
H	-0.7430261874	 1.878707971	-0.39669535	 0.146345
H	 0.6012518401	-3.1650819309	-0.3094596364	 0.114336
H	-0.3376064662	-3.0716952182	 1.1776471523	 0.15245
H	-2.4243166424	-2.7293604453	-0.0893279653	 0.148738
H	-1.5359082743	-2.7517508392	-1.6218251522	 0.111047
H	-1.3128361301	-5.0807050376	-1.4348089146	 0.244293
H	-1.9745872095	-7.1268896581	-0.7952293277	 0.109544
H	-1.6232859866	-7.2673353553	 0.9430924838	 0.15196
H	-3.2941438786	-7.1411169532	 0.4006060564	 0.154238
