17
gdb 68516	2.60038	1.83409	1.45422	1.9804	71.27	-0.2321	-0.0037	0.2283	939.1978	0.136847	-421.799756	-421.792488	-421.791544	-421.83117	29.412	
O	-0.0662731272	 1.4171797774	 0.0913213701	-0.482879
C	 0.029681424	 0.0398363384	 0.0693481223	 0.29929
C	 0.9647700064	-0.8072222011	 1.0071764373	-0.32268
C	 0.7349342615	-1.9437585748	-0.0364789748	-0.172317
C	-0.7852903468	-2.1738572832	-0.0194323858	-0.039005
C	-1.620241349	-1.7158823255	 1.1481634691	-0.31736
C	-1.2975264453	-0.724951851	 0.0634860863	-0.067652
C	 0.7798879629	-0.7571783877	-1.0488646162	 0.367005
O	 1.3005908442	-0.4869259229	-2.087361083	-0.326383
H	 0.6967951172	 1.7785645248	-0.3750721235	 0.292903
H	 1.9933838481	-0.4401354946	 0.994404405	 0.113087
H	 0.6418831217	-0.9768551943	 2.032294341	 0.117363
H	 1.4001084246	-2.7993866698	-0.1120656643	 0.08972
H	-1.200498294	-2.8794195643	-0.7286526355	 0.103624
H	-2.6434194934	-2.0775009902	 1.1328220753	 0.120322
H	-1.2178644914	-1.6272940032	 2.149573421	 0.119825
H	-2.0766644035	-0.3456845881	-0.5861122143	 0.105137
