18
gdb 87019	2.07469	1.5514	1.05198	2.3077	80.15	-0.2494	-0.0279	0.2215	1194.072	0.144165	-401.918473	-401.908628	-401.907683	-401.953064	35.895	
C	-0.2927893572	 1.5631724447	 0.3051103883	-0.403882
C	-0.1666226527	 0.0658563235	 0.2038955447	-0.010076
N	 1.0492024759	-0.4770701086	-0.3664082709	-0.35288
C	 0.805719594	-0.7207815454	 1.0766486373	 0.00033
C	 1.6600492204	-0.0476137479	 2.0157611259	 0.244537
C	 2.3586233364	 0.5055404415	 2.8235358415	-0.397412
C	 0.3163950377	-2.1153514575	 1.4175177204	 0.342054
C	 0.3836698334	-2.5576927202	 2.8581082025	-0.500901
O	-0.1145942014	-2.8246841796	 0.5325315049	-0.321864
H	 0.6660970242	 2.0177797186	 0.5601882089	 0.143362
H	-0.6244862228	 1.9715608804	-0.6554130113	 0.129211
H	-1.0295680388	 1.8419043393	 1.0651519412	 0.122285
H	-1.087299839	-0.4767370424	-0.0059917374	 0.107773
H	 0.831294154	-1.3598180674	-0.8330345971	 0.250741
H	 2.9870050818	 0.9950801554	 3.5259701494	 0.1956
H	 1.4299307064	-2.6242691382	 3.1747868657	 0.159437
H	-0.0900989693	-1.8182900978	 3.5117365009	 0.148932
H	-0.0998932229	-3.5287977785	 2.9654706151	 0.142755
