19
gdb 88515	2.13667	1.54585	1.16922	2.7055	76.04	-0.2454	-0.0227	0.2227	1135.2669	0.158925	-419.167423	-419.158395	-419.157451	-419.201401	33.311	
C	-0.8163821353	 0.8409466636	 0.3156813951	-0.415414
C	-0.1579254301	-0.5118159024	 0.4355051357	 0.025574
N	 1.1900109161	-0.6855478586	-0.1447197809	-0.360592
C	 1.0090766859	-0.800781924	 1.3110728296	-0.130739
C	 1.6990016434	 0.2564670744	 2.1287471158	 0.2189
C	 3.1936107522	 0.3716686228	 2.0341169493	-0.270673
N	 2.3463093888	 1.4022333202	 1.453189712	-0.345466
C	 1.0755601631	 0.5990866633	 3.4383354873	 0.133124
O	 0.1625173385	-0.0129755266	 3.9353554582	-0.268001
H	-0.107442698	 1.6546409318	 0.4810828365	 0.139776
H	-1.2554041944	 0.9681418777	-0.6793844799	 0.120601
H	-1.6184079393	 0.9328021099	 1.0552825129	 0.133155
H	-0.8407011516	-1.3501052476	 0.303823462	 0.091853
H	 1.2929890393	-1.5991433416	-0.5753997424	 0.237465
H	 1.0406360774	-1.7933292073	 1.7546908378	 0.099026
H	 3.774521196	 0.6746065408	 2.9013606336	 0.125268
H	 3.681094187	-0.3416879875	 1.3742883382	 0.126772
H	 2.2573340355	 1.2199087123	 0.4519184842	 0.255436
H	 1.5367651156	 1.4820747587	 3.9333721049	 0.083937
