17
gdb 38121	2.58747	2.29949	1.6373	1.5814	71.85	-0.2296	-0.0036	0.2261	859.447	0.138443	-421.790381	-421.784054	-421.783109	-421.820637	26.839	
C	-0.0519905836	 1.4619525665	-0.037705737	-0.410881
C	 1.3472593464	 0.8430885365	-0.0289309607	-0.089759
C	 2.2715874176	 0.4195437093	-1.1218426747	-0.11695
C	 2.1631935652	-0.8502091365	-1.5234473228	-0.050041
C	 0.9191182076	-1.6308436859	-1.0854517748	 0.146594
O	 0.938402496	-2.092964272	 0.2809493636	-0.295348
C	 0.1490362899	-1.1530320131	 1.053159328	-0.152369
C	 0.1094178744	-0.0158213063	 0.0664103179	 0.365209
O	-0.1581722886	-0.7157860744	-1.1399727571	-0.265319
H	-0.3253229374	 2.0436620098	 0.8359452518	 0.125522
H	-0.4868848813	 1.8045351436	-0.970296026	 0.136757
H	 1.8537746948	 0.9896948381	 0.9238773417	 0.105915
H	 3.0513385194	 1.0832194961	-1.4841206719	 0.099836
H	 2.8371933028	-1.3029562483	-2.2428181876	 0.098578
H	 0.711028336	-2.4837834824	-1.7360016278	 0.088636
H	-0.8350612852	-1.5851280245	 1.2722309007	 0.103915
H	 0.676054286	-0.9239379666	 1.9827952869	 0.109705
