16
gdb 127764	3.3409	1.55195	1.08138	3.9284	71.62	-0.2398	-0.005	0.2348	1066.7288	0.126375	-434.047767	-434.040098	-434.039154	-434.080524	27.379	
C	-0.002665261	 1.4656493466	-0.0204745112	-0.344967
N	-0.0037396378	 0.021506268	 0.082882539	-0.09447
N	-0.0043960876	-0.7399957391	-1.0540859651	-0.157025
N	-0.0054346969	-1.9997591826	-0.7051540735	-0.288005
C	-0.0058763082	-2.0518644209	 0.6470610476	 0.248863
C	-0.0048068203	-0.7886098299	 1.1578803398	 0.294254
C	-0.00527442	-0.8097680072	 2.6473423778	-0.168183
O	-0.0065906869	-2.2161523554	 2.9451254775	-0.283765
C	-0.0070948999	-3.0471007505	 1.7604006339	-0.168973
H	 0.8877220726	 1.887012988	 0.4548235619	 0.148407
H	 0.0010204357	 1.7118364236	-1.0823299271	 0.174842
H	-0.8957487652	 1.8881033397	 0.4488079849	 0.14844
H	 0.8829173457	-0.3406800256	 3.0951272889	 0.120609
H	-0.8929172007	-0.339104044	 3.0945625638	 0.120612
H	-0.8960937368	-3.6908727486	 1.7748164963	 0.124679
H	 0.8806782673	-3.6925471721	 1.7752858355	 0.124682
