17
gdb 56990	3.0502	1.22399	0.98494	3.9875	72.05	-0.2577	0.0174	0.275	1191.5458	0.136405	-417.960938	-417.952612	-417.951668	-417.994231	31.146	
N	-1.3916898883	-0.1124983388	-0.0400943471	-0.508006
C	 0.062529518	 0.0000875843	 0.0951324546	-0.14914
C	 0.5262461853	-0.71828651	 1.2893167411	 0.291712
N	 0.9225553508	-1.313216573	 2.1968448695	-0.316403
C	 0.83913409	-0.5088730448	-1.1329409416	 0.123311
O	 0.3963066747	 0.1645394443	-2.3427162708	-0.310116
C	 1.7613659739	 0.4491794549	-2.6894781009	 0.108199
C	 2.3774885086	 1.3757853548	-1.6978128559	-0.301902
C	 2.2900655233	-0.1081105035	-1.3869456061	-0.143725
H	-1.6502072113	 0.3454751161	-0.9107755882	 0.253752
H	-1.6535072753	-1.0903942926	-0.1373230254	 0.239919
H	 0.2971164114	 1.0612639833	 0.2367358534	 0.133406
H	 0.6860586109	-1.590884177	-1.2374200049	 0.096952
H	 2.0554414146	 0.314266302	-3.7227880329	 0.115421
H	 3.3825312737	 1.7114580386	-1.9335427687	 0.12688
H	 1.7609319402	 2.1097082223	-1.187486347	 0.122308
H	 3.1549127193	-0.7213057212	-1.1796535993	 0.117432
