17
gdb 83503	2.88213	1.5078	1.45711	2.5767	66.98	-0.2354	-0.0313	0.2041	965.8987	0.13754	-458.980161	-458.972922	-458.971978	-459.011672	28.817	
O	 0.0509460975	 1.382595102	 0.1234519718	-0.455308
C	 0.0083461115	-0.0160718297	 0.0135756057	 0.154489
C	-1.3745323776	-0.6246776751	-0.3703669038	-0.092305
C	-1.511010237	-0.0665915686	-1.7931214386	-0.095785
O	-0.1507628443	-0.0609327704	-2.2977885998	-0.296392
C	 0.6890842177	-0.5809138605	-1.2416198254	-0.058953
C	 0.3709063728	-2.0799758655	-1.1307768608	 0.436764
O	 1.0527009059	-3.0095955632	-1.4651331019	-0.317749
C	-1.0319315368	-2.1224805606	-0.4894627815	-0.349011
H	 0.0699850861	 1.7417112856	-0.7718358732	 0.297319
H	 0.3987677261	-0.4341692893	 0.9463087997	 0.098606
H	-2.1983991868	-0.3748690506	 0.2970820032	 0.087312
H	-2.1360593797	-0.6899512169	-2.4413042304	 0.113573
H	-1.9027950375	 0.9568278213	-1.8080230924	 0.108249
H	 1.7255603874	-0.3228410711	-1.4490219691	 0.098525
H	-0.9593000922	-2.6155621858	 0.4867343191	 0.135415
H	-1.734302783	-2.6994910715	-1.0977936627	 0.135249
