21
gdb 63987	2.89701	1.43947	1.24956	2.2166	77.33	-0.2405	0.0726	0.3131	1099.6712	0.182775	-424.226008	-424.217441	-424.216496	-424.258823	33.809	
C	 0.1987830485	 1.5440757429	 0.0159235128	-0.449598
C	 0.0701318813	 0.0315079818	-0.0016367655	 0.377575
O	-1.2907701834	-0.3765515359	-0.0880008231	-0.479908
C	 0.9843859588	-0.7785540021	-0.9791300632	-0.30571
C	 1.4093615752	-1.7140221144	 0.1923289871	-0.028126
C	 2.873255207	-1.6614004248	 0.6336365125	-0.238378
C	 2.9510931176	-0.306632022	 1.3544436228	-0.084604
O	 1.6723864	-0.1067163374	 1.9542839063	-0.25855
C	 0.6792044488	-0.7699072807	 1.1931423803	 0.089414
H	 1.2311907171	 1.8599119278	 0.1844201272	 0.12419
H	-0.131513644	 1.9672764177	-0.9415399006	 0.099746
H	-0.4219572839	 1.9657545803	 0.8116843893	 0.128383
H	-1.647348958	-0.0383035836	-0.9167718431	 0.27408
H	 0.4429799928	-1.2616065418	-1.7958667915	 0.094751
H	 1.8127328872	-0.1987208674	-1.3991061301	 0.090798
H	 1.0147909867	-2.7271083956	 0.1194906243	 0.077016
H	 3.0854907816	-2.4749741223	 1.3348376351	 0.106908
H	 3.5811207311	-1.7336846021	-0.1972359168	 0.100941
H	 3.7016655474	-0.2721031095	 2.1490572002	 0.108494
H	 3.1770621335	 0.5028655329	 0.6426888002	 0.088658
H	-0.0749804352	-1.1722947536	 1.8731106358	 0.083919
