24
gdb 102667	1.80457	1.025	0.69688	2.8075	90.97	-0.2412	0.0334	0.2747	1735.2581	0.214079	-405.55989	-405.548207	-405.547262	-405.598721	40.662	
C	-0.0685503144	 1.563503525	-0.368114799	-0.399009
C	 0.0403370798	 0.049053865	-0.1771926036	-0.173452
C	 0.7701823683	-0.6656191625	-1.3168063427	 0.117899
C	 0.9186440963	-2.1695781173	-1.0754763277	-0.173435
C	 1.6972835647	-2.8968681562	-2.1739408216	-0.399028
O	 0.0226402785	-0.4698465876	-2.5310460006	-0.217592
C	 0.6088856566	 0.176243302	-3.5556885993	 0.136738
N	-0.0073481798	 0.369278776	-4.6354446544	-0.218065
C	 0.6991779948	 1.0728116159	-5.6845178318	-0.313956
H	 0.9215269361	 2.0286914478	-0.4386055432	 0.109324
H	-0.6210171479	 1.8050315088	-1.2801267625	 0.140714
H	-0.5917850425	 2.0261795044	 0.4737914822	 0.116331
H	 0.5712290864	-0.1742392901	 0.7562100659	 0.097453
H	-0.9604335236	-0.3892662265	-0.0825650683	 0.11138
H	 1.7683110486	-0.2185825609	-1.4449553133	 0.075316
H	 1.4161906766	-2.3087652121	-0.107991018	 0.097453
H	-0.0844223542	-2.6021093854	-0.9785568538	 0.111382
H	 1.1995283463	-2.7930885203	-3.1418234408	 0.140711
H	 2.714216684	-2.4994846008	-2.2716704577	 0.109328
H	 1.7798239558	-3.9648007104	-1.9517611282	 0.116339
H	 1.6421675987	 0.5038218504	-3.3555497153	 0.071779
H	 1.7266399182	 1.3699256446	-5.4144587584	 0.092441
H	 0.7504982064	 0.4449890024	-6.5817991068	 0.124975
H	 0.1447404663	 1.9768272578	-5.9624685809	 0.124976
