20
gdb 71133	2.79706	1.79016	1.55385	1.2779	76.67	-0.2253	0.0705	0.2957	944.8983	0.174325	-403.148328	-403.141166	-403.140222	-403.179354	30.168	
O	-0.154529727	 1.3790901865	-0.0203267351	-0.494443
C	 0.0157823148	-0.0245357238	 0.0179450508	 0.390362
C	 0.6126539048	-0.5696439345	 1.3385131662	-0.286105
C	 0.1693986621	-2.0249260128	 1.3210400829	-0.033905
C	-1.0514267859	-2.1138450136	 0.4538241072	-0.038922
C	-1.3575980358	-0.7158116588	-0.0602767637	-0.255311
N	 0.2131964064	-2.7159898574	 0.0329377949	-0.100141
C	 0.9560675851	-2.0994707878	-1.0717617759	-0.159122
C	 0.8760029853	-0.543458514	-1.1410879776	-0.276908
H	 0.7180215883	 1.7832799296	-0.0792189372	 0.271765
H	 1.7007708092	-0.4408620134	 1.388177193	 0.087939
H	 0.1704271941	-0.0484576325	 2.1950721036	 0.106725
H	 0.3241014036	-2.6472005635	 2.1980579196	 0.08463
H	-1.8657058408	-2.8077441793	 0.6417031064	 0.084775
H	-2.0700960685	-0.2137524961	 0.6036587207	 0.10957
H	-1.770067454	-0.6942711592	-1.0744547644	 0.100006
H	 1.9963053389	-2.4266987888	-0.9770695914	 0.109945
H	 0.5758569521	-2.541586791	-1.9980313546	 0.112131
H	 0.4377076345	-0.2097122874	-2.0872416522	 0.103872
H	 1.8799374227	-0.1035885623	-1.076145553	 0.083139
