22
gdb 113225	3.61358	0.89132	0.87362	2.1724	84.	-0.2279	0.0859	0.3138	1478.0454	0.191942	-404.298735	-404.288713	-404.287769	-404.334139	36.812	
C	-0.2037302906	 1.5178298684	 0.2784753291	-0.373282
C	-0.2887505262	 0.018900291	-0.0029865859	-0.116997
N	 0.5679341294	-0.3236386918	-1.1328989259	-0.107048
C	 1.9332038622	-0.7519894043	-0.8646489668	-0.294898
C	 0.9359576572	-1.7174891105	-1.4260572735	 0.285359
C	 0.4404535509	-2.8721785158	-0.5773953404	-0.482766
C	 0.9886955856	-1.973067296	-2.9083180232	 0.061699
C	 1.34465449	-3.2648562769	-3.5099247148	-0.196242
O	-0.0147683167	-2.8240168817	-3.4724624391	-0.237326
H	 0.8157035952	 1.804755895	 0.5569322434	 0.117212
H	-0.4849379992	 2.0916438814	-0.6087260556	 0.127385
H	-0.8699575376	 1.7945647822	 1.101492617	 0.110333
H	-0.033210559	-0.5366627449	 0.9145269718	 0.082178
H	-1.3168755593	-0.2543112522	-0.2680693274	 0.108022
H	 2.7106727425	-0.3171899838	-1.4896405517	 0.108417
H	 2.226607799	-0.909585138	 0.1738905339	 0.103263
H	 0.3391912668	-2.5903042557	 0.4714622598	 0.11936
H	-0.5261265077	-3.2267195173	-0.9448238001	 0.14348
H	 1.1418127513	-3.7116202788	-0.6200231414	 0.120991
H	 1.1799598454	-1.0686551736	-3.4861042008	 0.095188
H	 1.8033311237	-3.2857813733	-4.4978144339	 0.114286
H	 1.5752437671	-4.1210144633	-2.8787665045	 0.111385
