19
gdb 1923	4.4049	2.67365	2.32017	0.0761	70.65	-0.2863	0.0864	0.3726	690.2392	0.174209	-273.786179	-273.779919	-273.778975	-273.815657	25.87	
C	-0.0217447374	 1.5231095697	 0.0236208725	-0.497412
C	 0.0255311712	 0.0125848301	 0.0280848421	 0.362295
C	 0.9817347348	-0.799708917	-0.9029408928	-0.250398
C	 0.7136941276	-1.9315882887	 0.1279440965	-0.009957
C	 0.6669234828	-0.8033466959	 1.1959256003	-0.250397
C	-0.7826255658	-2.2206130894	-0.0969682244	-0.209403
C	-1.3051334382	-0.7483340935	-0.1728403014	-0.23724
H	 0.9731848992	 1.956028751	 0.173653385	 0.109744
H	-0.4114287179	 1.9043491368	-0.9278393481	 0.112405
H	-0.6736877982	 1.901298578	 0.8201243786	 0.112405
H	 0.6768968763	-0.9614096218	-1.9426964906	 0.080981
H	 2.0093862636	-0.4285875335	-0.866098804	 0.08897
H	 1.3811288758	-2.7885871669	 0.2265686132	 0.053929
H	 1.6599799204	-0.4326370334	 1.4634507044	 0.08897
H	 0.070539374	-0.968409044	 2.0999415381	 0.080981
H	-0.9642966987	-2.7810867225	-1.018943032	 0.092058
H	-1.2265194769	-2.7840639003	 0.7292612829	 0.092061
H	-2.0314491155	-0.5144534897	 0.6122887608	 0.090002
H	-1.7692333373	-0.5114677391	-1.1357364511	 0.090005
