19
gdb 33210	5.97615	0.69905	0.64831	2.7054	79.11	-0.2172	0.0349	0.2521	1724.1895	0.160307	-419.237378	-419.228232	-419.227288	-419.273326	32.195	
C	-0.0833725024	 1.3826863181	 0.0728430628	-0.228544
O	 0.027417017	-0.0193306815	 0.0367823053	-0.23368
C	 0.6865657764	-0.4849835734	-1.1205852304	-0.04163
C	 0.7156590316	-2.0107443436	-1.0594746218	-0.332449
C	 1.3546827504	-2.6074903664	-2.2732984628	 0.354001
N	 1.1550424943	-2.2324507446	-3.5198893484	-0.301517
C	 1.9305025092	-3.0661795769	-4.2927198399	-0.084626
C	 2.6087159807	-3.9581612926	-3.5080075501	-0.117186
N	 2.2336299318	-3.6525353686	-2.2167092477	-0.283642
H	 0.9040361292	 1.8718819555	 0.0734033384	 0.102264
H	-0.6546635083	 1.770259767	-0.7854727237	 0.106416
H	-0.6077451816	 1.6470470628	 0.994558575	 0.124451
H	 0.1665391658	-0.1617080349	-2.0341056328	 0.118835
H	 1.7132539569	-0.0851977968	-1.1726798441	 0.088185
H	 1.2495771327	-2.325603623	-0.1557031981	 0.10321
H	-0.3163373126	-2.3680280582	-0.9546372865	 0.133033
H	 1.95584764	-2.9737994152	-5.3678746434	 0.105017
H	 3.3005508416	-4.7533970524	-3.7293648531	 0.12564
H	 2.5484590072	-4.1171278354	-1.3815320987	 0.262222
