16
gdb 109492	2.19285	1.68615	0.99165	2.5296	65.85	-0.24	-0.0537	0.1863	1146.2223	0.123564	-475.060607	-475.052111	-475.051167	-475.094317	30.393	
C	-0.0633710739	 1.5677963857	-0.0213176093	-0.327637
N	 0.0402528658	 0.1122778457	-0.073633493	-0.29509
C	-1.2093024721	-0.5811848507	 0.0808038713	-0.231164
C	-1.165381947	-2.019029124	-0.4056766969	 0.365172
O	-0.5322431894	-2.4471782263	-1.3313829189	-0.295922
C	-2.0515486918	-2.8179333075	 0.5458407681	-0.187446
O	-2.2693088724	-1.9718117598	 1.6790382777	-0.22209
C	-1.7041208743	-0.7344552003	 1.5213962012	 0.459959
O	-1.6702678539	 0.0626223139	 2.4081053892	-0.317851
H	 0.9270405606	 2.0008859552	-0.1824523483	 0.125966
H	-0.7547751407	 1.9885663579	-0.7730682884	 0.096061
H	-0.4125054523	 1.8676372063	 0.9690489319	 0.159722
H	 0.4631795423	-0.1968365699	-0.9433132773	 0.238199
H	-2.0624987143	-0.1130561075	-0.4638438588	 0.119611
H	-3.0103029524	-3.0690426566	 0.0771554569	 0.152651
H	-1.5607114442	-3.742982022	 0.8615616246	 0.159858
