21
gdb 83113	2.22779	1.61823	1.43154	1.779	83.24	-0.225	0.0194	0.2443	1071.6721	0.183485	-387.093205	-387.084661	-387.083717	-387.125666	34.083	
C	 0.2320257438	 1.5985549604	-0.1141331646	-0.467729
C	 0.0079271188	 0.1090601581	 0.0519823376	 0.25942
C	-1.3949234369	-0.3594431228	-0.3128825323	-0.322923
C	-1.8284886086	-1.6553130548	 0.3178525776	-0.075343
C	-1.1834499315	-2.2636711757	 1.3150974398	-0.08161
C	 0.078512123	-1.743766076	 1.9480076771	-0.276593
C	 0.7420075675	-0.6114412274	 1.1840479371	-0.139913
C	 1.1627500854	-0.8183231232	-0.2541631329	 0.095523
O	 1.0165346901	-2.0386420657	-0.9187736366	-0.432906
H	 1.2729942197	 1.8696394353	 0.0894857741	 0.112998
H	-0.0005295765	 1.9226714684	-1.135920659	 0.115969
H	-0.4005764673	 2.1762210738	 0.5712583825	 0.112135
H	-2.1147234905	 0.4202715417	-0.0223688286	 0.113527
H	-1.4839086331	-0.4361402663	-1.4065278664	 0.114449
H	-2.7482283153	-2.0897587868	-0.0673085015	 0.090989
H	-1.5855171746	-3.1859343039	 1.7280062519	 0.091043
H	-0.1584812286	-1.404046843	 2.9663306926	 0.116401
H	 0.7887933178	-2.5728009319	 2.0794387218	 0.115937
H	 1.4042174158	 0.0025429544	 1.7894299149	 0.076931
H	 2.0924641484	-0.3551289997	-0.5716110846	 0.094905
H	 0.1978975126	-2.455023595	-0.6222349005	 0.286791
