18
gdb 110897	2.53722	1.55401	1.15382	3.2387	71.48	-0.2288	-0.0208	0.208	1080.8028	0.149551	-439.054665	-439.047057	-439.046113	-439.086979	29.643	
O	 0.8148951511	-0.6871110579	 0.9546209918	-0.421424
C	 0.0910653681	-0.0424863884	-0.0728516418	-0.080878
C	-1.3773767107	-0.4486137375	-0.0248743059	-0.108653
N	-2.0210002882	-0.0865307416	 1.2820710044	-0.150691
C	-3.4684643683	-0.4033648431	 0.9521824611	-0.190528
C	-3.3919982909	 0.7892448237	-0.0467999072	-0.147215
C	-2.4203127224	 1.3598457381	 1.0264219621	-0.197688
C	-2.3470708093	 0.2407136387	-1.0152473727	 0.427766
O	-2.2776133604	 0.3272081874	-2.2106079568	-0.333205
H	 0.2758029997	-0.6021288266	 1.7516614756	 0.290675
H	 0.1957166071	 1.0527446766	-0.01229809	 0.089269
H	 0.5206396504	-0.3532053522	-1.0298897195	 0.128823
H	-1.4280404772	-1.5371184072	-0.1432961314	 0.112999
H	-3.6468641351	-1.4117798729	 0.5694309928	 0.119377
H	-4.1081027452	-0.2041170889	 1.814723627	 0.122392
H	-4.2447501002	 1.3184052381	-0.4676575387	 0.092219
H	-2.9307009115	 1.7645284363	 1.9026451124	 0.124529
H	-1.6158762471	 2.0309507174	 0.7181826568	 0.122233
