19
gdb 78450	4.02155	1.19513	1.12799	2.0055	74.26	-0.2518	0.0815	0.3334	1148.1877	0.16043	-422.96948	-422.962028	-422.961084	-423.000921	30.724	
C	 0.0565399712	 1.5263302044	 0.0215348366	-0.428442
C	-0.0211459496	 0.0135922761	-0.0086260467	-0.033531
C	 1.2570694004	-0.7488254595	-0.2733151351	-0.050242
C	 0.6357589424	-0.7447521893	 1.1221120243	-0.050246
C	 0.417794379	-2.2545387338	 1.2676499919	-0.000763
O	 1.7051538052	-2.8025979403	 0.7682291307	-0.33467
C	 1.2161105398	-2.2597719514	-0.525319009	-0.000764
C	-0.1886347621	-2.7505459539	-0.0751301655	 0.17764
O	-0.3619476394	-4.1365283107	-0.1482528724	-0.461969
H	 1.0078666494	 1.86603553	 0.4442631327	 0.118534
H	-0.0291021825	 1.9439528658	-0.9871285137	 0.122778
H	-0.7496129768	 1.9487044187	 0.6305185811	 0.122777
H	-0.9520283131	-0.3579694478	-0.4220119725	 0.092821
H	 2.1666258244	-0.2048010325	-0.5013496586	 0.096124
H	 1.0760637052	-0.1976508788	 1.9479853501	 0.096125
H	 0.1173370991	-2.6625495349	 2.2325743393	 0.082619
H	 1.7312809611	-2.6731333777	-1.3922435318	 0.082619
H	-1.0939988061	-2.301000364	-0.4795541592	 0.083857
H	 0.4508789323	-4.5151391004	 0.2147612679	 0.284731
