18
gdb 39731	3.2978	1.671	1.63809	2.6478	73.63	-0.2437	0.087	0.3307	905.6508	0.150882	-401.918238	-401.911892	-401.910947	-401.948681	26.802	
C	 0.0598343138	 1.5017658713	 0.0156435545	-0.296942
O	 1.2032155381	 0.6303308826	-0.000153255	-0.306647
C	-0.094092648	 0.0489555721	-0.0066054117	 0.537712
C	-0.5452166549	-0.8350740823	 1.1273754632	-0.138576
C	-1.7599766731	-1.5474638032	 0.6313976851	-0.039122
C	-2.0332650194	-1.0578737131	-0.7914711481	-0.240617
C	-0.5543694593	-0.8235807037	-1.1741040946	-0.168202
C	 0.0663423004	-2.1619084583	-0.7265707071	-0.160372
N	-0.4533490137	-2.246009721	 0.6669530383	-0.127548
H	-0.0911325671	 2.0525074006	 0.9433472801	 0.116918
H	-0.0985233725	 2.0782079189	-0.8949948276	 0.115535
H	-0.3263984751	-0.6206412742	 2.1656863922	 0.098707
H	-2.5381742959	-1.9212389669	 1.2855601442	 0.095628
H	-2.5226582431	-1.812232028	-1.4150930589	 0.105106
H	-2.6307052985	-0.1414989404	-0.811796322	 0.104966
H	-0.3331694155	-0.460056372	-2.1749417253	 0.07859
H	-0.2809270145	-3.0229967916	-1.3045052144	 0.102599
H	 1.1591591081	-2.1474929607	-0.714728273	 0.122264
