19
gdb 6020	2.60329	1.71864	1.40448	5.7723	71.35	-0.2421	0.0408	0.2828	993.6639	0.164372	-361.244767	-361.234931	-361.233987	-361.278481	36.247	
C	 0.086322962	 1.5648191632	-0.0473691922	-0.419729
C	 0.0028570277	 0.0369326242	 0.0807208266	 0.01231
N	 0.6772605226	-0.4930747846	 1.2688641556	-0.501048
C	-1.4728265795	-0.5048079276	 0.0348054105	 0.098198
C	-2.277161767	-0.1078382945	 1.286228678	-0.415838
N	-2.2344940416	-0.0874305877	-1.150526816	-0.528132
C	-1.3879485694	-1.98191598	-0.0231507429	 0.323174
N	-1.3246646542	-3.1318971491	-0.1115057608	-0.350365
H	 1.1365376171	 1.8696827013	-0.0831602569	 0.120657
H	-0.3959355476	 1.9388937305	-0.9555660271	 0.110379
H	-0.3722553048	 2.0653667393	 0.8126653781	 0.119742
H	 0.5030150554	-0.405616458	-0.7894717088	 0.090533
H	 1.677765602	-0.5494081453	 1.1157007057	 0.236612
H	 0.5400652872	 0.1242744446	 2.063343783	 0.227204
H	-2.374944532	 0.9808780174	 1.3444641798	 0.113877
H	-3.2788986565	-0.5373153318	 1.2294634419	 0.149334
H	-1.7881246145	-0.4702408575	 2.1917794882	 0.143684
H	-2.4008130086	 0.9130306547	-1.1167692806	 0.232897
H	-1.7125869483	-0.2823843791	-2.0002132521	 0.236511
