20
gdb 122092	3.16823	0.77186	0.6538	3.5033	77.53	-0.2688	0.0167	0.2854	1761.4805	0.16782	-440.276262	-440.265318	-440.264374	-440.313684	36.79	
C	 1.0339542499	 1.0930629942	 0.8709886888	-0.387127
C	 0.1798795317	 0.3040246183	-0.1051667655	-0.030501
O	 1.0350529723	-0.4952395908	-0.9051960178	-0.245742
C	 0.3530239142	-1.2663688424	-1.8558691728	-0.080691
C	 1.4063334854	-1.9638361847	-2.7227909844	-0.026117
O	 0.7224988034	-2.8316839085	-3.5902291421	-0.234897
C	 1.56496303	-3.6970169101	-4.3333949834	-0.249172
C	 2.2216428601	-0.9751629405	-3.4668593658	 0.278072
N	 2.8547061908	-0.2307953818	-4.0832082096	-0.328809
H	 1.6037788806	 0.4184059418	 1.5160129754	 0.1282
H	 1.7394223214	 1.7313891901	 0.3322065215	 0.136358
H	 0.4020798764	 1.7255463748	 1.5013137295	 0.118547
H	-0.5380763541	-0.3367939142	 0.4330715079	 0.090423
H	-0.4066069777	 0.9813195797	-0.746918509	 0.096253
H	-0.2686441832	-2.0458097786	-1.3889318077	 0.106944
H	-0.2977268759	-0.6507569496	-2.4952626253	 0.113743
H	 2.0894790217	-2.5171588307	-2.0585579515	 0.122199
H	 2.2302899706	-3.1371253291	-5.0033727074	 0.138262
H	 2.17569886	-4.3256627596	-3.6690254269	 0.114621
H	 0.9094577223	-4.3351070783	-4.9285142238	 0.139433
