25
gdb 122990	4.37133	0.55936	0.5398	1.6861	90.23	-0.2582	0.0874	0.3457	2191.1193	0.226721	-389.488496	-389.477395	-389.476451	-389.525699	40.121	
C	-0.1240341926	 1.6055028734	 0.099146064	-0.379153
C	-0.1891710225	 0.0782147174	 0.1846536607	-0.165701
C	 0.8304052314	-0.5154748638	 1.1626080349	-0.15945
C	 0.7699401455	-2.0437548051	 1.2532069997	-0.179239
C	 1.7917950867	-2.6248791226	 2.2410396361	-0.265907
C	 1.6801830771	-4.1292093563	 2.4228951892	 0.431009
C	 1.9991507471	-4.9973967166	 1.2240114603	-0.46131
C	 1.811204472	-4.6996082728	 3.7727083154	-0.231785
O	 0.5235113109	-4.5471690483	 3.1705014644	-0.277866
H	 0.8646522186	 1.941733084	-0.233110281	 0.11197
H	-0.8631079536	 1.9992254651	-0.6056753122	 0.110489
H	-0.3169327538	 2.0653468835	 1.0748874562	 0.113254
H	-1.1990543179	-0.2302008273	 0.4854537467	 0.09649
H	-0.0266204316	-0.352008695	-0.8126186264	 0.092844
H	 1.84216912	-0.2064387849	 0.8632279941	 0.088694
H	 0.6677687148	-0.0855365826	 2.1609607693	 0.092385
H	-0.2344133546	-2.3561459264	 1.565639996	 0.11218
H	 0.9295149329	-2.4678712753	 0.253451946	 0.093121
H	 2.8106303054	-2.3789955926	 1.9115443778	 0.093972
H	 1.653064784	-2.1480956921	 3.2183003848	 0.098687
H	 3.0287786465	-4.8322031762	 0.8880136985	 0.118172
H	 1.8799043269	-6.0543700525	 1.4740241571	 0.125079
H	 1.332575832	-4.7722092539	 0.3858796492	 0.129278
H	 2.1504622156	-5.7280408368	 3.8959536247	 0.106244
H	 2.0121065593	-4.0451946821	 4.6206253045	 0.106542
