21
gdb 115742	2.93257	1.03007	0.82851	2.7826	78.48	-0.2447	0.0711	0.3158	1422.4989	0.182743	-424.184932	-424.175763	-424.174819	-424.219808	33.886	
O	-0.0899381255	 1.4800595201	-0.1731710311	-0.425977
C	-0.0084930391	 0.1435316779	 0.2836303077	-0.065488
C	-1.3522417667	-0.5435387332	 0.0924394632	 0.098559
O	-1.722494973	-0.4883356481	-1.3131382332	-0.3068
C	-1.6211500002	-1.9241297405	-1.4416904619	-0.094343
C	-1.4252218028	-2.0970693381	 0.082748145	-0.06477
C	-0.2713640943	-2.9231844261	 0.5810938839	 0.015917
C	-0.2159731265	-3.3582051551	 2.0265234896	-0.270412
C	-0.4880938889	-4.3732072747	 0.9466457575	-0.279848
H	-0.4725613883	 1.4263343553	-1.0584150365	 0.291556
H	 0.7806036518	-0.4100987119	-0.2494625067	 0.080106
H	 0.2626190812	 0.1758426144	 1.3443786133	 0.109419
H	-2.1070804056	-0.035783805	 0.7051145229	 0.082432
H	-2.5266690806	-2.3584237984	-1.8790737822	 0.106106
H	-0.7550736094	-2.2227660871	-2.0477222197	 0.099075
H	-2.3464256335	-2.4386888861	 0.5642921524	 0.078215
H	 0.6862475488	-2.699004773	 0.1195382732	 0.087286
H	 0.7485097626	-3.3760755979	 2.5213021568	 0.11649
H	-1.0398376486	-3.0726291929	 2.6724569947	 0.113921
H	-1.4948819236	-4.7700705534	 0.8659652399	 0.113263
H	 0.2905118622	-5.086376696	 0.7007265913	 0.115293
