19
gdb 91190	3.85494	1.21652	1.01636	1.9166	82.69	-0.2362	0.0146	0.2508	1184.6898	0.161312	-385.905627	-385.898101	-385.897157	-385.937501	30.444	
O	 0.2089520654	 1.398037258	 0.1669147729	-0.434148
C	 0.0810608822	-0.0094900583	 0.0374710705	 0.130031
C	-1.3927580134	-0.511421169	-0.0139193848	-0.272909
C	-1.3112682268	-1.8001970387	-0.8612175028	-0.09217
C	-2.343119834	-2.1875631274	-1.8989009375	-0.095553
C	-1.7681297663	-2.4541404852	-3.0755790301	-0.065288
C	-0.25620624	-2.2588133121	-3.0505668552	-0.379494
C	-0.0967595564	-1.5410083474	-1.7377189743	 0.353527
C	 0.6685133395	-0.5691936801	-1.2502685802	-0.302378
H	-0.180291322	 1.7929768284	-0.6217569204	 0.271744
H	 0.5959273141	-0.4040959148	 0.9237541356	 0.092489
H	-1.8318281337	-0.6500440618	 0.9774193541	 0.097091
H	-1.9853715553	 0.2452690809	-0.5431248384	 0.092384
H	-1.1411945762	-2.6550673491	-0.1849398175	 0.087161
H	-3.4005147419	-2.2949572095	-1.6834903138	 0.094487
H	-2.2871351113	-2.8050061198	-3.9608081147	 0.094771
H	 0.2598667086	-3.2308899831	-3.0748721242	 0.11842
H	 0.1261116107	-1.6844054053	-3.9018983645	 0.116505
H	 1.5718518068	-0.1591330659	-1.6884685147	 0.093331
