15
gdb 42503	6.24358	0.63713	0.58231	1.9239	76.03	-0.2731	-0.0455	0.2276	1784.9132	0.108685	-420.581696	-420.571988	-420.571044	-420.617752	33.47	
O	-0.0702505972	-0.1021409093	 0.0014418258	-0.348209
C	-0.0145481436	 1.1016896067	 0.0051916804	 0.297299
O	 1.1248482271	 1.8170037076	-0.0025938656	-0.231633
C	 2.3397061705	 1.0439546073	-0.0160647831	-0.061935
C	 3.4934903888	 2.0479148241	-0.0214685964	-0.359113
C	 4.785444137	 1.3746818913	-0.0353491517	 0.281105
C	 5.836072132	 0.7922684336	-0.0467118993	-0.433588
C	-1.168675416	 1.9738962754	 0.0184010791	 0.221372
C	-2.1620123313	 2.6493632003	 0.0295856328	-0.355398
H	 2.3728621703	 0.3976821561	 0.8651281206	 0.140661
H	 2.3580497128	 0.4052830589	-0.9032231671	 0.140622
H	 3.3952103755	 2.7008726066	-0.8967560201	 0.146137
H	 3.410051317	 2.6932185556	 0.8610121033	 0.146135
H	 6.7714307777	 0.289843508	-0.0564647591	 0.202061
H	-3.0411440707	 3.246601988	 0.0395701006	 0.214483
