23
gdb 72527	2.5373	1.61877	1.59887	0.1729	88.44	-0.2363	0.028	0.2644	1038.8779	0.20945	-351.189924	-351.182089	-351.181144	-351.221458	33.065	
C	-0.0219579084	 1.5515106101	 0.0152382616	-0.468198
C	-0.0167488334	 0.0237171683	 0.0008955321	 0.261034
C	 0.7124383697	-0.5295389593	-1.2597835564	-0.208958
C	 0.6545169396	-2.080838212	-1.2771896289	-0.208474
C	-0.1118866633	-2.5774671413	-0.0225887713	-0.054275
C	 0.6771715527	-2.1042714106	 1.2270231466	-0.208469
C	 0.7353155149	-0.5529183952	 1.2374189158	-0.208966
C	-1.4624230153	-1.9028842579	-0.0039904503	-0.090622
C	-1.4106488571	-0.5698171892	 0.0080498447	-0.079501
H	 0.9979733985	 1.9514024149	 0.0097199969	 0.107869
H	-0.5424104989	 1.9528481622	-0.8615723179	 0.109664
H	-0.5263433017	 1.936284223	 0.9087049571	 0.109664
H	 0.2457510145	-0.1124212119	-2.1574544079	 0.091448
H	 1.7507986499	-0.1770825893	-1.2498252018	 0.087072
H	 0.1535674614	-2.4402571429	-2.1804905189	 0.094089
H	 1.6626274959	-2.5104745717	-1.2792431186	 0.089094
H	-0.1947629104	-3.667372459	-0.0320343242	 0.054569
H	 0.19235665	-2.4804011864	 2.1323234822	 0.094088
H	 1.685002146	-2.5338943386	 1.2030124506	 0.089091
H	 1.7734423681	-0.2003483195	 1.2148375784	 0.087076
H	 0.2854677286	-0.152562245	 2.1511740168	 0.091449
H	-2.3848127954	-2.4744654076	-0.0009441153	 0.083101
H	-2.285736636	 0.0734430291	 0.0220592989	 0.078153
