18
gdb 26289	3.68191	1.30749	0.97669	0.1896	85.91	-0.2057	-0.0238	0.1819	1202.5121	0.149385	-398.189283	-398.180548	-398.179604	-398.223789	30.916	
C	 0.1248058115	 1.4257079864	 0.0248923191	-0.338686
N	 0.0867967068	-0.0222207827	-0.0334782696	-0.137352
C	 0.1254640065	-0.706221883	 1.2440179762	-0.338686
C	 0.0191608443	-0.6994283323	-1.217697661	 0.499847
N	-0.011389091	-2.0485716193	-1.1633967641	-0.337453
C	-0.0771397234	-2.6863854051	-2.3254274964	 0.01909
C	-0.1143286716	-2.0354877447	-3.5540351627	-0.169007
C	-0.0777448275	-0.6464835918	-3.4919325982	 0.01909
N	-0.0120137141	 0.031579867	-2.3529179152	-0.337453
H	 1.042836777	 1.7651139425	 0.523428664	 0.116948
H	 0.0914915181	 1.8307276004	-0.9832762592	 0.167956
H	-0.7295048752	 1.8086514753	 0.5993874088	 0.116954
H	-0.7288509209	-0.4057448024	 1.8656265509	 0.116954
H	 0.0926615802	-1.7805412447	 1.0817939352	 0.167957
H	 1.043494448	-0.448215048	 1.7891487353	 0.116948
H	-0.1011898073	-3.7736793121	-2.2693189982	 0.109197
H	-0.1679575576	-2.5718419346	-4.4919457553	 0.0985
H	-0.102311214	-0.0467122131	-4.4005609385	 0.109197
