17
gdb 124940	3.21185	1.22005	0.89401	5.9931	79.08	-0.2407	-0.043	0.1977	1265.9546	0.135595	-418.052084	-418.042844	-418.0419	-418.087371	32.008	
C	-0.0297341245	 1.525037827	 0.0915320842	-0.506332
C	 0.0123492442	 0.0386913897	-0.0456135896	 0.307808
C	-0.0061059587	-0.8006140472	-1.1441426981	 0.052197
C	-0.0783773643	-0.4150147332	-2.5912365041	-0.51937
C	 0.0591162328	-2.1136019524	-0.5882344804	 0.168664
C	 0.0693851902	-3.3839699426	-1.3273790517	 0.098705
O	 0.1250523599	-4.4873943108	-0.8381409501	-0.26527
N	 0.1134653247	-2.0833849975	 0.7488974292	-0.260903
N	 0.0838655085	-0.7849253237	 1.0425359313	-0.245763
H	 0.8643947224	 1.9127556695	 0.5931049905	 0.141556
H	-0.0858475863	 1.9966608595	-0.8913105873	 0.146673
H	-0.9021183764	 1.8559489988	 0.6666936206	 0.141547
H	 0.7923834662	-0.7717049856	-3.1519253593	 0.139419
H	-0.9676948247	-0.8284095159	-3.0791293731	 0.139419
H	-0.1182937164	 0.6710373466	-2.7105380418	 0.124307
H	 0.0194905335	-3.2518511617	-2.4320789968	 0.061509
H	 0.114996709	-0.5077415905	 2.0110966265	 0.275834
