18
gdb 88489	2.32288	1.4592	1.13486	5.0349	76.4	-0.2621	0.0209	0.283	1137.0644	0.148303	-398.09078	-398.082017	-398.081073	-398.124375	32.507	
C	 0.41447811	 1.4619479586	-0.4315972055	-0.416847
C	 0.0763180936	 0.0546928323	-0.0038122342	 0.023563
N	 1.1806504756	-0.9171195892	 0.1289402598	-0.351776
C	 0.4231530275	-0.5265345145	 1.3225967497	-0.136641
C	 1.2220154985	 0.2239687603	 2.3644473042	 0.16107
C	 2.4078908116	-0.4507024938	 2.9792214882	-0.263044
N	 2.5940627879	 0.6609140282	 2.0481646237	-0.331131
C	 0.4385613045	 1.1408804995	 3.1668686402	 0.275457
N	-0.2241722645	 1.8402081653	 3.8057916493	-0.33807
H	 1.314330671	 1.8339116307	 0.0617196562	 0.147702
H	 0.57490836	 1.5031483456	-1.5138583596	 0.125074
H	-0.4102714293	 2.1383520256	-0.1853485036	 0.136526
H	-0.8441200729	-0.3338748337	-0.4376110543	 0.096396
H	 0.9110888565	-1.8412558732	-0.193442257	 0.24205
H	-0.2828332277	-1.2397861378	 1.7436501193	 0.104935
H	 2.6666718525	-0.2418709388	 4.0123209016	 0.140903
H	 2.6167368947	-1.460414965	 2.6349146935	 0.12658
H	 2.8017478103	 0.2786158399	 1.1235376384	 0.257255
