21
gdb 119882	3.04002	0.94935	0.78357	2.6457	81.58	-0.232	0.025	0.257	1495.1055	0.182224	-424.232482	-424.222667	-424.221723	-424.26786	35.773	
O	-0.1444273428	 1.4316115307	-0.1433248982	-0.419193
C	-0.0449623972	 0.0191229476	-0.2490036178	-0.070452
C	-1.3920634048	-0.567361848	 0.1772257071	-0.294791
C	-1.4290919478	-2.0646297158	 0.1403815082	 0.33759
C	-1.6572503354	-2.9028506812	 1.1530922521	-0.188419
C	-1.619677975	-4.3540602221	 0.7388134585	-0.254174
C	-1.6551492933	-4.2641391219	-0.8060485346	-0.245035
C	-1.166183338	-2.8358071188	-1.1401153006	 0.036035
O	-1.853942432	-2.2185775515	-2.2248326342	-0.437878
H	 0.6829411121	 1.8141992879	-0.4489591746	 0.283906
H	 0.1786202624	-0.2872388809	-1.2819737713	 0.093251
H	 0.7546353177	-0.3752010813	 0.3988681931	 0.08256
H	-1.6270257465	-0.2073337957	 1.1841338643	 0.104988
H	-2.1533886549	-0.1647651677	-0.5013138665	 0.129198
H	-1.8275807407	-2.592742301	 2.1791925252	 0.086746
H	-0.7004596022	-4.8410715334	 1.0941191636	 0.104565
H	-2.4511811188	-4.938510883	 1.1488985432	 0.10394
H	-1.0732415287	-5.0476900786	-1.2999704522	 0.086784
H	-2.6890173046	-4.3358344118	-1.1592548385	 0.112933
H	-0.0827664123	-2.8360802686	-1.3552859933	 0.065204
H	-1.5866584671	-2.6604513151	-3.0364906634	 0.282245
