20
gdb 126583	5.36875	0.65994	0.63403	3.9746	81.77	-0.2481	0.0028	0.2509	1813.3554	0.172058	-399.342364	-399.333154	-399.33221	-399.37799	32.912	
C	-0.1834848001	 1.5743987818	-0.0006268332	-0.381852
C	 0.0647186165	 0.0641127505	-0.0399500512	-0.163989
C	 0.6417924727	-0.4821447976	 1.2691717199	-0.151048
C	 0.8938006141	-2.0004826077	 1.2297041285	-0.312911
C	 1.5032599543	-2.5250705525	 2.4910716826	 0.321838
C	 0.9579443744	-3.2968491942	 3.4913031451	-0.179375
N	 1.9649764626	-3.4392047571	 4.3863535839	-0.148563
N	 3.0769612552	-2.8011215404	 3.9813250346	-0.115058
N	 2.7982214916	-2.2481840376	 2.8370726096	-0.247923
H	 0.7450292916	 2.1220432652	 0.1945112051	 0.117594
H	-0.5915206921	 1.9374585138	-0.9491440183	 0.110663
H	-0.8940822723	 1.8387688314	 0.790477494	 0.112558
H	-0.8749791623	-0.4565135307	-0.2695876242	 0.090568
H	 0.7507897214	-0.1735604069	-0.8637823293	 0.097265
H	 1.5870781185	 0.0232759567	 1.5001409042	 0.119321
H	-0.0398526992	-0.251623407	 2.0987753085	 0.090277
H	-0.0472147762	-2.5277885377	 1.034078505	 0.097482
H	 1.5634685374	-2.2295929912	 0.3920009446	 0.119292
H	-0.0143221253	-3.738117153	 3.6318469712	 0.142626
H	 1.9749834572	-3.9430868958	 5.2584803395	 0.281234
