18
gdb 16020	3.9445	1.84909	1.51858	1.7535	67.39	-0.2506	0.0887	0.3393	876.3726	0.155614	-384.928682	-384.921824	-384.92088	-384.959436	27.43	
C	 0.0005056767	 1.4985781653	-0.0348565268	-0.335479
C	 1.3143536537	 0.7353815156	-0.0401918033	-0.323772
C	-0.009973215	 0.010294277	 0.0387030232	 0.446472
C	-0.4201224972	-0.7467687697	 1.2861199395	-0.268988
C	 0.0212006434	-2.2071708268	 1.1356435142	-0.085708
O	-0.4461503878	-2.7366842518	-0.0996381082	-0.235104
C	 0.0080592458	-1.968899864	-1.1802538982	 0.009285
O	-0.451591413	-0.6376597149	-1.1331421378	-0.281194
H	-0.2725625175	 2.0594125919	 0.8525459775	 0.113418
H	-0.3217497126	 1.9383990192	-0.9717330367	 0.126745
H	 1.8514336746	 0.6844067743	-0.9803875912	 0.119647
H	 1.9423132541	 0.7779202471	 0.8433945488	 0.111091
H	 0.0245936408	-0.300101252	 2.181346877	 0.097277
H	-1.5106304028	-0.7090286302	 1.3895441573	 0.113826
H	 1.1211701842	-2.2750441183	 1.1789182852	 0.090758
H	-0.3933914936	-2.8414333696	 1.9231265003	 0.110812
H	 1.1137432316	-1.9782733852	-1.2103292161	 0.074809
H	-0.4034278454	-2.4141376878	-2.0880153146	 0.116106
