20
gdb 15004	4.16157	1.46296	1.16356	1.5066	71.88	-0.2472	0.0906	0.3378	1074.7376	0.178305	-386.150793	-386.142769	-386.141825	-386.183133	30.246	
C	-0.0227819597	 1.3833449796	 0.068237994	-0.240654
O	-0.0188186014	-0.0337989539	 0.0500472365	-0.237481
C	-1.2809760185	-0.6054098907	 0.0504933228	 0.23509
C	-1.1405360013	-2.1126718026	-0.1328137897	-0.216812
C	-2.5136369626	-2.7919072331	-0.0199490336	-0.213089
C	-3.2239617677	-2.3544101844	 1.2689917992	-0.191842
C	-3.2303515935	-0.8275436287	 1.3680185455	-0.065771
O	-1.9153399281	-0.3003597413	 1.2856944433	-0.262014
H	 1.0192310065	 1.7029141692	-0.0003842649	 0.124581
H	-0.578643983	 1.7898358066	-0.790601565	 0.101668
H	-0.4653848426	 1.7732984794	 0.9907254141	 0.129626
H	-1.8994384523	-0.1751967219	-0.7672188023	 0.040972
H	-0.6720065	-2.3172344781	-1.100510942	 0.100632
H	-0.4636417532	-2.4752120924	 0.6489007871	 0.112146
H	-3.1305894817	-2.5126117568	-0.8852812422	 0.095836
H	-2.4039799583	-3.8804990676	-0.0551884885	 0.098721
H	-4.2520987882	-2.7328561275	 1.2996809301	 0.092821
H	-2.6980924832	-2.7611898934	 2.1412143378	 0.105593
H	-3.8599763363	-0.4027602179	 0.5660066679	 0.083546
H	-3.6357464548	-0.4867904845	 2.3249465897	 0.106431
