15
gdb 124239	2.67088	1.5387	0.98818	1.5047	70.57	-0.2771	-0.0858	0.1913	1136.4718	0.110145	-453.953956	-453.945212	-453.944268	-453.988216	30.303	
C	-0.0028440437	 1.5411105983	-0.0932360371	-0.484776
C	 0.0007621443	 0.038171874	 0.059658066	 0.30911
O	 0.002280651	-0.5208297018	 1.1365815628	-0.294682
C	 0.0002907402	-0.7647521397	-1.1882236966	 0.238305
C	 0.0022767044	-2.1134126279	-1.4198709998	 0.183254
C	 0.0056470894	-3.2750196551	-0.4910821819	-0.505056
N	 0.0003190295	-2.2603053326	-2.7922807228	-0.163766
N	-0.0012913315	-1.1388184302	-3.3673014189	-0.002713
O	-0.0028936218	-0.1335175304	-2.3740581534	-0.217791
H	 0.8740340201	 1.868095532	-0.6619250041	 0.157808
H	-0.8819219163	 1.8641668807	-0.6607709067	 0.157861
H	-0.0032008526	 2.001385067	 0.8947239278	 0.149009
H	-0.8749468101	-3.9030521609	-0.6602312188	 0.151176
H	 0.8876959272	-3.9002245363	-0.6630864682	 0.151159
H	 0.00674982	-2.9267160171	 0.5410443016	 0.171102
