15
gdb 125711	3.24452	1.40002	0.98399	1.8024	74.85	-0.2338	-0.0565	0.1773	1141.1808	0.112648	-453.950298	-453.942512	-453.941568	-453.982543	29.597	
C	-0.2608994853	 1.4875084012	-0.0021178213	-0.470684
C	 0.0232991699	 0.0098703986	 0.0097904588	 0.374098
N	 0.1540465774	-0.5278858502	-1.1603571707	-0.167793
O	 0.4226874286	-1.9198042931	-1.1881274874	-0.276927
C	 0.5415492993	-2.6718241541	-0.0726400805	 0.358542
N	 0.7827933046	-3.9245432641	-0.0752298088	-0.581575
C	 0.3844286173	-2.012758132	 1.2266438993	 0.360742
O	 0.5126916279	-2.806628399	 2.2838769435	-0.402307
C	 0.1286824847	-0.6889415054	 1.263708993	-0.307547
H	 0.521427313	 2.0310384531	 0.5384920727	 0.141462
H	-0.3076453864	 1.8537219374	-1.0280630535	 0.153441
H	-1.2123451555	 1.6972553546	 0.4983552769	 0.141458
H	 0.8788883087	-4.3105042959	-1.0121007519	 0.239423
H	 0.6924283515	-3.6944648546	 1.9063404826	 0.316132
H	 0.0047933643	-0.1584743965	 2.1992245774	 0.121531
