14
gdb 129643	2.38492	1.90406	1.06409	2.9699	75.36	-0.1983	-0.0727	0.1257	1037.073	0.100415	-466.142266	-466.133788	-466.132844	-466.175192	31.356	
N	-0.0136637713	 1.3836619875	-0.210017447	-0.561598
C	-0.0234857026	 0.0155469617	-0.1133227983	 0.424813
C	-1.1816662286	-0.7050607682	-0.006066711	 0.084313
N	-2.4292724015	-0.0415182081	 0.0800371921	-0.617481
C	-1.1102111919	-2.1240363815	 0.1154128883	 0.339198
N	-2.1225016965	-2.8844010282	 0.3154377506	-0.554173
N	 0.2153817178	-2.6750649689	 0.0013372855	-0.120771
N	 1.25328352	-2.0794509259	-0.1441367437	 0.023902
O	 1.1839569863	-0.5443388653	-0.185879481	-0.302344
H	 0.8686849133	 1.8182509078	 0.0185398001	 0.267611
H	-0.8248590788	 1.8174096893	 0.2130296342	 0.273868
H	-3.1376856518	-0.7268122966	 0.3282673376	 0.266589
H	-2.698594859	 0.380052821	-0.8048546944	 0.24819
H	-1.8340174552	-3.8595571547	 0.3765378171	 0.227883
