21
gdb 52874	1.99857	1.13795	0.91846	1.9462	87.87	-0.2444	0.0338	0.2782	1442.4018	0.17878	-387.055594	-387.044677	-387.043732	-387.093305	38.444	
C	 0.1143002752	 1.4595726302	 0.2748605365	-0.504785
C	 0.0937190815	 0.0075615226	 0.1783985353	 0.12136
C	 0.0592469411	-1.1943223913	 0.1004839752	 0.035066
C	 0.0501816023	-2.6362081447	-0.0048147751	 0.21781
C	-0.8098527341	-3.411873854	 0.9135998803	-0.226363
O	-1.2009404209	-3.2125162721	-0.4407901726	-0.279569
C	 1.2896681891	-3.2918512482	-0.611241998	-0.043358
C	 1.4761584741	-2.8582188539	-2.0709753487	-0.398047
C	 2.5381228873	-3.0125702875	 0.235421313	-0.398603
H	 0.8994248117	 1.8895463631	-0.3564097074	 0.151068
H	-0.8415872325	 1.8869679158	-0.0472003492	 0.155278
H	 0.295703886	 1.7890840874	 1.3038777829	 0.150324
H	-0.5188119049	-4.4290297367	 1.1762443187	 0.110632
H	-1.4073935682	-2.887552555	 1.6571740081	 0.116977
H	 1.0881272392	-4.3700976828	-0.5978981945	 0.080012
H	 1.667184098	-1.7821361617	-2.1369803256	 0.122833
H	 2.3243289171	-3.3816095155	-2.5233036286	 0.108576
H	 0.5814910156	-3.0815188205	-2.6591882819	 0.129606
H	 2.4101249643	-3.3596149819	 1.266042182	 0.111476
H	 3.409473142	-3.5222326257	-0.187358382	 0.113148
H	 2.7556527262	-1.9402370876	 0.2669536914	 0.126558
