18
gdb 31541	3.24446	1.13054	0.85571	2.4884	78.5	-0.1643	0.0482	0.2125	1344.6986	0.146227	-439.107826	-439.097921	-439.096977	-439.143021	34.976	
C	-0.0831911946	 1.4224389622	 0.2148803002	-0.328851
N	 0.3493706882	 0.0628437077	-0.0926786228	-0.388885
C	 0.7632176104	-0.7546005217	 0.9421799363	 0.445339
C	 0.7360715873	-2.1090928465	 1.1186784708	-0.457464
C	 1.4234339679	-2.3351700394	 2.361885834	 0.24606
O	 1.6498683328	-3.532107613	 2.9774551232	-0.450545
C	 1.8079370644	-1.1321083477	 2.8600540404	 0.246629
C	 2.5158442399	-0.7034950108	 4.0883817276	-0.499964
O	 1.3918347729	-0.145778018	 1.968280845	-0.219131
H	 0.7328895874	 1.9611016811	 0.6996966046	 0.152517
H	-0.3202115645	 1.9319426963	-0.7218647855	 0.123284
H	-0.9620665657	 1.4665702942	 0.8757995767	 0.114655
H	-0.2701260142	-0.4234228138	-0.7242539743	 0.241413
H	 0.2900327011	-2.8435907027	 0.466182545	 0.087783
H	 1.3634679893	-4.2363380012	 2.3900538458	 0.296993
H	 3.4342481111	-0.1452345581	 3.8661999453	 0.124669
H	 1.8938602584	-0.0666032405	 4.7309950885	 0.123038
H	 2.7915606879	-1.5918673282	 4.6622239491	 0.142461
