17
gdb 131814	5.72117	0.66841	0.63721	1.5639	70.05	-0.2698	-0.023	0.2468	1702.4841	0.136209	-455.142292	-455.133525	-455.132581	-455.177301	30.404	
O	-0.0946331644	 1.4396273362	-0.135799474	-0.420061
C	 0.0059383878	 0.0288370044	-0.0353690846	-0.07438
C	-1.4089064514	-0.534543933	-0.0072999489	-0.169675
C	-1.4205713047	-2.0677466932	 0.1087567483	-0.318266
C	-2.8039187102	-2.6265218894	 0.0711287586	 0.375187
N	-3.3357457988	-3.2648404489	 1.0806570915	-0.176726
O	-4.6207328095	-3.5963808449	 0.6225250877	-0.15248
C	-4.7031271525	-3.1122829712	-0.6156443506	 0.107408
N	-3.6375994335	-2.5064325942	-1.0277307517	-0.303688
H	 0.7943771876	 1.8057338739	-0.1469330067	 0.287128
H	 0.5570632711	-0.3959239527	-0.8910048509	 0.086467
H	 0.5449923755	-0.2704670887	 0.8788495877	 0.086579
H	-1.9484927214	-0.0922197602	 0.8373076911	 0.118025
H	-1.9329349432	-0.228609709	-0.9182806375	 0.132071
H	-0.8533349306	-2.5033986233	-0.7230368679	 0.126661
H	-0.9436936441	-2.3916997438	 1.0385032712	 0.130033
H	-5.6314145276	-3.2706459123	-1.1452101632	 0.165715
