19
gdb 53192	3.01814	1.08662	1.00845	1.3813	84.23	-0.2156	0.0519	0.2675	1297.0784	0.159436	-385.855066	-385.846118	-385.845174	-385.890459	32.162	
C	-0.1154532357	 1.5051372584	 0.0191079876	-0.500705
C	-0.0714467849	 0.0505654131	 0.0638933219	 0.083619
C	-0.0417269953	-1.1547437799	 0.0901869967	 0.093591
C	 0.0276083261	-2.5850652169	 0.1028122342	-0.281961
C	-0.4055812113	-3.4396534148	 1.3048949526	-0.100444
C	-1.3210703804	-2.8030025369	 2.3370847154	-0.252537
C	-2.5283627877	-2.3018148096	 1.5051744911	-0.082724
O	-2.4719113759	-2.9554497021	 0.2287089817	-0.256854
C	-1.2023197848	-3.4942946086	 0.0425384588	 0.10722
H	 0.4603830726	 1.8911555651	-0.8295822592	 0.148491
H	-1.1431256389	 1.870250514	-0.0888936889	 0.147507
H	 0.3008689439	 1.9510530883	 0.9296391416	 0.144153
H	 0.8859975007	-2.9969208321	-0.4239405443	 0.107665
H	 0.2517025901	-4.2438312067	 1.6136425577	 0.093405
H	-1.623625502	-3.5629692681	 3.0639673467	 0.108048
H	-0.8500376967	-1.981089611	 2.8836456981	 0.115262
H	-3.4930824767	-2.546313772	 1.9610693173	 0.103735
H	-2.4744387191	-1.2194427419	 1.3579795275	 0.117756
H	-1.2049710641	-4.3301746983	-0.6479602663	 0.104772
