17
gdb 45833	2.21737	1.70144	1.06207	1.4996	76.81	-0.2457	-0.0206	0.2251	1117.1126	0.137914	-418.052293	-418.044251	-418.043307	-418.085594	30.151	
N	-0.0401238865	 1.2926786942	 0.491071358	-0.471312
C	-0.030741111	 0.1013908296	 0.0446654065	 0.308436
C	-1.3614151388	-0.5904379767	-0.1739370027	-0.274904
C	-1.5218246174	-1.6531556086	-1.2209123605	-0.039452
C	-0.6586836241	-2.0442278134	-2.1534655568	-0.087074
C	 0.7283489736	-1.4949646492	-2.3797158889	-0.370095
C	 1.617186783	-1.4185834398	-1.1467241737	 0.385734
O	 2.7214671482	-1.9138025387	-1.1014359699	-0.340284
N	 1.1463339748	-0.6728363306	-0.072850398	-0.353474
H	 0.9080172482	 1.630706454	 0.6712993943	 0.212988
H	-1.6092939269	-1.0448141056	 0.7983990373	 0.14446
H	-2.1091009206	 0.1973426661	-0.3148422844	 0.14798
H	-2.4904878222	-2.1469821962	-1.1863662173	 0.099171
H	-0.9603652014	-2.8371387338	-2.8314915894	 0.103872
H	 1.2727388626	-2.1106393458	-3.0960542287	 0.138899
H	 0.6734132348	-0.4829009689	-2.8066133834	 0.141507
H	 1.8872082436	-0.4518083665	 0.5810958976	 0.25355
