18
gdb 72829	2.70861	1.57863	1.26915	5.1478	71.36	-0.2305	0.0133	0.2437	1040.1378	0.149025	-439.108704	-439.100697	-439.099752	-439.141314	30.397	
C	-0.3001976484	 1.5361638071	-0.0205299117	-0.486963
C	 0.0565271561	 0.0594354348	-0.0317670872	 0.273833
C	-1.0609272062	-0.9108552717	 0.4317000714	-0.115595
O	-0.3064556667	-1.310790005	 1.5962322268	-0.28351
C	 0.8311793004	-0.5296534641	 1.1715818047	-0.027913
C	 1.9305675946	-1.4215518679	 0.5745870497	 0.404763
O	 2.7615959035	-2.0643459013	 1.1743430829	-0.37368
N	 1.7671670879	-1.3763962985	-0.7867875557	-0.316973
C	 0.8278489072	-0.3902117858	-1.2916950801	-0.233985
H	 0.5956729254	 2.1608365631	-0.1032763132	 0.124857
H	-0.9606988666	 1.7875922572	-0.8587588032	 0.123046
H	-0.8170539176	 1.8079435473	 0.9048652666	 0.131851
H	-2.0115337523	-0.4393700238	 0.7072434572	 0.105775
H	-1.2580755995	-1.7549550783	-0.2414671049	 0.104682
H	 1.212190859	 0.1205517252	 1.9641579897	 0.095944
H	 2.4123686234	-1.8715894967	-1.382964857	 0.252767
H	 0.1571636494	-0.8204979525	-2.0455964176	 0.113545
H	 1.3476353903	 0.4584951709	-1.7580788584	 0.107555
