27
gdb 96544	2.11778	1.37311	0.97931	0.1387	95.07	-0.2905	0.0792	0.3697	1378.2309	0.254787	-353.582546	-353.572923	-353.571979	-353.616205	38.761	
C	-0.1129699869	 1.5899943948	-0.0056659098	-0.420028
C	 0.0398163609	 0.0607648438	-0.0074809967	 0.062006
C	 0.6092840825	-0.4456910068	-1.3538765671	-0.196197
C	-0.0056121788	-1.7764247547	-1.8180413103	-0.188428
C	 0.3686634644	-3.016427179	-0.9938517159	-0.175432
C	 0.1656590124	-2.9092279766	 0.5274717626	-0.205384
C	 1.1571645321	-1.9530673337	 1.2144528645	-0.188144
C	 0.8038391379	-0.4467223953	 1.2470590058	 0.031265
C	 2.0821731813	 0.3489097909	 1.5581183561	-0.395226
H	 0.8384569844	 2.0938224216	-0.2049693985	 0.116216
H	-0.8191550162	 1.9051032412	-0.7810389935	 0.106259
H	-0.4893474993	 1.9563752044	 0.9561351688	 0.10636
H	-0.9772033993	-0.346420428	 0.0708579038	 0.066267
H	 0.4048209755	 0.3056270395	-2.1261551436	 0.086266
H	 1.7031609038	-0.5283589275	-1.3052060247	 0.089544
H	-1.0989037678	-1.6628243093	-1.8201001505	 0.090238
H	 0.2784797094	-1.9597888486	-2.8618999716	 0.086351
H	-0.2077117896	-3.8689054948	-1.374511569	 0.086802
H	 1.4244548077	-3.2621343987	-1.176159791	 0.090146
H	-0.8702357106	-2.6277140625	 0.7586479047	 0.090959
H	 0.3035762608	-3.910151786	 0.9536389209	 0.08826
H	 1.3094494968	-2.272805869	 2.2525055068	 0.088318
H	 2.1350775534	-2.0786220922	 0.7289113924	 0.088001
H	 0.1166918521	-0.291831406	 2.0915601813	 0.064557
H	 2.7833670221	 0.3241591199	 0.7154142174	 0.112456
H	 1.8754406732	 1.396625367	 1.7910873179	 0.111186
H	 2.5983805678	-0.0848907643	 2.4214044091	 0.107379
