16
gdb 20108	4.67922	1.56377	1.41091	0.4156	64.83	-0.2511	0.0676	0.3188	907.9151	0.13003	-383.675003	-383.668012	-383.667068	-383.70651	26.329	
C	 0.0264494951	 1.5122318898	 0.0287877057	-0.179186
O	 1.170262981	 0.6797693508	-0.1694226067	-0.233397
C	-0.0986226586	 0.0475233012	 0.0266415934	-0.055289
C	-0.2485592548	-0.7224272623	 1.2812353625	 0.454911
C	 0.3279548638	-0.4209776389	 2.6740776289	-0.304681
C	 0.3329471728	-1.9666103289	 2.9505370552	-0.239446
C	-0.2426227648	-2.1757399789	 1.5435055067	-0.051785
O	-1.4739296831	-1.4435726316	 1.471471468	-0.295759
H	 0.0004581683	 2.0513462426	 0.9743608177	 0.119102
H	-0.2992253614	 2.0784654354	-0.8422416781	 0.121221
H	-0.5153831283	-0.4396227007	-0.8548141786	 0.100699
H	 1.3334971221	 0.0010415003	 2.6281737604	 0.125045
H	-0.3082149201	 0.1935967156	 3.3150331145	 0.107265
H	 1.3422105559	-2.3675681225	 3.0657933322	 0.111819
H	-0.3007031714	-2.3241675646	 3.7651039193	 0.113884
H	-0.1313520566	-3.0182396273	 0.8700385289	 0.105597
