19
gdb 38910	3.47736	1.4999	1.1834	1.7654	81.09	-0.2309	0.0108	0.2417	1064.1831	0.162149	-385.888598	-385.881678	-385.880733	-385.91984	28.401	
C	-0.0767156536	 1.4592689665	-0.1524864627	-0.244903
C	 1.3478612811	 1.9339811237	 0.2646604891	-0.239565
C	 2.2414137361	 0.7388393019	-0.1101618424	-0.030167
C	 3.5090970259	 0.328657394	 0.6831058207	-0.287548
C	 3.4083085888	-1.2004968588	 0.7728190222	 0.053909
O	 2.4678470214	-1.6429070907	 1.7528356103	-0.24467
C	 2.0590963479	-1.6551636648	 0.3645383626	-0.138664
C	 1.2859888653	-0.434499564	 0.0293548318	 0.384648
C	 0.0127319066	-0.052363235	-0.0160452108	-0.239468
H	-0.8645464	 1.8934272363	 0.4723970233	 0.10479
H	-0.3077840612	 1.7526953208	-1.187679109	 0.104378
H	 1.6396498085	 2.8758177876	-0.208194824	 0.092081
H	 1.3734990704	 2.0798292457	 1.3509439741	 0.105958
H	 2.5286576076	 0.8190071336	-1.1708872421	 0.078944
H	 4.4332384559	 0.6419730781	 0.1889396489	 0.098157
H	 3.5121599282	 0.7450989379	 1.6963328226	 0.116443
H	 4.2940907204	-1.8237536704	 0.6707410657	 0.093665
H	 1.8480830283	-2.6383709218	-0.0459269527	 0.097522
H	-0.8578745776	-0.6943526408	 0.0529828926	 0.09449
