19
gdb 97546	2.7237	0.7751	0.73026	3.6913	82.8	-0.2449	-0.0321	0.2127	1686.7565	0.154236	-423.010675	-422.999434	-422.998489	-423.048393	38.522	
C	-0.0534679889	 1.5617004676	-0.0116885836	-0.366388
C	-0.0805174762	 0.0251892609	-0.1057927747	-0.318083
C	-1.4274029971	-0.5305883781	-0.0334488864	 0.022884
C	-2.5464072523	-0.9770987484	 0.0250538664	 0.062554
C	-3.915732432	-1.4966004188	 0.0952177401	 0.110508
C	-3.9520600092	-3.0244636887	 0.1961263153	-0.407721
O	-4.6464433759	-0.8760306624	 1.1563229091	-0.452671
C	-4.629022832	-1.005150997	-1.1850798182	 0.161268
O	-4.8376397009	-1.6831643024	-2.1520220199	-0.241669
H	 0.9755745436	 1.926757718	-0.075011192	 0.119806
H	-0.63018563	 2.0107209267	-0.8244579352	 0.133414
H	-0.4821454323	 1.9017001891	 0.9348465103	 0.129136
H	 0.3856149249	-0.2956214964	-1.0460770581	 0.139623
H	 0.5327102782	-0.4058101177	 0.6958825948	 0.134164
H	-3.3895492815	-3.3581823796	 1.0717793546	 0.113755
H	-4.9896761231	-3.3540249365	 0.2895124249	 0.130587
H	-3.5195861497	-3.473857207	-0.6999919459	 0.142762
H	-4.0523832665	-0.7902356817	 1.9090257376	 0.288568
H	-4.927783429	 0.0618435324	-1.1147266595	 0.097503
