21
gdb 92696	2.7513	1.21836	0.89299	2.6047	81.19	-0.2375	0.0221	0.2596	1324.5062	0.182228	-424.242837	-424.233421	-424.232477	-424.276557	36.218	
C	-0.0098583564	 1.5471555638	 0.0218422197	-0.503362
C	 0.0137369501	 0.0437253296	-0.0474353299	 0.329147
C	-0.0385672564	-0.6186715393	-1.2058731177	-0.160513
C	-0.0231191015	-2.119532181	-1.3315490254	-0.281728
C	-0.3477947793	-2.8058314472	 0.0003931739	 0.114376
O	-0.0254048913	-4.1899655592	-0.0120148839	-0.440244
C	 0.4502357677	-2.1584231026	 1.1240322742	-0.198934
C	 0.0786507424	-0.6863303149	 1.286832207	 0.004548
O	 1.0529279056	-0.1160811145	 2.1643533027	-0.432437
H	 0.9115364785	 1.9345181094	 0.4719094374	 0.131866
H	-0.1142867957	 1.9922028608	-0.9706907603	 0.123102
H	-0.8446882647	 1.9072680558	 0.6399131024	 0.114177
H	-0.0955108217	-0.0533278834	-2.1344465615	 0.078158
H	-0.7337060296	-2.4379156333	-2.107421619	 0.089229
H	 0.9654818392	-2.4667019468	-1.6657404913	 0.117508
H	-1.4234119884	-2.670730148	 0.2090843269	 0.062523
H	-0.5142455613	-4.6018060439	-0.7318149992	 0.278294
H	 0.2851813751	-2.6940260838	 2.0628301733	 0.106614
H	 1.5197894508	-2.2228501799	 0.8930604689	 0.114644
H	-0.9165639043	-0.6166893226	 1.7617604282	 0.069641
H	 0.7115310211	 0.7218895509	 2.4895399937	 0.283391
