18
gdb 71142	3.03657	1.67011	1.36287	4.3009	74.8	-0.246	-0.0079	0.2381	982.3286	0.148507	-401.944839	-401.937575	-401.936631	-401.976203	29.436	
C	-0.0284077733	 1.5150611482	-0.0028327435	-0.489962
C	 0.0428829753	 0.0030300058	-0.0098378516	 0.295374
C	-1.2784775808	-0.7928289209	 0.3017574027	-0.294907
C	-0.4811263227	-1.6550942715	 1.2874296707	-0.044536
C	 0.6873413918	-0.744451053	 1.2061325358	-0.093884
N	 0.8201172346	-2.1183159101	 0.7179628786	-0.14364
C	 0.8884001235	-2.1023919873	-0.7244305126	 0.386874
O	 1.0292843003	-3.0863551654	-1.3909750127	-0.304617
C	 0.7398054283	-0.6537301725	-1.2041944889	-0.365414
H	 0.9709054637	 1.9561058129	-0.0930798784	 0.120714
H	-0.6320709772	 1.8857137968	-0.8382888975	 0.125447
H	-0.4773391093	 1.8875451861	 0.92405641	 0.120065
H	-1.9973424898	-0.1710766757	 0.8417046533	 0.112387
H	-1.7852545963	-1.2873412624	-0.5336548617	 0.110494
H	-0.8712082108	-2.2363277534	 2.1141408939	 0.109909
H	 1.3753212913	-0.3717026258	 1.9557004563	 0.100407
H	 0.1807294854	-0.6207336026	-2.1425717809	 0.129132
H	 1.7320051862	-0.2179133593	-1.3809188734	 0.126157
