20
gdb 84155	2.46027	1.63898	1.11499	1.5356	80.36	-0.2384	0.0319	0.2702	1149.7749	0.171199	-403.161954	-403.153352	-403.152408	-403.195105	33.046	
C	 0.2029547615	 1.5277064696	-0.0353696121	-0.374279
C	 0.0328736176	 0.0049518671	-0.0162305715	 0.018872
N	 0.530424159	-0.5469595681	-1.273217262	-0.312702
C	 1.207167105	-1.6167216415	-1.3049113186	 0.383111
C	 1.6700648105	-2.2267071208	-2.5957690445	-0.452015
O	 1.6247677311	-2.3827695205	-0.2529371461	-0.258566
C	 1.4062740493	-1.8932483884	 1.0491487047	 0.099815
C	 2.1130043036	-0.6378937156	 1.4778209655	-0.323818
C	 0.6149580809	-0.638187066	 1.2352129629	-0.067851
H	 1.2631670465	 1.7986605455	-0.0513073791	 0.114709
H	-0.2682555409	 1.9447064933	-0.9291218569	 0.123098
H	-0.2526904495	 1.9812511593	 0.851068153	 0.104494
H	-1.0468602061	-0.204890421	-0.0035147584	 0.089029
H	 1.3260105546	-1.6179253853	-3.4306264751	 0.142569
H	 2.7622556444	-2.298859755	-2.6129386372	 0.135493
H	 1.2783545366	-3.2443600515	-2.6941008898	 0.136906
H	 1.3077230076	-2.7239452779	 1.7378427271	 0.105799
H	 2.4782555875	-0.5713735294	 2.4964927882	 0.116651
H	 2.7443203525	-0.1561691878	 0.7379555785	 0.128185
H	-0.0198863617	-0.585386026	 2.1148515613	 0.0905
