17
gdb 51927	4.7858	0.55438	0.54135	3.2687	81.7	-0.2408	0.0143	0.2551	2016.4799	0.135813	-417.969781	-417.960212	-417.959268	-418.007338	32.503	
O	 0.5326593866	-0.1499581954	 0.619078521	-0.319474
C	 0.3615233328	 1.0431480663	 0.4874877188	 0.161053
N	 1.1434766321	 1.8681112794	-0.2596894515	-0.268011
C	 2.3468734962	 1.3941879031	-0.936477059	-0.293787
C	 3.5265228203	 2.1891950335	-0.6140165896	 0.042836
C	 4.4904963557	 2.866123531	-0.3557758813	 0.093624
C	 5.6591030865	 3.644900226	-0.060394793	-0.159113
C	 5.9579225058	 4.0270705673	 1.3544741289	-0.225805
N	 6.7930225224	 3.0335902471	 0.6777590089	-0.303222
H	-0.4719230682	 1.5929162457	 0.9667093085	 0.081327
H	 0.9505321618	 2.8568811499	-0.2613485339	 0.254523
H	 2.4728730551	 0.3524510016	-0.6238598049	 0.177786
H	 2.1935245504	 1.3844135199	-2.0240760755	 0.142672
H	 5.9823013237	 4.3205879969	-0.8480999908	 0.11851
H	 6.4427170969	 4.9792956366	 1.5499972891	 0.127683
H	 5.2582620898	 3.6988544212	 2.1172694623	 0.126044
H	 6.5231380122	 2.0987443899	 0.9750712821	 0.243353
