21
gdb 96342	2.19501	1.67302	1.35673	1.9702	73.54	-0.249	0.0751	0.3241	1072.0485	0.182333	-461.369323	-461.360318	-461.359374	-461.402163	35.473	
C	 0.0437427548	 1.5097312108	-0.0347305525	-0.409385
C	-0.0417367654	-0.0126140914	 0.0398683717	 0.316679
C	-1.5142491913	-0.4517627433	 0.0124742258	-0.435628
O	 0.665641553	-0.4817949403	-1.135258895	-0.28887
C	 0.8942324315	-1.8634445457	-1.1693485115	 0.005585
O	 1.6408742616	-2.3185213354	-0.0659540134	-0.249958
C	 0.9334034253	-2.0698288953	 1.1470810479	-0.128417
C	 0.7135778527	-0.5585951896	 1.2856359367	 0.117832
O	 1.9720785289	 0.0736144021	 1.4495738565	-0.440234
H	 1.084372262	 1.8323018856	-0.0227193285	 0.13248
H	-0.4324797585	 1.8625577147	-0.9537468081	 0.115438
H	-0.466977692	 1.9630592865	 0.8203042571	 0.111043
H	-1.9832834223	-0.0971765803	-0.9097507074	 0.127972
H	-1.6491027263	-1.5343727915	 0.0633203364	 0.115699
H	-2.051724803	-0.0130812043	 0.8588821254	 0.121196
H	-0.0553009747	-2.4236109852	-1.2245665043	 0.082476
H	 1.4917358073	-2.0595594868	-2.0623616682	 0.11979
H	-0.012410512	-2.6314836693	 1.1630144635	 0.094811
H	 1.568131616	-2.4278554312	 1.9606300236	 0.120937
H	 0.1365074847	-0.3387098195	 2.1905772762	 0.082502
H	 2.5180870576	-0.2341471805	 0.7146575882	 0.288053
