11
gdb 21672	7.63955	1.31077	1.1201	5.2614	61.81	-0.2563	-0.0649	0.1914	955.192	0.073548	-393.58372	-393.577131	-393.576187	-393.614462	24.106	
N	-0.0253752843	 1.3942313846	 0.1494108383	-0.593122
C	 0.0297883731	 0.0223831812	 0.0389984372	 0.433419
N	-1.0690561806	-0.7078717258	 0.0031765656	-0.197707
O	-0.6498684594	-2.0340037898	-0.0209265488	-0.210428
C	 0.6964436138	-2.0566965608	-0.0148894843	 0.369677
C	 1.2004285958	-0.7939615467	 0.0230865539	-0.407476
C	 1.3376353738	-3.3197786935	-0.0431671535	 0.246726
N	 1.8797298973	-4.341789752	-0.0672593803	-0.320128
H	 0.7171521262	 1.892611373	-0.3178040021	 0.263834
H	-0.9375891203	 1.7807860593	-0.0510166653	 0.270038
H	 2.2343082545	-0.4939240496	 0.0484955294	 0.145168
