20
gdb 13619	3.79985	1.18425	1.01759	2.6228	71.41	-0.2519	0.0645	0.3164	1204.475	0.175981	-386.122548	-386.113274	-386.112329	-386.156559	34.146	
C	 0.0809091589	 1.5897012762	-0.1554229316	-0.399312
C	 0.0243045188	 0.087498946	 0.0224648984	-0.002449
C	 1.2533708686	-0.7703412238	-0.134311105	-0.301441
C	 0.6146172948	-0.6105869905	 1.2291596804	-0.028877
C	 1.3159567998	 0.1415691856	 2.3323324626	 0.086946
O	 0.4025302013	 0.8907546078	 3.1531745967	-0.446887
C	 2.1416501318	-0.7766173094	 3.2397915782	-0.05875
O	 2.7127661653	-0.0502593364	 4.3050241009	-0.426789
H	 1.0498338117	 2.0001654181	 0.1417375078	 0.119321
H	-0.0798823004	 1.8583891997	-1.2050386242	 0.114172
H	-0.6849043756	 2.0901078841	 0.44561347	 0.125195
H	-0.8981858061	-0.3592810267	-0.3403775273	 0.084055
H	 1.1744517952	-1.7291633816	-0.6344720689	 0.112498
H	 2.1981615309	-0.261327778	-0.3013304618	 0.114499
H	 0.0562215289	-1.4749043216	 1.5881020306	 0.075235
H	 1.98782339	 0.8999125878	 1.9175430079	 0.091962
H	-0.3400558894	 0.3122841313	 3.3619643475	 0.280382
H	 1.4916308311	-1.5923349412	 3.6088371281	 0.067278
H	 2.9567043422	-1.2397476379	 2.6734179597	 0.109307
H	 2.0191391623	 0.5599754304	 4.5895971801	 0.283652
