21
gdb 111111	2.8914	1.1703	1.07571	0.9218	78.31	-0.2551	0.0788	0.3338	1226.9225	0.183966	-424.202982	-424.194425	-424.193481	-424.236112	33.526	
O	-0.1174136973	 1.4352818739	-0.134930796	-0.423356
C	-0.0078160644	 0.0423471446	 0.1417307521	-0.137852
C	-1.4000710259	-0.547776382	 0.0320634786	 0.071064
C	-2.0295132462	-0.642123648	-1.3942787063	-0.012528
C	-1.2457372185	-1.9765693491	-1.5717036619	-0.248393
C	-1.5165007135	-2.1035083254	-0.044175989	-0.051533
C	-3.041356755	-2.2889316256	-0.0284972472	 0.136412
O	-3.5360526791	-2.0760587821	 1.283719345	-0.443075
C	-3.4371353148	-1.1756596702	-1.064072473	-0.268184
H	 0.7497856231	 1.8330881702	-0.0148802766	 0.284684
H	 0.6988713922	-0.4378275274	-0.5510184373	 0.082077
H	 0.373379788	-0.1285145261	 1.1616422799	 0.086368
H	-2.0323992645	-0.0758390585	 0.7889137742	 0.082666
H	-1.9501543308	 0.180287455	-2.1044679136	 0.068081
H	-1.6791396943	-2.7363297348	-2.2304933859	 0.085332
H	-0.1922717812	-1.8452418365	-1.8167752814	 0.100911
H	-0.9424128516	-2.7673772153	 0.6035774012	 0.060358
H	-3.3212786659	-3.2922990276	-0.3802863746	 0.059815
H	-4.4972235753	-2.0879681191	 1.2455916276	 0.280623
H	-4.0763103371	-0.4218532769	-0.5937248456	 0.096107
H	-3.9549654078	-1.5752444789	-1.9414271503	 0.090422
