20
gdb 82045	2.71587	1.50837	1.2713	0.8762	78.47	-0.2287	0.0697	0.2984	1085.523	0.171265	-403.085212	-403.076963	-403.076018	-403.118061	31.956	
C	-0.015591998	 1.6319547365	-0.3258861922	-0.418768
C	 0.0450311553	 0.1263080118	-0.1251807568	-0.047064
C	 1.0967529036	-0.6824050087	-0.9020723424	-0.060035
N	 2.4180519804	-0.2524159572	-0.3823325404	-0.343894
C	 1.6290065579	-1.2793979879	 0.349707981	-0.14746
C	 0.6435352896	-0.4749995486	 1.2012575127	 0.48058
C	 1.0839777761	 0.3285180919	 2.4359327885	-0.346242
C	 0.1131495731	-0.5889466444	 3.2028208742	-0.080566
O	-0.2882184369	-1.2499949142	 1.9811003914	-0.33098
H	 0.980685992	 2.072302703	-0.2316473104	 0.135335
H	-0.4042562903	 1.8788125008	-1.3201220741	 0.111164
H	-0.6756256757	 2.1036362821	 0.4103461039	 0.112238
H	-0.9408761818	-0.3353080042	-0.2431351052	 0.088752
H	 1.0051547287	-1.1136798195	-1.8916811117	 0.090497
H	 3.1316802781	-0.7492272766	-0.9148730423	 0.229734
H	 2.024807746	-2.2668473212	 0.5542334915	 0.095171
H	 2.1414197458	 0.2406701882	 2.6886985671	 0.115546
H	 0.8074813977	 1.3841039244	 2.4196203714	 0.112531
H	 0.5767237945	-1.2879497485	 3.9096936817	 0.100621
H	-0.7341396561	-0.0972677776	 3.6944600823	 0.10284
