23
gdb 114691	3.77964	1.01351	0.91623	1.4176	86.02	-0.2311	0.0899	0.321	1408.9899	0.205375	-388.293985	-388.284593	-388.283649	-388.328139	36.076	
C	 0.0643846469	 1.5112197621	 0.2202419624	-0.383002
C	 0.0124613104	-0.014439994	 0.1038066728	-0.187546
C	-1.4036672577	-0.5634497982	 0.0049722631	 0.169395
C	-1.5180620989	-2.0998676773	-0.1097351715	-0.335666
C	-2.8193820394	-2.4221093615	 0.6353406743	 0.32772
C	-3.8714807217	-3.2613143647	-0.0494331475	-0.484086
C	-2.7212632161	-2.4095665023	 2.1520453815	-0.351371
C	-3.1348874935	-1.1682833937	 1.4037721643	 0.06274
O	-2.1300629622	-0.2122557219	 1.1962379056	-0.278425
H	 1.0962490473	 1.8658818588	 0.3029005116	 0.107689
H	-0.3838879325	 1.9898920869	-0.657691463	 0.110205
H	-0.4867807336	 1.8471903983	 1.1022192012	 0.137278
H	 0.5684785874	-0.3449361751	-0.7829152615	 0.093854
H	 0.4989010928	-0.474903991	 0.9728942823	 0.097956
H	-1.9130872527	-0.1012418487	-0.8583595879	 0.061726
H	-1.5665622209	-2.4171810711	-1.155675281	 0.099719
H	-0.6509437179	-2.5927587644	 0.3453102104	 0.098847
H	-3.5278131036	-4.2927128608	-0.1918919643	 0.11876
H	-4.7924706731	-3.3018758465	 0.5411546726	 0.115352
H	-4.1252680595	-2.855978556	-1.0360728623	 0.115039
H	-3.4837746708	-2.9496781513	 2.70554963	 0.104439
H	-1.7385865279	-2.4002915974	 2.6124429196	 0.110416
H	-4.1387608526	-0.7625978704	 1.4958194374	 0.088963
