18
gdb 59227	2.46505	1.45971	1.02876	2.54	72.68	-0.2434	-0.0252	0.2182	1168.3339	0.145963	-439.047847	-439.038934	-439.037989	-439.081939	32.925	
C	 0.5322760608	 0.1061582219	-1.5381437384	-0.401067
C	 0.1040258226	 0.0910653187	-0.0705731695	 0.107693
O	 0.106572733	 1.3862709093	 0.510306247	-0.415367
C	-1.2752307005	-0.5515311029	 0.1010442845	-0.110288
N	-1.4473232769	-2.0140871216	-0.2525301971	-0.130679
C	-0.6981295631	-2.7727127116	 0.7465557068	-0.243058
C	-2.0505060407	-2.2753881926	 1.1289312635	-0.156721
C	-1.9463648131	-0.8154231747	 1.4731200194	 0.398213
O	-2.4082791955	-0.1228094691	 2.3307858298	-0.302946
H	 1.5233152324	 0.5569147946	-1.6363405828	 0.127321
H	 0.5594268197	-0.9075051581	-1.949461497	 0.135668
H	-0.1745618819	 0.6910244627	-2.1394592425	 0.110291
H	 0.8481028573	-0.4626616223	 0.5109457713	 0.093139
H	-0.5418761264	 1.9284152683	 0.0468625726	 0.283606
H	-2.0006112001	 0.014278661	-0.5010829775	 0.106174
H	-0.6230873745	-3.8311305191	 0.5167764038	 0.139065
H	 0.1851233831	-2.349685779	 1.2158199467	 0.133258
H	-2.894998936	-2.9336931954	 1.2956782294	 0.125699
