16
gdb 62401	2.60211	1.82792	1.36963	3.6027	68.32	-0.2552	0.0114	0.2666	944.9381	0.125136	-437.862897	-437.855478	-437.854534	-437.894487	29.172	
O	-0.0454397343	 1.3823196908	 0.1167112833	-0.473928
C	 0.0290812264	-0.0199969844	 0.0326038161	 0.293712
C	 0.8531623089	-0.5646168084	 1.1160444771	 0.233899
N	 1.5254769701	-0.952325385	 1.9727921041	-0.342653
C	-1.3941299941	-0.6326992728	-0.2233466162	-0.107472
C	-1.2033066274	-0.1873344764	-1.7098930702	-0.258929
C	 0.2470109577	-0.6267642458	-1.4057347202	 0.040829
O	 0.1513257102	-2.0281580255	-1.1714069085	-0.268019
C	-1.0398245361	-2.1163990367	-0.3392457807	-0.101172
H	 0.850310929	 1.7380014862	 0.0932480294	 0.297679
H	-2.2429569608	-0.3396207726	 0.3910800488	 0.099829
H	-1.7287661763	-0.7587999064	-2.4764867808	 0.110814
H	-1.3195097911	 0.8840921216	-1.8500694996	 0.132733
H	 1.1165724399	-0.3990548338	-2.0201588669	 0.095695
H	-0.787303426	-2.5939889171	 0.6118818005	 0.133202
H	-1.8134656163	-2.7009507736	-0.8478980061	 0.11378
