25
gdb 116203	2.12683	1.41598	0.95994	0.2028	92.3	-0.2567	0.0846	0.3413	1356.8287	0.230558	-352.366426	-352.357123	-352.356179	-352.400749	36.68	
C	 0.0273840964	 1.6044009675	 0.0851757427	-0.389369
C	-0.0060278283	 0.0728148765	 0.0389085246	-0.194467
C	 0.7054641434	-0.5205145991	-1.1813736836	-0.023105
C	 2.2123365864	-0.1937161221	-1.2662052549	-0.211894
C	 2.7726338546	-1.267269232	-2.2096569772	-0.214344
C	 2.0467020176	-2.5447601651	-1.7540570162	-0.280707
C	 0.6556222568	-2.0645067757	-1.3093578817	 0.372388
C	-0.1644033472	-2.9430269316	-0.3959372219	-0.316257
C	-0.585319511	-2.7445834768	-1.8304665035	-0.308815
H	 1.051386723	 1.9833138543	 0.1612515107	 0.118316
H	-0.4189422092	 2.0368695216	-0.8176491353	 0.112024
H	-0.5308365024	 1.9847268718	 0.9464190028	 0.10912
H	 0.4455582896	-0.3342728956	 0.9530321735	 0.094483
H	-1.0538072679	-0.2550526205	 0.0445477793	 0.092387
H	 0.2281326524	-0.099964943	-2.0793117185	 0.065561
H	 2.4077412176	 0.8257666294	-1.6100235376	 0.092484
H	 2.6701734781	-0.2972959056	-0.2724823775	 0.091521
H	 2.5033361924	-1.0267747153	-3.2455990498	 0.096516
H	 3.8620372112	-1.3560216158	-2.1685132477	 0.090244
H	 1.9992711815	-3.3111833199	-2.5340512734	 0.091774
H	 2.5813386981	-2.9863261969	-0.9034241844	 0.095665
H	 0.2591241434	-3.9028399898	-0.1151369008	 0.102337
H	-0.7674044442	-2.4859131682	 0.3805575629	 0.107891
H	-1.4612331087	-2.1295095468	-2.0179743356	 0.102689
H	-0.4688232036	-3.5713337513	-2.524445327	 0.103556
