18
gdb 46108	4.30323	0.91085	0.84792	3.3075	77.71	-0.2407	0.0323	0.2731	1363.2319	0.148106	-401.966188	-401.957492	-401.956548	-402.000054	32.523	
O	-0.0926035218	 0.3398653859	 1.0128236167	-0.377272
C	-0.1027441277	 1.3885997023	 0.4080809144	 0.403847
C	-1.2607831231	 1.9912267842	-0.3978342197	-0.355133
C	-0.8429598547	 3.4491534135	-0.6662601358	 0.000568
C	-1.4280804253	 4.4015361981	 0.4037878889	-0.360816
C	-1.0550140734	 5.7958088791	 0.2000948758	 0.291694
C	-0.7318558498	 6.9376777444	 0.0069879088	-0.436855
C	 0.7048933854	 3.3902732637	-0.5950463177	-0.179914
N	 0.9391501601	 2.2722848871	 0.3018547643	-0.295897
H	-1.3569912315	 1.4178857473	-1.3264540577	 0.128122
H	-2.2018285267	 1.8874756332	 0.1469361482	 0.127903
H	-1.1646467377	 3.7979973181	-1.6497093978	 0.093309
H	-2.5212979001	 4.3106860096	 0.3985450109	 0.1346
H	-1.0982472007	 4.0727858132	 1.3982669972	 0.142658
H	-0.4582181843	 7.9515748735	-0.1501309286	 0.198253
H	 1.1396831449	 3.2137048853	-1.5890238715	 0.106093
H	 1.1292566812	 4.3199197105	-0.2045739722	 0.126935
H	 1.8507787152	 2.0215504213	 0.6502801258	 0.251905
