21
gdb 61660	3.97355	0.84559	0.72985	1.2663	86.24	-0.248	0.0396	0.2876	1583.1273	0.180082	-387.036813	-387.026979	-387.026034	-387.072439	36.398	
C	 0.0554804353	 1.5226991236	-0.0584147724	-0.391332
C	-0.0334906602	-0.0097665088	 0.0278537918	-0.053253
O	 0.7077143373	-0.6564060387	-1.0017181827	-0.264473
C	 0.0911813404	-0.7009440352	-2.2642190666	 0.18637
C	 0.374462783	 0.4161312694	-3.3119742112	-0.243085
C	 0.4900329342	-0.7013349378	-4.3845592055	-0.224441
C	 0.7149833982	-1.7231061648	-3.2356576031	-0.249818
C	 0.4707798222	-0.4937769309	 1.3141183791	 0.318169
C	 0.8709407652	-0.8590081611	 2.3860584531	-0.442669
H	 1.1002746931	 1.8380534631	-0.0024801423	 0.13434
H	-0.3725749472	 1.8773795932	-0.9993700951	 0.121565
H	-0.494130598	 1.9806075964	 0.7687615187	 0.125694
H	-1.0932401368	-0.3048271148	-0.0587060792	 0.095626
H	-0.9917622142	-0.8648756484	-2.1520477401	 0.065232
H	-0.3741419672	 1.1993944433	-3.4565048351	 0.092442
H	 1.3444103655	 0.877945879	-3.1073847799	 0.110847
H	-0.4574477666	-0.8700635524	-4.9035685709	 0.103647
H	 1.2803565535	-0.6019783248	-5.1305586696	 0.102985
H	 1.7776838629	-1.8407041747	-3.0063298928	 0.116771
H	 0.2536513783	-2.7103703637	-3.3075040167	 0.098459
H	 1.226408241	-1.1948618921	 3.3287016805	 0.196927
