13
gdb 50797	5.70967	0.61558	0.55567	2.4002	77.05	-0.2655	-0.1058	0.1597	1813.9637	0.087191	-452.735515	-452.726153	-452.725208	-452.772534	30.269	
N	 0.0852293203	 1.4761038125	 0.0077038917	-0.455428
C	 0.0821153266	 0.2007597612	 0.0009001313	 0.241991
N	-1.0934469282	-0.5581445108	 0.007247014	-0.328843
C	-2.412990578	-0.1192107713	 0.024019384	 0.15901
O	-2.7931744581	 1.0177620512	 0.035992836	-0.247784
C	 1.2692009142	-0.6169756054	-0.014358348	 0.059258
C	 2.2696247308	-1.2954113804	-0.0271854228	 0.045837
C	 3.4832205033	-2.0812789128	-0.0425067556	 0.022543
O	 3.4985515772	-3.2891512611	-0.0486470949	-0.214565
H	 1.0452394285	 1.8179482998	 0.0010058849	 0.240792
H	-0.9630034518	-1.5585888239	-0.0004730982	 0.271124
H	-3.0928276858	-0.9951621928	 0.0248993509	 0.088936
H	 4.4144659609	-1.4823790762	-0.0483292434	 0.117129
