16
gdb 42855	3.25972	1.10918	0.9876	3.2958	74.88	-0.254	-0.008	0.2461	1209.9502	0.12315	-400.647867	-400.639807	-400.638863	-400.681095	30.361	
O	-0.1934259631	-0.0089137436	-0.0171690235	-0.312348
C	-0.1127305045	 1.1733164813	 0.0254132039	 0.503032
C	-0.969278749	 2.4579976336	-0.0198327275	-0.162635
N	-0.0444775217	 2.926397386	 1.1043017167	-0.326799
C	 0.9193095523	 2.3230695381	 0.083873099	-0.190373
C	 0.0768694977	 2.9765935985	-1.0644924296	 0.017233
C	 0.1198725932	 2.4430927372	-2.5018195122	-0.407963
C	-0.9505917499	 2.997905119	-3.3219769189	 0.303573
C	-1.8439209744	 3.47464195	-3.9691233104	-0.445288
H	-2.0463658657	 2.6062524085	 0.0062640328	 0.109182
H	 0.0319729219	 3.9466580551	 1.0291909663	 0.220566
H	 1.9975954339	 2.3146733967	 0.2313191191	 0.102686
H	 0.1470524874	 4.0689917216	-1.039615901	 0.095586
H	 1.0926609284	 2.6928006108	-2.9449645576	 0.139201
H	 0.0563565794	 1.3476012501	-2.5006841203	 0.152862
H	-2.6292021758	 3.8843765472	-4.5547521067	 0.201485
