18
gdb 34250	4.10996	1.32746	1.20208	1.8664	83.05	-0.2371	0.0336	0.2708	1068.2774	0.149022	-364.746063	-364.738799	-364.737854	-364.777452	29.713	
C	 0.0481865774	-1.1933960961	-0.033746508	-0.345269
C	 0.021774178	 0.0092509373	-0.0350440865	 0.119861
C	-0.0629010667	 1.4327812172	-0.0177114286	 0.216982
C	-1.2850214621	 2.2469200181	 0.4533281629	-0.305676
C	-0.7714726408	 3.4444407209	-0.4064086844	-0.051626
C	 0.1025926288	 4.3646044317	 0.4501916345	-0.222126
C	 1.1975345392	 3.3841465401	 0.9472313759	-0.162461
N	 1.1882950246	 2.2300446226	 0.0159149645	-0.132529
C	 0.2510508505	 2.4738231161	-1.0631539378	-0.119103
H	 0.0874170543	-2.2542739462	-0.0353290145	 0.181539
H	-2.2030389284	 1.8134425162	 0.0515157445	 0.117105
H	-1.4045511962	 2.4075728795	 1.5302408159	 0.097239
H	-1.5078636144	 3.9398840794	-1.0373051547	 0.075382
H	 0.5369541102	 5.1681969895	-0.1545591084	 0.102529
H	-0.454600588	 4.8250045422	 1.2717545018	 0.103081
H	 2.1956120862	 3.8296208323	 0.9244677615	 0.112395
H	 1.0171717708	 3.0336795447	 1.9674913382	 0.112207
H	 0.5468675966	 2.3718024546	-2.1003660568	 0.100472
