16
gdb 17365	4.13631	1.59652	1.54116	3.6852	64.41	-0.2396	-0.0182	0.2214	893.6067	0.128704	-383.707593	-383.699943	-383.698999	-383.740106	27.848	
C	 0.2232747022	 1.5143000571	-0.0255704199	-0.486753
C	-0.1080525801	 0.0353277128	 0.0708243091	 0.376584
O	-0.3740669006	-0.5105851883	 1.1146613429	-0.296059
C	-0.1257066483	-0.7072971631	-1.2585518864	 0.026612
O	-0.1076416509	-2.1453564241	-1.1595644259	-0.281639
C	-1.3229714665	-2.2316295126	-1.9114438294	 0.112822
C	-2.4523225034	-1.5811717828	-1.1842468374	-0.297357
C	-1.4830992798	-0.7320433391	-1.9879606968	-0.156255
H	 1.2931947734	 1.6372454894	-0.2324141377	 0.14667
H	-0.3187324929	 1.9897416149	-0.8504575652	 0.137076
H	-0.0180156206	 2.0093957124	 0.9155693932	 0.147336
H	 0.6871762935	-0.3589943113	-1.9090994034	 0.092304
H	-1.4013238272	-3.0153275883	-2.6550747102	 0.10822
H	-3.4285086786	-1.6876635488	-1.6471811733	 0.117304
H	-2.4428421306	-1.5561006273	-0.0993481949	 0.148079
H	-1.7751718296	-0.0862359908	-2.8040702346	 0.105055
