22
gdb 18592	3.15631	1.93515	1.58066	0.1323	80.43	-0.2737	0.0772	0.3509	938.3756	0.20301	-313.083586	-313.07605	-313.075106	-313.115147	30.418	
C	-0.7985730696	 1.3613455786	 0.1102243819	-0.410628
C	-0.0453824623	 0.0442127472	-0.0174469218	 0.053943
C	 1.2026034545	-0.002471421	-0.9464478901	-0.254428
C	 2.0213765537	-0.7074682927	 0.1748185909	 0.014489
C	 3.2214997678	 0.0689606022	 0.7309286558	-0.210607
C	 2.5887145129	 1.2046349668	 1.5594353889	-0.207331
C	 1.3503518248	 0.5479342065	 2.2045914373	-0.212598
C	 0.8311229008	-0.4743298303	 1.1733280053	-0.025892
H	-0.1310628314	 2.187871973	 0.3768420121	 0.114788
H	-1.2812877202	 1.6242668718	-0.838001972	 0.110468
H	-1.58125637	 1.3059229212	 0.8755231793	 0.11135
H	-0.7551320885	-0.7390985705	-0.3045954392	 0.065947
H	 1.0842125425	-0.5632208209	-1.8773117803	 0.090884
H	 1.5894474977	 0.9902640644	-1.2013974304	 0.089922
H	 2.2570298619	-1.7497984151	-0.0499743752	 0.057016
H	 3.8127630854	-0.5821981605	 1.3869748038	 0.09106
H	 3.8925790283	 0.434289302	-0.0540607461	 0.090423
H	 3.2765300322	 1.6280210355	 2.2973093374	 0.090772
H	 2.2853175076	 2.0269711937	 0.9006115378	 0.09916
H	 1.6545231755	 0.0115445064	 3.1113112063	 0.092274
H	 0.5926241602	 1.276190461	 2.5096380124	 0.093138
H	 0.4178231862	-1.3574339094	 1.6664398459	 0.055849
