16
gdb 24091	7.22599	0.77547	0.7034	2.7027	78.33	-0.1956	0.0326	0.2282	1523.526	0.123794	-400.727328	-400.718817	-400.717873	-400.761016	31.564	
C	 0.0144332977	-1.1974997695	-0.0056739059	-0.393361
C	 0.0397832466	 0.0027352031	 0.0018678476	 0.286184
C	 0.0267646396	 1.457993686	 0.0115596475	-0.247923
O	 1.3571406119	 1.9489301074	-0.0006920858	-0.266469
C	 1.4610257276	 3.3064676917	 0.006101836	 0.368796
C	 0.4626464694	 4.2605473869	 0.0242238942	-0.202686
N	 1.0927978479	 5.4895378922	 0.0238056536	-0.261482
C	 2.4487610939	 5.3223748153	 0.0059891302	-0.056997
C	 2.7164792637	 3.9734910434	-0.0054383182	-0.279103
H	 0.0009674499	-2.2593112232	-0.0124399335	 0.199926
H	-0.52203205	 1.8370185542	-0.8654285754	 0.127386
H	-0.501453956	 1.8253428854	 0.905987469	 0.12738
H	-0.6102387212	 4.1829983677	 0.0370915274	 0.115195
H	 0.6180038634	 6.3737271876	 0.0348958733	 0.261016
H	 3.1148051657	 6.1699452314	 0.0028020464	 0.120378
H	 3.6852979898	 3.5013204103	-0.0202893364	 0.10176
