18
gdb 46063	4.4066	0.93014	0.80369	2.7441	72.23	-0.2265	-0.0215	0.205	1380.3818	0.147849	-439.074211	-439.065926	-439.064982	-439.108059	30.608	
O	 0.0839152663	 0.0033764487	 0.1126072219	-0.300865
C	 0.0197164038	 1.2036702023	 0.1139956889	 0.381343
C	-1.2634678867	 2.0456792114	-0.0044226515	-0.2788
N	-0.8511581438	 3.4472379984	-0.1262484211	-0.316402
C	 0.4831651793	 3.5384330099	 0.5148638272	 0.019245
C	 1.1826793554	 2.1922142378	 0.2419054803	-0.344559
C	 1.2379870012	 4.7463341735	 0.0241642874	 0.067538
C	 1.1373859748	 6.049289635	 0.6891339404	-0.177178
O	 2.2909911544	 5.2204970549	 0.8599029474	-0.234711
H	-1.8836323353	 1.7154675726	-0.8412532375	 0.134207
H	-1.8517693693	 1.8954293445	 0.9122661058	 0.137401
H	-0.7523270974	 3.6759072538	-1.1118551163	 0.219282
H	 0.3317009337	 3.6543288581	 1.5958867908	 0.092435
H	 1.898775875	 1.8740527114	 1.0019045972	 0.142465
H	 1.7125016942	 2.2185701942	-0.7205039383	 0.12762
H	 1.4873142731	 4.7303303481	-1.0409680583	 0.088655
H	 1.2987296358	 6.9623264876	 0.118719311	 0.119461
H	 0.5007957253	 6.1511277879	 1.5663393847	 0.122864
