21
gdb 88116	2.52374	1.42146	1.08312	2.8455	83.61	-0.2334	-0.0105	0.2229	1205.1499	0.183098	-387.126778	-387.11803	-387.117086	-387.16015	33.686	
C	-0.0727342623	 1.5043788456	-0.0985704404	-0.413433
C	 0.0354281471	 0.0008821908	 0.0148669265	-0.037049
C	 1.33681508	-0.7062726728	-0.1762569722	-0.324633
C	 0.7123924199	-0.6387659404	 1.215141953	 0.241626
C	 1.3380170691	 0.1121033376	 2.3830045476	-0.311102
C	 1.625774003	-0.9997386869	 3.4222314883	-0.221706
C	 0.4746864301	-2.0020797071	 3.2383268483	-0.318275
C	 0.1346410423	-1.917419544	 1.748153738	 0.351138
O	-0.4841923172	-2.7333730166	 1.1056943616	-0.34387
H	 0.8357667542	 2.0028126278	 0.2532503524	 0.116335
H	-0.2309378082	 1.8012926014	-1.1409593415	 0.123585
H	-0.914130675	 1.8903182682	 0.4871502516	 0.120858
H	-0.8355524053	-0.5555668295	-0.3236313582	 0.106239
H	 1.3292951671	-1.6752544498	-0.6635633637	 0.130376
H	 2.2305776735	-0.1095485281	-0.3326891757	 0.11104
H	 2.2397307585	 0.6669665886	 2.1114399037	 0.102189
H	 0.6259532159	 0.8362598408	 2.7996217698	 0.103258
H	 2.5784328883	-1.4864377054	 3.1849287215	 0.10943
H	 1.7017127974	-0.6116878836	 4.4407100744	 0.10201
H	 0.6939433269	-3.0288107894	 3.5386308202	 0.12487
H	-0.4169787952	-1.6838661571	 3.7961906447	 0.127113
