15
gdb 21225	3.2933	1.91936	1.22841	3.7921	64.29	-0.2092	0.016	0.2252	946.8296	0.120196	-395.961164	-395.953373	-395.952429	-395.993268	28.336	
C	-0.0195728194	 1.4243229255	-0.0277809809	-0.318821
N	 0.0000512769	-0.0246426204	 0.117900059	-0.387129
C	-1.1968622692	-0.702759847	 0.0629385243	 0.439729
N	-2.3708105521	-0.111484819	 0.1119921826	-0.244208
O	-3.3097380174	-1.1509637114	 0.0737160121	-0.191021
C	-2.6560450799	-2.3280280935	 0.0124050138	 0.020201
C	-1.3145901542	-2.131862728	-0.0019329802	 0.027402
N	-0.2180262689	-3.0054755676	-0.1304679702	-0.621704
H	 1.0011705838	 1.8024697722	 0.0624354408	 0.1188
H	-0.4459084756	 1.7552117849	-0.9850616681	 0.126136
H	-0.6263161504	 1.8567029555	 0.7714683072	 0.153476
H	 0.7249158739	-0.4944734701	-0.4082587583	 0.245131
H	-3.2728374925	-3.2127548446	-0.0237769331	 0.134777
H	-0.5055546399	-3.9705467231	-0.2360965639	 0.246937
H	 0.4045761248	-2.9445344934	 0.6695488247	 0.250294
