19
gdb 94688	2.50728	1.63704	1.22295	2.4583	70.91	-0.2425	0.054	0.2965	1066.5563	0.157717	-460.148296	-460.139395	-460.138451	-460.181071	34.632	
C	 0.0328618544	 1.5578553867	-0.0613139038	-0.413947
C	 0.0534054361	 0.0421827805	 0.0350076092	 0.095411
O	 0.7371509546	-0.4822569793	-1.1072896982	-0.273491
C	 1.2197579634	-1.7908609424	-0.8017571078	-0.135367
C	 1.5432605552	-1.751669183	 0.6797621055	 0.368674
O	 1.5846752879	-2.9501300281	 1.37581513	-0.482053
C	 2.3115131131	-0.5410616679	 1.1736093426	-0.416212
C	 0.7969121094	-0.5662323365	 1.2181017182	 0.265495
O	 0.121643611	-0.7443663446	 2.4264670368	-0.478666
H	 1.049223653	 1.9620064196	-0.0513807177	 0.121524
H	-0.4557912971	 1.8757534779	-0.9863014098	 0.129429
H	-0.5232025701	 1.9809770052	 0.7816909042	 0.112269
H	-0.9808324697	-0.3414136689	 0.0756282497	 0.074019
H	 0.4550627284	-2.5636073936	-0.9762204188	 0.099045
H	 2.0738672658	-1.9838022611	-1.457610252	 0.111259
H	 0.9962221699	-2.8477236952	 2.136731068	 0.290712
H	 2.8164650336	-0.6801836467	 2.1236226307	 0.113596
H	 2.8099466209	 0.1109948534	 0.4635168155	 0.124042
H	 0.3412009403	-0.0184854761	 3.0191638675	 0.294262
