16
gdb 72055	2.49789	1.65672	1.29444	4.0943	75.41	-0.2275	0.0138	0.2413	1005.1937	0.126649	-396.86654	-396.859102	-396.858158	-396.898318	29.248	
N	-0.2176162868	 1.3410279938	 0.0273627676	-0.599409
C	 0.0118731044	-0.0495598492	-0.036026582	 0.257588
C	 0.9515846323	-0.9019696048	-0.9054260689	-0.263863
C	 0.1237377758	-2.1081288956	-0.4079442548	-0.109879
N	 0.480186582	-2.1446515882	 1.0544844157	-0.319084
C	-0.323418021	-0.9147099738	 1.1698930896	-0.110899
C	-1.0967319264	-1.1247396169	-0.1249115612	 0.246121
C	-2.4527647717	-1.0566635893	-0.498665421	 0.115804
N	-3.5668182227	-1.0218399277	-0.8192109998	-0.371844
H	 0.5103409059	 1.821889824	 0.545066439	 0.243244
H	-0.2874828878	 1.7590143102	-0.8939293418	 0.243759
H	 0.790634082	-0.7031067934	-1.9682108386	 0.109362
H	 2.018510205	-0.920005817	-0.6649924146	 0.108929
H	 0.0800406366	-3.051402828	-0.94501749	 0.101156
H	-0.0590846251	-2.8964135002	 1.4833425107	 0.227396
H	-0.6670139923	-0.4907098741	 2.10392618	 0.121618
