13
gdb 46875	2.54322	1.87614	1.2956	5.6546	59.32	-0.2652	-0.084	0.1812	929.6771	0.089043	-493.713682	-493.706571	-493.705627	-493.745693	26.003	
O	 0.1499251005	-0.0483348469	-0.0999658255	-0.289874
C	 0.0403883972	 1.1121641045	 0.1578747681	 0.352394
O	-1.1300723917	 1.6080630523	 0.6315371754	-0.225746
C	-1.3185476362	 3.0024004944	 0.8788884771	-0.112596
C	-0.083407954	 3.7027930219	 1.3933094337	 0.018862
O	 0.7531756234	 2.9454286404	 2.2414091715	-0.225593
C	 1.2419751442	 3.2512630357	 0.9227778575	-0.057821
C	 1.212676083	 2.1076132276	-0.0335426255	 0.264596
O	 2.0175799405	 1.9506901688	-0.9128483696	-0.273051
H	-1.6687095793	 3.5010289	-0.0343003737	 0.137243
H	-2.1210594464	 3.0545761026	 1.6199641228	 0.150862
H	-0.2140690846	 4.7511392092	 1.6608520919	 0.128758
H	 2.0913245235	 3.9263238094	 0.8643429361	 0.131966
