17
gdb 15699	3.56832	1.74636	1.23468	5.0135	64.55	-0.2514	0.0223	0.2737	960.4087	0.144708	-401.048926	-401.041447	-401.040503	-401.080821	28.037	
O	 0.0478837288	 1.4276070675	-0.0549270854	-0.427759
C	 0.0598635673	 0.0214943019	-0.1021785725	-0.064922
C	-1.3555531062	-0.5614763575	 0.0158549096	-0.127405
C	-1.4718270218	-2.0945487647	-0.0208918952	-0.240463
C	-2.6746544031	-2.4092374478	 0.8986673119	-0.170848
N	-2.6811855524	-1.2701052724	 1.8040983595	-0.30637
C	-1.9888914999	-0.1870898957	 1.359804504	 0.436418
O	-1.884299052	 0.8842594332	 1.9357944521	-0.409054
H	-0.4767665667	 1.6587277109	 0.7286207286	 0.297397
H	 0.5052806569	-0.2700662964	-1.0603759508	 0.101789
H	 0.6900728075	-0.4136757609	 0.6939878296	 0.081927
H	-1.9744139633	-0.0998009141	-0.7648497169	 0.109904
H	-1.6067557678	-2.4967800568	-1.0264364022	 0.115338
H	-0.5646107376	-2.5422924283	 0.4000198054	 0.116719
H	-3.6119300775	-2.4736185252	 0.3287305873	 0.113178
H	-2.5508857455	-3.348882869	 1.4453494958	 0.119045
H	-3.2536174267	-1.2129443049	 2.6315930192	 0.255108
