23
gdb 112720	2.36929	1.12729	0.96098	0.5339	81.82	-0.2515	0.075	0.3266	1358.5894	0.203339	-425.413559	-425.402885	-425.401941	-425.448683	39.956	
C	-0.0715790694	 1.5296199238	-0.1123746105	-0.429143
C	-0.0214848933	-0.0001305595	-0.0264997267	 0.26157
C	-1.4034423186	-0.5961675793	-0.2821008961	-0.455901
C	 1.1450100551	-0.5873040876	-0.8793862217	 0.113871
O	 1.5317398679	 0.2127086609	-1.9744753926	-0.435373
C	 2.0373318654	-0.6337915837	 0.3860061801	-0.290039
C	 0.7417876065	-0.5439264954	 1.234553095	 0.02409
C	 0.7658573485	 0.2531148774	 2.5228479412	-0.107687
O	 1.5739470582	-0.4631932879	 3.4497986761	-0.423866
H	 0.9057014965	 1.9907640656	 0.0498489579	 0.117045
H	-0.4096779423	 1.837766229	-1.1057310987	 0.124119
H	-0.771083385	 1.937285588	 0.6256766699	 0.103446
H	-1.7782310304	-0.3068399154	-1.2706594911	 0.117742
H	-1.3795049781	-1.6903627682	-0.2377870213	 0.107153
H	-2.1301437057	-0.2484120356	 0.4616730887	 0.109705
H	 0.8902203663	-1.6053076862	-1.211396446	 0.058859
H	 2.2828147151	-0.2078120576	-2.4045534918	 0.282494
H	 2.6859867881	-1.5001976892	 0.5306001132	 0.095665
H	 2.6363359707	 0.2783345939	 0.469040719	 0.101145
H	 0.3803548932	-1.5503810947	 1.4733070993	 0.074294
H	 1.1729180876	 1.259625795	 2.3429830428	 0.083381
H	-0.2607307771	 0.3779916475	 2.9068246969	 0.082731
H	 1.6351062509	 0.0556934892	 4.2571049162	 0.284699
