16
gdb 127317	3.38977	1.65708	1.12086	2.7535	78.05	-0.1983	0.0138	0.212	1031.972	0.128001	-396.956066	-396.948628	-396.947684	-396.988385	28.039	
C	-0.0138347495	 1.4619433099	 0.0043992389	-0.345679
N	-0.0089286091	 0.0174995669	 0.0027590791	-0.148379
C	-0.0586263356	-0.7992267468	-1.1103391348	-0.063315
C	-0.0373275599	-2.1332129925	-0.7548023489	-0.3551
C	 0.0296334722	-2.1271657226	 0.6658731693	 0.3782
C	 0.0460279874	-0.8030955581	 1.1089253048	 0.246114
C	 0.1121004069	-0.8580356012	 2.5166852011	-0.141924
N	 0.1353024375	-2.1279307461	 2.9207516198	-0.223995
N	 0.0847497771	-2.8874276684	 1.793822193	-0.357293
H	 0.8968714632	 1.859830874	 0.4663267169	 0.13953
H	-0.0640284318	 1.8206141417	-1.0253840074	 0.139473
H	-0.8792883489	 1.8537342961	 0.5508154991	 0.139537
H	-0.1063896986	-0.3562580489	-2.0940335574	 0.119901
H	-0.0664117057	-2.9697158684	-1.4337171018	 0.102078
H	 0.1438073357	-0.0661832291	 3.2491824508	 0.104572
H	 0.0933613191	-3.8866556264	 1.8898354075	 0.266281
