22
gdb 110505	2.65712	1.37847	1.15551	1.7551	85.05	-0.2366	0.0807	0.3172	1200.0584	0.194494	-367.16977	-367.161009	-367.160065	-367.20304	34.087	
C	 0.0714516118	 1.5484045693	 0.1365446431	-0.379535
C	-0.1264551425	 0.0342808666	-0.0040576081	-0.217923
C	 0.6602697979	-0.5539369099	-1.1714497417	 0.007768
C	 2.1725624086	-0.7025026496	-1.135223032	-0.063711
C	 2.5168328042	-2.0374638935	-0.5553800785	-0.040003
C	 1.2367920713	-2.7716594287	-0.2123935611	-0.284864
C	 0.6801010324	-2.0777050237	-1.4773816506	 0.30987
C	-0.3627710792	-2.7239644362	-2.3426287983	-0.500996
N	 2.1537179053	-1.9240120394	-2.0104894049	-0.195964
H	 1.1245490598	 1.7955825007	 0.3089543796	 0.119137
H	-0.2476799829	 2.0758501299	-0.7692225202	 0.115539
H	-0.5050806712	 1.9487441151	 0.9760039331	 0.112759
H	 0.1652466823	-0.4563429353	 0.93129214	 0.098471
H	-1.1936883775	-0.1821673714	-0.1473621005	 0.095032
H	 0.390036151	-0.0336483195	-2.0998353944	 0.075302
H	 2.9250858935	 0.0654386245	-1.2787449385	 0.088291
H	 3.5287752577	-2.2843354211	-0.2535118498	 0.091163
H	 1.3506047938	-3.8458928752	-0.3850472351	 0.105875
H	 0.7459367763	-2.6063388935	 0.7518268457	 0.094291
H	-1.3301112756	-2.7493095643	-1.826945354	 0.119876
H	-0.4903084687	-2.1724601895	-3.2796593193	 0.124883
H	-0.0834132084	-3.7531702152	-2.5898129646	 0.124739
