20
gdb 46365	3.31801	1.08866	0.86465	3.4357	80.15	-0.2419	0.0375	0.2795	1348.3136	0.172097	-403.161043	-403.152376	-403.151432	-403.19526	32.039	
O	 0.2232738279	 0.0436278351	-0.133852945	-0.365454
C	 0.0424634935	 1.2282929354	-0.0389116608	 0.420846
N	-1.0917034562	 1.9994473051	 0.0426870757	-0.32165
C	-0.399410205	 3.2827820318	 0.1840825244	-0.183707
C	 0.942664812	 2.4913597023	 0.0701002717	-0.17305
C	 1.8923075172	 2.5208313702	 1.2504868223	 0.056385
C	 3.1471503357	 1.6021010334	 1.2173402613	-0.220378
C	 3.9529431221	 2.745709469	 1.8904973861	-0.213191
C	 2.8456683886	 3.7373937403	 1.4405764953	-0.240959
H	-2.0694216351	 1.750486669	 0.0692540916	 0.249004
H	-0.6003316078	 3.9941568281	-0.623052305	 0.111116
H	-0.5559952846	 3.7717365468	 1.1516399571	 0.1107
H	 1.4780979204	 2.691413795	-0.8637313041	 0.093088
H	 1.3298864815	 2.3427661731	 2.1753740563	 0.071375
H	 3.0815065406	 0.6394755456	 1.7274129272	 0.109898
H	 3.4786412657	 1.4246850944	 0.189473882	 0.104104
H	 3.9805499012	 2.6372529981	 2.9786036215	 0.102876
H	 4.969886693	 2.9283119068	 1.5361349531	 0.097421
H	 3.0892955467	 4.2017946558	 0.4789792782	 0.097168
H	 2.5404717925	 4.5224613747	 2.137106141	 0.094408
