20
gdb 64435	2.64651	1.4557	1.18013	1.8301	76.08	-0.2378	0.0194	0.2572	1120.0829	0.170842	-440.292295	-440.283222	-440.282278	-440.325898	34.411	
C	 0.0339686749	 1.5694206382	 0.0128617307	-0.415641
C	-0.0384443409	 0.0350085871	 0.0069343688	 0.310432
O	-1.3987764074	-0.3813822054	-0.1482733078	-0.46142
C	 0.7098134224	-0.5269375098	-1.2084133623	-0.215416
C	 0.5044613828	-2.0184691342	-1.4206985534	-0.078586
O	 1.1574167997	-2.8819111941	-0.479983562	-0.232416
C	 0.8374352449	-2.8492586326	 0.8397094982	 0.124956
N	 0.5337457208	-1.9148311672	 1.6281325255	-0.254291
C	 0.5455421042	-0.4967922105	 1.3324381548	-0.182736
H	 1.0692933074	 1.9251347537	 0.039465302	 0.115038
H	-0.4480580445	 1.9668227288	-0.8843527549	 0.123468
H	-0.4850215076	 1.9802162157	 0.8861505164	 0.107855
H	-1.8602742497	-0.209910293	 0.6792524547	 0.282465
H	 0.3415709097	-0.0216088055	-2.1095101812	 0.106836
H	 1.7780956005	-0.2994620024	-1.1211482563	 0.104189
H	-0.56668853	-2.2400005803	-1.4137360202	 0.133803
H	 0.9205719112	-2.3195271284	-2.3850439235	 0.110773
H	 0.9255710175	-3.859656847	 1.2434840277	 0.114229
H	 1.5847462801	-0.1443531	 1.4110106994	 0.112987
H	 0.006390844	 0.0017542071	 2.1502260634	 0.093474
