19
gdb 87932	3.52708	1.11186	1.03321	4.4481	76.84	-0.2294	0.0358	0.2652	1223.7502	0.160023	-419.221793	-419.213301	-419.212357	-419.255149	32.276	
C	-0.1266944606	 1.4648609377	-0.1192133349	-0.320406
N	 0.0547587678	 0.0308937213	 0.0328241187	-0.101695
C	 1.4051789584	-0.4982613514	-0.135351129	-0.307827
C	 0.75174813	-0.5165382422	 1.1990333435	 0.327471
C	 1.2519318603	 0.3562410042	 2.360344323	-0.240091
N	 0.4668778216	-0.1355776905	 3.4777197721	-0.313569
C	-0.1382405411	-1.3519708222	 3.2869148872	 0.412396
O	-0.7566094181	-1.9725855744	 4.1221024339	-0.377497
C	 0.1391029375	-1.7558505312	 1.8365956541	-0.412782
H	 0.7515904999	 2.0710232711	 0.1579459672	 0.100106
H	-0.3544181134	 1.6750535398	-1.1688247557	 0.130148
H	-0.9787268411	 1.7938275757	 0.4845293644	 0.129384
H	 1.4981824045	-1.4118598031	-0.7181587776	 0.117213
H	 2.2150839924	 0.2177158536	-0.2847554121	 0.104173
H	 2.3301912704	 0.2161407142	 2.5245839692	 0.111708
H	 1.0799815604	 1.4233496375	 2.189665944	 0.115554
H	 0.5118349812	 0.2639166721	 4.401706327	 0.250688
H	-0.7754606113	-2.0702797317	 1.3317775983	 0.144948
H	 0.8311010311	-2.6060042207	 1.8451845268	 0.130078
