11
gdb 442	8.14926	3.83837	2.65279	3.3473	50.58	-0.2462	-0.0302	0.216	472.0954	0.086685	-285.311823	-285.307013	-285.306068	-285.339869	17.709	
N	-0.0478685693	 1.302309415	 0.0097808545	-0.546742
C	-0.0396176768	 0.0365231341	 0.0034287199	 0.404919
O	 1.0922556997	-0.7484545331	-0.0074332519	-0.243745
C	 0.7202520575	-2.1277295607	-0.0119742053	-0.131412
C	-0.7809594101	-2.1206052344	-0.0027028655	-0.094861
C	-1.2055129314	-0.8576481589	 0.0061857276	-0.126647
H	 0.9060509475	 1.6668621247	 0.0057193526	 0.223125
H	 1.1392625504	-2.6131824249	-0.9039366482	 0.13008
H	 1.1501636694	-2.6219664542	 0.8699215734	 0.130081
H	-1.3777381659	-3.0227885781	-0.0035033401	 0.124144
H	-2.2178268312	-0.4826395395	 0.014289323	 0.131057
