17
gdb 48041	7.99592	0.42981	0.41097	3.4028	87.6	-0.2656	-0.0606	0.205	2473.5462	0.132176	-384.637814	-384.627371	-384.626427	-384.67591	34.925	
O	-0.0771016557	-0.1128250739	 0.0022039343	-0.228717
C	-0.0149295955	 1.0955124823	 0.0072867833	 0.016532
C	 1.2103117967	 1.8512844214	 0.00001485	 0.081714
C	 2.2236496994	 2.5092198263	-0.0058913328	 0.052239
C	 3.4406854776	 3.3053742609	-0.0129035105	-0.367451
C	 3.1805663798	 4.8241660903	-0.0025518723	-0.170816
C	 4.4961718676	 5.6266395333	-0.0103562767	-0.355236
C	 4.2743953185	 7.0667894189	-0.0008225677	 0.28058
C	 4.063004036	 8.2497231528	 0.0072841703	-0.421588
H	-0.9317796926	 1.7198089491	 0.0183244504	 0.098118
H	 4.0518441513	 3.0241263448	 0.8557607087	 0.145997
H	 4.0356962753	 3.0333291552	-0.8955974281	 0.145999
H	 2.5787878845	 5.0993114008	-0.8738520312	 0.128336
H	 2.5948290978	 5.0900926161	 0.8824340311	 0.128338
H	 5.1035331777	 5.343553707	 0.8598300891	 0.133869
H	 5.0875413597	 5.3527065454	-0.8943780871	 0.133866
H	 3.888397612	 9.2970717491	 0.0143876892	 0.19822
