15
gdb 2875	6.71526	1.88683	1.57022	0.6745	67.72	-0.2431	0.0221	0.2652	779.235	0.12557	-271.361537	-271.354967	-271.354023	-271.39192	24.991	
C	-0.3541975822	-1.1618212355	-0.546948148	-0.462109
C	-0.1443245418	-0.0251447902	-0.2150014582	 0.310048
C	 0.1173333587	 1.3449702752	 0.1979203148	-0.150765
C	-0.4156050607	 1.7065680351	 1.6208641721	-0.258388
C	 0.5918919774	 2.7199630489	 2.1064757503	-0.064051
C	 1.6924123371	 2.7356631069	 1.3570097062	-0.064056
C	 1.6292666195	 1.7357249037	 0.2283057347	-0.258387
H	-0.5423785682	-2.1634195202	-0.8442946739	 0.191891
H	-0.375273264	 2.0214089579	-0.5112744401	 0.108512
H	-1.4412807229	 2.0878726238	 1.5836317133	 0.110372
H	-0.4330427854	 0.8228925856	 2.2723014628	 0.119059
H	 0.4285240439	 3.3217361984	 2.9936341984	 0.094221
H	 2.5658726027	 3.3522267265	 1.538081134	 0.094221
H	 2.2589309358	 0.8612768202	 0.4390684467	 0.119059
H	 1.9627483801	 2.1364061238	-0.7345198429	 0.110372
