15
gdb 53990	1.96626	1.54891	1.22809	2.8057	66.71	-0.2706	-0.0536	0.217	1076.7711	0.109886	-453.998622	-453.988906	-453.987962	-454.033677	33.852	
C	 0.3108769955	 1.7435018479	 0.048773782	-0.420469
C	 0.0521073595	 0.2191054162	-0.0916293604	-0.169764
C	 0.7892494274	-0.4794876885	 1.0772570636	 0.161602
O	 0.2446735165	-1.0406108486	 1.9830536415	-0.22697
C	-1.3772491953	-0.0767132344	-0.0530514237	 0.311581
N	-2.5076185966	-0.3147763675	-0.0914734671	-0.343349
C	 0.7440091768	-0.2779293006	-1.3975949648	 0.441936
N	-0.0244461197	-0.9768289397	-2.2604185203	-0.551372
O	 1.9239446025	-0.0402115952	-1.560005769	-0.36638
H	 1.3842248912	 1.9238061895	-0.026951065	 0.163432
H	-0.193796567	 2.2871677953	-0.7530625069	 0.151554
H	-0.0618863576	 2.1054841051	 1.0094666637	 0.149723
H	 1.8885520439	-0.3813573815	 0.9874994231	 0.13165
H	-1.0034689079	-1.1447067985	-2.0969906461	 0.29158
H	 0.4040795408	-1.3202945194	-3.1047745007	 0.275246
