16
gdb 18742	3.12101	2.20038	1.58029	1.8573	64.54	-0.2467	-0.03	0.2167	831.7691	0.129525	-383.7274	-383.720188	-383.719244	-383.758988	27.161	
C	 0.2092675451	 1.5163520068	-0.1882548423	-0.404462
C	 0.0372014787	 0.0368903917	 0.0817312295	 0.14624
O	 0.7822513379	-0.8150306744	-0.8298180118	-0.309699
C	 1.3412305607	-1.5832713591	 0.2514875911	 0.116812
C	 2.7694219466	-1.1185215626	 0.6218113332	-0.362231
C	 2.127907821	-0.1178063195	 1.6087323184	 0.410219
O	 2.5653738801	 0.7072252118	 2.3558877727	-0.297362
C	 0.7069344382	-0.6324976367	 1.3140680142	-0.237982
H	 1.2579203426	 1.818223164	-0.1258255752	 0.132453
H	-0.161463433	 1.7564623156	-1.1896492635	 0.13112
H	-0.3632076638	 2.1024983363	 0.5382077805	 0.127579
H	-1.0271783932	-0.2322095076	 0.0405088688	 0.087222
H	 1.1405313502	-2.6526161162	 0.1690656335	 0.087766
H	 3.3550490512	-1.875097618	 1.1572671088	 0.133018
H	 3.3704487645	-0.7038880846	-0.1907164303	 0.139347
H	 0.0766798733	-0.9120058676	 2.1571536623	 0.09996
