16
gdb 47315	3.2882	1.2762	0.98293	1.4462	65.88	-0.2536	-0.0043	0.2493	1142.4658	0.125721	-475.081647	-475.073582	-475.072638	-475.115125	29.388	
O	-0.0829735971	-0.0765188199	-0.3740621751	-0.35387
C	-0.0800586881	 1.1110968298	-0.1244850983	 0.381987
C	-1.3482428172	 1.9352128201	 0.0510507983	-0.341338
C	-1.4395372042	 2.539455844	 1.4531607897	-0.063951
O	-0.6835254524	 3.7342426148	 1.7106797367	-0.223387
C	 0.5389646684	 4.05224856	 1.2416227729	 0.412374
O	 1.0832099388	 5.0361687778	 1.6644992759	-0.308098
C	 1.1829760108	 3.259480826	 0.0967647722	-0.316108
N	 1.0719682186	 1.8126872617	 0.112764559	-0.296754
H	-1.4289205259	 2.7229831711	-0.7072692548	 0.129867
H	-2.1882939558	 1.2524831572	-0.0905381247	 0.144973
H	-2.469548251	 2.8436441297	 1.6535220528	 0.135994
H	-1.15979339	 1.7903515966	 2.2028347788	 0.136301
H	 0.7922071146	 3.686312459	-0.8393850388	 0.145008
H	 2.2388889963	 3.52288881	 0.1398642511	 0.158743
H	 1.9202814643	 1.2795793421	-0.0098163256	 0.258259
