13
gdb 43437	3.19162	1.2655	0.9113	2.0072	78.96	-0.2546	-0.1061	0.1485	1171.4034	0.087676	-419.448366	-419.440541	-419.439597	-419.481139	28.713	
O	-0.0471027143	-0.0370376366	 0.0029904265	-0.311167
C	-0.0492245991	 1.1708662291	 0.0105040591	 0.395736
C	-1.2733223826	 2.0841460497	 0.0320515747	-0.445588
C	-0.691875976	 3.4928954334	 0.0326501813	 0.312355
O	-1.2922150699	 4.5341085883	 0.0462649715	-0.287785
C	 0.8181198922	 3.3502349338	 0.0101081369	 0.043827
C	 1.153426271	 2.0398349348	-0.0019955	-0.288085
C	 1.6717711506	 4.4701365716	 0.0041028103	 0.259993
C	 2.3748753182	 5.4478259724	-0.0006104334	-0.366051
H	-1.9119485519	 1.9193395951	-0.8412638021	 0.166438
H	-1.8886673638	 1.9089850136	 0.9199291966	 0.166325
H	 2.1561613215	 1.6320000705	-0.0186650799	 0.141281
H	 2.9962297243	 6.3098274543	-0.0049460616	 0.212722
