14
gdb 127776	3.44557	1.65711	1.13808	4.7145	64.38	-0.2075	0.0006	0.2082	997.5714	0.10219	-469.954356	-469.946968	-469.946023	-469.986655	26.332	
C	 0.0053075972	 1.4478381809	-0.0246131051	-0.343899
N	-0.0042944503	 0.0052332997	 0.0757514701	-0.104432
N	-0.0269522092	-0.7703548352	-1.0737860324	-0.182131
N	-0.0306017536	-2.0463681915	-0.7218507889	-0.290813
C	-0.0230674003	-2.0724495565	 0.6105797234	 0.318994
C	-0.0078120583	-0.820438734	 1.1254333833	 0.398994
O	 0.0664588763	-0.7928870224	 2.4779149363	-0.294709
C	-0.1647513705	-2.211536688	 2.7929386516	 0.014715
O	 0.0562300651	-3.0064212764	 1.6193664382	-0.274667
H	 0.9040449219	 1.8615721739	 0.4407565451	 0.152942
H	-0.0008638068	 1.6893692112	-1.0874539797	 0.175803
H	-0.8794226639	 1.87520789	 0.4551875558	 0.151654
H	 0.535907915	-2.5081027785	 3.574410854	 0.148034
H	-1.2089689826	-2.3108864232	 3.1181378481	 0.129516
