22
gdb 104222	2.42608	1.37621	1.23314	2.1138	82.4	-0.2382	0.079	0.3173	1176.9335	0.192912	-404.304081	-404.294488	-404.293544	-404.338118	36.472	
C	 0.0177265238	 1.3715182124	 0.2720660714	-0.252719
O	-0.1215311516	-0.0179928949	 0.4783839951	-0.287396
C	-1.3386405615	-0.5906339035	 0.042409516	 0.336835
C	-2.5439982373	-0.056246103	 0.8180265744	-0.448367
C	-1.5777300792	-0.6623783513	-1.5039657276	-0.278778
C	-1.8961556846	-2.1811211315	-1.3639828106	-0.30889
C	-1.2690967469	-2.1279494664	 0.0290426523	 0.327772
C	-0.1495860237	-2.9260957573	 0.5635104128	-0.296724
N	-1.5143850057	-3.0598881905	 1.1219015852	-0.383863
H	 1.0518199696	 1.6252304766	 0.5185028591	 0.127031
H	-0.1713153666	 1.651674663	-0.7745388607	 0.108393
H	-0.6473114763	 1.9646832095	 0.915132445	 0.108593
H	-2.7221000216	 1.0025342177	 0.6069185978	 0.117337
H	-3.4497944622	-0.6055097671	 0.5457627653	 0.127478
H	-2.3868382661	-0.1680397704	 1.89611439	 0.116216
H	-2.3614649241	-0.0236506772	-1.9171576703	 0.094453
H	-0.6444247395	-0.4895888554	-2.0447324568	 0.109707
H	-2.9690510137	-2.3904552137	-1.3307658499	 0.110056
H	-1.4309950883	-2.852082416	-2.0888863757	 0.105902
H	 0.2040441	-3.7966523596	 0.0165198128	 0.112046
H	 0.6051696475	-2.4035526071	 1.1429505365	 0.12563
H	-1.574099592	-2.5569358545	 2.005306368	 0.229287
