18
gdb 67890	2.82358	1.98347	1.46626	1.9592	74.75	-0.235	0.0191	0.2541	930.4372	0.149867	-401.936461	-401.92952	-401.928575	-401.967305	28.618	
C	 0.0213605688	 1.4143937495	 0.0356198825	-0.453078
C	-0.0075045658	-0.0992164305	 0.0145342073	 0.34757
N	 1.0750847905	-0.6443590929	-0.771684986	-0.322304
C	 0.8786639206	-1.7398805397	-1.3772514481	 0.106176
O	-0.192809031	-2.5654218387	-1.2901451356	-0.230409
C	-1.0581592754	-2.2574911376	-0.1882002458	 0.078533
C	-0.3495849789	-2.2813356505	 1.2041122776	-0.272001
C	-0.5215636764	-0.765954951	 1.2779603838	-0.093591
C	-1.3545168149	-0.7664321162	-0.0140356614	-0.141996
H	 0.9727683676	 1.7650805466	 0.4466252034	 0.1289
H	-0.072564177	 1.8149470374	-0.9784242281	 0.123202
H	-0.7935143986	 1.819463487	 0.6431545226	 0.109619
H	 1.614869147	-2.1382568737	-2.072643267	 0.122774
H	-1.9152402774	-2.9200434465	-0.2924412505	 0.097375
H	-0.947737019	-2.812125139	 1.9487339554	 0.109677
H	 0.6704548426	-2.6754014198	 1.2154073628	 0.113973
H	-0.6894886573	-0.1881716294	 2.1788787931	 0.087587
H	-2.2758854453	-0.2599314952	-0.2705659359	 0.087994
