22
gdb 114103	3.20719	1.12107	0.98157	2.0328	83.53	-0.2094	0.0769	0.2862	1327.8951	0.193015	-404.306836	-404.297562	-404.296618	-404.340814	35.139	
C	 0.0580346106	 1.5310374187	-0.0337906302	-0.380123
C	 0.0814445035	 0.0163997061	 0.1604411315	-0.123853
N	-1.24994215	-0.5517623623	 0.0697852213	-0.077152
C	-2.1789644946	-0.3199389748	 1.2074195967	-0.222725
C	-2.5167252075	-1.828495178	 1.2425670616	 0.437733
C	-2.7087409862	-2.5352943189	 2.5573160352	-0.473178
O	-3.513015607	-2.2023270516	 0.2570487676	-0.336899
C	-2.4984072108	-2.5644519222	-0.7147566049	-0.08202
C	-1.387275461	-2.019966627	 0.1919813385	-0.098255
H	 1.069929675	 1.9438375293	 0.0231889109	 0.11128
H	-0.3733584913	 1.7863338128	-1.0058205472	 0.125338
H	-0.5438905954	 2.0181706185	 0.7407739224	 0.11942
H	 0.6952869449	-0.4467330723	-0.6219024694	 0.099683
H	 0.5703675077	-0.220654411	 1.1281495529	 0.067801
H	-1.6639729502	 0.011720269	 2.1234728619	 0.084395
H	-3.0119238908	 0.357012395	 0.9935880552	 0.108276
H	-3.6562417957	-2.2255775043	 3.0133627315	 0.131141
H	-2.7440762203	-3.6192447977	 2.4140844188	 0.124346
H	-1.900313567	-2.2982739475	 3.2556072734	 0.117051
H	-2.4781187303	-3.6507313257	-0.8759065112	 0.092476
H	-2.6244943368	-2.0421198514	-1.6683234762	 0.105485
H	-0.4662972968	-2.5897166146	 0.3386485598	 0.06978
