19
gdb 93733	3.31522	1.15733	1.07343	1.4255	72.51	-0.2583	-0.041	0.2173	1186.7572	0.157921	-460.18158	-460.172626	-460.171682	-460.215464	33.531	
C	 0.6710690911	 1.3387852158	 0.2046543745	-0.405768
C	-0.1623177032	 0.1095591744	-0.1598437255	 0.114196
C	 0.4053811558	-0.6993495405	-1.3393772506	-0.27194
C	 1.4572333804	-1.6171352325	-0.6633702897	 0.279242
O	 2.7511725223	-1.0685742126	-0.7039985416	-0.477077
C	 0.9225494987	-1.6930353918	 0.8073659377	-0.132126
O	-0.2085567516	-0.8487355703	 0.9010390622	-0.257521
C	 1.4775818726	-2.9889256844	-1.3021904076	 0.105604
O	 2.4868276197	-3.4741416587	-1.753043635	-0.274084
H	 1.726936321	 1.0816871561	 0.3248327776	 0.146042
H	 0.5952504183	 2.095410419	-0.5833340174	 0.114284
H	 0.3032777931	 1.7749411464	 1.1375282513	 0.122998
H	-1.2003891143	 0.4084007043	-0.3374941448	 0.083263
H	-0.3958381579	-1.2968201569	-1.7874700824	 0.10339
H	 0.8772237812	-0.0975861136	-2.1175622904	 0.124541
H	 3.3022499565	-1.7280633912	-1.1561555614	 0.292692
H	 0.6121997632	-2.7000885771	 1.1108270471	 0.106121
H	 1.7456244896	-1.3703525627	 1.4567310847	 0.122252
H	 0.5068666536	-3.5249786237	-1.3281392588	 0.10389
