18
gdb 127598	2.10292	1.68671	0.99654	2.1399	76.75	-0.1957	0.0137	0.2094	1180.1477	0.148624	-435.273592	-435.264135	-435.263191	-435.307987	33.909	
C	-0.1240618716	 1.3873541765	 0.09757978	-0.337888
N	-0.073900492	-0.0602907001	 0.099241464	-0.006155
N	-0.0893170824	-0.7335937009	-1.0555619712	-0.267853
C	 0.01776832	-2.0181704603	-0.7138362578	-0.055567
C	 0.1000549069	-2.1789078446	 0.6855864648	 0.074844
N	 0.2891753461	-3.3779647067	 1.3939998502	-0.609853
C	 0.0437155535	-0.8849939485	 1.1905955151	 0.269099
C	 0.0670702954	-0.3804045007	 2.5931387662	-0.190067
O	-1.1235601657	 0.3154501581	 2.9758564606	-0.409817
H	 0.8790399822	 1.8215007199	 0.1862246838	 0.133271
H	-0.5623104158	 1.7029851272	-0.8490776089	 0.153365
H	-0.737646149	 1.7293240658	 0.9330973833	 0.156852
H	 0.0243970509	-2.7829455898	-1.4771428969	 0.100831
H	-0.0603397908	-4.1799325877	 0.8857267772	 0.2452
H	-0.1293301086	-3.3692701096	 2.3153695794	 0.238769
H	 0.2689084718	-1.2240633205	 3.2699890395	 0.100044
H	 0.8748065322	 0.3438049466	 2.7487104153	 0.123955
H	-1.8702108731	-0.2355111348	 2.7166877254	 0.280971
