22
gdb 99709	2.26775	0.99675	0.72229	0.9949	92.3	-0.2295	0.0536	0.2831	1643.2485	0.191678	-367.159123	-367.148253	-367.147309	-367.196951	38.145	
C	-0.049776734	 1.532510391	-0.0621320795	-0.39592
C	-0.0715486617	 0.0025444553	-0.0705210937	-0.16286
C	-1.4849176217	-0.6133397237	 0.0010152222	-0.179114
C	-1.4170283587	-2.0719680117	-0.1129608699	 0.088302
C	-1.34748112	-3.2696763453	-0.2139351362	 0.1067
C	-1.2661793282	-4.7185924778	-0.3321613954	-0.499885
N	-2.1395156692	-0.2402183719	 1.2676701997	-0.06133
C	-3.0626343632	 0.892896043	 1.2168807229	-0.220884
C	-3.5732991796	-0.4972675054	 1.3442926077	-0.214359
H	 0.9749131639	 1.9006074907	-0.1727652975	 0.11143
H	-0.6397728508	 1.9469713156	-0.887893813	 0.107893
H	-0.4480406247	 1.9340801944	 0.8731833396	 0.131605
H	 0.406185299	-0.3724007139	-0.9823690268	 0.101179
H	 0.5045992313	-0.3881039356	 0.7745889157	 0.113821
H	-2.0703096701	-0.2312242805	-0.8588210523	 0.075733
H	-1.9557561974	-5.0981655314	-1.0943984037	 0.145458
H	-0.2560084677	-5.0396209535	-0.6096015808	 0.147429
H	-1.5187942713	-5.2070169734	 0.6154836842	 0.149501
H	-3.0387967	 1.5590567914	 2.0747261585	 0.115578
H	-3.2104559799	 1.3905147927	 0.2597721058	 0.110256
H	-4.059177024	-0.9324238796	 0.4729390684	 0.114141
H	-3.9330993119	-0.8723571405	 2.2979519243	 0.115325
