20
gdb 11958	3.26064	1.71574	1.40794	0.7573	76.07	-0.2384	0.0964	0.3349	992.8107	0.175896	-348.971628	-348.963039	-348.962095	-349.004422	32.171	
C	 0.0450032587	 1.2934451443	-0.2731928629	-0.25561
O	-0.0070541993	-0.0343680449	 0.2196191651	-0.283197
C	-1.2712149317	-0.5843037144	 0.1937732131	 0.419392
C	-1.8948113333	-1.0953340056	-1.0806465512	-0.389003
C	-1.6278681936	-2.0573285697	 0.0633611933	 0.26756
C	-0.7569563656	-3.2714147302	-0.0766273063	-0.493444
C	-2.7386649449	-1.8757625973	 1.1118308303	-0.271877
C	-2.3409142801	-0.3688341087	 1.270765494	-0.294613
H	 1.0892017776	 1.6113179102	-0.2277191165	 0.124948
H	-0.3060357165	 1.3492894995	-1.3131794831	 0.110285
H	-0.561182508	 1.9783903645	 0.3365861096	 0.110993
H	-2.910852821	-0.830734482	-1.3693847147	 0.096079
H	-1.1967642695	-1.1842936094	-1.9078670512	 0.109876
H	 0.1083032566	-3.0618311211	-0.7132393928	 0.124329
H	-0.3812335214	-3.6043624823	 0.897711944	 0.115868
H	-1.3066802522	-4.1082162048	-0.5244151057	 0.116516
H	-3.7577401195	-2.074433961	 0.7636361319	 0.092969
H	-2.562222104	-2.450467693	 2.0247027981	 0.101413
H	-1.9014893368	-0.1640910086	 2.2499452124	 0.107005
H	-3.1137139755	 0.3784229845	 1.0620886125	 0.090511
