18
gdb 75309	2.35825	1.66961	1.16869	4.191	82.67	-0.2421	0.0042	0.2463	1092.6954	0.148489	-364.839126	-364.830977	-364.830032	-364.871591	31.374	
C	-0.0347786869	 1.4950547544	 0.0615649388	-0.503223
C	-0.0176639673	 0.0019876786	-0.0086957947	 0.255039
C	 0.0397032869	-0.7777118418	-1.0925863598	-0.179608
C	 0.0049377501	-2.2554566681	-0.7738427308	-0.27921
C	 0.0546652407	-2.2987390804	 0.7515805952	-0.083856
C	 1.2303721883	-1.6893109228	 1.4498607669	-0.309725
C	-0.0272959381	-0.8449345684	 1.2389294329	 0.134334
C	-0.8077810091	-0.4480544865	 2.3744409947	 0.197934
N	-1.4366892838	-0.110619222	 3.2858158276	-0.357527
H	 0.8370710005	 1.8774256031	 0.6066613418	 0.134147
H	-0.0389742609	 1.9381851608	-0.937087723	 0.127884
H	-0.9197270149	 1.8517289104	 0.6016059696	 0.150209
H	 0.1207386858	-0.4055502433	-2.1078576306	 0.098229
H	-0.9107521035	-2.7261504714	-1.154622195	 0.119547
H	 0.8437115763	-2.8011927345	-1.2245183189	 0.11772
H	-0.4981649308	-3.0657969245	 1.279323179	 0.114409
H	 1.432355988	-2.0248408267	 2.4609880994	 0.136467
H	 2.1025725987	-1.3983045671	 0.8739992869	 0.12723
