19
gdb 52730	3.81554	0.56723	0.51187	4.0103	83.15	-0.2466	-0.0182	0.2283	2108.1589	0.154971	-423.00927	-422.998073	-422.997129	-423.048817	37.227	
C	-0.1421403367	 1.5016406296	 0.0086942978	-0.500265
C	-0.0690527393	 0.0478829945	 0.0078016747	 0.111871
C	-0.003183501	-1.1549132774	 0.0264329717	 0.018639
C	 0.0487695079	-2.6170680389	-0.0067766058	-0.059952
O	-1.256766481	-3.1944558833	-0.0531217033	-0.416811
C	 0.9256373566	-3.1164497273	-1.1754580617	-0.20223
C	 1.0278946094	-4.6490073998	-1.2019816445	-0.276172
C	 1.6665050898	-5.1499054751	-2.4741319006	 0.155128
O	 2.6326122257	-5.8658342582	-2.5332689481	-0.239468
H	 0.844213724	 1.9433970022	 0.1873250439	 0.155149
H	-0.507029223	 1.8838105788	-0.9508171133	 0.150841
H	-0.8159421894	 1.8655011331	 0.7918389907	 0.154324
H	 0.4810865079	-2.9877126351	 0.9316388072	 0.117518
H	-1.7748413568	-2.6791643412	-0.6813754455	 0.284956
H	 0.4900482133	-2.7482444811	-2.1135566069	 0.10165
H	 1.919883137	-2.6646848663	-1.0900943153	 0.121373
H	 1.5941649462	-5.0328810701	-0.348219522	 0.119427
H	 0.0083506795	-5.0545262707	-1.1509509211	 0.137542
H	 1.1614653598	-4.7954433937	-3.4051076582	 0.06648
