17
gdb 6181	3.80834	1.67082	1.55179	4.199	72.96	-0.2421	-0.0305	0.2115	907.018	0.141969	-363.897029	-363.889338	-363.888394	-363.928584	29.615	
C	-0.0039976561	 1.5344699944	-0.0237251149	-0.409277
C	-0.0066128175	 0.0017706743	 0.0329337694	 0.297834
C	-1.4293615736	-0.5637954621	-0.0582368765	-0.409288
O	 0.748209715	-0.4924023152	-1.0962534927	-0.242267
C	 1.8196300356	-1.2269972946	-0.678415049	 0.368703
N	 2.6040456994	-1.7460518468	-1.5291729376	-0.529102
C	 1.8025230193	-1.2398505528	 0.7983693033	-0.193072
C	 0.7552836485	-0.5352866869	 1.2201268904	-0.102838
H	 1.0190998584	 1.9172096108	 0.0051008533	 0.130648
H	-0.4771581806	 1.8734727943	-0.94936512	 0.134227
H	-0.5585219691	 1.9520945912	 0.8223893817	 0.116941
H	-1.9046529005	-0.2281272675	-0.9840004498	 0.134235
H	-1.4084277511	-1.6563102111	-0.0535421106	 0.13065
H	-2.0349142717	-0.2211101425	 0.7865652439	 0.116946
H	 3.3434589615	-2.2564501572	-1.0497503402	 0.218055
H	 2.5455367138	-1.7544734075	 1.3920355903	 0.118766
H	 0.4509228688	-0.3453625108	 2.241704319	 0.118839
