23
gdb 84153	2.3263	1.51418	1.04669	0.3473	92.01	-0.2263	0.0318	0.2581	1254.8813	0.206956	-351.173273	-351.16439	-351.163446	-351.206359	35.317	
C	-0.9373999751	 1.1679697368	 0.0444987992	-0.383979
C	 0.02897485	-0.0298287333	 0.0551038558	-0.046705
C	 0.8975997027	-0.0461726493	-1.1781927591	-0.14154
C	 2.1711401489	-0.4441788675	-1.2310995635	 0.294911
C	 2.9522030165	-0.4606269778	-2.5175575316	-0.474631
C	 2.9079479853	-0.9413156914	-0.0091039024	-0.312959
C	 2.2774586591	-0.5383203232	 1.3116080531	-0.038472
C	 1.9556789938	 0.9117516958	 1.5787950909	-0.289765
C	 0.8410511854	-0.0806781427	 1.3418677174	-0.017158
H	-0.3868426401	 2.1139008698	 0.0709385073	 0.117811
H	-1.5596630868	 1.1630975845	-0.8570153621	 0.106811
H	-1.6034183699	 1.1417492473	 0.9132343787	 0.107107
H	-0.5923602544	-0.9402532222	 0.0303296446	 0.080329
H	 0.4132427585	 0.2796950187	-2.0980140543	 0.068944
H	 2.3458477385	-0.1280911329	-3.3643872787	 0.117354
H	 3.8359516541	 0.1876546911	-2.4531612066	 0.120246
H	 3.3254488589	-1.468778082	-2.7416811618	 0.119481
H	 2.9685127015	-2.0393173218	-0.0616555412	 0.107072
H	 3.9512914699	-0.5950848668	-0.0472100785	 0.098518
H	 2.6222449286	-1.1158852097	 2.1645771387	 0.076565
H	 2.0993763578	 1.2979132737	 2.5819311176	 0.103131
H	 2.1700386896	 1.624242011	 0.7885282553	 0.112119
H	 0.2606093871	-0.358602838	 2.2175820614	 0.07481
