15
gdb 42806	2.76096	1.53805	1.25065	2.3232	70.33	-0.2543	-0.0211	0.2332	1007.9941	0.112128	-420.575048	-420.567615	-420.566671	-420.607143	28.604	
O	-0.0624702559	-0.0325337685	-0.157219503	-0.303757
C	-0.0474197041	 1.1432934485	 0.0105019185	 0.453376
C	-1.0420471349	 2.3301047668	 0.01409131	-0.041528
C	-0.8303822321	 2.9611789655	 1.3993428666	-0.252285
C	 0.7517129489	 2.9572301452	 1.4135940064	-0.178308
C	 1.359821877	 2.2247449211	 2.5096206203	 0.306712
C	 1.8633157174	 1.5965637184	 3.4022164118	-0.450148
C	 0.9716992353	 2.3068405901	 0.0165832119	-0.054929
O	-0.0193031745	 2.9975086905	-0.8015665342	-0.289063
H	-2.0330877517	 2.3029298489	-0.4332833612	 0.110313
H	-1.2328834867	 3.9744888287	 1.4441498089	 0.125135
H	-1.2578976324	 2.3671058141	 2.2095046243	 0.132884
H	 1.1325808458	 3.9821640919	 1.3857415236	 0.122091
H	 2.3104448823	 1.0446237567	 4.1917375666	 0.203902
H	 1.9743084457	 2.2673593322	-0.4019657803	 0.115608
