23
gdb 108577	2.46691	1.30683	1.16226	1.3335	84.9	-0.2377	0.0666	0.3043	1231.7936	0.206779	-388.295967	-388.286687	-388.285742	-388.329615	36.014	
C	-0.019844634	 1.4983574713	-0.2785986567	-0.376118
C	-0.0872785759	 0.0269229282	 0.1514988365	-0.270667
C	-1.4880198356	-0.5512454954	 0.1276677449	 0.30412
C	-2.5242436227	 0.0118469791	 1.1012566643	-0.268765
C	-3.6037813684	-1.0814148591	 1.2891135336	-0.212153
C	-2.9159263817	-2.4182685383	 0.9225893928	-0.213391
C	-1.7544467629	-2.0502804361	 0.0099142579	-0.132963
C	-2.0122307565	-1.1479340198	-1.1629547329	 0.047415
O	-3.3281014052	-0.9733720905	-1.6138516676	-0.418077
H	 1.0098081455	 1.8690128687	-0.2599718703	 0.110999
H	-0.4035048507	 1.628460299	-1.2967101224	 0.108212
H	-0.6141548421	 2.1358858599	 0.3839969352	 0.118475
H	 0.5609089477	-0.570299574	-0.5019438622	 0.091297
H	 0.3278060568	-0.0754061092	 1.1639605218	 0.092293
H	-2.0157768594	 0.2252427386	 2.0503993105	 0.094392
H	-2.9619549145	 0.9586845256	 0.7640906612	 0.086886
H	-4.0039180519	-1.0885814951	 2.3071414537	 0.086609
H	-4.4347946369	-0.9009492424	 0.6070413306	 0.115016
H	-2.5133490928	-2.9093233872	 1.8163552465	 0.09409
H	-3.6148617328	-3.1206565896	 0.4572438648	 0.104419
H	-0.933377184	-2.7555661608	-0.0782739348	 0.075664
H	-1.2802549946	-1.2149105745	-1.9701710163	 0.076412
H	-3.4151885374	-0.0677567285	-1.9289152011	 0.285836
