18
gdb 116416	2.13643	1.66596	1.18391	3.905	69.01	-0.2418	0.0201	0.262	1102.824	0.148284	-476.242946	-476.234072	-476.233128	-476.276934	31.866	
C	-0.0450031789	 1.1341128762	-0.6240731186	-0.243652
O	-0.2529073618	-0.2658241345	-0.515962508	-0.244373
C	-1.3579775329	-0.6105764286	 0.2796065532	 0.074582
O	-2.5852407086	-0.2360664024	-0.3038204407	-0.270458
C	-3.0847926292	-1.0602954978	-1.3588889032	-0.051616
C	-2.1373770696	-2.1979236161	-1.741537538	-0.188346
N	-1.6919667714	-2.8563828779	-0.5240900789	-0.323648
C	-1.2421060613	-2.1253758037	 0.531334236	 0.421412
O	-0.807855058	-2.5881718993	 1.5648334218	-0.374118
H	 0.8362190962	 1.2761713274	-1.2526787032	 0.130189
H	-0.9062389612	 1.6338962563	-1.0824089638	 0.123776
H	 0.1411771557	 1.5824535489	 0.3622314117	 0.116477
H	-1.3246083425	-0.0919941481	 1.2447931655	 0.101838
H	-4.0399228533	-1.4821793239	-1.0211971297	 0.112429
H	-3.2784611335	-0.426167365	-2.2317076201	 0.11059
H	-2.6740409572	-2.9170073221	-2.3655889321	 0.117653
H	-1.2866122591	-1.8120158405	-2.3139295278	 0.134361
H	-1.5841505236	-3.8578764988	-0.4750381942	 0.252902
