20
gdb 71714	2.27833	2.06672	1.72377	2.0569	81.3	-0.2173	0.0756	0.2929	942.0385	0.171139	-365.939375	-365.931684	-365.93074	-365.970849	31.391	
C	-0.0366161461	 1.4974519734	-0.0101133142	-0.51103
C	-0.0059242772	-0.0077382541	-0.0455690499	 0.278355
C	 0.6066813882	-0.8442958528	-1.2001300593	-0.293031
C	-0.2699403217	-1.970604728	-0.6355849441	-0.03962
N	 0.1902849076	-2.2208221259	 0.7955336484	-0.152352
C	 0.3516250258	-0.7948412111	 1.2346633354	-0.088294
C	-0.968832197	-1.4552713472	 1.3519798717	-0.12845
C	-1.3056075447	-0.9421599657	-0.0754993257	 0.304326
C	-2.6281720485	-0.5604343644	-0.6668693547	-0.537392
H	 0.9743870298	 1.9092663864	 0.0954026904	 0.120926
H	-0.468873334	 1.9126891843	-0.9267984236	 0.116897
H	-0.6296955715	 1.8614719837	 0.8368172656	 0.119059
H	 0.2485336539	-0.5080044374	-2.1789642915	 0.09792
H	 1.6904482178	-0.9914691432	-1.2271873171	 0.100053
H	-0.5080953852	-2.8874019149	-1.1743884085	 0.070024
H	 1.1037835802	-0.5770322184	 1.9842093571	 0.085977
H	-1.5503773184	-1.79186891	 2.2029767689	 0.089783
H	-3.0837563595	 0.2751858708	-0.1226028696	 0.121681
H	-2.5209162769	-0.25504401	-1.714102688	 0.121129
H	-3.3334377925	-1.3991830953	-0.6375258613	 0.124039
