23
gdb 119994	2.081	1.15439	0.88158	0.7532	83.83	-0.236	0.0808	0.3169	1456.8747	0.203367	-425.388639	-425.37777	-425.376826	-425.424799	38.521	
C	-0.0307275867	 1.1992785132	-0.5782169239	-0.227507
O	-0.1391508141	-0.203862995	-0.5861615636	-0.230407
C	-1.3344195693	-0.6614637376	 0.0296135015	-0.079767
C	-1.3100620323	-2.1651013461	 0.0634764945	-0.083963
C	-2.5884498567	-2.9815677613	 0.2190120041	-0.085215
C	-3.9616902597	-2.354694186	 0.3529854719	-0.405764
C	-1.857542518	-2.9837310116	-1.0917529701	 0.110724
O	-2.4779964956	-2.3384877263	-2.1565261275	-0.241401
C	-1.5624518951	-1.950635528	-3.1695163058	-0.247839
H	 0.9141982875	 1.4588306559	-1.062060371	 0.124764
H	-0.8555824996	 1.6792735796	-1.1289023352	 0.102961
H	-0.0268864023	 1.6021966545	 0.4473437485	 0.103233
H	-1.3981178621	-0.2571768496	 1.0544564924	 0.086965
H	-2.2080322609	-0.2906840629	-0.5244305814	 0.098987
H	-0.4272121021	-2.5635606608	 0.556286528	 0.086718
H	-2.4657008628	-3.8871059988	 0.8077339684	 0.085872
H	-4.1190121315	-1.5616663689	-0.3795275299	 0.136024
H	-4.737309586	-3.1093182329	 0.1848490513	 0.118073
H	-4.1141243624	-1.9402965908	 1.3553738426	 0.112269
H	-1.3073285154	-3.8815156364	-1.3796771131	 0.078401
H	-2.1410706659	-1.440843321	-3.9437983016	 0.119438
H	-0.7930656851	-1.277219349	-2.7731255582	 0.134432
H	-1.0705289439	-2.8281374802	-3.6162432718	 0.103004
