15
gdb 14323	4.39116	1.88394	1.59817	2.9504	61.79	-0.2627	0.023	0.2857	808.1072	0.120742	-399.799192	-399.792834	-399.791889	-399.830073	24.144	
N	 0.0028216704	 1.2853970112	-0.0238965347	-0.527211
C	-0.0057821557	 0.0259488679	-0.0175546796	 0.403324
C	-1.233410142	-0.8547204691	-0.15831867	-0.318285
C	-0.668247859	-2.2445241241	-0.3888054077	 0.093167
O	-0.3496279432	-2.5194709231	-1.7731698847	-0.290701
C	 1.063777955	-2.6165932107	-1.4816622795	-0.094851
C	 0.8339697314	-2.1362636138	-0.0407363409	 0.048535
O	 1.1145482894	-0.7551598265	 0.156554488	-0.247223
H	 0.9516025567	 1.6418016429	 0.1019525525	 0.224811
H	-1.8220661059	-0.807372062	 0.7639197034	 0.135168
H	-1.8662511597	-0.521577268	-0.9821885088	 0.154596
H	-1.2458711247	-3.0560274065	 0.0627567208	 0.087286
H	 1.4276465149	-3.6483403151	-1.5649223489	 0.107587
H	 1.6711530264	-1.9540389571	-2.1064486594	 0.122268
H	 1.2672648761	-2.7094820659	 0.7790931994	 0.101528
