19
gdb 88278	2.91777	1.07231	1.02994	2.1819	77.36	-0.2468	-0.0287	0.2181	1277.786	0.157909	-423.010936	-423.001907	-423.000963	-423.04528	33.142	
C	 0.6015212087	 1.9687826711	 0.3494219054	-0.418591
C	 0.0072573694	 0.590117205	 0.5252594645	 0.009869
C	 0.5337984375	-0.5926376109	-0.2102196417	-0.289544
C	 0.7328595084	-0.530993325	 1.2961233038	-0.144851
C	 2.1071692261	-0.3190853067	 1.8119531606	 0.366091
O	 3.0145083515	 0.1698982171	 1.1652119265	-0.343171
C	 2.3797130129	-0.7250494176	 3.2387609868	-0.00904
C	 1.484970901	-0.2947997689	 4.3330692254	-0.177703
O	 1.485097127	-1.6396448221	 3.8781918417	-0.217355
H	 1.6831201595	 1.919217158	 0.2129609474	 0.156322
H	 0.164696403	 2.4545985652	-0.5299469195	 0.118502
H	 0.3934980817	 2.6044872026	 1.2170661883	 0.111959
H	-1.0639229853	 0.5854470464	 0.7118014472	 0.094595
H	-0.1540209643	-1.3402920075	-0.5885681038	 0.117806
H	 1.4379223887	-0.449930086	-0.7930552334	 0.138813
H	 0.1115813222	-1.1665813028	 1.9146011165	 0.110643
H	 3.4365157657	-0.866986034	 3.4563837364	 0.116718
H	 1.9099873812	-0.1281878565	 5.3213046949	 0.131482
H	 0.5907063853	 0.2806629627	 4.0997447531	 0.127456
