18
gdb 88366	2.30614	1.4171	1.1631	5.2328	72.21	-0.2866	0.029	0.3156	1132.4133	0.145817	-439.078745	-439.069446	-439.068501	-439.112468	35.184	
C	 0.1589258573	 1.4426871687	 0.1179571542	-0.397086
C	-0.0580584357	-0.0731180424	 0.0213778769	 0.181025
O	 0.4872937852	-0.6364913455	 1.1965275805	-0.45009
C	-1.5210719009	-0.3510268401	-0.0399154234	 0.263209
N	-2.655039294	-0.5675457773	-0.0934366818	-0.342882
C	 0.5805103445	-0.6322549797	-1.2586774125	-0.039961
C	 2.0347053867	-1.0515564617	-1.2510759038	-0.350401
C	 0.9426767613	-2.0820375678	-1.3895731768	 0.080485
O	 0.6310942457	-2.9227507357	-0.3030251716	-0.422497
H	 1.2328150956	 1.6426482445	 0.1372929097	 0.131852
H	-0.289814204	 1.9589036878	-0.7339979844	 0.129209
H	-0.2895271442	 1.8204251557	 1.0391355479	 0.144109
H	 0.4558382474	-1.5998656535	 1.0812868914	 0.296729
H	 0.1998801278	-0.1609110508	-2.1595368233	 0.110215
H	 2.6566675812	-0.8209943379	-2.1085601993	 0.121304
H	 2.530494971	-1.0067351324	-0.2873581924	 0.135771
H	 0.792629048	-2.5508017619	-2.359911839	 0.108323
H	 1.3377822272	-3.57079463	-0.2088350624	 0.300686
