17
gdb 43578	3.42328	1.24071	1.01333	2.7246	78.21	-0.241	-0.016	0.225	1157.5893	0.135935	-384.67672	-384.668814	-384.66787	-384.709247	30.785	
O	 0.054765888	 0.0032974172	 0.0349825809	-0.328206
C	 0.0161606688	 1.2050634949	-0.048521729	 0.413694
C	-1.2625907304	 2.0460408691	-0.1992085411	-0.356892
C	-0.8114902816	 3.3446244385	-0.9225927689	-0.192303
C	-1.5829099766	 4.5293823091	-0.5668886495	 0.323247
C	-2.216796098	 5.5037743883	-0.2604262729	-0.453911
C	 0.6926494127	 3.4683535538	-0.6111853518	-0.036631
C	 1.0997725399	 3.3499974569	 0.8157480391	-0.285813
C	 1.1900491909	 2.1279441031	-0.0953107601	-0.153315
H	-2.0241261365	 1.4892405674	-0.7463936417	 0.138372
H	-1.6716235516	 2.2646553773	 0.792836936	 0.141238
H	-0.9077750859	 3.1792011184	-2.0031607094	 0.116104
H	-2.7775523638	 6.365914006	 0.003968009	 0.198123
H	 1.2969740633	 4.0623326696	-1.2860401775	 0.106219
H	 2.0489849953	 3.7853556268	 1.1057740513	 0.129232
H	 0.3443645597	 3.3732221781	 1.5937797281	 0.130743
H	 2.1618882357	 1.7146836654	-0.3325131327	 0.1101
