21
gdb 113224	2.82239	1.04445	0.91273	2.893	79.06	-0.2515	0.0803	0.3317	1399.3336	0.179712	-424.192138	-424.182162	-424.181218	-424.227467	36.144	
C	 0.1946961116	 1.376463915	 0.0128257212	-0.371027
C	 0.3684082201	-0.1228836785	-0.2623941663	-0.225562
C	 1.0695746638	-0.8164595173	 0.8810427668	 0.034792
O	 0.3210173864	-1.0150519525	 2.0944394771	-0.307569
C	 0.774135029	-2.1735735472	 1.3750198366	 0.333305
C	-0.3068370896	-3.0635423516	 0.8012035161	-0.469765
C	 1.8653259192	-2.9389027119	 2.0755060136	 0.018061
C	 3.0877115837	-3.3627036346	 1.3782573467	-0.178974
O	 3.1048942536	-2.2802288705	 2.3103378149	-0.223401
H	 1.1627135237	 1.8659742216	 0.1644070623	 0.11807
H	-0.3070589088	 1.8750418366	-0.8216112457	 0.111842
H	-0.4036192983	 1.5322388334	 0.9152752635	 0.13534
H	-0.6087522713	-0.5788410886	-0.4451735321	 0.100821
H	 0.9649349145	-0.2692331745	-1.1725814809	 0.099128
H	 2.0832549435	-0.4605313395	 1.0706630321	 0.105135
H	-1.1386836655	-2.4760967958	 0.4114154777	 0.135667
H	 0.0893746309	-3.6940411288	-0.0019228119	 0.123041
H	-0.7030565305	-3.7251232126	 1.5799359704	 0.126808
H	 1.518915769	-3.5446096951	 2.9154038924	 0.101104
H	 3.6101087578	-4.2636734226	 1.6954594996	 0.119449
H	 3.2323571573	-3.0802076847	 0.336241626	 0.113734
