17
gdb 105596	1.76293	1.71593	1.2174	3.3839	68.64	-0.2673	-0.0516	0.2157	1110.7044	0.134161	-458.996891	-458.987784	-458.98684	-459.031439	31.901	
C	-0.0841756625	 1.6112047525	-0.0283250273	-0.401729
C	 0.1276178278	 0.0930170545	 0.04168272	-0.257071
C	 0.7665074638	-0.5273088242	-1.2200321284	-0.004106
C	 0.6299363565	-2.0476421346	-1.4042797963	-0.130108
O	-0.2246461949	-1.8387500536	-2.5833380156	-0.238847
C	-0.1487646387	-0.4831178444	-2.4693378303	 0.440163
O	-0.6651068166	 0.3488872636	-3.1436271275	-0.323101
C	 2.154370863	 0.0185844806	-1.5039121316	 0.116975
O	 3.1409497475	-0.6657076226	-1.5954945041	-0.242371
H	 0.8608229804	 2.1618126381	-0.0234824124	 0.125363
H	-0.6342443766	 1.8882721394	-0.931451645	 0.156913
H	-0.659598147	 1.9457364956	 0.8392677982	 0.126545
H	 0.7490102053	-0.1673226092	 0.9070537723	 0.119783
H	-0.8394809027	-0.3992961563	 0.1961025248	 0.120923
H	 1.5476853006	-2.568336659	-1.6746263575	 0.153722
H	 0.0792254549	-2.5773899753	-0.625503585	 0.127539
H	 2.2016809491	 1.1186078449	-1.6314390443	 0.109405
