15
gdb 69041	3.07709	1.36776	1.11054	1.7221	68.6	-0.2586	-0.066	0.1926	1074.8695	0.109013	-457.751046	-457.74252	-457.741576	-457.784441	30.606	
C	-0.1048871318	 1.446294217	 0.2924280509	-0.5146
C	 0.1272829733	-0.0031971876	 0.0434550828	 0.220415
O	-0.7192976354	-0.9623071433	 0.6802422095	-0.275663
C	 0.6700554907	-1.1240015887	 0.9214764215	 0.245264
C	 1.222328965	-1.9186560748	-0.2694702419	-0.435469
C	 0.7328911846	-0.736497287	-1.1603341414	 0.396558
O	 0.928461224	-0.4200602146	-2.2936447241	-0.284236
C	 1.2208142214	-0.9270832572	 2.2809967306	 0.060094
O	 0.6236180876	-0.3966239585	 3.1840697825	-0.254856
H	 0.7314278822	 2.0405482127	-0.0856265568	 0.143126
H	-1.01487507	 1.7744462736	-0.2200268713	 0.154197
H	-0.2264064394	 1.6212931092	 1.3643517854	 0.16602
H	 2.3117807029	-2.0079091059	-0.3143335082	 0.142494
H	 0.7566308194	-2.8926234807	-0.4276838904	 0.146735
H	 2.2656017956	-1.2891232943	 2.3961546608	 0.089921
