20
gdb 53284	2.9718	0.91919	0.77537	2.3852	85.75	-0.2311	0.0381	0.2692	1553.2135	0.168778	-403.099237	-403.088823	-403.087878	-403.136148	36.987	
C	 0.2397382176	 1.5717709295	 0.0119264053	-0.501498
C	 0.1273097297	 0.1215904525	-0.0071929846	 0.099083
C	 0.0052067894	-1.0762760138	-0.0059596992	 0.135349
C	-0.0887018022	-2.5085251057	-0.0629140603	-0.260347
N	-0.5266448207	-3.248288758	 1.1505959402	-0.350161
C	-1.3750641739	-3.2755094699	-0.0446557171	-0.024273
C	-2.7486241779	-2.6311114556	 0.1282349183	 0.128214
C	-3.8182941262	-3.7051653774	 0.3647540595	-0.392901
O	-2.7419703832	-1.6878003216	 1.1782796233	-0.436634
H	 1.0602994616	 1.9016611314	 0.6587917934	 0.147362
H	 0.4294576544	 1.9682997997	-0.9917421082	 0.147138
H	-0.6832201434	 2.0312900125	 0.3821469414	 0.156702
H	 0.7066566392	-2.9812649514	-0.6374812023	 0.106369
H	 0.0064664969	-4.1050298802	 1.2632132673	 0.240265
H	-1.3787380212	-4.186264027	-0.6414774259	 0.087904
H	-2.9917860146	-2.0838809127	-0.7931839516	 0.08665
H	-3.5748763918	-4.3008037774	 1.2514801314	 0.113769
H	-4.7871017568	-3.2275341156	 0.5310202442	 0.124166
H	-3.9064786454	-4.3807106189	-0.493925291	 0.102015
H	-2.0523564115	-1.9824671602	 1.7926841359	 0.29083
