16
gdb 33613	3.56457	1.62107	1.43353	1.4084	79.04	-0.2253	0.0263	0.2516	929.0285	0.125064	-363.490975	-363.484384	-363.48344	-363.521721	27.34	
C	 0.0357021678	-1.2376403023	 0.0368089623	-0.328154
C	 0.0005896925	-0.0337616923	 0.041974453	-0.039078
C	-0.0506636524	 1.3862237938	 0.0468908138	 0.350063
C	-0.7152266213	 2.3692605915	 1.0581527695	-0.140101
C	 0.3509656382	 3.3466857373	 0.7489579567	-0.052092
C	 1.2171706754	 2.3593536555	-0.0536554701	-0.133115
C	 0.8877407475	 2.6304515373	-1.5394939648	-0.247937
C	-0.5542684829	 2.3343601148	-1.1067820779	-0.048703
N	-0.92878058	 3.352344935	-0.0421959426	-0.152766
H	 0.0678352929	-2.2988568457	 0.0321464871	 0.178521
H	-1.3905977614	 2.2368062832	 1.8944143955	 0.105335
H	 0.6374967525	 4.2604892367	 1.2528368001	 0.102602
H	 2.2025610397	 2.0821803527	 0.3130046495	 0.089568
H	 1.1121063108	 3.6159614863	-1.9554559246	 0.108541
H	 1.2748050725	 1.8404329606	-2.18926079	 0.117164
H	-1.3679912017	 2.1023544554	-1.7909200375	 0.090151
