19
gdb 32524	1.99383	1.43842	0.89102	2.2742	77.75	-0.2126	0.029	0.2416	1316.9658	0.158847	-423.05112	-423.041753	-423.040809	-423.086021	33.732	
C	-0.159438434	 1.5313148295	 0.0000572015	-0.370571
C	 0.0727116943	 0.0104515868	-0.0253856968	-0.305111
C	 0.7456193757	-0.5187968779	 1.2080385265	 0.144125
C	 2.0348343146	-0.9379034563	 1.3199929172	-0.102047
O	 2.313322159	-1.346276142	 2.5855369722	-0.151436
C	 1.1713786137	-1.1841994049	 3.3062885169	-0.086383
C	 0.1778763032	-0.6834879367	 2.5269860993	 0.161014
C	-1.220795734	-0.3858768939	 2.9633789011	-0.197034
O	-1.402344874	-0.895791327	 4.2753676326	-0.417659
H	 0.790007872	 2.0670353773	 0.0938636189	 0.122498
H	-0.6531856826	 1.8664296268	-0.9177116087	 0.111762
H	-0.7893378647	 1.8259591367	 0.8453503145	 0.119026
H	-0.8903651585	-0.4973098295	-0.1678358108	 0.103692
H	 0.6806009801	-0.2455182972	-0.9005094957	 0.104572
H	 2.8447030228	-1.0108699422	 0.6119668794	 0.130547
H	 1.2120281061	-1.475033148	 4.3412038676	 0.147213
H	-1.4041652839	 0.7016173502	 2.9369776812	 0.09931
H	-1.9366712032	-0.8390993705	 2.2561299196	 0.096654
H	-2.2715502466	-0.6247792812	 4.5833667235	 0.289829
