20
gdb 79156	3.90347	1.31167	1.16106	1.9219	78.93	-0.214	0.0878	0.3019	1129.4524	0.171311	-403.077925	-403.070148	-403.069204	-403.109795	31.22	
C	-0.4497540948	 1.2085903502	-0.2443578231	-0.398964
C	-0.2245826804	-0.2889221474	-0.0969005861	 0.109589
O	 0.7298730371	-0.7566113126	-1.0840211658	-0.2944
C	 1.7233000198	-1.3573893603	-0.2986631589	 0.137715
C	 2.0080904318	-0.5357056587	 0.9925757854	-0.068974
C	 0.4593159109	-0.7389695556	 1.1885789814	-0.086764
C	 1.1097952936	-2.1397326916	 0.9002295321	-0.07396
N	 2.3571801366	-1.8269824852	 1.6761770035	-0.114321
C	 2.260733362	-1.8567610451	 3.1317323034	-0.322536
H	 0.4758552702	 1.7633216659	-0.0632383857	 0.120203
H	-0.7955615669	 1.4417935626	-1.2553233267	 0.128974
H	-1.2079514267	 1.5554912916	 0.4657633111	 0.113325
H	-1.1708827989	-0.8254338831	-0.2543627416	 0.080052
H	 2.5328746191	-1.7755639674	-0.8913748018	 0.09945
H	 2.6025956872	 0.3713419608	 1.112430339	 0.07859
H	-0.0316997285	-0.5209688824	 2.1342652171	 0.079593
H	 0.6399613076	-3.1248391969	 0.9094456606	 0.077674
H	 2.2781982334	-2.9001996791	 3.4636250862	 0.120381
H	 3.1426448946	-1.3621915927	 3.5523874514	 0.120286
H	 1.3662572622	-1.3786046629	 3.5617398186	 0.094087
