18
gdb 40475	3.65837	1.39381	1.25004	2.9756	76.15	-0.2257	0.0717	0.2974	1045.4881	0.147603	-401.813191	-401.806019	-401.805075	-401.845098	28.599	
C	-0.0979748669	 1.3603151107	-0.1927757049	-0.236577
C	 1.2958038478	 0.8877372376	 0.026280887	-0.236578
N	 0.1693703836	-0.0376093814	 0.1437618994	-0.170828
C	-0.1850680352	-0.4805832473	 1.4433360155	 0.37241
C	-0.1687033159	 0.2171104936	 2.840742894	-0.340547
C	-0.696123736	-1.1976859544	 3.148190718	-0.096697
C	-1.4699090948	-1.3036752934	 1.7987765992	 0.038214
O	-0.8978671841	-2.5912286184	 1.4309635642	-0.325339
C	 0.197996522	-1.8684498745	 2.0612315753	 0.038192
H	-0.5314266269	 1.9988866005	 0.5739209681	 0.115892
H	-0.4713226823	 1.5324823441	-1.197864504	 0.122361
H	 1.9572719859	 0.7090750952	-0.8162107562	 0.122359
H	 1.7915610022	 1.2112324475	 0.9389885034	 0.115885
H	 0.8104032022	 0.4695159752	 3.2577361763	 0.100418
H	-0.8734249135	 1.0396044504	 2.9927579624	 0.100419
H	-0.9937294075	-1.6353316245	 4.0982538876	 0.090364
H	-2.5160800653	-1.1032597105	 1.568488145	 0.095025
H	 1.1707968647	-2.3518751003	 2.1485616696	 0.095029
