20
gdb 50717	2.78631	1.30031	0.9986	3.9901	82.14	-0.2383	0.0068	0.2451	1224.3845	0.173338	-403.184184	-403.175805	-403.174861	-403.217869	31.694	
O	-0.2600151545	 0.0221595169	-0.0351497951	-0.345219
C	-0.0891170806	 1.2235283693	-0.0513360118	 0.15115
N	 1.1183777551	 1.8570047254	-0.0519291055	-0.026028
C	 1.2115254335	 3.3049271174	-0.0549555177	-0.17863
C	 1.6977658699	 3.9128674064	 1.2672399882	-0.181906
C	 3.1568967427	 3.5906519921	 1.6330436616	-0.251513
C	 3.4602363548	 2.1459574668	 1.9617169268	-0.04873
C	 3.1152827292	 1.071557524	 1.2528692131	-0.050084
C	 2.3411169181	 1.0617043333	-0.0488473928	-0.23436
H	-0.927913756	 1.947606402	-0.0766642759	 0.069535
H	 1.8801236772	 3.6165877834	-0.8710195041	 0.104
H	 0.2179095593	 3.7004439772	-0.2913210813	 0.114309
H	 1.5926517553	 5.0020888068	 1.1877959386	 0.09864
H	 1.0340165476	 3.5836227623	 2.0747814918	 0.10984
H	 3.8067173247	 3.918199855	 0.8063618758	 0.110894
H	 3.4404385744	 4.2116279383	 2.4888989964	 0.106157
H	 4.0409592264	 1.9841823665	 2.8671959972	 0.092055
H	 3.4341264253	 0.0943020967	 1.6065025674	 0.097975
H	 2.0350177185	 0.0432080919	-0.2915319801	 0.149793
H	 2.985530449	 1.4210409184	-0.8660116227	 0.112123
