18
gdb 90793	2.37713	2.01294	1.38846	2.5843	74.59	-0.2289	-0.0108	0.2181	969.4985	0.148987	-401.934406	-401.927076	-401.926132	-401.966105	29.055	
C	-0.1002831475	 1.5833800405	-0.0031388307	-0.413072
C	 0.00888198	 0.0581076688	 0.0042431436	 0.019319
C	 0.8466671213	-0.5313432793	-1.1602487155	-0.183886
N	 1.5928370158	-1.6974647439	-0.6229037173	-0.093357
C	 1.2149894109	-1.9362951568	 0.7446744	-0.066366
C	 2.6083845491	-1.4106877466	 0.4178663624	-0.179187
C	 2.258959267	-0.1694211253	 1.1923965573	 0.43232
O	 2.9159882127	 0.661795594	 1.7560866169	-0.337542
C	 0.7490447866	-0.530990171	 1.2191410398	-0.190255
H	 0.886270192	 2.0501118257	 0.081661666	 0.138024
H	-0.5665463063	 1.9377060274	-0.9282163124	 0.118432
H	-0.7102480958	 1.9399043446	 0.8328034608	 0.120716
H	-1.0006482617	-0.3722351015	-0.023747404	 0.079661
H	 0.2187774374	-0.8847169585	-1.9828882823	 0.11499
H	 1.5555993188	 0.1967083466	-1.5670457404	 0.118298
H	 0.9372335111	-2.9149325256	 1.1142580456	 0.114741
H	 3.5665836848	-1.9128683038	 0.3481705071	 0.113711
H	 0.262194594	-0.4066856054	 2.1862906231	 0.093454
