21
gdb 92531	2.2507	1.78232	1.45488	2.4994	76.62	-0.2524	0.0708	0.3232	1025.5546	0.184682	-424.225878	-424.217844	-424.2169	-424.258021	32.27	
C	-0.7337933344	 1.3499555001	 0.159344876	-0.410929
C	-0.0294951217	-0.0006475633	 0.050321869	 0.00418
C	 0.8021233784	-0.2381705139	-1.2334518058	-0.078186
C	 1.8797669789	 0.8033734282	-1.5866581921	-0.097629
O	 2.9085243732	 0.0289378139	-0.9160096068	-0.312735
C	 2.0056111278	-1.1130012488	-0.7799511815	 0.11938
C	 1.7787379906	-1.4899667297	 0.6784406565	-0.270172
C	 0.9440404156	-0.3151709016	 1.2236956362	 0.119482
O	 1.7657532754	 0.7880907747	 1.5811303976	-0.447717
H	-0.0125748982	 2.1619464424	 0.2758443194	 0.132719
H	-1.3509056951	 1.551199311	-0.7226999909	 0.105537
H	-1.3888391904	 1.3726246987	 1.0363463902	 0.115869
H	-0.7929308976	-0.7912471646	 0.068294055	 0.071136
H	 0.1944160638	-0.5849482117	-2.0703454095	 0.073876
H	 2.0880264099	 0.8842438686	-2.6607253715	 0.10485
H	 1.7831016617	 1.8077524585	-1.1635570293	 0.114129
H	 2.3222350445	-1.9371483084	-1.4273102351	 0.073415
H	 1.2108418275	-2.4269202058	 0.7265203706	 0.101863
H	 2.7127696624	-1.6290953719	 1.2305120348	 0.114834
H	 0.3865541635	-0.5802348186	 2.1278028649	 0.074604
H	 2.4903673443	 0.8088776323	 0.9403692625	 0.291495
