15
gdb 2656	18.06148	0.77455	0.75311	0.1173	84.47	-0.2254	0.0015	0.2269	1516.5701	0.123048	-271.351786	-271.343016	-271.342072	-271.387292	28.915	
C	-0.0460390003	 1.5563607455	 0.0582550011	-0.365529
C	 0.0105517742	 0.018147755	-0.0129664681	-0.342859
C	 0.6879426694	-0.4753829427	-1.2032105678	 0.30091
C	 1.2542504816	-0.8693811673	-2.1986211906	-0.23453
C	 1.8902966128	-1.3122971951	-3.3166048109	-0.200275
C	 2.45631121	-1.7059577069	-4.3115027928	 0.249124
C	 3.1352716521	-2.1782685622	-5.5049267466	-0.51789
H	 0.960873916	 1.98177501	 0.0658662003	 0.131584
H	-0.5792836245	 1.9653827813	-0.803870248	 0.131584
H	-0.5633332959	 1.8740980591	 0.9683080617	 0.116378
H	 0.5168105264	-0.3721086823	 0.8798743919	 0.134458
H	-1.0090318828	-0.3883485617	 0.0182218067	 0.134458
H	 3.1648761363	-3.2734186561	-5.53775027	 0.154338
H	 2.6289380327	-1.8326512744	-6.4134845912	 0.154125
H	 4.1693821198	-1.8170916624	-5.5432564927	 0.154125
