16
gdb 31403	3.02027	1.34505	0.94127	2.9756	75.34	-0.2578	-0.0669	0.1909	1209.3975	0.124736	-434.108075	-434.099932	-434.098987	-434.141476	29.577	
C	-0.0810596735	 1.5306676986	 0.134287006	-0.378678
C	 0.0274800315	 0.0204345191	-0.048394696	-0.264195
C	 0.7374213107	-0.426153498	-1.2924210017	 0.352212
N	 1.2083324822	 0.4395299832	-2.125959958	-0.291761
C	 1.8547363839	 0.0010975079	-3.2586022648	 0.432407
N	 2.3488385211	 0.7614698303	-4.1329129051	-0.513413
O	 1.9580288039	-1.4183158953	-3.429853322	-0.209207
C	 1.4275026865	-2.2020482593	-2.4924373301	 0.147633
N	 0.8233819504	-1.8192381006	-1.4337923009	-0.313393
H	 0.9073043926	 1.9949962718	 0.1737914197	 0.135861
H	-0.6211380883	 1.9904646566	-0.6969210497	 0.135919
H	-0.610745446	 1.7605784745	 1.0629384384	 0.111096
H	 0.5450250446	-0.4519326676	 0.7978708051	 0.134735
H	-0.9623907105	-0.4562294188	-0.0609687682	 0.134755
H	 2.777543144	 0.2204515801	-4.88249686	 0.232336
H	 1.5630473468	-3.2567288825	-2.7230726925	 0.153693
