19
gdb 75334	2.55315	1.65139	1.14651	3.4438	82.69	-0.2336	-0.0383	0.1953	1107.2294	0.16043	-385.927598	-385.919483	-385.918539	-385.96015	31.478	
C	-0.3278960578	 1.4994018806	 0.0411033749	-0.476216
C	-0.0209005019	 0.0296586555	-0.0347614098	 0.194648
C	-0.0474179241	-0.673532471	-1.1774040079	-0.144519
C	 0.1761640529	-2.1544058795	-1.2944866342	-0.286177
C	 0.8577750247	-2.7768745442	-0.0922292064	-0.041691
C	 2.1369591664	-2.2022254337	 0.4245404942	-0.29437
C	 0.8508232654	-2.0116096282	 1.2213757674	-0.125603
C	 0.2409987475	-0.6533717309	 1.2656550691	 0.345064
O	-0.0411739947	-0.1201053245	 2.3244232786	-0.344475
H	 0.5232406835	 2.0591712471	 0.4444542987	 0.133268
H	-0.5779373496	 1.9048652378	-0.9424842238	 0.111641
H	-1.1614645778	 1.6781758961	 0.7268337191	 0.146818
H	-0.2906333563	-0.1569334835	-2.1048395135	 0.094963
H	-0.7975673548	-2.6385509813	-1.4622223018	 0.123966
H	 0.7586068636	-2.3631128672	-2.2026611234	 0.116408
H	 0.7457509839	-3.8533638668	-0.0103212688	 0.094662
H	 2.8744910081	-2.8752948389	 0.8461041937	 0.123088
H	 2.5483060104	-1.330078158	-0.0718573099	 0.124856
H	 0.7623212606	-2.5555989592	 2.1544938138	 0.103668
