19
gdb 67196	2.84066	1.47675	1.20241	0.9394	85.41	-0.2387	0.0554	0.2941	1099.1977	0.158826	-348.67506	-348.666941	-348.665997	-348.707403	32.262	
C	-0.0112471901	 1.5951330471	-0.2079907657	-0.533273
C	 0.0362968491	 0.1116612153	-0.0577090631	 0.370515
C	 0.019554225	-1.036106145	-1.0428716372	-0.135541
C	 1.2721632986	-1.6605608175	-0.4353580116	-0.247643
C	 0.9187781695	-0.8586902882	 0.8440309158	-0.10717
C	-0.4058474566	-1.5291154832	 1.3467073912	-0.187596
C	-0.9306289177	-0.9520970411	 2.5712655093	 0.308743
C	-1.3621910967	-0.4749966679	 3.5877230858	-0.453751
C	-1.0355084776	-0.9419089813	 0.0747389074	-0.106927
H	 0.9495326187	 1.9994325726	-0.5479097356	 0.118939
H	-0.7702465277	 1.8836944993	-0.943621089	 0.121858
H	-0.2643153692	 2.0829687027	 0.7399200129	 0.130827
H	-0.2838732362	-1.0112586449	-2.0825146781	 0.08452
H	 1.3385902544	-2.7514722818	-0.3449515708	 0.088461
H	 2.1790497538	-1.2782092866	-0.9122208956	 0.099087
H	 1.6780124928	-0.5629171644	 1.5643982186	 0.079983
H	-0.3724829654	-2.6232502019	 1.4293573446	 0.089128
H	-1.7456656322	-0.058752564	 4.4858922644	 0.189631
H	-2.0910414223	-0.8493524293	-0.1471622633	 0.090212
