15
gdb 51435	3.41903	1.07884	0.90769	2.6994	69.	-0.2644	-0.0192	0.2452	1240.6118	0.111916	-453.909874	-453.901922	-453.900977	-453.943504	28.439	
N	-0.2997069741	 1.2275548988	-0.0809882296	-0.495416
C	-0.0664804675	-0.001817871	-0.0282919854	 0.336383
C	 1.1366521823	-0.95003545	 0.1121929072	 0.020143
O	 1.9749173216	-0.7656244689	 1.2400474728	-0.192584
C	 3.3169801713	-0.7840200121	 1.0570824892	 0.172585
O	 4.0879494751	-0.6466162036	 1.9537990254	-0.260606
C	 0.1087544186	-2.070329693	 0.1532592485	-0.063713
C	-0.9501243499	-1.7994013645	 1.1380130207	-0.239708
N	-1.0253370109	-1.0813375498	-0.1658009363	-0.136558
H	 0.5577643165	 1.7690543691	 0.0428282569	 0.237093
H	 1.7298468343	-0.9703995827	-0.8105446723	 0.120642
H	 3.5998849532	-0.9360121005	-0.0031240917	 0.086324
H	 0.1908612496	-3.0049439911	-0.3877655014	 0.119297
H	-1.7324541402	-2.5427737346	 1.2454517678	 0.145215
H	-0.7298558599	-1.2276430762	 2.0346989482	 0.150903
