15
gdb 30181	4.74463	1.35061	1.09183	3.5594	67.31	-0.1781	0.0287	0.2068	1058.9366	0.11393	-453.947244	-453.939852	-453.938908	-453.979164	27.964	
C	-0.5194001636	 1.4902588953	 0.0200676181	-0.402211
C	 0.234522387	 0.188377919	 0.0139246005	 0.203448
O	 1.1031972737	 0.1129140154	-1.1800560221	-0.306783
C	 2.1809326772	-0.5278878062	-0.6495130898	 0.33694
C	 2.1849653243	-0.5614191962	 0.6957257446	 0.29088
O	 1.0567070637	 0.0627852656	 1.190652885	-0.290488
N	 3.3419278192	-1.0317235098	 1.211569181	-0.342156
C	 4.0653562189	-1.2949140601	 0.1301971425	-0.024295
N	 3.4051746229	-0.9757663672	-1.0506163559	-0.38847
H	 0.182071258	 2.3266484927	 0.0558020822	 0.141724
H	-1.1332632573	 1.5696516097	-0.8806151066	 0.135278
H	-1.1706266656	 1.5312636778	 0.8968263303	 0.141324
H	-0.4243106275	-0.6924869373	-0.0370462205	 0.094387
H	 5.0402402257	-1.7544742091	 0.1212136364	 0.133545
H	 3.7349952934	-1.1448582296	-1.9854422359	 0.276877
