15
gdb 132765	2.29465	1.80328	1.01618	3.3506	71.09	-0.2343	-0.0229	0.2113	1078.9136	0.112445	-461.973519	-461.965636	-461.964691	-462.005857	29.619	
C	 0.0277581682	 1.5204251937	 0.0284289046	-0.545279
C	 0.0225951983	 0.0153464851	 0.0168978032	 0.023015
C	-0.1039262824	-0.7195429115	-1.157521355	 0.203523
F	-0.2258043839	-0.0682097712	-2.3222642256	-0.080608
C	-0.1074805423	-2.1068329485	-1.1567227989	-0.111855
N	 0.0105231706	-2.8057900062	-0.0270847116	-0.265633
C	 0.1336034674	-2.1379220195	 1.1165532988	-0.055173
C	 0.1449060776	-0.7422491089	 1.1884201327	 0.284647
O	 0.2767611736	-0.1746256821	 2.4167182122	-0.431519
H	 0.9636908355	 1.9171176217	 0.4418422075	 0.140985
H	-0.0784455566	 1.9119612766	-0.9833050659	 0.15874
H	-0.7986690815	 1.921759352	 0.6285972944	 0.140992
H	-0.2080729263	-2.6496892426	-2.0914910483	 0.118358
H	 0.2292834824	-2.7135826116	 2.0327029786	 0.117691
H	 0.2705218193	 0.7845133228	 2.3347698532	 0.302116
