14
gdb 5738	4.22812	2.05476	1.40749	3.0721	64.94	-0.1923	0.0381	0.2303	830.5322	0.109916	-378.720911	-378.714506	-378.713561	-378.751532	24.231	
O	 0.0210749494	 1.3852924916	-0.0468537454	-0.436332
C	 0.0464442226	 0.0329433024	-0.0506144693	 0.192693
C	 0.1289440646	-0.8299025744	-1.1157634491	 0.231577
C	 0.2272365907	-1.3626613427	-2.5366126572	-0.384163
C	 0.2116135862	-2.7885351152	-1.8624323375	-0.169418
N	 0.1177154019	-2.0861446212	-0.5615658904	-0.001097
C	 0.0318765287	-1.9790672494	 0.7818339685	-0.039126
N	-0.0125470534	-0.6900395247	 1.1105776079	-0.35106
H	-0.0416200236	 1.6455947155	 0.8802296372	 0.298992
H	-0.627428805	-1.1636170003	-3.1880922121	 0.128328
H	 1.1481642872	-1.1308099556	-3.0775710036	 0.128325
H	-0.6599182528	-3.4081289008	-2.0855159244	 0.13415
H	 1.1262388999	-3.3751837261	-1.9743897889	 0.134144
H	 0.0042578635	-2.8071339592	 1.4713225442	 0.132987
