22
gdb 118197	2.3778	0.94701	0.86032	4.131	80.19	-0.2267	-0.017	0.2097	1507.2022	0.191008	-441.483623	-441.472594	-441.47165	-441.521402	38.631	
C	 0.2918162933	 1.4612169458	 0.027435982	-0.335606
N	 0.1147895745	 0.0161311706	 0.0673140343	-0.053015
C	 0.7456605903	-0.6330945343	 1.2178896341	-0.163847
C	 1.1610932014	-2.0618083735	 0.8478525323	-0.05176
O	 1.9187464022	-2.0675282472	-0.3393362066	-0.42059
C	-1.2607345256	-0.3769335135	-0.1481765775	-0.263557
C	-1.7171425684	-0.2643919993	-1.6065487349	 0.379606
C	-3.1935435576	-0.5291804842	-1.8444714275	-0.476111
O	-0.9579494814	 0.0160941105	-2.5024146622	-0.285454
H	 1.3548393384	 1.7029030231	 0.1077630537	 0.127347
H	-0.0688829303	 1.8465735707	-0.9286730579	 0.141377
H	-0.2431116239	 1.9821050505	 0.8433054665	 0.091079
H	 1.650740477	-0.0654299676	 1.4546934742	 0.110701
H	 0.1091919398	-0.6302282166	 2.1212004384	 0.079061
H	 1.7781109995	-2.4839592912	 1.6491001102	 0.103213
H	 0.2705891787	-2.7102700546	 0.7604674611	 0.076626
H	 1.492041023	-1.4059921342	-0.9057927448	 0.284862
H	-1.3927706995	-1.4285983968	 0.1349415177	 0.129416
H	-1.975715629	 0.1884768596	 0.4837698987	 0.097816
H	-3.7870401164	 0.2973967847	-1.4360916182	 0.144985
H	-3.3848506722	-0.6102031296	-2.9148613508	 0.147998
H	-3.5225865336	-1.4402630731	-1.3334303726	 0.135855
