20
gdb 88284	3.71398	0.9474	0.89574	3.7087	82.54	-0.2378	-0.019	0.2188	1402.6742	0.17043	-403.13107	-403.121856	-403.120912	-403.165969	33.985	
C	 0.2098355525	 1.5132466702	-0.6315753855	-0.403762
C	-0.0485292796	 0.1179363834	-0.1210991109	 0.012814
N	 1.1019795922	-0.7611789506	 0.0354909518	-0.311296
C	 0.3712217994	-0.3563527281	 1.2503252877	-0.158974
C	 1.0743424426	 0.5460440516	 2.2232443156	 0.413786
O	 2.0233849845	 1.237553585	 1.909820888	-0.34351
C	 0.5138939848	 0.5692700025	 3.607057832	-0.112269
C	 1.5054263827	 0.7533958594	 4.7499212702	-0.247341
C	 0.6085882534	 1.8801983451	 4.3748232706	-0.248171
H	 1.1381771797	 1.9056990516	-0.215305792	 0.166095
H	 0.2933694958	 1.4994595443	-1.7236253324	 0.118384
H	-0.6152913325	 2.1823503552	-0.3648107352	 0.111443
H	-0.9758966194	-0.3341935462	-0.4744099024	 0.087241
H	 0.8646764751	-1.7224355745	-0.1950590163	 0.235168
H	-0.288578185	-1.0889852289	 1.7105644435	 0.082972
H	-0.3498253041	-0.057954628	 3.7964161602	 0.084002
H	 1.3110658425	 0.205430366	 5.6646541456	 0.116913
H	 2.5456979003	 0.8233495778	 4.4536443285	 0.141047
H	 1.0488084374	 2.7056695805	 3.8274842926	 0.139222
H	-0.2209570424	 2.1324666139	 5.0252323982	 0.116237
