14
gdb 129211	2.48915	1.8886	1.2316	3.809	76.84	-0.2443	-0.0852	0.159	974.3771	0.103187	-429.019741	-429.012396	-429.011452	-429.051996	27.384	
N	-0.148114068	 1.3964249615	 0.0648311987	-0.480859
C	-0.049282652	 0.1414520884	-0.0906209994	 0.368832
N	 1.1769160796	-0.5309069904	-0.2840454858	-0.278858
N	 1.4871005826	-1.7765851831	-0.6524902028	-0.158505
C	 0.6499579546	-2.5875569211	-1.212412464	-0.012075
C	-0.7371919754	-2.3626803948	-1.5967692686	-0.011501
N	-1.5815123319	-1.5289195394	-1.1158622229	-0.241514
C	-1.2705514298	-0.7390810345	-0.0017056653	 0.2909
N	-1.9880506321	-0.6790383206	 1.0428941758	-0.450565
H	 0.7515096281	 1.8706263578	-0.0465448201	 0.216677
H	 1.9942043116	-0.0171464801	 0.0149508745	 0.271935
H	 1.0913499878	-3.5333535519	-1.5152238065	 0.127158
H	-1.0916550186	-2.9995950271	-2.4111659416	 0.128764
H	-2.7949656063	-1.3005358447	 0.932657948	 0.229612
