16
gdb 82278	3.33128	1.4322	1.11321	2.2756	74.17	-0.2488	-0.0654	0.1835	1056.6743	0.125015	-437.8726	-437.865022	-437.864078	-437.9047	28.878	
O	 0.0501282439	 1.4082294712	 0.0722976156	-0.4373
C	 0.0026476119	-0.0068419668	 0.0372762074	-0.006346
C	-1.4272488185	-0.5266253523	-0.1083573386	-0.029464
C	-2.2282036639	-0.0932149324	-1.2781175407	-0.229176
N	-1.5116156055	-1.4033095151	-1.3065499208	-0.107067
C	-0.2429035241	-1.2952049782	-1.9171290984	-0.134145
C	 0.6569749783	-0.5851137219	-1.2125922705	 0.190911
C	 2.0137725967	-0.2486324057	-1.5955823585	 0.070705
O	 2.6825397294	 0.579705768	-0.9997119062	-0.303609
H	 0.9881950204	 1.6362105225	 0.0031120554	 0.299393
H	 0.459641481	-0.4235633218	 0.9476473802	 0.085117
H	-1.9411092458	-0.9001448152	 0.7699423695	 0.108723
H	-3.3094851685	-0.1737969047	-1.2466131471	 0.133495
H	-1.8262312895	 0.7032994414	-1.8958636097	 0.143809
H	-0.1011090699	-1.7652540636	-2.8848411202	 0.130405
H	 2.4220437042	-0.7777763552	-2.4822936074	 0.084549
