16
gdb 24296	3.97547	1.71216	1.31229	4.7971	73.8	-0.2088	0.0295	0.2383	934.28	0.128809	-396.937041	-396.930781	-396.929837	-396.967597	25.255	
C	 0.0373091481	 1.4636480332	 0.0203180473	-0.247983
C	 1.2800194635	 0.6549803819	 0.0375599889	-0.031518
C	 1.9555506541	 0.3497517952	 1.3858072437	-0.213562
N	 0.8868056244	-0.3615938297	 2.0606701739	-0.003262
C	 0.6075048745	-0.9449604904	 3.2798332472	-0.161742
C	-0.6536640205	-1.4674512925	 3.1263403793	-0.091985
N	-1.1586862964	-1.2280561342	 1.8579975821	-0.363236
C	-0.2008365273	-0.5686195425	 1.2657518543	 0.413827
N	-0.0461438557	-0.0196905317	-0.0307300323	-0.180414
H	-0.2812261338	 1.9470725839	 0.9401504684	 0.134774
H	-0.2641553944	 1.9619549852	-0.8954077294	 0.13224
H	 1.893130661	 0.5890205324	-0.8542719525	 0.114073
H	 2.8389871901	-0.2840266065	 1.248253984	 0.132128
H	 2.2597632321	 1.2505096013	 1.9296632276	 0.132232
H	 1.3041488622	-0.94951139	 4.100914248	 0.126599
H	-1.231007752	-2.0118581655	 3.8582468195	 0.107829
