18
gdb 13908	3.38906	1.37427	1.18659	3.5572	69.84	-0.2296	0.0289	0.2585	1084.0917	0.152827	-381.132795	-381.123783	-381.122839	-381.166256	32.692	
C	 0.2840252431	 1.8153626122	-0.6132354629	-0.418656
C	-0.0359317618	 0.339883929	-0.5238003496	 0.020366
C	 0.8238086295	-0.68550997	-1.2069312117	-0.129658
N	 0.7527394607	-0.6148963053	 0.252060478	-0.115346
C	 1.9390605412	-0.1795504169	 0.9778779938	-0.318359
C	 0.2427306303	-1.8939853144	-1.8959095247	 0.393139
N	-0.5195242316	-2.6755844661	-1.0806373534	-0.533058
O	 0.4240880545	-2.1036490716	-3.080737193	-0.374508
H	 1.3487183518	 2.0083225721	-0.7612627223	 0.125716
H	-0.2525761708	 2.2549773044	-1.459812137	 0.136051
H	-0.0372824098	 2.3417650521	 0.2923983152	 0.126162
H	-1.1023054911	 0.122944924	-0.4777594928	 0.100079
H	 1.7145902756	-0.3038700367	-1.702695066	 0.098192
H	 2.5478364269	 0.5659784235	 0.4476250609	 0.110583
H	 1.6385157846	 0.2423243988	 1.9420636377	 0.126674
H	 2.5695041566	-1.0528958989	 1.1705276492	 0.130943
H	-0.4462795893	-2.5333362926	-0.0847541306	 0.264565
H	-0.8630619702	-3.5486122336	-1.4443825009	 0.257115
