19
gdb 91979	2.53454	1.56194	1.19707	2.9751	78.04	-0.2459	0.031	0.2769	1082.046	0.161128	-382.067613	-382.059383	-382.058439	-382.100418	31.438	
C	 0.7017926001	 1.4862166106	-0.3007184203	-0.411483
C	 0.122237596	 0.1014146495	 0.0128257154	-0.031358
C	 0.2875031129	-0.9463958715	-1.1305179728	-0.174982
N	 1.2850612818	-1.9612200561	-0.7496380807	-0.09213
C	 2.5979304545	-1.4129184061	-0.3779838829	-0.247789
C	 1.6067486203	-1.7623278495	 0.6680331064	-0.028362
C	 0.7462744373	-0.6379366134	 1.2527095921	-0.171462
C	 1.4783782285	 0.2266061788	 2.1747197731	 0.282502
N	 2.0595551937	 0.9072380785	 2.9065892531	-0.336506
H	 1.774692151	 1.4632010582	-0.5096849315	 0.133803
H	 0.202171136	 1.9016750848	-1.1815690988	 0.12012
H	 0.5463123053	 2.1783093368	 0.5315200716	 0.141506
H	-0.9435630303	 0.240579566	 0.2147639228	 0.097044
H	-0.6563768172	-1.4738797434	-1.3013994812	 0.113933
H	 0.5756515482	-0.4753405256	-2.0756520452	 0.115071
H	 3.4339008289	-2.0799614038	-0.5653362663	 0.126785
H	 2.8086928019	-0.3648855206	-0.5660571567	 0.124156
H	 1.7395929475	-2.6492516359	 1.279932612	 0.108639
H	-0.0627550565	-1.1034108171	 1.8271188697	 0.130511
