12
gdb 4675	7.65149	1.31801	1.12434	1.4957	59.47	-0.2249	-0.0531	0.1718	952.4057	0.085044	-414.712214	-414.70561	-414.704666	-414.743045	24.113	
O	 0.0721132696	 1.3649047132	-0.0444239064	-0.424574
C	 0.0648408442	 0.0215870292	-0.0812506494	 0.358122
C	 0.0136393375	-0.7793300145	-1.1823146605	-0.224884
N	 0.0305567622	-2.0827691918	-0.6657347438	-0.045857
C	-0.0058342472	-3.2758262772	-1.3876040046	 0.182141
O	 0.0118330553	-4.3650657562	-0.8809464021	-0.279321
C	 0.0906176534	-1.9671921555	 0.7055244531	 0.043892
N	 0.1123257567	-0.7179476638	 1.0840421522	-0.34591
H	 0.1136139664	 1.6143023127	 0.8873367488	 0.308377
H	-0.0313129355	-0.5761547663	-2.2368880463	 0.14791
H	-0.052081026	-3.0956319295	-2.4759235312	 0.109266
H	 0.1144474333	-2.8389376504	 1.3389775302	 0.170838
