17
gdb 37256	3.21907	2.25812	1.79974	0.4099	72.89	-0.2105	0.0533	0.2638	801.8817	0.138655	-380.755897	-380.750137	-380.749193	-380.785533	25.545	
C	-0.0485922561	 1.5252490129	 0.1007154961	-0.309661
C	 1.280439186	 0.8269519598	 0.014341136	 0.006155
C	 0.0147065301	 0.0237463608	 0.0470439443	 0.006154
N	-0.3180484745	-0.653405153	-1.1853372472	-0.095279
C	-0.0422409506	-0.0662026786	-2.478414049	-0.091504
C	 1.2929975192	 0.7811411135	-2.5129010372	-0.09151
C	 2.0553776773	-0.4109718306	-2.0391487193	-0.072889
C	 0.7291998546	-1.2525538695	-2.0048641938	-0.072892
N	 1.9889341679	 0.8105632569	-1.2449384006	-0.095277
H	-0.3144192267	 1.9826716136	 1.0466928575	 0.116337
H	-0.4067328529	 2.0538798275	-0.7770497348	 0.122457
H	 1.9483726565	 0.8586429713	 0.8689648172	 0.09423
H	-0.2664616462	-0.546846722	 0.9261846938	 0.09423
H	-0.8345323873	 0.0095153165	-3.2147342921	 0.097316
H	 1.5342355531	 1.5127428836	-3.2759143159	 0.097315
H	 3.0222101379	-0.7977440794	-2.3378742078	 0.097409
H	 0.6569490818	-2.2987217332	-2.2767233373	 0.097408
