21
gdb 116541	1.75546	1.38073	0.82502	0.9217	85.65	-0.2162	-0.0519	0.1643	1454.2099	0.179882	-420.426203	-420.415172	-420.414227	-420.463219	38.69	
C	 0.5148231047	 0.7510308185	 0.1717618624	-0.365496
C	-0.0642908061	-0.656693051	 0.3644691698	-0.139073
N	-1.4681775428	-0.689616735	 0.027816908	-0.301435
C	-1.9971800804	-1.2563907392	-0.9894184902	 0.229446
N	-3.3526981862	-1.2003196635	-1.1697259172	-0.291417
C	-4.2232486324	-0.674527327	-0.1437805649	-0.305366
C	-1.3616331225	-2.0492482324	-2.1518435674	 0.350158
C	 0.0809710214	-1.8408496365	-2.5556135837	-0.492291
O	-2.0650163148	-2.8190512448	-2.7722564537	-0.308501
H	 1.5453392524	 0.8001365383	 0.5380485945	 0.109198
H	 0.5121835462	 1.041442566	-0.8843970986	 0.111625
H	-0.0866434718	 1.4831309238	 0.7178077404	 0.1283
H	 0.5595927392	-1.3891029323	-0.1632744324	 0.078466
H	 0.0125128199	-0.9117203486	 1.4299181089	 0.103711
H	-3.7132642593	-1.8680784033	-1.8330396215	 0.25822
H	-5.2550017088	-0.7165686546	-0.4996514462	 0.116447
H	-4.1403515701	-1.2341622569	 0.797991998	 0.12335
H	-3.9625962389	 0.3648706353	 0.0755515763	 0.139295
H	 0.7373908124	-2.4659762668	-1.9405054048	 0.161289
H	 0.189713666	-2.1554482188	-3.5952905408	 0.144192
H	 0.3990238518	-0.8037020612	-2.4338922968	 0.149881
