19
gdb 63009	2.46255	1.74594	1.52538	0.8941	73.26	-0.2508	0.0709	0.3216	974.6064	0.158974	-422.999825	-422.99189	-422.990946	-423.031593	32.246	
C	 0.0021325558	 1.5519997591	 0.0670299274	-0.436011
C	 0.0166651023	 0.0251660666	 0.0073322941	 0.329939
O	-1.3140931202	-0.5003759025	-0.0332144102	-0.469571
C	 0.704517516	-0.5591455156	-1.2358749393	-0.051028
C	 2.1727388008	-0.3479536426	-1.4897324846	-0.307611
C	 1.7070043563	-1.6140667722	-0.8107254909	-0.069986
C	 1.724832175	-1.5981436983	 0.7020097358	 0.034225
O	 2.1459076154	-0.3471877677	 1.2815151556	-0.262648
C	 0.744506982	-0.6244360495	 1.1961150125	-0.017176
H	 1.0188615894	 1.9490752064	 0.1154810815	 0.137358
H	-0.497321871	 1.9625196461	-0.8151828329	 0.123917
H	-0.5340076987	 1.90106585	 0.9587234411	 0.101479
H	-1.8209677834	-0.0716370696	 0.6648158979	 0.27741
H	 0.0475034875	-0.7147857517	-2.0834815909	 0.095924
H	 2.5003537499	-0.4298963357	-2.5205271025	 0.108668
H	 2.7235859342	 0.363687118	-0.8882225687	 0.135214
H	 1.7913659348	-2.5702369934	-1.3122632606	 0.086851
H	 2.0197868281	-2.4837197137	 1.2571826473	 0.097399
H	 0.2197772158	-0.7044895637	 2.1477910172	 0.085647
