19
gdb 28564	4.5182	0.97775	0.84704	2.7779	84.68	-0.1954	0.0372	0.2326	1387.1884	0.161022	-382.085225	-382.076499	-382.075555	-382.120371	32.194	
C	-0.1494537394	 1.4615036764	 0.1626610432	-0.505221
C	-0.0268377858	-0.0120911221	-0.0436653659	 0.298171
C	 0.1164127032	-0.7582849504	-1.1922274415	-0.216236
C	 0.1809716111	-2.1303877128	-0.8183432771	-0.228608
C	 0.0694305837	-2.196829471	 0.5532490549	 0.283773
N	-0.0512865109	-0.8998566194	 1.0077499185	-0.344322
C	 0.1027121637	-3.3489747701	 1.4805718854	-0.135734
C	-1.1512293245	-3.8339399786	 2.1300490526	-0.234745
N	-0.5022253652	-4.6296398184	 1.0770912925	-0.307394
H	 0.6586323922	 1.8617561062	 0.7880454725	 0.126138
H	-0.1052791279	 1.974892876	-0.8005002897	 0.138345
H	-1.0980631257	 1.7376807697	 0.640628989	 0.12474
H	 0.1707300308	-0.3573271716	-2.1932638661	 0.088879
H	 0.3168911743	-2.9754242271	-1.4765396942	 0.095042
H	-0.1734737152	-0.6464885599	 1.973526968	 0.25313
H	 1.029819661	-3.4863280271	 2.0373899081	 0.100932
H	-1.1122117186	-4.2711928686	 3.1239025257	 0.115972
H	-2.0740527232	-3.3120955801	 1.8921603395	 0.112994
H	-1.0027746437	-4.4875948613	 0.2025264948	 0.234143
