16
gdb 50403	2.68754	1.38543	1.18258	4.2086	72.93	-0.2267	-0.044	0.1827	1071.4824	0.125025	-437.927737	-437.919825	-437.91888	-437.960677	29.403	
O	-0.1759527431	 0.0021737453	-0.345797742	-0.244041
C	-0.0642883509	 1.1653959172	-0.0648477561	 0.169552
C	 1.2804493368	 1.8900326889	 0.0630226551	-0.119345
C	 1.355700577	 2.7615742689	 1.3268056125	-0.339146
C	 1.6382914387	 1.9630261021	 2.6096503462	 0.369199
O	 1.2658483098	 2.3802519444	 3.6912344265	-0.352091
C	 2.4248198501	 0.7575295939	 2.4135692711	-0.212844
C	 2.7573547045	 0.3334825352	 1.1702502977	 0.028186
N	 2.3932787763	 0.9592804172	 0.006180402	-0.271722
H	-0.9508312349	 1.8235887013	 0.0804525876	 0.093264
H	 1.3239904945	 2.5530810792	-0.8146972126	 0.119095
H	 2.1691376632	 3.4879101125	 1.2120458658	 0.139944
H	 0.4325648262	 3.3319041125	 1.4604325805	 0.130554
H	 2.7659397451	 0.2172544151	 3.2869728789	 0.103808
H	 3.3767999377	-0.5470197408	 1.0273583214	 0.128391
H	 2.3812816491	 0.3572281971	-0.8044749543	 0.257195
