16
gdb 95614	2.36419	1.68461	1.08547	4.4064	65.62	-0.245	-0.0686	0.1764	1074.4238	0.125109	-475.066285	-475.058055	-475.057111	-475.100018	30.357	
O	 0.373335166	 0.8305459852	 0.822432111	-0.435304
C	-0.0409504183	-0.2425753961	 0.0137018501	 0.047554
C	-1.5802860702	-0.2751419895	-0.1055053358	-0.226039
C	-2.061588372	 0.2294632606	-1.4680658523	-0.186648
N	-1.4140716926	-0.5409945916	-2.530587168	-0.315654
C	-0.0681467589	-0.7518761853	-2.5766587689	 0.331645
O	 0.5215003353	-1.3330345042	-3.4613352992	-0.343979
C	 0.6451052678	-0.1406646663	-1.3550551288	 0.262297
O	 1.7005003425	 0.4341657109	-1.4668247117	-0.303668
H	 1.2424074747	 1.094561395	 0.4836622396	 0.295861
H	 0.3006229707	-1.2052005732	 0.4383381606	 0.106413
H	-1.939396523	-1.2990693265	 0.032779759	 0.115911
H	-1.9904318464	 0.3386321609	 0.699996149	 0.134943
H	-3.1415637182	 0.099762837	-1.5677136325	 0.126019
H	-1.8526590417	 1.3026969405	-1.5759131067	 0.131939
H	-1.9361703354	-0.8204026875	-3.3486962253	 0.258711
