16
gdb 75405	2.56668	1.72227	1.13814	1.8739	74.	-0.2204	-0.0323	0.1881	1046.3131	0.12724	-434.10915	-434.101405	-434.100461	-434.141225	30.15	
N	 0.0231110059	 1.3533928368	 0.0231679771	-0.530134
C	-0.0690996986	-0.0173812971	 0.0341605114	 0.266308
N	-1.2017209957	-0.6039917523	 0.0748580077	-0.294456
C	-1.2556474264	-2.0622915775	 0.0837959939	-0.231623
C	-0.5898158072	-2.6815956968	 1.2874189055	-0.089233
C	 0.7186115028	-2.5518423755	 1.4938056138	 0.013838
N	 1.5689601053	-1.7978567488	 0.6698757621	-0.33306
C	 1.3320245399	-0.6283894426	-0.0068072437	 0.35123
O	 2.2389144121	-0.044447575	-0.5777585717	-0.378397
H	 0.8765200183	 1.713078657	-0.3782571011	 0.269783
H	-0.8305859997	 1.8362670297	-0.210970044	 0.255238
H	-2.3083514605	-2.3531034105	 0.051615482	 0.111248
H	-0.7903534115	-2.4708099306	-0.8292237471	 0.109815
H	-1.1808347712	-3.2373902095	 2.0058493355	 0.10511
H	 1.2281836669	-3.0261985209	 2.3258038546	 0.116319
H	 2.5518658699	-2.0375873063	 0.666197534	 0.258015
