16
gdb 33687	4.07695	1.47178	1.36335	2.0161	78.97	-0.2238	0.021	0.2448	963.0482	0.125248	-363.521446	-363.514808	-363.513864	-363.552213	27.574	
C	-0.028486802	-1.1812830948	-0.1491036748	-0.3411
C	 0.0028912891	 0.0156221955	-0.0285223427	 0.081725
C	 0.018414674	 1.4236623207	 0.1544005002	 0.24797
C	-1.1122373116	 2.2859642608	 0.7568672058	-0.17813
C	-0.4270480555	 3.6123760888	 1.0523941611	-0.083726
C	 1.073143181	 3.4305628484	 1.1560512463	-0.245114
C	 1.2199336243	 2.3152791831	 0.1467583805	-0.096719
N	 0.2356304679	 2.4298310651	-0.9658902445	-0.19316
C	-0.8641632645	 3.2699039296	-0.3481897785	-0.017147
H	-0.0531964351	-2.2360878843	-0.2675486813	 0.182652
H	-2.0275476862	 1.9288266975	 1.2047563717	 0.102989
H	-0.9649816551	 4.3677428123	 1.6110538598	 0.097595
H	 1.6255315299	 4.3287234634	 0.8601062154	 0.114367
H	 1.4050122677	 3.1245501136	 2.1535439687	 0.114859
H	 2.1849258319	 1.9167305988	-0.143965562	 0.109775
H	-1.5260915758	 3.8397705514	-0.9847027757	 0.103162
