19
gdb 65982	2.27747	1.56456	1.42554	2.5693	75.93	-0.2201	0.0292	0.2493	1047.459	0.158923	-419.19681	-419.18789	-419.186946	-419.230347	33.251	
C	 0.0536104236	 1.6094502405	-0.1640568515	-0.435426
C	-0.0220392969	 0.0996132355	 0.0254879225	 0.164427
C	 0.8545699557	-0.7441452532	-0.9604742957	-0.197894
N	 1.6957719456	-1.0960032298	 0.1874339549	-0.327302
C	 0.958467841	-0.4317737994	 1.1313631772	 0.388517
O	 1.0511385586	-0.3296659892	 2.3287612663	-0.378304
N	-1.4128512887	-0.317552784	 0.0687816732	-0.117488
C	-1.7680695436	-1.543476408	 0.7830811689	-0.241216
C	-2.1133582345	-0.2111225268	 1.3508728556	-0.226563
H	 1.0884469262	 1.9392726523	-0.2942785939	 0.120034
H	-0.5294449226	 1.9066396172	-1.040510191	 0.128128
H	-0.3563328348	 2.1192553825	 0.7127034537	 0.134866
H	 0.3239142821	-1.5908684826	-1.4048127693	 0.118889
H	 1.3689857697	-0.172623187	-1.7389764504	 0.11222
H	 2.523579464	-1.6679629906	 0.2662235951	 0.250475
H	-2.5279654759	-2.1521047763	 0.3016806134	 0.114877
H	-0.9855406457	-2.1041261066	 1.2891237108	 0.128796
H	-1.5401736492	 0.1082524947	 2.2170189539	 0.148486
H	-3.1309894445	 0.1646832408	 1.2936154663	 0.114478
