23
gdb 113998	4.26794	0.57616	0.54071	2.9084	88.29	-0.2463	-0.0185	0.2278	2085.2498	0.203575	-388.294582	-388.28392	-388.282976	-388.331961	37.672	
C	 0.5243526352	 1.5523936511	 0.2406809666	-0.372646
C	-0.1418233495	 0.2229681477	-0.1342623104	-0.196162
C	 0.5439923701	-0.455426318	-1.3041045352	 0.002993
C	 1.7416558216	-1.3547678209	-1.0956709517	-0.293453
C	 0.4378361764	-1.9352476207	-1.5952543881	-0.007729
C	-0.3686518795	-2.8943616333	-0.7430649769	-0.224011
C	 0.1116007998	-4.3513575502	-0.8986351347	-0.264348
C	-0.623278343	-5.2881454627	 0.0298383915	 0.156841
O	-1.2499422823	-6.2577122672	-0.3120514941	-0.237374
H	 1.5718227119	 1.4006599233	 0.5212184121	 0.118339
H	 0.5062382112	 2.2536330288	-0.6008797711	 0.114545
H	 0.0136573543	 2.0295186684	 1.0828830736	 0.110738
H	-0.1401769012	-0.438500521	 0.7394862226	 0.094052
H	-1.1971661956	 0.4001249679	-0.3805051786	 0.09803
H	 0.5890189257	 0.1727512732	-2.1918160164	 0.081143
H	 2.5853557891	-1.2855466434	-1.7735393476	 0.110175
H	 2.0189627587	-1.5731545542	-0.0675619232	 0.105163
H	 0.4186831872	-2.1888566609	-2.653134434	 0.083952
H	-0.3054586439	-2.6082926395	 0.3131848296	 0.101032
H	-1.4302095362	-2.8356702946	-1.0159480963	 0.112125
H	-0.0098885403	-4.7079876822	-1.9257096478	 0.119564
H	 1.1804390545	-4.3975685899	-0.6445521434	 0.120867
H	-0.5524567342	-5.0064849216	 1.1084163335	 0.066166
