18
gdb 86642	2.62719	1.37489	0.93543	2.3757	77.57	-0.2321	0.0072	0.2393	1242.0511	0.149181	-435.305116	-435.296491	-435.295547	-435.338816	31.639	
C	 0.2295445153	 1.5131768833	 0.2879148277	-0.406879
C	 0.2141144459	 0.0411944335	-0.0734084726	 0.109731
C	 1.3625687144	-0.4269660178	-0.9833347572	-0.191386
N	 1.6883432358	-1.7109472052	-0.390891102	-0.108134
C	 2.549833679	-2.6197927762	-0.9603116212	 0.081875
N	 3.0786759921	-2.3844235024	-2.0952963032	-0.475066
C	 1.1473062493	-1.8382396531	 0.8848368828	 0.479855
N	 1.3697334075	-2.8042319941	 1.6693783453	-0.591154
O	 0.3672306956	-0.7522593363	 1.1294860933	-0.267643
H	 1.1804964795	 1.7847130039	 0.755404736	 0.133661
H	 0.0971000363	 2.1211809423	-0.6126189067	 0.129493
H	-0.5806915751	 1.7479470658	 0.9828195314	 0.136918
H	-0.7522091311	-0.2316238753	-0.515837445	 0.100356
H	 1.0673894913	-0.5425789231	-2.0280181049	 0.143638
H	 2.224314024	 0.2518386859	-0.949271458	 0.12406
H	 2.6864635818	-3.4998543474	-0.3279869839	 0.142323
H	 3.6752627945	-3.1625277432	-2.3688538686	 0.228721
H	 0.8423649739	-2.6918919106	 2.5314181865	 0.229631
