20
gdb 126655	6.17791	0.6852	0.62918	1.3708	83.07	-0.189	0.0355	0.2245	1789.8326	0.172712	-399.350093	-399.340777	-399.339833	-399.385253	33.821	
C	 0.0676150633	 1.4993979771	 0.1626433641	-0.380601
C	-0.1002101529	-0.0012686153	-0.0844808473	-0.187602
C	 0.7780959013	-0.5130346075	-1.2256351243	-0.113521
N	 0.5643512755	-1.9361750488	-1.442573283	-0.38918
C	 1.2899135106	-2.5855067043	-2.4307859495	 0.416371
N	 1.5534327592	-3.8881553272	-2.3212456457	-0.335881
N	 2.2053732933	-4.1918157559	-3.4721782404	-0.182638
C	 2.3689278768	-3.1271704812	-4.2840832996	-0.018575
C	 1.7886234144	-2.0496758501	-3.6480929523	-0.287694
H	 1.1039498996	 1.7483442973	 0.4159232016	 0.117172
H	-0.204880707	 2.0805875786	-0.7252045028	 0.117051
H	-0.5664047526	 1.8371361187	 0.9876045552	 0.116007
H	 0.1471596574	-0.5536270283	 0.8325994141	 0.095135
H	-1.1461419656	-0.2355581437	-0.3138345015	 0.110456
H	 0.5151967226	 0.0205419028	-2.1476358804	 0.107812
H	 1.8360294819	-0.2743431888	-1.0162931799	 0.088542
H	 0.5461568067	-2.4773659555	-0.5877931004	 0.233198
H	 2.5112568444	-5.1369530295	-3.6191370363	 0.27112
H	 2.8734609907	-3.2078134544	-5.2342976795	 0.126243
H	 1.7303068303	-1.0370112639	-4.0093116421	 0.096586
