14
gdb 44170	5.58232	1.0537	0.96242	4.3481	69.24	-0.2593	-0.019	0.2403	1156.3429	0.101767	-432.83043	-432.823011	-432.822067	-432.862687	27.504	
N	 0.1527285407	 1.072709462	 0.640416287	-0.535138
C	 0.0822872077	-0.0488344505	 0.0732014591	 0.390623
N	 0.9813583332	-1.0071097273	-0.4289652104	-0.333971
C	-0.043006926	-1.9721693082	-0.790127553	-0.051604
C	-0.601883034	-2.8313254257	 0.3894294488	-0.046227
O	-1.5243484228	-1.7880277944	 0.7627279908	-0.278977
C	-1.1036077077	-0.9326299058	-0.3294383797	 0.023527
C	-1.2910045324	-4.0569303662	-0.0169140531	 0.288804
N	-1.8099405269	-5.0266637822	-0.3712091362	-0.307901
H	 1.1156826957	 1.3555096763	 0.8302762025	 0.219575
H	 1.9244787536	-1.1983242041	-0.1185919232	 0.249046
H	 0.0362506143	-2.4344078896	-1.7720689985	 0.125987
H	 0.1182904056	-3.0586486539	 1.1835568291	 0.132699
H	-1.932857751	-0.5284806402	-0.9066619731	 0.123557
