19
gdb 86205	1.97267	1.92425	1.38057	1.647	65.78	-0.2714	0.056	0.3274	1007.0849	0.161691	-497.312145	-497.30439	-497.303446	-497.344087	31.922	
O	 0.0560816713	 0.9651954907	 1.2465836033	-0.448621
C	 0.1260759939	 0.0443955253	 0.1565828046	 0.081404
C	 0.9432426076	-1.1724350066	 0.5960554894	-0.263243
C	-0.0097253249	-1.9203574042	 1.5368586378	 0.087177
O	-0.0904931065	-1.3054892911	 2.8213694549	-0.454753
C	-1.3932934498	-1.8103532477	 0.8245819429	 0.070873
O	-2.4448918397	-1.6734299778	 1.7597577576	-0.443389
C	-1.292921548	-0.5373262392	-0.0991510672	 0.083616
O	-2.2853078846	 0.4127418181	 0.2273959088	-0.449307
H	-0.8347985549	 1.3497833929	 1.1674091315	 0.29164
H	 0.5377313172	 0.5457492901	-0.7280518258	 0.073901
H	 1.1791884878	-1.7951533036	-0.2749393971	 0.109658
H	 1.8825936924	-0.8979203368	 1.0823327789	 0.124472
H	 0.276321777	-2.9603849405	 1.7111254969	 0.08716
H	 0.0034866452	-0.3497262284	 2.6580249447	 0.294826
H	-1.5885476781	-2.6993293955	 0.2171136045	 0.086253
H	-1.9879754814	-1.4713350426	 2.5977595206	 0.294325
H	-1.3911673005	-0.8243449389	-1.1531114414	 0.077821
H	-2.815068764	-0.0289387443	 0.9173773252	 0.296185
