15
gdb 125157	3.42069	1.10482	0.83945	6.4625	79.64	-0.2162	-0.0386	0.1775	1304.2431	0.111362	-450.125881	-450.11672	-450.115776	-450.160787	31.277	
C	-0.0157794513	 1.4916277974	 0.0890497279	-0.498173
C	 0.0136089746	 0.0065692112	-0.0106727939	 0.152122
C	 0.0120177936	-0.7981960033	-1.1233444331	 0.418862
O	 0.0452432923	-2.07802334	-0.7167955332	-0.240817
N	 0.0692096215	-2.0421462421	 0.7296108671	-0.042809
N	 0.0489879925	-0.8331158695	 1.0739091515	-0.166782
N	-0.0172328165	-0.4440182569	-2.4407222897	-0.365211
C	-0.0130419708	-1.3663984041	-3.3405934674	 0.1282
N	-0.0411760493	-1.0668045687	-4.6535247412	-0.494058
H	 0.8675932258	 1.876435667	 0.609597814	 0.137627
H	-0.0413724684	 1.9235862446	-0.9137882872	 0.140743
H	-0.8967839341	 1.839561261	 0.6387478702	 0.137633
H	 0.0128988793	-2.4355552632	-3.116618171	 0.141408
H	-0.0375084406	-1.7853811764	-5.3534355594	 0.276236
H	-0.0657682487	-0.101798397	-4.9404939444	 0.275018
