19
gdb 83206	2.53436	1.54174	1.26756	4.3607	78.48	-0.2423	0.0272	0.2695	1067.0142	0.161099	-382.067792	-382.059501	-382.058557	-382.100675	31.468	
C	 0.1783103426	 1.6594975518	-0.172442028	-0.436562
C	 0.0540430439	 0.150845533	-0.1294892728	 0.016226
C	 0.5669040233	-0.792145664	-1.1608221319	-0.044153
C	 1.6210307402	-0.3296061022	-2.1593762697	-0.237375
C	 2.7924878735	 0.2147333438	-1.3085449555	-0.257001
C	 2.5251624846	-0.3639850546	 0.116614828	-0.099753
C	 2.8863367609	 0.5611901364	 1.1949968992	 0.29135
N	 3.1871278914	 1.2961004801	 2.0346040814	-0.333473
N	 1.1237870828	-0.8186211145	 0.2116783665	-0.122779
H	 0.9438287057	 2.0271999035	-0.8566367829	 0.123635
H	-0.7788140506	 2.0775254421	-0.5018109331	 0.126168
H	 0.3912523688	 2.063672205	 0.8214412734	 0.154907
H	-0.8675087904	-0.1609116889	 0.3597169603	 0.10218
H	-0.0355855864	-1.6516999005	-1.4432515674	 0.095192
H	 1.9415048316	-1.1853140016	-2.7609758274	 0.115869
H	 1.2399646084	 0.4249042196	-2.8545932609	 0.117329
H	 3.7652314167	-0.1120518281	-1.6826825439	 0.12051
H	 2.8096292779	 1.3045426929	-1.2863464438	 0.133328
H	 3.1343325551	-1.2648667037	 0.2566254383	 0.1344
