19
gdb 95594	2.24693	1.69865	1.01334	5.6123	78.62	-0.2325	-0.0441	0.1884	1175.0013	0.16058	-419.241122	-419.232393	-419.231448	-419.27484	32.82	
C	-0.1301664962	 1.5319141616	 0.0276719226	-0.404481
C	 0.0392232607	 0.0145424594	-0.015510735	-0.090866
C	 0.8393506913	-0.4842748277	-1.2301512965	-0.207042
C	 0.8613365434	-2.0074191593	-1.2629629182	-0.172296
N	 1.3675404675	-2.5384948207	-0.0035911892	-0.339298
C	 1.1303654786	-1.991837752	 1.2435573137	 0.264926
N	 1.2955254555	-2.5668561036	 2.372631179	-0.490806
C	 0.6777533965	-0.5245230019	 1.2628810803	 0.367178
O	 0.8197257448	 0.1467477028	 2.2520559986	-0.280408
H	 0.8437023306	 2.030890015	 0.0535719705	 0.126169
H	-0.6731407162	 1.8825743396	-0.8551872037	 0.107872
H	-0.675579563	 1.8373208606	 0.9224695706	 0.139531
H	-0.9559986764	-0.4590061573	-0.0674076088	 0.101763
H	 0.3923207973	-0.1062688392	-2.1551451518	 0.109585
H	 1.865022057	-0.0979814182	-1.1823238904	 0.116977
H	-0.1548759035	-2.3797570176	-1.4751397767	 0.104642
H	 1.5087598626	-2.3659131473	-2.0701518301	 0.113368
H	 1.569404668	-3.5284213401	 0.0038800209	 0.233832
H	 1.5915687913	-3.5397418242	 2.2538090842	 0.199355
