20
gdb 112089	2.88416	1.44119	1.17919	1.3795	79.51	-0.2262	0.0177	0.2439	1111.008	0.172478	-403.122402	-403.114151	-403.113206	-403.155258	32.215	
O	-0.0354295578	 1.5575803042	 0.0874448696	-0.419098
C	 0.0289618877	 0.1458101148	-0.0330324352	-0.079111
C	-1.3398823627	-0.5447155451	 0.0292943936	-0.020072
C	-2.0755933565	-0.2664066923	 1.3185250927	-0.030705
C	-3.4042696244	-0.287754208	 1.3949712775	-0.102251
C	-4.2643918439	-0.5764040111	 0.194951638	-0.275374
C	-3.5631263579	-0.2528927442	-1.1173165453	-0.012498
C	-2.8324348511	 1.0336223068	-1.2640881631	-0.272685
N	-2.1012429398	-0.2422360883	-1.1982552838	-0.115766
H	-0.4159000486	 1.8983196025	-0.7272387893	 0.293644
H	 0.5321568438	-0.1552997542	-0.9623394459	 0.097643
H	 0.6394856319	-0.2015195819	 0.8079053488	 0.105334
H	-1.1283900705	-1.6252028408	-0.0237493787	 0.091638
H	-1.4742729722	-0.0529619561	 2.1982936282	 0.093332
H	-3.9049215498	-0.099088513	 2.3406482671	 0.091122
H	-4.5519048928	-1.6382789371	 0.1921325519	 0.116987
H	-5.2077859477	-0.0182338932	 0.253291576	 0.111535
H	-4.0424876259	-0.6732598289	-1.9997530742	 0.087695
H	-2.793076747	 1.5371497609	-2.2269615531	 0.109085
H	-2.8111645846	 1.6860314451	-0.3955441847	 0.129544
