16
gdb 12680	2.68247	2.28275	1.52506	0.9093	60.18	-0.2591	-0.0392	0.2199	851.8234	0.129545	-420.894152	-420.886412	-420.885467	-420.926075	28.744	
C	 0.5456159052	 1.3611163491	-0.2395406425	-0.396729
C	-0.1325620579	 0.0605017409	 0.1741573558	 0.070116
O	-0.0902561521	-0.947693435	-0.8597564718	-0.269524
C	 1.1401434509	-1.6490945468	-0.7874232493	-0.179758
C	 1.6463298835	-1.4236394697	 0.6285404234	 0.332259
O	 2.721145701	-1.6904301184	 1.1027084094	-0.319831
C	 0.55672194	-0.6447726739	 1.3586050435	 0.040964
O	 1.075743089	 0.1787224948	 2.361298353	-0.43459
H	 1.6125289047	 1.2165825982	-0.4412058542	 0.118503
H	 0.0738880422	 1.755776132	-1.1429705348	 0.126067
H	 0.459359051	 2.0986829747	 0.5621088501	 0.140383
H	-1.1940811853	 0.2346090145	 0.3650065099	 0.097271
H	 0.9709550219	-2.7110249565	-0.998560615	 0.141792
H	 1.8855859494	-1.2763775232	-1.505624333	 0.132242
H	-0.1513374815	-1.386648019	 1.7692661295	 0.105274
H	 1.9567743379	-0.1706040017	 2.5645400159	 0.295561
