19
gdb 60080	2.43839	1.21045	0.90776	5.7614	76.64	-0.268	0.0298	0.2978	1321.0265	0.157689	-419.189846	-419.179997	-419.179053	-419.225185	35.679	
C	-0.0105712222	 1.595394557	 0.1573756618	-0.400652
C	-0.0557995413	 0.0673628784	 0.0927377157	 0.130468
O	 0.2847426572	-0.4067583811	-1.2013507377	-0.415623
C	 0.9470283902	-0.5733498169	 1.0585647061	-0.281532
C	 0.7976583217	-2.0815339132	 1.205465811	 0.154451
C	 0.9691751128	-2.6975809056	 2.5589990376	-0.267906
N	-0.3616696415	-2.6251355496	 1.9516789179	-0.324132
C	 1.1922836592	-2.8934297406	 0.0683570198	 0.301212
N	 1.5538414102	-3.5734911487	-0.7931184667	-0.348371
H	 0.9932060691	 1.9574369721	-0.0857629785	 0.130382
H	-0.7112467109	 2.0293008338	-0.5637835417	 0.11282
H	-0.2858866606	 1.9619084891	 1.1521164013	 0.112783
H	-1.0692569192	-0.2711498433	 0.3668470367	 0.070902
H	-0.4255945994	-0.1866078501	-1.8113779936	 0.288971
H	 1.9593747894	-0.3343163674	 0.7132910003	 0.13076
H	 0.8253408222	-0.1228307535	 2.0500357401	 0.099408
H	 1.3789611361	-3.6990548009	 2.6412452914	 0.145769
H	 1.2217247576	-2.0257398606	 3.3752268691	 0.123122
H	-0.8899062306	-1.849462899	 2.3461765696	 0.23717
