21
gdb 92631	3.26727	1.23435	1.06448	1.0695	77.01	-0.2393	0.0694	0.3088	1190.908	0.185414	-424.245986	-424.23803	-424.237086	-424.278566	31.633	
O	-0.0254730216	 1.4449391792	 0.040361226	-0.435643
C	 0.0149370329	 0.0344724221	-0.0907996939	 0.133218
C	-1.405867824	-0.5340538018	-0.0413968192	-0.231245
C	-1.2707622362	-1.9580269143	-0.6145805455	-0.033308
C	-2.4122701882	-2.4193458756	-1.5401681899	-0.235135
C	-1.9048202983	-1.9874758772	-2.9207943821	-0.085005
O	-0.5022653309	-2.2146678255	-2.8859924318	-0.261665
C	-0.0316312131	-1.904880951	-1.5758188407	 0.119282
C	 0.5422406712	-0.476852339	-1.4421789078	-0.271704
H	 0.8781852968	 1.7741593743	 0.0127143647	 0.281646
H	 0.6098293503	-0.407030042	 0.7270004261	 0.062537
H	-1.8411173846	-0.5093687234	 0.9607330336	 0.099986
H	-2.0346461021	 0.0910446088	-0.6882174978	 0.105559
H	-1.1029207166	-2.6744053317	 0.1934135887	 0.072669
H	-2.5176055112	-3.5080789108	-1.5089845639	 0.104118
H	-3.3777415012	-1.9757237589	-1.2815335781	 0.100922
H	-2.3177927352	-2.5681294922	-3.750034435	 0.107346
H	-2.1293197153	-0.9236587464	-3.105623597	 0.088422
H	 0.7210347872	-2.6605360185	-1.3312073687	 0.076031
H	 0.124254447	 0.1544769458	-2.2344958912	 0.113385
H	 1.6324807029	-0.4443630921	-1.5289433466	 0.088582
