19
gdb 81138	2.47734	1.62612	1.21148	1.3562	81.56	-0.2405	0.0395	0.28	1079.9413	0.159132	-385.836316	-385.828116	-385.827171	-385.868666	32.604	
C	-0.1779299571	 1.5417628809	-0.0120683189	-0.437946
C	 0.0106239352	 0.0333910992	-0.0176652125	-0.003071
C	 1.1663592769	-0.5984165218	-0.8414011262	 0.067608
C	 2.1338009156	-0.2377642246	 0.3070790319	-0.28611
C	 0.8631650553	-0.6037315782	 1.1585171205	 0.20121
C	 0.7307619777	-2.0916121779	 0.7671288332	-0.124036
O	 0.9545990016	-2.0081016825	-0.6564474985	-0.281462
C	 0.6933406592	-0.238693081	 2.5371589663	 0.065532
C	 0.5386769548	 0.0768324752	 3.687981104	-0.357838
H	 0.7584678521	 2.0960807869	 0.0887296584	 0.121181
H	-0.6570107084	 1.8666956897	-0.941701763	 0.121034
H	-0.8261056131	 1.8388173817	 0.8188232604	 0.132062
H	-0.9510958017	-0.464000247	-0.1802134978	 0.080413
H	 1.3543708249	-0.3864167623	-1.8925786	 0.081587
H	 3.0164497037	-0.8690703086	 0.4279423973	 0.107646
H	 2.3993889686	 0.8153972038	 0.3715708944	 0.114925
H	 1.4891565065	-2.7261218929	 1.2387825851	 0.10782
H	-0.2642885452	-2.4983738976	 0.9774591366	 0.1084
H	 0.4070881133	 0.353361967	 4.7046756887	 0.181048
