21
gdb 81442	3.45109	1.32304	1.24158	1.576	82.78	-0.2187	0.0911	0.3098	1126.7503	0.183282	-387.054033	-387.04617	-387.045226	-387.085915	32.321	
C	-0.1796402624	 1.5264709624	-0.0064544356	-0.441563
C	 0.011839735	 0.0166623556	 0.0267177892	 0.040668
C	 1.1430809506	-0.6262048148	-0.8304990458	 0.090173
C	 2.1452164687	-0.2376106537	 0.2836775505	-0.253112
C	 0.905794998	-0.5976200959	 1.1669497345	-0.150582
C	 0.7722222417	-2.0673771686	 0.8143084382	 0.507096
C	 1.3183363254	-3.2233939496	 1.5849233616	-0.358652
C	-0.1876971922	-3.0442847885	 1.4077769143	-0.355444
O	 0.9435670289	-2.0361338281	-0.6095660191	-0.32164
H	 0.7497449528	 2.0859657855	 0.1293039963	 0.117968
H	-0.6150354889	 1.8373736386	-0.9626991828	 0.119152
H	-0.8700437173	 1.8409158319	 0.783871776	 0.11905
H	-0.9529033208	-0.4838405148	-0.1049435494	 0.077038
H	 1.2935137835	-0.4397736232	-1.8933078135	 0.075446
H	 3.0370866428	-0.860188868	 0.3799979741	 0.103132
H	 2.4075948316	 0.8189588522	 0.303713919	 0.100938
H	 0.8138261678	-0.3174963184	 2.216132784	 0.067776
H	 1.7931511327	-4.0155672184	 1.0164807341	 0.12184
H	 1.7502003765	-3.0427519517	 2.5643308085	 0.109498
H	-0.7789317083	-2.7436741914	 2.2671892951	 0.109336
H	-0.689443206	-3.7203938612	 0.7243092609	 0.121882
