22
gdb 88610	3.53653	1.12361	1.02669	1.1816	87.93	-0.2228	0.0938	0.3165	1281.0668	0.195267	-367.12941	-367.121165	-367.120221	-367.162535	32.632	
C	-0.0824109021	 1.5545469709	-0.3475364383	-0.414707
C	-0.0179658571	 0.0664424438	-0.0745703397	 0.028221
C	 1.2664601371	-0.6848229499	-0.1572919277	-0.261255
N	 0.5937616534	-0.5121258	 1.1269557418	-0.101417
C	 1.2226160581	 0.344843117	 2.1042963444	 0.10908
C	 0.3957019264	 0.7541909726	 3.3613785492	-0.07153
C	 0.5100501643	-0.7219683531	 3.8478371481	-0.21377
C	 1.9241891671	-0.3438565022	 3.3165693271	-0.067571
C	 1.7611254058	 1.0123266828	 4.0603900386	-0.223083
H	 0.8655778813	 2.0598204413	-0.1505424905	 0.122468
H	-0.3350571939	 1.7245118846	-1.39956241	 0.121514
H	-0.8569372571	 2.0357026631	 0.2599080593	 0.124309
H	-0.9241704795	-0.4644890512	-0.3649690998	 0.088327
H	 1.3069485269	-1.6992531122	-0.5463489003	 0.110837
H	 2.1659954676	-0.0954432728	-0.3386242193	 0.102973
H	 1.8107843827	 1.1628538368	 1.6614165108	 0.047496
H	-0.4880891761	 1.3942874326	 3.383356267	 0.064089
H	 0.4278066481	-0.8794417854	 4.9267029984	 0.08107
H	-0.0398561722	-1.4671194895	 3.275601948	 0.11172
H	 2.8129845605	-0.9760649052	 3.2824900241	 0.065825
H	 2.3555994746	 1.8558063119	 3.6956584848	 0.08393
H	 1.759672014	 0.965934554	 5.1517116041	 0.091474
