23
gdb 122380	4.1439	0.75212	0.73658	0.7469	87.07	-0.2463	0.0861	0.3325	1693.8149	0.205579	-388.252082	-388.242527	-388.241583	-388.28762	35.287	
C	 0.3918769918	 1.3608140348	 0.0872218751	-0.383833
C	-0.038280364	-0.0841353855	-0.1035405854	-0.02183
O	 0.7118348598	-0.6422395111	-1.1606318974	-0.244642
C	 0.390710577	-1.9960364733	-1.4174700463	-0.0851
C	 1.1954257777	-2.4605479695	-2.6031314904	-0.01461
C	 2.6471214719	-2.854275461	-2.5637757014	-0.046799
C	 2.9994714702	-3.6146627717	-1.2788883842	-0.231417
C	 1.9096329017	-4.6800369068	-1.6285370206	-0.228038
C	 1.5635563583	-3.8904035766	-2.8997635572	-0.083692
H	 1.457000086	 1.4147117561	 0.3298625259	 0.125616
H	 0.2208765443	 1.9350755161	-0.8278096426	 0.125191
H	-0.1744490436	 1.8249089656	 0.9003427306	 0.111833
H	 0.1210976929	-0.6600292655	 0.8249270124	 0.080855
H	-1.1175899795	-0.1394662243	-0.3296652941	 0.08146
H	 0.5915947879	-2.6084344346	-0.5250896062	 0.085227
H	-0.6874124969	-2.0963620274	-1.6338769409	 0.080803
H	 0.953073796	-1.9034727828	-3.5058602179	 0.089115
H	 3.3673608732	-2.3845429991	-3.2229408864	 0.081206
H	 4.0061315698	-4.0371776401	-1.3005370804	 0.101433
H	 2.8796541973	-3.061655503	-0.3419155008	 0.100568
H	 2.3537192319	-5.6513870483	-1.8574327056	 0.101748
H	 1.1029249246	-4.8373737973	-0.9052845203	 0.094387
H	 1.3218774516	-4.3396665249	-3.8561738859	 0.08052
