16
gdb 16232	2.97904	2.27934	1.50197	2.7368	65.3	-0.2452	0.0045	0.2498	844.4634	0.130584	-383.722744	-383.715577	-383.714632	-383.754567	27.433	
O	 0.0630586406	 1.5133890295	 0.1337828237	-0.422468
C	-0.0180565189	 0.099056544	-0.0165499439	 0.012234
C	 0.747873625	-0.6677057387	 1.031982653	-0.113463
C	-0.0084782155	-1.5605889669	 1.6710568856	-0.070826
C	-1.4267276052	-1.5991442066	 1.1607386152	-0.351398
C	-1.4422381161	-0.4848380811	 0.1095874599	 0.392886
C	-2.6281668224	 0.311980122	-0.2242534458	-0.242392
O	-2.1625538349	-0.7170378332	-1.1023045671	-0.273889
H	-0.163354969	 1.7177541319	 1.0483502563	 0.274974
H	 0.3559849239	-0.0866183782	-1.0299489855	 0.110075
H	 1.7982609038	-0.4746335161	 1.2177618018	 0.103357
H	 0.3366407163	-2.2157100888	 2.4638609448	 0.103049
H	-1.669218811	-2.5588232804	 0.6877057607	 0.131634
H	-2.1644885244	-1.4493082471	 1.9588868674	 0.111602
H	-3.5725973513	 0.1045923103	 0.2789629708	 0.107975
H	-2.4970298108	 1.3299709196	-0.5850924269	 0.12665
