21
gdb 38885	3.46963	1.41608	1.12574	0.3458	89.02	-0.2218	0.0237	0.2455	1136.8964	0.185672	-349.94389	-349.936523	-349.935579	-349.975478	30.621	
C	-0.0068307498	 1.581949655	-0.0088066822	-0.286973
C	 1.2790338124	 0.7872370032	-0.0420064692	-0.025697
C	 2.2135698487	 0.7652050499	 1.176418125	-0.257488
C	 2.0917492388	-0.5753728621	 1.910397912	-0.045376
C	 2.2562362554	-0.6903227897	 3.4626662933	-0.243682
C	 0.8941023121	-1.4621736516	 3.5242824496	-0.326104
C	 0.6457334395	-0.9836442822	 2.1088379243	 0.376656
C	-0.3675467191	-0.6380472375	 1.3240598395	-0.283952
C	-0.0545596455	 0.0679470313	 0.0489069848	-0.042444
H	-0.2299805072	 2.1240259868	 0.9051208476	 0.107659
H	-0.3413079349	 2.0745363281	-0.9162512129	 0.104205
H	 1.7772298746	 0.7323409745	-1.0047785972	 0.079976
H	 3.243817986	 0.9676066598	 0.863795251	 0.093111
H	 1.9355645657	 1.5660882243	 1.8715745998	 0.094737
H	 2.6750584666	-1.3517279086	 1.3989386054	 0.074167
H	 3.1394133872	-1.2141842306	 3.8348841417	 0.096437
H	 2.1927421705	 0.2868896776	 3.949444065	 0.102723
H	 1.040876263	-2.5464813373	 3.5890185985	 0.109319
H	 0.1748239284	-1.1687384644	 4.2941207449	 0.107159
H	-1.4064519019	-0.820949372	 1.5902858828	 0.079824
H	-0.4036460806	-0.4194450545	-0.8587834536	 0.085744
