17
gdb 61082	3.81388	0.76388	0.71722	2.2133	75.78	-0.2455	-0.0716	0.1739	1563.1091	0.132535	-455.168244	-455.158115	-455.157171	-455.204517	35.032	
C	-0.1259841228	 1.554447172	-0.1190221018	-0.394846
C	 0.0767660794	 0.0225738542	-0.1506401792	-0.064331
C	 1.0490821449	-0.3518048574	 0.9647876455	 0.167539
O	 2.2424629238	-0.4029653765	 0.8287086742	-0.252245
N	-1.1720769838	-0.6687306707	 0.0910883223	-0.284414
C	-1.9339093425	-0.9729620742	-0.8935459093	 0.27377
N	-1.8025694203	-0.722611226	-2.2276440575	-0.554032
C	-3.1948693474	-1.7089669568	-0.5393067247	 0.143346
O	-3.9742569405	-2.1117676163	-1.3681295765	-0.26476
H	 0.8303353711	 2.0646029899	-0.2617185926	 0.138476
H	-0.8148893074	 1.8595934327	-0.9111994505	 0.131476
H	-0.5539236091	 1.8599798437	 0.840113104	 0.136668
H	 0.5658669246	-0.2531529156	-1.0986616139	 0.078387
H	 0.5480029203	-0.553503057	 1.9373350211	 0.090572
H	-0.9167656977	-0.4529577995	-2.6186769535	 0.267009
H	-2.4502040872	-1.2139226716	-2.8263144537	 0.274911
H	-3.3246751355	-1.852317071	 0.5489625761	 0.112474
