16
gdb 49003	2.51264	1.5449	1.1317	2.9579	70.03	-0.246	-0.0462	0.1998	1066.0275	0.123254	-437.868973	-437.861024	-437.86008	-437.90193	29.511	
O	-0.7416848539	 1.3537336636	 0.7827333364	-0.256538
C	 0.1227245122	 1.0106937498	 0.0149468213	 0.106838
C	 1.4416322034	 1.7162339219	-0.14374028	 0.232149
C	 1.8682527469	 2.6715331089	 1.0077962658	-0.417727
C	 2.0628648054	 3.7940826846	-0.0233076704	 0.421247
O	 2.418186405	 4.9333885349	 0.0437491656	-0.292606
C	 1.6268103986	 2.9025480084	-1.1915154132	-0.219514
C	 2.8181698938	 2.0707342387	-1.7539966598	-0.176466
N	 2.4761406101	 0.9457720114	-0.8513966517	-0.366338
H	 0.0005762905	 0.1425247652	-0.6684753242	 0.089953
H	 1.0208372655	 2.8837274105	 1.6693809522	 0.166972
H	 2.7346596624	 2.3878633903	 1.6114762195	 0.127652
H	 0.8639517168	 3.2558505756	-1.8834943934	 0.11356
H	 2.72205995	 1.8052202084	-2.8111963769	 0.125439
H	 3.8007492382	 2.5324226025	-1.6018298973	 0.119656
H	 3.2313315152	 0.5922161855	-0.2740607239	 0.225723
