17
gdb 87329	1.80761	1.5891	1.05718	5.0819	74.86	-0.2674	0.0015	0.269	1187.6298	0.134933	-418.032908	-418.023612	-418.022668	-418.067511	33.205	
C	 0.1994443952	 1.4724285291	-0.0010806701	-0.42032
C	 0.1594396805	-0.037476803	 0.0173395576	-0.042233
C	 1.4078524146	-0.8568423343	 0.0826076357	-0.291945
C	 0.4999683231	-0.8140176007	 1.3007484746	 0.176416
N	 0.9457302983	-0.0884625749	 2.4523271406	-0.350767
C	 2.144281678	-0.311583391	 3.0844249556	 0.149974
O	 3.0161387595	-1.0501707997	 2.6956247394	-0.299436
C	-0.3072785993	-1.9787773665	 1.5915203322	 0.264139
N	-0.9782374992	-2.8906323542	 1.8297319243	-0.342619
H	 1.0174327089	 1.8586071342	 0.6119494009	 0.129012
H	 0.350015558	 1.8294946605	-1.0248306065	 0.136946
H	-0.7385362605	 1.9024262314	 0.3661273494	 0.126665
H	-0.6624976279	-0.4787160673	-0.5385810702	 0.119076
H	 1.4590706659	-1.7954803159	-0.4549765927	 0.146865
H	 2.3569118665	-0.3504900741	 0.2051174018	 0.153384
H	 0.2645573792	 0.4734096077	 2.9416470079	 0.257827
H	 2.227463819	 0.3041031187	 4.0020102096	 0.087016
