16
gdb 18304	3.63375	2.17312	1.55573	3.5958	70.35	-0.2321	-0.0434	0.1888	819.8384	0.132655	-346.629133	-346.622664	-346.62172	-346.66006	24.982	
O	-0.0456455482	 0.0522329405	 0.3688816493	-0.339735
C	-0.0606077746	 1.2213477192	 0.0571506144	 0.376891
C	-1.2571426315	 2.0647201957	-0.2011627138	-0.180751
C	-0.896540129	 3.3143360315	-0.5240798598	-0.061001
C	 0.5923889328	 3.5125063255	-0.5417392112	-0.068411
C	 1.1998035667	 4.1752215797	 0.7435743675	-0.226731
C	 1.6723658195	 2.7772884217	 1.2279241047	-0.223314
C	 1.1550756726	 2.1342462552	-0.105168651	-0.129677
H	-2.2651671042	 1.6794703017	-0.1119764687	 0.114299
H	-1.5853741584	 4.1287737133	-0.728407491	 0.113612
H	 0.9435552267	 3.9389092163	-1.4852078724	 0.085334
H	 2.0200184025	 4.8610236206	 0.5209244223	 0.108573
H	 0.4830042136	 4.6909884562	 1.386590441	 0.105195
H	 2.7499635168	 2.6859117672	 1.3730967024	 0.114584
H	 1.1749239601	 2.4003721327	 2.1241520063	 0.117234
H	 1.9267648648	 1.670260863	-0.7196216698	 0.093897
