16
gdb 4852	4.32855	1.57217	1.17025	1.2523	69.17	-0.1846	0.0394	0.224	1013.8548	0.129653	-383.766607	-383.758446	-383.757502	-383.800986	28.692	
C	-0.1894236584	 1.4249598023	 0.0809001134	-0.243756
O	-0.0453514933	 0.0096781095	 0.0017457526	-0.269155
C	-1.1664495527	-0.7207558592	-0.0080080074	 0.437624
C	-1.3371178405	-2.0678249613	-0.054122079	-0.311564
C	-2.7618396931	-2.263104762	-0.0445293156	-0.251301
C	-3.3452469845	-1.0397407661	 0.0065524911	 0.342353
C	-4.7471117305	-0.5532107207	 0.0418681465	-0.487874
O	-2.355278549	-0.0715196401	 0.0293788815	-0.22421
H	 0.8249446802	 1.8250749718	 0.0812487334	 0.136233
H	-0.7428918913	 1.8171762695	-0.7786861947	 0.132734
H	-0.7057688006	 1.7214080256	 1.0000068343	 0.132247
H	-0.5583059908	-2.8104445112	-0.0896360888	 0.106919
H	-3.2833180369	-3.20781442	-0.0721360613	 0.103724
H	-4.9587743814	 0.0256943757	 0.9492069189	 0.130823
H	-4.9813413427	 0.0889834919	-0.8159756578	 0.13089
H	-5.4282590047	-1.4072405757	 0.0199854029	 0.134314
