21
gdb 71486	2.0813	1.99846	1.70891	0.2579	86.78	-0.2154	0.0099	0.2252	985.9572	0.182525	-349.914062	-349.906024	-349.90508	-349.945785	33.151	
C	 0.0143330604	 1.5020388099	-0.0383987406	-0.524426
C	 0.0301664297	-0.0018849442	-0.0367894864	 0.319143
C	 0.6091629593	-0.9589282236	-1.1097261025	-0.308297
C	 0.0412858943	-1.8942408151	-0.0192976464	-0.078565
C	 0.6229958664	-0.9456258305	 1.0861941948	-0.098047
C	-0.3613067303	-0.9412417237	 2.239830014	-0.118814
C	-1.5510438712	-0.9560473027	 1.6369993424	-0.165784
C	-1.2292712993	-0.968949102	 0.1451552509	 0.298515
C	-2.3799104113	-0.9862490654	-0.8384070905	-0.517786
H	 1.0298141206	 1.9081906752	-0.103787414	 0.117555
H	-0.5546729134	 1.8905135727	-0.8906148389	 0.11738
H	-0.4465909776	 1.8821413111	 0.8801811133	 0.122316
H	 0.1257060844	-0.9694442026	-2.0899186148	 0.087454
H	 1.6977080581	-0.9521490694	-1.2233123616	 0.08397
H	 0.0478429852	-2.9879081537	 0.0028430735	 0.06109
H	 1.6980677334	-0.9379366656	 1.273253148	 0.056816
H	-0.1207525726	-0.9239855021	 3.293602419	 0.099574
H	-2.5439512367	-0.9534663655	 2.0667580014	 0.094507
H	-3.0191886674	-0.1057330206	-0.7068650486	 0.117639
H	-2.0418023021	-0.9966831593	-1.8786096645	 0.117168
H	-3.0081417798	-1.8714083628	-0.6869122485	 0.118591
