21
gdb 101879	3.33817	0.6765	0.5824	4.8279	81.36	-0.2426	0.0276	0.2702	1896.3259	0.180695	-420.400447	-420.389568	-420.388624	-420.437576	37.516	
C	-0.0228913304	 1.3755513799	 0.0264631564	-0.238749
O	-0.132375426	-0.02123913	-0.1391252991	-0.254412
C	 0.6616377984	-0.5677935751	-1.1890072781	 0.121126
C	 2.1332855145	-0.6939050163	-0.7937417763	-0.404803
C	 0.0402691721	-1.9244439662	-1.5121028097	-0.134811
N	-1.3434118253	-1.7483128292	-1.9347385987	-0.304284
C	-2.0444105518	-3.0114596365	-2.1071307154	-0.259905
C	-3.4437988704	-2.7933889304	-2.4863694431	 0.257816
N	-4.5520245077	-2.6266955327	-2.7654757669	-0.30013
H	 0.9739909138	 1.6810250582	 0.3743365077	 0.110576
H	-0.2440720341	 1.9122078132	-0.9084823162	 0.112213
H	-0.756109918	 1.666795816	 0.782496206	 0.131251
H	 0.5665303016	 0.0743118599	-2.0793449587	 0.080423
H	 2.7125481795	-1.1380014804	-1.609546852	 0.119922
H	 2.5721239489	 0.2824894027	-0.5721923702	 0.122012
H	 2.2385041014	-1.3258702249	 0.0935743868	 0.126542
H	 0.6064968753	-2.3951932492	-2.3253258795	 0.105052
H	 0.1391707662	-2.5769677013	-0.6241057844	 0.088117
H	-1.8120723996	-1.1816323157	-1.2344638642	 0.239826
H	-1.5590840641	-3.583706978	-2.9084698964	 0.152269
H	-2.0335051643	-3.6626201039	-1.212553868	 0.129949
