15
gdb 25475	4.20222	1.23376	1.07661	2.8048	72.7	-0.2248	-0.0379	0.1869	1090.3768	0.114108	-416.811907	-416.80457	-416.803626	-416.844656	26.493	
O	-0.4356980094	 0.5555518446	-0.6643017561	-0.232818
C	 0.2075654846	 0.9088467312	 0.2895240883	 0.15481
C	 1.3474031862	 1.9042101724	 0.2269172572	-0.260317
C	 1.5096164546	 2.6827434681	-1.1325651964	-0.1871
N	 1.1222172302	 3.9004111655	-0.3812480443	 0.014441
C	 1.0120719748	 5.2516082634	-0.1569872741	-0.169526
C	 0.8137485645	 5.3287160907	 1.2107740448	-0.089921
N	 0.8404652641	 4.084087436	 1.8278548863	-0.368316
C	 1.0309920586	 3.2814796121	 0.8124821857	 0.365636
H	-0.0094774585	 0.5307395678	 1.3115993627	 0.102615
H	 2.2630693555	 1.4431626271	 0.6138006354	 0.125863
H	 2.5290926013	 2.7175686278	-1.5220323641	 0.136748
H	 0.8014427492	 2.3912256052	-1.9087494326	 0.157644
H	 1.044425427	 6.0013470047	-0.9285244785	 0.137214
H	 0.6424307774	 6.2238600035	 1.7898679759	 0.113027
