15
gdb 127346	5.87072	0.95774	0.82771	5.2104	72.15	-0.2322	-0.0027	0.2295	1325.0075	0.114373	-450.173459	-450.165206	-450.164262	-450.207583	28.531	
C	-0.1979461551	 1.4114708292	 0.151435577	-0.319422
N	-0.023964253	-0.0139708763	-0.0132159964	 0.059215
C	 0.3298697014	-0.7180760362	-1.1024380415	 0.012114
N	 0.3777178071	-2.0124870164	-0.8368973099	-0.30478
C	 0.0321114356	-2.042345412	 0.4735202832	 0.480385
N	-0.0707207026	-3.1865319991	 1.2534702997	-0.398985
C	 0.1440837186	-4.5012843019	 0.8993514499	 0.150259
O	 0.4700433273	-4.9163969639	-0.1816444767	-0.274318
N	-0.2237037801	-0.8618019624	 1.0300414756	-0.352624
H	 0.0103438574	 1.9008127231	-0.8015605865	 0.146623
H	-1.2235035111	 1.634004592	 0.4571168214	 0.156459
H	 0.4895820931	 1.790544685	 0.9119143719	 0.156457
H	 0.5412747114	-0.2578811909	-2.056297894	 0.147278
H	-0.3414994281	-3.0086315654	 2.2092180877	 0.265036
H	-0.0300868719	-5.155336935	 1.7782383586	 0.076304
