19
gdb 69518	2.32377	1.66213	1.31949	1.4445	75.3	-0.2019	0.0611	0.263	1055.6359	0.156677	-422.946123	-422.937161	-422.936217	-422.978945	35.217	
C	 0.0407311032	 1.4881357292	-0.064662087	-0.49015
C	 0.0295370696	-0.0130820425	-0.0343570726	 0.284328
C	-0.8907561889	-0.8321147739	 0.8347606002	-0.35803
C	 0.6050705078	-0.9621260565	 1.0042989481	-0.174114
C	 1.3191309832	-1.7762434089	-0.1191063051	 0.299363
O	 2.6205027727	-2.217360311	 0.023185774	-0.45645
C	 0.3706851015	-2.311397165	-1.1727691464	-0.413728
C	 0.7315039163	-0.8492845895	-1.1634496515	 0.287476
O	 1.247511182	-0.2706319112	-2.3067626939	-0.443782
H	 1.034497185	 1.8841019705	-0.3075228113	 0.104439
H	-0.6585877874	 1.880399398	-0.8122041789	 0.12792
H	-0.2453818139	 1.8974539625	 0.9093482462	 0.118911
H	-1.3830160354	-0.2641064632	 1.6209344478	 0.107866
H	-1.5039967663	-1.6393379029	 0.4505473078	 0.111791
H	 1.1185533342	-0.7014325362	 1.9222292454	 0.088918
H	 2.6021541999	-3.1194338483	 0.3631557483	 0.286389
H	 0.909780885	-2.8303577918	-1.9610187049	 0.120895
H	-0.620717189	-2.7069047482	-0.9756879418	 0.10706
H	 1.9759821708	 0.3068001088	-2.0527844546	 0.290897
