18
gdb 111126	3.59828	1.33057	1.22263	2.2497	70.91	-0.2317	0.073	0.3047	1075.7482	0.148425	-438.989804	-438.982391	-438.981446	-439.021788	29.196	
C	 0.1447076301	 1.3245271012	 0.1559823484	-0.243934
O	-0.2618980777	 0.0316660133	-0.234687722	-0.256474
C	 0.4929000103	-0.4829693224	-1.2913155999	 0.167066
C	 1.8051010338	-1.2227187216	-0.8696364662	 0.010711
O	 0.9551432274	-2.3201137463	-0.3875046469	-0.300787
C	 0.1305444236	-1.9620226453	-1.5515229315	 0.016749
C	 1.0648214367	-2.3855332024	-2.7074929513	-0.050331
N	 1.7214817477	-1.2612106466	-3.4201314962	-0.336246
C	 2.3347378607	-1.8242665119	-2.1901576035	-0.050403
H	 1.170502185	 1.3334386958	 0.5541426802	 0.105302
H	 0.0945221308	 2.0373301324	-0.6818161757	 0.106606
H	-0.5384886644	 1.6525333995	 0.9426534612	 0.129359
H	 0.5392925899	 0.2101858651	-2.1343068787	 0.09879
H	 2.510003373	-0.8496671959	-0.1278447584	 0.080276
H	-0.8900852638	-2.3387863484	-1.507389811	 0.084751
H	 0.9745878047	-3.3581840448	-3.1749549167	 0.103139
H	 2.2168448983	-1.6388178484	-4.2267437981	 0.232926
H	 3.2886056838	-2.3356254533	-2.2351176036	 0.102501
