15
gdb 27378	2.08877	1.88006	0.99111	5.7461	74.92	-0.2034	0.0071	0.2105	1122.439	0.115055	-450.17337	-450.165416	-450.164472	-450.20558	30.863	
N	 0.1473603778	 1.3409102164	 0.1611597326	-0.577102
C	-0.0379693124	-0.0199761026	 0.0400627215	 0.40817
C	-1.1886607873	-0.7099809544	 0.0199358982	-0.24512
C	-1.1651563201	-2.1649016853	-0.0099878004	 0.330527
N	-2.2500128762	-2.8452221246	-0.0172589901	-0.552142
N	 0.1120361004	-2.76845876	-0.0311111141	-0.391927
C	 1.1467427814	-2.0257621626	-0.0415345979	 0.474367
N	 2.4183988125	-2.5122264633	-0.1409501883	-0.566147
O	 1.1791695394	-0.6543871149	-0.0001075431	-0.255528
H	 0.9713253709	 1.6881727781	-0.3105417562	 0.258979
H	-0.6769626135	 1.8870773123	-0.0412612563	 0.265411
H	-2.1426429712	-0.2011075179	 0.0359902824	 0.103288
H	-2.0092121687	-3.8378803988	-0.0434207878	 0.205705
H	 2.5020719496	-3.4991628282	 0.042460086	 0.275639
H	 3.1595412673	-1.9262229142	 0.2084358737	 0.265878
