19
gdb 121323	3.30989	1.02495	0.82711	1.2091	72.75	-0.2294	-0.0329	0.1966	1407.7065	0.157748	-460.169345	-460.1601	-460.159156	-460.204322	32.919	
C	-0.0968355638	 1.5056593496	-0.0140898498	-0.386453
C	 0.1130543032	 0.0044830187	 0.0661490988	-0.050493
O	 0.5768290063	-0.4427840926	-1.2077802937	-0.254772
C	 0.7715655976	-1.8243323183	-1.3073644028	 0.013921
C	 0.9070060491	-2.2661406369	-2.76832379	-0.125282
O	 1.6802569109	-3.4639368653	-2.724835411	-0.250306
C	 2.6912986698	-3.2913623186	-1.7476473257	-0.180094
C	 2.1149460244	-2.3161811124	-0.7224097468	 0.350136
O	 2.6273803349	-1.9611953573	 0.3060317921	-0.299922
H	 0.8443105788	 2.0128583706	-0.2440667372	 0.130504
H	-0.8214552683	 1.7543249235	-0.7947897349	 0.124212
H	-0.4699662692	 1.8856761055	 0.9415477943	 0.118185
H	 0.8431510592	-0.251715167	 0.8418643016	 0.127484
H	-0.8320369815	-0.509441965	 0.309091028	 0.085901
H	-0.04139237	-2.3867145872	-0.8157390169	 0.095428
H	-0.0417108049	-2.5012042303	-3.2524641077	 0.12239
H	 1.4134319778	-1.471039592	-3.3372297422	 0.111549
H	 2.9420371832	-4.2591551619	-1.3038938201	 0.141314
H	 3.6126064727	-2.8581614531	-2.1722541559	 0.126298
