19
gdb 62743	2.41732	1.5197	1.2507	3.6648	76.94	-0.2379	-0.0103	0.2276	1091.0462	0.156148	-423.02225	-423.012742	-423.011797	-423.056052	35.596	
C	-0.0390436378	 1.5534951179	 0.0527177007	-0.462575
C	 0.0862522488	 0.044271693	 0.0427003703	 0.355678
O	-1.0835845948	-0.5882325645	-0.4218318668	-0.46731
C	 1.3388292355	-0.719552207	-0.2501550329	-0.17764
C	 2.5816058734	-0.0068987274	 0.2932965585	-0.375009
C	 1.9238898482	-0.0923558271	 1.6960338044	 0.349993
O	 2.3373785108	 0.1098196935	 2.803946896	-0.316247
C	 0.6888920884	-0.7770543091	 1.1831703293	 0.170588
C	-0.0767024786	-1.8280929277	 1.9346097438	-0.500716
H	 0.837206883	 2.0464659009	 0.4783760186	 0.134294
H	-0.1749675011	 1.9335745524	-0.9678059228	 0.109832
H	-0.9143170382	 1.8444178472	 0.6406747985	 0.136886
H	-1.1918607725	-0.3535711409	-1.3501443792	 0.285868
H	 1.3407647565	-1.5195543714	-0.9799069853	 0.101183
H	 3.4793150293	-0.6329108972	 0.2764475238	 0.133371
H	 2.8321991891	 0.9788143488	-0.1080900176	 0.11803
H	-0.5315087806	-1.393603301	 2.8313696707	 0.135592
H	-0.8721010577	-2.24593634	 1.3161448373	 0.144396
H	 0.5844822485	-2.6370554501	 2.2611728228	 0.123786
