17
gdb 71139	2.86344	1.78612	1.37861	4.706	71.44	-0.2562	0.0118	0.2681	959.5214	0.136996	-421.849993	-421.842963	-421.842018	-421.881122	28.476	
C	 0.0510788027	 1.4768991983	-0.0938518116	-0.483546
C	-0.0044580139	-0.0202718808	 0.0431463364	 0.396156
C	-1.3391525439	-0.7359439687	 0.4321266561	-0.278145
C	-0.5089108091	-1.6662331983	 1.3116279839	-0.073868
C	 0.77368998	-2.1153915395	 0.5908123549	-0.203031
C	 0.6940586199	-0.7594670671	 1.2283672566	-0.130462
C	 0.8704055568	-1.9218761889	-0.8906940039	 0.439857
O	 1.2421270667	-2.6853895475	-1.7341141576	-0.351884
O	 0.4901258034	-0.6357588842	-1.1673148062	-0.265558
H	 1.0767363019	 1.8051116763	-0.2869476519	 0.135891
H	-0.5784464506	 1.8103521961	-0.9240204241	 0.138753
H	-0.3021231479	 1.9550178244	 0.8241727071	 0.124447
H	-1.9738903091	-0.0857981457	 1.0400902771	 0.111356
H	-1.9179741954	-1.1562712194	-0.3955836575	 0.113354
H	-0.8597146563	-2.2480659637	 2.1545168089	 0.104305
H	 1.3321538091	-2.9262247144	 1.037656499	 0.118908
H	 1.3652079158	-0.3621926968	 1.9778742528	 0.103468
