18
gdb 55726	2.40085	1.36985	1.12931	2.561	74.52	-0.2458	-0.0156	0.2302	1172.8894	0.144718	-439.090167	-439.08076	-439.079815	-439.124753	33.959	
C	 0.0912091609	 1.4674777256	-0.1196181219	-0.464989
C	-0.2731579438	 0.014824467	 0.0247248553	 0.393887
N	-0.9300894769	-0.5613913838	 0.9398162027	-0.515675
O	 0.2235062006	-0.6821160203	-1.0388338474	-0.282971
C	 0.1490226983	-2.077925706	-0.9821653355	 0.365432
C	-1.1653380502	-2.762538797	-1.282386344	-0.296677
C	-0.0851129934	-2.7620177192	-2.3174553982	-0.324568
C	 1.098482786	-2.728741547	-0.0420353702	 0.134896
O	 1.9105809225	-2.147543238	 0.628352715	-0.2744
H	 1.1778520539	 1.580813068	-0.0582665532	 0.158812
H	-0.2208511867	 1.8428841973	-1.0986853933	 0.143232
H	-0.376552413	 2.0670538251	 0.6625816574	 0.127277
H	-1.2188416017	 0.1096382667	 1.6477014089	 0.22284
H	-1.3875558824	-3.6796765476	-0.7479146385	 0.13075
H	-2.009632741	-2.098702653	-1.4160433433	 0.142717
H	-0.180425963	-2.0897579506	-3.1618727736	 0.140479
H	 0.4576200576	-3.6791392219	-2.5186102407	 0.128161
H	 1.0053930625	-3.8397695752	-0.0262095195	 0.070796
