17
gdb 52061	2.58593	1.19835	0.95803	1.7573	73.66	-0.2656	0.0119	0.2774	1237.1754	0.136141	-418.037137	-418.028102	-418.027158	-418.071754	32.264	
O	 0.7481518961	 0.3887460584	 1.2458391123	-0.325417
C	 0.3326140636	 1.2597638206	 0.5090772839	 0.163629
N	 1.0165284788	 1.7752258429	-0.5477758091	-0.265778
C	 2.3625414456	 1.3417753185	-0.8778679344	-0.252551
C	 3.456486588	 2.1779238384	-0.2173763664	 0.176326
C	 3.8251843672	 1.8762216162	 1.2288910141	-0.286932
C	 4.7743526783	 1.5012964218	 0.1325320212	-0.300665
C	 3.4933587342	 3.5507858294	-0.6514980231	 0.225901
N	 3.4824469897	 4.6469817267	-1.023012471	-0.345327
H	-0.6698289791	 1.7156335759	 0.6175928048	 0.089886
H	 0.6152700825	 2.5498492357	-1.0523077437	 0.263911
H	 2.4584069483	 0.30859509	-0.5368733815	 0.146637
H	 2.4825173387	 1.3600903875	-1.9653054942	 0.128942
H	 4.0841648465	 2.7167843781	 1.8612895036	 0.139903
H	 3.2355374399	 1.101419667	 1.7042485029	 0.165946
H	 4.8655217455	 0.4564822697	-0.1435824554	 0.133682
H	 5.6804730761	 2.0823658733	 0.011397436	 0.141907
