21
gdb 97663	2.86702	0.79771	0.68931	1.568	90.18	-0.2255	0.0402	0.2657	1746.1956	0.179635	-387.056616	-387.045889	-387.044945	-387.093422	38.705	
C	-0.002395534	 1.6327830033	-0.0326798004	-0.364664
C	 0.0068534599	 0.093634253	 0.0159968461	-0.31657
C	-1.3327055336	-0.4852997714	 0.02105103	 0.033685
C	-2.4457973773	-0.9502265896	 0.0284183149	 0.058769
C	-3.7929820716	-1.4598056241	 0.0481042029	 0.215345
O	-4.6917680741	-0.7446741934	 0.8618868901	-0.449249
C	-4.3663924657	-2.110509799	-1.2052035492	-0.346467
C	-4.065417578	-2.9458310902	 0.0166762597	-0.024602
C	-2.9516840959	-3.9653522391	 0.0200039341	-0.412067
H	 1.0208156495	 2.0200168397	-0.0348671554	 0.115019
H	-0.5089690866	 1.9904593278	-0.933238107	 0.126546
H	-0.5244784666	 2.0453901712	 0.834919852	 0.128736
H	 0.5646865697	-0.2950589633	-0.8458608847	 0.128905
H	 0.5562929778	-0.2403113143	 0.9057683556	 0.129437
H	-4.7193464982	 0.1608896116	 0.5325978236	 0.281464
H	-5.4032140136	-1.8823379246	-1.4257599821	 0.115245
H	-3.7147358177	-2.2074755928	-2.067071931	 0.115617
H	-4.9372322872	-3.2067332649	 0.6102194449	 0.10255
H	-2.0856615108	-3.6048316204	-0.5420397265	 0.124351
H	-2.6183327731	-4.1833469205	 1.040101113	 0.122246
H	-3.2848512227	-4.9046312591	-0.4346167404	 0.115703
