21
gdb 100788	3.42531	0.89336	0.79306	1.7356	75.12	-0.2516	0.0658	0.3175	1513.2164	0.180318	-461.33813	-461.327969	-461.327025	-461.37348	37.301	
C	-0.0640310984	 1.5833899215	-0.0478060337	-0.385081
C	-0.0293664884	 0.0534636001	-0.0463636618	-0.196307
C	 0.7443343969	-0.531178577	-1.228229461	 0.109548
O	 2.1121963208	-0.1202120262	-1.2347632783	-0.43287
C	 0.661916897	-2.0744632338	-1.277954553	 0.062207
O	-0.676245804	-2.5313058061	-1.2599759013	-0.435676
C	 1.384645212	-2.6099598974	-2.5057888313	 0.058373
C	 1.1036293925	-3.9467838505	-3.0331614751	-0.189702
O	 0.5282956719	-2.7814461021	-3.6491443863	-0.254225
H	 0.9476944323	 1.99842007	-0.0669157368	 0.121932
H	-0.5923916666	 1.962552689	-0.9294442104	 0.116921
H	-0.5763875964	 1.9679137855	 0.8390327924	 0.111041
H	 0.4323515757	-0.3124674606	 0.8843287825	 0.079448
H	-1.0416034455	-0.3610005595	-0.0641084838	 0.122297
H	 0.3289886585	-0.1378797247	-2.1660411952	 0.092765
H	 2.4718854058	-0.2964509715	-0.3577046593	 0.279335
H	 1.1500650334	-2.4706881954	-0.3746771371	 0.079593
H	-0.9562477057	-2.5320449671	-2.1878461864	 0.292805
H	 2.3398545764	-2.1385590197	-2.7224928473	 0.117899
H	 1.8529527953	-4.459068527	-3.6332000459	 0.121831
H	 0.3938357464	-4.5844757074	-2.5114157608	 0.127865
