17
gdb 29714	2.47354	1.5496	0.96339	1.4759	72.32	-0.1622	0.0697	0.2319	1171.8165	0.134856	-455.160878	-455.150802	-455.149858	-455.195735	35.788	
C	-0.003454438	 1.465338162	-0.0305595601	-0.338859
N	 0.0310125307	 0.0191421526	-0.0058160811	-0.066774
C	 0.0197769591	-0.7914420214	-1.0919652886	 0.378985
O	-0.0281830105	-0.2022521035	-2.3174894815	-0.443081
C	 0.0615890859	-2.1135145702	-0.7003293601	-0.460336
C	 0.1007149351	-2.0873687825	 0.7264083857	 0.288018
O	 0.1494961667	-3.1534460366	 1.585914744	-0.458712
C	 0.0820220122	-0.7829230734	 1.1517983025	 0.136214
N	 0.1035986197	-0.1908302751	 2.4301683247	-0.612478
H	 0.0174588603	 1.8065878131	 1.0047079172	 0.155662
H	 0.8601356597	 1.8713999266	-0.5670183892	 0.131199
H	-0.9136098652	 1.8299873412	-0.5175008589	 0.131209
H	-0.029168336	-0.896084936	-2.9831874742	 0.303998
H	 0.0640320152	-2.9791439356	-1.3458562639	 0.078831
H	 0.1541945768	-3.9602663086	 1.0643255838	 0.29245
H	 0.9410176037	-0.4342255453	 2.9493564798	 0.241835
H	-0.6913725453	-0.4726264773	 2.9946866401	 0.24184
