11
gdb 9041	6.02429	0.85932	0.79029	3.7296	65.98	-0.2918	-0.079	0.2129	1312.9154	0.070124	-397.380117	-397.37224	-397.371296	-397.413216	26.61	
O	-0.0029852339	 1.5068950089	 0.0570185162	-0.397849
C	 0.0171601596	 0.11158445	 0.0665147612	-0.13566
C	 0.7005261857	-0.4294035843	-1.2048954224	 0.143121
O	 1.1417361611	 0.3306605959	-2.023971843	-0.233499
C	 0.7091805332	-0.4425581308	 1.2342278758	 0.175575
C	 1.2880065027	-0.9105163875	 2.1852462045	-0.03225
C	 1.9398293822	-1.4399522922	 3.2621940573	 0.221891
N	 2.4939512219	-1.8954068765	 4.1755565161	-0.325436
H	 0.5187809653	 1.7691153092	-0.7200932486	 0.306364
H	-1.0131322845	-0.2868112416	 0.061820289	 0.145671
H	 0.7561990669	-1.528569211	-1.3058571761	 0.132072
