14
gdb 10666	2.95224	1.97737	1.34319	1.9352	64.39	-0.254	-0.0316	0.2224	905.5096	0.103124	-382.495201	-382.486843	-382.485898	-382.528233	29.727	
C	-0.8306313842	 1.1179976616	 0.2013710542	-0.484871
C	 0.3578211212	 0.2437633257	-0.1361211052	 0.30913
O	 1.3575322835	 0.19315314	 0.5358291245	-0.278823
C	 0.2541898129	-0.5883202852	-1.4112360652	 0.095381
C	-0.9064960562	-1.5100715518	-1.5511234121	-0.202138
O	-0.8703589255	-0.2877167209	-2.2617505363	-0.252842
C	 1.4927785255	-0.9095374543	-2.070357244	 0.279776
C	 2.5266993295	-1.1629844808	-2.6257686746	-0.384108
H	-0.9289039973	 1.9033102174	-0.5555795815	 0.161798
H	-1.7706312536	 0.5595130711	 0.1890811348	 0.142507
H	-0.6718635555	 1.5650662972	 1.18295694	 0.1441
H	-0.7677531698	-2.4112554218	-2.1445544827	 0.140596
H	-1.6389542505	-1.5765351648	-0.7479214581	 0.125703
H	 3.4440237598	-1.3856477433	-3.1128835136	 0.203791
