20
gdb 107283	3.42242	1.28214	1.14007	3.2544	78.25	-0.2237	0.0635	0.2873	1154.0499	0.171501	-403.071405	-403.063349	-403.062405	-403.104047	31.544	
C	 0.1068484536	 1.4865203502	 0.2809494733	-0.374132
C	 0.0405431396	 0.0105795079	-0.1379838145	-0.316739
C	-1.3596905406	-0.5274247439	-0.1634113442	 0.355074
N	-2.0998386106	-0.87326948	 1.0682610425	-0.361999
C	-1.9091908808	-1.9100213327	 0.0216004837	-0.15263
C	-2.9731580109	-1.6567225265	-1.0761152589	 0.130844
O	-4.2638286578	-1.1909705379	-0.6514457898	-0.289366
C	-3.8502108479	 0.1958596368	-0.7789764467	-0.087901
C	-2.4357561577	-0.2207154325	-1.2454889392	-0.144052
H	 1.1388623229	 1.8494842121	 0.276412327	 0.115284
H	-0.4722457605	 2.1151855537	-0.4034035966	 0.123014
H	-0.3005852173	 1.629682597	 1.2865053239	 0.125957
H	 0.4897560827	-0.1090613545	-1.1324284062	 0.104298
H	 0.6440593511	-0.5999705789	 0.5468738511	 0.096284
H	-1.4068796123	-1.0644676599	 1.7921977444	 0.225574
H	-1.4098383551	-2.8417790756	 0.2634553767	 0.087291
H	-3.01396343	-2.3998172348	-1.8769265581	 0.075615
H	-4.4430535387	 0.7108694711	-1.5444207366	 0.092383
H	-3.9091453988	 0.7286542558	 0.1734992791	 0.117309
H	-2.0626054609	 0.1545499725	-2.1972676508	 0.077892
