21
gdb 101760	4.551	0.59675	0.56419	2.2601	75.99	-0.248	-0.0132	0.2347	1973.7507	0.179053	-461.38203	-461.371033	-461.370089	-461.419733	38.569	
C	-0.1154876891	 1.5165558611	 0.0572454014	-0.473818
C	 0.0340359614	 0.0161127482	-0.1206291721	 0.378243
O	 1.0917386842	-0.4902107399	-0.4198727942	-0.294374
C	-1.2267074912	-0.8120871512	 0.0913477926	-0.304754
C	-0.974433401	-2.3184564412	 0.1527559901	-0.209849
C	-2.2600184176	-3.138873102	 0.0719988967	 0.089148
O	-2.9760659239	-2.8945316365	-1.1488204286	-0.439813
C	-2.0249932275	-4.6443091564	 0.2128807638	-0.063386
O	-3.232691864	-5.3602545369	 0.0759814121	-0.424415
H	 0.7923204084	 2.0236874263	-0.271493977	 0.143387
H	-0.9809255607	 1.8941795854	-0.4976345084	 0.135968
H	-0.2930377918	 1.7452467129	 1.1149010096	 0.142733
H	-1.7413633254	-0.4549684944	 0.9931937199	 0.115319
H	-1.9138185946	-0.5859538444	-0.7360735252	 0.137283
H	-0.3011151089	-2.6013909434	-0.6659744714	 0.113646
H	-0.4400348992	-2.571505876	 1.0759852392	 0.11113
H	-2.9612857378	-2.8283778798	 0.8564389742	 0.094951
H	-2.3685045109	-3.0695977972	-1.8785000344	 0.282905
H	-1.2773347692	-4.9621438278	-0.5381356474	 0.073711
H	-1.6116442135	-4.875782495	 1.2007112459	 0.108055
H	-3.7086640478	-4.9199641218	-0.6403758965	 0.283927
