17
gdb 48591	3.21215	1.55278	1.34815	4.106	72.17	-0.2519	-0.0302	0.2217	979.3384	0.136331	-421.780998	-421.773989	-421.773045	-421.812513	28.056	
O	-0.0200755118	-0.0526940096	 0.0075681859	-0.240561
C	 0.0391670926	 1.1480660046	 0.0201890134	 0.055853
C	 1.3013300616	 1.9486971414	 0.0278214952	 0.321699
C	 1.7899730498	 2.7462027037	 1.2822828464	-0.26932
C	 3.1078514042	 2.4935936305	 0.5008585503	 0.0491
O	 2.5489107611	 1.2156713727	 0.0665708246	-0.299228
C	 2.9423563063	 3.3915324337	-0.7445954893	-0.051559
C	 2.6716244708	 2.6769888481	-2.0446293637	-0.291042
C	 1.5273396206	 2.9837120186	-1.1147544153	-0.114881
H	-0.8779526128	 1.7835669344	 0.0294485107	 0.074335
H	 1.4425180811	 3.7732191483	 1.4168503026	 0.102519
H	 1.7220294952	 2.1592891427	 2.1999188417	 0.122439
H	 4.0808046022	 2.4080245873	 0.9829987577	 0.091529
H	 3.2774625529	 4.4209507939	-0.7208171123	 0.096245
H	 2.7273425377	 3.2832790976	-2.942495857	 0.113415
H	 2.9958959439	 1.6502848377	-2.1562230626	 0.142579
H	 0.7450213444	 3.6856132742	-1.3748662784	 0.096877
