16
gdb 98106	4.34499	0.88207	0.77855	1.6114	68.76	-0.2643	-0.1047	0.1596	1423.2131	0.122434	-475.013437	-475.004281	-475.003337	-475.048553	31.829	
O	 0.2887133788	 1.3521937592	 0.2367085801	-0.420316
C	 0.1004237324	 0.0133353349	-0.1108981768	-0.121571
C	-1.3520319345	-0.3910947082	 0.0089638272	 0.259761
O	-2.1952422431	 0.398581915	 0.3755765907	-0.303009
C	-1.7143937095	-1.8403129427	-0.3511231334	 0.29478
O	-0.8338686688	-2.6175276844	-0.6633527776	-0.31877
C	-3.1484806453	-2.2120749432	-0.2943309541	-0.108011
C	-3.6832218059	-2.9439721975	-1.4975393422	-0.213821
N	-3.4670289693	-3.648634884	-0.2479542018	-0.298716
H	-0.5846323286	 1.6922736143	 0.4826410802	 0.296041
H	 0.4280139416	-0.1901355704	-1.1429131431	 0.136089
H	 0.6944706174	-0.6626809788	 0.5244997111	 0.139049
H	-3.8025952081	-1.548539312	 0.256963268	 0.130881
H	-4.7200811269	-2.7765651255	-1.7729294161	 0.139221
H	-2.9935448491	-3.1099702317	-2.3205319248	 0.136651
H	-2.582987141	-4.1559791151	-0.3058166774	 0.251738
