19
gdb 22663	2.7898	1.07373	0.78705	3.9917	88.08	-0.1801	0.0086	0.1887	1435.3414	0.159274	-419.19179	-419.182187	-419.181243	-419.226871	34.748	
C	 0.087061768	 1.4223396674	-0.0286849302	-0.323118
N	-0.0323030175	-0.0162102172	 0.0879052212	-0.361154
C	-1.2381731495	-0.6436444521	 0.0349926063	 0.393763
C	-2.4760094927	-0.084549429	 0.0400902207	-0.315515
C	-3.4890729218	-1.1168055082	 0.0210489499	 0.410634
C	-2.8085492425	-2.4794509859	-0.0041742397	-0.297029
C	-1.2942563198	-2.1558009259	 0.0031609464	-0.328338
N	-4.7677470678	-1.032504951	 0.0182691897	-0.278684
O	-5.1791139798	 0.3272647613	 0.0460895161	-0.411983
H	 1.1385775834	 1.7050551734	 0.051042442	 0.126634
H	-0.3103265876	 1.8002393464	-0.981550276	 0.12847
H	-0.460970254	 1.9128419823	 0.7831975718	 0.143352
H	 0.7769405787	-0.5636563846	-0.152499263	 0.243708
H	-2.7086903376	 0.9685071366	 0.0552556039	 0.101225
H	-3.1009221289	-3.0768606265	 0.8634245194	 0.12335
H	-3.1018497163	-3.0451553434	-0.8924337521	 0.122425
H	-0.7798607534	-2.5460453653	-0.884459461	 0.109432
H	-0.7782646093	-2.5807999925	 0.8724807982	 0.116571
H	-6.1368822315	 0.2390385243	 0.0416472862	 0.296256
