19
gdb 102081	2.04622	1.40071	0.88878	3.817	73.61	-0.239	-0.0378	0.2013	1310.4465	0.154259	-460.165547	-460.154877	-460.153933	-460.201901	36.301	
C	 0.1375214943	 1.2545345011	 0.2585824475	-0.250034
O	-0.1594261412	-0.1079385295	-0.0059622933	-0.261774
C	 0.5812779667	-0.6714256455	-1.0839246912	 0.069819
C	 1.9844120353	-0.9689988893	-0.5449425179	 0.166182
O	 2.8829052735	-0.1692387536	-0.5686717698	-0.257307
C	-0.1763842975	-1.9218105516	-1.532481959	-0.123608
C	-1.5856441524	-1.6076212714	-2.0600813272	-0.417804
C	 0.618706781	-2.7142601491	-2.5473497882	 0.153793
O	 1.7668005068	-2.4896722671	-2.8414511178	-0.240026
H	 1.1915899942	 1.405231881	 0.5188726135	 0.140167
H	-0.1003300955	 1.8853694403	-0.6101278329	 0.112375
H	-0.4911680262	 1.5505113103	 1.1012423879	 0.129726
H	 0.6776105948	 0.0465289533	-1.9115087332	 0.09111
H	 2.0847180946	-1.9442980043	-0.0174630155	 0.078468
H	-0.286223639	-2.5808442331	-0.6552018561	 0.117984
H	-2.1546573511	-1.0783774492	-1.2946241933	 0.150186
H	-1.5391972963	-0.975690476	-2.9533960685	 0.128153
H	-2.1224655108	-2.524646641	-2.3215498615	 0.1229
H	 0.0613022387	-3.5531271752	-3.0219317135	 0.089688
