17
gdb 93348	2.18213	1.66276	1.07649	1.4532	68.44	-0.255	-0.0406	0.2145	1107.9293	0.133873	-458.990804	-458.982135	-458.981191	-459.024555	31.385	
C	 0.5023563607	 1.3665967054	-0.3124748339	-0.406547
C	-0.0680707382	 0.0678749053	 0.2534038956	 0.09109
O	-0.1685429498	-0.9467961222	-0.7685684051	-0.261718
C	 1.0620786239	-1.6321557248	-0.8616048505	-0.186173
C	 1.7005759857	-1.5442615913	 0.5235649836	 0.353997
O	 2.7051873159	-2.0830171613	 0.902398492	-0.29979
C	 0.7889864474	-0.6116373613	 1.3388925213	-0.23055
C	 1.5436058786	 0.2122523321	 2.360972458	 0.149574
O	 1.3068486616	 1.361154118	 2.6318102844	-0.244853
H	 1.5421788439	 1.2474592421	-0.6372648302	 0.113181
H	-0.0919289003	 1.6694173341	-1.1783309792	 0.128095
H	 0.4755300285	 2.1545198224	 0.4415968269	 0.153642
H	-1.0901879883	 0.237168421	 0.5995126928	 0.10257
H	 0.8824136272	-2.6729680942	-1.1486686889	 0.144136
H	 1.7464055095	-1.1892812982	-1.6029017995	 0.129527
H	 0.151281594	-1.293923076	 1.9249842482	 0.148699
H	 2.3487408695	-0.355186821	 2.8721921848	 0.115122
