25
gdb 58260	2.8984	0.99966	0.88533	1.4548	88.9	-0.2393	0.078	0.3173	1482.8384	0.227843	-389.480797	-389.470204	-389.46926	-389.517215	39.158	
C	 0.1052810829	 1.4745245058	-0.2221039484	-0.405545
C	 0.0165054534	-0.0317067235	 0.070566024	 0.052532
C	 0.7254192941	-0.3214439864	 1.4042221484	-0.399002
C	-1.44486637	-0.5694994991	 0.0537396109	 0.010489
C	-2.2596549321	-0.0304269712	-1.1324110199	-0.417339
C	-1.4482120183	-2.1026634998	 0.0727110257	 0.163686
C	-2.7817062899	-2.8875725769	 0.0365573497	-0.315685
C	-2.2080662753	-3.5217871755	-1.2452900929	-0.054461
O	-1.0381231765	-2.6800554271	-1.1970151044	-0.295582
H	 1.142839005	 1.8155192497	-0.1424156931	 0.10754
H	-0.2462604318	 1.7270111677	-1.2250781601	 0.116245
H	-0.4861836904	 2.0533789079	 0.4985343167	 0.107542
H	 0.5561917583	-0.5602543255	-0.7275838044	 0.092154
H	 0.2187743116	 0.1883904232	 2.2330992543	 0.108584
H	 0.7669227414	-1.3867922933	 1.6447003681	 0.116022
H	 1.7572440305	 0.043594432	 1.3761608566	 0.110529
H	-1.9320719332	-0.2469419145	 0.988033997	 0.064307
H	-2.3815947354	 1.0530584719	-1.0745469719	 0.114188
H	-1.769460961	-0.2745242272	-2.0790778843	 0.130819
H	-3.2642606365	-0.4626219853	-1.158832588	 0.104963
H	-0.791296298	-2.4654779978	 0.8724484629	 0.068946
H	-2.9462839537	-3.5668022236	 0.8744076296	 0.106706
H	-3.6771231597	-2.2820608578	-0.1097396517	 0.111025
H	-1.9484982573	-4.5851062459	-1.1620732664	 0.099112
H	-2.783309838	-3.3700560078	-2.1663410183	 0.102225
