19
gdb 9782	2.89974	1.57939	1.39994	3.9251	75.05	-0.288	0.0351	0.3231	1005.2221	0.164511	-327.939969	-327.931107	-327.930162	-327.973078	32.876	
C	 0.1543214682	 1.411977519	 0.2882010086	-0.401112
C	-0.0498578726	-0.083043456	-0.0304940149	-0.208126
C	-1.4832624921	-0.3958794622	-0.1296429905	 0.279608
N	-2.6107468217	-0.634562928	-0.219781598	-0.332293
C	 0.6910760838	-0.5493444261	-1.291139404	 0.39325
C	 0.2742680883	 0.1127872053	-2.5909005215	-0.478214
C	 2.1423520148	-0.923447431	-1.106014794	-0.319559
C	 1.1059629351	-1.9990954528	-1.333864945	-0.304233
H	 1.2239966671	 1.625622444	 0.361879438	 0.128088
H	-0.2742537404	 2.0461803425	-0.4910894608	 0.140282
H	-0.3215885723	 1.6743269467	 1.2361925916	 0.13526
H	 0.3367204985	-0.6656038152	 0.8152355148	 0.119587
H	 0.4762682815	 1.1891859342	-2.5846868355	 0.120452
H	 0.8239356999	-0.3187486996	-3.4322888441	 0.118946
H	-0.7948621196	-0.0305312357	-2.7809368878	 0.142067
H	 2.8303921814	-0.6923772344	-1.9120027434	 0.116965
H	 2.5785057129	-0.8384582744	-0.1157140149	 0.112131
H	 0.8406330622	-2.6370202876	-0.4972938562	 0.118178
H	 1.088937815	-2.5023299888	-2.2942340023	 0.118722
