14
gdb 28116	5.4003	1.32481	1.07094	2.7905	70.85	-0.2102	-0.0086	0.2017	1054.6258	0.103797	-432.911158	-432.904173	-432.903229	-432.942897	25.988	
C	-0.0216689104	 1.4579483057	 0.021871382	-0.502348
C	-0.0021569086	-0.0321068697	-0.0306951675	 0.320891
N	-0.0563670991	-0.7531281433	-1.1481165774	-0.388586
C	-0.0092568069	-2.0205878584	-0.6763822217	 0.337697
C	 0.0715242295	-2.1155588103	 0.6779865207	 0.307013
N	 0.0771466172	-0.8101401395	 1.115929045	-0.421513
N	 0.1155177104	-3.4245344386	 1.0899518604	-0.356313
C	 0.0582885271	-4.0582524969	-0.0499023334	 0.039012
O	-0.0197728432	-3.2848236161	-1.1841768531	-0.199302
H	 0.8875922541	 1.8615912344	 0.4823941395	 0.136854
H	-0.0914204492	 1.8389207483	-0.9973070881	 0.16407
H	-0.878008759	 1.8345447941	 0.5933278538	 0.136681
H	 0.1272649751	-0.4673481327	 2.0600515217	 0.274007
H	 0.065258723	-5.124256167	-0.2082609318	 0.151836
