13
gdb 129921	3.37352	1.84101	1.19269	7.232	65.64	-0.2108	-0.0058	0.205	929.994	0.092054	-445.085426	-445.078306	-445.077362	-445.116874	26.56	
N	 0.1227769999	 1.4037509975	 0.1645084954	-0.604295
C	-0.0112526862	 0.0299179598	 0.0391090019	 0.30086
C	-1.0857539039	-0.8131747207	-0.0095429624	-0.152295
N	-0.6174587623	-2.1432386872	-0.0223404986	-0.409799
C	 0.7359868092	-2.1024980515	-0.0014618644	 0.543997
N	 1.8133993149	-2.8720111399	-0.0224134135	-0.362636
N	 2.8434657417	-1.9842958178	 0.0127090199	-0.099502
N	 2.4641193254	-0.7391159551	 0.0526769656	-0.18815
N	 1.1011758278	-0.801218177	 0.0465901884	 0.004864
H	 0.9656854937	 1.755642568	-0.272717851	 0.276043
H	-0.6879821086	 1.9177678788	-0.1508313312	 0.260844
H	-2.1378424935	-0.5883972114	-0.0205003828	 0.142919
H	-1.1808354479	-2.9710913636	-0.0815027272	 0.287152
