16
gdb 30179	4.68807	1.32009	1.06761	1.7599	71.5	-0.1668	0.0473	0.2141	1094.9107	0.125309	-437.891903	-437.884278	-437.883334	-437.923892	29.357	
C	-0.5536982694	 1.4877657599	-0.0286066544	-0.404407
C	 0.2348518896	 0.2056242428	 0.0107934338	 0.203998
O	 1.1630304811	 0.14514696	-1.11982099	-0.301062
C	 2.2127604737	-0.512932956	-0.5457215088	 0.32882
C	 2.1539020536	-0.5410104612	 0.8062735301	 0.267115
O	 1.0007750843	 0.1093863601	 1.223203438	-0.297338
C	 3.386531078	-1.0249154422	 1.3015017637	-0.317586
C	 4.1546729224	-1.2792448708	 0.1748132449	-0.079
N	 3.4337022618	-0.9310377663	-0.9669470237	-0.385504
H	 0.1233978014	 2.3427956796	 0.0304522162	 0.139001
H	-1.1289317018	 1.5447273507	-0.9561439641	 0.132546
H	-1.2447690528	 1.5185323538	 0.8175855211	 0.136602
H	-0.4026890121	-0.6913327179	-0.0625377928	 0.083566
H	 3.6914525761	-1.1881232598	 2.3222902573	 0.10535
H	 5.1157827925	-1.7565363646	 0.0818238242	 0.118638
H	 3.7221343815	-1.1027193081	-1.9136594054	 0.269262
