19
gdb 118895	3.46736	1.11384	1.03653	2.9268	70.9	-0.244	0.0564	0.3004	1206.9325	0.157929	-460.114826	-460.106123	-460.105178	-460.14818	33.611	
O	 0.5165885824	 0.2244022199	-0.6557120347	-0.419143
C	-0.2707723394	 0.3369454073	 0.5375195909	-0.096314
C	-1.6139949454	-0.3401665135	 0.2930421411	-0.260864
C	-1.5042683995	-1.8356523259	-0.0018275428	 0.406778
O	-0.8763006205	-2.1013413734	-1.2338780798	-0.500145
C	-0.9722219261	-2.7739065213	 1.1678732192	-0.317862
C	-2.3195606647	-3.5006127744	 1.123999296	 0.034342
O	-3.3358883355	-2.5187384004	 1.3845945075	-0.254038
C	-2.8259243333	-2.6333199774	 0.0530677992	-0.016665
H	 1.4166872645	 0.5014671821	-0.4622412119	 0.295212
H	 0.2457815547	-0.1409832559	 1.3825786191	 0.100867
H	-0.4222788311	 1.3954255289	 0.7924822943	 0.099096
H	-2.2419702024	-0.203424358	 1.1787391097	 0.12148
H	-2.1117441521	 0.1506857561	-0.5521804788	 0.110561
H	-0.1522512615	-1.4635745218	-1.3180491155	 0.28688
H	-0.1416821234	-3.3794672875	 0.8001942883	 0.11226
H	-0.7203995772	-2.321082065	 2.1312134443	 0.093295
H	-2.5573374513	-4.529323907	 1.367849509	 0.102706
H	-3.5249220582	-2.8135678728	-0.7558013651	 0.101554
