16
gdb 32266	2.6406	1.64583	1.02134	3.1714	76.21	-0.2117	-0.0138	0.1979	1116.2524	0.126571	-434.122412	-434.114353	-434.113409	-434.154969	30.028	
C	-0.0286970886	 1.3781705012	 0.03498541	-0.236877
O	-0.0076562821	-0.0487136182	-0.0335560054	-0.278208
C	 0.6048241511	-0.6008643419	-1.0999673054	 0.433408
N	 1.1536602734	 0.1517748012	-2.0299353551	-0.353408
C	 1.7492866189	-0.4886630954	-3.0484884443	 0.041963
N	 1.8445289798	-1.798961112	-3.2016270658	-0.260091
C	 1.2797326687	-2.5487631687	-2.241778491	-0.045224
C	 0.6223811185	-2.0145033501	-1.1422383394	 0.160085
N	-0.0260571072	-2.7635104378	-0.1699459339	-0.596893
H	 0.9863678368	 1.7835626458	 0.0634079971	 0.139795
H	-0.5483894332	 1.8018419227	-0.8283913634	 0.142129
H	-0.5614308532	 1.6185543219	 0.9557976378	 0.129498
H	 2.196793844	 0.1382738724	-3.8144977122	 0.111128
H	 1.3535186652	-3.6290630449	-2.3566843996	 0.100428
H	 0.3282030266	-3.7002725539	-0.0424663851	 0.251107
H	-0.1586144588	-2.2739349425	 0.702855336	 0.26116
