19
gdb 56851	2.87979	1.19086	1.00887	4.9068	79.13	-0.2516	0.0245	0.2762	1229.7911	0.160709	-382.040845	-382.032186	-382.031242	-382.074599	32.591	
N	 0.1690936932	 1.2884471918	 0.2622202865	-0.50668
C	-0.1282094476	-0.1326021717	 0.0318653831	-0.164195
C	-1.5888755496	-0.3172465226	 0.003913534	 0.303837
N	-2.7318665316	-0.4748984731	-0.0555349964	-0.322522
C	 0.4891065205	-0.725581591	-1.234344671	-0.002005
C	 1.9303104974	-1.1488310632	-1.3478843576	-0.098232
C	 2.4298743196	-1.8437540079	-0.0727982883	-0.23673
C	 1.2739178685	-2.8879289499	-0.2027023848	-0.233669
C	 0.7915630362	-2.1771159295	-1.4750968992	-0.062209
H	 1.1792703068	 1.4028617986	 0.268082307	 0.238446
H	-0.1750235678	 1.8378272904	-0.5213363597	 0.237506
H	 0.2379257131	-0.6785358831	 0.9079563082	 0.132599
H	 0.1293386302	-0.2251326752	-2.1317745217	 0.097442
H	 2.5694074299	-0.7425519455	-2.1230855469	 0.091039
H	 3.4108196434	-2.3027038341	-0.2090783986	 0.112007
H	 2.4653962998	-1.2391138906	 0.840054568	 0.097806
H	 1.6546814392	-3.8900474187	-0.4077202762	 0.111816
H	 0.5579134572	-2.9594271358	 0.6220085356	 0.108696
H	 0.4228718916	-2.6782964287	-2.3618323519	 0.095047
