23
gdb 68868	2.30359	1.8232	1.53377	0.158	88.64	-0.2343	0.0887	0.323	1040.451	0.207197	-351.128717	-351.120495	-351.119551	-351.160639	34.193	
C	-0.0589727036	 1.4687414309	 0.0122584472	-0.480729
C	 0.0093652029	-0.0383082469	-0.0064882208	 0.328607
C	 1.312437242	-0.7550124675	-0.2929855735	-0.427348
C	 0.6560984404	-0.9125114666	 1.0628001234	 0.328607
C	 1.3338583225	-0.4139848983	 2.3151311434	-0.480729
C	-0.4493139612	-1.9866714433	 1.2253700231	-0.078382
C	-1.7175355043	-1.0638830178	 1.2871056008	-0.218506
C	-1.3173635331	-0.8133104063	-0.2098288177	-0.078382
C	-0.9151552426	-2.3111934956	-0.2179488488	-0.243504
H	 0.8599399476	 1.9120365572	 0.4087690447	 0.112663
H	-0.2036943407	 1.8700715021	-0.998270286	 0.115262
H	-0.8927941162	 1.8257537413	 0.6285229341	 0.112807
H	 1.3851819568	-1.5700210934	-1.003298268	 0.105235
H	 2.1905755149	-0.114017022	-0.3000550923	 0.097819
H	 1.9020127414	 0.5034468721	 2.1316882624	 0.112663
H	 0.6070290506	-0.2015886659	 3.1082924317	 0.112808
H	 2.0372021214	-1.1590251866	 2.7067952734	 0.115261
H	-0.2673486329	-2.7739076202	 1.9592113428	 0.053227
H	-2.6548565237	-1.615602838	 1.402961597	 0.086656
H	-1.6920566421	-0.20992379	 1.9698583017	 0.088998
H	-2.0199525278	-0.4048752821	-0.9384745786	 0.053227
H	-0.2013018981	-2.6827183058	-0.9534517845	 0.090537
H	-1.7946790443	-2.9588596573	-0.2154937856	 0.093204
