19
gdb 106166	2.77398	1.47056	1.44465	3.1326	74.72	-0.2322	0.0645	0.2967	1023.7812	0.159964	-422.969083	-422.961321	-422.960377	-423.001389	30.351	
O	-0.0024640495	 1.410462932	 0.0197051781	-0.416671
C	 0.0351542749	-0.0094880169	-0.001661253	-0.251277
C	-1.3714128322	-0.5114512763	 0.014981275	 0.367744
C	-1.8454722536	-2.0214243581	 0.0007955324	-0.128913
C	-2.6348223305	-1.7520178226	 1.3120159157	-0.240339
C	-2.4769690067	-0.2317856427	 1.0767412667	 0.062113
O	-3.3864293165	 0.2450054195	 0.0612896748	-0.305673
C	-2.5130856515	-0.2009825401	-0.9989621839	 0.062118
C	-2.6799619861	-1.7134809184	-1.2735279443	-0.240302
H	 0.9024518703	 1.7362307527	 0.0107202405	 0.289831
H	 0.5507701082	-0.3844657867	-0.902365118	 0.087891
H	 0.5807404717	-0.4103348761	 0.8697634487	 0.087897
H	-1.1692065146	-2.8766192223	-0.0237884236	 0.066191
H	-3.6545406626	-2.1384564619	 1.3925739907	 0.100951
H	-2.0562428865	-2.0682645098	 2.1868998358	 0.097926
H	-2.4089882757	 0.4533827167	 1.9237198576	 0.080803
H	-2.4743373393	 0.5091190957	-1.8270309563	 0.080823
H	-2.1325093721	-2.0034332035	-2.177079651	 0.097932
H	-3.7021370677	-2.097705301	-1.3298375358	 0.100956
