21
gdb 120897	5.62227	0.69899	0.67465	1.792	80.75	-0.2557	0.0776	0.3334	1719.2663	0.180881	-424.181564	-424.172134	-424.17119	-424.216677	34.384	
C	 0.2378732594	 1.3690058033	-0.0117537745	-0.224864
O	 0.1897172072	-0.036953276	-0.0272482352	-0.233216
C	 0.6051263296	-0.6170236019	 1.1901300892	-0.06871
C	 0.5380014722	-2.1227234215	 1.0531971138	 0.015595
C	 1.5572636435	-2.8095102238	 0.0922859531	-0.319134
C	 1.7818941645	-3.8560513096	 1.1844955437	 0.466397
C	 1.7733594203	-5.3153550028	 1.0758749181	-0.265811
O	 2.9732145606	-4.5891361024	 1.3864161847	-0.271296
C	 1.1014728808	-2.9732176547	 2.2337460145	-0.347669
H	 1.2590963847	 1.7421005724	 0.1669908138	 0.103447
H	-0.0992481152	 1.7201007159	-0.9901403422	 0.126953
H	-0.4201546839	 1.7929217813	 0.7638004243	 0.102562
H	 1.6369142773	-0.3047637734	 1.4334622854	 0.080939
H	-0.0386257771	-0.2761911088	 2.0208219915	 0.084607
H	-0.4863181394	-2.4161575953	 0.8076417603	 0.083533
H	 1.1932173375	-3.1513990393	-0.8784215368	 0.109171
H	 2.4494480836	-2.1935264738	-0.0605992548	 0.11233
H	 1.3712592523	-5.9193022777	 1.8889243506	 0.112948
H	 1.7555726523	-5.7868685654	 0.0936943126	 0.114476
H	 1.8406767312	-2.4196010156	 2.8230095554	 0.111635
H	 0.3867094285	-3.4428121709	 2.9133524825	 0.106107
