17
gdb 65410	3.73007	0.8857	0.81195	4.5257	81.07	-0.2558	0.0123	0.2681	1416.2107	0.133199	-380.812651	-380.803175	-380.802231	-380.847314	34.411	
C	 0.2703093956	 0.9744925992	-1.8325017883	-0.462874
C	 0.2808156751	-0.3245429254	-1.0386922988	 0.084355
C	 1.2812262876	-1.3922687419	-1.3862021223	-0.270368
N	 1.3922254338	-0.6765116554	-0.1253549856	-0.099157
C	 2.4962666064	 0.2593345312	 0.0458586805	-0.285713
C	 3.6538406915	-0.4324241235	 0.6252926339	 0.282678
N	 4.5789598398	-0.9662299836	 1.0641633899	-0.297288
C	-1.0202763352	-0.7130675801	-0.5435936153	 0.298757
C	-2.1212205037	-1.0096183343	-0.1639824315	-0.410584
H	 1.2428616948	 1.198475768	-2.2757327643	 0.122017
H	-0.4550431913	 0.8938304314	-2.6465039378	 0.145355
H	-0.0328996782	 1.8150306165	-1.2005885681	 0.138046
H	 1.0152631008	-2.4417819046	-1.3100490234	 0.136797
H	 1.9855717431	-1.1501012221	-2.1818607311	 0.118894
H	 2.8345932289	 0.7494434204	-0.8803206994	 0.135893
H	 2.1834349362	 1.0503329028	 0.7367125243	 0.163185
H	-3.0861398652	-1.2836314385	 0.1852132874	 0.200007
