18
gdb 31792	3.36843	1.27973	0.94233	1.9997	75.76	-0.1848	0.0569	0.2417	1235.0645	0.148325	-435.293691	-435.284101	-435.283157	-435.328406	33.615	
C	-0.0547505948	 1.3396480489	 0.0008405092	-0.2331
O	 0.0003054021	-0.0859571692	 0.0354256812	-0.276034
C	 0.6455004678	-0.5937606258	 1.097677126	 0.477866
N	 1.2024149459	 0.0566445134	 2.084000065	-0.381447
C	 1.7023335476	-0.9382626862	 2.9114829384	-0.15837
C	 1.4430525062	-2.1771214789	 2.3987732757	 0.215743
N	 1.774958774	-3.4948337067	 2.7720637809	-0.609596
N	 0.753486313	-1.9464600992	 1.2014172261	-0.111424
C	 0.2774343762	-2.9380584929	 0.2608904589	-0.344253
H	 0.9522187037	 1.7668312301	-0.0238524593	 0.137815
H	-0.5997577193	 1.594231983	-0.9090021806	 0.125527
H	-0.5754777944	 1.729029138	 0.8807486284	 0.137865
H	 2.2253184284	-0.6969429741	 3.8246475546	 0.094063
H	 2.6677205615	-3.5232181827	 3.2487021938	 0.249295
H	 1.082729692	-3.9172720759	 3.3840555394	 0.244148
H	-0.8012654747	-3.1042014783	 0.3589878527	 0.131923
H	 0.4845979202	-2.6106198774	-0.7602531209	 0.145658
H	 0.8029607746	-3.8724059962	 0.4642573205	 0.154322
