12
gdb 130526	4.08087	1.76407	1.23165	4.1775	68.64	-0.2786	-0.084	0.1947	894.3361	0.080899	-431.692888	-431.687255	-431.686311	-431.722842	22.272	
O	-0.0609033554	 1.2816677256	 0.0095841584	-0.234956
N	 1.3169034941	 1.7613859301	-0.001572125	 0.005534
N	 2.1010254469	 0.7885148463	-0.0134140023	-0.19495
C	 1.3859552049	-0.395376472	-0.0130817705	 0.234994
C	 0.0308100452	-0.0500349623	 0.001515253	 0.451156
N	-0.9984443639	-0.8819615586	 0.0068797629	-0.343215
C	-0.6342381604	-2.1675287474	-0.0033455912	-0.00778
C	 0.6934050203	-2.6364231632	-0.0183449744	-0.106017
C	 1.750677791	-1.7373815089	-0.0236096663	-0.196775
H	-1.4503695916	-2.8851266435	 0.0006329434	 0.130984
H	 0.8738659441	-3.7045172809	-0.0256203795	 0.120351
H	 2.7874999346	-2.0514939451	-0.0350028385	 0.140674
