15
gdb 43601	2.40271	1.39479	1.02328	2.5263	80.64	-0.2449	0.0031	0.248	1162.7996	0.109892	-379.58393	-379.575146	-379.574202	-379.617286	33.352	
N	-0.0167134673	 0.9385038579	 1.0809000681	-0.54309
C	-0.0005837105	-0.007194184	 0.2464306466	 0.406869
C	-1.1168384219	-0.852096371	-0.3554585976	-0.360886
C	 0.0420500071	-1.7400791018	-0.9735578037	-0.02466
N	 0.9762925174	-0.6946361055	-0.4781984028	-0.344665
C	 0.2026578082	-3.0349674442	-0.3130432327	 0.307766
C	 0.3500815994	-4.0858168735	 0.2503185971	-0.462831
C	 0.0288002567	-1.8858824027	-2.4272457988	 0.27592
C	 0.0002084722	-1.9961364543	-3.6227735622	-0.419703
H	 0.9242231795	 1.2711447639	 1.2985571704	 0.213216
H	-1.7481968169	-1.3714920567	 0.3637710815	 0.149031
H	-1.723877299	-0.3478526009	-1.1073530991	 0.145322
H	 1.9280389377	-0.8778630171	-0.1887982294	 0.247013
H	 0.476275093	-5.0192248045	 0.7416240484	 0.207579
H	-0.0189134755	-2.0962426256	-4.6801145059	 0.203119
