18
gdb 71469	4.13684	1.23978	1.12061	1.8821	84.27	-0.238	0.0268	0.2648	1131.3358	0.146848	-364.73215	-364.724136	-364.723192	-364.76419	31.912	
C	 0.0641124517	 1.5405315349	 0.0898940167	-0.494804
C	 0.0244874189	 0.0427810398	 0.0256817098	 0.33543
C	-1.2754184125	-0.763515125	 0.2601838249	-0.284223
C	-0.3424265419	-1.8015547379	 0.8472533809	-0.076016
N	 0.727363839	-0.8027373126	 1.1561425547	-0.219423
C	 0.9278922716	-1.817314072	 0.03865582	 0.204545
C	 0.8039752575	-0.7525198463	-1.0420637535	-0.341489
C	 1.8772542605	-2.8759103421	 0.1067462742	 0.15663
C	 2.6763804078	-3.7750722629	 0.1269741385	-0.378526
H	 1.0959125684	 1.9050083146	 0.0697084538	 0.129475
H	-0.4682450192	 1.9745434206	-0.7646622558	 0.122847
H	-0.4083515625	 1.9060112021	 1.0070414467	 0.127823
H	-1.88846678	-0.3072306123	 1.0425812291	 0.112179
H	-1.8987896222	-1.0162121204	-0.6036775714	 0.100127
H	-0.5685984655	-2.6081797272	 1.5350464961	 0.102539
H	 0.3009207182	-1.0035600095	-1.9813630258	 0.100122
H	 1.777887703	-0.3009704243	-1.2469557692	 0.116959
H	 3.3844302674	-4.5657061294	 0.1555917903	 0.185804
