19
gdb 107974	2.73689	1.39116	1.33094	2.4083	75.3	-0.2255	0.0716	0.2971	1088.8053	0.15737	-422.940694	-422.932144	-422.9312	-422.973738	32.918	
C	-0.0850514164	 1.5401776067	-0.0541629641	-0.381612
C	 0.011800516	 0.0102573161	-0.0812452739	-0.329818
C	 0.7656562318	-0.5017545991	-1.2690072894	 0.444711
O	 0.2848288639	-0.1691907588	-2.6150401816	-0.363152
C	 1.4670264279	-0.9798994218	-2.8538083321	 0.0038
C	 2.2807535074	-0.3883368501	-1.6684859981	-0.140324
C	 2.623107386	-1.7743537278	-1.0820178844	-0.349643
C	 1.1950132431	-1.9561818907	-1.6484537804	 0.316129
O	 0.3499087509	-3.0376308926	-1.5731168619	-0.466029
H	 0.9058954328	 1.9978199013	 0.0307848215	 0.115411
H	-0.5469527115	 1.9109360598	-0.9729651161	 0.141324
H	-0.6865544394	 1.8774526835	 0.7948113441	 0.112064
H	 0.5028226138	-0.3634824584	 0.8259796478	 0.107899
H	-0.9909192479	-0.4332627385	-0.0999666674	 0.123593
H	 1.7723886678	-1.1782445901	-3.8810342518	 0.089892
H	 2.8771817747	 0.5198424431	-1.6933152861	 0.09021
H	 3.4250584408	-2.3274483946	-1.580437774	 0.09324
H	 2.7305459843	-1.8360892064	 0.0043343578	 0.103905
H	 0.7689154341	-3.7930752218	-1.9996502	 0.2884
