13
gdb 21577	3.47419	2.09872	1.31243	5.7386	63.63	-0.2305	-0.0404	0.1901	856.2188	0.097311	-394.809012	-394.802127	-394.801182	-394.840095	25.216	
N	 0.0775562807	 1.3984722888	 0.1154153526	-0.60356
C	-0.0445940974	 0.0150215704	 0.0202727151	 0.424431
C	-1.1409137185	-0.8074736253	 0.040315945	-0.320859
C	-0.6010391934	-2.1226905865	-0.0168504731	 0.036875
N	 0.7116925769	-2.1411678809	-0.0756851285	-0.238875
N	 1.066842285	-0.8130876581	-0.0341127939	-0.075717
C	 2.4056577455	-0.4144885646	 0.0308512772	 0.182227
O	 3.346965418	-1.1517229012	-0.0408904964	-0.263861
H	 0.6286611173	 1.8228894204	-0.6206433926	 0.262001
H	-0.8256457292	 1.8502603283	 0.1649600818	 0.263126
H	-2.1768383956	-0.5106040972	 0.0693649683	 0.107893
H	-1.1452835206	-3.057003627	-0.0298948453	 0.125737
H	 2.4827458112	 0.6777645228	 0.1706757999	 0.100581
