23
gdb 77569	2.28057	1.43278	1.28475	1.7422	85.35	-0.2418	0.0851	0.3269	1186.2511	0.20272	-388.275992	-388.265891	-388.264947	-388.309885	38.886	
C	-0.4509101092	 1.4934250872	 0.3908542686	-0.417402
C	-0.1485802878	 0.0054127134	 0.274771926	-0.101526
C	 0.2385488282	-0.5266974659	-1.1208448295	 0.42374
C	-0.6593329359	-0.9572876656	-2.2353682474	-0.505854
O	 1.4839131718	 0.1108136922	-1.4665258888	-0.300616
C	 1.5199293509	-1.0452865669	-0.6178483811	-0.082148
C	 1.2289874415	-0.5833310284	 0.8247231427	 0.299964
C	 2.235582609	 0.4068940793	 1.4033328171	-0.449124
C	 1.0013121015	-1.7694175289	 1.7619231349	-0.450169
H	 0.3166467454	 2.0879553485	-0.1105410474	 0.132642
H	-1.4165622018	 1.7298518076	-0.0703122524	 0.110299
H	-0.502409961	 1.8104481041	 1.4377319522	 0.112536
H	-0.9767194839	-0.580637188	 0.689144559	 0.066377
H	-1.1944192726	-0.1003415495	-2.6605676863	 0.129436
H	-0.0784343443	-1.4239297541	-3.035522784	 0.132853
H	-1.4059899979	-1.6741147379	-1.8780556094	 0.121926
H	 2.1262542366	-1.8834463325	-0.9497282908	 0.088865
H	 2.4750414691	 1.1901190994	 0.6809222695	 0.1326
H	 1.8487454373	 0.8808107564	 2.3124302321	 0.109443
H	 3.1680831276	-0.1038364269	 1.6703593176	 0.107258
H	 1.9435107955	-2.2856528552	 1.9801922223	 0.111904
H	 0.5753034211	-1.4378455156	 2.7154039954	 0.116307
H	 0.3139328889	-2.5023222027	 1.3249046699	 0.110689
