14
gdb 130498	4.01492	1.6547	1.17177	3.0229	76.56	-0.2479	-0.0447	0.2032	960.8868	0.105075	-399.603982	-399.598143	-399.597199	-399.634071	23.84	
O	-0.0231234527	 1.3154099311	 0.0094284757	-0.248312
N	 1.2810365573	 1.8362438388	-0.0000823563	-0.12065
C	 2.0956794468	 0.8193706199	-0.0136402964	-0.082065
C	 1.3993309017	-0.431162398	-0.0138928587	 0.165639
C	 0.0576479456	-0.0322106147	 0.0011581076	 0.415144
C	-1.0024815114	-0.9343123448	 0.006283395	-0.257117
C	-0.6604811687	-2.2792874383	-0.0044614025	-0.094795
C	 0.6822293918	-2.7056436218	-0.0196704485	-0.10678
C	 1.724546142	-1.7930580699	-0.0245660067	-0.255957
H	 3.1604860342	 1.0067496911	-0.0227903791	 0.140077
H	-2.0317766238	-0.598389571	 0.0179965316	 0.121938
H	-1.449107991	-3.024259777	-0.001062246	 0.108665
H	 0.8979689144	-3.7682457234	-0.0276453489	 0.103799
H	 2.7574517239	-2.1226512021	-0.0362848368	 0.110412
