13
gdb 29234	3.2106	1.46698	1.00691	4.4172	66.4	-0.2182	-0.0496	0.1685	1069.653	0.089681	-489.910561	-489.90306	-489.902116	-489.942704	28.36	
O	-0.0784115322	 1.3807272835	 0.0110086675	-0.423792
C	 0.0309905497	 0.025312693	 0.0029072733	 0.175592
C	 1.1659411776	-0.6960465389	-0.0081263176	-0.036402
O	 1.1758502569	-2.045071855	-0.0155401368	-0.229179
C	-0.041945537	-2.7680405972	-0.0118083694	 0.426241
N	-0.0105627288	-4.032829623	-0.0193423985	-0.532006
N	-1.2116401153	-2.045570903	-0.0007027183	-0.375536
C	-1.1882461303	-0.7578018637	 0.0061808469	 0.406916
O	-2.3309317739	-0.0714809924	 0.0170944991	-0.384544
H	 0.8010118792	 1.7751961509	 0.0076716976	 0.304248
H	 2.1643727794	-0.2720388117	-0.0120501906	 0.132417
H	 0.9536308841	-4.3613094573	-0.0272577114	 0.223615
H	-3.0416816093	-0.7318212153	 0.0179044383	 0.31243
