18
gdb 34968	4.24338	1.37056	1.31547	1.7282	81.47	-0.2272	0.0302	0.2574	1012.475	0.149742	-364.715107	-364.708288	-364.707343	-364.74607	28.543	
C	-0.0762514432	-1.2974508336	-0.2072450545	-0.424752
C	-0.0210064911	-0.1025178422	-0.0804224659	 0.315996
C	 0.0054802594	 1.3387319114	 0.072457227	-0.160475
C	-0.2148986534	 2.0357288189	 1.4184679377	-0.059472
C	 1.0974713245	 1.8409198358	 2.3039937771	-0.061926
C	 1.3144371197	 3.3757511166	 2.2123428009	-0.241141
C	 0.6404605143	 3.1985991393	 0.8529581871	 0.013873
N	 1.3546829879	 2.0710035936	 0.0331243056	-0.167219
C	 2.0451241965	 1.3910984014	 1.1761972273	-0.164973
H	-0.1190406344	-2.3523600263	-0.3226938063	 0.196537
H	-0.6309075358	 1.7973902316	-0.6924216958	 0.107041
H	-1.1769082671	 2.1453990607	 1.9190746859	 0.074144
H	 1.0883945008	 1.3068875505	 3.2523717118	 0.071562
H	 0.65473933	 3.9398807835	 2.8781759051	 0.103461
H	 2.3353217979	 3.7628986086	 2.2787950934	 0.100342
H	 0.2719148581	 4.004196655	 0.2205437319	 0.079512
H	 3.0597780742	 1.7799126567	 1.2931805354	 0.098913
H	 2.0941618715	 0.3155463785	 1.0042854361	 0.118576
