21
gdb 40093	3.21819	1.40947	1.21943	1.3672	81.41	-0.2407	0.0785	0.3192	1102.9418	0.184511	-387.073557	-387.065854	-387.06491	-387.10595	31.088	
C	-0.4807371764	 1.3245107113	 0.1530095259	-0.324498
C	 0.9903148387	 0.9968116756	 0.0417207401	-0.330697
C	-0.0294445676	-0.1033053614	 0.0340364011	 0.382392
C	-0.1755818538	-1.216549437	 1.0824109299	-0.338113
C	-0.4612248656	-2.2281818115	-0.0704737749	 0.122333
O	-1.7856149961	-2.7177652133	-0.1549852444	-0.257525
C	-2.5924711532	-1.7096639328	-0.7565871879	-0.086798
C	-1.687359654	-1.0205560578	-1.7909094818	-0.230978
C	-0.3063283459	-1.0806130489	-1.1251697096	-0.132474
H	-0.8612598356	 1.659309995	 1.113132541	 0.111451
H	-0.9635678289	 1.7885718082	-0.7015209099	 0.110406
H	 1.495321695	 1.2335718514	-0.8900663465	 0.109497
H	 1.6100771439	 1.1129739386	 0.9256340213	 0.110539
H	 0.7324019156	-1.4321869331	 1.653371446	 0.098639
H	-1.0115651587	-1.1095647694	 1.7801014265	 0.104727
H	 0.2139416831	-3.0842313879	-0.1251479338	 0.077653
H	-3.4690990829	-2.1990571079	-1.1890498679	 0.106717
H	-2.9414086956	-0.9862344098	-0.0032517623	 0.094357
H	-1.6766206311	-1.593986536	-2.7232251185	 0.104435
H	-2.015761002	-0.0032188493	-2.0210405621	 0.099765
H	 0.508968511	-1.1787109041	-1.8451600422	 0.068171
