21
gdb 90148	3.3005	1.42116	1.28407	1.36	81.13	-0.21	0.0814	0.2914	1090.5516	0.183861	-387.053257	-387.045339	-387.044395	-387.085159	32.148	
C	-0.0933486799	 1.5870746544	 0.0249171751	-0.402849
C	 0.0483436306	 0.0715780387	-0.0011180509	-0.024208
C	 1.1245651085	-0.5807493973	-0.9503335867	-0.320308
C	 1.7255532511	-1.2620942806	 0.2814274511	 0.391099
C	 2.1812094563	-0.308732141	 1.341252335	-0.404021
C	 0.7036388736	-0.6452709806	 1.2089171115	 0.200086
C	 0.1507956758	-1.8058665188	 2.0069734187	-0.325876
C	 1.1763839824	-2.9504132453	 1.7045629597	-0.09658
O	 1.8276446586	-2.6389510035	 0.4602470679	-0.295162
H	 0.8638091092	 2.0806546812	 0.2246394998	 0.114607
H	-0.4626581839	 1.9622678067	-0.9360173574	 0.112692
H	-0.7975091767	 1.9019936947	 0.8027421531	 0.115277
H	-0.929554537	-0.3800930027	-0.1964035911	 0.075689
H	 0.6909684745	-1.295570246	-1.6515740728	 0.111541
H	 1.7875002997	 0.0978691161	-1.4966559851	 0.095623
H	 2.6926628738	-0.7472968818	 2.1908374514	 0.118083
H	 2.5398300047	 0.6821092362	 1.0773415262	 0.110358
H	 0.0591601434	-1.6432008307	 3.0856367074	 0.104368
H	-0.8420929408	-2.0700203662	 1.6272442507	 0.106142
H	 1.9236321069	-3.0139631741	 2.5071181979	 0.102476
H	 0.7118669793	-3.9354958495	 1.6021060884	 0.110965
