13
gdb 46178	1.8588	1.69023	1.32311	0.5906	72.57	-0.258	-0.0488	0.2092	1033.8365	0.084603	-419.333847	-419.325165	-419.32422	-419.36743	31.347	
O	-0.0324028685	 0.0486187024	-0.3536725494	-0.244851
C	-0.0459973424	 1.1996835526	-0.0785069208	 0.309155
C	-1.0530294626	 2.2316289749	 0.4168042907	-0.190725
O	-0.0358054555	 3.250827011	 0.4034464902	-0.295177
C	 1.0303776291	 2.370057219	-0.0707570009	-0.081837
C	 2.0892287925	 2.1889944311	 0.9067281489	 0.314427
C	 2.9386484737	 1.9982117748	 1.7344481052	-0.421014
C	 1.5156297179	 2.7317395691	-1.3910360694	 0.314387
C	 1.8806438924	 2.9993109548	-2.5037814054	-0.420995
H	-1.87806824	 2.4385542844	-0.2758233197	 0.146842
H	-1.454695811	 2.0382327789	 1.4190536828	 0.146848
H	 3.6999769022	 1.842169081	 2.4589720578	 0.211472
H	 2.2170999423	 3.2452488059	-3.48113352	 0.21147
