15
gdb 46235	2.73217	1.39177	1.10169	1.3174	74.17	-0.2417	-0.0383	0.2033	1102.0973	0.109653	-420.567408	-420.559094	-420.558149	-420.6006	30.818	
O	-0.0735788369	 0.0279410548	-0.2344955508	-0.279854
C	-0.053912903	 1.2036155818	-0.0386146813	 0.281523
C	-1.0653406571	 2.2945538224	 0.3594843067	-0.191092
O	 0.0122979603	 3.2663346094	 0.3576178573	-0.313022
C	 0.9757504595	 2.2994127927	-0.0493941225	 0.331267
C	 2.4086405865	 2.3190949252	 0.359576563	-0.352735
C	 2.0477691846	 2.6066612829	-1.0919753917	-0.293991
C	 2.346235942	 1.6733994562	-2.1344111675	 0.349999
C	 2.5996637469	 0.8903824138	-3.0109649763	-0.445896
H	-1.8339006321	 2.5162809012	-0.3891407213	 0.141435
H	-1.5224264773	 2.1778135183	 1.3478442518	 0.140244
H	 2.7297663466	 3.1614050075	 0.9620933802	 0.143028
H	 2.8733307405	 1.3656070233	 0.5845923067	 0.150676
H	 2.0667121964	 3.6577057263	-1.3684843245	 0.1358
H	 2.815971513	 0.1931476342	-3.7820311499	 0.202617
