19
gdb 10303	2.6705	1.48335	1.19735	3.0451	71.54	-0.2818	0.028	0.3097	1109.2219	0.163679	-365.089448	-365.079822	-365.078877	-365.123724	34.38	
C	 0.0503371834	 1.5753148801	 0.007752818	-0.402535
C	-0.0086775947	 0.0479982577	 0.0536887307	-0.17945
C	-1.4396309539	-0.5295831635	-0.0214063562	-0.138701
C	-2.1163917336	-0.1063072456	-1.2519614149	 0.273932
N	-2.6365354731	 0.1763608489	-2.2457340449	-0.341508
C	-1.4407677748	-2.0868873641	 0.0433062112	 0.124381
C	-2.8440155822	-2.6748918224	 0.1792891604	-0.423216
O	-0.7361714491	-2.6391020747	-1.0546456864	-0.428247
H	 1.0849473429	 1.9222142754	 0.0824284492	 0.1222
H	-0.3661190807	 1.9626419331	-0.927190394	 0.142406
H	-0.5116896278	 2.0227713509	 0.8351200174	 0.116221
H	 0.576349232	-0.3881192909	-0.7610855189	 0.13116
H	 0.4347596672	-0.3156323689	 0.988044305	 0.10444
H	-2.0254601036	-0.1488606662	 0.8256979661	 0.11933
H	-0.8466644359	-2.3585256627	 0.9233636738	 0.096945
H	-3.4720257714	-2.3928192351	-0.6732004258	 0.136847
H	-2.7837187533	-3.7653940024	 0.2171743875	 0.132627
H	-3.3358329227	-2.322082537	 1.0916554085	 0.119426
H	-1.2589171486	-2.4835339724	-1.8511972868	 0.293742
