21
gdb 58239	2.15538	1.3143	1.19907	2.8605	73.99	-0.2484	0.0552	0.3035	1198.9618	0.180527	-461.34232	-461.332426	-461.331482	-461.376997	38.099	
C	 0.9780057531	 1.1967743727	-0.2782652745	-0.429414
C	-0.1157380135	 0.2486803573	 0.2041523394	 0.114472
O	-0.4983572045	-0.6557422183	-0.8544090173	-0.442841
C	 0.2424797294	-0.5042128858	 1.5214523207	 0.033028
O	-0.8987258621	-0.6155587321	 2.3572073059	-0.443313
C	 0.8061661659	-1.8955172533	 1.2692900616	 0.412126
O	-0.2006175534	-2.7879317817	 0.8548505335	-0.484543
C	 2.2110165634	-2.1127763693	 0.7572452779	-0.342282
C	 1.8280213802	-2.4963090633	 2.1760560628	-0.317606
H	 1.9108923256	 0.6583227832	-0.4844887061	 0.119971
H	 0.6636349199	 1.7034790519	-1.1953667832	 0.129025
H	 1.1942970491	 1.9578598516	 0.4771738545	 0.131583
H	-1.0228047319	 0.818741454	 0.4269477115	 0.105668
H	 0.2990902878	-0.8641933587	-1.3538258702	 0.290082
H	 0.9768580272	 0.1001023606	 2.0680380386	 0.075798
H	-1.2907204569	-1.4740867069	 2.1453023809	 0.28634
H	-0.5722190808	-2.3876241256	 0.0510090778	 0.285899
H	 2.3509876766	-2.9199590783	 0.0468001758	 0.117875
H	 2.8688664322	-1.2612742274	 0.6185023568	 0.111577
H	 2.210139089	-1.8979381216	 2.9953838149	 0.119553
H	 1.7173296937	-3.5527104991	 2.3910093689	 0.127002
