17
gdb 7483	4.15273	1.3234	1.22338	2.8675	66.46	-0.2599	0.0146	0.2745	1033.0432	0.14081	-400.971614	-400.963342	-400.962398	-401.004711	29.587	
C	-0.0565218845	 1.6514761524	 0.0914612134	-0.441637
C	-0.0234025522	 0.1332054603	 0.0119535209	 0.336066
C	 1.0967839326	-0.4746754391	-0.874032454	-0.118201
O	 1.847577792	-0.8563544857	 0.2929847136	-0.271194
C	 0.7299232666	-0.5656141343	 1.1592607445	-0.114546
O	-1.333708039	-0.4085309809	-0.1458357183	-0.225834
C	-1.9182113584	-0.2718827227	-1.3531795911	 0.113655
N	-3.1129861929	-0.6423732236	-1.5201478423	-0.439662
H	 0.9469472158	 2.040099747	 0.2872409478	 0.136024
H	-0.416192049	 2.0924521684	-0.8438570507	 0.122008
H	-0.7214837794	 1.9711029869	 0.8992784648	 0.13902
H	 0.7679971882	-1.3445911726	-1.4577859832	 0.107755
H	 1.6543320643	 0.2141967901	-1.5185616762	 0.107607
H	 1.0186859806	 0.0542245531	 2.0145494435	 0.108662
H	 0.221216618	-1.4726297937	 1.5062369507	 0.119513
H	-1.2602626158	 0.158744154	-2.120108446	 0.090736
H	-3.391316827	-0.4921439894	-2.4876823575	 0.23003
