18
gdb 109228	4.67165	0.99829	0.89084	3.2576	73.63	-0.2437	0.0201	0.2638	1315.4628	0.147466	-439.084416	-439.075898	-439.074954	-439.118168	31.534	
O	 0.1368528561	 1.2812323126	 0.4204031932	-0.421366
C	 0.026436322	-0.0792914449	 0.0986189959	-0.13184
C	-1.4065766452	-0.4880940999	-0.0604182783	 0.380023
N	-2.3851565598	 0.3097554935	 0.0825622675	-0.340131
C	-3.6023115486	-0.4774067352	-0.155651873	-0.259937
C	-3.0790597624	-1.887386617	-0.4609756547	 0.405707
C	-3.6891441536	-3.1709467421	-0.0043551403	-0.326064
C	-3.6240776079	-2.8262111126	-1.4855224494	-0.326131
O	-1.6472247278	-1.7813776605	-0.3733275796	-0.271824
H	-0.7694721311	 1.6205279056	 0.4599066315	 0.298016
H	 0.5593699196	-0.3088148631	-0.8372927551	 0.120432
H	 0.4828748525	-0.7085643897	 0.8785867752	 0.120394
H	-4.2480841803	-0.4521866875	 0.7297352275	 0.121565
H	-4.1708045354	-0.0510157806	-0.9902914822	 0.121559
H	-3.0174668455	-3.9415285813	 0.3568017002	 0.132163
H	-4.6481559827	-3.1252874051	 0.5018651821	 0.122624
H	-4.5383692188	-2.543539453	-1.9975902867	 0.122637
H	-2.9099101212	-3.3715654791	-2.0920948637	 0.132175
