27
gdb 101818	3.70716	0.61492	0.60604	0.946	94.1	-0.246	0.085	0.331	2078.7703	0.248743	-390.705143	-390.69293	-390.691985	-390.74362	43.796	
C	 0.1013155773	 1.5080416506	 0.0466954788	-0.389755
C	-0.019162118	-0.0109231458	-0.1122214825	-0.169996
C	-1.4575531197	-0.5498380335	-0.0130883052	 0.02892
C	-2.3685804507	-0.0337210011	-1.1348787605	-0.388952
C	-1.4370998284	-2.0801015684	 0.0057829658	-0.063649
O	-2.7476187505	-2.5551731744	 0.2351145165	-0.263074
C	-2.8701060297	-3.9616430324	 0.4100885258	 0.163482
C	-4.2275473406	-4.1964477814	 1.0645064059	-0.387291
C	-2.733559422	-4.7211156941	-0.9137886285	-0.39264
H	 1.1500531911	 1.8207929757	 0.0278462595	 0.11061
H	-0.4153614697	 2.0448638942	-0.7544120609	 0.11945
H	-0.3273002654	 1.8398454198	 0.9991555805	 0.113624
H	 0.4115040444	-0.3121094525	-1.0774175737	 0.091869
H	 0.5939322403	-0.4965466832	 0.6584398166	 0.090276
H	-1.8799079299	-0.228728384	 0.9495934807	 0.07597
H	-1.9497543003	-0.2788164134	-2.1192017591	 0.103725
H	-3.354995294	-0.4970500523	-1.0638847174	 0.130269
H	-2.4963832648	 1.0512620378	-1.0875162686	 0.109349
H	-1.0369668469	-2.4548475405	-0.9515151059	 0.081312
H	-0.7623449248	-2.4396772142	 0.8016713217	 0.077072
H	-2.0766729808	-4.3023472698	 1.0979288718	 0.060452
H	-5.0298613703	-3.8507398273	 0.4047529329	 0.121232
H	-4.3817416565	-5.2602068102	 1.2684963743	 0.109932
H	-4.297682686	-3.6445520162	 2.0054220027	 0.118939
H	-2.8523298498	-5.7970505128	-0.7501411397	 0.112395
H	-3.5036205463	-4.3916173116	-1.619036125	 0.120598
H	-1.7550584678	-4.5631727591	-1.3757939366	 0.11588
