17
gdb 55511	3.41375	0.97513	0.76571	3.5768	73.33	-0.2422	-0.0768	0.1654	1453.9466	0.133289	-455.201484	-455.191419	-455.190475	-455.237861	34.5	
C	-0.0529459959	 1.5233218916	-0.2045746182	-0.49827
C	-0.1000076367	 0.0593395817	 0.2101780027	 0.409855
O	-0.2447161201	-0.3085076677	 1.3482921229	-0.300515
N	 0.0424939982	-0.8035364526	-0.8783479015	-0.357093
C	 0.0498673025	-2.1865199711	-0.906317657	 0.247763
N	-0.0803170895	-2.9317637022	 0.1186212703	-0.455595
C	 0.2368650236	-2.6845111603	-2.3457129297	 0.363281
C	 0.2716097645	-4.1762446355	-2.5846753706	-0.504969
O	 0.3510329244	-1.8818807504	-3.2468524318	-0.309952
H	 0.8943958909	 1.7591656124	-0.7009224688	 0.142373
H	-0.8620053664	 1.7558149987	-0.90525032	 0.143057
H	-0.1583010415	 2.1406351673	 0.6865164189	 0.154301
H	 0.1600018557	-0.3985096854	-1.7985277198	 0.265294
H	-0.042620594	-3.9127566675	-0.153178699	 0.224858
H	-0.6598828772	-4.6455557689	-2.2511548541	 0.159953
H	 0.4086695037	-4.3575582177	-3.6505242967	 0.155659
H	 1.0916784878	-4.6405431423	-2.0269024075	 0.16
