17
gdb 8014	3.28782	2.09249	1.57868	2.9839	69.51	-0.2553	0.0284	0.2836	858.9368	0.142564	-363.858705	-363.851457	-363.850513	-363.889979	28.034	
C	-0.1894700232	 1.5783825776	 0.1138964777	-0.479274
C	 0.0565323179	 0.0967919316	 0.1112031783	 0.446245
C	-1.1071339771	-0.9237645462	 0.0683337116	-0.275762
C	-0.3960180661	-1.773993084	 1.16622364	-0.228798
C	 0.7786773777	-0.7472583856	 1.2079403823	-0.21603
C	 1.8000133196	-0.9897944549	 0.1266923336	 0.429355
N	 2.8931080651	-1.6026648154	 0.0632177378	-0.55371
O	 1.1099779378	-0.2879939877	-0.8459568204	-0.298278
H	 0.7402798517	 2.1286138059	 0.2852243909	 0.132496
H	-0.6046115631	 1.8980635225	-0.848273152	 0.134662
H	-0.9044806925	 1.8462990135	 0.897859927	 0.124275
H	-2.0636449331	-0.5051027659	 0.3912291404	 0.107573
H	-1.2389168912	-1.3960368594	-0.9068533368	 0.11765
H	-0.9507470965	-1.8076182777	 2.1055417019	 0.112563
H	-0.1110058226	-2.7914665571	 0.8939092101	 0.123839
H	 1.1263274181	-0.3768733929	 2.1702481309	 0.098399
H	 3.2923786874	-1.5487547343	-0.8757958932	 0.224794
