20
gdb 9372	5.0625	0.77494	0.69722	1.2317	77.8	-0.2586	0.0569	0.3156	1597.6632	0.174259	-348.970958	-348.960789	-348.959845	-349.006497	35.967	
C	-0.0847514511	 1.5790601922	 0.1229698704	-0.386322
C	 0.0300474924	 0.0447219098	 0.0153863812	-0.160962
C	 0.7310312472	-0.4201633934	-1.2852662116	-0.181046
C	-0.0291359614	-0.0646697691	-2.5661823977	-0.176912
C	 0.6295118308	-0.6442712732	-3.8118542471	-0.078332
O	-0.1360624995	-0.2414901027	-4.9374564993	-0.421652
C	 0.7234398079	-0.4991500851	 1.1830114753	 0.317755
C	 1.3145058507	-0.9369908686	 2.1342939879	-0.462262
H	 0.9070181345	 2.0411719676	 0.0929247558	 0.123782
H	-0.6814489457	 1.9855461778	-0.6976615068	 0.120933
H	-0.5610498815	 1.8636035933	 1.064574019	 0.126142
H	-0.9883780672	-0.3701025695	 0.0077681756	 0.104901
H	 1.7399961939	 0.0109960405	-1.3115011993	 0.104498
H	 0.8637390618	-1.50707721	-1.2293723716	 0.106105
H	-1.0588019287	-0.4405293259	-2.5124667038	 0.104715
H	-0.0978432431	 1.0208562667	-2.6950257508	 0.111519
H	 1.6682533775	-0.2817059003	-3.8853727594	 0.084984
H	 0.6748080971	-1.7429082146	-3.7320024341	 0.085245
H	 0.2726574479	-0.6087804476	-5.726465466	 0.285518
H	 1.8252080865	-1.3287842682	 2.9786523622	 0.191393
