16
gdb 112314	2.98141	1.41785	1.06576	4.4333	65.65	-0.2551	-0.0018	0.2533	1111.9027	0.124637	-475.022085	-475.014189	-475.013244	-475.054955	28.914	
C	-0.2045049504	 1.307659183	 0.1027121752	-0.24484
O	-0.0723857752	-0.1079163589	 0.0893245004	-0.225919
C	 0.7445692124	-0.6071775346	 1.0738085563	 0.251684
O	 0.1738719114	-0.3967791697	 2.3931575106	-0.262387
C	 0.1708339304	-1.5369660513	 3.1453249562	 0.488515
O	-0.0924092688	-1.545645977	 4.3105969862	-0.340362
C	 0.573320198	-2.6874865524	 2.2626415008	-0.204668
N	-0.3682178281	-2.8075120205	 1.1171487113	-0.30959
C	 0.9106452691	-2.1102227161	 0.9447939755	-0.10787
H	 0.7776304286	 1.7980669026	 0.0347143542	 0.110813
H	-0.7998380862	 1.573823167	-0.7720594601	 0.136568
H	-0.7127154746	 1.6496828218	 1.0103435283	 0.142885
H	 1.7183240086	-0.0914907365	 1.0831698005	 0.081839
H	 1.0364336019	-3.5612754401	 2.7012394046	 0.123843
H	-0.2858914578	-3.7482275483	 0.7361519018	 0.245906
H	 1.6815081706	-2.5084933591	 0.2965599981	 0.113583
