21
gdb 122120	3.62144	0.68497	0.60721	3.805	76.91	-0.2528	-0.0346	0.2182	1863.5708	0.179382	-461.361529	-461.350689	-461.349745	-461.398759	37.269	
C	 0.0145235869	 1.4970289115	-0.0312280818	-0.386413
C	 0.0389737014	-0.0168855708	 0.0854884817	-0.033206
O	-1.2874062685	-0.5003381526	-0.0344038177	-0.247995
C	-1.3844029156	-1.903419597	 0.0548240739	-0.084041
C	-2.8648621704	-2.2928625017	-0.0282463448	-0.123622
C	-3.075188671	-3.8094311154	-0.1685076395	-0.074437
O	-4.4258781219	-4.1501092463	-0.382210965	-0.42753
C	-3.6270494458	-1.7245374935	 1.1540917607	 0.161272
O	-4.5049354832	-2.3113197553	 1.7466305019	-0.268631
H	 1.027295992	 1.9009164796	 0.056719788	 0.119644
H	-0.3983710669	 1.8011828114	-0.9970461215	 0.130156
H	-0.602858685	 1.933601359	 0.7589539553	 0.128385
H	 0.6713169837	-0.4580340578	-0.7027341686	 0.091408
H	 0.4670585753	-0.3264690147	 1.0534226988	 0.09094
H	-0.828385604	-2.3875963105	-0.7652085182	 0.099485
H	-0.9404395081	-2.2634168542	 0.9995134063	 0.094908
H	-3.2766854657	-1.7964365448	-0.9199036932	 0.12547
H	-2.5146380417	-4.174262203	-1.0361706708	 0.107698
H	-2.6639863632	-4.3147736077	 0.7211775253	 0.09139
H	-4.8958908143	-3.8448146571	 0.4054362973	 0.294707
H	-3.3242291939	-0.7025451792	 1.458363962	 0.110412
