16
gdb 98646	4.65384	0.89755	0.83874	4.4515	66.65	-0.2559	-0.0047	0.2512	1364.6319	0.12313	-475.072597	-475.063524	-475.062579	-475.108031	31.208	
C	-0.0882465811	 1.3853585644	 0.0353449564	-0.241965
O	 0.0253313139	-0.0439862656	-0.0385235163	-0.232025
C	 0.6275233613	-0.519702165	-1.1415989916	 0.439008
O	 1.0702114697	 0.162942452	-2.0293306394	-0.357561
C	 0.6684308481	-2.0360746486	-1.1036968652	-0.091404
C	-0.6411635391	-2.7504594432	-1.575690587	-0.39076
C	 0.2101682621	-3.227186775	-2.7798721152	 0.431347
O	 0.0092178595	-3.8418886231	-3.7880561639	-0.340396
N	 1.3438815831	-2.6477283402	-2.2422208864	-0.307711
H	 0.9007588767	 1.8495013317	 0.0171635706	 0.145572
H	-0.6727594568	 1.767796513	-0.8049221502	 0.145964
H	-0.5921166198	 1.5937401616	 0.9787266243	 0.139265
H	 1.035013687	-2.3651909412	-0.1267327081	 0.113888
H	-1.0059282102	-3.5402238499	-0.9182570236	 0.141638
H	-1.4627229929	-2.087110224	-1.8500555589	 0.144037
H	 2.1922515485	-2.350658397	-2.7031534053	 0.261102
