23
gdb 84495	2.88231	1.33528	1.09677	0.1799	91.84	-0.218	0.0261	0.2442	1229.3589	0.206148	-351.160488	-351.151523	-351.150579	-351.19355	36.008	
C	-0.1542543389	 1.5783689468	-0.0403032193	-0.409207
C	 0.071984419	 0.0633648608	 0.0011167298	-0.022668
C	 0.8835472986	-0.4880509379	-1.1556602928	-0.084557
C	 1.6682933662	-1.4941566839	-0.77246648	-0.145622
C	 1.5304045781	-1.7598383546	 0.6858534374	 0.365067
C	 1.1938995614	-3.1638135753	 1.1607246488	-0.318271
C	 2.5428959887	-2.5655827143	 1.4609499016	-0.326622
C	 0.828113648	-0.506766494	 1.2502357473	-0.102975
C	 1.8427284302	 0.4793021963	 1.8462268218	-0.386863
H	 0.7872172811	 2.1343422884	-0.0680627245	 0.119204
H	-0.7231862918	 1.8497750425	-0.9361747819	 0.109305
H	-0.7262196809	 1.9226228528	 0.8280005841	 0.1112
H	-0.9228233073	-0.408956998	-0.0325744	 0.079535
H	 0.7756553056	-0.121354855	-2.1709569781	 0.08582
H	 2.3062188484	-2.0896346611	-1.4173810231	 0.089151
H	 0.488059974	-3.2640132182	 1.9792018998	 0.110481
H	 1.1305008342	-3.9527202029	 0.4184075834	 0.10881
H	 3.4079671741	-2.9471001541	 0.9275206857	 0.108804
H	 2.751114924	-2.2761137169	 2.4856881986	 0.110042
H	 0.1111240574	-0.7803544325	 2.0322514251	 0.062917
H	 2.5874287692	 0.780144637	 1.1020393593	 0.119606
H	 1.3540296593	 1.3825629572	 2.2227900592	 0.109494
H	 2.3786631615	 0.022634267	 2.6833538277	 0.10735
