21
gdb 39916	3.12236	1.56319	1.37484	0.236	88.11	-0.217	0.022	0.239	1037.6012	0.185549	-349.940893	-349.933731	-349.932787	-349.971998	30.681	
C	-0.0294802405	 1.5177550755	 0.0154282108	-0.324558
C	 1.2995029873	 0.8124099473	-0.0027769297	-0.324556
C	 0.0177953918	 0.0023409378	-0.0010766523	 0.399971
C	-0.3634385119	-0.7476486323	 1.2268605514	-0.132269
C	-0.9878096049	-1.9206566888	 1.0940191544	-0.09137
C	-1.2717566344	-2.4194970811	-0.3081846658	-0.060465
C	 0.0226364019	-2.2373374894	-1.1632495117	-0.226966
C	-0.3930940488	-0.7391473169	-1.2688058439	-0.102402
C	-1.8643381438	-1.2358609848	-1.1374157154	-0.226967
H	-0.3398508214	 2.0085561759	 0.9318579649	 0.11109
H	-0.357021492	 2.0183605044	-0.8902320339	 0.111747
H	 1.8781507313	 0.8320364998	-0.9208688649	 0.111747
H	 1.8994075549	 0.8201168377	 0.9011657533	 0.11109
H	-0.1224511531	-0.3185705205	 2.195792521	 0.082254
H	-1.2901176013	-2.5123854301	 1.9518770567	 0.084204
H	-1.783288959	-3.3828887006	-0.3250405588	 0.055894
H	 0.9787939398	-2.4773211385	-0.6924080521	 0.095089
H	-0.0563559975	-2.7388590479	-2.1316370183	 0.090575
H	-0.1094854024	-0.1816329883	-2.1657656623	 0.050228
H	-2.2560593005	-1.5714053001	-2.1015230073	 0.090575
H	-2.5886705655	-0.5839578891	-0.6435675459	 0.095089
