19
gdb 121778	2.77995	0.83629	0.67018	1.3163	84.44	-0.2584	0.0352	0.2936	1688.0233	0.15468	-385.808651	-385.797911	-385.796967	-385.845358	37.83	
C	 0.0651173721	 1.5099338055	 0.0465942559	-0.385313
C	-0.0106172683	-0.0069546164	 0.0333468177	-0.031039
O	 0.7179867783	-0.502084295	 1.1412205851	-0.239966
C	 0.7205062953	-1.9020421924	 1.2257676573	-0.053536
C	 1.4613844218	-2.2946370999	 2.525627684	-0.35844
C	 0.7461593561	-1.832229063	 3.7189108202	 0.359705
C	 0.1552323967	-1.4602949645	 4.695403926	-0.467323
C	 1.6906721137	-3.7419603007	 2.5590717318	 0.319095
C	 1.8723001885	-4.9288428409	 2.552654176	-0.446919
H	 1.1042716638	 1.8430113524	-0.0255854987	 0.127464
H	-0.4930648704	 1.9259031599	-0.7973543487	 0.115699
H	-0.3581686127	 1.9055362124	 0.9739630675	 0.131443
H	-1.058649891	-0.3449146593	 0.0905149738	 0.091292
H	 0.40723118	-0.4089370044	-0.9051284943	 0.08758
H	-0.3021207647	-2.308386774	 1.2504949397	 0.105649
H	 1.2455308767	-2.3552418539	 0.3700595519	 0.099671
H	 2.4345282764	-1.7848922948	 2.4872919227	 0.146085
H	-0.3633725644	-1.1284401513	 5.5604898735	 0.198931
H	 2.0365786522	-5.9779544696	 2.5630545186	 0.199921
