14
gdb 113611	3.60774	0.7117	0.62644	3.6764	78.01	-0.2834	-0.0637	0.2197	1667.9972	0.09946	-436.635997	-436.627116	-436.626172	-436.670859	30.741	
O	-0.064290319	 1.4556732432	-0.3600689239	-0.408876
C	-0.0188962719	 0.2116713222	 0.3117105404	-0.101077
C	-1.3508413915	-0.4917444747	 0.2250764231	 0.0524
O	-1.6476841013	-1.1126863716	-1.0284397567	-0.234592
C	-1.4906220464	-1.9638618725	 0.1155616453	-0.19688
C	-0.3616041424	-2.8515090139	 0.1279709518	 0.117448
C	 0.5568362566	-3.6367706793	 0.1539101923	 0.097699
C	 1.601866324	-4.5141461806	 0.1827745571	 0.208598
N	 2.4921531926	-5.2599395693	 0.2095000605	-0.327248
H	-0.2192318886	 1.2734631073	-1.293702423	 0.297333
H	 0.7707674284	-0.4433790952	-0.0807850333	 0.111755
H	 0.2129350928	 0.4329632432	 1.3588910128	 0.126164
H	-2.1929909486	 0.0477392532	 0.6603092331	 0.119209
H	-2.4174901446	-2.4110996321	 0.4737009005	 0.138066
