18
gdb 42400	2.94025	1.15817	0.9555	2.6791	73.4	-0.2462	0.0035	0.2497	1260.9012	0.146833	-439.057214	-439.048421	-439.047477	-439.091772	31.399	
O	-0.4055359505	-0.1833621301	 0.6779592864	-0.347857
C	-0.1094026484	 0.9910605375	 0.6912224929	 0.374399
C	 1.3096323333	 1.4684601446	 0.9912173704	-0.330739
C	 2.2355655639	 1.0335825944	-0.1246016891	 0.104651
O	 2.1476011767	 1.7856268205	-1.3420720654	-0.235615
C	 3.3546117744	 1.8657034927	-0.5776169198	-0.182146
N	-1.0313425115	 2.009771088	 0.480784704	-0.080989
C	-0.9659157248	 2.959554926	-0.6210716357	-0.243307
C	-2.0553844308	 1.9292611149	-0.53333044	-0.218343
H	 1.3472289325	 2.5532921283	 1.1145100074	 0.115453
H	 1.6289982311	 0.9947292184	 1.9257562212	 0.134276
H	 2.2900619544	-0.0439000819	-0.2752000819	 0.118159
H	 3.5387565076	 2.8245207792	-0.0946577688	 0.117
H	 4.2267353775	 1.4019004697	-1.0356664378	 0.121774
H	-1.1820237276	 3.9931966124	-0.3640560651	 0.124173
H	-0.178876854	 2.8149337658	-1.3558887173	 0.160692
H	-2.0118181907	 1.0758806733	-1.2042246849	 0.141273
H	-3.0531067932	 2.2297512662	-0.2271597164	 0.127143
