22
gdb 105041	2.62249	1.24369	1.11611	2.9681	81.07	-0.2439	0.0676	0.3115	1226.2751	0.193895	-404.307876	-404.298431	-404.297487	-404.342034	36.648	
C	 0.0046878383	 1.3719739461	 0.6368680084	-0.465413
C	-0.0125097284	-0.0264752253	 0.0372711211	 0.293144
C	 0.9604968886	-0.2914421598	-1.0867393532	-0.331388
C	 1.1995927495	-0.8997769445	 0.2743948877	-0.297498
C	-1.3783815206	-0.6757346726	 0.039241024	 0.230689
C	-1.9740587131	-0.9218481701	 1.4287972087	-0.117082
O	-3.1694234179	-1.663686534	 1.3693863497	-0.426918
C	-2.307381292	-0.4378511042	-1.0948411094	-0.269855
N	-1.7152557096	-1.7750020393	-0.8809274187	-0.386996
H	 1.0088391101	 1.8032580038	 0.5841576425	 0.113955
H	-0.6771085693	 2.0394923981	 0.0982629799	 0.121406
H	-0.2939284613	 1.3671247536	 1.6900351487	 0.126824
H	 0.6879892839	-0.9536393854	-1.902481896	 0.104915
H	 1.5903743634	 0.5342600183	-1.4003467377	 0.115096
H	 2.0077498123	-0.5078823087	 0.8827086549	 0.114547
H	 1.0422899248	-1.9683733875	 0.3772894854	 0.118132
H	-1.2114946462	-1.4288845749	 2.0451540979	 0.085043
H	-2.208266997	 0.0305755822	 1.9164508186	 0.10646
H	-3.0101190702	-2.3363138376	 0.6895635203	 0.291197
H	-3.3768688763	-0.3877695106	-0.9168971885	 0.130886
H	-1.9403105845	 0.1514264796	-1.9307368969	 0.112277
H	-0.9757982344	-1.9562682873	-1.5520707774	 0.230579
