16
gdb 47247	2.40919	1.74244	1.20359	5.6486	74.72	-0.2215	-0.0162	0.2053	1030.0112	0.126685	-434.095703	-434.087757	-434.086812	-434.128374	30.125	
N	-0.1613209784	 1.3304246957	-0.3154026135	-0.494959
C	-0.0234800105	 0.113063685	 0.0291546629	 0.242815
N	 1.1997322972	-0.5266819705	 0.2479516698	-0.339154
C	 1.4741665887	-1.7103316624	 0.9308269692	 0.021522
C	 0.6873045687	-2.2686048378	 1.8547077261	-0.110569
C	-0.6027146167	-1.6117813052	 2.2764232378	-0.24504
N	-1.5516181386	-1.4519482164	 1.1771655649	-0.299953
C	-1.2907607826	-0.7584604926	 0.0338349771	 0.389555
O	-2.0121901403	-0.7872858876	-0.9396439517	-0.34723
H	 0.7366861545	 1.8206262267	-0.3384732675	 0.204161
H	 2.0004203062	-0.0143964333	-0.093207492	 0.247996
H	 2.4202973144	-2.1608434757	 0.6477231905	 0.115324
H	 0.9753654445	-3.218617534	 2.287013724	 0.103128
H	-1.099306889	-2.188622964	 3.0579898379	 0.123272
H	-0.393234739	-0.6213804023	 2.7040763684	 0.138676
H	-2.3355025789	-2.0848238556	 1.1059632961	 0.250453
