20
gdb 61774	2.37235	1.03241	0.95728	3.6579	82.2	-0.2498	0.0238	0.2736	1365.423	0.168158	-403.149104	-403.138492	-403.137548	-403.185016	38.202	
C	-0.0303397255	 2.0108419929	-0.2885782424	-0.428147
C	-0.0930414512	 0.5244722099	 0.0573489116	 0.054957
N	-1.4855055688	 0.1198704043	 0.2308980421	-0.281573
C	-1.8535139164	-0.9609938967	 0.9665455041	 0.146417
O	-1.0818694755	-1.7135821059	 1.5248246501	-0.324854
C	 0.6299745824	-0.4006218634	-0.9750734767	-0.160591
C	 0.0235297884	-0.3396151715	-2.3899243399	-0.399295
C	 2.0618818086	-0.1131333574	-0.9969467296	 0.325252
C	 3.2368160007	 0.1430816679	-1.0165582615	-0.465391
H	 1.0070799118	 2.3166509832	-0.4391117175	 0.14769
H	-0.5840673055	 2.2360883945	-1.2071433333	 0.116982
H	-0.4555858147	 2.6112711284	 0.5206832065	 0.12432
H	 0.4035122751	 0.3540444401	 1.0173124443	 0.120778
H	-2.2086539183	 0.6746137305	-0.1990446226	 0.246717
H	-2.9546855535	-1.0824282658	 1.0064014261	 0.076499
H	 0.4965166244	-1.4174534859	-0.5868526491	 0.137506
H	 0.4922176507	-1.0869431984	-3.0345683456	 0.132176
H	-1.0497240567	-0.547683139	-2.3509897146	 0.110364
H	 0.1765238896	 0.6398816828	-2.8513042756	 0.124769
H	 4.2783185642	 0.3496987391	-1.0306309466	 0.195423
