17
gdb 82970	3.03376	1.85432	1.55779	1.8108	73.25	-0.2293	-0.0179	0.2114	890.9609	0.1375	-421.759028	-421.752391	-421.751447	-421.789776	27.475	
O	 0.2029665845	 1.3503391093	-0.298294291	-0.421289
C	 0.0828572365	-0.0019724385	-0.016682681	 0.093858
C	-1.3408918332	-0.7078846242	-0.0836738302	 0.069502
O	-2.0602042242	-0.4740127622	-1.3257841092	-0.334097
C	-1.6094675836	-1.7520812369	-1.9180189685	 0.123058
C	-0.6509517463	-1.5565660685	-3.1119819096	-0.265342
C	 0.4862256407	-0.8119247765	-2.4154855702	-0.144655
C	 0.4422802779	-1.0288078265	-1.0943361387	 0.06434
C	-0.7064296535	-1.9632758115	-0.6998117563	-0.144759
H	-0.2777301187	 1.4979468352	-1.1238324686	 0.288882
H	 0.5102466945	-0.1765177492	 0.9769646596	 0.101299
H	-1.9909082342	-0.6500911442	 0.7936569786	 0.082372
H	-2.4666033758	-2.4097940356	-2.0945034144	 0.074134
H	-0.3917236761	-2.5247070941	-3.5633746293	 0.10992
H	-1.0941798064	-0.9410068535	-3.9024641944	 0.11724
H	 0.9959274127	 0.0248547893	-2.8812746461	 0.101456
H	-0.5317953049	-2.9143636623	-0.2032998908	 0.084082
