20
gdb 86036	3.64332	0.95121	0.89849	1.7427	81.97	-0.2101	0.038	0.2481	1383.8652	0.168027	-403.085881	-403.076112	-403.075168	-403.120544	36.593	
C	 0.0824704577	 1.5338878483	 0.1286650012	-0.319844
N	 0.1118306177	 0.0921167246	 0.0775456862	-0.062415
C	 1.0478994784	-0.5649508477	-0.8515891932	-0.205887
C	 1.3502376058	-1.6276811605	 0.2296699328	 0.402774
O	 0.6109334355	-2.7965054821	-0.0353042031	-0.482688
C	 2.830093552	-1.9637735042	 0.4839296493	-0.403746
C	 2.975828037	-2.874089746	 1.6148651764	 0.26679
C	 3.0226392164	-3.6357582824	 2.5449146479	-0.43109
C	 0.6637359589	-0.6468900796	 1.2277921059	-0.212119
H	 1.0744454978	 1.9867382817	 0.3284938515	 0.082825
H	-0.284790546	 1.9332825804	-0.8228776512	 0.121196
H	-0.6033746658	 1.8642520239	 0.9160919267	 0.121373
H	 0.5964742446	-0.9441369651	-1.7737458764	 0.11367
H	 1.9325039546	 0.0454838181	-1.0999213382	 0.07663
H	 0.7616250855	-3.4047201999	 0.6997675354	 0.281711
H	 3.2403901115	-2.4292011246	-0.4211384755	 0.139264
H	 3.4007357903	-1.045548334	 0.6623459863	 0.128813
H	 3.0997243821	-4.3008202479	 3.3694015198	 0.201948
H	 1.3908576064	-0.0682519871	 1.8216030704	 0.078436
H	-0.0855996706	-1.0798381059	 1.8989741877	 0.10236
