19
gdb 22736	2.37684	1.41161	0.99996	1.0612	80.98	-0.2162	0.0024	0.2187	1227.5867	0.15794	-419.127586	-419.118439	-419.117495	-419.161412	34.57	
C	-0.6719227764	 1.2916707308	-0.0079784085	-0.379496
C	 0.0653983165	-0.03955464	-0.0298893089	-0.048084
N	 1.375120951	-0.0133739616	-0.7787427146	-0.395043
C	 2.0885767391	-0.5269926846	 0.4104651019	 0.292415
C	 3.1500623187	-1.5934946874	 0.4430712754	-0.328438
C	 3.4902293114	-0.1677123656	 0.8125685519	-0.299595
C	 0.8407964888	-0.4522660057	 1.2122318071	 0.329195
N	 0.6179862249	-0.6650654079	 2.4393657378	-0.26588
O	-0.7458874713	-0.4798619796	 2.7475779435	-0.395306
H	-0.0077793385	 2.0909587598	 0.3313614818	 0.123614
H	-1.023515929	 1.5442407263	-1.0133478894	 0.115527
H	-1.5316082001	 1.2374788111	 0.6650837075	 0.133105
H	-0.6080740382	-0.8405107187	-0.3634984241	 0.094522
H	 1.385194925	-0.6754806462	-1.5489114053	 0.218044
H	 3.0898837424	-2.3382157587	 1.2294745999	 0.130221
H	 3.5075541638	-1.9663168957	-0.5121361735	 0.116118
H	 4.0626276918	 0.4171733252	 0.1006867374	 0.123181
H	 3.664699164	 0.0690439884	 1.8565181248	 0.128868
H	-0.764861764	-0.6570078198	 3.6939240254	 0.307031
