19
gdb 126721	3.24825	1.10383	0.89025	1.8171	81.29	-0.1773	0.0412	0.2185	1349.0782	0.160824	-415.405835	-415.396184	-415.39524	-415.440975	35.08	
C	 0.21279144	 1.4986822486	 0.0945793627	-0.36957
C	-0.1028781549	 0.0190892998	-0.1398023054	-0.136443
N	 0.6237122947	-0.5482807812	-1.2560478848	 0.047451
C	 1.760039725	-1.2989073261	-1.2253193844	-0.10782
C	 2.1541170486	-1.4925525398	-2.5336616799	 0.095458
N	 3.2736514928	-2.1586538501	-3.0801092151	-0.62337
C	 1.180973539	-0.7974372271	-3.2942517938	 0.348035
N	 1.1180960218	-0.7720776633	-4.6925101152	-0.600432
N	 0.2629277017	-0.2259823748	-2.5220346017	-0.354116
H	 1.2721729469	 1.6401415528	 0.3292422633	 0.120472
H	-0.0219610791	 2.0780023679	-0.801629398	 0.143194
H	-0.3811740261	 1.887365617	 0.9280144154	 0.112792
H	 0.1434444673	-0.5756154808	 0.7455116	 0.110801
H	-1.1710851359	-0.1113624794	-0.3395487286	 0.125116
H	 2.1873266411	-1.6396389175	-0.2947899429	 0.113506
H	 3.8067388948	-2.6487036743	-2.3722494324	 0.237025
H	 2.9885017727	-2.8349457816	-3.782249853	 0.244803
H	 2.02211346	-0.5648455084	-5.1026325199	 0.246455
H	 0.4330669796	-0.0982690016	-5.0129504765	 0.246642
