14
gdb 3558	5.16949	2.94387	2.61934	1.6581	55.92	-0.247	0.0618	0.3088	569.4784	0.115292	-324.510378	-324.504877	-324.503933	-324.539333	21.639	
O	-0.0342242645	 1.488471732	-0.0695705748	-0.435468
C	-0.0272843068	 0.0813617246	-0.0845637356	 0.139467
C	-1.3695438036	-0.602938425	-0.1607510985	-0.06651
C	-1.7483087624	-0.7430641306	-1.5974511667	-0.030337
C	-0.6671154176	-0.1108770379	-2.4564275216	-0.230757
C	 0.282290367	-0.6872802778	-1.3927847798	-0.062345
N	-0.8011523715	-1.7379530119	-0.9840361754	-0.169412
H	 0.8532629784	 1.7984036986	 0.136061637	 0.285612
H	 0.5575985009	-0.3353926207	 0.7453972443	 0.081874
H	-2.0694782513	-0.7885360599	 0.6454264611	 0.094714
H	-2.7513685909	-1.0355787713	-1.8867681157	 0.09616
H	-0.5656241159	-0.6373062544	-3.4083960264	 0.108285
H	-0.6686146442	 0.9714064173	-2.6100319489	 0.110794
H	 1.2898541325	-1.020370073	-1.6351051691	 0.077924
