18
gdb 31039	2.5412	1.21134	0.86805	0.5403	75.33	-0.1608	0.0578	0.2187	1330.7576	0.146216	-439.118055	-439.108126	-439.107182	-439.153057	35.86	
C	 0.0436710686	 1.547123323	 0.2303404374	-0.355316
C	-0.017253184	 0.0571034575	-0.1497590871	-0.314205
C	-1.3946392798	-0.5335793011	-0.081584252	 0.165294
C	-2.189704122	-0.9009119853	-1.133918241	 0.278611
O	-2.0279005801	-0.8888978753	-2.4866412351	-0.441401
N	-3.3883701437	-1.3804838521	-0.6565435816	-0.345332
C	-3.365391789	-1.3219233001	 0.7157015466	 0.381371
O	-4.4738724884	-1.763064918	 1.3699244725	-0.439466
C	-2.1648822709	-0.8080285603	 1.1151826296	-0.399167
H	 1.0698653786	 1.9276462443	 0.1856985345	 0.103618
H	-0.5760705506	 2.1479688042	-0.4427857932	 0.113584
H	-0.3309653646	 1.7033073351	 1.2467452891	 0.119026
H	 0.3932311363	-0.0690034851	-1.1624308427	 0.070246
H	 0.662243757	-0.5048169894	 0.50501049	 0.105286
H	-1.1552280597	-0.53188482	-2.6776640102	 0.302845
H	-4.146677046	-1.727438814	-1.2171475203	 0.268833
H	-4.3227977803	-1.6580461891	 2.3137629981	 0.30469
H	-1.8461901013	-0.6430819944	 2.1334275754	 0.081481
