18
gdb 121203	2.54565	0.9852	0.76752	5.4753	72.15	-0.2787	-0.0008	0.2778	1454.9969	0.146738	-439.063879	-439.054406	-439.053462	-439.099494	32.83	
O	-0.0327919868	 1.4465661808	 0.0694547071	-0.415174
C	 0.0326014105	 0.0324984395	 0.0457027889	-0.078225
C	-1.3978434396	-0.4927998104	-0.0248663854	-0.204493
C	-1.4501291447	-2.0121411305	-0.0482861877	-0.062172
C	-1.1619332519	-2.7874719056	 1.258611692	-0.081528
O	-2.421229537	-3.4969451508	 1.1699376183	-0.27027
C	-2.833080695	-2.7325224513	 0.0247038493	-0.031568
C	-4.0010722768	-1.8873338486	 0.3019600547	 0.289906
N	-4.920357288	-1.218215065	 0.5090249936	-0.324501
H	 0.8628552999	 1.7921069951	 0.1249218884	 0.289488
H	 0.6045905488	-0.3299797081	-0.8248838825	 0.08737
H	 0.5319942802	-0.3607859992	 0.947204978	 0.089668
H	-1.9604333275	-0.1044977186	 0.8312818021	 0.13153
H	-1.8751733366	-0.0852511323	-0.9234678819	 0.123577
H	-0.872609977	-2.4022131688	-0.8909144569	 0.096789
H	-0.3111340091	-3.4758786313	 1.2502859886	 0.115557
H	-1.1158780059	-2.1614419139	 2.1585997969	 0.116415
H	-3.0704147436	-3.3777374408	-0.8291898736	 0.12763
