16
gdb 77055	3.16659	1.05415	0.86726	4.0675	70.42	-0.2618	0.0096	0.2713	1288.1646	0.124813	-434.094533	-434.085556	-434.084612	-434.129099	31.87	
N	 0.0601376006	 1.5781093496	-0.1848978956	-0.522727
C	 0.0315015573	 0.1364630013	-0.0904450169	-0.161146
C	-1.3673236571	-0.5740014262	 0.0901201727	 0.033244
C	-2.5798403101	 0.3651019805	 0.0781729742	-0.332212
C	-3.8171487586	-0.3658356569	-0.1811169499	 0.252265
N	-4.7739019567	-0.9768871452	-0.3985918099	-0.306826
N	-1.0981400543	-1.2527434438	-1.1791499965	-0.326383
C	 0.0750381618	-0.6004838355	-1.4563970307	 0.430233
O	 0.8165500234	-0.5800433703	-2.4011272889	-0.35971
H	 0.5441183536	 1.9987024716	 0.5986841337	 0.242382
H	 0.5500855804	 1.8560016433	-1.029085992	 0.255658
H	 0.7673290885	-0.2807453854	 0.6066739048	 0.105528
H	-1.4266055559	-1.2598809749	 0.9412585947	 0.101003
H	-2.6566067579	 0.8787444292	 1.0426313529	 0.153882
H	-2.4366954052	 1.1398594436	-0.6802498115	 0.16703
H	-1.6449400798	-1.9144623712	-1.7115417511	 0.267778
