14
gdb 2135	3.61817	3.35575	1.88154	3.1327	58.59	-0.2159	-0.0013	0.2147	669.0646	0.11434	-324.626187	-324.619644	-324.618699	-324.656496	24.272	
C	-0.0830694787	 1.5742389758	 0.0230085322	-0.389041
C	 0.0354514962	 0.0443106202	-0.0397560973	-0.149361
C	 0.8621634724	-0.5144472086	-1.1732045905	-0.141838
C	 1.8391040315	-1.270024948	-0.6630971905	-0.027216
N	 1.7770870998	-1.3012769286	 0.7390308603	-0.321142
C	 0.7426933208	-0.5144410158	 1.2137662965	 0.412709
O	 0.4751982719	-0.3102601747	 2.3756301624	-0.376151
H	 0.9047111045	 2.0436779127	-0.0066080831	 0.123397
H	-0.6665241931	 1.9546238086	-0.820236298	 0.115371
H	-0.575572156	 1.8672586978	 0.9540750075	 0.141522
H	-0.9775738271	-0.3824949086	-0.0480413832	 0.117765
H	 0.6806653906	-0.3336309501	-2.2218656455	 0.105324
H	 2.6133026745	-1.8286941337	-1.1697115673	 0.128074
H	 2.4362024526	-1.757121947	 1.3476258065	 0.260587
