19
gdb 93635	3.1867	1.24019	1.00964	4.4518	75.49	-0.2412	0.0245	0.2657	1200.9814	0.160201	-419.219642	-419.210541	-419.209596	-419.253551	33.813	
C	-0.3065730609	 1.5266089461	 0.0481407318	-0.414077
C	 0.0797385574	 0.0501050357	 0.047163646	 0.013737
C	 0.9139182059	-0.4141566957	-1.1606909679	-0.169357
N	 1.5651656773	-1.6727820376	-0.7490513347	-0.297675
C	 1.4898455322	-1.7746322738	 0.7165396437	-0.166454
C	 2.7900225208	-2.0950179097	 1.3258691491	 0.291531
N	 3.7958797043	-2.3059706114	 1.8555387025	-0.333561
C	 0.9755107616	-0.3855417652	 1.2178633428	 0.106392
O	 2.0148685241	 0.5586771357	 1.3491065554	-0.426733
H	 0.5842335911	 2.1582874179	 0.0402013492	 0.144821
H	-0.9113194737	 1.7671266391	-0.8321055697	 0.113657
H	-0.8937655521	 1.782016032	 0.9358447908	 0.11658
H	-0.827860293	-0.5670356717	 0.0967016937	 0.072499
H	 0.3109609098	-0.5701672017	-2.0595058334	 0.102143
H	 1.6757417031	 0.3387333523	-1.3952430551	 0.122697
H	 1.132905935	-2.4769389325	-1.1812595013	 0.230239
H	 0.7814725473	-2.5480032761	 1.0443610528	 0.115485
H	 0.4216950484	-0.502087814	 2.1597612238	 0.076437
H	 2.6860813016	 0.2071206606	 1.9460230804	 0.301638
