21
gdb 103128	1.70994	1.36906	1.05079	2.7516	81.12	-0.2409	-0.0181	0.2228	1302.9594	0.179322	-424.228245	-424.217829	-424.216884	-424.263461	38.186	
C	-0.0657476337	-0.4373084844	 0.9900747248	-0.402326
C	 0.2146438962	-1.7445713399	 0.2380142865	-0.241124
C	 0.7742549544	-1.5286580574	-1.1561374582	 0.388628
O	 2.0150871602	-0.8771534406	-1.1754773945	-0.46185
C	 0.6197466024	-2.5127052255	-2.257553826	-0.075332
C	-0.0643056185	-3.8568159609	-2.1245999668	-0.42354
C	-0.1481587409	-1.1788144397	-2.3512039106	-0.198607
C	-1.6136316554	-1.0878931236	-2.2149998967	 0.154672
O	-2.2889097713	-0.2397311317	-2.752806668	-0.280854
H	 0.8478238717	 0.1517661895	 1.1264232023	 0.114024
H	-0.7942186227	 0.1825975128	 0.4569214592	 0.133574
H	-0.4651624378	-0.642190201	 1.9871548878	 0.124223
H	 0.9444387893	-2.3423499649	 0.79764294	 0.112447
H	-0.7034061475	-2.3365519265	 0.1883700132	 0.102293
H	 1.8901339181	 0.0199517196	-0.846277717	 0.287763
H	 1.4767166313	-2.5231448939	-2.9254273767	 0.112681
H	-0.8969114931	-3.8493504486	-1.4181603575	 0.123244
H	-0.4567921642	-4.1854227626	-3.0922101646	 0.131032
H	 0.6516794145	-4.6110476904	-1.7814828479	 0.129004
H	 0.2644308101	-0.4449392593	-3.035506444	 0.107425
H	-2.0923259929	-1.8566287209	-1.5684381055	 0.062624
