16
gdb 70778	3.71746	1.38524	1.15852	4.9851	74.61	-0.2563	-0.0054	0.2509	1055.1323	0.123305	-400.675299	-400.667675	-400.666731	-400.707228	29.422	
C	 0.0632014482	 1.4047266233	-0.1576793281	-0.52855
C	 0.0002118373	-0.0771070944	-0.0021912406	 0.429888
O	 0.5332344003	-0.9281912392	-1.0774051313	-0.372772
C	 0.0537562056	-1.8655376992	-0.0796127456	 0.406446
C	 0.1725098664	-3.2823080173	-0.2971266982	 0.164383
N	 0.2531663946	-4.4264644876	-0.4415959405	-0.343992
C	 0.5163899643	-1.011944805	 1.1493600865	-0.168056
C	-0.8762544181	-1.0839872915	 1.8090373605	-0.284678
C	-1.2121751469	-1.0271172634	 0.304464119	-0.168062
H	 1.1010680349	 1.7337909204	-0.2637819447	 0.145342
H	-0.4937149239	 1.7194861009	-1.0450818592	 0.145366
H	-0.3703447691	 1.8970783594	 0.7182407741	 0.136317
H	 1.5134377465	-1.02214304	 1.5881793528	 0.102463
H	-1.1221799395	-2.012491129	 2.32883779	 0.12245
H	-1.1753244566	-0.2189049538	 2.405369538	 0.110989
H	-2.1706708639	-1.0544967738	-0.2125527426	 0.102464
