24
gdb 88975	3.50473	0.77499	0.75796	1.3169	90.81	-0.2195	0.0835	0.303	1675.3635	0.216578	-368.368579	-368.358449	-368.357505	-368.40427	37.851	
C	 0.4476289169	 1.5261479079	-0.6198640948	-0.403716
C	-0.0302381899	 0.2259535357	-0.0093983857	-0.007959
C	 0.8956334121	-0.9592855637	 0.1312290544	-0.290309
C	 0.3870366185	-0.2482144218	 1.3655921772	 0.018444
C	 1.3323547481	 0.5295927126	 2.262945931	-0.258158
C	 2.0514668869	-0.3629653551	 3.259219818	 0.040626
C	 2.5978752395	 0.1780564874	 4.5366521623	-0.266964
N	 1.4925897148	-0.7735914027	 4.5520743437	-0.078846
C	 0.1933785978	-0.2826688027	 4.9836826229	-0.313116
H	 1.4950957413	 1.732372286	-0.3820820396	 0.115532
H	 0.3643369616	 1.4923574346	-1.71184846	 0.116409
H	-0.1463959364	 2.3777230616	-0.2687169859	 0.114811
H	-1.056029772	-0.0205216874	-0.2733812327	 0.08093
H	 0.5257230378	-1.95275472	-0.0977089221	 0.108485
H	 1.9377946934	-0.8048699178	-0.1350199149	 0.105212
H	-0.3859580936	-0.7787850896	 1.9164329266	 0.083746
H	 2.0965501203	 1.0314485607	 1.657735971	 0.09908
H	 0.7904080581	 1.3275271528	 2.7831098277	 0.096961
H	 2.6034090159	-1.1715673424	 2.7799442784	 0.088263
H	 3.5444228704	-0.1730043995	 4.9407536671	 0.109548
H	 2.3702024828	 1.2206773611	 4.7621697408	 0.099095
H	-0.0156854067	 0.7678628616	 4.7264718353	 0.098603
H	-0.5961635322	-0.9057798377	 4.5505843856	 0.12109
H	 0.1329438842	-0.3739615915	 6.0732420638	 0.122236
