23
gdb 104689	2.3084	1.423	1.08656	1.0179	85.56	-0.2386	0.0846	0.3232	1250.1121	0.204707	-388.250638	-388.240956	-388.240012	-388.285013	36.66	
C	 0.5797143829	-0.072536971	 1.4648717958	-0.37446
C	 0.1120693687	-0.1233360136	 0.0054035883	-0.268546
C	-1.2750610139	-0.7219116635	-0.1366865361	 0.448747
O	-2.2748091891	-0.0378795985	 0.5869309239	-0.294734
C	-2.6109493586	 1.2406113668	 0.084431611	-0.247924
C	-1.8235388081	-1.378470236	-1.3832374012	-0.125299
C	-0.7656495984	-2.2002431059	-2.1289051348	-0.244985
C	-0.5068396937	-3.0259373118	-0.8238081902	-0.250191
C	-1.5723193738	-2.1945714769	-0.1001040951	-0.105085
H	 1.5666774199	 0.3927408631	 1.5473336768	 0.105143
H	-0.1221782643	 0.4983117401	 2.0787724133	 0.127673
H	 0.6436328833	-1.0796706635	 1.8900000322	 0.118236
H	 0.1191988783	 0.8867993968	-0.4239124443	 0.092876
H	 0.8236922652	-0.6996716163	-0.592202191	 0.103535
H	-1.7973448474	 1.9681981449	 0.2109638015	 0.108523
H	-2.8805134757	 1.2050750492	-0.9803264996	 0.105207
H	-3.4749249462	 1.5862836518	 0.6576442367	 0.124215
H	-2.7704375828	-1.050738454	-1.7960746757	 0.084594
H	-1.1987092004	-2.8162695721	-2.9201468477	 0.104044
H	 0.0804165943	-1.6486655159	-2.5514137573	 0.095695
H	-0.8037965792	-4.0705969186	-0.9380331058	 0.105523
H	 0.5052536842	-3.0032409223	-0.4068333895	 0.097392
H	-2.2967136456	-2.5681196029	 0.6132159588	 0.089822
