17
gdb 69178	2.23959	1.8469	1.24821	3.3621	73.63	-0.2378	-0.0252	0.2126	1035.9069	0.133863	-421.791706	-421.783393	-421.782449	-421.824486	31.312	
C	-0.0947290325	 1.5433796807	 0.1047130438	-0.513729
C	 0.1176798323	 0.0697976768	 0.0018227002	 0.332255
O	-0.7785964981	-0.8196895836	 0.6772614366	-0.277105
C	 0.6292452416	-0.9119491724	 0.9981811381	-0.215861
C	 1.2480417072	-1.7285911995	-0.1443211071	 0.386681
O	 1.9871587812	-2.6665784122	-0.2150106171	-0.317929
C	 0.6856063891	-0.7433951811	-1.1604904117	 0.183964
C	 0.1434934479	-1.0092235159	-2.5343825682	-0.313195
C	 1.4505945696	-0.2832325598	-2.3761351451	-0.322304
H	 0.8180876363	 2.0856001928	-0.1595521333	 0.13538
H	-0.8916179496	 1.8688585728	-0.5732969382	 0.136942
H	-0.3852479564	 1.8137871225	 1.1227500285	 0.143911
H	 0.9214430379	-0.7986756268	 2.035678307	 0.119052
H	 0.1662567243	-2.0378904618	-2.8782018367	 0.1367
H	-0.7257576374	-0.4424144304	-2.8507724779	 0.124756
H	 1.4745012644	 0.7820376994	-2.5816377486	 0.122545
H	 2.3691369822	-0.8144716313	-2.6025519404	 0.137939
