21
gdb 40632	3.28215	1.16763	1.13549	0.1538	87.54	-0.2198	0.0234	0.2431	1210.1836	0.184506	-349.936205	-349.928363	-349.927419	-349.968887	31.5	
C	-0.029925515	 1.5241973653	-0.0211609536	-0.270213
C	 1.3299530671	 0.878409209	 0.0760534423	-0.273473
C	 0.09220453	 0.0181969558	-0.0112254523	 0.020154
C	-0.3616846279	-0.7537072065	 1.185315502	-0.017128
C	-1.6718596771	-1.5025101072	 1.2693658903	-0.076703
C	-2.4071897618	-1.8712985604	-0.0222395366	-0.271784
C	-1.4483281377	-2.8081210493	-0.7285900204	-0.07638
C	-0.348639195	-3.0362802476	-0.0055478405	-0.070888
C	-0.3563049161	-2.2770767707	 1.277460508	-0.10947
H	-0.4261317542	 2.0041653555	 0.8680252789	 0.107493
H	-0.3054331408	 2.0155105391	-0.9481117747	 0.107089
H	 1.9885311649	 0.9252883097	-0.7843648809	 0.107986
H	 1.8455670614	 0.9263601838	 1.0300343412	 0.107252
H	-0.0686745767	-0.4763777305	-0.9625758873	 0.086382
H	-0.0882973285	-0.2713215356	 2.1227080296	 0.07584
H	-2.2554567094	-1.3915236418	 2.1761137015	 0.079268
H	-3.3660882224	-2.3621310903	 0.1903133011	 0.103891
H	-2.6439703851	-0.9903210828	-0.6343293674	 0.110802
H	-1.6449549495	-3.2066364859	-1.7178823816	 0.089798
H	 0.4776907137	-3.6712080476	-0.3053995405	 0.090583
H	 0.04741974	-2.7348652819	 2.1747102309	 0.079502
