16
gdb 5518	3.20457	1.87464	1.25626	1.3091	67.68	-0.2157	0.0135	0.2292	950.726	0.130578	-383.768015	-383.760069	-383.759125	-383.800682	28.712	
C	 0.182195953	 1.5154805941	 0.0056798181	-0.516156
C	 0.0924914678	 0.0191835381	-0.0063896732	 0.175815
C	-0.0201659044	-0.7903802673	-1.1013344524	 0.219675
C	-0.067109039	-0.5277897191	-2.5726310651	-0.172473
O	 0.9632191124	 0.3479158356	-3.0205966692	-0.406139
O	-0.0835646258	-2.1027307798	-0.7157061561	-0.175922
C	-0.0197429606	-2.1234647237	 0.6393525011	-0.022448
C	 0.092148594	-0.8624443465	 1.1285746604	-0.261314
H	 0.9982114735	 1.8580208895	 0.6515345817	 0.124889
H	 0.363818834	 1.898993126	-1.0003178112	 0.14714
H	-0.7394827685	 1.9706355025	 0.3875552611	 0.128028
H	-0.0415499748	-1.495995311	-3.0937197917	 0.110979
H	-1.0006862706	-0.0302695069	-2.8587345962	 0.124686
H	 1.7982635691	-0.0017011644	-2.6913428078	 0.282575
H	-0.062206023	-3.0987070763	 1.0960402801	 0.132879
H	 0.1685364529	-0.5810283108	 2.1680521603	 0.107786
