14
gdb 127754	7.39002	0.88079	0.79094	3.0437	68.62	-0.264	-0.0347	0.2294	1373.2058	0.101505	-466.164112	-466.155879	-466.154935	-466.198784	27.612	
C	 0.0030291173	 1.3683762644	 0.0949149442	-0.316979
N	 0.0052886705	-0.0802039123	 0.0537590428	 0.16053
N	-0.0717566531	-0.7612681913	-1.0736433771	-0.124032
N	-0.0436055304	-2.032982069	-0.7385528127	-0.299392
C	 0.0513659308	-2.0457195933	 0.6077046698	 0.52799
O	 0.1100112226	-3.1367208276	 1.3843647616	-0.20467
C	 0.0715793733	-4.3717838614	 0.7817440873	 0.111911
N	 0.1270699937	-5.3824686275	 1.5249514327	-0.420147
N	 0.085181754	-0.8350759411	 1.1484858188	-0.343646
H	 0.9277414705	 1.7242452024	 0.5535548541	 0.167311
H	-0.0709363756	 1.7202010728	-0.9331299507	 0.175193
H	-0.8504319764	 1.7178804113	 0.6793226183	 0.167316
H	-0.0049168511	-4.3181947967	-0.3046761915	 0.156085
H	 0.090165114	-6.2290420306	 0.9601092425	 0.242528
