19
gdb 81546	4.24055	1.17582	1.0416	1.9845	75.49	-0.2429	0.0733	0.3162	1185.0074	0.158552	-422.928434	-422.920435	-422.919491	-422.961074	30.719	
C	-0.1059455998	 1.6138524531	 0.0612428037	-0.438041
C	-0.0185127905	 0.1005760167	 0.0132362074	 0.029083
C	 1.2424783469	-0.5677769748	-0.6073158987	-0.047288
O	 2.0423267151	-0.1124674447	 0.5591357268	-0.318971
C	 0.7761490694	-0.6495739881	 1.1212459549	-0.0473
C	 0.9341116505	-1.857483875	 0.1775836475	 0.377239
C	-0.0870957005	-2.9570707352	-0.1499730601	-0.176835
O	 0.9086415286	-3.9757759853	 0.0703762022	-0.278859
C	 1.9291570374	-3.0000921985	 0.3919362931	-0.163098
H	 0.858663421	 2.0414229974	 0.3418854955	 0.140579
H	-0.3978323021	 2.0178727199	-0.9139604804	 0.117161
H	-0.8576309467	 1.9372860158	 0.7891213871	 0.117159
H	-0.9694120484	-0.3672722687	-0.2654344657	 0.075966
H	 1.6844457818	-0.4472646341	-1.5978464411	 0.09497
H	 0.6582520512	-0.6272667308	 2.2059632204	 0.094969
H	-0.9339236858	-3.048963085	 0.5430819462	 0.103496
H	-0.4692938162	-2.9673820878	-1.1793920784	 0.103498
H	 2.7723772947	-3.0394652173	-0.3080808002	 0.108137
H	 2.3077269135	-3.1210295476	 1.4140203297	 0.108134
