16
gdb 11322	4.21841	1.49668	1.12789	1.0326	69.19	-0.2477	-0.0062	0.2415	1028.2759	0.131438	-379.983207	-379.975305	-379.974361	-380.016603	27.936	
C	-0.0437451469	 1.4202250169	 0.0587560642	-0.342807
N	-0.022086802	-0.0341146117	 0.0419320321	-0.304216
C	 0.5354219444	-0.6152619371	-0.9336894004	 0.412449
C	 0.6394538967	-2.1253286427	-1.0956106383	-0.310503
C	 1.392965727	-2.3423167204	-2.4215479691	-0.344773
C	 1.6864412082	-0.9428988216	-2.9604422871	 0.40948
O	 2.2601232639	-0.6407525755	-3.9766763313	-0.351509
N	 1.1600927029	-0.0432823917	-2.0445739822	-0.364635
H	 0.9682051383	 1.8537900472	 0.0744281821	 0.113973
H	-0.5733698912	 1.8418710977	-0.8096239194	 0.113602
H	-0.5613461996	 1.7647987154	 0.9566987919	 0.131437
H	 1.1638181388	-2.5468442442	-0.2350623159	 0.141263
H	-0.3630321356	-2.5591363725	-1.1008439767	 0.141266
H	 2.3394093171	-2.8761550935	-2.3033109351	 0.144574
H	 0.8125800455	-2.889403218	-3.1689030467	 0.144554
H	 1.2394820326	 0.9501208817	-2.1981067482	 0.265844
