23
gdb 57360	2.04505	1.52762	1.18565	0.67	91.29	-0.2399	0.0551	0.295	1207.8817	0.202376	-351.118775	-351.108316	-351.107372	-351.15327	40.926	
C	 0.2088009376	 1.5201569405	 0.2782933938	-0.432263
C	-0.0048765267	 0.0201744562	 0.0046994487	 0.171248
C	 0.5347440776	-0.7777248761	 1.2082222211	-0.406397
C	-1.5163818707	-0.2368254129	-0.1553198561	-0.406398
C	 0.721189041	-0.4644387156	-1.2797403126	 0.176277
C	 0.8509050588	 0.427865476	-2.5088852333	-0.31204
C	 2.0718501138	 0.105866406	-1.6972334897	-0.31204
C	 0.5449915065	-1.8677368698	-1.5714158929	 0.272704
C	 0.4041596632	-3.0365175498	-1.8232714382	-0.448772
H	 1.2619924043	 1.7710178883	 0.4350448007	 0.11416
H	-0.1819578155	 2.1517940245	-0.5248607259	 0.114161
H	-0.3260395168	 1.79675457	 1.1925564739	 0.114896
H	 0.0183841316	-0.4817690031	 2.1274700423	 0.104673
H	 0.390241256	-1.8519401727	 1.0663724489	 0.127206
H	 1.6057647614	-0.5977823116	 1.3500099776	 0.109192
H	-1.9244842978	 0.3331781659	-0.9968166807	 0.109192
H	-1.7197403569	-1.2955196463	-0.3362992627	 0.127208
H	-2.0548258994	 0.0649496809	 0.7492485364	 0.104673
H	 0.7344913995	-0.0467246977	-3.4757560798	 0.12514
H	 0.4504253309	 1.4326202685	-2.4508504316	 0.117386
H	 2.5008662661	 0.8918597516	-1.0877711327	 0.117386
H	 2.7943525491	-0.5899704532	-2.1064129712	 0.125141
H	 0.2795376063	-4.0672842295	-2.044593166	 0.187269
