17
gdb 29718	2.40533	1.62179	0.98336	2.3664	72.06	-0.1872	0.0527	0.24	1170.2373	0.134992	-455.188482	-455.178845	-455.177901	-455.223029	34.118	
C	-0.0450554232	 1.4760464423	 0.0156711639	-0.344423
N	 0.0365249549	 0.0312203554	 0.0139888635	-0.101386
C	 0.1524847706	-0.7975813463	-1.0532408273	 0.421597
O	 0.2154539404	-0.2696269031	-2.2916476376	-0.431273
N	 0.1867351995	-2.0627493107	-0.7425159564	-0.430529
C	 0.0783708634	-2.0984208061	 0.6475717696	 0.190632
C	 0.0637705072	-3.3778801102	 1.4134123129	-0.494189
C	-0.005852351	-0.8246261094	 1.1248586844	 0.196525
O	-0.1890693125	-0.3112276708	 2.3746154977	-0.433993
H	 0.9125657718	 1.9317987569	-0.257594159	 0.138071
H	-0.8059651157	 1.8164634605	-0.6911944988	 0.14935
H	-0.3198146264	 1.7953854565	 1.0218567487	 0.150842
H	 0.2722382369	-1.0206912077	-2.8959287423	 0.310726
H	 1.0051635445	-3.9282960256	 1.2996241218	 0.124709
H	-0.0952017952	-3.1845928947	 2.4779126023	 0.116842
H	-0.7377010299	-4.0375327267	 1.0630675768	 0.13145
H	 0.6575659547	-0.2651298405	 2.8332927198	 0.30505
