21
gdb 115853	2.67555	1.40191	1.20621	2.2139	77.89	-0.2444	0.0745	0.3189	1142.0752	0.183791	-424.211457	-424.202834	-424.20189	-424.244545	33.386	
C	-0.3228903501	 1.1779691897	 0.0346565921	-0.238648
O	 0.0801393423	-0.1730614541	-0.0232815586	-0.255597
C	 0.7973595821	-0.6171715976	 1.1339078085	 0.115251
C	-0.1065474662	-0.779052546	 2.3902001521	-0.238716
C	 0.2851254524	-2.1216525258	 3.0499618665	-0.219546
C	 1.0163219737	-2.9229421332	 1.9807355647	-0.089177
C	 0.364016599	-3.0850824825	 0.6327947589	 0.116199
O	-0.9909351054	-2.7930210123	 0.4496131138	-0.434464
C	 1.3767500644	-1.9873623617	 0.8363083623	-0.136897
H	 0.5414901999	 1.8458676984	 0.1718305295	 0.10743
H	-0.8042798225	 1.4152225954	-0.917178564	 0.128456
H	-1.0370282274	 1.3659693751	 0.8490113459	 0.111935
H	 1.6097200552	 0.0996703261	 1.3288949914	 0.069128
H	-0.0008414662	 0.0610415162	 3.0820053051	 0.092794
H	-1.1463599093	-0.8113633286	 2.0593213555	 0.118525
H	 0.9639436015	-1.9559268023	 3.8936734342	 0.097733
H	-0.5906577099	-2.6493177687	 3.4407358563	 0.11111
H	 1.7040019234	-3.6978760853	 2.302556627	 0.082092
H	 0.7066562248	-3.9363907614	 0.0455600909	 0.086265
H	-1.0276145604	-1.9784815506	-0.0697575604	 0.292922
H	 2.3225310689	-2.0364356108	 0.3089986783	 0.083205
