23
gdb 77676	1.73485	1.64071	1.62351	1.3623	85.44	-0.2255	0.0812	0.3067	1125.9155	0.204765	-388.296	-388.286256	-388.285312	-388.329793	37.185	
C	-0.3671113037	 1.4847934731	 0.1067866104	-0.418142
C	-0.108805936	 0.0032849076	-0.0463488735	-0.113129
C	 0.5726266647	-0.631510968	-1.2602924586	 0.256118
C	-0.0102759288	-1.8818613702	-1.8779017411	-0.485551
C	 1.3708780367	 0.3120162557	-2.1694874571	-0.308597
C	 2.661433799	 0.5608534163	-1.3657280246	-0.075488
O	 2.332402438	 0.3408467322	 0.0067307329	-0.300426
C	 1.276794223	-0.5992478869	 0.0772259444	 0.380164
C	 1.5896193139	-1.7809839552	 0.9550611248	-0.464349
H	-1.157171581	 1.8309797068	-0.5693646923	 0.110064
H	-0.6860657824	 1.7112984719	 1.1298355836	 0.115745
H	 0.5347522779	 2.0700122848	-0.0858524739	 0.127929
H	-0.8983296658	-0.6251930384	 0.3638563854	 0.072304
H	-0.7840672918	-1.6324067049	-2.613719928	 0.118097
H	 0.7578780437	-2.4705617103	-2.3936246806	 0.113194
H	-0.4739972354	-2.5261426527	-1.1247031207	 0.115022
H	 1.5835306881	-0.1598454587	-3.1333863141	 0.099403
H	 0.8347120137	 1.2442774399	-2.3742581866	 0.105944
H	 3.4527454988	-0.1382487939	-1.6786496154	 0.090821
H	 3.051582961	 1.5789790386	-1.4574199184	 0.103371
H	 1.7925313701	-1.4523437983	 1.9798900615	 0.126909
H	 0.7499359668	-2.4809214364	 0.9869774435	 0.113733
H	 2.4736907695	-2.3175222229	 0.5936819186	 0.116864
