19
gdb 37664	3.5977	2.03783	2.02655	0.1133	79.63	-0.2453	0.094	0.3393	803.5325	0.164481	-348.724071	-348.718835	-348.717891	-348.753199	24.705	
C	-0.0627534904	 1.5654847214	-0.0395524718	-0.241994
C	 1.4813484899	 1.4300594176	 0.0143198929	-0.038734
C	 1.290153073	 0.1158350442	 0.8537137774	-0.034671
C	 2.277132059	-0.9341100503	 0.3406345586	-0.078054
C	 2.8519327486	-0.4332881121	-0.972370613	-0.088632
C	 1.7483103398	-1.4677799355	-0.9784030665	-0.088779
C	 0.6867778402	-0.3908168	-1.2969617949	-0.049664
C	-0.028291863	 0.0155008328	 0.005578064	-0.038783
C	 1.8479196127	 0.6976955296	-1.2903840731	-0.04972
H	-0.477610439	 2.0022453998	 0.872971326	 0.092734
H	-0.5106149238	 2.0490680981	-0.9137850115	 0.085156
H	 2.1287202892	 2.243562187	 0.3457535261	 0.056163
H	 1.1748139926	 0.2320048802	 1.9301494086	 0.059866
H	 2.8665480071	-1.5668648946	 0.9913394093	 0.079955
H	 3.8914750669	-0.5173372023	-1.2641620355	 0.078215
H	 1.7667025101	-2.5089931428	-1.2756650919	 0.078231
H	 0.0874373758	-0.4964257832	-2.1998189659	 0.061274
H	-0.8841673409	-0.5795373809	 0.3283115073	 0.056134
H	 1.9971887423	 1.294080261	-2.1890339859	 0.061304
