17
gdb 17301	3.13023	2.44627	1.86722	0.5038	66.62	-0.2198	0.0693	0.2892	772.0277	0.142755	-363.784607	-363.777965	-363.777021	-363.814813	27.366	
O	-0.0860985817	 1.3746097041	-0.0937942157	-0.482328
C	 0.0053354627	-0.0122761787	 0.0021761128	 0.440972
C	-1.3619008996	-0.7363365667	-0.032225651	-0.280558
C	-0.945894057	-1.5545212632	 1.2365806762	-0.242199
C	 0.4155805008	-0.8109703536	 1.2699608359	-0.05137
N	 1.6354503462	-1.4011898647	 0.5685276411	-0.147439
C	 1.2065874962	-2.1493391861	-0.6290909221	-0.245531
C	 1.2084066069	-0.6788707782	-0.7031890207	-0.12268
H	 0.7921344848	 1.7496975674	 0.0387087893	 0.28251
H	-2.1779457038	-0.0357707742	 0.1556102062	 0.117179
H	-1.5854943826	-1.3045917971	-0.9386425918	 0.101595
H	-1.5589920277	-1.3304511324	 2.112237185	 0.108792
H	-0.900446037	-2.6405081107	 1.1276784634	 0.109909
H	 0.7192944572	-0.3414244299	 2.2058141832	 0.081429
H	 2.0345904827	-2.6740850081	-1.0983028194	 0.122454
H	 0.2776003191	-2.7102738179	-0.6335045008	 0.11879
H	 1.921400943	-0.1233419299	-1.3093513016	 0.088476
