23
gdb 94558	2.42541	1.39263	1.13314	1.7222	84.68	-0.24	0.0835	0.3235	1213.9207	0.205088	-388.263248	-388.253741	-388.252797	-388.297531	36.418	
C	-1.4094878451	 0.7304966107	 0.5002668212	-0.413393
C	-0.3268047582	-0.2898044722	 0.2127175315	 0.163617
O	 0.542502275	 0.1304771221	-0.8669385828	-0.293524
C	 1.7163473618	-0.2614019403	-0.1351115288	-0.104173
C	 0.9042767115	-0.4997157487	 1.1574783538	-0.136042
C	 1.1066705335	 0.4413308966	 2.3331016568	 0.374198
C	 0.2144440288	 0.1360844001	 3.5246568778	-0.466627
C	 2.5100494342	 0.9140594771	 2.6431822132	-0.324576
C	 1.4913824379	 1.8833633641	 2.0957426181	-0.301939
H	-0.9946762331	 1.6760889433	 0.8552802441	 0.130421
H	-1.9668059434	 0.9245355009	-0.4222868088	 0.125125
H	-2.1172392169	 0.3511824521	 1.2443942007	 0.114661
H	-0.7954418159	-1.2530672992	-0.0417664117	 0.06646
H	 2.1748436798	-1.1702824172	-0.5481095446	 0.094297
H	 2.4720186319	 0.532200687	-0.1229005234	 0.100007
H	 0.9760487597	-1.5275317328	 1.5278642351	 0.071005
H	 0.3757206112	-0.887940364	 3.8826723095	 0.114068
H	 0.423565789	 0.8154991737	 4.3568310651	 0.113013
H	-0.8468609963	 0.2369335945	 3.2753714012	 0.119422
H	 2.793449381	 1.0023071535	 3.6867343083	 0.108872
H	 3.3215651444	 0.6048184551	 1.9928601607	 0.111847
H	 1.6087056486	 2.228766028	 1.0742475915	 0.125448
H	 1.0850986506	 2.6324537256	 2.7674512015	 0.10781
