13
gdb 23649	3.8413	1.93409	1.29667	3.7198	61.85	-0.2639	-0.048	0.2159	868.8642	0.096395	-402.818302	-402.811682	-402.810738	-402.849736	23.859	
C	-0.0025825717	 1.4980992328	 0.0327512868	-0.469938
C	 0.0209467154	-0.0023983885	-0.0217958637	 0.328383
C	-0.1115916783	-0.7164977957	-1.2133456156	-0.179304
C	-0.0726549714	-2.1019520573	-1.1293046027	 0.021286
N	 0.0836281968	-2.7506513994	 0.0275148408	-0.307678
C	 0.1975923633	-1.9606780221	 1.0815983607	 0.342023
F	 0.3530384162	-2.5808605454	 2.2366602102	-0.057139
N	 0.1784352875	-0.6442637086	 1.1460504952	-0.348326
H	 0.9289011932	 1.871096161	 0.4699458987	 0.153465
H	-0.1321936558	 1.938217559	-0.9579470084	 0.126281
H	-0.8153595933	 1.8365187572	 0.6829163012	 0.153446
H	-0.2394073492	-0.213158278	-2.1633048671	 0.10987
H	-0.1696586126	-2.7217396149	-2.017337186	 0.127631
