18
gdb 99347	7.37623	0.58457	0.54719	2.6731	76.44	-0.2532	0.05	0.3032	1967.9388	0.144908	-439.095186	-439.084451	-439.083507	-439.133385	35.922	
C	-0.1564018258	 1.3467495253	 0.1431575169	-0.329473
N	-0.0460115744	-0.0730650929	-0.1113343285	-0.359168
C	 0.6684173658	-0.5717109283	-1.1538421295	 0.520731
O	 1.2820781944	 0.0736491407	-1.9744186931	-0.409416
O	 0.5961155146	-1.9319604729	-1.1468475201	-0.278973
C	 1.3133593969	-2.579929226	-2.2029600475	-0.049372
C	 1.0910449182	-4.0830557982	-2.0192495718	-0.357264
C	 1.7782113062	-4.8599675804	-3.0422251274	 0.285338
C	 2.3544387353	-5.4769704732	-3.8970937602	-0.440495
H	 0.4157992521	 1.8628527944	-0.6285795011	 0.171239
H	-1.1983074591	 1.6836682766	 0.0963989001	 0.126004
H	 0.2528993984	 1.6122364835	 1.1246182082	 0.126009
H	-0.5059654146	-0.7342306375	 0.4911527485	 0.252341
H	 0.9409709295	-2.2397003612	-3.1731332124	 0.132708
H	 2.375682698	-2.3267884848	-2.1452971675	 0.132127
H	 1.4408628565	-4.3767926899	-1.0222212773	 0.139371
H	 0.0145373247	-4.2907391387	-2.0455968278	 0.139383
H	 2.8597600332	-6.0320304668	-4.6480398994	 0.19891
