17
gdb 30673	4.13185	0.93258	0.92093	2.7089	71.25	-0.2296	0.0025	0.232	1311.2738	0.136308	-458.980973	-458.972503	-458.971559	-459.01478	31.382	
O	 0.1516522993	 1.3687807719	-0.2562288834	-0.423325
C	 0.1298146169	-0.0220591394	-0.0325062825	-0.066536
C	-1.3189073803	-0.5187598052	 0.1135280651	-0.025016
O	-2.0775210445	-0.0434856616	-1.0090846234	-0.442761
C	-1.4190662588	-1.9953042342	 0.2754974087	 0.371071
C	-1.8276621665	-2.8197183964	 1.276243217	-0.286477
C	-1.6676019485	-4.1604724623	 0.7935450285	-0.16774
C	-1.1799469356	-4.0502565754	-0.4677159724	-0.019556
O	-1.0158263642	-2.7405996371	-0.8008638452	-0.198095
H	-0.5524277439	 1.5320495853	-0.8980144773	 0.285775
H	 0.6155542119	-0.5791201068	-0.8516774265	 0.086942
H	 0.6909145462	-0.2240475656	 0.8858686953	 0.112037
H	-1.7657533198	-0.0406422456	 0.9905233353	 0.108642
H	-1.8978117053	-0.6402286839	-1.7454028072	 0.292586
H	-2.2015038494	-2.5115916991	 2.2401263228	 0.117041
H	-1.8923682669	-5.0762894265	 1.3169711821	 0.11775
H	-0.9098319107	-4.763538128	-1.228633477	 0.137663
