23
gdb 116366	2.94716	1.09215	0.84623	1.2271	88.22	-0.239	0.0251	0.2641	1438.5903	0.206758	-388.294562	-388.285229	-388.284285	-388.328951	35.357	
C	 0.1057154149	 1.6261602318	-0.0436700739	-0.39331
C	 0.0266253275	 0.0960766978	-0.0098651565	-0.180404
C	-1.4062317409	-0.4748958084	 0.0278611544	 0.028454
C	-2.1083955552	-0.3191408578	-1.3272761048	-0.08727
O	-3.5180672851	-0.3457045312	-1.2086404121	-0.237648
C	-4.1179242011	-1.6172550524	-1.2717934139	-0.133014
C	-3.7577128203	-2.6166066825	-0.2030248861	-0.057307
C	-2.6474204776	-2.7362323566	 0.5251438381	-0.067026
C	-1.3726873489	-1.9324209072	 0.5139336167	-0.263004
H	 1.1471307943	 1.963048663	-0.0489316019	 0.112926
H	-0.3772025606	 2.0482794064	-0.9305193719	 0.12077
H	-0.3810864515	 2.0630652683	 0.8350512595	 0.118181
H	 0.5588260267	-0.3225032245	-0.8760338464	 0.092781
H	 0.5698470691	-0.2639967902	 0.8727492694	 0.093742
H	-1.9990239814	 0.1127779512	 0.7413411798	 0.082055
H	-1.8693580306	 0.6565120168	-1.762371433	 0.101054
H	-1.7588181419	-1.0888616014	-2.0363408483	 0.082975
H	-5.1966795619	-1.4270372246	-1.2294973293	 0.112519
H	-3.9253408594	-2.0794757517	-2.260024442	 0.094974
H	-4.5291445973	-3.3728304706	-0.0595623297	 0.084765
H	-2.6138137085	-3.5814589579	 1.21167965	 0.08477
H	-0.6387447861	-2.4851332323	-0.0972201097	 0.107661
H	-0.9519618945	-1.9461373658	 1.5278779218	 0.101358
