22
gdb 82752	2.21464	2.06451	1.50033	1.725	84.68	-0.2203	0.0807	0.301	1010.3649	0.196087	-367.168025	-367.160137	-367.159192	-367.199717	32.589	
C	-0.1421524261	 1.512394609	-0.0023340475	-0.440498
C	 0.0815043123	 0.0006226518	 0.0315870886	 0.015303
C	 1.0992023612	-0.5911757144	-0.9756248574	-0.015411
C	 2.4278903543	 0.10489441	-0.6140276704	-0.245309
C	 2.2630279543	-0.751659035	 0.6382179938	-0.034299
N	 1.6253318239	-1.8432432121	-0.2237089088	-0.157012
C	 0.6731064544	-2.0980882809	 0.9081567219	-0.206339
C	 0.8058945974	-0.6042181031	 1.269762352	 0.299826
C	 0.527643155	-0.0561046787	 2.6493194329	-0.514366
H	 0.7490821631	 2.084853512	 0.2672219009	 0.119284
H	-0.4550665444	 1.8365560248	-1.0013409696	 0.115808
H	-0.9348893367	 1.7992086529	 0.6965085611	 0.116278
H	-0.8962243802	-0.4804134146	-0.0920363316	 0.06521
H	 0.7809696939	-0.7424387674	-2.0073270161	 0.06687
H	 3.2544840011	-0.275459857	-1.2182903931	 0.112619
H	 2.471151641	 1.1919744529	-0.5521198531	 0.095105
H	 3.08076774	-1.0352259165	 1.3040471574	 0.068663
H	-0.3144452338	-2.4933111553	 0.6448658874	 0.091129
H	 1.1621233319	-2.7753370962	 1.6161361064	 0.097612
H	 1.1197897467	-0.5776286784	 3.4092282506	 0.114652
H	 0.765018955	 1.0110786284	 2.7184553528	 0.118165
H	-0.5294668643	-0.1760483322	 2.9154845415	 0.116709
