24
gdb 76676	2.89825	0.96733	0.85774	1.0449	90.13	-0.2283	0.0805	0.3088	1494.6906	0.216592	-368.368181	-368.357998	-368.357054	-368.403728	37.864	
C	 0.2748419951	 0.7585057688	-2.1743634624	-0.404354
C	 0.019169483	-0.261585968	-1.0826656876	-0.037987
C	 1.0245020575	-0.5751565943	 0.0080987467	-0.013681
C	 2.3860302208	 0.0831225023	 0.0810829206	-0.410056
C	-0.2773399872	 0.1272217383	 0.3516520156	-0.023201
C	-0.3762243573	 1.5690423894	 0.8047981937	-0.168149
N	-0.5019542253	 1.6393237997	 2.2608823719	-0.061104
C	 0.733367907	 1.7734013706	 3.0242417208	-0.216579
C	-0.1985800044	 2.9255645751	 2.8747106383	-0.222683
H	 0.8482804667	 1.6207164571	-1.8258324495	 0.114089
H	 0.831373546	 0.3096954455	-3.0048657507	 0.114376
H	-0.6692737662	 1.1391151147	-2.5803397876	 0.116505
H	-0.5451760696	-1.1196906036	-1.4410101322	 0.079031
H	 1.0547460991	-1.6210339505	 0.3050310344	 0.079369
H	 2.366274223	 1.1381730685	-0.2029149384	 0.113387
H	 2.7948479933	 0.0239193318	 1.0960599866	 0.117877
H	 3.095055359	-0.4182028874	-0.587666728	 0.114773
H	-1.0138643049	-0.4905825656	 0.8585690321	 0.089346
H	 0.4739883737	 2.1704090499	 0.4406139803	 0.074758
H	-1.28313877	 2.022546544	 0.3836111315	 0.102761
H	 0.7793493007	 1.2152176126	 3.9552127337	 0.11322
H	 1.6721660106	 1.8226085736	 2.4757932912	 0.109621
H	 0.1215971969	 3.7399533372	 2.2256228817	 0.104726
H	-0.8462903575	 3.22628072	 3.6936228973	 0.113956
