23
gdb 118271	2.56912	0.743	0.60351	1.7394	89.81	-0.2481	0.0616	0.3097	1899.957	0.201833	-388.262441	-388.250978	-388.250034	-388.300224	40.651	
C	 0.1129093242	 1.5063692002	 0.0127938726	-0.383292
C	-0.121282012	 0.0082989733	-0.0950597763	-0.035848
O	 0.723631683	-0.5019054813	-1.1081532707	-0.25784
C	 0.722516891	-1.9173338202	-1.2539338902	 0.140166
C	-0.5315292232	-2.4172240123	-1.9770525065	-0.407474
C	 1.9958613041	-2.2831654023	-2.0175082721	-0.183235
C	 3.27677443	-1.8444330296	-1.2812485949	-0.359924
C	 4.493433429	-2.1915323048	-2.004094321	 0.2941
C	 5.4820485302	-2.4895395029	-2.6199746581	-0.442906
H	 1.1556087292	 1.7161030465	 0.2679361854	 0.124946
H	-0.1117880051	 1.9983197267	-0.937821683	 0.127537
H	-0.5288482415	 1.9375426075	 0.7870066798	 0.114054
H	 0.0991740743	-0.4874236443	 0.8654668961	 0.084356
H	-1.1794336561	-0.1916278053	-0.3246260272	 0.088985
H	 0.7648339638	-2.3775230813	-0.2503381603	 0.060605
H	-0.4996304	-3.5053307497	-2.0919147316	 0.116064
H	-1.4422534591	-2.1694272938	-1.4248631926	 0.116885
H	-0.5995881526	-1.9652239342	-2.9716823693	 0.124326
H	 2.0171133491	-3.3657436391	-2.1805551294	 0.10577
H	 1.9661311533	-1.8099482892	-3.0052879273	 0.115754
H	 3.2318910082	-0.7627511357	-1.1171384858	 0.145775
H	 3.3010494337	-2.3060228117	-0.2846234925	 0.12106
H	 6.3628999166	-2.7450321965	-3.1543849552	 0.190138
