15
gdb 10847	4.96667	1.54067	1.22573	4.2241	59.27	-0.2491	0.0372	0.2863	934.4661	0.119655	-436.938365	-436.930899	-436.929955	-436.970538	27.031	
O	 0.020700239	 1.3903218182	-0.142246786	-0.421753
C	 0.0315562196	-0.0177327756	-0.0131531351	 0.064348
C	 0.6783439463	-0.4680145499	 1.2917691929	-0.101523
O	 0.5337287725	-1.8751359452	 1.4688160562	-0.235029
C	-0.6637685416	-2.4594699123	 1.2385969245	 0.471055
N	-0.9012295745	-3.5817049864	 1.7628769439	-0.54049
O	-1.5217650489	-1.8574112483	 0.3669839517	-0.270874
C	-1.4184447173	-0.4683479149	 0.0441527038	-0.077445
H	 0.9122707461	 1.6868670193	-0.3496781758	 0.296236
H	 0.5352835709	-0.5058733351	-0.8599653975	 0.094311
H	 1.7553185839	-0.2800336465	 1.3061534921	 0.117996
H	 0.2205123413	 0.0766343156	 2.129070273	 0.121083
H	-1.8097698975	-3.9163919374	 1.4487078876	 0.22715
H	-1.947648574	 0.1320258346	 0.7962468806	 0.12406
H	-1.9215324257	-0.3413640362	-0.9163501719	 0.130875
