20
gdb 93584	4.38177	0.92864	0.85465	1.0044	84.23	-0.2275	0.0084	0.2359	1414.7906	0.171535	-403.126627	-403.11786	-403.116916	-403.160716	32.566	
C	 0.2790975915	 1.5668538284	-0.1965240294	-0.387306
C	-0.0491426982	 0.1071856246	 0.1143317513	 0.107971
O	 0.3669139415	-0.7228652438	-0.9795494823	-0.278665
C	 1.1294109209	-1.8215754126	-0.5070912457	-0.17618
C	 1.3528348349	-1.5587871764	 0.9675080364	 0.328504
C	 0.6678527931	-0.4662664476	 1.3047213228	-0.245029
C	 2.1783439236	-2.3979018046	 1.8531587707	-0.093708
C	 2.4074770117	-3.8450932318	 1.5675197726	-0.247251
N	 3.5118445302	-2.8909747217	 1.4271219801	-0.319398
H	 1.3597265043	 1.7036042882	-0.2962320988	 0.119514
H	-0.1993486967	 1.8676023415	-1.1328701343	 0.126337
H	-0.0866672897	 2.2210934499	 0.6018189335	 0.111578
H	-1.1430499612	 0.0129296035	 0.2347163029	 0.079706
H	 0.5851162235	-2.7667457975	-0.6724568717	 0.102508
H	 2.0648382494	-1.8861638832	-1.0849518468	 0.101491
H	 0.6092979845	-0.0291817649	 2.2940803945	 0.101174
H	 2.1639644171	-2.090397925	 2.895738649	 0.092936
H	 2.503484583	-4.5407871657	 2.3964520603	 0.124448
H	 1.9594790806	-4.2695595823	 0.6733900876	 0.117664
H	 3.660884986	-2.6741322589	 0.4446622475	 0.233707
