20
gdb 104067	2.90876	1.26361	1.17952	1.2327	73.71	-0.2153	0.0606	0.2759	1144.7543	0.170937	-440.226919	-440.218242	-440.217298	-440.260412	33.518	
O	 0.0821241034	 1.3392237797	-0.4928932786	-0.426869
C	 0.0394842411	-0.0562867946	-0.273846483	-0.085342
C	-1.3849575694	-0.509497813	 0.0188863894	 0.359169
O	-1.7536755034	 0.2213989844	 1.180398217	-0.493041
C	-2.3935984405	-0.4460424636	-1.1653238519	-0.249925
N	-2.6532739519	-1.9150817936	-1.0908753219	-0.123399
C	-1.7198310793	-2.7345340485	-1.932340067	-0.166183
C	-0.8132077337	-3.0377638608	-0.7091353682	-0.258948
C	-1.6912672884	-2.0371782468	 0.0755678473	-0.04237
H	-0.4041220715	 1.7291742164	 0.2440928393	 0.289701
H	 0.4180849659	-0.5315309405	-1.18266218	 0.103595
H	 0.6887235452	-0.358666068	 0.5643038984	 0.093105
H	-2.7045566649	 0.1423186772	 1.307712605	 0.28737
H	-3.2949229318	 0.1393746563	-0.9448508148	 0.095891
H	-1.9864973107	-0.0947627598	-2.1196315303	 0.114678
H	-2.2133233472	-3.6015813663	-2.380682948	 0.108487
H	-1.2397627442	-2.1617738383	-2.734872465	 0.100585
H	-0.9108460792	-4.0601929549	-0.3386580779	 0.112099
H	 0.2500590496	-2.8086056379	-0.8036311368	 0.110941
H	-2.0936896089	-2.3677323575	 1.0388577772	 0.070454
