16
gdb 47258	2.37819	1.72535	1.11231	4.8904	73.29	-0.2337	-0.0581	0.1756	1066.9712	0.125981	-437.935058	-437.927193	-437.926249	-437.967901	29.307	
O	 0.0268590153	-0.0174441957	-0.3711264699	-0.280619
C	 0.0046982901	 1.1498344882	-0.0753274138	 0.311263
C	-1.2690560111	 1.9313428564	 0.1691618087	-0.318824
C	-1.6963156146	 2.6735387198	-1.1116568402	-0.273985
C	-0.7164217344	 3.6842987663	-1.6343188774	-0.07183
C	 0.5757136874	 3.8635735666	-1.3450828938	 0.006553
N	 1.4308300401	 3.157561285	-0.4855803265	-0.339397
C	 1.3308339292	 1.9154561115	 0.1000907405	 0.311412
O	 2.2352447559	 1.4469619926	 0.7571855941	-0.334709
H	-2.046503218	 1.2213836231	 0.4608975874	 0.133255
H	-1.1190228086	 2.6513387512	 0.9815620928	 0.12417
H	-1.9168688399	 1.9315553994	-1.8921996459	 0.135018
H	-2.648402604	 3.1801504376	-0.9118622157	 0.121072
H	-1.1158321399	 4.3723506469	-2.3734699615	 0.100746
H	 1.1029744347	 4.6767067452	-1.832664473	 0.116613
H	 2.343094418	 3.5664884757	-0.3334884559	 0.259263
