19
gdb 117456	5.58061	0.65558	0.6168	5.5473	77.28	-0.2449	0.0095	0.2544	1825.9096	0.15786	-456.369901	-456.359504	-456.35856	-456.407827	35.43	
C	-0.0086859111	 1.1020439178	 0.4610433494	-0.374791
C	-0.1130941821	-0.1730803697	-0.3763755637	-0.146201
N	-1.4914957479	-0.5955522998	-0.5863445725	-0.315399
C	-1.9885470796	-1.7684157125	-0.112514907	 0.418647
O	-1.3341234052	-2.5947382036	 0.4966319028	-0.366867
C	-3.4917791517	-1.9755962281	-0.3570684693	-0.214482
O	-3.7856921182	-3.307443771	-0.716275149	-0.169444
C	-3.748889354	-4.2328143295	 0.2746853903	 0.15036
N	-3.9376001469	-5.4454123693	-0.012075128	-0.447598
H	 1.0400212531	 1.3885136113	 0.5857645941	 0.126724
H	-0.5275671108	 1.9397476317	-0.0181166763	 0.113293
H	-0.4453007511	 0.9536329756	 1.4528845094	 0.131528
H	 0.3725852509	-0.0299281149	-1.3494093781	 0.113944
H	 0.3827010792	-1.0094793618	 0.1200987193	 0.156902
H	-2.0992456913	 0.0090767295	-1.1155920114	 0.246949
H	-4.0237605581	-1.6821440047	 0.5600521996	 0.129227
H	-3.8647729157	-1.3531957892	-1.1749923261	 0.120279
H	-3.5644817009	-3.8065979679	 1.2658881578	 0.098493
H	-3.9044026684	-6.0080914241	 0.8354163784	 0.228435
