15
gdb 1044	6.90242	1.93564	1.66111	1.4034	63.67	-0.1857	0.0529	0.2386	766.8327	0.127397	-304.721921	-304.71512	-304.714175	-304.752964	25.007	
C	 0.274718158	 1.0712880808	 0.5358000757	-0.323025
N	-0.1167502246	 0.1299371578	-0.5216809714	-0.386113
C	-1.3276628597	-0.5564964799	-0.3045905999	 0.284635
C	-2.6313529155	-0.3136202577	-0.6838286527	-0.21158
C	-3.4264534104	-1.3896128302	-0.1937067281	-0.134685
C	-2.5911538187	-2.2487578686	 0.4791634366	-0.098522
N	-1.3188313458	-1.7350396914	 0.4039962794	-0.249767
H	 1.230329369	 1.5326854136	 0.2691968086	 0.11669
H	-0.4655439622	 1.865752798	 0.7168814065	 0.109696
H	 0.4156170275	 0.5261271684	 1.4735973561	 0.124315
H	-0.1503344899	 0.6068563815	-1.4140641586	 0.232373
H	-2.9729503877	 0.544776961	-1.2425675097	 0.080096
H	-4.4921731449	-1.5109918547	-0.3138345375	 0.088314
H	-2.7889503635	-3.1711061054	 1.000634022	 0.110366
H	-0.4774451612	-2.1779561331	 0.7302796131	 0.257206
