17
gdb 14922	4.43631	1.43483	1.15822	3.7695	68.6	-0.268	0.033	0.301	1010.0447	0.144735	-363.889952	-363.882758	-363.881814	-363.921408	27.243	
N	 0.0579479513	-1.1674666529	-0.032425711	-0.320217
C	 0.0145389224	-0.0124670256	-0.0112049636	 0.259418
C	-0.0166903481	 1.4474725427	 0.0303366871	-0.154874
C	-0.7710878084	 1.9730342294	 1.274309278	-0.204558
C	-0.6697451135	 3.5028823802	 1.3325801815	-0.219876
C	 0.7891106711	 3.9456905491	 1.2137661412	-0.069008
O	 1.3918823871	 3.4335158438	 0.0328810844	-0.241699
C	 1.4200230166	 2.0261329264	 0.0085510288	-0.079584
H	-0.528213174	 1.8016681274	-0.8734663361	 0.131341
H	-1.8138530789	 1.6444714946	 1.2492167105	 0.12026
H	-0.318210445	 1.5325441706	 2.1710775668	 0.118833
H	-1.2439576434	 3.9466514388	 0.5104288148	 0.111784
H	-1.0976951008	 3.8770358823	 2.2688227869	 0.106632
H	 0.8724855794	 5.0335951847	 1.1482318652	 0.114683
H	 1.3583192277	 3.6124961166	 2.0984594319	 0.092551
H	 1.9825326423	 1.6261422479	 0.8682956773	 0.105159
H	 1.9393501542	 1.733727694	-0.9070953338	 0.129153
