17
gdb 103535	2.54769	1.44931	1.16531	2.813	69.82	-0.239	-0.0284	0.2106	1093.4213	0.134424	-458.977459	-458.968616	-458.967671	-459.011209	32.832	
O	-0.0457985502	 1.4756850417	 0.2011524953	-0.440444
C	 0.0258662815	 0.0627753333	 0.0168356027	-0.139353
C	-1.4200037177	-0.4371095404	-0.0572948149	 0.254766
O	-2.1256558894	 0.0316931988	 1.0838294237	-0.476507
C	-2.1362115052	-0.1246476041	-1.3501769784	-0.104974
C	-2.5966029382	-1.2160671411	-1.9628545984	-0.089211
C	-2.2724198964	-2.4898720021	-1.2275005428	-0.376445
C	-1.4497555806	-1.9943345485	-0.0354128945	 0.376162
O	-0.8842348804	-2.6710365382	 0.7800929952	-0.308688
H	 0.7867790952	 1.7803627044	 0.5720402903	 0.299256
H	 0.5731553601	-0.1908929489	-0.9016138697	 0.099511
H	 0.5089098389	-0.4314917899	 0.869217806	 0.121536
H	-1.7749592323	 0.9183698068	 1.248049011	 0.288544
H	-2.2635752206	 0.8943336057	-1.6959298132	 0.110445
H	-3.1547887341	-1.2145955024	-2.8925153508	 0.105152
H	-3.1620731867	-3.031383594	-0.8797251008	 0.143966
H	-1.6859598639	-3.209762341	-1.8118769507	 0.136283
