20
gdb 88611	3.6342	1.10783	1.01424	2.155	80.19	-0.2277	0.087	0.3146	1252.6957	0.170557	-403.0407	-403.032527	-403.031583	-403.073892	31.676	
C	-0.0829577764	 1.567039097	-0.3445596883	-0.414769
C	-0.0193296176	 0.075251453	-0.0968433342	 0.029711
C	 1.2652140001	-0.6733408767	-0.1801432156	-0.256936
N	 0.5817476469	-0.5212345562	 1.1046576169	-0.107659
C	 1.2029334118	 0.3239881782	 2.0904076155	 0.078361
C	 0.4220161405	 0.6894672773	 3.3853942092	 0.021685
C	 0.5057994584	-0.7791793723	 3.8634122131	-0.224798
C	 1.8853868703	-0.3406598999	 3.3215428986	 0.024126
O	 1.7299920089	 0.9517615489	 4.0288979713	-0.312721
H	 0.860884701	 2.0703178329	-0.124026782	 0.126561
H	-0.3192842795	 1.753968916	-1.397363109	 0.124884
H	-0.868409379	 2.0363369697	 0.2580219582	 0.125331
H	-0.9220191604	-0.4536377443	-0.4002915564	 0.092509
H	 1.3075575544	-1.6827204077	-0.5809972224	 0.11487
H	 2.166599763	-0.0825652074	-0.3433259806	 0.1092
H	 1.7910027519	 1.1667972921	 1.7063733547	 0.071433
H	-0.3663182746	 1.4288374918	 3.5319870013	 0.088479
H	 0.4597787463	-0.9105089067	 4.9449030645	 0.102139
H	-0.0447011529	-1.5294084728	 3.2969352072	 0.117302
H	 2.8541017969	-0.8369530629	 3.388092638	 0.090293
