17
gdb 15783	5.8893	1.04738	0.98253	4.7882	68.92	-0.2882	0.0294	0.3176	1183.8963	0.141552	-363.860748	-363.852287	-363.851343	-363.894112	30.622	
O	-0.4707360684	 1.2880997897	 0.0819169567	-0.4153
C	-0.105834513	-0.0774455565	 0.0421532116	 0.102522
C	 0.7456782341	-0.3999629611	-1.2097931861	-0.373337
C	 0.089905683	-0.0264117702	-2.4601824647	 0.268996
N	-0.4272475123	 0.2617567243	-3.4521963646	-0.302223
C	 0.6112194814	-0.545829254	 1.3001255999	 0.009476
C	 1.5792795376	 0.3516736309	 2.0341731369	-0.278059
C	 0.2383980317	 0.0194362475	 2.6417296429	-0.272935
H	 0.3272807649	 1.8239897371	 0.0141302195	 0.287568
H	-1.057481289	-0.6145853722	-0.0441262855	 0.115027
H	 1.7083472638	 0.1222856419	-1.1397933469	 0.146079
H	 0.9733646992	-1.4715023174	-1.2366501455	 0.153553
H	 0.8690968888	-1.6017344261	 1.27695286	 0.088577
H	 2.4724114806	-0.0959789544	 2.4548566262	 0.119065
H	 1.7242925031	 1.3682396388	 1.6821506946	 0.101452
H	-0.5036817504	 0.8093066726	 2.6477947398	 0.133205
H	 0.2044277749	-0.651126861	 3.4925674152	 0.116334
