18
gdb 81054	2.54277	1.56094	1.14665	12.2227	73.93	-0.1797	-0.0049	0.1748	1089.1389	0.147769	-438.995664	-438.987302	-438.986358	-439.029841	31.067	
C	-0.0350631657	 1.6074768275	 0.0672384383	-0.456179
C	 0.0526605155	 0.1044792624	 0.0716131585	 0.049573
N	 1.1764232482	-0.6462631805	-0.7348534663	-0.137818
H	 1.350713021	-0.6397861432	-1.7459380956	 0.27433
C	 2.1503801244	-0.2365724779	 0.3717098201	-0.217517
C	 0.8670066147	-0.6807843503	 1.1485900775	 0.22522
C	 0.8522875764	-1.8692634232	 0.1376910448	-0.213196
C	 0.602351414	-0.660304006	 2.6795145274	 0.247771
O	 0.0456616009	 0.3961037885	 3.033275818	-0.480877
O	 0.99400358	-1.6749001851	 3.2666081474	-0.472421
H	 0.9292696344	 2.117755311	 0.060871209	 0.130327
H	-0.6367691101	 1.9790693817	-0.7664563818	 0.121669
H	-0.5187081458	 1.850390875	 1.0204282489	 0.210754
H	-0.9111897116	-0.3487154045	-0.1733672504	 0.118441
H	 3.0220908447	-0.8893128293	 0.4217725762	 0.151221
H	 2.4215227643	 0.8155075835	 0.3491547496	 0.151051
H	-0.1059401098	-2.325707341	-0.1126811613	 0.146066
H	 1.6707987745	-2.5868014683	 0.17576191	 0.151585
