16
gdb 68517	2.66272	1.85482	1.45653	1.605	67.69	-0.2371	-0.0069	0.2301	914.7414	0.125294	-437.840833	-437.833736	-437.832792	-437.872114	28.583	
O	-0.0870130321	 1.4112955616	 0.1006309387	-0.484919
C	 0.0152930756	 0.0362923002	 0.0646607032	 0.306887
C	 0.916769592	-0.837849656	 1.0163715862	-0.309771
C	 0.7147731722	-1.95479548	-0.0594550289	-0.177393
C	-0.8109490859	-2.1533910142	-0.0613913163	-0.043046
N	-1.5089256815	-1.6846305813	 1.1559538642	-0.336541
C	-1.3020997738	-0.7479287841	 0.0324543548	-0.085225
C	 0.798015785	-0.7444477253	-1.0408346214	 0.358283
O	 1.3892099513	-0.4439441501	-2.0322163973	-0.324473
H	 0.6897886902	 1.7817456124	-0.3352273028	 0.294265
H	 1.9469224433	-0.4796130527	 1.052886759	 0.109149
H	 0.5125381535	-1.0402705097	 2.0042972505	 0.151159
H	 1.3733138712	-2.8148518028	-0.1367658384	 0.09193
H	-1.2679416545	-2.897152864	-0.7025213693	 0.105308
H	-2.4695251015	-2.0177759262	 1.1191841166	 0.238071
H	-2.138155125	-0.3563452979	-0.5338311588	 0.106317
