19
gdb 73546	2.4956	1.95224	1.56585	1.9691	74.66	-0.2294	0.0638	0.2932	938.8555	0.15989	-422.954544	-422.947038	-422.946094	-422.986075	30.821	
O	 0.2675454689	 1.4337514198	 0.2172712086	-0.483379
C	 0.0967108745	 0.0537947413	 0.0162516435	 0.4325
C	 0.7403778758	-0.5153498982	-1.2639827443	-0.325139
C	-0.4523505564	-1.0250103994	-2.1586183265	-0.192234
C	-1.8005764683	-0.6858051482	-1.4298949406	-0.36425
C	-1.3195124113	-0.5785969249	-0.0163011623	 0.371575
C	-1.5645967582	-0.1471917524	 1.4474272063	-0.324241
C	-0.1241382644	-0.7502532553	 1.3236184379	-0.005364
O	-0.6851265742	-1.8330821647	 0.5030576314	-0.352135
H	 0.2059494001	 1.8805280854	-0.6331067807	 0.279876
H	 1.3101032594	 0.2762906231	-1.7616323318	 0.090237
H	 1.4387067361	-1.3274216426	-1.0592685862	 0.123915
H	-0.4250805306	-0.588244224	-3.160868976	 0.095217
H	-0.3782364524	-2.107218937	-2.2767270335	 0.123725
H	-2.2054237838	 0.2794113731	-1.755942177	 0.104243
H	-2.566445	-1.4474473272	-1.5960556937	 0.11592
H	-1.6573716808	 0.9193427346	 1.651112448	 0.114966
H	-2.2620052744	-0.767614515	 2.0107880789	 0.105008
H	 0.57129759	-1.0231897085	 2.119306348	 0.089562
