13
gdb 19632	6.28622	1.72462	1.6592	1.4806	68.68	-0.2153	0.0197	0.235	774.5506	0.094818	-324.163134	-324.157116	-324.156172	-324.193004	24.018	
C	-0.032253269	-1.1791158996	 0.0021033184	-0.376726
C	-0.0180241209	 0.0256628294	 0.0080434857	 0.017212
C	 0.0187671868	 1.4341449795	 0.0115676729	 0.336808
C	-0.8740882591	 2.450224953	 0.7777940677	-0.170274
C	 0.3071248662	 3.4488762783	 0.7726872978	-0.049321
C	 1.161297816	 2.4921859991	 0.025860355	-0.135805
N	 0.3246710676	 3.4843407528	-0.7336937388	-0.17735
C	-0.8187282512	 2.47473305	-0.719412349	-0.069204
H	-0.0485778826	-2.2405624131	-0.0024811331	 0.181032
H	-1.677214799	 2.2297398339	 1.4656140635	 0.113798
H	 0.55022038	 4.3129758607	 1.3781638529	 0.106906
H	 2.2339940887	 2.4120612212	-0.099261896	 0.106474
H	-1.5677968235	 2.3639594248	-1.4927974771	 0.116449
