18
gdb 27632	2.98552	1.21094	0.87087	2.9961	91.56	-0.1903	0.0207	0.2111	1328.0318	0.146461	-364.839971	-364.830469	-364.829525	-364.874097	35.021	
C	-0.0068023744	 1.5029601748	 0.0858372936	-0.506986
C	 0.006711207	 0.0165039086	-0.0462902144	 0.327279
C	-0.0280175529	-0.7939918684	-1.1509992405	-0.359455
C	 0.0065131016	-2.1572933103	-0.7023170546	 0.103239
C	-0.011852631	-3.3201680579	-1.5057138586	 0.236892
C	-0.0277314192	-4.3083615827	-2.1968539285	-0.462568
C	 0.0620679698	-2.1321515607	 0.6845449755	 0.199228
C	 0.1162130983	-3.250258179	 1.6683803964	-0.521569
N	 0.0611744976	-0.8131318389	 1.0575088299	-0.346377
H	 0.8906457675	 1.8827229557	 0.5905192509	 0.126536
H	-0.0468702273	 1.961658821	-0.9044934529	 0.141194
H	-0.8758582694	 1.861388389	 0.6521058137	 0.126724
H	-0.0734712978	-0.4673307031	-2.1781076296	 0.097476
H	-0.0415047849	-5.1765337649	-2.8067569706	 0.176019
H	 1.0292807088	-3.2224090937	 2.2764069954	 0.126876
H	-0.737582397	-3.2363802332	 2.3575185389	 0.126593
H	 0.099313209	-4.201367581	 1.1323544441	 0.154256
H	 0.0957394544	-0.4933869451	 2.0107499214	 0.254645
