18
gdb 48995	2.14511	1.94804	1.30354	2.256	79.03	-0.2251	-0.0365	0.1886	1019.7371	0.148438	-401.922022	-401.91425	-401.913306	-401.954402	30.035	
O	-0.0713468364	-0.082615037	 0.1198424427	-0.253116
C	-0.005194106	 1.1197901039	 0.1448702902	 0.117812
C	 1.2747437178	 1.9276891704	 0.053369741	 0.214278
C	 2.5495021842	 1.0755111171	-0.0358778063	-0.296563
C	 2.8374703538	 1.0490743028	-1.5762849179	-0.250709
C	 2.2322885783	 2.3621316711	-2.0721613539	-0.210538
C	 1.3381325358	 2.7887830469	-1.1904914934	 0.23233
C	 0.7888063907	 3.9674897546	-0.4222516489	-0.268322
N	 1.1793318454	 3.2182117351	 0.8278811525	-0.375767
H	-0.9261050469	 1.7429452651	 0.2449776141	 0.067154
H	 3.3580951711	 1.5969182249	 0.4830001045	 0.114939
H	 2.4299546811	 0.0776128498	 0.3901568075	 0.115607
H	 3.9091705163	 0.9973824194	-1.7943637726	 0.108814
H	 2.3789475261	 0.1721609948	-2.0508325607	 0.12475
H	 2.5826026388	 2.8838997206	-2.9551199429	 0.104552
H	 1.2952524399	 4.9287491059	-0.5514538423	 0.125598
H	-0.2938805809	 4.1197732296	-0.5278141278	 0.111521
H	 0.4554241609	 3.2166089649	 1.5442641542	 0.217659
