17
gdb 133724	2.55065	1.32152	1.0696	2.5006	61.91	-0.2289	0.0778	0.3067	1141.7603	0.132197	-549.496837	-549.488155	-549.487211	-549.530783	31.483	
C	-0.0032495087	 1.5281884788	 0.0559474531	-0.332174
N	-0.0110882339	 0.0840399986	 0.1362288368	-0.063944
C	-1.2684343299	-0.62614208	 0.4399204379	-0.16145
C	-0.4552762952	-1.6392969583	 1.284105845	-0.266812
C	 0.6670025122	-0.5745814907	 1.2561692865	-0.10169
C	 2.0835724999	-1.0231758623	 0.9498823349	 0.284769
F	 2.1402847248	-1.870668742	-0.082063742	-0.07276
F	 2.8640511623	 0.0313494658	 0.6518171175	-0.085651
F	 2.6252044486	-1.6408189143	 2.0141184625	-0.081892
H	 1.0252522356	 1.8794249827	-0.0634267309	 0.135328
H	-0.5769687224	 1.8515727093	-0.8184931312	 0.125379
H	-0.436298292	 2.0143782304	 0.9506148434	 0.091861
H	-1.9602450351	-0.0324838397	 1.0593502725	 0.089738
H	-1.8087057111	-0.9990653281	-0.4358209509	 0.110288
H	-0.8502413648	-1.9086233363	 2.2624169379	 0.116814
H	-0.1852320669	-2.5379524797	 0.7292134938	 0.130958
H	 0.7094606365	 0.0276751058	 2.1784326332	 0.081236
