17
gdb 61155	3.12683	0.91076	0.79776	0.6038	75.35	-0.253	-0.1002	0.1528	1429.9962	0.131516	-421.814034	-421.803948	-421.803004	-421.849856	35.13	
C	 0.2981323734	 1.4093914286	 0.2396197352	-0.412929
C	-0.013641102	-0.0530630018	-0.1469421226	-0.090116
C	-1.5256971633	-0.3645624207	-0.1054548053	-0.367936
C	-2.0869190693	-0.2379264863	 1.2328841589	 0.291643
C	-2.5282540888	-0.1325723173	 2.3461187195	-0.431103
C	 0.5413647955	-0.3353165584	-1.5268398384	 0.284218
O	-0.121537933	-0.4392132875	-2.5339417578	-0.28554
C	 2.0639210922	-0.5089537297	-1.6637735884	 0.098121
O	 2.8270149255	-0.5112587919	-0.7345635097	-0.219698
H	 1.3750434966	 1.5884808963	 0.2634653778	 0.141567
H	-0.1599549434	 2.105972251	-0.4704822655	 0.12756
H	-0.109963429	 1.6141728213	 1.2321354722	 0.148047
H	 0.5187148091	-0.7011668561	 0.5587316448	 0.121358
H	-2.0478646992	 0.3031233129	-0.800532359	 0.145683
H	-1.6978920676	-1.3787198113	-0.4844011957	 0.139728
H	-2.9339656026	-0.0445953984	 3.3233774354	 0.197241
H	 2.3789342959	-0.6559003206	-2.7186064515	 0.112157
