15
gdb 21175	5.33778	1.35462	1.08971	3.2323	64.3	-0.1946	0.0442	0.2388	1039.5	0.120444	-395.993474	-395.985652	-395.984708	-396.025505	28.744	
C	 0.0893920942	 1.4046330729	 0.0329918367	-0.323783
N	 0.0119125854	-0.0443999797	 0.1424406116	-0.394503
C	-1.2415954066	-0.6240466322	 0.0308258852	 0.471857
C	-2.5100116327	-0.0709454113	-0.0000215452	-0.402885
C	-3.363006617	-1.2000954705	-0.0408653466	 0.435271
O	-4.7108107418	-1.1431413543	-0.0923649091	-0.432528
N	-2.719748018	-2.350938739	-0.0422040747	-0.346922
N	-1.3958744697	-1.9727671196	-0.0248963837	-0.300876
H	 1.1307581681	 1.713299694	 0.1478537226	 0.127074
H	-0.2932686959	 1.7940602931	-0.9225128084	 0.120421
H	-0.4893336445	 1.8599568284	 0.8419482662	 0.144578
H	 0.7181211409	-0.519776782	-0.4028699345	 0.238048
H	-2.7863172523	 0.9681894393	-0.0221878111	 0.10231
H	-5.025270958	-2.0556340957	-0.1232278464	 0.299647
H	-0.7024287121	-2.6668903435	 0.1913147772	 0.262292
