16
gdb 81217	3.16599	1.6819	1.50914	1.6033	67.9	-0.2566	0.0047	0.2613	905.232	0.125905	-437.797381	-437.790759	-437.789815	-437.82803	27.152	
O	-0.1045499519	 1.4347245745	-0.0878187945	-0.44362
C	 0.0373063579	 0.0442393031	 0.0296772284	 0.098428
C	-0.0197267713	-0.6190387384	 1.42865451	-0.168005
C	-1.553328668	-0.1825598651	 1.4964523544	-0.31468
C	-1.2910104951	-0.7598472357	 0.0787555354	 0.373018
O	-1.8841159257	-1.2648345412	-1.1114780571	-0.287005
C	-1.0099033421	-2.3123038104	-1.3670368505	 0.086413
N	-0.1585610303	-2.6925243481	-0.4902836429	-0.303435
C	-0.5591884775	-1.9149198155	 0.7065589687	 0.012014
H	 0.7695174093	 1.8323836863	-0.0322931191	 0.289145
H	 0.8045339216	-0.3493580718	-0.6426962044	 0.091519
H	 0.6980103306	-0.536789441	 2.242417789	 0.09078
H	-2.1936128035	-0.7750398436	 2.1518151128	 0.108988
H	-1.7300244645	 0.8872319959	 1.5758383657	 0.133032
H	-1.1282419338	-2.7437317048	-2.3546701072	 0.141212
H	-1.1141021558	-2.5696377343	 1.385457981	 0.092195
