20
gdb 66310	3.74986	0.76777	0.70082	2.5409	76.51	-0.2509	0.0297	0.2806	1625.4586	0.169276	-440.295238	-440.285142	-440.284197	-440.332199	35.542	
C	 0.1358519314	 1.6267683535	-0.0590282444	-0.460441
C	-0.1029988435	 0.1345911591	-0.151204858	 0.425355
C	-1.5453577164	-0.33938231	-0.1220962427	-0.260536
C	-2.213781648	-0.1077290428	 1.2440520167	-0.164728
N	-3.5690473298	-0.6340146037	 1.3076136482	-0.268978
C	-4.6480433766	 0.0904795615	 0.9130376614	 0.150367
O	-4.6046704039	 1.2329114733	 0.5053081565	-0.327546
C	 0.9177754869	-0.7200339022	-0.7766015858	-0.229725
O	 0.7874778166	-0.6700653717	 0.6463331452	-0.281349
H	 1.2067376541	 1.8429700357	-0.0710440899	 0.12666
H	-0.3370792157	 2.1459523049	-0.8991950881	 0.128876
H	-0.2811453215	 2.0399621501	 0.8645392411	 0.13277
H	-2.1257600804	 0.1804462449	-0.8924268825	 0.124243
H	-1.5737979124	-1.409721697	-0.3532956571	 0.094471
H	-1.6173161413	-0.5803107037	 2.0295833349	 0.125572
H	-2.2797392648	 0.9611936818	 1.459127813	 0.142072
H	-3.7101651889	-1.5942138967	 1.5770132855	 0.249159
H	-5.5920874218	-0.4812898615	 1.0162536191	 0.074078
H	 0.6270039147	-1.6615593016	-1.241699607	 0.108619
H	 1.8256044615	-0.2701990841	-1.1776636863	 0.111062
