19
gdb 76978	2.27074	1.18835	0.9082	2.7791	78.14	-0.2395	-0.0171	0.2224	1327.4381	0.15774	-422.998567	-422.989382	-422.988438	-423.033323	33.775	
O	-0.1185179176	 1.2691762811	-0.204494361	-0.40972
C	-0.1401050297	-0.108837457	 0.0065959598	 0.057038
C	-0.4378602974	-0.6603194723	 1.4092654236	-0.182613
C	-0.6273195808	 0.2596623718	 2.5489495783	 0.160974
O	-0.3081447644	-0.0067294083	 3.6850156392	-0.280208
C	-1.4702816778	-0.7181216192	 0.2584190883	-0.066118
C	-2.7220012148	 0.1029516191	 0.2585430192	 0.016115
C	-3.8473139645	-0.272333404	-0.6762226428	-0.276041
C	-4.0033625691	-0.4731736617	 0.8099528064	-0.269547
H	 0.726111685	 1.6120301104	 0.1063964684	 0.297884
H	 0.5853317304	-0.6746732915	-0.5774421937	 0.101951
H	 0.0415740765	-1.5942766357	 1.6834431478	 0.103807
H	-1.0821059086	 1.2409467889	 2.3011945629	 0.079237
H	-1.6034059446	-1.7239638565	-0.131648408	 0.100171
H	-2.5662165257	 1.1654017678	 0.4010319077	 0.106825
H	-4.4017291989	 0.5275875087	-1.1538115416	 0.116836
H	-3.7192742763	-1.1538250685	-1.2962627574	 0.111681
H	-3.9777692382	-1.4895171122	 1.188960101	 0.115136
H	-4.6682393134	 0.1865512393	 1.356106112	 0.116592
