18
gdb 35091	3.03191	1.4642	1.14736	4.1681	80.47	-0.2608	-0.0014	0.2594	1080.7309	0.150129	-364.829267	-364.821794	-364.82085	-364.861431	29.085	
N	-0.0129978588	-1.1832413243	-0.0596843824	-0.334558
C	-0.0229341827	-0.027179794	-0.0484803974	 0.27352
C	-0.0382670727	 1.4374935177	-0.0319248762	-0.203844
C	-0.692976985	 2.0244455007	 1.2142947479	-0.069671
C	 0.0294082724	 3.0091035402	 1.7448416071	-0.079902
C	 1.3153948082	 3.2652270371	 1.0092117488	-0.065148
C	 2.6049740656	 2.7262108261	 1.6998184003	-0.228439
C	 2.4644862601	 1.4102445634	 0.8831000741	-0.226862
C	 1.3769580515	 2.0793139413	-0.0085302297	-0.024097
H	-0.5907638768	 1.7532147104	-0.9285612753	 0.128438
H	-1.6482770915	 1.6634394849	 1.5759175337	 0.116587
H	-0.2630198047	 3.5803539886	 2.6199425678	 0.105802
H	 1.3754314067	 4.287444489	 0.6220706268	 0.07979
H	 3.4914790458	 3.3036700032	 1.4257904315	 0.104702
H	 2.5722792487	 2.6354782765	 2.7882487987	 0.103998
H	 3.3590551436	 1.0682453469	 0.3596923398	 0.110416
H	 2.0754482157	 0.5754574875	 1.4697275399	 0.126437
H	 1.729586754	 2.3268986648	-1.0099378753	 0.082831
