20
gdb 73103	2.80637	1.44912	1.19292	3.8125	78.74	-0.2376	0.0386	0.2762	1109.7102	0.172604	-403.197516	-403.18936	-403.188415	-403.230125	32.258	
C	-0.3414078877	 1.4558366917	 0.2039312505	-0.474598
C	 0.0755002312	 0.0123411425	-0.0365291888	 0.354401
C	-1.0755045066	-1.0269330272	 0.1850714907	-0.271511
C	-0.437731903	-1.4469922493	 1.5373949541	-0.226919
C	 0.8513500265	-0.6735297492	 1.1490281837	-0.030941
N	 1.8569137261	-1.452844784	 0.4675424885	-0.302755
C	 1.9492106978	-1.2896624225	-0.8919279592	 0.398541
O	 2.709363323	-1.8836029659	-1.6237320642	-0.376718
C	 0.9323942987	-0.2098379616	-1.2853713297	-0.411682
H	 0.5309368111	 2.1173131939	 0.2495739682	 0.118122
H	-0.9911613093	 1.8124964327	-0.6030790327	 0.121627
H	-0.8934877705	 1.5637634607	 1.1442700384	 0.11475
H	-2.0846020271	-0.6105447531	 0.2322642741	 0.101817
H	-1.0687178373	-1.8274523262	-0.5589202178	 0.108914
H	-0.9369148014	-0.998186962	 2.4002569721	 0.104912
H	-0.317437915	-2.5170280005	 1.7206781992	 0.10141
H	 1.2868424877	-0.0275979749	 1.9196960428	 0.073162
H	 2.4492549145	-2.1252540912	 0.9300433174	 0.246964
H	 0.3612203137	-0.5382172104	-2.1577422022	 0.127658
H	 1.4860270976	 0.6893758466	-1.580212985	 0.122847
