14
gdb 128014	2.67264	1.6148	1.0153	2.2224	72.81	-0.2639	-0.0598	0.204	1097.3459	0.099529	-466.105864	-466.097425	-466.096481	-466.140317	29.38	
C	-0.1733605054	 1.4400241866	 0.1282209639	-0.332614
N	-0.2096980828	-0.0111731809	 0.1701682449	-0.241804
C	 0.6053214372	-0.6473517004	 0.882246081	 0.417067
O	 1.5365873244	-0.0028808654	 1.6805151104	-0.309425
N	 2.6527469725	-0.6738290605	 2.2842196089	 0.02587
N	 2.6582009019	-1.9075822012	 2.2910627884	-0.018664
N	 1.6522675808	-2.6238723912	 1.7455860264	-0.293827
C	 0.6100314861	-2.1342855525	 0.9518769263	 0.316687
N	-0.250164827	-2.8476277933	 0.3530369319	-0.474392
H	 0.8247912683	 1.8610807087	 0.2899691218	 0.135451
H	-0.5610874698	 1.7693173532	-0.8388247825	 0.134688
H	-0.8382372961	 1.8424604413	 0.9026319478	 0.142264
H	 1.8064532119	-3.6194312547	 1.8057352036	 0.278533
H	-0.096891352	-3.8459797598	 0.5119175972	 0.220164
