18
gdb 48729	3.06676	1.6199	1.33942	2.572	77.18	-0.2465	-0.0257	0.2208	985.0297	0.149895	-401.908235	-401.901377	-401.900433	-401.939443	28.072	
O	-0.1034809344	 0.0483223707	 0.1216109313	-0.270632
C	 0.0502488845	 1.2349333501	-0.0442490828	 0.080356
C	 1.3404995821	 1.9333806191	 0.0250325574	 0.250927
N	 1.3685316981	 3.3983116476	 0.3019577739	-0.369665
C	 1.7223076582	 2.9373546645	-1.035405606	-0.07695
C	 3.1994326155	 2.5482252306	-1.2459710266	-0.048552
C	 3.7210356723	 2.3387648795	 0.2034297525	-0.228579
C	 2.6747563615	 1.1897361361	 0.2089526868	-0.093078
C	 3.0671949989	 0.9848489993	-1.2966171343	-0.219359
H	-0.8134218189	 1.907776212	-0.2711497293	 0.053933
H	 0.4119423821	 3.7539869557	 0.2971928615	 0.234842
H	 1.0767555766	 3.1647983081	-1.877604008	 0.10424
H	 3.7573604874	 3.1119236817	-1.9932966227	 0.070892
H	 4.7396260307	 1.9473418322	 0.2042936623	 0.098347
H	 3.6120177698	 3.1495832343	 0.9204204491	 0.125525
H	 2.6888646376	 0.3763700674	 0.9310269177	 0.082799
H	 2.3162148229	 0.5524904852	-1.9632274678	 0.102617
H	 4.0270479151	 0.4793401459	-1.4245285249	 0.102336
