18
gdb 82143	3.18958	1.09061	0.944	5.3129	73.96	-0.2421	0.0107	0.2528	1268.9546	0.146838	-439.05753	-439.048899	-439.047955	-439.091695	31.41	
C	-0.1055439064	 1.6465155862	-0.1929985632	-0.401867
C	-0.0169439015	 0.133600663	-0.0697166147	-0.04014
C	 0.6990955571	-0.6475160159	-1.1857371746	-0.055002
N	 2.0792178984	-0.1248890696	-1.229221024	-0.31787
C	 1.7297421445	-1.1702197361	-0.2390289175	-0.09324
C	 1.0452949643	-0.4755619943	 0.9286692191	 0.13518
O	 1.8423995943	 0.4456098123	 1.6620330242	-0.179591
C	 1.8096264631	 0.3939478302	 3.0065959591	 0.168515
O	 2.4323197747	 1.138727034	 3.7011443449	-0.275768
H	 0.8692093138	 2.0680068571	-0.4433919641	 0.154983
H	-0.8203058111	 1.9248961281	-0.974666604	 0.111317
H	-0.4439419636	 2.0962119391	 0.7458511669	 0.118204
H	-0.9986556505	-0.3000837269	 0.1440199641	 0.078364
H	 0.2519836907	-1.1357746423	-2.0421257508	 0.099458
H	 2.5645744421	-0.5955554532	-1.991954968	 0.235191
H	 2.252846413	-2.1181951481	-0.2213909794	 0.099958
H	 0.5826838082	-1.1942137157	 1.6141735902	 0.089358
H	 1.1505261389	-0.4116114681	 3.3889167922	 0.072947
