19
gdb 9308	3.14657	1.20713	0.90967	2.6034	71.36	-0.2451	0.0209	0.266	1278.5617	0.163347	-402.201889	-402.19209	-402.191146	-402.237629	33.751	
C	-0.0968672277	 1.426488762	 0.2487763781	-0.230411
O	-0.0691389215	 0.0324804054	-0.0516810217	-0.23657
C	-1.2291772399	-0.6418388678	 0.0966158751	 0.417936
C	-1.0540671326	-2.0990856557	-0.2469217416	-0.490717
N	-2.2849973404	-0.0534709437	 0.4785436403	-0.323924
C	-3.524425951	-0.8003748823	 0.6348743319	-0.156525
C	-4.4983239357	 0.0652995986	 1.4371034012	-0.044626
O	-4.6630949465	 1.3305739571	 0.8337013734	-0.422891
H	 0.9243019226	 1.7804373825	 0.1010149452	 0.128103
H	-0.7831625671	 1.9558431405	-0.4188847258	 0.130741
H	-0.417282193	 1.5968336726	 1.2805038694	 0.13362
H	-0.0355868937	-2.2925561244	-0.582955286	 0.144162
H	-1.26592525	-2.7254632628	 0.6255386892	 0.147914
H	-1.7561522949	-2.3913852279	-1.0338174396	 0.14675
H	-3.9658025487	-1.0053777995	-0.3517187582	 0.106903
H	-3.3820635316	-1.7677346911	 1.1400097851	 0.088465
H	-5.483982448	-0.4107152425	 1.4793982933	 0.097742
H	-4.1251626688	 0.158560063	 2.4708929617	 0.080113
H	-3.7637881616	 1.6137943759	 0.6189586591	 0.283217
