14
gdb 13756	3.70261	1.43937	1.20318	6.1594	60.2	-0.2408	-0.0264	0.2144	983.382	0.106206	-415.866212	-415.858	-415.857056	-415.900071	28.53	
N	-0.0476442708	 1.3589318748	-0.4985058996	-0.534253
C	-0.0690014156	 0.328292111	 0.3947941906	 0.455683
O	 0.8500081883	 0.0932399931	 1.1530576354	-0.361636
C	-1.3492700372	-0.4739951737	 0.3771733209	-0.13518
N	-1.205648377	-1.9291682516	 0.4436705841	-0.311259
C	-1.8038420401	-1.2409118778	 1.5909501972	-0.125851
C	-1.0216252744	-1.2837341827	 2.8727366923	 0.176713
O	-1.5277314485	-1.0079797474	 3.9320946728	-0.264977
H	 0.7974521708	 1.902326838	-0.5692406621	 0.26887
H	-0.7570943722	 1.4840092624	-1.1986406109	 0.262347
H	-2.1517818087	-0.0729573135	-0.240497209	 0.091222
H	-1.9192472343	-2.3820730872	-0.1207111326	 0.247418
H	-2.8811739802	-1.276476241	 1.7408590267	 0.108878
H	 0.0266490598	-1.6084174844	 2.7650921542	 0.122027
