14
gdb 61103	2.46178	1.24865	1.03615	3.7568	72.22	-0.2854	-0.0235	0.2619	1163.2566	0.098551	-395.695993	-395.686457	-395.685513	-395.730443	33.674	
N	 0.0391445076	 1.5149463342	-0.0147982998	-0.491679
C	 0.0175154338	 0.0547930792	-0.0029972979	-0.086824
C	-1.4588185871	-0.4516418297	 0.124853022	-0.374496
C	-2.120023471	 0.0115323911	 1.3322164145	 0.327566
C	-2.6755955294	 0.3739356526	 2.3323858693	-0.420177
C	 0.5916604457	-0.5393625198	-1.2407759759	 0.28226
N	 1.0050001206	-0.9396552293	-2.2428572258	-0.319081
C	 0.8141796635	-0.4182938204	 1.1480938912	 0.339985
N	 1.4455426755	-0.7947544008	 2.037602746	-0.312347
H	 0.9919120374	 1.8568015656	-0.0952879889	 0.262682
H	-0.4809204464	 1.8576563564	-0.8174856603	 0.254919
H	-1.9914146094	-0.1075390074	-0.7699634205	 0.154783
H	-1.4489209498	-1.5456629043	 0.0824379991	 0.170573
H	-3.1609135209	 0.6966279625	 3.2205441369	 0.211837
