13
gdb 16120	4.59984	1.74535	1.52506	3.9487	58.54	-0.2575	0.0044	0.2619	810.4483	0.09607	-398.577391	-398.570902	-398.569958	-398.60807	24.138	
N	 0.0347890284	-1.1785205091	-0.3036404504	-0.338152
C	 0.0417830533	-0.0409775961	-0.0963039081	 0.244213
C	 0.073905456	 1.376024928	 0.1125663087	 0.267488
C	 0.2515450037	 2.3633655395	-1.0385036982	-0.381779
C	 1.3128523225	 2.2401717533	 0.0258180833	 0.043799
O	 1.2752840542	 3.0839992482	 1.1373139964	-0.24293
C	-0.0523285863	 3.0572246764	 1.6293706221	 0.003491
O	-0.6346831186	 1.8192517329	 1.2405636607	-0.286857
H	 0.4901646236	 1.9344847802	-2.0052479376	 0.151361
H	-0.4016096917	 3.2279357302	-1.0679226504	 0.144301
H	 2.3039119845	 1.8651941743	-0.1915377637	 0.144625
H	-0.0360019898	 3.1217151658	 2.7203664814	 0.140733
H	-0.6333941497	 3.8911928064	 1.2079014958	 0.109709
