19
gdb 66957	2.50904	1.69089	1.26727	0.834	84.9	-0.2423	0.0462	0.2885	1058.9926	0.15884	-348.676136	-348.668081	-348.667137	-348.708298	32.272	
C	 0.033164161	 1.4891888736	 0.1071319274	-0.510311
C	 0.0105822916	-0.005979659	 0.0088571695	 0.355539
C	-0.9530811791	-0.8790277605	 0.8305798151	-0.104152
C	-1.0914996909	-2.2287233465	 0.1298710526	-0.23996
C	 0.4089968457	-2.0699841112	-0.2279255863	-0.072902
C	 0.5461547625	-1.0432580338	 0.9671461594	-0.158418
C	 0.4497642678	-0.8467416891	-1.2049854847	-0.22327
C	-0.3449939399	-0.8573511528	-2.4217016269	 0.312738
C	-1.0088553702	-0.8560932867	-3.4254809145	-0.458734
H	 1.0159154562	 1.8925729449	-0.162621865	 0.117464
H	-0.7085162947	 1.9390129952	-0.5627185895	 0.12993
H	-0.1938586444	 1.8203971128	 1.1260880718	 0.119097
H	-1.6334398758	-0.4163746609	 1.5348379842	 0.081825
H	-1.2417400968	-3.0347029827	 0.8536083915	 0.097431
H	-1.7984046382	-2.3317162312	-0.6995112187	 0.105021
H	 1.0412645448	-2.9336223532	-0.4209406886	 0.074298
H	 1.2167192704	-0.9690369021	 1.8109435738	 0.089304
H	 1.4932103392	-0.6066881612	-1.4399134497	 0.093686
H	-1.5936087891	-0.8572162355	-4.3117481214	 0.191414
