18
gdb 6607	5.02729	1.31825	1.27034	2.3616	68.72	-0.2558	0.0728	0.3286	1004.4654	0.15337	-384.885743	-384.87782	-384.876875	-384.917786	30.474	
O	-0.1123376215	 1.4006473697	 0.0103944939	-0.420736
C	-0.059895107	-0.0192681877	-0.0028785949	-0.215843
C	-1.4659676587	-0.5372370902	 0.0202818525	 0.364675
C	-2.5825366179	-0.2778584552	-1.0394751969	-0.280938
C	-3.2167601317	-1.1789313395	 0.0414768796	 0.392048
O	-4.5253803363	-1.6180264663	-0.0175927381	-0.46793
C	-1.9052556172	-2.03066178	 0.0224743602	-0.341055
C	-2.5412391967	-0.2742301008	 1.1176242337	-0.314944
H	 0.7892692937	 1.7340130884	-0.0159409163	 0.2884
H	 0.4530845688	-0.3931059337	-0.9042718101	 0.087232
H	 0.4883072972	-0.4085571121	 0.8710831918	 0.085617
H	-2.9572695472	 0.7453499388	-1.1087927524	 0.101911
H	-2.433845637	-0.728160218	-2.0249251428	 0.087621
H	-4.7124389681	-2.1258697345	 0.7791976455	 0.280863
H	-1.7066718119	-2.6033161048	-0.8878539075	 0.091045
H	-1.6735964535	-2.6061299639	 0.9245119951	 0.081359
H	-2.3543555936	-0.7249560475	 2.0977991086	 0.078067
H	-2.9086985513	 0.7505800575	 1.202118278	 0.102609
