19
gdb 81914	2.19221	1.85218	1.18551	2.694	74.64	-0.2355	-0.0124	0.2231	1069.3526	0.15931	-423.043675	-423.035112	-423.034168	-423.0784	32.723	
C	-0.8119946539	 1.2106055869	 0.0918994253	-0.41457
C	 0.0006339806	-0.0814397594	-0.0088725847	-0.123364
C	 0.7720333681	-0.3338989721	-1.343480881	 0.05123
O	 0.8370450642	 0.7951411607	-2.2073895998	-0.418093
C	 2.2002167852	-0.7075389869	-0.9481980769	-0.043673
C	 2.9864822221	 0.4042858259	-0.3348306394	-0.270763
C	 2.3418410402	-0.6448062521	 0.5602889926	-0.152357
C	 1.023188479	-0.2416527861	 1.1350883346	 0.398158
O	 0.7622390468	-0.1132877314	 2.3060771802	-0.337738
H	-0.2019340051	 2.0850047396	-0.1478088969	 0.132329
H	-1.6725811328	 1.2012884113	-0.5859094116	 0.104259
H	-1.1875283965	 1.3178909109	 1.1127410675	 0.143618
H	-0.6834297839	-0.9274953307	 0.1431148293	 0.10828
H	 0.3125493346	-1.1764892627	-1.8772453578	 0.072336
H	-0.0568152583	 0.9985614956	-2.5010098758	 0.28517
H	 2.7161712821	-1.4654965477	-1.5245732286	 0.095017
H	 4.0674483581	 0.3627703828	-0.4013870032	 0.124189
H	 2.5725615733	 1.4051522319	-0.3650484305	 0.138474
H	 2.981406096	-1.3011906967	 1.1368041566	 0.107499
