12
gdb 24960	5.32782	1.36069	1.08489	3.7922	61.83	-0.2062	0.0017	0.2079	990.8115	0.079458	-472.664746	-472.658247	-472.657303	-472.695832	24.626	
O	-0.0242010637	-0.0018812014	-0.040509925	-0.369219
C	-0.0417187362	 1.1927613636	-0.0303737283	 0.457273
N	-1.1560626983	 2.045913313	-0.048926461	-0.50347
C	-0.6720135784	 3.3316898249	 0.0894802658	 0.374234
C	 0.6722297284	 3.2982274705	 0.08790213	 0.254234
O	 1.1036719087	 1.9915501508	 0.0146744003	-0.249703
C	 1.121824765	 4.6470953281	 0.0181826027	-0.328575
C	-0.0330556473	 5.3811425455	-0.0054483663	-0.014703
O	-1.1654129437	 4.5719167139	 0.0176482156	-0.194732
H	-2.0797330965	 1.6897369123	 0.1287172937	 0.288436
H	 2.1253494305	 5.0387675751	 0.0055983853	 0.137488
H	-0.2354760183	 6.4372398537	 0.0122790272	 0.148736
