21
gdb 35703	2.39264	1.26824	0.95144	0.6351	88.71	-0.2499	0.0503	0.3002	1313.5701	0.182109	-349.897634	-349.888591	-349.887646	-349.931737	34.741	
C	-0.0984901241	-1.2416540948	-0.0406999783	-0.49567
C	-0.0473630446	-0.0395546728	-0.0147232441	 0.356472
C	 0.0139366219	 1.4090501764	 0.0362697792	-0.206731
C	-0.2127489883	 1.9995760125	 1.4705379504	-0.222196
C	 1.3221812028	 2.1179324989	 1.639201165	-0.233053
C	 1.4744182071	 2.0119183331	 0.0962478395	 0.026598
C	 2.6264795263	 1.251723314	-0.4909408513	 0.019538
C	 3.0518401839	 1.4877989382	-1.9196653731	-0.269907
C	 3.927892316	 1.9587666147	-0.7861977755	-0.278088
H	-0.1520253896	-2.3014851214	-0.072754806	 0.193529
H	-0.621014651	 1.8285394571	-0.7498692821	 0.095795
H	-0.7005183662	 2.9762914249	 1.4142691039	 0.102085
H	-0.7567655791	 1.3690402448	 2.1748952405	 0.109883
H	 1.7169766996	 3.0129533005	 2.1252569002	 0.096403
H	 1.7391508766	 1.2369154527	 2.1358776639	 0.109524
H	 1.4340137456	 3.0144408425	-0.3453461146	 0.067826
H	 2.7082300851	 0.227979223	-0.1373320691	 0.090631
H	 3.3775008367	 0.6359269525	-2.5059575319	 0.11234
H	 2.5161163905	 2.2392825992	-2.490952191	 0.107081
H	 3.9804987533	 3.0261413316	-0.5963558072	 0.107592
H	 4.8554059275	 1.4302295922	-0.5957335485	 0.110349
