16
gdb 16857	3.74755	2.09732	1.65621	2.8802	65.75	-0.2391	0.0219	0.261	801.4934	0.132994	-379.902737	-379.896166	-379.895222	-379.933426	25.563	
N	-0.1547815411	 1.346549512	 0.1477333461	-0.515161
C	-0.0208175421	 0.114924819	-0.106707046	 0.37246
C	-1.1614801251	-0.8636532771	 0.0955327357	-0.234491
N	-1.2706577085	-1.9343126869	-0.9002845766	-0.098532
C	-0.8552028623	-1.6166296798	-2.2732441185	-0.256184
C	 0.0187205762	-2.4242297484	-1.3812439355	-0.01513
C	 1.2550055277	-1.8106978541	-0.7641193509	-0.113134
O	 1.1469181732	-0.3942864266	-0.6039857787	-0.243323
H	 0.72297695	 1.8417557364	-0.026741717	 0.218817
H	-1.048874212	-1.3443350342	 1.0759909072	 0.130473
H	-2.0880689829	-0.2879592084	 0.1234967369	 0.147568
H	-1.4364285177	-2.1060660297	-3.0486980765	 0.122498
H	-0.5468860955	-0.600784884	-2.5052607364	 0.137492
H	 0.0841545158	-3.5025215286	-1.5199985554	 0.099491
H	 1.4537702401	-2.2778728632	 0.2114779125	 0.117184
H	 2.1353407343	-1.9695622065	-1.3933337069	 0.129971
