20
gdb 39417	2.38186	1.94484	1.34819	2.4951	77.95	-0.23	0.0677	0.2977	1005.5043	0.174428	-403.098796	-403.091393	-403.090448	-403.130342	30.117	
C	-0.0320782454	 1.4142942263	-0.0656018116	-0.310966
C	 1.3378165473	 0.7883930874	 0.092629514	-0.068678
C	 2.0730643995	 0.97620023	 1.4039619946	-0.061079
O	 2.7064128317	-0.1819285603	 1.9492695505	-0.266773
C	 2.1203257676	-1.452163261	 1.7687853269	-0.075328
C	 0.6189263936	-1.6074508494	 2.0154342367	-0.040675
N	-0.1419107355	-0.4533751491	 2.5196650036	-0.336398
C	-0.3736638702	-0.9245032726	 1.1420600225	-0.04752
C	 0.101283854	-0.0834358517	-0.0031127121	 0.004266
H	-0.4391886787	 1.9072595485	 0.8112478152	 0.123709
H	-0.295760706	 1.8759272608	-1.0107060747	 0.108798
H	 1.9693254335	 0.7798319545	-0.7912942007	 0.085516
H	 2.8886757666	 1.6933335218	 1.254945414	 0.09453
H	 1.3884541806	 1.3874854059	 2.1489789351	 0.117442
H	 2.325913075	-1.8376546365	 0.7554543864	 0.087766
H	 2.6589317545	-2.1008074386	 2.4686126441	 0.10519
H	 0.3471980719	-2.5911725743	 2.396199665	 0.082654
H	-0.895298197	-0.7617272396	 3.1270112036	 0.233087
H	-1.3104449218	-1.4475629462	 0.9560856078	 0.079346
H	-0.0065944812	-0.6018270558	-0.953139391	 0.085115
