17
gdb 17802	4.34606	1.63978	1.45797	1.6989	68.76	-0.2406	-0.022	0.2186	908.0073	0.14197	-363.794688	-363.787243	-363.786299	-363.827123	27.493	
C	-1.2058214741	-0.1427686715	 0.9070030516	-0.481093
C	 0.061205356	 0.0641066394	 0.1031469341	 0.339501
O	 0.9685943646	 0.7765104986	 0.4694806672	-0.297267
C	 0.1136129699	-0.6714790435	-1.2257796359	-0.023831
C	 1.4471274779	-1.0392937008	-1.9057679008	-0.067822
C	 1.582161234	-2.0904380301	-0.7812401194	-0.175255
N	 0.0885057295	-2.2227615101	-1.1600680857	-0.165818
C	 0.6085901623	-2.1306438588	-2.6087218396	-0.169676
H	-2.0705354608	 0.2359199016	 0.3493579817	 0.139899
H	-1.3759664024	-1.2141267205	 1.057713958	 0.161008
H	-1.1327420106	 0.3749319178	 1.8640040007	 0.139815
H	-0.6865672402	-0.2921697303	-1.8754089217	 0.088247
H	 2.2060251059	-0.371491274	-2.3215860471	 0.079906
H	 2.1545571501	-2.9964553773	-0.9954958682	 0.102705
H	 1.7597311193	-1.7426469421	 0.2370028692	 0.122172
H	-0.155147347	-1.8214203225	-3.3279059514	 0.102142
H	 1.1220840155	-3.0382996759	-2.9361212127	 0.105368
