17
gdb 2553	3.58012	1.94128	1.34942	1.0933	56.52	-0.2501	0.0627	0.3127	891.008	0.146813	-383.966179	-383.957419	-383.956475	-384.000431	30.075	
C	-0.0921732262	 1.3542716836	-0.3042341097	-0.254824
O	-0.109985178	 0.040783987	 0.2324164188	-0.281285
C	-1.3895805184	-0.6081691606	 0.1702000395	 0.080556
C	-1.2395542441	-1.8617653767	-0.6928629439	-0.069663
O	-0.6853050396	-1.5569465707	-1.9577460028	-0.422367
C	-1.8317462622	-0.9144221761	 1.6018522782	-0.069694
O	-1.8121162774	 0.2460634109	 2.4099130314	-0.422353
H	 0.9290930466	 1.7295748287	-0.1955030073	 0.128041
H	-0.3642930018	 1.3588932	-1.3682004803	 0.122042
H	-0.7781189994	 2.0200925768	 0.2363587114	 0.122065
H	-2.1142445019	 0.0705373919	-0.2970359765	 0.085214
H	-0.6235279789	-2.6010366963	-0.1558555078	 0.091032
H	-2.220836879	-2.3132011899	-0.8725902476	 0.112359
H	 0.1606672023	-1.1337615496	-1.7704780144	 0.287728
H	-2.8602107238	-1.2902755859	 1.604637336	 0.112368
H	-1.1855093121	-1.7024935177	 2.0210207993	 0.091041
H	-0.9059990458	 0.5728428244	 2.3654216857	 0.287739
