13
gdb 4514	3.64727	1.82853	1.22591	0.4737	56.01	-0.1802	0.0607	0.2409	902.6272	0.096888	-431.952627	-431.945029	-431.944084	-431.984066	28.332	
N	 0.2062400662	 1.4634123092	 0.0710953236	-0.618631
C	 0.0292229573	 0.0720044077	-0.0032193755	 0.140618
C	-1.0370060115	-0.7819170735	-0.0497672959	 0.300219
O	-2.3471468589	-0.4375281394	-0.0326504145	-0.444157
N	-0.6465656959	-2.099750099	-0.1197144274	-0.446716
C	 0.6661697262	-2.0483100964	-0.1157137523	 0.442883
O	 1.5020030796	-3.1004531941	-0.171032558	-0.424952
N	 1.1452686367	-0.7952239247	-0.0484063009	-0.32067
H	-0.2000748353	 1.8605149582	 0.9115034637	 0.245457
H	-0.19879091	 1.947638318	-0.7229708305	 0.245462
H	-2.8431383434	-1.2631268096	-0.0771477955	 0.298248
H	 0.9428731928	-3.8861310405	-0.213465659	 0.311699
H	 2.1086513162	-0.507615386	-0.0320745477	 0.27054
