16
gdb 6069	4.50961	1.20311	1.1868	2.601	61.96	-0.2532	-0.0175	0.2357	1092.0758	0.126628	-420.935513	-420.926152	-420.925208	-420.971027	31.132	
C	-0.2882501991	 1.2304776858	-0.0574907786	-0.484249
C	-0.0327692699	-0.2592487583	-0.1632246418	 0.3839
O	-0.4785790199	-1.0650135103	 0.6142277706	-0.283297
C	 0.837946627	-0.6872526907	-1.3486613734	-0.181499
O	 0.9734541461	-2.0958725569	-1.4228177257	-0.223003
C	-0.106719252	-2.7534402118	-1.9205852879	 0.448644
C	 0.084920318	-4.2427607672	-1.8073507709	-0.482372
O	-1.0656209944	-2.1925325606	-2.3832830797	-0.358341
H	 0.6350257079	 1.8060408485	-0.1835966747	 0.134729
H	-0.971629253	 1.5369993241	-0.8582181678	 0.156806
H	-0.7437325899	 1.4591314443	 0.906494451	 0.150886
H	 0.4138932036	-0.2832060381	-2.2739930324	 0.143957
H	 1.8485686975	-0.286572811	-1.2197550632	 0.134911
H	-0.6922867686	-4.7542216635	-2.3737734929	 0.148203
H	 1.0756271467	-4.5330692826	-2.1649790525	 0.146555
H	 0.01779274	-4.5290420017	-0.7532404002	 0.16417
