18
gdb 78566	2.33817	1.82458	1.28413	2.6912	76.19	-0.2307	-0.0038	0.2269	1041.045	0.1468	-401.911782	-401.903611	-401.902667	-401.944216	31.349	
C	 0.0494637052	 1.5823184777	-0.0492114827	-0.422787
C	 0.0523388479	 0.0684090967	-0.1229620144	 0.071112
C	 0.7041400157	-0.6668298223	-1.309052368	-0.263388
C	 2.1539022663	-0.1402452857	-1.2654291575	 0.435492
O	 2.9036767822	 0.3086199663	-2.0863084204	-0.342975
C	 2.3257080293	-0.7058338003	 0.1109561813	-0.226434
N	 0.9934014113	-0.6730647692	 0.8132884435	-0.184281
C	 1.2251127872	-1.6950861886	-0.2163285938	 0.353106
C	 1.1588361012	-3.1765155901	-0.0654444505	-0.529786
H	 1.0385114682	 2.0035962363	-0.2531539551	 0.136245
H	-0.6504673231	 1.9968253687	-0.7824277081	 0.125967
H	-0.2649239783	 1.911727427	 0.9458209437	 0.131834
H	-0.9438816391	-0.329564068	 0.0934265343	 0.089413
H	 0.214138539	-0.8636200823	-2.2593802777	 0.091477
H	 3.2102515247	-0.8299996276	 0.7202995965	 0.117961
H	 0.1219491763	-3.5284933335	-0.0795870829	 0.134854
H	 1.6984859278	-3.6765128532	-0.8759698899	 0.13836
H	 1.6074219584	-3.475844572	 0.8860630716	 0.14383
