20
gdb 22977	2.63192	1.09467	0.86639	1.9695	77.86	-0.243	0.0039	0.2469	1377.2481	0.169648	-440.221714	-440.211948	-440.211004	-440.257428	34.846	
C	-0.1520353469	 1.61260548	 0.1615164591	-0.378849
C	 0.0763504041	 0.0940177802	 0.0401469755	-0.269344
C	 0.6988722985	-0.5118206237	 1.277602145	 0.337902
N	 0.0609577265	-0.7688478012	 2.3558893117	-0.172361
O	-1.2963149445	-0.4178134269	 2.2639776068	-0.397829
C	 2.1599267212	-0.850638092	 1.2571410796	-0.116576
C	 3.2031008042	 0.3035197859	 1.3086701951	-0.077201
O	 3.9118215811	-0.3398870587	 2.3801994576	-0.272421
C	 2.8698723443	-1.3299909661	 2.5394613519	-0.090885
H	 0.7890582548	 2.1497193715	 0.3141729474	 0.120263
H	-0.6145335334	 2.0010912969	-0.7507885895	 0.116489
H	-0.8123047013	 1.8316060474	 1.003060721	 0.143541
H	-0.8860825056	-0.3966367704	-0.1360980005	 0.130791
H	 0.7176322741	-0.1170834138	-0.8222499684	 0.097281
H	-1.6334577862	-0.6918891211	 3.1232251515	 0.307257
H	 2.3576912338	-1.5102998403	 0.4054850987	 0.09468
H	 3.8297577329	 0.4447468471	 0.4205642902	 0.103046
H	 2.7876860842	 1.2729662804	 1.6155997811	 0.102099
H	 2.2887988266	-1.1758736376	 3.4537215387	 0.120203
H	 3.2686035016	-2.3498549674	 2.5241083576	 0.101915
