14
gdb 30581	7.04521	0.65833	0.62695	1.8611	80.48	-0.2344	-0.0386	0.1958	1710.5639	0.100867	-436.673385	-436.665028	-436.664084	-436.708399	28.656	
O	 0.2043858316	 0.9048147558	 0.9098207407	-0.405869
C	-0.0693941239	 0.0934239961	-0.2236213917	-0.232514
C	-1.435113552	-0.4065662127	-0.1508496007	 0.345202
C	-2.5620516299	-0.8323252063	-0.1208483307	-0.092378
C	-3.8803006455	-1.3255700002	-0.0839655704	 0.185678
N	-4.9289843638	-0.896214314	-0.7298016127	-0.305531
C	-5.9515373967	-1.733710073	-0.3304841425	-0.121233
C	-5.4650876591	-2.642544654	 0.551444599	-0.037031
O	-4.1394764325	-2.3989161871	 0.7219747187	-0.161059
H	 1.1094847704	 1.2218006743	 0.824205108	 0.293625
H	 0.045780779	 0.6577403929	-1.1631632295	 0.128621
H	 0.6183329348	-0.7661880026	-0.2799139166	 0.125517
H	-6.9569409782	-1.621681387	-0.7038275665	 0.127474
H	-5.8807913142	-3.4632019323	 1.110399815	 0.149499
