20
gdb 17925	2.74886	2.28669	2.2863	0.3286	77.92	-0.25	0.0868	0.3369	808.7068	0.179038	-311.838802	-311.831965	-311.831021	-311.86917	28.294	
C	-0.0506427844	 1.5513352416	 0.011766979	-0.536406
C	-0.0034689262	 0.0518440374	 0.0029402899	 0.39976
C	 0.6468280911	-0.8613489019	-1.1099911634	-0.082701
C	 1.5402169382	-1.5118603639	-0.0250129504	-0.22381
C	 0.6748662027	-0.8730667758	 1.0893180526	-0.082628
C	-0.6824164612	-1.5899666745	 1.2961724206	-0.223854
C	-1.2429812379	-0.9278877131	 0.0134394537	-0.082543
C	-0.7149203314	-1.5768239041	-1.2896026934	-0.223846
H	 0.9575957351	 1.9830120711	 0.0024513991	 0.11544
H	-0.5839477989	 1.9397715503	-0.8643956104	 0.115423
H	-0.5633149822	 1.9299188902	 0.9044136188	 0.115429
H	 1.1384457917	-0.4791940382	-2.0065878355	 0.056725
H	 1.6361076195	-2.6034956734	-0.0320978796	 0.085326
H	 2.5447821166	-1.077264245	-0.0354902206	 0.094533
H	 1.1894711379	-0.5003214944	 1.9769289791	 0.05675
H	-0.6778672891	-2.6847507436	 1.3435239059	 0.085309
H	-1.1926861849	-1.2080868604	 2.1860412207	 0.094538
H	-2.2839490838	-0.5995467689	 0.0283899465	 0.056705
H	-1.2478373973	-1.1864218996	-2.1623495129	 0.094515
H	-0.7112457356	-2.6710838437	-1.3480853197	 0.085336
