18
gdb 51806	4.2612	0.95514	0.85623	5.1337	73.68	-0.2488	0.0126	0.2614	1341.1207	0.148932	-439.092867	-439.084838	-439.083894	-439.126708	29.754	
O	 0.0005129904	-0.0194141125	-0.1384513609	-0.278321
C	 0.019033733	 1.174509114	-0.1628504026	 0.164446
O	 1.0765755259	 1.898673692	 0.2394180001	-0.187256
C	 0.9951341135	 3.3287752146	 0.1709400173	 0.153967
C	 1.1442651074	 3.9638143398	 1.5690691819	-0.257584
C	 1.7614319396	 5.3579614544	 1.3147644369	-0.214007
C	 2.5724638589	 5.1690744898	 0.041187048	-0.029367
N	 3.4062509023	 3.9525277845	 0.0799854228	-0.324003
C	 2.1193804525	 3.9332105147	-0.6449059787	-0.067622
H	-0.8237208687	 1.8033368217	-0.5158788896	 0.071725
H	 0.0370293902	 3.606338375	-0.2905020891	 0.084667
H	 0.1954070341	 4.0047111551	 2.1085957408	 0.101553
H	 1.8350609926	 3.341454637	 2.1401971789	 0.146683
H	 0.9836154126	 6.1100529088	 1.1386023205	 0.102765
H	 2.3694734619	 5.7011482346	 2.1571103496	 0.113049
H	 2.9210018598	 6.0313639381	-0.5179104347	 0.090618
H	 4.1616767732	 4.0332306151	-0.5955017574	 0.236818
H	 2.1150615709	 3.8295800533	-1.7248066037	 0.09187
