21
gdb 56821	2.30083	1.22137	0.92591	1.438	84.82	-0.2587	0.0337	0.2925	1343.0309	0.179396	-387.038294	-387.027594	-387.02665	-387.074216	39.028	
C	-0.8851342082	 0.9424472157	-1.4949080488	-0.401824
C	-0.2745593233	-0.2183861676	-0.7369142379	-0.044275
C	 1.2180006469	-0.465333245	-0.6419582931	-0.020717
C	 2.2570381216	 0.4165252562	-1.3043419166	-0.411193
C	 0.4358168984	-0.049162635	 0.589767257	-0.040243
C	 0.5885354162	 1.3145687297	 1.2436638985	-0.075776
O	-0.6391878525	 1.77238597	 1.813595948	-0.419917
C	 1.6655547121	 1.2947588089	 2.2422697876	 0.311002
C	 2.5233761855	 1.2475218256	 3.0836130297	-0.449988
H	-0.2565472821	 1.8359583825	-1.4879070521	 0.114987
H	-1.0521860623	 0.6719133498	-2.5431663577	 0.111344
H	-1.8490437729	 1.2229673262	-1.0588604988	 0.130292
H	-0.8780402767	-1.1209737258	-0.8008214198	 0.081925
H	 1.5043953092	-1.514366173	-0.644496972	 0.083387
H	 1.9612925279	 1.4670069174	-1.3542831275	 0.117564
H	 3.2078212704	 0.3700878837	-0.7628892641	 0.126904
H	 2.4416548651	 0.0845528852	-2.3318921737	 0.117447
H	 0.2704887496	-0.8328315178	 1.3264275907	 0.079381
H	 0.8291003309	 2.0697085594	 0.4902446021	 0.111645
H	-0.8515308657	 1.1845670671	 2.5472963173	 0.281115
H	 3.2883798	 1.2229476467	 3.8198720713	 0.19694
