23
gdb 86176	2.22049	1.40937	1.15486	2.5887	80.82	-0.25	0.0687	0.3187	1205.0644	0.204796	-425.441336	-425.431331	-425.430387	-425.475343	38.943	
C	 0.3683956191	 1.3994766692	-0.2194078593	-0.425308
C	 0.0030231114	-0.0825687647	-0.0104909413	 0.276196
C	-1.5197799166	-0.2316548531	 0.076502591	-0.44648
C	 0.6305568293	-0.9699783483	-1.1086002189	-0.238282
C	 2.1058858089	-1.1864003079	-0.7092421868	 0.119429
O	 2.9030898801	-0.262697096	-1.4500695987	-0.429833
C	 2.1546541882	-0.9271481314	 0.8228075254	-0.297342
C	 0.6946058316	-0.6581028822	 1.248022883	 0.130415
O	 0.5491420492	 0.2239328279	 2.348634049	-0.442249
H	 1.4387153558	 1.5341894774	-0.3889877785	 0.126583
H	-0.1528049228	 1.7886722328	-1.1008262723	 0.102199
H	 0.0727129701	 1.9959705895	 0.6469502796	 0.123905
H	-2.0068932568	 0.1370644838	-0.8325565048	 0.107512
H	-1.810479455	-1.2801300928	 0.2105739279	 0.099995
H	-1.9131416099	 0.3383710889	 0.9243008141	 0.123382
H	 0.1179923832	-1.9389677895	-1.1373869849	 0.087383
H	 0.5644568456	-0.5328249455	-2.1082667877	 0.108842
H	 2.4249355869	-2.2103138711	-0.9487201057	 0.061289
H	 3.8128403188	-0.3485886852	-1.1473064664	 0.279362
H	 2.6028271831	-1.7571025074	 1.3788294313	 0.086525
H	 2.7520419953	-0.0313032555	 1.0195498883	 0.108363
H	 0.2089086083	-1.6211432966	 1.4795462395	 0.055879
H	 0.9089248062	-0.2060602223	 3.1299771961	 0.282233
