17
gdb 38042	3.64364	1.54622	1.24066	1.9668	72.42	-0.2429	-0.011	0.2319	992.0387	0.138342	-421.802766	-421.796054	-421.79511	-421.833936	26.732	
C	 0.0092548782	 1.562111216	 0.005484312	-0.099012
O	 1.4191678962	 1.8183347928	-0.0772677055	-0.272054
C	 2.1434926901	 0.7596536447	 0.5682989325	-0.160683
C	 1.121364498	-0.3161412886	 0.7850584992	 0.281671
C	 0.8740042721	-1.2558659187	 1.6989423186	-0.253906
C	-0.5798053839	-1.6132937818	 1.6513641243	 0.013944
O	-1.417767203	-0.4815923769	 2.005820046	-0.254782
C	-1.2094684658	-0.7563880197	 0.6229873856	-0.002692
C	-0.0970118367	 0.0335078052	-0.0496458912	-0.101544
H	-0.4107300334	 1.9368641778	 0.9495533108	 0.111519
H	-0.4602039159	 2.0839795435	-0.8316556401	 0.110432
H	 2.9650415887	 0.4573645801	-0.0943239657	 0.116138
H	 2.5821696546	 1.1095879959	 1.5129778581	 0.114665
H	 1.5524934631	-1.6139958813	 2.4634199461	 0.106051
H	-0.969545011	-2.5785129436	 1.9593447341	 0.100812
H	-2.0932141996	-1.0556964061	 0.0665316865	 0.097357
H	 0.0192400984	-0.3025917393	-1.0886550015	 0.092083
