20
gdb 86159	2.76432	1.35374	0.95931	3.7827	83.45	-0.2247	-0.0478	0.1769	1254.0751	0.171129	-403.181025	-403.172115	-403.171171	-403.214483	33.982	
C	-0.0485251816	 1.5518999041	-0.0136949377	-0.406273
C	 0.0028183315	 0.0197852099	 0.0115961284	 0.003946
N	 0.6489125798	-0.4711550173	-1.2002376231	-0.318943
C	 0.8688519662	-1.9176266049	-1.2336525478	-0.072669
C	 1.4560905152	-2.3453141161	-2.5735598002	-0.407993
C	 1.7824869085	-2.3022162689	-0.0617120066	 0.406677
O	 2.551715994	-3.2400594352	-0.1220909059	-0.339241
C	 1.596585137	-1.513084142	 1.1714361466	-0.17319
C	 0.7433054165	-0.4847703499	 1.2186865399	-0.01706
H	 0.9624639407	 1.9641428663	-0.0700667943	 0.135426
H	-0.6105233775	 1.9015533247	-0.885989419	 0.115402
H	-0.5432951271	 1.9410021199	 0.8813870989	 0.117404
H	-1.0420766978	-0.3502654775	 0.1065573457	 0.073762
H	 0.112519832	-0.1882684786	-2.0139954014	 0.217288
H	-0.0722626766	-2.484535924	-1.062860137	 0.073902
H	 2.3598773344	-1.7691580935	-2.7910452747	 0.129517
H	 1.7196753466	-3.4035622171	-2.5443846207	 0.142092
H	 0.7362881586	-2.1821600803	-3.3825328927	 0.102697
H	 2.1489290828	-1.8512504289	 2.042597872	 0.108486
H	 0.5543656868	 0.0358128792	 2.1547623597	 0.108771
