18
gdb 16618	3.18585	2.11483	1.47287	1.4232	73.	-0.2252	0.0166	0.2419	892.0622	0.15436	-347.803744	-347.796154	-347.79521	-347.835157	29.619	
C	 0.00084891	 1.496553376	 0.0448746867	-0.486159
C	-0.0417667493	 0.0048941755	-0.0216428407	 0.271391
C	-0.0820971452	-0.7826778874	-1.1007944864	-0.187309
C	-0.0165453801	-2.2339611939	-0.7460853037	-0.06525
C	 1.2803730454	-2.6563256966	-0.0837760106	-0.295231
C	 0.0851700036	-2.2675341808	 0.7608507516	-0.064983
C	-0.0062555808	-0.8270595741	 1.2627961653	 0.037164
O	 1.019976083	-0.4342480373	 2.1690610004	-0.430577
H	 0.8639864847	 1.8298243405	 0.6319688744	 0.13352
H	 0.055050099	 1.9490341094	-0.9488520648	 0.117848
H	-0.8872407885	 1.8936653361	 0.5543590079	 0.124574
H	-0.1082432651	-0.4327426305	-2.12779867	 0.089529
H	-0.5902376554	-2.9651793089	-1.3041332986	 0.08803
H	 1.5426183253	-3.7093442678	-0.0907074862	 0.112523
H	 2.1269727067	-1.9815742396	-0.1735995123	 0.102662
H	-0.388844012	-3.0497503248	 1.3406883656	 0.087906
H	-0.9320976857	-0.6801297813	 1.8351819756	 0.087871
H	 1.8587355245	-0.7147645544	 1.7856017557	 0.276492
