16
gdb 74570	3.05365	1.26728	1.12496	3.1887	70.71	-0.2445	-0.0249	0.2196	1120.2367	0.123617	-437.896401	-437.888365	-437.887421	-437.929485	29.25	
C	 0.0025771284	 1.469449564	 0.0290405945	-0.481137
C	 0.0308582947	-0.0117068426	-0.0984447216	 0.385597
N	-0.0522691106	-0.6991280685	-1.171418697	-0.290372
C	-0.008987927	-2.0839762211	-0.773382143	-0.061883
C	 0.1145956597	-2.0701852556	 0.7223464312	 0.027765
O	 0.1493524998	-0.7034970251	 1.0797907708	-0.231198
C	-1.1663075646	-2.6125945716	 0.0975660914	-0.163933
C	-2.4877142858	-1.9504532431	 0.189940209	 0.163505
O	-3.5127427466	-2.5556871674	 0.3975230496	-0.268931
H	 0.8671875323	 1.8162363827	 0.6026575693	 0.152039
H	 0.0093433876	 1.91950383	-0.9630090891	 0.160507
H	-0.8959747244	 1.7905565518	 0.565861476	 0.154405
H	 0.4771141068	-2.7769155729	-1.4485661202	 0.119938
H	 0.7258386104	-2.6957001778	 1.3591170699	 0.129795
H	-1.2305323838	-3.6951186588	 0.142730934	 0.120015
H	-2.4954493069	-0.8517525942	 0.0451093152	 0.083888
