20
gdb 107795	2.58788	1.58402	1.26985	1.1439	77.11	-0.2379	0.0644	0.3023	1075.6378	0.170982	-403.084114	-403.075705	-403.074761	-403.116894	32.813	
C	-0.0525257868	 1.5487995476	-0.0405028961	-0.384495
C	-0.0219191235	 0.0131134226	-0.0256949656	-0.321568
C	 0.693188344	-0.5387751627	 1.1821049384	 0.274257
C	 2.1945464316	-0.3314741746	 1.4520512939	-0.204815
N	 2.2295437788	-1.6015721627	 2.252735039	-0.151756
C	 0.9137039583	-1.6296704423	 2.9888950564	-0.114857
C	 0.9870031227	-2.0449454669	 1.5660402414	-0.120389
C	 0.0880073048	-0.4055926784	 2.6210224098	 0.130459
O	 0.1809377002	 0.7993571015	 3.3393531536	-0.446111
H	 0.9599184805	 1.9626418585	-0.100820195	 0.116622
H	-0.6143216347	 1.9203477466	-0.9023933426	 0.112054
H	-0.5146554255	 1.9416305325	 0.8694385233	 0.140137
H	-1.0480332938	-0.3769070322	-0.0465509472	 0.099494
H	 0.463408135	-0.356104955	-0.9388580747	 0.097424
H	 2.8118681325	-0.4732547216	 0.5607960835	 0.110756
H	 2.5245233803	 0.5752915953	 1.9771982911	 0.081626
H	 0.8785027754	-2.2408723354	 3.8813328515	 0.09998
H	 0.8542505646	-3.000954373	 1.0782097861	 0.099859
H	-0.97559619	-0.6619252432	 2.5962575806	 0.093985
H	 1.1061208954	 0.9615655433	 3.5485636927	 0.287339
