18
gdb 62589	2.95083	1.6099	1.33953	3.1942	75.25	-0.247	-0.0135	0.2335	1006.7018	0.146904	-401.913828	-401.905908	-401.904963	-401.945773	31.135	
C	 0.0584443826	 1.5590423061	 0.0838564001	-0.463444
C	 0.0691996673	 0.0342302859	 0.0238098282	 0.294094
C	-1.3434302741	-0.5432412661	 0.1466742456	-0.444481
C	 0.8389964244	-0.6704954184	-1.1013930747	-0.061563
C	 2.3057916593	-0.7298195756	-0.7843543806	-0.200102
N	 1.3216614707	-1.7674557332	-0.2283886378	-0.15491
C	 1.0773424755	-0.7311963111	 0.9307002769	-0.180733
C	 2.4562271242	-0.1663721045	 0.5910281136	 0.467756
O	 3.3563811009	 0.3106166761	 1.2206308076	-0.339814
H	 1.0608006858	 1.9826560298	-0.0242551764	 0.132122
H	-0.5710873283	 1.9699722285	-0.7129212699	 0.120478
H	-0.3512899373	 1.9059437385	 1.0388257729	 0.125465
H	-1.9743297511	-0.1947151423	-0.678932365	 0.117834
H	-1.3310239541	-1.6364917487	 0.1283002057	 0.137197
H	-1.8113736528	-0.2194370489	 1.0822323132	 0.12045
H	 0.4964760823	-0.8738425346	-2.112288722	 0.103739
H	 3.0603460219	-0.9850561181	-1.5174113095	 0.124136
H	 0.8255142729	-1.0713649537	 1.9328627321	 0.101774
