21
gdb 90099	2.78101	1.47324	1.27576	1.4793	83.87	-0.2373	0.0637	0.301	1114.1564	0.182104	-386.954279	-386.946007	-386.945063	-386.986547	33.301	
C	-0.0846422298	 1.606218504	-0.1936827917	-0.404057
C	 0.032477679	 0.1183568575	 0.0691032145	 0.07654
O	 0.9350131829	-0.5828217575	-0.8967453732	-0.3682
C	 1.7762361804	-0.8876433254	 0.2178145715	 0.40867
C	 2.4371020235	-1.9580999255	 1.1374534716	-0.319964
C	 2.1689916184	-0.6233244818	 1.994381067	-0.112501
C	 2.7319756757	 0.2033092976	 0.8195302356	 0.018692
C	 4.2154319377	 0.2652306874	 0.4908381068	-0.448624
C	 0.7522427597	-0.6105799562	 1.2874296635	-0.118652
H	 0.8764836179	 2.1200463732	-0.2090988378	 0.131499
H	-0.5644311352	 1.766089186	-1.1651022882	 0.128794
H	-0.7154514065	 2.0651703786	 0.5750622018	 0.122997
H	-0.9609381095	-0.3331671333	-0.0156975332	 0.095504
H	 1.8135451982	-2.8168491741	 1.3927701968	 0.105829
H	 3.4776899483	-2.2513776803	 0.9891175706	 0.101363
H	 2.4031541467	-0.5099351996	 3.0545741599	 0.080412
H	 2.3126924297	 1.2090117806	 0.7887132294	 0.066627
H	 4.7109153699	-0.7083046675	 0.4990340274	 0.118262
H	 4.3625471092	 0.7009249198	-0.5033285688	 0.124671
H	 4.7392886867	 0.907017087	 1.2083806898	 0.116082
H	 0.1382629172	-1.4653598404	 1.5773051667	 0.076055
