18
gdb 44884	2.93725	1.57079	1.36064	3.7825	76.06	-0.2351	0.0206	0.2557	1002.197	0.149711	-401.939602	-401.932465	-401.93152	-401.970904	29.277	
O	 0.0148933459	 0.0576227146	 0.1432876043	-0.374007
C	 0.0359942042	 1.2534874742	 0.0045707956	 0.422844
N	-1.0546735313	 2.1290089278	-0.0980207746	-0.313098
C	-0.4099355559	 3.4617821913	 0.0017428205	-0.110085
C	 0.7012507171	 3.2914264209	-1.0683852901	-0.214161
C	 1.2192848911	 2.2370418125	-0.0331917401	-0.246809
C	 0.7021426756	 3.2326895738	 1.0475811671	 0.441842
C	 1.4821409155	 4.2310478847	 1.8333710768	-0.362301
C	 0.6665686833	 3.1511537421	 2.5343210848	-0.364436
H	-1.8775724225	 1.9156885011	 0.4484588109	 0.246997
H	-1.1093896901	 4.2960945674	 0.0205052853	 0.081568
H	 0.3871144482	 2.9332839386	-2.0505825792	 0.110654
H	 1.3616051557	 4.1561406826	-1.1436212292	 0.112462
H	 2.2183399458	 1.8086052509	-0.0396145619	 0.089229
H	 2.5639946335	 4.1455455254	 1.8559873682	 0.120209
H	 1.1169960691	 5.2525413371	 1.8818077959	 0.11682
H	-0.2396074396	 3.4544152725	 3.0496400282	 0.114734
H	 1.2047695744	 2.3437640925	 3.0202089874	 0.127538
