17
gdb 6405	3.30052	1.22371	0.9388	3.9023	61.06	-0.2363	0.033	0.2693	1190.8864	0.141041	-438.162444	-438.153239	-438.152295	-438.196831	33.095	
N	 0.4123925397	 0.3254587061	 0.7604931297	-0.513524
C	 0.072240225	-0.1245545751	-0.4801860193	 0.364268
O	 0.6256758667	 0.2469072761	-1.4972568663	-0.361701
C	-1.0985817905	-1.1127521407	-0.5110903992	-0.295165
C	-1.1158451568	-2.1765469047	 0.5914758104	 0.058681
O	-1.3422438859	-1.6245674974	 1.895179317	-0.423949
C	-2.1509895832	-3.277714995	 0.3162361718	-0.083457
O	-1.9443658328	-3.9414349267	-0.9158910581	-0.403545
H	 1.208252384	 0.9372503574	 0.8370005627	 0.254081
H	-0.0036757593	-0.081330293	 1.5849776578	 0.265402
H	-2.0367832405	-0.5399122441	-0.4661409321	 0.109178
H	-1.0760202768	-1.604959308	-1.4848376248	 0.146792
H	-0.1239946122	-2.6414300738	 0.6643339378	 0.097282
H	-2.2167129385	-1.2165794676	 1.8931107195	 0.287267
H	-2.1579037284	-3.9715559123	 1.1690727868	 0.103651
H	-3.1500009866	-2.8269557897	 0.2499855521	 0.103632
H	-1.144431464	-4.4720200814	-0.8420450857	 0.291109
