19
gdb 57852	2.20405	1.18901	0.96844	2.9434	77.49	-0.2583	-0.0349	0.2234	1320.6191	0.155004	-423.01045	-422.999852	-422.998908	-423.047483	37.794	
C	-0.0159105676	 1.5962196802	 0.7593851475	-0.391827
C	-0.1487282081	 0.2659057708	 0.0058264078	-0.06287
C	 0.8268541131	-0.7984399335	 0.5522280893	-0.393672
C	-1.5584399912	-0.2830756235	 0.1259857117	 0.378891
O	-2.1724246702	-0.3242635199	 1.1681505402	-0.338361
C	-2.240908388	-0.8584482384	-1.1406837867	-0.117897
O	-3.4358342207	-1.4983745555	-0.7934246875	-0.413954
C	-2.436347732	 0.2389611228	-2.0984042095	 0.326581
C	-2.5962889334	 1.150472004	-2.8655203706	-0.479102
H	 1.0159269306	 1.956484133	 0.7126486802	 0.115915
H	-0.6654958703	 2.3618072526	 0.32548879	 0.127928
H	-0.2944125532	 1.4686446765	 1.8086362015	 0.140104
H	 0.0634203491	 0.4234929685	-1.057195919	 0.097085
H	 0.62703949	-0.9907755631	 1.6104324657	 0.139816
H	 0.7428350774	-1.7466157573	 0.011415737	 0.122771
H	 1.8571919882	-0.445180614	 0.4525698898	 0.125414
H	-1.5464971939	-1.590169873	-1.5854193325	 0.120164
H	-3.5909738584	-1.2428463547	 0.1323275254	 0.2966
H	-2.7484505014	 1.9445676645	-3.5545576401	 0.206413
