16
gdb 33759	2.45157	1.67236	1.2798	2.8977	74.85	-0.2618	-0.0036	0.2582	1010.4573	0.125773	-396.830008	-396.82266	-396.821716	-396.861813	28.607	
N	 0.0441134618	-1.1042086924	-0.0593157659	-0.344053
C	 0.0317556615	 0.0513945748	-0.0213345956	 0.160039
C	-0.0312604869	 1.4908356697	 0.0077958372	 0.122872
C	-0.6861643941	 2.4200532845	 1.0811860459	-0.270601
C	 0.0015563437	 3.3355447049	 0.0270371052	-0.125918
N	 1.2016628292	 2.3875390501	-0.027379374	-0.342285
C	-0.6156325407	 2.4441633435	-1.0610742252	 0.45802
C	-0.6620028654	 2.4058273535	-2.5189246331	-0.336351
N	-1.9038475912	 2.5082945712	-1.6844912049	-0.400746
H	-1.7773113584	 2.4333887932	 1.1426275092	 0.125202
H	-0.2141187712	 2.3881892149	 2.0665497616	 0.111587
H	 0.1246622523	 4.416230912	 0.0367919855	 0.108429
H	 1.6347801969	 2.3626238957	 0.9021519003	 0.219504
H	-0.437984489	 3.2920065225	-3.1046634573	 0.134388
H	-0.4496292163	 1.4614997149	-3.0127828461	 0.134804
H	-2.3844978922	 1.611846127	-1.6506899329	 0.245109
