11
gdb 132942	3.24337	1.45868	1.00616	1.7701	57.6	-0.2715	-0.0634	0.2082	1025.3851	0.064976	-533.823149	-533.816177	-533.815233	-533.855146	25.323	
F	 0.0205244028	 0.0065180315	-0.2091446791	-0.035116
C	 0.0009100092	 1.3146735991	-0.0205118664	 0.139949
C	-1.14100853	 1.9946857618	 0.0715318058	-0.049123
O	-1.1728787115	 3.3469018076	 0.266466143	-0.213729
C	-0.0210677445	 4.0694819817	 0.3765109815	 0.486207
O	-0.0449135924	 5.2422056046	 0.5469929281	-0.323506
O	 1.1481802346	 3.3810567087	 0.2839750029	-0.26186
C	 1.2761251052	 2.002624133	 0.0857454043	 0.335258
N	 2.4002829521	 1.445466364	 0.0115297701	-0.501773
H	-2.127344311	 1.5584556392	 0.0033705647	 0.173228
H	 3.1594019356	 2.1197614986	 0.1130143251	 0.250464
