20
gdb 14772	12.58067	0.55577	0.54762	2.9589	74.36	-0.2531	-0.0248	0.2283	2010.492	0.173842	-386.145799	-386.135627	-386.134683	-386.182537	33.755	
C	 0.0691171725	 1.4984038355	 0.1235534482	-0.383008
C	-0.0270721662	-0.0270147111	 0.0441052441	-0.182898
C	-1.4678819549	-0.5167604159	 0.0050516261	-0.035165
O	-1.4664218626	-1.9289508757	-0.0728934363	-0.244513
C	-2.7572632307	-2.4869411268	-0.1183961425	-0.05948
C	-2.6151803031	-4.0044327872	-0.2426157143	-0.279848
C	-3.9356657587	-4.716533561	-0.063317482	 0.153619
O	-4.4152099806	-5.4915795523	-0.8493062316	-0.233019
H	 1.1126620518	 1.8243613753	 0.1513442168	 0.119451
H	-0.4040061842	 1.9745573726	-0.7423268693	 0.117604
H	-0.4227708792	 1.8841904408	 1.0233523989	 0.116919
H	 0.488931465	-0.3953292997	-0.8498580748	 0.108973
H	 0.4731050741	-0.4856441213	 0.9047427541	 0.107441
H	-2.0117416692	-0.1849465937	 0.90688233	 0.084153
H	-1.9966666982	-0.0875817038	-0.8637235394	 0.086337
H	-3.3238242445	-2.2297795206	 0.7943999911	 0.088551
H	-3.3265531683	-2.0855020199	-0.9734806778	 0.100297
H	-2.1777517879	-4.2845891266	-1.2034215743	 0.130632
H	-1.9410919516	-4.3397105063	 0.5580854913	 0.131858
H	-4.4620063136	-4.4726441523	 0.8902673315	 0.072097
