19
gdb 70492	2.64593	1.50896	1.11581	0.6885	90.4	-0.2188	-0.0169	0.2019	1138.6238	0.158592	-348.732951	-348.724447	-348.723502	-348.765546	33.562	
C	-0.0264763537	 1.5432797342	-0.0134305465	-0.488821
C	 0.0446918455	 0.0360699715	-0.0063261513	 0.236685
C	-0.8262861789	-0.7878172614	 0.921578757	-0.31766
C	 0.6724459903	-0.7948071887	 1.1027904929	-0.083679
C	 1.4685906329	-1.9294188517	 0.4618044755	-0.270135
C	 1.1672484985	-1.7838613395	-1.0100171876	-0.192213
C	 0.4154405403	-0.7001480486	-1.2727378709	 0.153614
C	-0.0243550878	-0.2706482981	-2.5487153039	 0.224502
C	-0.4159200843	 0.1349687903	-3.6142867682	-0.440678
H	 0.9231128701	 1.986724279	-0.332977372	 0.119525
H	-0.8044036326	 1.8964623015	-0.6987517201	 0.128995
H	-0.2588860652	 1.9256600911	 0.9851108625	 0.112599
H	-1.4054652614	-0.2491040893	 1.6653679494	 0.107393
H	-1.3138454856	-1.6721855127	 0.5233831391	 0.111343
H	 1.0759588259	-0.3085335236	 1.983724133	 0.084631
H	 2.5456366573	-1.8308014869	 0.6569910258	 0.112011
H	 1.1796546347	-2.9176243224	 0.8442276794	 0.113188
H	 1.5061996609	-2.4910434854	-1.7575729456	 0.098732
H	-0.7540157471	 0.4785653507	-4.5601729983	 0.189966
