17
gdb 44378	3.40921	1.6513	1.384	3.738	71.38	-0.2115	0.0276	0.239	939.2774	0.139361	-417.996894	-417.990221	-417.989277	-418.027863	27.326	
O	 0.0032055837	-0.1116433995	-0.2376598174	-0.374403
C	-0.031217031	 1.0899151801	-0.058766971	 0.376098
C	-1.3460033749	 1.8786388711	 0.0515450396	-0.291933
N	-1.2409451303	 3.16910525	 0.7292966061	-0.112542
C	-0.5538172937	 3.1436649837	 2.0668531565	-0.193029
C	 0.5965240209	 3.9673900348	 1.500954677	-0.112789
C	 1.1212496187	 3.2736697193	 0.249519876	 0.011045
N	 1.1021381444	 1.8498033035	 0.0741456529	-0.311656
C	-0.1681424888	 4.0140852285	 0.1809681241	-0.047095
H	-1.7370286722	 2.0420504061	-0.9599270405	 0.133163
H	-2.0633409174	 1.2344257852	 0.5675586023	 0.138095
H	-1.1503364795	 3.6653109655	 2.8199491453	 0.118134
H	-0.2975554272	 2.1442530419	 2.4394174621	 0.114027
H	 1.1438653155	 4.7539339713	 2.0037440946	 0.09748
H	 1.9747793659	 3.7605280416	-0.2125988572	 0.109688
H	 1.9667062442	 1.3301784847	 0.1207203268	 0.24693
H	-0.3858066583	 4.8234142223	-0.5075942873	 0.098787
