25
gdb 83273	2.56824	1.23466	1.11899	0.1322	91.96	-0.2533	0.0752	0.3285	1290.9908	0.231112	-352.369028	-352.359778	-352.358834	-352.402519	36.669	
C	-0.4266166273	 1.4210783482	-0.1882011198	-0.417211
C	-0.0456723091	-0.0375850914	-0.0594382167	-0.007573
C	 1.3323137623	-0.594260115	-0.3348376863	-0.033951
C	 2.5632014834	 0.2394929561	-0.6712498244	-0.234054
C	 3.0233340228	 1.2177195238	 0.4271113862	-0.195817
C	 2.9045598379	 0.619269948	 1.8357164549	 0.054274
C	 3.4964324158	 1.5484805709	 2.8987786397	-0.402204
C	 1.4312802054	 0.2859818379	 2.1385441582	-0.215567
C	 0.7818717107	-0.6044242341	 1.0808328778	-0.068902
H	-0.6317308133	 1.6770529686	-1.2339218333	 0.114497
H	-1.335497148	 1.6364701839	 0.3858717741	 0.114153
H	 0.3494306895	 2.1025440524	 0.1652837485	 0.119986
H	-0.8485359649	-0.6973731008	-0.3822748356	 0.075491
H	 1.3292891135	-1.5542991497	-0.8446020048	 0.074846
H	 3.3846100882	-0.4653720358	-0.8530900407	 0.096869
H	 2.4198639544	 0.7790518598	-1.6162651609	 0.092849
H	 4.0627088258	 1.5062888886	 0.2291669765	 0.087143
H	 2.4444086324	 2.1495473084	 0.3907713746	 0.09626
H	 3.4706952944	-0.3243940243	 1.8481711635	 0.065557
H	 2.9696005197	 2.5103886352	 2.9160922909	 0.109475
H	 3.4173500459	 1.1109703604	 3.9000365147	 0.107293
H	 4.5547325735	 1.7542910362	 2.705513577	 0.107338
H	 1.3657841768	-0.212204878	 3.1120149749	 0.090948
H	 0.8784155493	 1.228640698	 2.2508402072	 0.092852
H	 0.4516196507	-1.5689771873	 1.4547071838	 0.07545
