17
gdb 36277	4.66976	0.99537	0.93392	5.1203	76.91	-0.2346	0.028	0.2626	1253.7496	0.136109	-380.773524	-380.765841	-380.764896	-380.806206	29.642	
N	 0.3033468138	-1.0834487128	 1.224081753	-0.301871
C	 0.0896084341	-0.0738754718	 0.705324477	 0.280824
C	-0.2068958942	 1.2086284808	 0.0416803348	-0.310906
N	 1.0149749385	 1.9880215358	-0.1150816794	-0.064246
C	 1.5272705293	 2.7322959087	-1.2264406171	-0.06718
C	 0.5664378572	 3.7713829996	-1.9012112054	-0.066795
C	-0.820193618	 3.839497525	-1.3248019916	-0.309697
C	 0.3268260028	 4.419648234	-0.5455608378	-0.066849
C	 1.2902304392	 3.3745297503	 0.1160584699	-0.06708
H	-0.670193015	 0.9834559069	-0.9252830405	 0.161598
H	-0.9475283178	 1.7360549754	 0.6529408601	 0.161593
H	 2.4552092938	 2.4149974791	-1.6900446382	 0.108094
H	 0.828882267	 4.2578744344	-2.8312918665	 0.099276
H	-1.4439887628	 4.5942648649	-1.7961899521	 0.120849
H	-1.3841284814	 2.9738468829	-1.0103885993	 0.115039
H	 0.3807591611	 5.4707431928	-0.2947807667	 0.099263
H	 1.9997799727	 3.6487278441	 0.88937995	 0.108089
