25
gdb 103650	3.09527	0.97766	0.9768	0.1312	94.76	-0.235	0.0273	0.2624	1446.6774	0.228315	-352.382685	-352.372504	-352.37156	-352.417512	39.256	
C	-0.0629791909	 1.5569726135	 0.2239240007	-0.397288
C	-0.0159929587	 0.0417810565	-0.0039194075	-0.207827
C	 0.716895878	-0.4350953863	-1.2798836807	 0.279813
C	 2.1704796656	 0.0860800387	-1.3081449407	-0.42778
C	 0.6868227675	-1.9919948993	-1.3797703653	-0.270567
C	 0.4323000355	-2.3490363152	-2.8683842511	-0.013624
C	-0.4688072733	-3.5733189295	-3.0689162574	-0.396345
C	-0.1396128655	-1.0569683557	-3.409925743	-0.079934
C	 0.0000966035	-0.0414752633	-2.5616980889	-0.104915
H	 0.9361403147	 1.9823429821	 0.3573794397	 0.117587
H	-0.5386812867	 2.0800012273	-0.6124328483	 0.115619
H	-0.6400759367	 1.7904434605	 1.1243131367	 0.111628
H	 0.4619889145	-0.4345936294	 0.8631991032	 0.090076
H	-1.0417478794	-0.3461172499	-0.0373666102	 0.092054
H	 2.6950764922	-0.1678629301	-0.3792466385	 0.106789
H	 2.7233311858	-0.357834635	-2.1419743714	 0.112747
H	 2.2125414451	 1.1728076247	-1.4304321654	 0.11207
H	 1.6003127327	-2.4477456385	-0.985666435	 0.088781
H	-0.1469107053	-2.375255367	-0.7794144555	 0.090133
H	 1.3873422071	-2.5549986604	-3.3760356398	 0.075359
H	-1.4460281499	-3.4193690963	-2.5978533513	 0.113892
H	-0.6368115269	-3.7739786501	-4.1326848371	 0.109298
H	-0.0195353968	-4.4698385309	-2.6282684174	 0.111552
H	-0.5829234171	-0.9908687784	-4.3990431353	 0.084737
H	-0.3045429549	 0.9810086218	-2.7607844005	 0.086146
