16
gdb 34161	3.93185	1.57398	1.38526	1.1951	78.11	-0.2228	0.0316	0.2544	935.6538	0.124978	-363.479175	-363.472613	-363.471669	-363.50986	27.393	
C	 0.0361628598	-1.1717142488	-0.0163876326	-0.353506
C	 0.0052047025	 0.0313776949	 0.0018673234	 0.039504
C	-0.05833174	 1.4620170943	 0.0274269324	 0.259179
C	-1.0339805033	 2.2922091376	 0.9014587493	-0.226396
N	-0.8569779283	 3.4245012672	-0.0735499196	-0.164827
C	 0.6126281693	 3.7018130215	-0.0562763025	-0.03589
C	 0.912838484	 2.9782219177	-1.3352496187	-0.103359
C	 1.2473655832	 2.3111012089	-0.0124680982	-0.140315
C	-0.507462353	 2.4008480778	-1.1676545256	-0.067347
H	 0.0680820836	-2.2328467262	-0.0324707256	 0.181227
H	-2.0604854403	 1.9191543861	 0.8512120884	 0.118269
H	-0.7543588113	 2.5109522981	 1.9356526133	 0.107544
H	 1.0432407873	 4.5933883137	 0.3798053163	 0.097701
H	 1.5178269074	 3.2377544016	-2.1920337582	 0.099491
H	 2.2091982243	 2.0826447572	 0.424092273	 0.099156
H	-1.2509610052	 2.1490950681	-1.9204848251	 0.089568
