23
gdb 121243	2.69801	0.8607	0.71058	1.7966	83.02	-0.244	0.0801	0.3241	1665.5117	0.204351	-425.399066	-425.388566	-425.387621	-425.435371	37.56	
C	-0.0220728376	 1.5390951285	 0.3224204989	-0.236617
O	 0.6937999909	 0.3626204883	 0.0246045579	-0.238195
C	 0.7297975973	-0.5505854378	 1.0866373527	 0.157538
C	-0.5459415096	-1.369643977	 1.4326135074	-0.255723
C	 0.3649700758	-2.6201676905	 1.5765652579	-0.233029
C	 1.4867742258	-1.8729609404	 0.7881744003	-0.058165
C	 1.5733810225	-2.2319051443	-0.6956095821	-0.165617
C	 2.2920370359	-3.5545455802	-0.9299942778	-0.079085
O	 2.2920704626	-3.8110896468	-2.3271280911	-0.422049
H	 0.4148870276	 2.073704902	 1.1811421509	 0.102021
H	 0.0288355016	 2.1841629338	-0.5580547836	 0.126739
H	-1.0788971497	 1.3328266477	 0.549145908	 0.107737
H	 1.132212029	-0.0629478431	 1.9897619602	 0.059302
H	-1.1358208919	-1.0638143259	 2.2997347983	 0.093014
H	-1.2041106866	-1.4420351947	 0.5623767839	 0.110894
H	 0.6422891068	-2.8168889385	 2.6153292936	 0.099873
H	-0.0046568315	-3.5497320631	 1.1370557703	 0.10094
H	 2.4862744863	-1.9267158385	 1.2332862825	 0.063318
H	 0.5731501843	-2.293883267	-1.1393305836	 0.103466
H	 2.1012407302	-1.4409569721	-1.237510524	 0.117369
H	 3.3205608207	-3.490854827	-0.5366995104	 0.080684
H	 1.7862246909	-4.3645108119	-0.3792586322	 0.082347
H	 2.7395816686	-4.6485714517	-2.4780951279	 0.283238
