16
gdb 34260	4.18031	1.32711	1.19946	4.7383	73.72	-0.2514	0.0159	0.2673	1024.926	0.126688	-400.733883	-400.727107	-400.726163	-400.765048	26.84	
N	 0.1027361514	-1.1398529734	-0.085573338	-0.348172
C	 0.035577243	 0.0152133095	-0.0320929685	 0.166146
C	-0.0446057687	 1.435468173	 0.0401526879	 0.184932
C	-1.2188358648	 2.2577518024	 0.5852306958	-0.291455
C	-0.7514300385	 3.4495065289	-0.3120786297	-0.08641
C	 0.2221447662	 4.331252829	 0.4658634193	-0.081837
O	 1.2657056462	 3.4250364432	 0.8710330722	-0.260128
C	 1.210660337	 2.3293112577	 0.0034623608	 0.074245
C	 0.2039243169	 2.4826776091	-1.0708456828	-0.167741
H	-2.1740711404	 1.8472675488	 0.2537235961	 0.12638
H	-1.2437380866	 2.4272499748	 1.6656883851	 0.118031
H	-1.5175112755	 3.9803585392	-0.8732901918	 0.092999
H	 0.641637258	 5.1342702204	-0.1572381643	 0.104785
H	-0.2155289053	 4.7692111395	 1.3675507612	 0.120394
H	 2.1624514022	 1.8391872069	-0.1580303594	 0.130916
H	 0.343574599	 2.347492071	-2.1343513339	 0.116915
