21
gdb 63918	2.93725	1.58825	1.54293	1.4595	80.83	-0.2338	0.0872	0.321	1006.6955	0.183071	-387.073368	-387.065453	-387.064509	-387.105094	32.602	
C	-0.2100114376	 1.6102040645	 0.0351463947	-0.415673
C	-0.0041190836	 0.0921085229	 0.0161006841	 0.357763
C	-1.3509910237	-0.6379368591	 0.0498518186	-0.413624
O	 0.6635774116	-0.3012808859	-1.2100345011	-0.31065
C	 1.9477737752	-0.8069226536	-0.8855919404	 0.087993
C	 2.8794021262	 0.3045008268	-0.3068325415	-0.255466
C	 2.4166392666	-0.1246591934	 1.0876704316	-0.096453
C	 1.86147201	-1.4334947398	 0.5326797504	-0.100024
C	 0.9240901239	-0.427667631	 1.1168082304	-0.069631
H	 0.7423325144	 2.1436241505	 0.025590949	 0.119517
H	-0.7914522676	 1.9251179854	-0.8366021223	 0.119374
H	-0.7570394829	 1.9091217597	 0.9358674029	 0.108499
H	-1.9319077924	-0.3880062515	-0.8428567664	 0.120671
H	-1.1970904237	-1.7204468257	 0.0648561638	 0.115557
H	-1.9356896995	-0.3542808602	 0.931295339	 0.10619
H	 2.3136155761	-1.3948999137	-1.7265106667	 0.078599
H	 3.9342805657	 0.0540873542	-0.4566767803	 0.097907
H	 2.6972980576	 1.3260973003	-0.6531439544	 0.095958
H	 2.9584409387	 0.029190982	 2.0138716614	 0.083381
H	 1.9919044601	-2.4618380809	 0.8402170022	 0.086165
H	 0.4988656447	-0.6124784616	 2.097092895	 0.083948
