20
gdb 73129	2.41946	1.82232	1.56685	1.7253	76.97	-0.227	0.0742	0.3013	976.2562	0.172734	-403.112134	-403.104608	-403.103664	-403.143621	30.585	
C	 0.2266416588	 1.5005778919	-0.0450264357	-0.49686
C	-0.0725107913	 0.0109907267	 0.0035094919	 0.28705
C	-1.4202252741	-0.4483326945	 0.6082631622	-0.127603
O	-0.7581613882	-1.4471799446	 1.4164539459	-0.29859
C	 0.5418439209	-0.8715403456	 1.1257186096	 0.074898
C	 1.5531191948	-1.8143316459	 0.4718483585	-0.191961
N	 1.3705222121	-1.7626897605	-0.9929740882	-0.104832
C	 0.0279186475	-2.1666778997	-1.4307501126	-0.263174
C	 0.3477307799	-0.7228296374	-1.2708035925	-0.082032
H	 1.2786674239	 1.6837010376	-0.2889082402	 0.127644
H	-0.3798187391	 1.9986593836	-0.8100210434	 0.122986
H	 0.0128068845	 1.9799191228	 0.9153075671	 0.118394
H	-1.9077478534	 0.3118496822	 1.2333987033	 0.096919
H	-2.1569287076	-0.8852362585	-0.0740557412	 0.105284
H	 0.9422706812	-0.3530058303	 2.0061959341	 0.073597
H	 2.5699102109	-1.4704984822	 0.6935669209	 0.107222
H	 1.4533920707	-2.8385138762	 0.8450603199	 0.119936
H	-0.0111673874	-2.5964303009	-2.4285043356	 0.111131
H	-0.6274955959	-2.636055737	-0.7028927308	 0.134415
H	 0.5195525717	-0.1151299314	-2.1558665531	 0.085578
