22
gdb 104471	2.06976	1.30867	1.10477	3.2777	84.05	-0.2277	-0.0189	0.2088	1273.1685	0.191091	-404.335491	-404.324865	-404.32392	-404.370674	38.616	
C	 0.4846612314	 1.0523031292	 0.4696071549	-0.391584
C	 0.2202892704	-0.3884150536	 0.0063757336	-0.268652
C	-1.2423311502	-0.7914252321	 0.0830999327	 0.191609
C	-2.1538797266	-0.0691955509	-0.8621875884	 0.143217
O	-1.7898111115	 0.60181377	-1.7963840261	-0.273457
C	-1.6794660369	-2.216947363	 0.3783059333	-0.043076
C	-0.6964870948	-3.3465307607	 0.6040252628	-0.422135
N	-1.9494620025	-1.156904218	 1.3300250044	-0.137023
C	-1.2594128707	-1.1118510684	 2.6117056704	-0.318359
H	 1.5466130626	 1.2957373526	 0.3688505254	 0.113381
H	-0.0819235502	 1.7639574297	-0.1350689745	 0.144475
H	 0.2078390736	 1.1969474309	 1.5184533206	 0.114469
H	 0.5234459258	-0.4855820706	-1.0418510673	 0.121862
H	 0.8447528986	-1.0800949803	 0.5762035054	 0.095487
H	-3.2314979264	-0.225705744	-0.6314017216	 0.080737
H	-2.5842521643	-2.5567334167	-0.1294076889	 0.091923
H	 0.2224788262	-3.0369674174	 1.1023999325	 0.126343
H	-1.161725869	-4.1276493817	 1.2153394799	 0.129517
H	-0.42287889	-3.7988584851	-0.3546301351	 0.133
H	-0.1896470603	-1.3577713691	 2.5872702	 0.107684
H	-1.3665672894	-0.1078149393	 3.0324559733	 0.132967
H	-1.7522499957	-1.8135481117	 3.2922810926	 0.127613
