13
gdb 7701	3.55495	2.09004	1.34593	3.5535	62.6	-0.2778	-0.0635	0.2143	845.9077	0.096564	-398.653984	-398.647391	-398.646447	-398.685298	24.241	
N	-0.1217409798	 1.3325160813	-0.2045742361	-0.485901
C	-0.052584172	 0.102743731	 0.0575919402	 0.391237
C	-1.2799802726	-0.7737917471	 0.0760032751	-0.344258
C	-1.1247739437	-1.9899807416	 0.931758155	-0.060266
C	 0.0718310623	-2.4049830239	 1.3465658152	-0.189262
C	 1.3092077265	-1.7067950672	 0.9654609401	 0.421972
O	 2.4176756809	-2.101504605	 1.1902805225	-0.311838
O	 1.1682671863	-0.5041776963	 0.291099682	-0.243879
H	 0.8087367211	 1.754733817	-0.196129765	 0.236594
H	-2.1280923618	-0.1597380426	 0.3900417041	 0.161849
H	-1.5075412905	-1.0841389765	-0.9550831289	 0.161421
H	-2.0230761861	-2.5452454765	 1.1853410914	 0.128825
H	 0.2180287096	-3.2951106726	 1.9453547444	 0.133505
