14
gdb 75674	2.89286	1.29857	1.13185	2.3985	68.57	-0.2569	-0.0489	0.208	1072.9624	0.099966	-436.679694	-436.671612	-436.670668	-436.712571	29.443	
O	-0.114355564	 1.4793481534	-0.0897895707	-0.421858
C	-0.0251185786	 0.0844215328	-0.0035564725	-0.084305
C	 0.2273820368	-0.5898138263	 1.3848042945	 0.407564
O	 1.1789683102	-0.613493958	 2.1090812179	-0.306417
C	-1.1006187817	-1.2890862321	 1.3644119636	-0.235355
C	-2.1837766294	-0.2452964325	 1.1672635499	-0.31572
C	-1.3814708587	-0.6374213168	-0.034902399	 0.220752
C	-1.9388964088	-1.2745240535	-1.1819680419	 0.189941
N	-2.3812314885	-1.7910526227	-2.1180704222	-0.336771
H	 0.7560095644	 1.847581123	 0.0996071292	 0.305001
H	 0.6701297613	-0.3442850008	-0.7407414234	 0.118851
H	-1.3299910615	-2.2927962751	 1.697953798	 0.143602
H	-3.1933725646	-0.6377483082	 1.2087911399	 0.156731
H	-2.0618854669	 0.7566691968	 1.5622148466	 0.157986
