19
gdb 110657	3.57439	1.39084	1.21524	0.5159	82.85	-0.2089	-0.0296	0.1793	1087.001	0.159132	-385.778794	-385.771062	-385.770118	-385.811142	30.257	
C	 0.354132762	 1.244600235	-0.2524813766	-0.243955
O	 0.1156912903	-0.1286591149	-0.0213283669	-0.235059
C	 0.6032460976	-0.5787416679	 1.1994338129	 0.138547
C	 0.2362424946	-2.0216213258	 1.6552512404	-0.128633
C	 1.1919430431	-3.2283438552	 1.2987917326	-0.038375
C	 2.2334523756	-3.1952432897	 0.1649942531	-0.262402
C	 2.5279968033	-1.699475196	 0.1577652647	-0.085649
C	 2.0526220263	-1.1328993981	 1.2847326812	-0.036368
C	 1.5924715096	-2.2011350835	 2.2906375617	-0.10899
H	 1.4297001893	 1.4684809229	-0.2992203266	 0.116229
H	-0.1043829338	 1.4967867129	-1.2111784088	 0.128432
H	-0.0948821379	 1.870559027	 0.5338860952	 0.107841
H	 0.3219545533	 0.1199904875	 2.0045829765	 0.070319
H	-0.7205603885	-2.2617083367	 2.1126665923	 0.089366
H	 0.78247387	-4.181698229	 1.6292061656	 0.078973
H	 3.0615629721	-3.8822986599	 0.391076868	 0.10656
H	 1.8453132659	-3.4751518299	-0.8217773112	 0.113016
H	 2.554195515	-1.164748651	-0.7866170992	 0.1011
H	 1.8593988022	-2.2951770776	 3.3342957052	 0.089048
