14
gdb 29474	3.3313	1.68848	1.12108	4.5773	69.24	-0.181	0.0328	0.2138	988.0335	0.103961	-432.896772	-432.889494	-432.88855	-432.928097	28.169	
O	 0.0864546341	 1.347571892	-0.0341435406	-0.451331
C	 0.0549021073	-0.0130480111	-0.0045398161	 0.207923
C	 0.0455466894	-0.8283708115	-1.1094401117	-0.177294
N	 0.0824420738	-2.1848839039	-0.7005016892	-0.422479
C	 0.0206077232	-2.1660082858	 0.661108491	 0.401875
C	 0.0417880581	-0.872050447	 1.142115762	 0.14959
N	 0.0824529087	-0.8623680233	 2.5229430724	-0.367662
C	 0.0807149072	-2.1313892703	 2.851984065	-0.011198
N	 0.0568097331	-2.9901928971	 1.7562894642	-0.404662
H	 0.1009009193	 1.6581044859	 0.8767198571	 0.308299
H	 0.0511653194	-0.5753995663	-2.155711353	 0.118819
H	-0.2184249513	-2.9374561183	-1.2951971388	 0.257
H	 0.087627231	-2.5236926502	 3.8579339966	 0.126268
H	 0.0245853069	-3.993941933	 1.7911967813	 0.264852
