16
gdb 16731	3.78734	1.72897	1.69629	3.2025	67.61	-0.2463	0.0267	0.273	834.0754	0.133339	-342.782161	-342.7755	-342.774555	-342.812973	25.645	
N	 0.6480199312	-0.8934532591	 0.9014275858	-0.33932
C	 0.3413217879	 0.1453588481	 0.4949921784	 0.281543
C	-0.0397407362	 1.4552875516	-0.0267901605	-0.182135
C	-0.8286408117	 2.3149575745	 1.006274675	-0.241514
C	 0.2107349214	 3.263225005	 1.5813139163	-0.009074
C	 1.5009602991	 2.6924523778	 2.0464409859	-0.26225
N	 1.4037173867	 3.3131957493	 0.7155320633	-0.086535
C	 1.1936248253	 2.360467577	-0.3773561162	-0.170133
H	-0.6417926283	 1.2762651432	-0.9217931827	 0.133753
H	-1.6023392507	 2.8861494763	 0.484363216	 0.119334
H	-1.322617749	 1.7010149914	 1.7629965476	 0.134689
H	-0.1387528702	 4.210587056	 1.9812019648	 0.098851
H	 2.1089178531	 3.2489889736	 2.7532786433	 0.124361
H	 1.5998236881	 1.6126501272	 2.1213103346	 0.144985
H	 2.0975122421	 1.7768690771	-0.5680818308	 0.133537
H	 0.9615489911	 2.9337628812	-1.2800566506	 0.119908
