20
gdb 24111	4.57657	0.88175	0.83602	1.8567	86.02	-0.1938	0.0483	0.2421	1447.4614	0.173046	-366.037535	-366.029134	-366.02819	-366.071703	32.134	
C	-0.0708203178	 1.575567525	-0.0803987969	-0.355795
C	-0.1716102628	 0.0660517229	-0.2593047957	 0.044995
C	-0.1649272255	-0.838883677	 0.9426985594	-0.24626
C	-1.4301529685	-0.6625323447	 0.1361151571	-0.276228
C	 1.3310976522	 2.0821975625	 0.0660362104	 0.319902
C	 2.0247877737	 2.5319587177	 1.1688473611	-0.224809
C	 3.3450840213	 2.8655179829	 0.7534315964	-0.135774
C	 3.4248901815	 2.6111791831	-0.5943338006	-0.100392
N	 2.2007600813	 2.1367982283	-0.9999535009	-0.283866
H	-0.5684721689	 2.0733375312	-0.9256461849	 0.098494
H	-0.6327021024	 1.865841133	 0.8141447952	 0.109618
H	 0.3413359312	-0.3144971881	-1.1394728672	 0.073365
H	 0.3602722364	-1.7853134156	 0.8785962309	 0.110428
H	-0.1163324768	-0.3729645414	 1.9216066029	 0.112579
H	-2.2343143466	-0.0801014834	 0.5748148068	 0.109111
H	-1.7691084104	-1.4878538001	-0.4805491407	 0.108876
H	 1.6211856044	 2.6129179896	 2.1671650444	 0.083386
H	 4.140508881	 3.2521087397	 1.3719323279	 0.088368
H	 4.2348989256	 2.7303570296	-1.2958294911	 0.110047
H	 1.9669854109	 1.8795667146	-1.9430732647	 0.253956
