20
gdb 13636	3.13811	1.4835	1.249	1.7725	71.6	-0.2522	0.0779	0.3302	1076.31	0.174366	-386.109963	-386.100404	-386.09946	-386.144461	33.944	
C	 0.5205666981	 1.8476908589	-0.5218677149	-0.234056
O	-0.1450709242	 0.6614117586	-0.8882570071	-0.246974
C	 0.7150594589	-0.4358167686	-1.1853190419	 0.098225
C	 1.3317331008	-1.071628719	 0.0627736372	-0.400661
C	-0.0873975157	-1.4292443565	-2.02880027	 0.024705
O	-0.3398289534	-2.7345086782	-1.4962958272	-0.255234
C	-1.460165419	-1.8728797044	-1.728945794	 0.098581
C	-2.2845287559	-1.4438747855	-0.543078179	-0.409332
H	 1.0431983836	 1.7641605951	 0.4418103755	 0.10904
H	 1.2544672236	 2.1520932579	-1.2851566296	 0.102974
H	-0.240016479	 2.6278735597	-0.4353949012	 0.127363
H	 1.5350999732	-0.0613906528	-1.8207015852	 0.06619
H	 0.5623672292	-1.4674369714	 0.7280496717	 0.13398
H	 1.9809352585	-1.9032442892	-0.2252115419	 0.128633
H	 1.9361611525	-0.34370679	 0.6110341939	 0.109702
H	 0.2056028549	-1.4479318841	-3.0796082	 0.086601
H	-2.0558019103	-2.1777465266	-2.5932047077	 0.084345
H	-1.667702513	-1.0750041102	 0.2751305766	 0.13423
H	-2.9647754267	-0.638828685	-0.8384378533	 0.124076
H	-2.888708886	-2.2853534987	-0.1866147418	 0.117612
