22
gdb 94004	3.07429	1.13267	0.9318	4.3223	83.55	-0.2348	0.0308	0.2656	1329.4436	0.194966	-404.399077	-404.389636	-404.388692	-404.433381	35.298	
C	-0.3514201333	 1.4549552599	-0.0178669433	-0.416722
C	 0.0874292738	-0.0056468033	 0.0422550405	 0.026749
C	 0.9550857804	-0.4724408088	-1.1425475773	-0.240932
C	 1.5574885514	-1.79828981	-0.6575790457	-0.158544
N	 1.5684119671	-1.6564964433	 0.8023377404	-0.032677
C	 2.0006832228	-2.6581285093	 1.6034775962	 0.133137
O	 2.4728640344	-3.7063365301	 1.2071546868	-0.345893
C	 0.936582608	-0.4165079397	 1.2737202832	 0.007429
C	 1.9748225719	 0.6197030958	 1.7250473516	-0.389623
H	 0.5048693975	 2.1335051911	-0.0817395166	 0.121531
H	-0.9769866084	 1.6289498716	-0.8991702007	 0.119452
H	-0.9383823913	 1.7355233317	 0.8631865505	 0.117594
H	-0.8109786096	-0.6366543025	 0.0615557232	 0.084035
H	 0.3795832932	-0.5900898691	-2.0639192196	 0.107378
H	 1.7446283505	 0.2607140747	-1.3433976613	 0.106681
H	 0.9427191156	-2.6611690623	-0.9402527124	 0.120543
H	 2.5655750905	-1.9865826998	-1.0377328566	 0.124637
H	 1.8751793133	-2.4210586722	 2.6800590399	 0.063658
H	 0.2835867032	-0.6447163213	 2.1242590374	 0.087255
H	 2.6319529893	 0.9190666925	 0.9025541572	 0.121496
H	 1.489603352	 1.5162154566	 2.1229879991	 0.119724
H	 2.6037985177	 0.199642638	 2.5154211276	 0.123093
