19
gdb 58668	1.89656	1.47365	1.14444	2.2355	76.89	-0.2681	0.0097	0.2778	1196.0403	0.157399	-419.20023	-419.190138	-419.189194	-419.235298	36.464	
C	 0.0406035939	 1.4621115764	-0.3507406184	-0.425924
C	 0.0339123955	 0.0458997744	 0.2214603991	 0.06525
O	 0.5427593606	-0.0128066859	 1.5434446701	-0.429033
C	-1.3602958274	-0.5882623871	 0.1601219904	 0.15699
N	-1.8083487755	-1.0870958874	-1.1559867125	-0.363629
C	-1.5980433835	-2.0539090595	-0.0727451132	-0.038037
C	-0.4905248483	-3.066833103	-0.22352158	-0.406282
C	-2.3296521285	 0.0834314158	 1.0005709064	 0.229532
N	-3.0760130183	 0.6542614668	 1.6768574219	-0.347471
H	 1.0517412906	 1.874265229	-0.3054250345	 0.129694
H	-0.2932717287	 1.4563909704	-1.3922614703	 0.13675
H	-0.6269007004	 2.1195112104	 0.2185828512	 0.129928
H	 0.699605204	-0.5820573792	-0.3749628468	 0.103842
H	 0.056733741	 0.6234069375	 2.081565487	 0.292387
H	-2.7960336345	-0.8948354979	-1.3021284555	 0.250758
H	-2.4937389416	-2.4388691022	 0.4122513089	 0.109186
H	 0.3415072767	-2.6708584601	-0.8079737849	 0.136872
H	-0.1172276637	-3.3771837997	 0.7568813402	 0.140022
H	-0.8692104122	-3.9532498487	-0.7425516492	 0.129168
