17
gdb 101425	3.1358	1.06597	0.95047	2.7669	63.92	-0.2703	-0.0055	0.2648	1249.5248	0.135374	-496.113373	-496.104512	-496.103567	-496.147641	31.976	
O	 0.187723921	 1.4163628092	 0.0055324863	-0.421407
C	 0.1255904328	 0.0077311265	 0.0276807322	-0.077914
C	-1.3293981587	-0.47004425	 0.0278250337	 0.067222
O	-2.0216008765	 0.0843029206	-1.0925411088	-0.443964
C	-1.4531757826	-1.9929001588	 0.0692565395	-0.210752
C	-2.8543750762	-2.6271617116	-0.0233112196	-0.105261
O	-2.4758359521	-3.2971651843	-1.2742708346	-0.229974
C	-1.245067451	-2.7069074428	-1.2738314295	 0.44188
O	-0.4078238992	-2.7523109475	-2.1200901816	-0.331065
H	-0.4617045269	 1.7021184483	-0.6492749572	 0.287144
H	 0.651536149	-0.444244548	-0.830698186	 0.110039
H	 0.6341744498	-0.3264876491	 0.9387954593	 0.109876
H	-1.8339867493	-0.0416848637	 0.9015390219	 0.108888
H	-1.5961447571	-0.2433814058	-1.8965888216	 0.298673
H	-0.8290490134	-2.412332535	 0.8632393783	 0.122576
H	-3.1199308803	-3.3577794943	 0.7415984387	 0.129833
H	-3.6677278293	-1.9237133138	-0.2059878009	 0.144205
