14
gdb 4511	3.62871	1.81577	1.22008	1.7753	60.15	-0.1692	0.0645	0.2337	924.0532	0.109129	-412.071908	-412.064012	-412.063068	-412.103591	29.565	
N	 0.1594137296	 1.441491793	-0.0625538301	-0.621426
C	 0.0063331575	 0.0448122088	-0.0438559058	 0.158833
C	-1.0552575971	-0.8195296756	 0.0238892352	 0.252666
N	-2.4186074833	-0.5189220347	 0.1338464696	-0.599558
N	-0.6308538933	-2.1351379628	 0.0505266486	-0.416278
C	 0.6774417847	-2.0613893193	 0.0018753781	 0.438932
O	 1.5280770056	-3.104573816	-0.0008744371	-0.428807
N	 1.138941807	-0.8011976718	-0.0573424781	-0.319325
H	-0.1746625864	 1.8799166519	-0.9143209559	 0.235749
H	-0.2815183198	 1.8984420814	 0.7277256728	 0.243765
H	-2.9806327661	-1.3114568563	-0.1499620457	 0.246561
H	-2.6839449404	 0.2998036201	-0.3986854	 0.232109
H	 0.9762946364	-3.8951710847	 0.0500090958	 0.309476
H	 2.0974060056	-0.4996138641	-0.0863886473	 0.267303
