19
gdb 102762	2.35681	1.10923	0.84832	3.226	72.62	-0.2429	-0.0305	0.2124	1390.215	0.156214	-460.133289	-460.123471	-460.122527	-460.169593	34.695	
O	 0.2344502545	 1.0978233399	 0.2084974086	-0.423467
C	-0.1148456263	-0.1654337432	-0.3179301861	-0.080789
C	-1.5732547693	-0.5192908485	 0.0034508474	 0.002473
O	-1.6852705487	-0.46567415	 1.418614774	-0.274652
C	-2.7642234255	-1.1825001452	 1.948853691	 0.141615
C	-3.2263645155	-0.7849819936	 3.3100984717	-0.289662
C	-4.1144581114	-0.5286630763	 2.1070408285	-0.290136
C	-2.5137068092	 0.4767441208	-0.6747906149	 0.157752
O	-2.9030766308	 0.349689271	-1.8054033181	-0.244494
H	 0.0484217204	 1.056877622	 1.1538441328	 0.294959
H	 0.0172835492	-0.115783723	-1.4025304771	 0.131147
H	 0.5292998081	-0.9659158094	 0.0761109135	 0.100303
H	-1.7987798437	-1.5230286056	-0.3835942785	 0.094965
H	-2.7427288082	-2.243188046	 1.6994831388	 0.095725
H	-3.4983890982	-1.5636133452	 4.0132052469	 0.121907
H	-2.7395253525	 0.0771145924	 3.7515831374	 0.12725
H	-4.2161214057	 0.501432562	 1.786515588	 0.124429
H	-5.0007710142	-1.1376285216	 1.9677625954	 0.122571
H	-2.784642483	 1.3524589896	-0.0463482092	 0.088105
