21
gdb 90968	3.65253	1.38184	1.29866	1.3715	82.78	-0.2479	0.0893	0.3372	1080.8734	0.184482	-387.0289	-387.021449	-387.020505	-387.060664	30.878	
C	 0.0057495256	 1.5487631585	 0.0909125369	-0.397999
C	 0.0336980398	 0.0350212069	-0.0325611462	 0.156595
C	 0.8382642	-0.5148513344	-1.2879217825	-0.418439
C	 1.9063523359	-1.3145532168	-0.5803110893	 0.331396
C	 2.7014379207	-2.653948839	-0.5031150932	-0.316936
C	 2.8299556332	-1.9860949444	 0.9222781253	-0.105263
C	 3.1018804985	-0.6535748255	 0.1905288792	-0.251637
C	 1.3042926072	-1.6838784581	 0.7701592346	 0.136963
O	 0.6358950823	-0.5134004592	 1.1769678859	-0.30257
H	 1.0202948517	 1.9592900852	 0.0947673582	 0.122275
H	-0.5420086432	 1.9893441109	-0.7484263708	 0.114298
H	-0.4896629741	 1.8464720405	 1.0192942373	 0.127491
H	-0.9968568345	-0.3434948337	-0.0890541741	 0.076878
H	 0.189330398	-1.1343916199	-1.9139350636	 0.106419
H	 1.2267405164	 0.3023503344	-1.9020955302	 0.105419
H	 2.1203408221	-3.5785539683	-0.5672821491	 0.095011
H	 3.6284794179	-2.7214095844	-1.0764239258	 0.098483
H	 3.3590978735	-2.3989778546	 1.7820859483	 0.073112
H	 4.043977307	-0.5818597094	-0.3596883306	 0.082902
H	 2.8822549403	 0.2579075036	 0.744685634	 0.10911
H	 0.6438304019	-2.5612334323	 0.8135573057	 0.056492
