19
gdb 78958	2.49414	2.05105	1.54572	1.2555	77.25	-0.2252	0.0765	0.3016	935.1789	0.159647	-385.817925	-385.810576	-385.809632	-385.849127	30.555	
C	-0.056931478	 1.6261888454	 0.0069436681	-0.419567
C	 0.027856869	 0.1093524241	 0.0044736451	-0.043796
C	 1.0765903495	-0.6407255065	-0.8594592306	-0.080795
C	 2.4805988663	-0.2619099035	-0.3227562371	-0.067161
C	 2.6460881487	-1.5348512363	 0.4775981255	-0.110309
C	 2.2071309735	-0.2710995064	 1.1816511726	-0.102039
C	 0.7091045086	-0.6481176565	 1.1780413385	 0.386941
O	 0.1434710265	-0.7934465035	 2.4366662893	-0.488874
C	 1.1399007068	-1.8129363265	 0.1914475392	-0.139122
H	 0.9333000907	 2.0706540592	 0.1508439279	 0.120284
H	-0.4632381937	 2.0081215299	-0.936066782	 0.110861
H	-0.7031546615	 1.9830830922	 0.8165449348	 0.115729
H	-0.9598185918	-0.3414590287	-0.1744979551	 0.055611
H	 0.9422990879	-0.7993852093	-1.9281607507	 0.062277
H	 3.2411881422	 0.3602692709	-0.7761500347	 0.083915
H	 3.5075455223	-2.1699815982	 0.6322871071	 0.086391
H	 2.7388244818	 0.3455132387	 1.8937455224	 0.086805
H	-0.7572260303	-1.1163252263	 2.3269546779	 0.278665
H	 0.6298418813	-2.7678092287	 0.0896647018	 0.064183
