17
gdb 24197	4.10539	1.6096	1.3844	3.2926	78.72	-0.181	0.0435	0.2245	940.2829	0.140284	-380.819705	-380.813299	-380.812354	-380.850859	26.528	
C	-0.0216807237	 1.5159667357	-0.0627032149	-0.162508
C	 1.5379579709	 1.3385472295	-0.0025435364	-0.189285
C	 1.1401992697	 0.1629863622	 0.9604707451	-0.162503
N	-0.0892874979	-0.0179534158	 0.051545915	-0.236267
C	 0.6278362493	-0.3463723566	-1.1970801162	 0.354028
C	 1.6912489153	 0.5121472987	-1.2693669945	 0.330403
N	 2.386228535	 0.2486092839	-2.4073272227	-0.427502
C	 1.7496386666	-0.7955252454	-3.0652866309	-0.076817
C	 0.6407400384	-1.1899160831	-2.3274461794	-0.391318
H	-0.4561186539	 1.9826819918	 0.8274136963	 0.101305
H	-0.4620208969	 1.9200326758	-0.9759214664	 0.109251
H	 2.2367562668	 2.1344049272	 0.25632654	 0.067683
H	 1.795223379	-0.7084715283	 1.0118594541	 0.109248
H	 0.8296963579	 0.4853832983	 1.9597271138	 0.101305
H	 3.2153759391	 0.7107564792	-2.7376163237	 0.25936
H	 2.1381903167	-1.1679157029	-3.9990766585	 0.114948
H	-0.0426767522	-1.9800690901	-2.5963309208	 0.098668
