15
gdb 125241	3.05714	1.42131	0.97747	6.6401	72.21	-0.2379	-0.0707	0.1671	1138.5343	0.112583	-453.96241	-453.954384	-453.953439	-453.994839	30.386	
C	-0.0560605386	 1.5123701721	 0.044521723	-0.511099
C	-0.0088343552	 0.0128685507	 0.0044870388	 0.293677
C	-0.0071837108	-0.70122869	-1.1358009829	-0.330787
C	 0.0134078838	-2.1573348322	-1.1293844689	 0.451795
O	 0.0103465106	-2.8687043075	-2.1005956246	-0.34365
O	 0.0327508763	-2.7518326286	 0.1173327831	-0.263388
N	 0.0680016245	-2.0424293986	 1.3128935815	-0.160594
C	 0.0219363357	-0.7490788913	 1.2471665575	 0.321516
N	-0.0715437273	-0.070105581	 2.4565762937	-0.557168
H	 0.8566127498	 1.927969413	 0.4905860001	 0.140603
H	-0.1533357456	 1.9267154996	-0.9606491119	 0.145171
H	-0.8983698963	 1.8570034584	 0.6533888895	 0.159608
H	-0.032609469	-0.2350323332	-2.1140027058	 0.132801
H	 0.0629830739	-0.6852944263	 3.2493157103	 0.265418
H	 0.4925693184	 0.7653858349	 2.5248760464	 0.256095
