18
gdb 69635	3.73007	1.17294	1.13867	2.981	78.99	-0.2172	-0.0333	0.1838	1146.4984	0.146501	-401.881678	-401.873538	-401.872594	-401.914063	31.596	
C	 0.0551860589	 1.5081078608	-0.0788909508	-0.495145
C	 0.0295077777	 0.0105640476	 0.0032492383	 0.344169
C	-0.9501431995	-0.7967821969	 0.8159162216	-0.339974
C	 0.5228898088	-0.9193732448	 1.108091043	-0.17989
C	 1.2539420597	-1.7960657689	 0.0608547675	 0.247698
N	 0.298242615	-2.2551632895	-0.981145669	-0.363663
C	 0.7587952036	-0.8827545562	-1.0433584377	-0.136189
C	 2.6048516875	-2.3481092792	 0.0931730899	 0.049061
O	 3.0777139245	-3.0120520007	-0.8084484348	-0.297809
H	 1.0645151288	 1.8820995327	-0.2883232319	 0.119888
H	-0.6070745309	 1.876615267	-0.8717378353	 0.126188
H	-0.2756373172	 1.9541683348	 0.8640483925	 0.123987
H	-1.4986640311	-0.2107040188	 1.5473642896	 0.111939
H	-1.4967466584	-1.623622791	 0.3809037533	 0.14545
H	 0.9700773281	-0.6528601395	 2.0577568681	 0.094835
H	 0.8648963748	-2.8056813782	-1.6307187558	 0.254612
H	 1.3463024829	-0.5103643941	-1.8744571871	 0.116499
H	 3.1946524967	-2.1039462851	 1.0022593085	 0.078345
