20
gdb 1363	3.15608	2.26253	2.0059	1.2476	71.72	-0.2097	0.082	0.2917	819.6085	0.180715	-291.021574	-291.012519	-291.011574	-291.054234	32.877	
C	 1.8597685401	-3.8885557367	 1.5991058491	-0.419677
C	 1.0368309432	-2.8044532006	 0.9352838047	-0.028183
N	 0.0850301557	-1.9486039457	 1.6552745553	-0.132082
C	-0.0951662886	-2.0829603211	 3.0914246663	-0.313354
C	 1.2933180476	-1.3329055833	 1.0857614985	 0.315386
C	 2.4140117923	-0.8182618927	 1.9719353584	-0.456408
C	 1.0062491997	-0.4234500334	-0.0960510655	-0.433001
H	 2.3128398671	-3.5812637847	 2.5428587206	 0.117777
H	 1.2413998919	-4.7709757172	 1.7994130603	 0.121949
H	 2.6691103391	-4.2022323375	 0.9308227722	 0.121128
H	 0.6453517593	-3.1249408504	-0.0321423944	 0.076885
H	 0.8034275512	-2.3320817396	 3.673673825	 0.095693
H	-0.496322598	-1.1432354053	 3.4855481589	 0.120215
H	-0.8392861324	-2.8643671982	 3.2797699302	 0.120025
H	 3.3318609049	-0.7011157447	 1.3852802533	 0.119104
H	 2.1583375298	 0.1689061112	 2.3748963226	 0.118281
H	 2.6443488866	-1.4699836121	 2.8153191228	 0.116532
H	 0.7372422519	 0.5836400835	 0.2443008455	 0.11064
H	 1.8840403906	-0.3326781724	-0.746633678	 0.106825
H	 0.1722698983	-0.8119983291	-0.685234856	 0.122265
