19
gdb 14030	4.99776	1.1883	1.10654	2.4479	71.99	-0.242	0.0754	0.3174	1126.2144	0.16612	-365.020726	-365.012609	-365.011665	-365.053661	30.437	
O	 0.0653093932	 1.2796719387	-0.5915623859	-0.422665
C	 0.0582930506	 0.1525605497	 0.2683125032	-0.057938
C	-1.3157851958	-0.4700880448	 0.3387438285	-0.118428
N	-1.7443513929	-1.0996459694	-0.935909109	-0.400731
C	-1.5586600646	-1.9290421661	 0.2518039005	 0.367056
C	-0.564742809	-3.0912210837	 0.3816072352	-0.286785
C	-1.5045231013	-3.7008461931	 1.4641012982	-0.207018
C	-2.6271245692	-2.7136195123	 1.0248095861	-0.307156
H	-0.2932479405	 0.9646279161	-1.4303730181	 0.289118
H	 0.7870448394	-0.60331019	-0.0609035894	 0.088366
H	 0.3704593552	 0.5114864475	 1.2549757113	 0.104241
H	-2.0610326972	 0.1205847721	 0.8703232273	 0.087034
H	-2.7357279237	-0.9373720685	-1.0976093021	 0.229578
H	-0.5280329753	-3.6901332513	-0.5329838313	 0.110527
H	 0.4576553307	-2.8533901154	 0.6838847012	 0.105397
H	-1.7283626516	-4.7654260757	 1.3775996507	 0.103211
H	-1.1531088156	-3.4995363058	 2.4786519838	 0.108065
H	-3.171486052	-2.1824560014	 1.8102876195	 0.103187
H	-3.3524292003	-3.1864300265	 0.3538053703	 0.104942
