15
gdb 42875	3.02658	1.43605	1.41721	3.9918	65.14	-0.2563	-0.0473	0.2089	963.3689	0.113465	-457.79736	-457.790384	-457.78944	-457.828992	26.896	
O	 0.0742873286	 0.0623083308	-0.1678954983	-0.295361
C	 0.0012437549	 1.2497710701	-0.0861267771	 0.417666
C	-1.1266039151	 2.2789032263	 0.10939185	-0.15879
C	-0.0780894402	 3.0779965167	 0.9510475638	-0.267368
C	 1.0198836533	 2.4108776275	 0.0854385655	 0.002844
O	 1.1685527261	 3.1069466527	-1.167185327	-0.234832
C	 0.0349775478	 3.4452293001	-1.8497950517	 0.415742
O	 0.1215427435	 4.0534294186	-2.8763545505	-0.3159
C	-1.2998683614	 3.0035799807	-1.2371708321	-0.355404
H	-2.0712181543	 1.961800022	 0.5521634238	 0.10337
H	-0.1263536033	 4.1678192636	 0.902385224	 0.128273
H	-0.0302152872	 2.7451814772	 1.9899319601	 0.131779
H	 2.0229803094	 2.2339651696	 0.4685666793	 0.11821
H	-1.7979176352	 2.3673125509	-1.975852261	 0.158925
H	-1.917759737	 3.9008711034	-1.1273837586	 0.150845
