18
gdb 118637	1.85246	1.16498	0.76608	0.6833	70.43	-0.2609	-0.0425	0.2184	1445.0516	0.145323	-476.249124	-476.238997	-476.238053	-476.285317	34.648	
O	 0.1768084089	 1.0969726666	-0.1196260125	-0.423832
C	 0.10498953	-0.320534142	-0.0667655626	-0.083372
C	-1.3693671888	-0.6728514971	 0.1059732314	-0.179025
C	-1.6555605424	-2.1900007615	 0.0929022839	-0.084695
N	-1.1445876032	-2.9122403313	 1.240018477	-0.272794
C	 0.0729586961	-3.515036431	 1.2352412254	 0.152873
O	 0.9169802228	-3.3664789787	 0.3744626994	-0.328316
C	-3.1570010986	-2.4019902351	 0.0183805113	 0.161672
O	-3.7926567336	-3.0028031544	 0.8472958538	-0.254899
H	 1.1047030019	 1.3463639172	-0.1563469013	 0.288962
H	 0.4918981954	-0.782387139	-0.9874285021	 0.101528
H	 0.6943989747	-0.7249519084	 0.7658199174	 0.110434
H	-1.7388065069	-0.2396649255	 1.0421718343	 0.117794
H	-1.9273413419	-0.1973351112	-0.7104543741	 0.113466
H	-1.2085914351	-2.6138455766	-0.8184559042	 0.12916
H	-1.8493282249	-3.2322053622	 1.8918131765	 0.260362
H	 0.2230628585	-4.1554880816	 2.1255368191	 0.087781
H	-3.645923753	-1.9304774281	-0.8592617928	 0.102899
