14
gdb 127780	3.54852	1.71982	1.16694	3.3841	71.01	-0.2305	-0.0343	0.1962	972.822	0.104545	-429.026636	-429.019772	-429.018828	-429.058164	25.588	
C	 0.0183475059	 1.417669248	 0.017830172	-0.339631
N	-0.0025124326	-0.025001819	 0.0747936748	-0.111492
N	-0.0909422059	-0.7720493385	-1.0823254085	-0.133139
N	-0.0947503167	-2.0348952743	-0.8130286388	-0.300262
C	-0.0074452341	-2.1612256274	 0.5542007704	 0.230181
C	 0.0489668976	-3.0267028287	 1.6394614397	-0.154116
N	 0.1336443482	-2.2057952337	 2.7181136057	-0.172584
N	 0.1392654458	-0.8655930329	 2.456599264	-0.371408
C	 0.0520116077	-0.8782978111	 1.1290346678	 0.452977
H	 0.9456111071	 1.808586472	 0.4475911706	 0.148593
H	-0.0456271243	 1.7025246346	-1.0326194991	 0.165386
H	-0.8311350068	 1.838862375	 0.5639998329	 0.148592
H	 0.0376650075	-4.098754303	 1.7437887451	 0.153285
H	 0.1915966008	-2.4931620008	 3.6815916035	 0.283616
