17
gdb 17695	4.93251	1.50603	1.47236	2.0435	68.09	-0.2306	0.0837	0.3143	906.1738	0.143504	-363.751383	-363.744674	-363.74373	-363.78276	25.77	
C	 0.269967128	 1.4979253641	 0.070097168	-0.177728
O	 1.1381883129	 0.4150719357	-0.2602947576	-0.233063
C	-0.2289745166	 0.115611045	 0.0513365921	-0.094356
C	-0.4610279653	-0.6602590425	 1.3046836491	 0.333248
C	-1.7685006258	-0.8600920192	 2.1105727479	-0.211506
N	-0.7594980205	-1.6809769334	 2.9340492101	-0.145899
C	-0.2573327094	-2.1742249422	 1.5653534513	-0.207857
C	 0.1905997843	-0.4913115641	 2.6969011784	-0.209866
H	 0.4706576442	 1.982873482	 1.0243449572	 0.113878
H	 0.0228956136	 2.170098883	-0.7504550188	 0.117662
H	-0.8206571166	-0.1984173841	-0.8110301297	 0.091197
H	-2.1761799262	-0.0005850881	 2.650267279	 0.101705
H	-2.5631233957	-1.4658138647	 1.6659263856	 0.101647
H	-0.9387898529	-2.8781548517	 1.0793875367	 0.100045
H	 0.7664094867	-2.5562608993	 1.5855341497	 0.109975
H	 1.2474628022	-0.7467934103	 2.8016343589	 0.111917
H	-0.0697390029	 0.3929973899	 3.2855355021	 0.099002
