21
gdb 73684	2.08483	1.94812	1.45962	2.7718	76.18	-0.2502	0.0728	0.323	1024.0165	0.185001	-424.251748	-424.243738	-424.242794	-424.284466	31.483	
C	-0.1487329403	 1.5842925281	 0.0001090532	-0.473852
C	-0.0353441783	 0.0581581941	-0.0044726536	 0.271818
C	-1.4020475144	-0.6493387627	 0.0921086384	-0.268132
C	-1.0699539628	-1.9346278682	 0.8526087333	-0.098056
O	-0.0391265547	-1.5670983571	 1.7658650389	-0.268958
C	 0.7253263925	-0.4929156381	 1.2448857499	 0.194779
O	 2.0042347559	-0.8850628683	 0.8210264912	-0.244196
C	 1.8957983002	-1.3615376706	-0.5169114005	-0.091897
C	 0.8484093054	-0.4518175923	-1.1819845425	-0.284762
H	 0.8420848331	 2.0492907137	 0.0376663307	 0.123277
H	-0.6507451087	 1.9433775845	-0.9049322197	 0.117158
H	-0.7224019693	 1.9383799031	 0.8632312558	 0.116751
H	-2.0955184748	-0.040571174	 0.6821947105	 0.103546
H	-1.8623856821	-0.8319387606	-0.8825615937	 0.101335
H	-1.9094320562	-2.3293529609	 1.4323402359	 0.108903
H	-0.7265580418	-2.7298083812	 0.1730706088	 0.092538
H	 0.8791667176	 0.2221526038	 2.0577720559	 0.082249
H	 2.8864660383	-1.2983163769	-0.9743071833	 0.10775
H	 1.5830846553	-2.4153308148	-0.5269086999	 0.101518
H	 0.2677359997	-0.9789931105	-1.9434919615	 0.100775
H	 1.3396378553	 0.3938281287	-1.6712961277	 0.107456
