13
gdb 42674	2.74659	1.67591	1.20411	4.2191	67.37	-0.2565	-0.0264	0.2301	969.9282	0.089944	-415.53035	-415.523642	-415.522697	-415.561726	25.647	
O	 0.0115802	-0.0854254473	 0.0671663536	-0.30622
C	-0.0151412336	 1.1029752285	 0.0221902818	 0.464408
C	-1.0278756234	 2.2464886814	 0.0167296825	-0.264566
C	-0.0352632685	 3.1097309896	 0.8951546808	-0.031346
N	 0.0129830741	 4.2925078246	-0.0224993633	-0.366594
C	-0.0607872377	 3.0920904131	-0.9163596215	 0.293321
C	-0.0871091768	 3.1578624823	-2.3541830633	 0.1733
N	-0.1249707179	 3.2140284786	-3.5080866507	-0.330037
C	 0.9505244477	 2.2852279755	-0.0111667474	-0.237484
H	-2.114999477	 2.2819060342	 0.0150416619	 0.11892
H	-0.0115226745	 3.1795888276	 1.9797745356	 0.125151
H	-0.885673918	 4.7829008998	-0.0218948453	 0.22915
H	 2.0323721657	 2.3743651321	-0.0422952145	 0.131999
