15
gdb 33594	3.91446	1.57389	1.4205	5.1293	73.26	-0.248	0.0012	0.2492	909.7403	0.11479	-379.585849	-379.579671	-379.578727	-379.616369	25.142	
N	 0.0645928587	-1.0369429691	-0.042692687	-0.35034
C	 0.014778503	 0.1189943149	-0.010774178	 0.159286
C	-0.0395935483	 1.539958667	 0.0194292806	 0.296664
C	 0.1322645242	 2.4451920407	-1.2250259535	-0.122768
C	 1.0633913229	 2.5712890801	-0.0418392688	-0.170332
C	 0.0046006115	 3.5092729519	 0.5793196542	-0.013017
C	-0.7939101714	 3.5983423322	-0.7664919263	-0.081351
C	-1.9613105357	 2.9241704516	-0.023429754	-0.193017
N	-0.9362820177	 2.3317573952	 0.9183700305	-0.189829
H	 0.3194590627	 2.0448334478	-2.2112561124	 0.119693
H	 2.1316917892	 2.4516580968	 0.0682678018	 0.122193
H	 0.1380237073	 4.2954639894	 1.3175942263	 0.096576
H	-0.876361739	 4.4857402402	-1.3919945326	 0.086606
H	-2.5838027169	 3.6313042283	 0.5317726078	 0.119217
H	-2.5873394605	 2.197422673	-0.5478938484	 0.120418
