20
gdb 46980	2.63879	1.74133	1.42347	3.3026	79.12	-0.252	0.0311	0.2832	999.4611	0.175442	-403.185766	-403.178465	-403.177521	-403.21755	29.367	
N	-0.0760002295	 1.2971038398	-0.2160896436	-0.520786
C	-0.0008904106	 0.0581316654	 0.03379111	 0.394448
O	 1.2080648535	-0.5587476781	 0.2195515645	-0.266823
C	 1.2881899797	-1.8073288762	 0.9322906905	-0.077304
C	 0.0242568671	-2.6584770648	 0.8259586934	-0.02192
C	-0.3076173608	-3.011403024	-0.644534811	-0.211361
C	-1.1670324694	-1.8179709205	-1.1545564542	-0.2163
C	-1.2238377869	-0.8289776728	 0.042752625	-0.062812
C	-1.1622748875	-1.7776159653	 1.2540266326	-0.243539
H	 0.8587205716	 1.7120915227	-0.1981521075	 0.214493
H	 2.1553059847	-2.3261043687	 0.5118500297	 0.113432
H	 1.5043302314	-1.582325133	 1.9859266769	 0.104997
H	 0.1615964819	-3.5452162181	 1.4520516215	 0.072025
H	 0.5988917984	-3.1545076592	-1.2394715301	 0.10397
H	-0.8714085254	-3.947225395	-0.6915602347	 0.101214
H	-0.7539573991	-1.3487063835	-2.0502022589	 0.116997
H	-2.1820368278	-2.144124039	-1.3994428939	 0.102427
H	-2.0985044121	-0.1803460426	 0.0155234973	 0.093903
H	-2.0873148487	-2.3577185188	 1.336525495	 0.098943
H	-0.9979482108	-1.2621075882	 2.2055810577	 0.103997
