19
gdb 115177	2.48788	1.41612	1.08284	2.4317	71.75	-0.2435	-0.0213	0.2222	1174.8132	0.157799	-460.185953	-460.17669	-460.175745	-460.220275	33.354	
C	 0.5917775593	 1.2520686651	 0.2148527486	-0.244589
O	 0.578104986	-0.1602463578	 0.0892867015	-0.24087
C	 0.3907583981	-0.6086783562	-1.2217550019	 0.191578
O	 1.4885610905	-0.2704370189	-2.0648024909	-0.262244
C	 2.5311528341	-1.211944137	-1.8457223144	-0.188747
C	 1.8483873763	-2.4665511878	-1.2977420935	 0.369932
O	 2.3861312253	-3.4966952862	-0.9914016552	-0.309266
C	 0.3553926432	-2.1407143261	-1.2075754778	-0.135078
C	-0.3689440632	-2.838680855	-0.0632349691	-0.407172
H	 1.4053901617	 1.6978341986	-0.3681775929	 0.129185
H	-0.3613176821	 1.6878937486	-0.1195349703	 0.110735
H	 0.7342185602	 1.4763926529	 1.2736653949	 0.13118
H	-0.4877319362	-0.1299460566	-1.6742298567	 0.077198
H	 3.0412952552	-1.4139019054	-2.7926180845	 0.137117
H	 3.2733859343	-0.8501465695	-1.1215175514	 0.132622
H	-0.070121559	-2.4498472263	-2.1734271806	 0.114987
H	-0.0249705847	-2.4561232943	 0.8990921545	 0.142611
H	-1.4501695055	-2.6874626015	-0.1272039145	 0.114413
H	-0.1630042235	-3.9114914768	-0.1035129959	 0.136411
