19
gdb 56552	2.56008	1.07577	1.01264	4.2315	77.59	-0.2576	0.01	0.2676	1304.2417	0.156889	-419.254158	-419.243568	-419.242624	-419.290565	36.539	
C	 0.4561013793	 1.3717261153	-0.162320078	-0.396785
C	 0.3693150817	-0.1579502314	-0.0160761162	-0.12179
C	 1.1697467544	-0.8299458457	-1.0540798928	 0.280227
N	 1.8148269157	-1.3380305427	-1.8673242074	-0.329285
N	 0.7558776784	-0.6365848403	 1.3117805335	-0.093085
C	 2.1408751556	-0.4693521526	 1.7286002711	-0.356284
C	-0.2565604288	-1.0903075968	 2.1338155615	 0.418031
C	 0.1369412641	-1.534772035	 3.53223174	-0.506276
O	-1.4149342525	-1.1375168845	 1.7559698747	-0.369781
H	 1.4785583318	 1.7321890081	-0.0230379432	 0.134002
H	 0.1221793838	 1.674080916	-1.1580578403	 0.144881
H	-0.1924341197	 1.8389722694	 0.582742704	 0.140936
H	-0.6728566905	-0.4683102614	-0.1344475844	 0.175504
H	 2.3404832279	 0.5312437678	 2.1336185542	 0.130892
H	 2.4052649061	-1.2065401601	 2.4857608683	 0.145959
H	 2.7984486818	-0.6321020349	 0.8700372631	 0.158773
H	 0.6514187438	-0.743313633	 4.0852060335	 0.140102
H	-0.7783688507	-1.8056724493	 4.0566516693	 0.154855
H	 0.7999556879	-2.4054511389	 3.5021179692	 0.149125
