18
gdb 103699	2.31218	1.37964	0.99899	3.4309	73.07	-0.278	0.0021	0.28	1214.6531	0.144332	-439.081407	-439.071364	-439.07042	-439.116232	36.076	
C	-0.1638342509	 1.6245750065	 0.0615344416	-0.473927
C	-0.1907493566	 0.1141703387	 0.1278323158	 0.301215
C	-1.425924689	-0.5192300439	-0.4975217527	-0.141747
O	-1.4748209494	-0.242300787	-1.8861479893	-0.411323
O	 1.0294111532	-0.562558862	-0.2439037658	-0.30939
C	 0.6154371047	-0.6420163983	 1.1264599056	 0.182979
C	 1.5108003596	 0.0085371432	 2.1620412381	-0.471717
C	 0.1542709946	-1.9639080518	 1.5382274132	 0.266995
N	-0.1901835816	-3.0027624179	 1.9104598236	-0.342787
H	 0.8280193293	 2.0280518306	 0.2648085339	 0.133302
H	-0.4641834328	 1.9312436073	-0.9439271789	 0.154697
H	-0.8765215424	 2.0524659128	 0.7741775696	 0.131894
H	-1.442658506	-1.5975781195	-0.2999063955	 0.123893
H	-2.3299565369	-0.0802208666	-0.0626809586	 0.120379
H	-0.7142308335	-0.6795149956	-2.2861225683	 0.296763
H	 1.8461930178	 0.9895414894	 1.8277711209	 0.14039
H	 0.9764346594	 0.116948309	 3.1104383153	 0.145941
H	 2.3895419303	-0.6185400349	 2.3369217314	 0.152442
