19
gdb 82595	2.17636	2.14321	1.62312	3.087	73.2	-0.2424	0.0555	0.2978	922.0531	0.161621	-422.982991	-422.975788	-422.974844	-423.014134	30.03	
O	 0.1892230235	 1.3812886107	-0.2133295387	-0.447863
C	 0.0123889144	 0.0112884534	 0.0103144323	 0.166605
C	 0.2973417614	-0.6119210002	 1.4083449292	-0.083554
C	-0.4020022814	 0.1421708774	 2.5609805898	-0.237147
C	-1.7475326391	-0.5203812203	 2.1825875191	-0.097222
C	-2.4036934123	 0.1095415531	 0.9284755765	 0.127614
O	-2.4378278239	 1.5240744648	 0.7843326035	-0.437492
C	-1.4097869521	-0.6087099461	-0.002562352	-0.136128
C	-0.9834934278	-1.5064080558	 1.222648257	-0.042905
H	-0.5817539876	 1.8276179588	 0.1616485209	 0.295668
H	 0.6267823245	-0.5165124571	-0.7285913957	 0.081414
H	 1.3037631452	-0.9921629926	 1.5854698508	 0.063239
H	-0.0548290106	-0.2102153636	 3.5357867997	 0.098615
H	-0.3521644161	 1.2356449041	 2.5439709128	 0.092579
H	-2.4150553292	-0.827663862	 2.989189099	 0.060165
H	-3.4095723672	-0.3113440239	 0.7898368679	 0.075298
H	-2.96583715	 1.8974181607	 1.4976938897	 0.289298
H	-1.7961984925	-0.9671025686	-0.9567290928	 0.066262
H	-1.0266603492	-2.5909027828	 1.2541380709	 0.065553
