19
gdb 126726	3.84087	0.95732	0.81914	4.0399	80.38	-0.1969	0.0112	0.2081	1454.6075	0.160131	-415.386868	-415.37756	-415.376615	-415.421833	33.227	
C	 0.3825218719	 1.4544818471	 0.2264630593	-0.377195
C	-0.1981770428	 0.111393608	-0.2190978661	-0.143784
N	 0.5734250954	-0.5127151778	-1.2817540231	 0.083067
C	 1.7887726169	-1.1293872864	-1.20796769	-0.201285
C	 2.0621594633	-1.4737774594	-2.5175824825	 0.358386
N	 3.1689923208	-2.0869271298	-3.0732140067	-0.367287
C	 4.0105112481	-2.9016629003	-2.218617001	-0.324687
N	 1.0219694502	-1.0661557479	-3.297456802	-0.282072
N	 0.1279493373	-0.4821075128	-2.54056518	-0.151725
H	 1.3942979185	 1.337770011	 0.6254844232	 0.126385
H	 0.4227208708	 2.1515639766	-0.6146341718	 0.144715
H	-0.2444709605	 1.8900975801	 1.0101121116	 0.124816
H	-0.2548506023	-0.587243172	 0.6223700849	 0.121591
H	-1.2050342835	 0.2368889486	-0.6222973653	 0.145919
H	 2.3169245142	-1.2631183054	-0.2807522853	 0.129645
H	 2.9543392212	-2.4927864698	-3.972809155	 0.245781
H	 4.796957663	-3.3601757427	-2.8221234819	 0.12873
H	 4.4997474779	-2.272521767	-1.4660832544	 0.128316
H	 3.4635455897	-3.6987453202	-1.6890634639	 0.110684
