15
gdb 71983	2.8748	1.72602	1.25844	0.7691	72.67	-0.2243	0.0103	0.2346	974.2249	0.110282	-420.514611	-420.506793	-420.505849	-420.546907	30.263	
O	-0.0445339439	 1.34467781	-0.027381009	-0.450261
C	 0.0547011242	-0.0204590923	-0.0514665771	 0.290639
C	 0.9659125333	-0.9055425871	-0.9029238403	-0.297227
C	 0.0632303067	-2.0591034729	-0.3897186478	 0.038156
O	 0.3901812071	-2.1553935693	 1.0290022247	-0.330787
C	-0.2997021148	-0.912609423	 1.1836808299	 0.317751
C	-0.6062364818	-0.3636271896	 2.4514478078	 0.145874
C	-0.8418355814	 0.151795737	 3.513568638	-0.38775
C	-1.0826944504	-1.0232217029	-0.1015556017	-0.25713
H	 0.3649387876	 1.6732140249	 0.7820962728	 0.29846
H	 0.8105545405	-0.7108977482	-1.9671133708	 0.115305
H	 2.0311990154	-0.9761870177	-0.6647819994	 0.106638
H	-0.0168185369	-3.0213101235	-0.8871008938	 0.098873
H	-1.0698841288	 0.5839343261	 4.4565924311	 0.192637
H	-2.138221757	-0.9578818514	-0.3239612445	 0.118821
