21
gdb 75653	2.42271	1.7195	1.24525	3.0677	82.14	-0.2294	-0.0033	0.2261	1086.1921	0.182877	-387.113127	-387.104637	-387.103693	-387.145632	33.678	
C	-0.1085196656	 1.5462452548	-0.0147422441	-0.425894
C	 0.0475898442	 0.0271395207	 0.0505965589	-0.125009
C	 0.9852279121	-0.5411605088	-1.0432017028	 0.438664
O	 0.9460793414	-0.3346419889	-2.2271235352	-0.348841
C	 1.9692007794	-1.3721292256	-0.2375020154	-0.131491
C	 2.2801971376	-0.3595494511	 0.9145808099	-0.276029
C	 0.7762241874	-0.5848994031	 1.278641327	 0.332953
C	 0.2282600193	-0.2840992008	 2.6544120885	-0.499428
C	 0.9992867664	-2.0486569724	 0.7833745758	-0.276324
H	 0.8353758382	 2.0639246738	 0.1845516994	 0.118446
H	-0.4404307266	 1.8382455974	-1.0151801449	 0.139458
H	-0.8476526714	 1.9029376928	 0.7088902804	 0.116625
H	-0.9416843452	-0.4356824507	-0.0682285177	 0.090881
H	 2.738419709	-1.9097783176	-0.7873117247	 0.079761
H	 2.9533427741	-0.7926191767	 1.6588854217	 0.104487
H	 2.6192687937	 0.6447071837	 0.6467445142	 0.104505
H	 0.2481569072	 0.7905133127	 2.8660642981	 0.122355
H	-0.8109814054	-0.6204822633	 2.7476690087	 0.117979
H	 0.8137408419	-0.787805177	 3.4309583948	 0.114021
H	 0.1396522379	-2.6025638814	 0.3936012707	 0.099798
H	 1.5409654444	-2.6567089482	 1.5125016266	 0.103083
