21
gdb 60356	2.70646	0.86013	0.68558	2.0014	81.28	-0.253	0.0313	0.2843	1673.6355	0.177855	-424.182159	-424.170902	-424.169958	-424.219673	39.982	
C	 0.306480514	 1.2938682642	-0.3746325311	-0.393683
C	-0.1526249134	-0.0547777679	 0.1864497333	 0.163556
C	 0.0266939978	-1.1892682111	-0.8153290019	-0.389055
O	 0.5851272891	-0.4280477879	 1.3471570125	-0.256229
C	 0.3132809391	 0.3127100669	 2.5090519619	-0.078514
C	 0.8743946244	-0.46580439	 3.7120094959	-0.045909
O	 0.8421847074	 0.3447179415	 4.8823388388	-0.418525
C	 0.1790886472	-1.7385487099	 3.908907723	 0.31195
C	-0.4397839045	-2.7492322656	 4.1104995035	-0.474949
H	 1.369895988	 1.25443958	-0.6323469455	 0.122714
H	-0.2593647162	 1.5434833718	-1.2778380311	 0.114994
H	 0.1570529196	 2.1045882071	 0.3444283357	 0.117335
H	-1.2191339304	 0.0187404143	 0.4604064385	 0.06567
H	 1.0800457978	-1.2837113227	-1.0978056481	 0.122779
H	-0.2963571538	-2.1367414775	-0.3767578562	 0.125176
H	-0.5586318791	-1.0018103123	-1.7203585758	 0.111479
H	 0.7958580941	 1.3007513193	 2.5022101826	 0.101202
H	-0.7709853846	 0.4632207291	 2.6429692971	 0.082113
H	 1.9345505041	-0.6589952283	 3.5115878154	 0.129005
H	-0.0500295997	 0.2981803241	 5.2425660746	 0.287667
H	-0.9665456506	-3.6555672149	 4.2811267768	 0.201224
