19
gdb 111351	2.51198	1.41112	1.07423	1.8654	74.96	-0.2522	0.061	0.3132	1165.3662	0.158364	-422.958386	-422.94987	-422.948926	-422.99167	32.501	
O	 0.0373033336	 1.4820939008	-0.1100704049	-0.423615
C	 0.0585825826	 0.0727247369	 0.077285502	-0.082377
C	-1.340429626	-0.5273054166	 0.0918594096	-0.141952
C	-2.080537049	-0.5787305516	-1.2678249203	 0.004284
O	-1.3068828847	-1.4026964238	-2.1500916523	-0.249451
C	-2.1859711154	-2.0444128272	-1.2099060003	-0.066885
C	-1.4819819961	-2.0774451483	 0.131012654	 0.351661
C	-0.5418701682	-3.1213130503	 0.655545075	-0.323778
C	-1.8882849437	-2.9084993353	 1.3112635857	-0.332712
H	-0.2183356133	 1.6485414803	-1.0227284793	 0.286467
H	 0.660125371	-0.4304963418	-0.6912349799	 0.10836
H	 0.5475691756	-0.0930814949	 1.0436170517	 0.104689
H	-1.9528198624	-0.0437020776	 0.8596869095	 0.084905
H	-2.7393262788	 0.155065877	-1.7178246088	 0.104754
H	-2.9326833409	-2.7205221587	-1.6113428792	 0.1058
H	-0.3904930258	-4.0183159385	 0.0642284837	 0.118653
H	 0.3408024457	-2.7901098231	 1.1926089158	 0.119388
H	-1.9162547326	-2.4320574255	 2.2860355589	 0.116863
H	-2.6540935817	-3.6640020018	 1.165018269	 0.114946
