23
gdb 118693	2.21873	1.08615	0.99134	1.6484	83.46	-0.2423	0.0733	0.3156	1406.779	0.202485	-425.39997	-425.388777	-425.387833	-425.436264	40.163	
C	-0.2155042968	 1.3685271655	 0.104171599	-0.221032
O	-0.2181838167	-0.03584144	 0.1419477598	-0.236015
C	 0.7501304986	-0.5599591395	 1.0324478254	-0.114911
C	 0.6697367127	-2.069514383	 0.9963070118	 0.271029
C	 0.8107114509	-2.6619162988	-0.394247979	-0.458119
C	 1.2454662274	-2.8725997628	 2.1583504008	-0.105338
C	 1.9218320982	-2.2497326876	 3.362400416	-0.426557
C	-0.2559756414	-2.7646173577	 1.9611253529	 0.053707
O	-1.0040625247	-1.9535444407	 2.8223581806	-0.417323
H	 0.7548399594	 1.7693254149	-0.2328849618	 0.097474
H	-0.9889223149	 1.6802202486	-0.6024650983	 0.12324
H	-0.4394325639	 1.805916274	 1.0904356316	 0.103158
H	 1.7589487413	-0.2320570732	 0.7217982127	 0.076017
H	 0.5712075	-0.1773600637	 2.0449986149	 0.098501
H	 1.7994365954	-2.4397604401	-0.8140507687	 0.109001
H	 0.6966542617	-3.7502924443	-0.3750165208	 0.105275
H	 0.0570471071	-2.2465686499	-1.0679833985	 0.137899
H	 1.6803655168	-3.8234927408	 1.8575074108	 0.078169
H	 1.3373392765	-1.4237411252	 3.7735862286	 0.12785
H	 2.0451762341	-2.9938172126	 4.1577309778	 0.111318
H	 2.919157994	-1.8700623334	 3.1154157812	 0.119213
H	-0.7910982362	-3.6408858518	 1.5937750237	 0.079439
H	-1.0996253494	-2.4181935777	 3.6605630096	 0.288003
