18
gdb 127032	6.61298	0.79485	0.71684	2.5742	76.69	-0.1993	0.046	0.2453	1572.5579	0.148313	-435.283124	-435.273767	-435.272822	-435.317588	33.813	
C	-0.042769925	 1.4649550351	 0.0405527848	-0.392361
C	-0.0051260661	-0.0513594051	 0.0006258	-0.030404
O	-1.3577596477	-0.5178757405	 0.0094280167	-0.280228
C	-1.5225713609	-1.8511907175	-0.019267433	 0.479109
N	-0.5123327922	-2.7041677435	-0.0380299495	-0.335268
N	-1.1355101666	-3.9286162005	-0.0300140776	-0.281448
C	-2.487737266	-3.8298296508	-0.0357995824	 0.428649
N	-3.2936715807	-4.9662249838	-0.121792093	-0.605563
C	-2.7921044006	-2.4838525645	-0.0129177344	-0.438495
H	 0.9756540999	 1.8649356473	 0.0351739996	 0.11572
H	-0.5755726304	 1.8636272983	-0.8275846575	 0.125727
H	-0.5480886141	 1.8174892426	 0.9443747592	 0.125258
H	 0.5011657197	-0.4206898265	-0.8994983091	 0.111322
H	 0.5283496478	-0.4672908123	 0.8638146728	 0.111714
H	-0.5882665392	-4.7490649716	-0.2215119104	 0.263953
H	-3.0318664647	-5.6928753516	 0.5339702745	 0.24988
H	-4.2719318743	-4.7428754311	 0.0014913583	 0.256493
H	-3.763453129	-2.021661884	 0.0319032812	 0.095942
