18
gdb 22688	4.80141	0.61303	0.56993	1.0681	92.95	-0.2157	-0.0204	0.1952	1945.1994	0.145206	-401.873903	-401.863886	-401.862942	-401.910952	35.15	
C	-0.376336176	 1.4386855678	 0.0299773335	-0.474927
C	 0.0174141747	-0.019536979	 0.0460420764	 0.200212
N	 0.2943681315	-0.674664324	 1.1216449231	-0.168515
O	 0.1779315433	 0.1498422844	 2.246274203	-0.396247
C	 0.0930885336	-0.7291188863	-1.182991124	-0.031719
C	 0.1395049184	-1.2768617623	-2.2595849141	 0.185875
C	 0.2009595167	-1.9456272222	-3.522440892	-0.169611
C	 1.2469183109	-3.0268397781	-3.7641310205	-0.250612
C	-0.1935126419	-3.4134140337	-3.6295193111	-0.250612
H	 0.4151883261	 2.0463016055	 0.4795833698	 0.148301
H	-0.5629372099	 1.7806427868	-0.9877630181	 0.128639
H	-1.2743337153	 1.5918222858	 0.6366241128	 0.148295
H	 0.4070932874	-0.4528200586	 2.9616070963	 0.309253
H	-0.0450969248	-1.3277519889	-4.3810104574	 0.112772
H	 1.7049994511	-3.0563654439	-4.7462621446	 0.12089
H	 1.9152340998	-3.2529928572	-2.942242141	 0.13356
H	-0.50749842	-3.9032053416	-2.715839244	 0.133557
H	-0.7383250853	-3.7120840046	-4.5179271482	 0.120891
