11
gdb 12172	3.72047	1.58485	1.22439	3.2686	52.32	-0.2898	-0.0303	0.2596	905.4411	0.07106	-434.551671	-434.544364	-434.54342	-434.583788	24.955	
O	-0.0177397549	 1.285311755	 0.2846627336	-0.407969
C	 0.0892036125	-0.0716639171	-0.007939992	-0.080421
C	-1.2834334046	-0.7575469838	-0.2242678549	-0.009561
O	-0.88167887	-1.1630044009	-1.5704955552	-0.238691
C	 0.3137401718	-0.4757018773	-1.483956126	 0.434214
O	 1.123589475	-0.3107624094	-2.3310534768	-0.298927
C	-1.6168762931	-1.8925856575	 0.6246230771	 0.286744
N	-1.8764645393	-2.7773310347	 1.3200551427	-0.30083
H	 0.866879958	 1.6644617856	 0.3306395627	 0.31303
H	 0.7450934382	-0.6211251158	 0.6786882258	 0.138202
H	-2.1054932836	-0.0395130042	-0.265021407	 0.164209
