17
gdb 62207	2.20882	1.00654	0.96913	0.5906	75.3	-0.2513	0.0202	0.2715	1347.7618	0.131372	-421.726946	-421.716586	-421.715642	-421.76419	36.498	
O	 0.6113085323	 1.8382310859	 0.0035003913	-0.41813
C	 0.3116795265	 0.6109609182	-0.6580904353	-0.050892
C	 1.5216545165	 0.2076422396	-1.5343653555	-0.088937
O	 1.327175638	-0.9793695577	-2.2765516018	-0.224044
C	 0.8371801384	-0.8122074426	-3.593852682	-0.225953
C	-0.5864429103	-0.4749193215	-3.690262	 0.310872
C	-1.7536573223	-0.2041922844	-3.7880324785	-0.451422
C	-0.0512712222	-0.4475115685	 0.2827765549	 0.309183
C	-0.3013508336	-1.2963380873	 1.0964211279	-0.467871
H	 1.142729549	 1.6272714924	 0.7790952589	 0.287992
H	-0.5394511671	 0.8258064018	-1.310926757	 0.132227
H	 1.7609258537	 1.0586629984	-2.1867158824	 0.10495
H	 2.3797906541	 0.0287729124	-0.8761002137	 0.105504
H	 1.4266102614	-0.0504038402	-4.1285766709	 0.123944
H	 1.0142431044	-1.7697562713	-4.0956640247	 0.144012
H	-2.7862558736	 0.0311974187	-3.8705492021	 0.206864
H	-0.5424981652	-2.0521942239	 1.8025125307	 0.201702
