23
gdb 119013	3.43381	0.8632	0.84681	2.0943	81.39	-0.261	0.0643	0.3253	1500.718	0.205709	-425.43752	-425.427493	-425.426548	-425.472863	37.551	
O	-0.1048760232	 1.4926980378	-0.1813836233	-0.417522
C	 0.0439231712	 0.0859944095	-0.0583582688	-0.095864
C	-1.3529085024	-0.5243075397	-0.0439532874	-0.220341
C	-1.387732538	-2.0562729527	 0.0416539953	 0.390178
O	-0.7517719396	-2.6418149123	-1.1093118444	-0.482548
C	-0.7761922749	-2.6534907814	 1.3285476525	-0.245357
C	-1.3827622589	-4.0620099795	 1.3918215342	-0.199767
C	-2.8551131104	-3.8293760422	 0.9971196608	-0.20473
C	-2.8332945369	-2.6164333851	 0.0275734333	-0.226312
H	 0.7717042962	 1.8873559967	-0.204375529	 0.28453
H	 0.6207712474	-0.3211390918	-0.9052907726	 0.07596
H	 0.5847775317	-0.1739433551	 0.8659091878	 0.085598
H	-1.9055098031	-0.1011979241	 0.8030056775	 0.099747
H	-1.8710907607	-0.2106071898	-0.9570560838	 0.110736
H	 0.1974561485	-2.5018056333	-1.0312719558	 0.273257
H	 0.3196589217	-2.6473746466	 1.3152327476	 0.080237
H	-1.0939851345	-2.0614568863	 2.1966378347	 0.094848
H	-0.8895894837	-4.6986131642	 0.650741928	 0.106801
H	-1.2707467034	-4.537985786	 2.3698683333	 0.08753
H	-3.3122042272	-4.7157931601	 0.5499941186	 0.097697
H	-3.4435509755	-3.5861402487	 1.888619236	 0.095664
H	-3.5478151447	-1.8483960249	 0.3363990658	 0.094269
H	-3.0797432797	-2.8965783003	-0.9990581904	 0.115392
