18
gdb 53078	4.64304	0.85274	0.7574	1.4533	92.59	-0.2125	-0.0123	0.2002	1532.657	0.14807	-364.778107	-364.769466	-364.768522	-364.813282	31.599	
C	-0.0828453733	 1.461196461	 0.0116515021	-0.507212
C	-0.0102452145	 0.0088295731	 0.0130541296	 0.190591
C	 0.0647442611	-1.1965253751	 0.021595817	-0.134769
C	 0.0938544174	-2.6101234109	 0.0115068874	 0.28701
C	 1.1617108779	-3.4134582909	 0.1735971015	-0.206092
C	 0.8111197988	-4.8807000323	 0.0705789924	-0.248489
C	-0.7025003724	-4.8648505798	-0.1156233406	-0.041069
N	-1.4316799383	-4.2818626356	 1.0307127737	-0.328935
C	-1.1438993536	-3.446138363	-0.166295397	-0.1896
H	 0.4754823947	 1.8886359369	-0.8292944855	 0.148794
H	-1.1189393001	 1.8085490584	-0.0674545958	 0.14844
H	 0.3375367712	 1.8806166349	 0.9329306021	 0.151062
H	 2.1653698089	-3.06302293	 0.3822216349	 0.09559
H	 1.3165596662	-5.3571156571	-0.7805412107	 0.107974
H	 1.1044863549	-5.438390647	 0.9684980103	 0.122213
H	-1.1850350659	-5.6368991184	-0.7049357722	 0.087003
H	-2.4014569191	-4.5909963858	 0.983028178	 0.227197
H	-1.967062484	-3.0907129186	-0.7757810672	 0.090292
