19
gdb 22101	3.71316	0.76744	0.72399	4.	79.86	-0.2575	-0.0054	0.2521	1581.5009	0.156586	-419.193148	-419.182617	-419.181673	-419.229634	36.935	
C	 0.0278220506	 1.6124823078	-0.0886606588	-0.385684
C	-0.0159505726	 0.0732706043	-0.0562482707	-0.146588
C	-1.4672276789	-0.4807592316	 0.0292321154	-0.276123
C	-2.1384188891	-0.1521513923	 1.337009641	 0.348353
C	-1.660572658	-0.7921355063	 2.6136341044	-0.475443
N	-3.1150483224	 0.6720393373	 1.2746376751	-0.158214
O	-3.6716978623	 0.909975317	 2.5386473183	-0.395964
C	 0.6592089264	-0.4869836772	-1.2311296121	 0.26785
N	 1.1818193431	-0.9284064957	-2.1628628535	-0.321494
H	 1.058933494	 1.9732488395	-0.1019497416	 0.135784
H	-0.4819352331	 1.992925263	-0.9780276698	 0.141525
H	-0.4769601532	 2.0168128802	 0.7916007425	 0.137599
H	 0.5422368672	-0.2768739949	 0.8216334217	 0.129581
H	-2.0593045398	-0.0677092703	-0.79113417	 0.134376
H	-1.4337190128	-1.5693752376	-0.0955820642	 0.127201
H	-1.2246612871	-0.0450028838	 3.28596767	 0.149233
H	-2.5058375736	-1.2324903316	 3.1504731296	 0.155867
H	-0.9159788838	-1.5674187526	 2.4208904604	 0.122572
H	-4.4005051345	 1.5047274148	 2.3317911522	 0.30957
