17
gdb 65747	3.07586	1.04385	0.98923	2.1914	70.08	-0.2512	-0.0445	0.2067	1245.6201	0.131819	-458.969476	-458.959976	-458.959032	-459.005044	32.912	
C	-0.2271374262	 1.5975321263	 0.257921959	-0.431388
C	 0.006506614	 0.1047091753	 0.0678873663	 0.249911
C	-1.2879844182	-0.693715219	-0.1621639477	-0.306054
C	-1.9634559535	-0.3015956676	-1.4633218867	 0.151743
O	-3.0841611325	 0.1318604413	-1.5402751885	-0.236583
O	 0.98909096	-0.1741099387	-0.9775792543	-0.325234
C	 1.9312473699	-0.7951973603	-0.0813963893	-0.195517
C	 0.9687483037	-0.5450576641	 1.0846755242	 0.313235
O	 0.9535956104	-0.7538510033	 2.2576625663	-0.276468
H	 0.7214412625	 2.122935326	 0.3941854316	 0.130181
H	-0.7350199236	 2.0225913652	-0.6129295159	 0.145578
H	-0.8526863469	 1.769582217	 1.1388095282	 0.143787
H	-1.0390140576	-1.7613941102	-0.2203481657	 0.122092
H	-1.9839386539	-0.5385882116	 0.666291858	 0.136173
H	-1.3329642297	-0.4439800929	-2.3665307685	 0.101904
H	 2.1229545665	-1.8497980191	-0.3157901234	 0.137348
H	 2.8867732451	-0.2593387045	-0.0229590436	 0.139292
