19
gdb 110618	3.00165	1.40575	1.23904	2.3853	75.3	-0.2322	0.087	0.3192	1090.0436	0.158869	-422.962726	-422.954452	-422.953507	-422.99554	32.135	
C	 0.1966436922	 0.93497136	-0.3339788346	-0.238951
O	-0.099668289	-0.1186312678	 0.5633462004	-0.24935
C	-1.3368133033	-0.7197837706	 0.3161777189	 0.107729
C	-1.5449100461	-1.7570855153	-0.7632384991	-0.118201
C	-0.3023920512	-2.5775451713	-0.9817877156	-0.14743
C	-0.4693663356	-4.0053283998	-0.4886555529	-0.325705
C	-0.2756034395	-2.9228236261	 0.5203554216	 0.439978
O	 0.7970403824	-2.9437608373	 1.3856710181	-0.470361
C	-1.5389017195	-2.1279333148	 0.753142974	-0.220322
H	 1.174722119	 1.3326471903	-0.0542102945	 0.128722
H	 0.2318319054	 0.5817734157	-1.3736506359	 0.116404
H	-0.5482170128	 1.7415843538	-0.265149305	 0.109982
H	-2.1861033239	-0.0497295224	 0.4684090729	 0.088732
H	-2.4166868575	-1.7308703166	-1.4089557561	 0.086678
H	 0.5415226882	-2.2935912161	-1.5985720083	 0.0888
H	-1.4196348024	-4.5237031934	-0.5890700395	 0.103537
H	 0.4058089444	-4.6322594157	-0.6317490302	 0.11858
H	 1.0345399378	-2.0184911111	 1.5322885037	 0.290974
H	-2.3723400686	-2.4298676217	 1.3779778222	 0.090204
