23
gdb 42042	2.74558	1.472	1.07117	1.1095	85.38	-0.2364	0.0799	0.3163	1201.0489	0.208878	-388.294178	-388.286107	-388.285163	-388.326631	32.665	
C	 0.0644599437	 1.3564767617	-0.5104826438	-0.24947
C	 1.2503674527	 1.7245748707	 0.4243123393	-0.249186
C	 1.4807977832	 0.2229339637	 0.684784789	 0.145805
O	 1.7018048825	-0.0794309014	 2.0388467152	-0.252516
C	 1.6313237137	-1.462862121	 2.3544474187	-0.07306
C	 0.2272290428	-1.8793282317	 2.7985453726	-0.181119
C	-0.857889623	-1.8071489064	 1.7139802093	-0.19833
C	-1.0235710247	-0.4265083893	 1.0540392566	-0.194436
C	 0.083224394	-0.0970686729	 0.0532712711	-0.015285
H	-0.8637023708	 1.9150508046	-0.3637922337	 0.097247
H	 0.3274253024	 1.4025218269	-1.5701574043	 0.098641
H	 2.0800474794	 2.291444467	-0.0030112825	 0.09694
H	 0.9225090426	 2.2183769447	 1.342185278	 0.112801
H	 2.294284106	-0.1911655406	 0.0683572352	 0.058372
H	 1.9703907542	-2.0711490231	 1.5006822903	 0.084176
H	 2.3385146724	-1.6309058555	 3.1750584365	 0.100093
H	 0.2796987083	-2.9032262057	 3.1920845375	 0.088099
H	-0.056103255	-1.2345522489	 3.6402230128	 0.103224
H	-0.6466689245	-2.5514412422	 0.9328644125	 0.089508
H	-1.8119751652	-2.1062148227	 2.1644134671	 0.090996
H	-1.9828373215	-0.3947929728	 0.5217278953	 0.089723
H	-1.0750618938	 0.348450364	 1.8295436155	 0.098452
H	 0.1114089208	-0.8797842191	-0.7127062183	 0.059323
