23
gdb 100069	4.09735	0.70092	0.68973	1.1558	91.18	-0.2401	0.0496	0.2898	1798.98	0.201409	-388.279576	-388.267666	-388.266722	-388.317671	42.207	
C	 0.1925094297	 1.514621095	-0.1419593916	-0.396177
C	-0.00391142	 0.0050060336	 0.0191317285	-0.187698
C	-1.4802588698	-0.4502115987	 0.0642995758	 0.35602
C	-2.2468896833	 0.179480549	 1.2281624729	-0.400113
O	-2.1635133052	-0.0220954123	-1.1147392147	-0.45329
C	-1.5095964835	-2.0032761328	 0.1629867292	-0.412249
C	-2.8442238934	-2.588888622	 0.1367525527	 0.049274
C	-3.9469830126	-3.072218548	 0.1187490238	 0.106664
C	-5.2816440165	-3.6540235125	 0.0936814469	-0.499258
H	 1.2477375685	 1.7519061599	-0.3076473712	 0.107712
H	-0.3828008518	 1.8846919645	-0.9947914827	 0.128416
H	-0.1327886078	 2.0634691197	 0.7466645585	 0.117933
H	 0.47991328	-0.5120587875	-0.8221491507	 0.079887
H	 0.5068464262	-0.3482177207	 0.923943197	 0.092814
H	-2.317240378	 1.2613677672	 1.0971170516	 0.123557
H	-3.2594443626	-0.2275124956	 1.2695379832	 0.133945
H	-1.7468029688	-0.0262846698	 2.179624121	 0.106389
H	-1.7847766038	-0.4898220255	-1.867137913	 0.275201
H	-0.9126435845	-2.4101391326	-0.6667119033	 0.10892
H	-0.9862408999	-2.3060572877	 1.0795441692	 0.123755
H	-5.2952408017	-4.5983841352	-0.4620373534	 0.144675
H	-5.6475009229	-3.8614972748	 1.1055424305	 0.14477
H	-5.9997304982	-2.9791785933	-0.38539768	 0.148852
