21
gdb 110838	3.18015	1.26005	1.133	1.3312	79.02	-0.226	0.0763	0.3023	1197.2792	0.179855	-424.177148	-424.16762	-424.166676	-424.211192	35.829	
C	 0.4461580361	 0.9881441382	 0.4035542593	-0.237625
O	-0.3502651889	 0.1558792393	-0.4220400765	-0.235923
C	 0.4000445256	-0.5531495152	-1.3499647949	 0.101442
C	 1.3265738789	-1.673359767	-0.9894401302	 0.026316
O	 0.8764853912	-2.3886777603	 0.1532000384	-0.327599
C	-0.3195521615	-2.8481848871	-0.575359427	 0.412196
C	-0.1407077483	-4.3233840709	-0.9184090253	-0.417581
C	-1.6035079224	-2.5952664862	 0.1982417649	-0.442401
C	 0.0412986337	-1.94893065	-1.7727606092	-0.243766
H	 1.161012936	 0.3977245331	 0.9905748047	 0.127409
H	 0.9998933336	 1.7321488442	-0.1885752831	 0.10339
H	-0.2339152095	 1.5109860831	 1.0797464379	 0.126705
H	 0.7735468605	 0.0534659124	-2.1807564874	 0.087996
H	 2.3781042121	-1.736829893	-1.2500970844	 0.096801
H	-0.1325866123	-4.9223203192	-0.0027668525	 0.12268
H	-0.963951126	-4.6734054588	-1.5511713707	 0.112089
H	 0.7999206034	-4.489574141	-1.4503415954	 0.117978
H	-1.6994170999	-1.5422232519	 0.4563564038	 0.148709
H	-2.4680293179	-2.8934049915	-0.4047398393	 0.111647
H	-1.6109887426	-3.1952383009	 1.1147943773	 0.114709
H	-0.1206504117	-2.2236118175	-2.8076869604	 0.094828
