25
gdb 101694	2.48925	0.94251	0.85549	1.6791	89.09	-0.2587	0.0817	0.3404	1559.6306	0.226337	-389.487008	-389.475946	-389.475002	-389.523666	40.783	
C	 0.2539331953	-0.2874127723	 2.0099152718	-0.389494
C	 0.2974389512	-1.3608928745	 0.9172480916	-0.164971
C	 0.7773219323	-0.8552439073	-0.4582086036	 0.033794
C	 2.2418978633	-0.392835846	-0.4258400464	-0.398526
C	 0.600924033	-1.9262909047	-1.5553912448	-0.263368
C	-0.8275446977	-2.3414758637	-1.8717191008	 0.421111
C	-1.7925510576	-1.2522061098	-2.2911780046	-0.460933
C	-1.0759845701	-3.7203062236	-2.3234552804	-0.231193
O	-1.3966838494	-3.3266164704	-0.988090484	-0.272048
H	 1.2453917922	 0.1176492285	 2.2348495321	 0.114426
H	-0.3871289815	 0.5516839585	 1.7150941543	 0.10911
H	-0.1493324098	-0.6978019567	 2.9410742745	 0.11226
H	 0.9518977383	-2.1843263719	 1.2359031001	 0.089777
H	-0.6981675938	-1.8017385174	 0.810311148	 0.122274
H	 0.1639699319	 0.0162219208	-0.7295068568	 0.068811
H	 2.5605991496	-0.0201173073	-1.4052225341	 0.106857
H	 2.3999024104	 0.4109496715	 0.2982951783	 0.114251
H	 2.9068837358	-1.2216553174	-0.1539041899	 0.111405
H	 1.0535064988	-1.5549735268	-2.4852372905	 0.092343
H	 1.1632148475	-2.8243781717	-1.2713039014	 0.097106
H	-1.4148473528	-0.7139001939	-3.1674001146	 0.118791
H	-2.7675030536	-1.6792259481	-2.5380637644	 0.124416
H	-1.9385995288	-0.5231189294	-1.4883359345	 0.130242
H	-1.9303220081	-3.9330620558	-2.9657116578	 0.106273
H	-0.2446850665	-4.4185726908	-2.4189102221	 0.107285
