15
gdb 2021	7.33597	1.77593	1.64799	2.7568	61.69	-0.2414	-0.0207	0.2208	769.4955	0.124057	-308.511094	-308.504529	-308.503585	-308.542113	24.802	
O	-0.0087096652	 0.1427590719	-0.6120984863	-0.286497
C	-0.0160342733	 1.2277018453	-0.1098039491	 0.411642
C	-1.1357911793	 2.1808236497	 0.3537035656	-0.420991
C	-0.0291091541	 3.1627694865	 0.7858585634	 0.366228
C	-0.0507858916	 4.654801517	 0.6427669473	-0.317193
C	-0.023209703	 4.0193839094	 2.0160125881	-0.317198
C	 1.0906455988	 2.2102601903	 0.3226003428	-0.420983
H	-1.7912618516	 2.5157603172	-0.4574186448	 0.130279
H	-1.7588486112	 1.7695480634	 1.1552004759	 0.130275
H	 0.8494829377	 5.1482123609	 0.2902738807	 0.115971
H	-0.9732501393	 5.124188564	 0.3157729709	 0.115971
H	-0.9270726921	 4.0600008146	 2.6156559834	 0.115971
H	 0.8956603064	 4.084015689	 2.5901987756	 0.115972
H	 1.7465132242	 1.815902059	 1.1062223547	 0.130274
H	 1.7141077336	 2.5621094117	-0.5064003984	 0.130279
