20
gdb 83848	2.09234	1.7619	1.27553	3.3692	79.63	-0.2315	-0.0219	0.2096	1081.2791	0.172283	-403.148116	-403.139826	-403.138881	-403.180971	32.062	
C	-0.308729941	 1.4298416164	 0.2876783185	-0.326702
N	 0.0291891991	 0.0435906688	 0.0133346785	-0.086653
C	 0.4978752883	-0.4260213371	-1.2757047959	-0.036736
C	 0.8085707237	 0.5169691959	-2.437798238	-0.232715
C	 2.2815143659	 0.9524005541	-2.4926450429	-0.208255
C	 2.7728043606	 1.483341801	-1.1368509138	-0.313753
C	 2.618812814	 0.4417550576	-0.0349186057	 0.394011
O	 3.4695705275	 0.2788209535	 0.8130356941	-0.323888
C	 1.4081729323	-0.450635635	-0.0662262718	-0.126963
H	 0.2323411388	 2.1895340739	-0.2924477676	 0.105553
H	-1.3777487167	 1.5632701302	 0.0913961936	 0.130062
H	-0.1345225531	 1.6260536623	 1.3495121659	 0.138568
H	 0.0520533863	-1.3768301683	-1.5631920487	 0.09969
H	 0.5420745747	 0.0126904776	-3.3715600196	 0.108667
H	 0.164628573	 1.4030831376	-2.3807265411	 0.11052
H	 2.900636337	 0.094689269	-2.7834379799	 0.111084
H	 2.4215661847	 1.7147889777	-3.2667592442	 0.103065
H	 3.8280087032	 1.7677975552	-1.1640974177	 0.124224
H	 2.2089674361	 2.3841595956	-0.8602807091	 0.124399
H	 1.5748368056	-1.3737488861	 0.4843245353	 0.105826
