17
gdb 92852	3.07687	1.5615	1.09374	2.0146	78.2	-0.2103	-0.0174	0.1929	1078.9311	0.138462	-418.022282	-418.014603	-418.013659	-418.054562	29.478	
O	-0.0128817208	 1.4301226604	-0.116368026	-0.430441
C	 0.0107907753	 0.0142372912	-0.003670602	-0.062293
C	 0.5369142139	-0.5289254954	 1.387688669	-0.194017
N	-0.4841284826	-1.4096809598	 1.9879331668	-0.358332
C	-1.4873003757	-1.370584426	 1.1914753266	 0.380883
N	-2.7263681928	-1.9569730682	 1.1944493083	-0.393269
C	-3.53764974	-1.3927949673	 0.112418041	-0.202649
C	-2.5489383786	-0.5238021555	-0.6476989929	-0.288258
C	-1.3814983436	-0.5394563228	-0.005424786	 0.368291
H	 0.8987486566	 1.7388462849	-0.0959554186	 0.285547
H	 0.6010314529	-0.4210712043	-0.8247603801	 0.08372
H	 1.4825752431	-1.0736978679	 1.2777560143	 0.096395
H	 0.7296747112	 0.3292814389	 2.0455811389	 0.102786
H	-3.1459575392	-2.3055180624	 2.0398192945	 0.251756
H	-3.9684126258	-2.1800509443	-0.5232257227	 0.121672
H	-4.379874337	-0.7960188297	 0.4960497961	 0.121291
H	-2.8213345067	 0.0057502281	-1.5509007872	 0.116918
