19
gdb 31724	6.00334	0.83637	0.74976	1.9657	81.84	-0.1646	0.0549	0.2194	1540.4866	0.159576	-419.215824	-419.206289	-419.205345	-419.250485	34.696	
C	-0.1459778815	 1.4264329114	 0.2229366157	-0.327777
N	-0.0491997524	 0.0516965432	-0.255705359	-0.387252
C	-1.1541297436	-0.7719511308	-0.1487281716	 0.467435
C	-1.2859128731	-2.1244542895	-0.0138074433	-0.440295
C	-2.7025907111	-2.3852603662	-0.066454021	 0.308958
N	-3.2852394762	-3.6495705339	-0.0256861418	-0.384285
C	-4.7226716271	-3.7107796579	 0.1638646769	-0.323147
C	-3.3167202499	-1.1772883491	-0.2089695755	-0.136328
O	-2.3554300384	-0.1749618864	-0.2699839108	-0.195398
H	 0.7954562054	 1.9370568525	 0.0073934933	 0.122113
H	-0.9445611138	 1.941403688	-0.314079451	 0.152009
H	-0.3536020032	 1.5052170636	 1.3009384738	 0.113419
H	 0.7943330343	-0.4192425245	 0.0366667082	 0.241109
H	-0.4931194256	-2.8482425485	 0.0911736663	 0.085456
H	-2.7795323274	-4.2887904668	 0.5710602138	 0.230609
H	-5.0371305847	-4.7552255185	 0.2275239844	 0.11865
H	-5.0709746154	-3.1788207726	 1.0648170538	 0.107042
H	-5.2229245593	-3.2622615127	-0.7018679025	 0.131891
H	-4.336193587	-0.8477041812	-0.2823004	 0.11579
