17
gdb 79126	4.84581	1.2137	1.10536	3.2459	72.72	-0.234	-0.0083	0.2257	1081.0035	0.137319	-421.804664	-421.797659	-421.796715	-421.835931	28.24	
O	-0.0401234989	 1.4492378508	-0.0784595772	-0.438997
C	 0.0232664327	 0.0486642094	 0.0032176549	 0.134745
C	 0.0056436756	-0.6310665657	 1.3985276912	-0.117893
C	-1.4897054549	-0.1875321122	 1.5708988067	-0.013621
C	-2.2379493602	-1.2616089172	 2.3500488757	-0.370114
C	-1.5878132452	-2.5004399133	 1.7105999479	 0.419177
O	-1.7899095295	-3.6628868727	 1.945824332	-0.330126
C	-0.6254469419	-1.8980183425	 0.7150980828	-0.140356
C	-1.3422693951	-0.6512845081	 0.0778914055	-0.086878
H	 0.855674208	 1.7978350433	-0.0420612266	 0.287287
H	 0.7370163253	-0.3680015706	-0.7194715264	 0.070055
H	 0.7842719262	-0.6421829068	 2.1640028779	 0.078144
H	-1.6974694708	 0.8610290183	 1.7650506558	 0.092719
H	-2.0594239446	-1.2368249919	 3.4301920513	 0.124818
H	-3.321215504	-1.257157676	 2.1895028156	 0.125922
H	-0.021620113	-2.5697631837	 0.1071099112	 0.080977
H	-2.1219375598	-0.6814481411	-0.6847944085	 0.084141
