16
gdb 33778	3.70144	1.4401	1.23185	4.9588	73.47	-0.2615	-0.0286	0.233	1008.3464	0.125893	-400.743589	-400.73659	-400.735646	-400.774792	27.953	
N	 0.0371190799	-1.1600032311	-0.0364759345	-0.331884
C	 0.0111068041	-0.00553963	-0.0065022923	 0.19901
C	-0.0084493872	 1.4493574421	 0.0686789922	 0.254796
C	-0.8599650492	 2.1437856475	 1.1704276575	-0.274756
C	-1.1044272301	 3.1445038867	 0.0209656378	 0.07721
C	 0.031989118	 4.1679604972	-0.1128861043	-0.265741
C	 1.357496208	 3.4354897267	-0.0855487291	-0.076775
C	 1.36361995	 2.1069343498	 0.0065405219	-0.08324
O	-0.865370534	 2.0682117876	-0.9408505883	-0.315109
H	-1.7593066753	 1.5745839497	 1.405646284	 0.132772
H	-0.3437816628	 2.4708013693	 2.0730616005	 0.118053
H	-2.0985735129	 3.5801824804	-0.0939134869	 0.092536
H	-0.0763881346	 4.7252743319	-1.0519706179	 0.128621
H	-0.021873381	 4.9082242923	 0.6965660833	 0.116696
H	 2.2769877774	 4.0086911099	-0.1507775387	 0.109415
H	 2.2604129799	 1.50063209	 0.0388868251	 0.118397
