16
gdb 73050	3.40359	1.02873	0.90927	4.5606	69.3	-0.2529	0.0336	0.2864	1263.335	0.123281	-437.841794	-437.833413	-437.832469	-437.87536	30.805	
O	-0.1201988726	 1.4570475788	 0.0880925101	-0.445173
C	-0.0212320792	 0.0851205221	 0.0337029516	 0.279807
C	-0.9220725489	-0.8134274483	-0.8128165485	-0.152457
O	-0.9574324657	-1.8107738339	 0.2469109724	-0.278761
C	-0.2273443872	-0.94566092	 1.1196707196	 0.038485
C	 1.1591786207	-0.6986921048	 0.5779298322	-0.120385
C	 1.9296501209	-1.7559629714	-0.2018596022	-0.372607
C	 2.8766754223	-2.47819934	 0.6468101987	 0.261545
N	 3.6283913303	-3.0307607375	 1.3285335477	-0.305021
H	 0.5936550826	 1.8429678519	-0.4314565352	 0.2947
H	-1.9140512197	-0.374511407	-0.9615460504	 0.127928
H	-0.5402853029	-1.2146652619	-1.7588372529	 0.106862
H	-0.5182015507	-0.8985300365	 2.1616256654	 0.125663
H	 1.7564313003	-0.0846018402	 1.2477254003	 0.119831
H	 1.2212321545	-2.4774817149	-0.6226711288	 0.17252
H	 2.4847340354	-1.3121017362	-1.0366554801	 0.147062
