19
gdb 30643	2.68428	1.32188	0.92491	4.7424	77.49	-0.2088	0.0412	0.2501	1255.0825	0.16102	-419.247563	-419.23877	-419.237826	-419.28122	32.849	
C	-0.7960208884	 1.8348940375	-0.7608461556	-0.40491
C	-0.1866283359	 0.5407735635	-0.2064264688	-0.111429
C	-1.2798017231	-0.3426089773	 0.4097162985	-0.079783
O	-0.6537373927	-1.4142629018	 1.1196425145	-0.427744
C	 0.6025683392	-0.1869587784	-1.2567790499	 0.321771
C	 1.0131527542	 0.143375375	-2.5266685821	-0.186587
N	 1.7488658952	-0.8746521199	-3.0908285485	-0.264883
C	 1.7858290925	-1.8159780374	-2.175161056	 0.004612
N	 1.117440007	-1.4511215078	-1.0473554491	-0.296241
H	-0.01704353	 2.490450453	-1.1579157915	 0.132598
H	-1.5017381575	 1.6241455923	-1.5709753974	 0.126144
H	-1.3274083719	 2.380486448	 0.0245242291	 0.112965
H	 0.4844196263	 0.8062959576	 0.6243976723	 0.099059
H	-1.8894444235	 0.2615747223	 1.0973823619	 0.093228
H	-1.9373832944	-0.7273130649	-0.3837076883	 0.100271
H	-1.3393772162	-2.0088952291	 1.4373813996	 0.293636
H	 0.8234040151	 1.0575514702	-3.0680461963	 0.098865
H	 2.2769755025	-2.773148384	-2.2706630701	 0.121692
H	 0.9252714316	-1.9912432389	-0.2175557126	 0.266736
