19
gdb 87240	4.8099	0.71307	0.69137	2.8712	78.2	-0.2399	0.0584	0.2983	1640.9813	0.155809	-422.970435	-422.960456	-422.959512	-423.005506	37.231	
O	-0.0904569932	 1.3710359087	 0.0547322433	-0.430909
C	-0.02764442	-0.0311161646	 0.0731439848	-0.006998
C	-0.6174691854	-0.7824757247	 1.2506062714	-0.388919
C	-1.3655480503	-0.7007295253	-0.0724350114	 0.446611
O	-2.4716026954	 0.1514450607	-0.133202042	-0.484194
C	-1.5363618137	-1.9270364613	-0.935034642	-0.240438
C	-2.7501284927	-2.7742124037	-0.4945789163	-0.357332
C	-2.9402018605	-3.9595319948	-1.3203164623	 0.296107
C	-3.071625002	-4.931223523	-2.015984885	-0.441357
H	 0.388259235	 1.7121923886	 0.8168866211	 0.297162
H	 0.838515388	-0.4516413125	-0.4354796036	 0.09687
H	-0.1482339188	-1.7146130029	 1.5483688179	 0.115446
H	-1.0210809312	-0.1858850126	 2.0622670667	 0.114975
H	-2.1169729636	 1.0520297625	-0.127648487	 0.290808
H	-1.6730720532	-1.6178461168	-1.976969806	 0.117338
H	-0.628575448	-2.5379441281	-0.8924170757	 0.104167
H	-2.6238582802	-3.0713801108	 0.5544726977	 0.127795
H	-3.6469321737	-2.1456571207	-0.529151562	 0.152669
H	-3.2024464211	-5.7911970686	-2.6243629895	 0.190199
