18
gdb 109318	2.5802	1.24589	0.85354	1.5233	79.83	-0.2296	-0.0168	0.2128	1335.2843	0.146682	-439.100623	-439.091154	-439.09021	-439.136607	32.892	
C	 0.0245604683	 1.3849961864	-0.0196772966	-0.334634
N	 0.0631069578	-0.0670967137	-0.0184121141	-0.34315
C	 0.5812229512	-0.6804240037	 0.957895877	 0.386987
O	 1.1410910273	-0.1004651572	 2.074382157	-0.262513
C	 1.6096846552	-1.1276151549	 2.9539241622	-0.138178
C	 1.2843575165	-2.4148781752	 2.2568024049	-0.208111
C	 0.687122824	-2.141033216	 1.0960874911	 0.228469
C	 0.1742874232	-3.0689074271	 0.0497108162	-0.185973
O	 0.4137955526	-4.4034446644	 0.4605533821	-0.422146
H	 0.6669024535	 1.7643987635	-0.8242247393	 0.123033
H	-0.9946514484	 1.7151915307	-0.2503742723	 0.121373
H	 0.3408286353	 1.8462978367	 0.9225483578	 0.124089
H	 2.6864420728	-0.9885474199	 3.1217835854	 0.126237
H	 1.1055333258	-1.0246436239	 3.9246707221	 0.126115
H	 1.5077875045	-3.3940190277	 2.6547432796	 0.13235
H	-0.8976987602	-2.8689503303	-0.1062650928	 0.116771
H	 0.6696207358	-2.8339485882	-0.9057761772	 0.116564
H	 0.0778848448	-4.9891177151	-0.223415803	 0.292719
