18
gdb 32852	6.22333	0.80543	0.72401	1.1491	77.25	-0.1761	0.0459	0.222	1567.1255	0.148666	-435.299572	-435.290365	-435.289421	-435.334076	33.609	
C	-0.1263504017	 1.4443610067	 0.0281105328	-0.394894
C	 0.2259723001	-0.0360828533	-0.0672921615	-0.12181
N	 0.6978511766	-0.5305779916	 1.2217972733	-0.400111
C	 0.885582734	-1.863422212	 1.447061538	 0.519058
N	 1.6293536216	-2.4003797278	 2.3732621725	-0.413286
C	 1.4121318599	-3.7651629063	 2.2205420537	 0.270974
N	 2.1119390851	-4.6573340317	 3.0263455769	-0.599407
C	 0.5458596645	-3.9847456584	 1.2010170604	-0.148178
O	 0.2015537465	-2.7287088337	 0.6834894682	-0.195586
H	 0.7496878641	 2.0441802268	 0.3006767921	 0.118011
H	-0.4904999706	 1.8111014383	-0.9354838014	 0.124776
H	-0.9009737468	 1.6126483787	 0.7815796991	 0.132106
H	-0.6570774284	-0.6187115685	-0.3421079593	 0.134836
H	 0.9723349774	-0.1970929982	-0.8609352094	 0.104699
H	 1.3943886115	 0.034206178	 1.6857564874	 0.252333
H	 2.3667619605	-4.2324213018	 3.9080122359	 0.251207
H	 1.6367193079	-5.5367682202	 3.1732185653	 0.244275
H	 0.1131579979	-4.8382116249	 0.7141355159	 0.120998
