15
gdb 1957	7.74872	1.5955	1.45819	2.1092	57.62	-0.2428	-0.0304	0.2124	839.2452	0.123321	-345.646965	-345.639631	-345.638687	-345.679153	25.381	
C	-0.5241220188	 1.4021722785	-0.1305504006	-0.397726
C	 0.1316947471	 0.039532883	-0.1884543473	 0.170218
C	 1.294025054	-0.1722446827	-1.1871825779	-0.309565
C	 2.1202848604	-0.502487901	 0.0663091971	 0.059261
O	 1.0205481156	-0.1920409405	 0.9463588589	-0.314031
C	 2.5447343954	-1.9493246604	 0.2380480754	 0.131655
O	 2.8753935888	-2.6736688951	-0.6645071357	-0.235958
H	 0.2290357934	 2.1956895554	-0.1000957253	 0.120954
H	-1.1587048402	 1.5557481348	-1.0103101034	 0.120578
H	-1.1509447787	 1.4880079104	 0.762385895	 0.130925
H	-0.6299939303	-0.7503270178	-0.2313017231	 0.084625
H	 1.1959491966	-0.9943031976	-1.8965658238	 0.131549
H	 1.6035198946	 0.7328315197	-1.7120510476	 0.112819
H	 2.9940066328	 0.1377400912	 0.2623544927	 0.10327
H	 2.5118943593	-2.2943239077	 1.2961665158	 0.091427
