13
gdb 4527	3.63367	1.8868	1.24995	1.1939	57.43	-0.1748	0.0419	0.2166	896.7147	0.096647	-431.942626	-431.935072	-431.934127	-431.973963	28.245	
N	 0.0576710741	 1.3124364039	-0.1288348113	-0.587009
C	-0.0386123258	-0.0573772021	-0.059079441	 0.457623
N	-1.123482181	-0.7715669192	-0.0664658161	-0.38148
C	-0.6576859165	-2.0857488178	-0.0797719494	 0.181928
N	-1.5518918886	-3.1532204685	-0.1516554293	-0.606276
C	 0.6938585036	-2.0869077492	-0.0726006672	 0.232549
O	 1.635290522	-3.0448602201	 0.0364205026	-0.423141
O	 1.1142703949	-0.7465594599	-0.0545668513	-0.20751
H	 0.8623245402	 1.6989205329	 0.3437991868	 0.262188
H	-0.8069068234	 1.7711022389	 0.1192689234	 0.267481
H	-2.4372444924	-2.9125149894	 0.2757374623	 0.250676
H	-1.1797829671	-3.9998808961	 0.2589555865	 0.247572
H	 2.03606885	-3.2138479033	-0.826573936	 0.305399
