21
gdb 97647	2.70465	0.72394	0.61646	1.9938	85.78	-0.2443	0.0403	0.2845	1905.8344	0.179344	-424.183115	-424.171758	-424.170814	-424.222657	38.71	
C	 0.1242188446	 1.5510951566	 0.2226450587	-0.365256
C	-0.1864259785	 0.076836046	-0.093584468	-0.316563
C	 0.5308910849	-0.4263208016	-1.2598256048	 0.125119
C	 1.1232959583	-0.822328654	-2.2302095869	 0.064675
C	 1.8695117054	-1.3230338134	-3.3805302656	-0.12544
C	 2.1378954533	-2.8387180003	-3.2903511552	-0.048084
O	 0.9392327574	-3.5718597642	-3.3671480858	-0.417884
O	 1.1022933966	-1.065002135	-4.5662264208	-0.249976
C	 1.8837691818	-0.8766398055	-5.7295635239	-0.237477
H	 1.189935126	 1.6894631257	 0.4243978255	 0.126477
H	-0.1455148079	 2.1938497864	-0.619631928	 0.129536
H	-0.4384167894	 1.8792966199	 1.101689853	 0.114558
H	 0.0572108618	-0.5462491074	 0.7765093177	 0.131293
H	-1.2648665626	-0.0455752827	-0.2563338563	 0.133795
H	 2.8342547287	-0.7946236575	-3.4474967966	 0.090953
H	 2.838196893	-3.1192406824	-4.0953533908	 0.081568
H	 2.617683751	-3.0737102263	-2.3353446022	 0.114039
H	 0.4096380996	-3.1347144004	-4.0465220088	 0.288432
H	 2.5592797856	-0.0152257925	-5.6221659067	 0.114139
H	 2.4859255908	-1.7598998619	-5.9858204013	 0.112547
H	 1.1884365698	-0.6799681397	-6.5489846333	 0.133551
