21
gdb 110388	5.33513	0.90873	0.89767	1.6474	82.81	-0.2511	0.0708	0.3219	1390.6476	0.182411	-387.014835	-387.006378	-387.005434	-387.047928	33.048	
C	-0.1588494667	 1.5747701806	 0.0410696585	-0.376026
C	 0.1866492922	 0.0893580824	-0.1166686113	-0.208426
C	 0.8118709834	-0.5079815653	 1.1370816914	 0.010088
C	-0.0760550264	-0.864140535	 2.3541788791	-0.050272
C	-0.5726743885	-2.2092369688	 1.7129190099	-0.101821
C	-0.193845291	-2.9979465471	 2.9821881464	 0.146245
O	 0.0942958127	-4.3706305507	 2.9052511986	-0.449751
C	 0.9332023947	-1.9555607559	 2.852240914	-0.101216
C	 0.9353401508	-2.0404459706	 1.2810190466	-0.094268
H	 0.7330153367	 2.1643124122	 0.2814338025	 0.113918
H	-0.5908963428	 1.9843300269	-0.877184116	 0.111741
H	-0.8834830133	 1.7299668154	 0.8477294825	 0.116811
H	-0.7167599592	-0.4721400575	-0.3852254012	 0.093828
H	 0.8845296932	-0.0355141313	-0.9555270071	 0.093107
H	 1.7275313994	 0.0377585034	 1.4046964265	 0.058804
H	-0.6683346966	-0.2117425259	 2.9980864401	 0.069601
H	-1.4302568017	-2.3411030756	 1.052518913	 0.072968
H	-0.8629736573	-2.8781937095	 3.8402021178	 0.081564
H	 0.6828990164	-4.514761099	 2.1562272616	 0.280799
H	 1.8044266271	-1.7800522857	 3.4857771503	 0.069295
H	 1.5191493967	-2.728421583	 0.6645170468	 0.063011
