17
gdb 75873	2.25039	1.62793	1.19832	3.5349	75.78	-0.2453	-0.0635	0.1818	1072.8782	0.135675	-421.88338	-421.875032	-421.874088	-421.916718	30.891	
C	-0.1708483311	 1.4442717796	-0.0046119984	-0.413593
C	 0.0439701063	-0.0907516046	 0.0001797829	-0.188647
C	 0.785946929	-0.5197357743	-1.2554491548	 0.37958
O	 0.2243482253	-1.0179925885	-2.2000351061	-0.309471
C	 2.2928678365	-0.2730976046	-1.2581642058	-0.371088
C	 2.925496807	-0.5101338111	 0.0825965035	-0.051254
C	 2.2406872175	-0.6029796256	 1.2293038011	-0.15131
C	 0.7711977849	-0.4774378265	 1.293712115	 0.369892
O	 0.1526120582	-0.6396038529	 2.3250606926	-0.335691
H	 0.7793916022	 1.987284653	 0.0127726634	 0.126957
H	-0.7295519484	 1.7472078164	-0.8940395399	 0.139214
H	-0.7404514497	 1.7280279369	 0.8836823658	 0.150376
H	-0.9336006125	-0.5791549768	 0.0017455883	 0.122613
H	 2.7454824039	-0.8972778124	-2.03482564	 0.144549
H	 2.4699121925	 0.7683411396	-1.5687805439	 0.150299
H	 4.0069888102	-0.6220498657	 0.0923268814	 0.121562
H	 2.7363979281	-0.7921543924	 2.1758182348	 0.116011
