12
gdb 15494	3.48533	2.00362	1.35669	4.9643	56.54	-0.2582	-0.0443	0.2139	831.8383	0.083846	-414.705094	-414.698111	-414.697167	-414.737518	24.097	
O	-0.9663023904	 1.0927516181	 0.2635661975	-0.220142
C	 0.1635525006	 0.8593401407	-0.0596864753	 0.163502
C	 1.2783215783	 1.9118044263	-0.0650853198	-0.187949
N	 2.5937029767	 1.2976192038	 0.1260718386	-0.244447
C	 3.2697176579	 1.5785114195	-0.9213938092	 0.070921
N	 2.6217398545	 2.3474201845	-1.8762780982	-0.329941
C	 1.3322598843	 2.641562969	-1.4340184806	 0.396676
O	 0.5027186243	 3.2971361886	-2.0029448958	-0.330377
H	 0.4989801112	-0.1450657468	-0.3941537863	 0.098752
H	 1.051900114	 2.6367419582	 0.7224130823	 0.153321
H	 4.2923767179	 1.2580381655	-1.0909729286	 0.151619
H	 3.0046143007	 2.6817449928	-2.7460734646	 0.278066
