17
gdb 68964	2.60739	1.66725	1.25832	3.4316	79.88	-0.229	0.0185	0.2475	1030.7748	0.135165	-380.836542	-380.828168	-380.827224	-380.86897	32.641	
C	-0.064696968	 1.527253197	-0.0812207384	-0.491001
C	 0.0060160333	 0.0285110412	-0.0088490599	 0.289834
C	-0.7971002904	-0.7846755918	 0.9591733876	-0.345918
C	 0.7229776908	-0.81674339	 1.1029191258	 0.117271
N	 1.4116705718	-1.8908665754	 0.4231656967	-0.288296
C	 1.1845600529	-1.7438888738	-0.8310666116	 0.026309
N	 0.3611804796	-0.6963915743	-1.2072541284	-0.332268
C	 1.3337973272	-0.2475242601	 2.2658350531	 0.228963
C	 1.8294955632	 0.2668037763	 3.2339778422	-0.408353
H	 0.8407948486	 1.9440113097	-0.5359045865	 0.1245
H	-0.9313591264	 1.8605311146	-0.663815827	 0.126949
H	-0.1540197297	 1.9450485911	 0.9244438682	 0.144439
H	-1.3273456695	-0.2379247673	 1.7304296644	 0.125421
H	-1.2803016088	-1.691728129	 0.6106273057	 0.121422
H	 1.5740532722	-2.4145883634	-1.5900307784	 0.127701
H	 0.561044311	-0.1826595368	-2.0533790791	 0.245782
H	 2.2750828522	 0.703599652	 4.0928558155	 0.187243
