17
gdb 93073	2.23178	1.74568	1.03504	2.3855	71.51	-0.2547	-0.0106	0.2441	1126.2072	0.137633	-455.197228	-455.189088	-455.188144	-455.230211	30.248	
C	-0.0830324101	 1.4778444518	 0.0588869289	-0.395583
C	 0.0060041728	-0.0391233239	-0.0277949504	 0.087805
C	 0.75786764	-0.510588709	-1.2722527774	-0.159466
N	 0.6542364463	-1.9194298887	-1.5921594296	-0.242686
C	 0.4800448973	-2.8021368006	-0.7048139191	 0.098114
N	 0.3668919944	-2.7255816942	 0.6872867632	-0.378595
C	 0.6539105759	-1.7192286011	 1.6170086289	 0.4628
O	 0.8649782575	-1.9941804945	 2.7691737128	-0.368994
O	 0.6823507932	-0.4530462198	 1.1826284172	-0.241364
H	 0.9165487952	 1.9227044194	 0.0432798806	 0.134911
H	-0.6538805351	 1.8720185367	-0.7861322571	 0.1261
H	-0.5768909172	 1.7772303493	 0.9859471648	 0.137622
H	-1.0009241488	-0.4750368425	-0.0236340193	 0.106509
H	 0.3794998517	 0.0488467445	-2.1360360814	 0.115461
H	 1.8159680297	-0.2331467709	-1.1668903725	 0.127302
H	 0.3908637711	-3.8403223652	-1.0298292657	 0.121967
H	 0.3164002662	-3.6185258514	 1.1569492963	 0.268098
