23
gdb 77686	2.52949	1.30788	1.16029	1.4233	85.88	-0.2458	0.0721	0.3179	1225.8331	0.204192	-388.274671	-388.26492	-388.263976	-388.308468	38.28	
C	-0.2522238398	 1.471163779	 0.0786762434	-0.456684
C	-0.0478250322	-0.043078724	-0.0039409742	 0.311199
C	-1.359163777	-0.7580089975	-0.312027831	-0.460173
C	 1.1812014476	-0.4208799121	-0.9005049778	-0.35878
C	 2.0220897469	-0.5919837473	 0.3692416375	 0.338203
C	 3.3026466122	-1.3359280373	 0.5799128449	-0.338867
C	 3.271803457	 0.1692850101	 0.7192199358	-0.326095
C	 0.7533105975	-0.601296678	 1.2312149483	 0.036316
O	 0.7375985889	 0.0882410633	 2.4563719106	-0.427059
H	 0.691571337	 2.0045002085	 0.2413886051	 0.10758
H	-0.6793657756	 1.8516281346	-0.8555493718	 0.115216
H	-0.9356621677	 1.7332925666	 0.893411146	 0.121699
H	-1.7774592615	-0.428888333	-1.2705766761	 0.110178
H	-1.2164668658	-1.8426936899	-0.3659890721	 0.109473
H	-2.1073904031	-0.5576377514	 0.4638135558	 0.118296
H	 1.0311971676	-1.3602225545	-1.4424989919	 0.096022
H	 1.5108845062	 0.3426472165	-1.611593626	 0.094945
H	 3.4069965182	-1.9255336809	 1.4856403793	 0.115539
H	 3.7973872145	-1.7579657775	-0.2893176406	 0.11017
H	 3.7432857421	 0.7698230236	-0.0524212592	 0.110277
H	 3.3534979613	 0.5784488076	 1.7220951748	 0.110611
H	 0.4324065812	-1.6211147462	 1.4711083497	 0.081583
H	 1.0622001947	 0.9807574595	 2.2955046394	 0.280352
