17
gdb 48323	2.18629	1.87536	1.18776	2.7825	73.78	-0.2455	-0.0546	0.1909	1039.574	0.134698	-421.779047	-421.771066	-421.770122	-421.811969	29.736	
O	-0.1818472963	-0.0111527535	-0.3582139812	-0.251039
C	-0.0020151221	 1.0790932342	 0.1230262509	 0.076797
C	 1.2993477944	 1.8565901256	 0.0409291005	 0.170294
C	 1.5776522231	 2.4434871436	 1.4127525548	 0.067816
O	 0.7544829449	 3.0666375823	 2.0371511372	-0.254473
C	 2.4872811697	 1.3140673871	-0.8159448903	-0.098034
C	 1.6478958802	 1.6147710553	-2.0980679537	-0.2345
C	 1.4714846024	 2.8595788167	-1.1874619882	-0.071022
C	 3.003536184	 2.7836309159	-0.9265622212	-0.24109
H	-0.7933374172	 1.6014459293	 0.6984663367	 0.112108
H	 2.5818702729	 2.2336033989	 1.8414880316	 0.096515
H	 3.0713916359	 0.4183575925	-0.6061392954	 0.090464
H	 2.2285940228	 1.788909829	-3.0069926469	 0.099097
H	 0.7826869334	 0.9845543059	-2.2879200099	 0.131423
H	 0.8629395193	 3.7476072596	-1.3581443531	 0.096593
H	 3.3942340671	 3.2659787438	-0.0285874323	 0.10386
H	 3.6378761756	 2.9981933538	-1.7895454893	 0.105191
