23
gdb 91065	3.40281	1.24094	1.16897	0.3057	87.86	-0.2397	0.0784	0.3181	1194.7968	0.208593	-351.142317	-351.134493	-351.133549	-351.174278	32.713	
C	-0.1714555941	 1.560538231	 0.0043678167	-0.404012
C	 0.0479826163	 0.0490299947	 0.0064733482	 0.065375
C	 0.891992572	-0.4791735584	-1.1821647483	-0.249424
C	 1.3566096943	-1.874467245	-0.727410144	-0.005897
C	 2.8504063594	-2.2519424747	-0.6424090917	-0.064194
C	 3.632230606	-1.2567023809	 0.1670620259	-0.285792
C	 2.7787716074	-2.2601101382	 0.8894216618	-0.064203
C	 1.283342735	-1.8829117551	 0.8386236028	-0.005894
C	 0.7775188147	-0.4923858178	 1.262999783	-0.24942
H	 0.7860150622	 2.0932011334	 0.0520718737	 0.109237
H	-0.6892699068	 1.8889472334	-0.9033173923	 0.109694
H	-0.7719723397	 1.8794015611	 0.8631941062	 0.109694
H	-0.9341102465	-0.4436464028	-0.0421658303	 0.067432
H	 0.3204979754	-0.4956156318	-2.1154461057	 0.088646
H	 1.7495548995	 0.184872679	-1.3468690578	 0.094798
H	 0.7659300164	-2.6729253326	-1.1820577029	 0.065613
H	 3.3474968256	-2.9542994698	-1.3011196825	 0.078888
H	 4.699487144	-1.449262074	 0.215926901	 0.108152
H	 3.3844711963	-0.199098051	 0.1611028682	 0.103359
H	 3.2125815523	-2.9696808985	 1.5841316599	 0.07889
H	 0.6532247754	-2.6859419837	 1.2275161038	 0.065616
H	 1.6155840612	 0.1694372312	 1.5142610281	 0.094796
H	 0.1213394237	-0.5186258893	 2.1385741162	 0.088646
