18
gdb 5608	3.29711	1.90767	1.31552	1.5191	75.57	-0.1855	0.0503	0.2359	962.6239	0.155153	-344.007864	-343.99954	-343.998596	-344.040884	30.283	
C	-0.6862301907	 0.8477027178	 0.0391398788	-0.32561
N	 0.582584243	 0.1168392888	 0.1509653941	-0.383521
C	 1.0047181422	-0.5528281213	-1.0152596683	 0.269018
C	 1.7974507266	-0.1582051701	-2.0742443626	-0.229521
C	 1.9207314227	-1.2699321732	-2.9508539318	-0.155057
C	 1.1921803504	-2.3014827236	-2.4074271945	-0.109012
N	 0.6429459946	-1.8700020278	-1.223685196	-0.001302
C	-0.1780043288	-2.6616430374	-0.333382404	-0.340637
H	-0.688725007	 1.6044192708	-0.7600105699	 0.110884
H	-1.4971748537	 0.1423590835	-0.1654568838	 0.126119
H	-0.9023952086	 1.3393229908	 0.9925851151	 0.115624
H	 1.3135048736	 0.740038808	 0.4706121908	 0.232816
H	 2.2392785188	 0.8197066513	-2.1944325185	 0.081082
H	 2.4781275197	-1.308697903	-3.874241013	 0.088664
H	 1.0153791349	-3.3065757498	-2.7565904935	 0.105914
H	 0.1993926036	-3.6868184156	-0.2939612581	 0.132291
H	-0.1285729048	-2.2200413656	 0.6634376732	 0.155437
H	-1.2259765466	-2.6884514836	-0.656378878	 0.126811
