20
gdb 78323	2.90136	1.42057	1.2074	2.2256	78.54	-0.2135	0.0667	0.2803	1120.0434	0.170345	-403.078839	-403.070571	-403.069627	-403.110982	33.289	
C	-0.0163625917	 1.4806313233	-0.056137754	-0.414959
C	 0.0082397692	-0.0290590543	-0.1058871808	 0.009674
C	 0.7926988483	-0.7095299948	-1.1500331465	-0.081411
N	 1.3095153507	-0.6153772161	 0.2839748133	-0.166083
C	 1.1970905694	-2.1299397859	 0.3799472816	-0.050225
C	-0.1298964525	-2.783890446	 0.8507390051	-0.24156
C	-0.6002562445	-2.9145140814	-0.636694004	-0.309483
C	 0.728122487	-2.2429997058	-1.0996271081	 0.416724
O	 1.4558713245	-2.7971623531	-2.1509769023	-0.483873
H	 0.929073335	 1.8933503326	-0.418082713	 0.130131
H	-0.8294500903	 1.8753564208	-0.6745931707	 0.115411
H	-0.1652681006	 1.8294084256	 0.9707250035	 0.122764
H	-0.9042559551	-0.4971473028	 0.2541764184	 0.082935
H	 1.283244596	-0.1830481513	-1.9639806124	 0.095834
H	 2.1344076566	-2.5473812386	 0.7487221011	 0.08105
H	 0.0349000852	-3.7491384997	 1.3356198373	 0.101875
H	-0.7577341283	-2.1818888689	 1.5108261744	 0.112638
H	-0.6695465761	-3.9542682001	-0.9727553353	 0.092925
H	-1.5268212582	-2.4057323497	-0.916269818	 0.105778
H	 1.5053645953	-3.7499971236	-2.0209282397	 0.279854
