19
gdb 71627	2.71522	1.7268	1.6067	1.3607	74.46	-0.2463	0.1011	0.3475	952.5963	0.161156	-422.98511	-422.977897	-422.976953	-423.016374	29.275	
C	-0.0162167852	 1.4914200956	 0.0120551469	-0.526203
C	 0.0175147088	-0.0096637118	-0.0287461738	 0.274695
C	 0.6627176404	-0.9577099075	-1.0744636112	-0.288625
C	 0.0368127916	-1.9280323595	-0.041906458	-0.16244
C	 0.5932285245	-0.9708170687	 1.0612945434	 0.114261
O	-0.0450110311	-0.9478404438	 2.3196410636	-0.276456
C	-1.3516092065	-1.4608545904	 2.2234217117	 0.015467
O	-2.0366712723	-0.9595542561	 1.1013568202	-0.276457
C	-1.2068680769	-0.9813714739	-0.0398075298	 0.114272
H	 0.9944040064	 1.9121597016	 0.0530898544	 0.11864
H	-0.5177245151	 1.9032913917	-0.8705051741	 0.118643
H	-0.5601004305	 1.8318108791	 0.8992360324	 0.134332
H	 0.2144751306	-0.9600545098	-2.0717012788	 0.097575
H	 1.7546539743	-0.9510073526	-1.1295936165	 0.097573
H	 0.0599569863	-3.0172604688	-0.0693036583	 0.080031
H	 1.6730041925	-0.953865182	 1.2298204506	 0.079247
H	-1.3090321644	-2.5617425302	 2.164401704	 0.087312
H	-1.8997567786	-1.1535955295	 3.116584718	 0.118885
H	-1.8487535546	-0.9744989336	-0.9244209348	 0.079247
