20
gdb 113408	3.05565	1.34457	1.0963	2.7143	80.43	-0.227	0.0689	0.2959	1158.5033	0.171295	-403.038236	-403.029962	-403.029018	-403.071205	32.154	
O	 0.2090377375	 0.484914512	 0.96150407	-0.417728
C	-0.169513406	 0.1844559463	-0.3779303971	-0.096126
C	-1.4937086892	-0.5290487684	-0.3352343614	-0.12862
C	-1.8558370487	-1.5475872534	-1.423618736	-0.428006
C	-1.5517842061	-1.9800238842	-0.0359184535	 0.477177
C	-0.613823724	-2.9994514343	 0.6151418072	-0.15057
C	-1.3146994155	-2.5576476929	 1.9205350365	-0.170842
N	-2.505479426	-2.6546088299	 0.9365289398	-0.192981
C	-1.8196940436	-3.9552840245	 0.4628050916	-0.169395
H	 1.0178313319	 1.0052244686	 0.9375895051	 0.286261
H	-0.253738279	 1.1032904442	-0.9793278104	 0.089756
H	 0.5799812329	-0.4591160191	-0.8669270924	 0.080089
H	-2.3187692008	 0.0687921825	 0.0437198599	 0.102569
H	-2.8877181356	-1.5695676312	-1.7581772311	 0.123744
H	-1.1243433106	-1.7408366559	-2.2034040999	 0.111341
H	 0.4482935727	-3.1836015222	 0.4230231218	 0.064272
H	-1.3776644593	-3.2832457634	 2.7362133512	 0.09331
H	-1.121906251	-1.5449870851	 2.2772524466	 0.126908
H	-2.1144728794	-4.2592674335	-0.5442736214	 0.102302
H	-1.9145466102	-4.7761036257	 1.1791109732	 0.09654
