19
gdb 38043	3.55279	1.72527	1.48381	0.2695	83.91	-0.2179	0.0118	0.2296	936.7429	0.162517	-348.714249	-348.707943	-348.706999	-348.744331	28.035	
C	-0.0700801748	 1.5962592694	 0.2732564358	-0.245501
C	 1.4512856427	 1.3735697494	 0.0179314583	-0.126542
C	 1.7619878956	 0.4386807823	 1.2089522245	-0.080761
C	 0.7428999797	-0.433130949	 1.221526539	-0.194263
C	-0.0918127383	 0.0237103002	 0.0272315052	 0.345112
C	-1.2138662949	-0.5838722903	-0.7482280444	-0.247448
C	-1.0356181174	-0.332077207	-2.0518586457	-0.049936
C	 0.2384891877	 0.4635354865	-2.3458900517	-0.346192
C	 1.03223218	 0.2758670858	-1.0330308901	 0.036124
H	-0.3638073094	 1.9467071804	 1.2645581609	 0.091401
H	-0.58766606	 2.1625880342	-0.5054447504	 0.095291
H	 2.145855381	 2.1876629214	-0.1910401776	 0.055205
H	 2.6152742249	 0.5096259625	 1.8688510175	 0.09654
H	 0.5458109656	-1.2619677259	 1.8865691407	 0.100554
H	-2.0722218756	-1.0904587163	-0.3217167402	 0.093581
H	-1.7310907968	-0.6118885233	-2.8366152902	 0.092299
H	 0.7780482497	 0.0828458493	-3.2195407124	 0.101864
H	-0.0076855068	 1.5099250917	-2.5685309815	 0.111976
H	 1.7484423572	-0.5437583311	-1.1340184179	 0.070696
