20
gdb 109794	2.41872	1.25649	1.05513	2.6253	75.57	-0.2226	0.0704	0.293	1229.7823	0.169343	-440.2097	-440.200005	-440.19906	-440.244788	34.903	
C	 1.5197054267	 0.736416125	-1.8157981001	-0.332532
N	 0.9679982924	-0.3270583941	-0.9773879477	-0.111181
C	 1.3282102189	-0.3679355667	 0.4410399533	-0.042018
C	 2.3481536901	 0.5627245712	 1.0640071682	-0.095551
O	 3.6718670301	 0.1941111569	 0.6911746075	-0.417714
C	-0.0587245558	 0.0033280311	 0.0153410808	-0.063781
C	-0.6832436108	 1.3606929669	 0.1400021231	 0.051451
C	-1.0043117582	 1.955645573	 1.4460991738	-0.178812
O	 0.0609541498	 2.4709975984	 0.6455259027	-0.219185
H	 1.4514009107	 1.7480027547	-1.3952134914	 0.129755
H	 2.5739822916	 0.5157266958	-2.0013224206	 0.138969
H	 0.9895463226	 0.7305991777	-2.7734478313	 0.11669
H	 1.4473146473	-1.3936247301	 0.8030609342	 0.078045
H	 2.2151192448	 1.5930886945	 0.7429615392	 0.140771
H	 2.2243568869	 0.5458837054	 2.1590036774	 0.083889
H	 3.8078009406	-0.7242990655	 0.9473679096	 0.280201
H	-0.82381703	-0.7714664019	 0.1009800298	 0.094248
H	-1.3341010841	 1.6254869652	-0.6959348575	 0.106451
H	-1.8686534977	 2.6096532732	 1.5467480803	 0.120475
H	-0.6962719759	 1.4411613794	 2.3546088985	 0.119828
