19
gdb 13779	3.55904	1.34881	1.08385	2.8986	74.45	-0.2387	-0.0293	0.2094	1126.8824	0.163027	-365.046267	-365.037299	-365.036355	-365.079835	32.584	
C	-0.1216876007	 1.5973309811	 0.2420958995	-0.382206
C	 0.1199880567	 0.0935694665	 0.0912911586	 0.06418
C	 0.8816976872	-0.4842770793	 1.2836265458	-0.389443
N	-1.1967193582	-0.5573413105	-0.0053541047	-0.069282
C	-1.8081456459	-0.7049117898	-1.2979870422	-0.253136
C	-1.3462059145	-1.9219115893	-0.5361475587	-0.093921
C	-0.2135886074	-2.7011589808	-1.0989410239	 0.15595
O	-0.140646736	-3.9045410734	-1.0361759915	-0.268783
H	 0.8295759396	 2.1331007174	 0.3144035751	 0.115152
H	-0.6713085255	 1.9952949589	-0.6165833996	 0.115475
H	-0.7076238004	 1.7997629626	 1.1437715884	 0.127706
H	 0.7160856705	-0.0608265663	-0.8233083438	 0.067856
H	 0.3053460639	-0.3471820219	 2.2036584499	 0.129694
H	 1.0705875504	-1.55526873	 1.1601926927	 0.125093
H	 1.8470175732	 0.0169579531	 1.4002193068	 0.117703
H	-2.874131821	-0.5065345371	-1.3704818724	 0.13082
H	-1.2279517475	-0.4291141068	-2.1800750726	 0.117158
H	-2.0774674067	-2.5350805792	-0.0157198129	 0.113146
H	 0.5745810123	-2.1047693053	-1.6083098444	 0.07684
