13
gdb 27028	2.97284	1.35679	0.93335	5.7239	73.15	-0.1993	-0.0087	0.1906	1149.9378	0.089006	-452.765887	-452.757734	-452.75679	-452.798449	30.433	
N	 0.1380860827	 1.4196437513	 0.1662886255	-0.613776
C	 0.0226296017	 0.0495563228	 0.0333812076	 0.19691
C	-1.0676301542	-0.7575665345	-0.0001518882	 0.177942
O	-0.6309460021	-2.0939621346	-0.0267478647	-0.249254
C	 0.7356573209	-2.1101935954	-0.0217723408	 0.458635
O	 1.4207966028	-3.0933249119	-0.0267904985	-0.392979
N	 1.1316715761	-0.7763313781	-0.0113419629	-0.392557
C	-2.4284102066	-0.4503021269	-0.0024008889	 0.226398
C	-3.5997208504	-0.1584553478	-0.0084848782	-0.416431
H	 0.7648755704	 1.8489578151	-0.5050105862	 0.26038
H	-0.7661028875	 1.8749662667	 0.1458571098	 0.269573
H	 2.0864033285	-0.5045807529	 0.1506976938	 0.279917
H	-4.6321987624	 0.0890455762	-0.0072255182	 0.195243
