17
gdb 29274	5.68265	0.93218	0.84968	2.2031	78.04	-0.2168	0.0057	0.2225	1365.5006	0.135805	-421.835479	-421.827255	-421.826311	-421.868887	30.1	
C	 0.3530752998	 1.4906583898	-0.147230127	-0.499993
C	 0.0618331726	 0.0289354485	-0.0075288114	 0.264807
C	-0.4166976939	-0.8140500312	-0.9617576359	-0.110115
O	-0.5593339184	-2.0778979792	-0.4770832259	-0.183829
C	-0.155844469	-2.0504875494	 0.8231159001	 0.408747
C	 0.2321014426	-0.7900636873	 1.1615859606	-0.398299
C	-0.2139433505	-3.300263149	 1.5889615464	-0.046119
C	-1.0305760443	-4.4533910725	 1.1779744837	-0.178254
O	 0.3838636697	-4.4737447443	 1.0071018081	-0.231974
H	 1.4077921141	 1.7104394174	 0.0529194141	 0.132622
H	 0.1253564061	 1.8436685414	-1.1567719769	 0.126056
H	-0.2388812165	 2.0871175475	 0.5561394401	 0.130927
H	-0.6912666986	-0.6753640108	-1.9949799063	 0.132759
H	 0.6012975279	-0.4758762109	 2.1263769728	 0.109885
H	 0.0026819396	-3.1693210578	 2.6481687461	 0.100993
H	-1.4261195847	-5.126023308	 1.9385915018	 0.114415
H	-1.6099066867	-4.3863189942	 0.2594322094	 0.127372
