23
gdb 59113	2.03025	1.52051	1.12888	2.5204	81.46	-0.2473	0.059	0.3062	1223.8166	0.205134	-425.42047	-425.410581	-425.409637	-425.454432	38.453	
C	-0.0180383887	 1.64120585	-0.0453023912	-0.412604
C	 0.0262674659	 0.1114454256	 0.0531276677	 0.132851
O	 0.8251075935	-0.3116365503	 1.155766217	-0.445392
C	-1.3810191036	-0.5093898888	 0.0703133158	-0.06038
C	-1.4624581942	-2.0777762816	 0.0754503697	 0.0324
C	-0.282264799	-2.9069992623	-0.4121245134	-0.42063
C	-1.755207122	-2.0325859006	 1.6021790553	-0.273702
C	-2.095973038	-0.5312971053	 1.4540419584	 0.112686
O	-1.5683554937	 0.3796850321	 2.4143906189	-0.435958
H	 1.0005048025	 2.039573194	-0.0362808986	 0.116039
H	-0.5069035867	 1.9639277942	-0.9709262749	 0.104071
H	-0.5670696267	 2.0677753981	 0.7989303451	 0.130964
H	 0.5470669158	-0.2749572973	-0.8321143086	 0.082321
H	 0.3673073096	 0.0087680867	 1.9454456766	 0.283859
H	-1.9648468818	-0.0348625076	-0.7248704501	 0.064417
H	-2.3661782369	-2.3834386044	-0.4636325905	 0.06764
H	 0.6367122169	-2.6261546302	 0.1083758428	 0.145903
H	-0.4659825673	-3.9727371364	-0.2345286053	 0.105812
H	-0.1209423117	-2.7785226368	-1.4886981936	 0.108599
H	-2.5294385711	-2.6948110249	 1.9997194507	 0.08652
H	-0.8344348378	-2.1577405729	 2.1778576593	 0.110814
H	-3.1759824831	-0.3677855217	 1.3438255194	 0.07514
H	-1.9888218519	 0.2021582505	 3.2621689193	 0.288631
