19
gdb 94744	3.61647	1.18602	1.04178	5.0672	80.36	-0.2567	0.0204	0.2772	1195.1845	0.160721	-382.077744	-382.069522	-382.068578	-382.110289	31.873	
C	-0.1004552902	 1.5313723311	 0.0117632707	-0.399891
C	 0.0581133919	 0.0162550106	 0.0198555277	 0.068463
C	 0.7585654446	-0.5776661765	-1.2262139489	-0.25772
C	 1.3982259891	-1.881850238	-0.7126377229	-0.28625
C	 1.6355324716	-1.5987490256	 0.7723820733	 0.188979
C	 2.2614264593	-0.2877775842	 1.1266886027	-0.284016
N	 0.8100819031	-0.4493838433	 1.2135845381	-0.121303
C	 1.7534526778	-2.7264067214	 1.6641554279	 0.225044
N	 1.8700050849	-3.6500347173	 2.3498947931	-0.340989
H	 0.8710686057	 2.0306142088	-0.069737999	 0.11681
H	-0.7120810851	 1.8460238014	-0.8392725201	 0.122189
H	-0.5852221219	 1.8749463427	 0.9293540575	 0.134556
H	-0.9328271325	-0.4430412008	 0.1187838348	 0.094644
H	 0.0554898683	-0.7544636835	-2.0433238253	 0.114713
H	 1.5198611212	 0.1103810057	-1.6075980179	 0.109746
H	 0.7071475951	-2.7251567319	-0.8055736267	 0.129046
H	 2.3179459521	-2.1507648381	-1.2386238869	 0.123223
H	 2.7605586275	-0.1806153634	 2.0842037804	 0.13997
H	 2.6987720872	 0.2908594038	 0.3170921316	 0.122787
