15
gdb 28962	2.89625	1.5266	1.00586	3.9099	81.27	-0.2746	-0.063	0.2116	1108.6914	0.114651	-379.754796	-379.747035	-379.746091	-379.787585	28.186	
C	-0.0356663679	 1.5257775173	 0.0049231332	-0.504159
C	-0.009767755	 0.0232980437	-0.0071813544	 0.222806
C	-0.0260325078	-0.7107714388	-1.1898667271	-0.181351
C	-0.0001682167	-2.1017130239	-1.1444231977	 0.016466
N	 0.0404386117	-2.8099355056	-0.0117982701	-0.274088
C	 0.0563307727	-2.1215543033	 1.12549446	-0.039558
C	 0.0329927655	-0.7212897746	 1.1875475039	 0.065898
C	 0.0527415527	-0.0680152935	 2.4578728655	 0.212953
N	 0.0687187972	 0.4690468547	 3.4837973125	-0.33866
H	 0.8516057455	 1.9284679842	 0.504897015	 0.158755
H	-0.0741303377	 1.9271501249	-1.0097107312	 0.132185
H	-0.9032069547	 1.8981321112	 0.559858907	 0.158802
H	-0.0588603684	-0.2003599391	-2.1464487154	 0.110529
H	-0.0128038687	-2.6767807495	-2.0670548662	 0.123666
H	 0.0892748715	-2.6955267077	 2.0476399051	 0.135756
