20
gdb 110508	2.68297	1.5091	1.22851	2.4628	77.56	-0.2334	0.0602	0.2936	1099.3756	0.170971	-403.081534	-403.073259	-403.072315	-403.114216	32.726	
C	 0.1090070807	 1.5117691386	 0.174194971	-0.386312
C	 0.0423054452	-0.0035158047	-0.0545016589	-0.217367
C	-1.3739525583	-0.5557155777	 0.0755079555	-0.039616
C	-1.6781908314	-2.0540564586	 0.0134939582	-0.064756
C	-2.8194853916	-1.9514185636	 0.9468383418	-0.144265
N	-1.5933390618	-2.6661750341	 1.3931426655	-0.149001
C	-1.2581257339	-1.5249663552	 2.3082949389	-0.18306
C	-2.1191520891	-0.6010179554	 1.4485429544	 0.345386
O	-2.6647569594	 0.5237060448	 2.0364373307	-0.473757
H	 1.1332343761	 1.8842174896	 0.0781543912	 0.114439
H	-0.5072543437	 2.0481155522	-0.5570915998	 0.107645
H	-0.2557989064	 1.776331882	 1.1715932673	 0.130535
H	 0.4182833866	-0.2427074989	-1.0579045311	 0.09768
H	 0.714173352	-0.5143992105	 0.6436256652	 0.105755
H	-2.0334632539	-0.0525708088	-0.6472328078	 0.064532
H	-1.5315513049	-2.7340721586	-0.8157604228	 0.095358
H	-3.8182763908	-2.3676438126	 0.9644916534	 0.098034
H	-1.7139208221	-1.7219265929	 3.2817804383	 0.115172
H	-0.1929817484	-1.3034467381	 2.4339568859	 0.098173
H	-3.0666332448	 1.0702202624	 1.3527300031	 0.285424
