18
gdb 126814	2.81797	1.53023	1.07477	2.2254	84.46	-0.2041	-0.0521	0.1521	1134.4693	0.149894	-398.147883	-398.139818	-398.138874	-398.180676	30.793	
C	-0.0732597051	 1.5309630806	 0.0346202264	-0.382068
C	 0.0907204755	 0.0108095345	 0.0155813274	-0.119578
N	 0.744127341	-0.4981382999	 1.2257982469	-0.033693
N	 2.0603032034	-0.70133371	 1.1183323054	-0.18985
C	 2.7123117406	-1.143093852	 2.1552813994	-0.019683
C	 2.0741255042	-1.4216530499	 3.4018451912	-0.113101
C	 0.7433291361	-1.2109983054	 3.5088524564	-0.148761
C	-0.0258407644	-0.6971031203	 2.3886384329	 0.376109
N	-1.2822107317	-0.4150782283	 2.3462579325	-0.574963
H	 0.8996087174	 2.0246466115	 0.1185655815	 0.121777
H	-0.547963632	 1.8631244655	-0.8938079714	 0.116577
H	-0.7043405639	 1.8330122268	 0.8727366911	 0.149218
H	-0.8859734234	-0.4729326932	-0.0485002625	 0.142949
H	 0.7171927268	-0.3075493807	-0.8190730123	 0.118824
H	 3.7756176021	-1.2946107512	 2.0109331777	 0.122674
H	 2.6581341885	-1.7970331189	 4.2355015551	 0.113851
H	 0.2025710844	-1.4061233014	 4.4287707402	 0.112362
H	-1.7133213094	-0.6236270477	 3.2446640821	 0.207355
