18
gdb 37656	2.79858	2.60296	2.25292	1.7251	74.72	-0.2286	0.0878	0.3165	752.2637	0.153411	-364.795144	-364.790141	-364.789197	-364.824113	23.553	
C	-0.0340308105	 1.5631657159	 0.0178681422	-0.202105
C	 1.5052784832	 1.7616038332	 0.0002211795	-0.077621
C	 1.9619326147	 0.8969693359	 1.1964099749	-0.071618
C	 0.9877948021	-0.274504072	 1.1992042039	-0.071617
C	 2.380817395	-0.4434092929	 0.6536080214	-0.031903
N	 2.3620295207	-0.4312888532	-0.8087694191	-0.121315
C	 1.9122473767	 0.9111774505	-1.227137305	-0.045071
C	 0.9590596617	-0.2350952855	-1.2243890229	-0.04507
C	 0.0515601253	 0.0134343282	 0.0044032783	-0.077622
H	-0.512775856	 1.9634304963	 0.917978431	 0.09266
H	-0.5293505045	 1.972939775	-0.8691000428	 0.093369
H	 1.8732249193	 2.786852888	-0.0023114889	 0.063698
H	 2.3758613974	 1.3295578798	 2.098915107	 0.084118
H	 0.6400819996	-0.7578505971	 2.1038905847	 0.084118
H	 3.1319228018	-1.0668661531	 1.1230580502	 0.09081
H	 2.3680804515	 1.348190601	-2.1094498994	 0.085735
H	 0.6104399186	-0.7654907253	-2.1043806093	 0.085735
H	-0.8893898166	-0.5353261648	 0.0056369543	 0.063698
