15
gdb 123990	4.43112	1.37242	1.14297	2.5742	72.29	-0.2501	0.0087	0.2588	1029.68	0.115982	-412.936832	-412.930055	-412.929111	-412.968433	25.507	
C	 0.0851571947	 1.5465339541	-0.0354345708	-0.294448
N	 1.2797757603	 0.680836976	-0.0295168772	-0.35101
C	-0.0353073507	 0.0740616754	 0.0122812759	 0.168444
C	-0.5362847988	-0.8870666244	 1.1535274707	-0.223957
N	-1.0942094639	-1.6809863704	 0.0351665471	 0.056243
N	-1.8534115781	-2.6975637598	-0.422969078	-0.277043
C	-1.8224268328	-2.4192594459	-1.7335895621	 0.020751
N	-1.1248872043	-1.2989747243	-2.1243378879	-0.391812
C	-0.6948769264	-0.8791480275	-0.9482317852	 0.33905
H	-0.0564671433	 2.1324762479	 0.8681988926	 0.133751
H	-0.2076218052	 2.041353822	-0.9573641951	 0.138998
H	 1.6836302313	 0.6006261467	-0.9593892473	 0.253995
H	 0.2529513686	-1.3947680436	 1.7105327306	 0.151803
H	-1.295271167	-0.4790264937	 1.824222723	 0.146124
H	-2.3269258444	-3.0580909126	-2.4435720764	 0.129113
