20
gdb 66222	4.08913	0.68357	0.66941	4.8645	80.98	-0.2455	0.0253	0.2707	1725.1962	0.170896	-399.305412	-399.295597	-399.294653	-399.341019	35.216	
C	-0.0397520034	 1.5552627336	-0.4321964312	-0.460833
C	-0.065625281	 0.0773668761	-0.1031066746	 0.316346
C	-1.4043322758	-0.4677237409	 0.3591597394	-0.177653
N	-1.7236428262	 0.0887584312	 1.6721086989	-0.299604
C	-2.9779384966	-0.4173238674	 2.2107487842	-0.258409
C	-3.2445791626	 0.1371132329	 3.5415520572	 0.257847
N	-3.4485351008	 0.5569675964	 4.5979432876	-0.299009
C	 0.8893200552	-0.8379411109	-0.7752396475	-0.287414
N	 1.0609575556	-0.5088668132	 0.6541628565	-0.348941
H	 0.9699397448	 1.8821261452	-0.7009153597	 0.109973
H	-0.6994606495	 1.7797175599	-1.2778863066	 0.122532
H	-0.3838576281	 2.1430981066	 0.4236299069	 0.143809
H	-2.1932292069	-0.1737029316	-0.3458771156	 0.103584
H	-1.3662109364	-1.5708903699	 0.3656693309	 0.088058
H	-0.9606550957	-0.1440751559	 2.3019989341	 0.241921
H	-3.7974322185	-0.1174663278	 1.5451184771	 0.153859
H	-3.0273158885	-1.519779625	 2.2859930196	 0.131461
H	 0.6155550895	-1.8700902191	-0.9771884243	 0.117449
H	 1.5827929624	-0.4077342114	-1.493206218	 0.113682
H	 1.8022485224	 0.1793443709	 0.7608210051	 0.231343
