16
gdb 71041	3.39684	1.54463	1.26686	4.7072	78.38	-0.2362	-0.081	0.1552	993.8779	0.123621	-400.642888	-400.635588	-400.634644	-400.674339	28.945	
C	-0.0234212343	 1.4607716095	-0.0869915331	-0.497551
C	-0.0160565683	-0.0365096211	-0.0197531391	 0.335444
N	 0.9204629606	-0.8256058598	-0.9812712771	-0.382479
C	 0.0707616025	-1.9457150797	-0.5406839872	 0.106025
C	 0.5644839979	-2.7968460544	 0.3875216535	-0.224599
C	 0.2064533292	-2.1670669217	 1.7133635313	 0.393076
O	 0.5281363697	-2.5124663929	 2.8218672902	-0.329214
C	-0.4012869115	-0.8322295379	 1.3131499128	-0.194211
C	-1.0671558808	-1.0695077638	-0.0332006185	-0.205125
H	 0.9532820435	 1.8628288272	 0.1981418438	 0.150456
H	-0.255257201	 1.808007295	-1.100024555	 0.128636
H	-0.7763412631	 1.8719118076	 0.5910263706	 0.139415
H	 0.6127333964	-0.4770564334	-1.895156831	 0.228203
H	 1.5282997301	-3.2865762109	 0.3024450324	 0.13143
H	-0.8691690908	-0.2102573491	 2.0720679643	 0.104221
H	-2.12976636	-1.0794156244	-0.2397263679	 0.116273
