16
gdb 6817	3.05211	1.76601	1.4637	5.2486	65.11	-0.2595	-0.0007	0.2588	906.3042	0.129906	-379.90603	-379.897811	-379.896867	-379.938604	30.02	
C	-0.1954113403	 1.5334749263	-0.0124944763	-0.431887
C	-0.0458526801	 0.0182285123	-0.0301936517	 0.22154
N	-1.3208634775	-0.6045142023	-0.294874405	-0.552819
C	 1.2423573169	-0.4627903524	-0.7700687035	-0.108902
O	 1.9097988692	-0.7334857497	 0.4825653311	-0.278916
C	 0.689056639	-0.5764953134	 1.2229257799	-0.008664
C	 0.8368890678	 0.2559705768	 2.4148706674	 0.284239
N	 0.9328668037	 0.9263241443	 3.3514537391	-0.328349
H	 0.7423358375	 2.0185027204	 0.2682572382	 0.145803
H	-0.4776507385	 1.8923530585	-1.0088903631	 0.115675
H	-0.9692005182	 1.835388396	 0.6980194574	 0.147054
H	-1.8027653948	-0.1427806618	-1.0588269995	 0.234881
H	-1.218334974	-1.5831337628	-0.5442049992	 0.23189
H	 1.0979391495	-1.3792856762	-1.3588310864	 0.096103
H	 1.7854367137	 0.2755278092	-1.3693157217	 0.115215
H	 0.2624153561	-1.5444061653	 1.5206685134	 0.117136
