23
gdb 70736	2.41903	1.51652	1.15	1.1848	85.32	-0.2344	0.0859	0.3203	1177.1487	0.207611	-388.288964	-388.280431	-388.279486	-388.321449	34.559	
C	-0.0762990011	 1.5135412742	 0.082768116	-0.462307
C	-0.0190297102	-0.0013329124	-0.0060082247	 0.368291
C	-0.8581947881	-0.7860177071	 0.976708199	-0.35855
C	 0.6451304885	-0.7413881637	 1.1363003038	-0.037991
C	 1.5171854183	-1.962622028	 0.8924641169	-0.238907
C	 2.7106219986	-1.6919262117	-0.0363757333	-0.060338
O	 2.3734994221	-1.6817361372	-1.4118485652	-0.243954
C	 1.6441033034	-0.5608392956	-1.8776882076	-0.062688
C	 0.1766506619	-0.5376049208	-1.4212840263	-0.286707
H	 0.8226975641	 1.9775001486	-0.3402432612	 0.113916
H	-0.9398731022	 1.9070670455	-0.4672026862	 0.113309
H	-0.1616716069	 1.8490911063	 1.1211969221	 0.111638
H	-1.4740166736	-0.2394872604	 1.684255892	 0.10465
H	-1.296073865	-1.7208241921	 0.6392922811	 0.106514
H	 1.0102574357	-0.1008442525	 1.9364043678	 0.076806
H	 1.8949485762	-2.3325684024	 1.8542899045	 0.0944
H	 0.9368293908	-2.7827899418	 0.4549789106	 0.104075
H	 3.2033386822	-0.7458510957	 0.2460244509	 0.080828
H	 3.4493645862	-2.494148165	 0.0671190777	 0.099919
H	 2.1516114704	 0.373524724	-1.5845204844	 0.083314
H	 1.6888580111	-0.6302265783	-2.9698943781	 0.10013
H	-0.2133618301	-1.556435534	-1.5171943246	 0.102905
H	-0.4010465425	 0.0814772802	-2.1207292508	 0.090747
