18
gdb 56899	2.67346	1.11744	0.98362	3.7863	72.16	-0.2731	0.0157	0.2888	1252.8556	0.146757	-439.075302	-439.06614	-439.065196	-439.109515	33.832	
O	-0.5966166009	 1.0318724467	 0.1518589162	-0.413797
C	-0.0621030231	-0.2783548003	 0.1813253955	-0.020672
C	 0.4843673157	-0.659951931	-1.1400245329	 0.252787
N	 0.939381264	-0.9355738235	-2.1661727997	-0.324505
C	 1.0000395048	-0.4641705353	 1.2736643551	-0.014852
C	 0.397221663	-0.3715742633	 2.7042296738	-0.243659
C	 0.3970393652	-1.9162665388	 2.783798376	 0.124965
O	-0.9093234896	-2.3854721443	 2.4907784678	-0.428061
C	 1.35790072	-1.952066788	 1.5594345447	-0.270005
H	 0.1174719397	 1.6447242469	-0.0593839059	 0.291797
H	-0.9080962925	-0.9367750889	 0.4030672642	 0.154211
H	 1.8480224572	 0.1944780135	 1.0610777215	 0.07562
H	 1.0887247961	 0.0812636385	 3.4178304987	 0.105013
H	-0.5805885117	 0.1044777486	 2.7955926849	 0.130018
H	 0.7749806066	-2.363592562	 3.7116477487	 0.071807
H	-0.8616842382	-3.3378417059	 2.3542754517	 0.286622
H	 1.123743903	-2.6814775701	 0.7783802806	 0.112521
H	 2.4039936308	-2.0738575026	 1.8507556892	 0.110191
