17
gdb 69670	3.5732	1.47008	1.21807	1.3996	74.95	-0.2222	0.0037	0.2259	1025.121	0.136093	-421.759334	-421.751971	-421.751026	-421.790834	29.358	
O	-0.2857232708	 1.4482455251	-0.0124407991	-0.460069
C	-0.0239306813	 0.0948138462	 0.0566368302	 0.33752
C	-0.1506738094	-0.808355046	-1.1301791428	-0.327558
C	-1.0686867641	-1.0475678742	 0.0689665786	-0.231995
C	-0.2105500362	-1.7713490284	 1.068393269	 0.271154
C	 0.4556377346	-2.8715776319	 1.395084351	-0.265615
C	 1.8437804789	-2.4157047419	 1.8534468216	-0.109459
O	 1.9800548348	-1.0532447317	 1.3929586296	-0.283713
C	 0.6545102289	-0.5704715571	 1.2829025637	 0.02116
H	 0.3925734157	 1.8613497259	-0.5582521818	 0.291059
H	-0.6447333818	-0.3392289924	-1.9764408876	 0.118082
H	 0.6121444892	-1.5384993248	-1.3816465728	 0.122906
H	-2.1459529567	-0.9989431344	-0.0132479942	 0.109697
H	 0.1855398469	-3.9127071678	 1.2752252253	 0.106031
H	 1.9761246873	-2.4600371087	 2.9474366714	 0.101828
H	 2.642001134	-3.014381166	 1.3983664529	 0.113989
H	 0.36725444	 0.0283483979	 2.163573755	 0.084985
