23
gdb 62926	2.54266	1.54884	1.46632	1.6396	83.68	-0.2356	0.0778	0.3134	1079.2982	0.207451	-388.293072	-388.284536	-388.283592	-388.325491	34.573	
C	-0.1108458682	 1.6029999988	 0.0122635087	-0.476652
C	 0.0104093419	 0.0833346589	 0.00856268	 0.336011
C	-1.3669668861	-0.5643122096	-0.1628517088	-0.451238
C	 1.0672683844	-0.6186168154	-0.8919039454	 0.066207
C	 2.3709541027	 0.1719775255	-1.0204176523	-0.240364
C	 3.0519198968	 0.2881346504	 0.3724654521	-0.182295
C	 2.0638375277	 0.1411316281	 1.5638579269	-0.240364
C	 0.8287823507	-0.6425606068	 1.1148487982	 0.066207
O	 1.2466363234	-1.6392535128	 0.1349243334	-0.309912
H	 0.84597879	 2.1155097792	 0.1321640527	 0.118613
H	-0.5587960862	 1.9539797198	-0.9247878077	 0.11473
H	-0.7670299968	 1.9331143285	 0.8261163936	 0.114728
H	-1.831344501	-0.2506337412	-1.104899696	 0.107417
H	-1.285330863	-1.6539584389	-0.1661606413	 0.132996
H	-2.040039616	-0.2716015465	 0.6512664568	 0.107417
H	 0.7229096201	-1.0453187985	-1.8399667949	 0.065246
H	 3.0466887244	-0.3407560627	-1.712637577	 0.100239
H	 2.163890203	 1.1534640948	-1.4615874219	 0.098827
H	 3.783270171	-0.5190205702	 0.4497455517	 0.115639
H	 3.6155470888	 1.2224528385	 0.4505982958	 0.092236
H	 2.5599723887	-0.389652939	 2.382881728	 0.100239
H	 1.7564245035	 1.1125367669	 1.967208833	 0.098827
H	 0.2730358902	-1.0904864277	 1.9455045643	 0.065246
