21
gdb 95449	2.89499	1.22214	1.00951	1.7115	85.68	-0.2329	0.0103	0.2432	1262.4361	0.183121	-387.085699	-387.076941	-387.075997	-387.119308	33.262	
C	 0.7076578611	 1.6064193936	-0.3155208177	-0.394573
C	 0.1051564334	 0.2535610065	 0.1129782927	-0.094987
C	 0.2118216904	-0.8043398177	-1.0182518725	-0.220848
C	 1.5162415521	-1.5863498671	-0.7222021634	-0.253484
C	 1.6816135529	-1.382894528	 0.7629997389	-0.184915
C	 0.8973309676	-0.4081840349	 1.2345440378	 0.372385
C	 0.7945288683	-0.0455087332	 2.6614742121	-0.038412
C	 0.2394043126	 1.219803517	 3.1762173087	-0.190103
O	-0.5377754826	 0.0304047754	 3.2173907007	-0.235235
H	 1.7339604418	 1.4780081046	-0.6767342582	 0.116537
H	 0.1177782144	 2.0488744808	-1.1251253369	 0.11384
H	 0.7389329908	 2.3274325429	 0.505828091	 0.112089
H	-0.9366829281	 0.4114134593	 0.4127014473	 0.084526
H	-0.6381462336	-1.4910909747	-0.9563017252	 0.104777
H	 0.1976440261	-0.3531813285	-2.0145514615	 0.091789
H	 1.4426713201	-2.6443096971	-0.9973357448	 0.104811
H	 2.3771359947	-1.1869704783	-1.2773282217	 0.106754
H	 2.3655482218	-1.969838849	 1.3680134861	 0.088165
H	 1.4966377141	-0.5700518409	 3.3106330793	 0.087419
H	 0.5844398089	 1.5931329121	 4.1406558966	 0.113131
H	-0.1148716169	 1.9844305173	 2.4885246907	 0.116334
