19
gdb 57265	2.14674	1.60001	1.22302	1.5621	76.49	-0.2549	0.0316	0.2865	1111.9945	0.154588	-422.969426	-422.959289	-422.958345	-423.003895	38.136	
C	-0.2359889015	 1.5278203831	-0.196773192	-0.41359
C	-0.0151886047	 0.0165219173	-0.0373591485	 0.081879
O	 0.7631876015	-0.1464161362	 1.1548291653	-0.441872
C	-1.3154489036	-0.653647339	 0.1167230616	 0.323619
C	-2.3705683916	-1.1981321316	 0.3049173393	-0.470021
C	 0.779532088	-0.5531774437	-1.238028873	 0.401376
C	 2.1553164089	 0.0430564781	-1.4486155123	-0.470652
C	 0.4921354235	-1.908935362	-1.7349880053	-0.248167
O	 0.0114120148	-0.7490681242	-2.4258372787	-0.274674
H	 0.7230680911	 2.0493842705	-0.1712557292	 0.128442
H	-0.7383098687	 1.7342727413	-1.1444311719	 0.142269
H	-0.8533477804	 1.8969081373	 0.6242256611	 0.133872
H	 0.7548866695	-1.0833483443	 1.3810115434	 0.283946
H	-3.3077385404	-1.6742056287	 0.4586621867	 0.200867
H	 2.7312095596	 0.0100909513	-0.5207967952	 0.136159
H	 2.6904978812	-0.5100235759	-2.2237245939	 0.12153
H	 2.084861115	 1.0858266687	-1.7712046111	 0.131245
H	 1.2813064119	-2.4588435795	-2.2461896523	 0.110329
H	-0.2785783139	-2.5148845926	-1.265284004	 0.123444
