17
gdb 116720	3.56917	0.89765	0.76295	1.0514	73.92	-0.25	0.0119	0.2619	1478.1752	0.134992	-455.127464	-455.118247	-455.117303	-455.162933	31.58	
C	 0.4656557997	 0.9380799631	-0.406275832	-0.251628
O	-0.1406076786	 0.1802765185	 0.6373390232	-0.189717
C	 0.6168506969	-0.8038848969	 1.1487926224	 0.127741
N	 0.1509006878	-1.5310566865	 2.071339247	-0.257536
C	 0.9842320903	-2.570213444	 2.6115678815	-0.097381
C	 0.3764649559	-3.9936406934	 2.6588532305	-0.089545
O	 1.5400744122	-4.5166239553	 1.9392042266	-0.252027
C	 2.0713385912	-3.2582518422	 1.7835791532	 0.416415
N	 3.0805638799	-2.8701863148	 1.1438621538	-0.550292
H	 0.6966588176	 0.3094352264	-1.2740515332	 0.132839
H	-0.2626181029	 1.6961515363	-0.6959376938	 0.146651
H	 1.3820335488	 1.4310849867	-0.0617991514	 0.133538
H	 1.615854405	-0.9069984269	 0.7096934549	 0.128049
H	 1.3640830722	-2.263403886	 3.5929108576	 0.120266
H	 0.2754039555	-4.466280393	 3.6376131222	 0.122296
H	-0.5338709227	-4.1089868262	 2.06756178	 0.131541
H	 3.5526465212	-3.650553456	 0.6823582276	 0.228792
