22
gdb 120733	3.12306	0.73186	0.66424	3.1311	79.62	-0.2457	0.0711	0.3168	1768.0958	0.192219	-441.449799	-441.438889	-441.437944	-441.48699	38.877	
C	-0.0646427672	 1.4087364003	-0.4956973209	-0.408202
C	 0.0532434616	 0.0549732618	 0.2044475782	 0.143686
O	 0.6666466083	 0.1717792638	 1.4866296196	-0.432776
C	-1.2953780088	-0.6299777622	 0.3143547426	-0.048751
N	-1.7806341507	-1.3525977042	-0.8730041725	-0.343146
C	-1.4892111111	-2.1023515	 0.3674613994	-0.023212
C	-0.3760402994	-3.1221103409	 0.3187410793	-0.180812
C	-0.836747945	-4.4304104701	-0.3145631821	-0.070575
O	 0.2568544461	-5.3350906707	-0.289939866	-0.421985
H	 0.9146028547	 1.8902203348	-0.5627521873	 0.122688
H	-0.4696476436	 1.2852983774	-1.5045100194	 0.131203
H	-0.7373165537	 2.0765596742	 0.0587271982	 0.098672
H	 0.7261686693	-0.58403607	-0.3736042558	 0.098032
H	 0.1434607036	 0.7919483312	 2.0064046968	 0.274239
H	-2.0291468858	-0.0389992864	 0.8679899706	 0.067167
H	-2.7809125004	-1.2202219383	-0.9915808296	 0.229356
H	-2.3554535671	-2.4266101502	 0.9459359037	 0.078186
H	 0.4713163331	-2.7411463913	-0.2567873344	 0.115392
H	-0.0139850016	-3.3228764881	 1.3338382709	 0.112822
H	-1.6986456363	-4.8334276467	 0.244536597	 0.075476
H	-1.1755086772	-4.2334205266	-1.3432401303	 0.098234
H	-0.0105203089	-6.1418167678	-0.7394021581	 0.284306
