18
gdb 96416	2.0265	1.71868	1.221	3.9291	71.29	-0.2698	0.0162	0.2861	1077.0693	0.148874	-439.100442	-439.09207	-439.091125	-439.13326	31.739	
O	-0.0893619818	 1.4272628146	 0.0049553919	-0.418994
C	-0.0142458465	 0.0179287249	-0.0051611173	 0.105729
C	-1.4294780864	-0.5423607965	 0.0890689233	-0.221088
C	-1.4005331084	-2.0727851929	-0.0353547841	-0.217104
C	-0.640871027	-2.4916549692	-1.2928977343	-0.081984
O	 0.6747464959	-1.9265134642	-1.3268493064	-0.246933
C	 0.6829986909	-0.5154164691	-1.2856591427	-0.071978
C	 0.0863367694	 0.075290891	-2.5072174447	 0.286984
N	-0.3781931938	 0.502633189	-3.4749806619	-0.332403
H	 0.7994199032	 1.7912393435	 0.0749159113	 0.290373
H	 0.5820975401	-0.3606693696	 0.8392361967	 0.084204
H	-1.8794271133	-0.2263767372	 1.0345908966	 0.112859
H	-2.0293876517	-0.1028884095	-0.7169622687	 0.131273
H	-0.9093789722	-2.5108353924	 0.8419324896	 0.108639
H	-2.4183999718	-2.4753744085	-0.0721634884	 0.10958
H	-0.4856739856	-3.5722731684	-1.3311202818	 0.118596
H	-1.1940275747	-2.1929033612	-2.1956013273	 0.11917
H	 1.7407860737	-0.2271250042	-1.2696535017	 0.123078
