20
gdb 41533	2.70657	1.60006	1.10397	3.611	79.8	-0.2396	0.0305	0.2701	1123.6534	0.174384	-403.15404	-403.146271	-403.145327	-403.186621	30.165	
C	 0.0920613629	 1.5351312195	-0.1435798125	-0.120644
O	 1.2727511971	 1.5273477634	 0.7147867633	-0.260371
C	 1.2202533423	 0.1563407133	 0.8421528501	 0.449163
N	 1.9585654194	-0.5315129966	 1.5776988576	-0.305431
C	 1.771969627	-1.9727829158	 1.6642009116	-0.144233
C	 0.5927953878	-2.6264793566	 0.9113180594	-0.211893
C	-0.7818791536	-2.0119273506	 1.2462292765	-0.192759
C	-1.171927691	-0.7713989856	 0.398913823	-0.226358
C	 0.0493136121	-0.0077859205	-0.1225324664	-0.156165
H	-0.7455917118	 2.0356270197	 0.3520813083	 0.116435
H	 0.3050409842	 2.0139868403	-1.1023342568	 0.117236
H	 2.7097592975	-2.4508582179	 1.350999787	 0.106995
H	 1.6683845919	-2.2104556371	 2.7323837612	 0.108948
H	 0.7706016456	-2.6083534102	-0.1707105775	 0.096707
H	 0.5916258197	-3.686181991	 1.192548409	 0.095649
H	-1.5633033419	-2.7705823822	 1.133972771	 0.098279
H	-0.7818349987	-1.7360394862	 2.3074880897	 0.108837
H	-1.7918733075	-1.0757318942	-0.4513025936	 0.103924
H	-1.7928000919	-0.1034067773	 1.0061892686	 0.10649
H	 0.3911353488	-0.4279807447	-1.0722588097	 0.109191
