16
gdb 61142	3.69443	0.86861	0.76359	3.0879	76.13	-0.2778	-0.0909	0.1869	1442.1343	0.120812	-400.738782	-400.728927	-400.727983	-400.774306	34.359	
C	 0.2393478355	 1.424592972	 0.121721899	-0.416079
C	-0.0294594407	-0.0876661754	-0.0167156853	-0.103288
C	-1.5339589383	-0.4332243221	-0.0240155548	-0.374153
C	-2.1844921219	-0.0928503747	 1.2342487453	 0.286247
C	-2.6994888059	 0.1899253363	 2.282695309	-0.423188
C	 0.6326902823	-0.6255400621	-1.2701585741	 0.293152
O	 0.0592029358	-1.1185681484	-2.2082177203	-0.273821
C	 2.1107224264	-0.5081355687	-1.2913868217	 0.245672
N	 3.2638397856	-0.4219388124	-1.2951329176	-0.301066
H	 1.3103256394	 1.639870745	 0.1567905329	 0.148334
H	-0.1977456806	 1.9751783741	-0.7175213049	 0.135287
H	-0.2171438544	 1.786455255	 1.045375505	 0.153975
H	 0.4523258879	-0.5924364122	 0.8322361125	 0.129348
H	-2.0189059787	 0.0917008607	-0.8554914657	 0.148387
H	-1.6595085557	-1.5011033389	-0.233656476	 0.149706
H	-3.1718682467	 0.4320367018	 3.2025460068	 0.201487
