15
gdb 26441	3.85612	1.0675	0.98962	1.4988	68.5	-0.2289	-0.0492	0.1797	1184.6481	0.113592	-453.985059	-453.977171	-453.976227	-454.01859	28.563	
O	-1.0289898628	 0.0262678268	-0.03783555	-0.439269
C	 0.2538432032	-0.4984721563	-0.2714443395	-0.076018
C	 1.1104980744	 0.5529634402	-0.9801794494	 0.134427
O	 0.6564948161	 1.6279019189	-1.2846064979	-0.255487
C	 0.913934542	-0.8916437871	 1.0179021864	 0.280675
C	 1.9421224138	-1.7391588727	 1.3506786987	-0.179319
N	 2.2069850033	-1.6726722399	 2.6988253145	-0.255659
C	 1.3495930649	-0.7987588971	 3.176914913	 0.018854
N	 0.5544763797	-0.2841168208	 2.1989142213	-0.28066
H	-1.0414371452	 0.8809943385	-0.5009646663	 0.299239
H	 0.2157277015	-1.3776168871	-0.9379471979	 0.116696
H	 2.1619269606	 0.2702573842	-1.1784748818	 0.11659
H	 2.5004620383	-2.3956741041	 0.6999220846	 0.109943
H	 1.2527510723	-0.5071359279	 4.2118850674	 0.134935
H	-0.2355821519	 0.3342673342	 2.2888316368	 0.275054
