16
gdb 81418	3.50154	1.20137	1.0695	3.4142	74.27	-0.2457	-0.0689	0.1768	1124.5637	0.125656	-437.847652	-437.840398	-437.839454	-437.879562	28.273	
O	 0.1818309873	 1.3177370687	-0.1722760356	-0.435664
C	 0.0573503612	-0.0512903142	-0.0710734252	 0.216678
C	 0.0612569836	-0.655839587	 1.4125674141	-0.109201
N	-1.3459707704	-0.1268280515	 1.462682117	-0.334241
C	-1.4146147597	-0.6347225867	 0.0491394929	-0.174503
C	-1.0911102159	-2.1205371525	 0.1686629703	 0.258474
C	-1.6397172593	-3.2229989161	-0.608270596	 0.041095
O	-2.4422757405	-3.0932679439	-1.5080512295	-0.275661
C	-0.0983706828	-2.1266802172	 1.0861130535	-0.178419
H	-0.4358574335	 1.6862307476	 0.4768782015	 0.293367
H	 0.7211832491	-0.5197999791	-0.7980608586	 0.101429
H	 0.7644012682	-0.3304210892	 2.1779514352	 0.083849
H	-1.9460448052	-0.6481197785	 2.1038698547	 0.213945
H	-2.2376497487	-0.3145740027	-0.585952764	 0.098959
H	-1.2639848416	-4.2273262895	-0.3105312217	 0.07109
H	 0.5060731182	-2.9518656781	 1.4386327213	 0.128802
