15
gdb 2485	4.97197	2.70748	2.50032	2.0761	55.65	-0.2442	0.0826	0.3268	603.0496	0.1273	-345.629039	-345.623516	-345.622572	-345.658078	22.389	
O	 0.0560797174	 1.3602567732	-0.0458918886	-0.445408
C	 0.0316155581	-0.0482952574	-0.0339308015	 0.175338
C	 0.5159647584	-0.6811555057	 1.3175694801	-0.265072
C	-0.8364124674	-1.2803433513	 1.7437580341	 0.083408
C	-1.2951789588	-2.0470815072	 0.4827204415	-0.23372
C	-1.4158461052	-0.5870298326	 0.0102154641	 0.038221
O	-1.7802184632	-0.2098736076	 1.3829854212	-0.316755
H	-0.546491843	 1.6320152676	 0.6596450625	 0.281466
H	 0.5998043753	-0.381483426	-0.905437826	 0.085383
H	 1.2984482557	-1.4351399618	 1.1982596673	 0.102551
H	 0.8720354939	 0.0938959609	 1.999588196	 0.110436
H	-0.9648596747	-1.6547667149	 2.758771518	 0.084273
H	-0.5887840081	-2.7144485531	-0.0179374768	 0.098227
H	-2.2705833973	-2.5170283448	 0.6115520446	 0.115674
H	-2.114434351	-0.2383816192	-0.7499178565	 0.08598
