17
gdb 36240	4.47646	1.10085	1.05222	2.0778	76.32	-0.2369	0.0547	0.2916	1163.9038	0.135258	-384.582535	-384.574983	-384.574039	-384.614975	29.671	
C	 0.0130945843	-1.192639503	 0.0970831469	-0.455261
C	-0.0361003235	 0.0079285186	 0.0541129473	 0.297536
C	-0.045477889	 1.4651649416	 0.0035326524	-0.376404
C	 1.3688987079	 2.0576832776	 0.0008000552	 0.021181
C	 1.5660530274	 3.5753180542	 0.0013166237	-0.155362
C	 1.5436153847	 3.9678098847	 1.4905148746	 0.095093
O	 1.2622095548	 2.7953859633	 2.2546871115	-0.289604
C	 2.1568520129	 2.0939067677	 1.3430445255	 0.057638
C	 2.8037879387	 3.4554135425	 0.8896688316	-0.151438
H	 0.0362971314	-2.253282659	 0.1366888185	 0.193176
H	-0.5819690516	 1.8009441499	-0.8934637186	 0.124053
H	-0.5859096139	 1.8674936798	 0.8672837554	 0.14691
H	 1.9884513642	 1.5975213715	-0.7740073492	 0.089936
H	 1.3788374602	 4.2843724683	-0.7952387729	 0.092461
H	 1.2510309563	 4.9345538169	 1.8774128179	 0.1124
H	 2.6271865367	 1.2177811015	 1.7822416194	 0.094176
H	 3.8128011084	 3.8322639141	 0.8055811807	 0.103508
