19
gdb 81143	2.56749	1.50676	1.28809	4.3358	79.72	-0.2511	0.0132	0.2644	1067.9099	0.161784	-382.065299	-382.057391	-382.056447	-382.097462	31.154	
C	-0.1785612326	 1.638630697	-0.0156274065	-0.443407
C	 0.0262990149	 0.1335184746	 0.0134028861	 0.003184
C	 1.1673704176	-0.6055091916	-0.7456763853	-0.038152
C	 2.4551815814	 0.0708049649	-0.245146235	-0.20501
C	 2.1280986301	 0.0789024987	 1.2817879592	-0.242686
C	 0.7404096785	-0.6020262356	 1.1993316799	 0.210921
N	 1.0730555709	-1.7424106714	 0.2542728733	-0.347003
C	 0.0498091638	-0.902143615	 2.434502957	 0.161842
N	-0.5255586882	-1.1248179976	 3.4124902684	-0.340627
H	 0.7425676138	 2.1965444758	 0.1704116212	 0.124851
H	-0.5647027339	 1.9505158284	-0.991973377	 0.126345
H	-0.9111963566	 1.9406001707	 0.7401903409	 0.136225
H	-0.9209946078	-0.3797705516	-0.1826208193	 0.086521
H	 1.0955004959	-0.8601960803	-1.8025396039	 0.077949
H	 3.3324124583	-0.534831945	-0.4762335302	 0.118369
H	 2.5990435085	 1.070646177	-0.6606565776	 0.104523
H	 2.8184340115	-0.5277520596	 1.8681817276	 0.128423
H	 2.0746262961	 1.0775290536	 1.7190950743	 0.114407
H	 0.2007134677	-2.241988103	 0.070536187	 0.223327
