15
gdb 16750	4.79816	1.60254	1.41079	4.274	61.95	-0.2473	0.0238	0.2712	873.4306	0.120307	-399.810077	-399.80338	-399.802436	-399.841614	24.676	
O	-0.0373818671	-0.0225885	 0.0242848693	-0.336145
C	 0.0209788433	 1.1890967764	 0.0233738038	 0.150752
N	 1.1736164923	 1.9100002154	 0.0296425508	-0.050697
C	 2.4737750877	 1.2691200858	-0.1742512861	-0.195089
C	 3.2668163035	 2.3282311679	-0.912260046	 0.03454
O	 2.5996807895	 2.8252365476	-2.0773916166	-0.244601
C	 2.5202197839	 3.5906083569	-0.8744571749	 0.040532
C	 1.2333622924	 3.3644782054	-0.1035412959	-0.208081
H	-0.8760908397	 1.8397743305	 0.0259809311	 0.07241
H	 2.9657564007	 1.0219355007	 0.7765437714	 0.117209
H	 2.3346520293	 0.3426194045	-0.7364717772	 0.152893
H	 4.3497995865	 2.2701463899	-0.9652118929	 0.109136
H	 2.9839682861	 4.572536913	-0.8901699194	 0.108894
H	 0.3501074954	 3.7425734815	-0.627649863	 0.133312
H	 1.2982793461	 3.8706344546	 0.8708114956	 0.114935
