21
gdb 114212	3.28122	1.08623	0.92097	2.3356	79.57	-0.2514	0.0671	0.3185	1338.2896	0.180354	-424.185247	-424.175644	-424.1747	-424.219906	35.289	
C	-0.5113009517	 1.5541679832	-0.0844706372	-0.238519
O	-0.3849959616	 0.3224996785	 0.5892759151	-0.237727
C	-1.2146074434	-0.6803368129	 0.0729996063	 0.150372
C	-0.8222869013	-1.3326300887	-1.2929065668	-0.366069
C	-1.0445482246	-2.6884416179	-0.6219583164	 0.469702
C	-1.7799344236	-3.8530134202	-1.11475601	-0.269303
O	-0.3527861975	-3.8772823894	-0.958576628	-0.270047
C	-1.0581846476	-2.0606556493	 0.7812880234	-0.155649
C	 0.2441343853	-2.2506066466	 1.5569803523	-0.378856
H	 0.1557319719	 2.2648318266	 0.4091761399	 0.128441
H	-0.2240307364	 1.4763626237	-1.1438457744	 0.109793
H	-1.5421570088	 1.9393674687	-0.0352302744	 0.104223
H	-2.2620900075	-0.3422023612	 0.0653186322	 0.064985
H	-1.4200910538	-1.093987557	-2.1753053778	 0.102561
H	 0.2366849692	-1.1678943001	-1.5138290759	 0.121732
H	-2.3358185539	-4.4800541103	-0.4179120034	 0.113471
H	-2.1350674694	-3.8766231619	-2.144754809	 0.112784
H	-1.9110364752	-2.3436870334	 1.405725244	 0.072325
H	 1.1142671	-1.9624899028	 0.9614744837	 0.123659
H	 0.2453373405	-1.6413323147	 2.4642596062	 0.121823
H	 0.3606363793	-3.3014465044	 1.8365571503	 0.120299
