11
gdb 497	12.81085	1.74827	1.68822	3.3746	49.89	-0.2561	0.0191	0.2752	691.5345	0.083614	-285.276634	-285.270024	-285.269079	-285.307545	22.134	
O	 0.0553863034	 0.2128814602	-0.9157243764	-0.31857
C	 0.0489362622	 1.2558751368	-0.2980509908	 0.162687
N	 1.1211990475	 1.7868866199	 0.3495405776	-0.272402
C	 2.4398147433	 1.16650353	 0.2982326205	-0.283649
C	 3.4863467435	 2.1197344589	-0.0551533043	 0.283153
C	 4.3432895083	 2.9188259306	-0.3200143703	-0.439385
H	-0.8506188883	 1.8923701551	-0.1894560781	 0.08268
H	 1.0300212049	 2.6849739642	 0.7966538673	 0.256627
H	 2.681171735	 0.6928687489	 1.259481509	 0.143403
H	 2.3673269422	 0.3641705628	-0.4429738562	 0.179271
H	 5.1067823278	 3.6137911227	-0.5692414983	 0.206184
