18
gdb 34862	2.56693	1.57677	1.4665	2.2102	73.94	-0.2611	0.0156	0.2768	988.2445	0.15061	-401.957283	-401.949917	-401.948973	-401.98916	28.813	
N	-0.0943440731	-1.2289605711	-0.1255680481	-0.344082
C	-0.0598261835	-0.0743522704	-0.0659398124	 0.281291
C	-0.0018204752	 1.3715489918	 0.0245157947	-0.161408
C	-0.1181729329	 2.0907358862	 1.4004152753	 0.082822
C	 0.5630565586	 1.2976414749	 2.5187353288	-0.242358
C	 2.0917147921	 1.267295711	 2.2614030537	-0.186762
C	 2.450022111	 1.3323224586	 0.7543117628	-0.242358
C	 1.3644112649	 2.1179856999	 0.0141129043	 0.082822
O	 0.7877838518	 3.1155190462	 0.903240707	-0.294825
H	-0.6857453694	 1.8210862594	-0.6980738596	 0.133528
H	-1.095018412	 2.4982096308	 1.6686276827	 0.09414
H	 0.3598952775	 1.7678695265	 3.4854899057	 0.109514
H	 0.1347383505	 0.2899498916	 2.5580063856	 0.12794
H	 2.5270482525	 2.1449462141	 2.7442221483	 0.120983
H	 2.5453213483	 0.390208468	 2.7292737612	 0.107157
H	 3.4187895235	 1.8240891669	 0.6252442068	 0.109514
H	 2.5375901051	 0.3341125002	 0.3111978039	 0.127941
H	 1.6892875703	 2.5493847151	-0.9348603308	 0.09414
