13
gdb 125802	3.48016	1.65181	1.128	0.7446	66.21	-0.2667	-0.0573	0.2094	989.4132	0.090417	-452.699007	-452.692338	-452.691394	-452.73023	25.01	
C	-0.0147505717	 1.4996216979	-0.0195133598	-0.50281
C	-0.0082038335	 0.00981109	 0.0637527901	 0.232939
N	-0.0456128853	-0.7244719739	-1.0330949381	-0.178426
O	-0.0292858286	-2.0895797417	-0.6685217404	-0.233535
C	 0.0185395907	-2.1217837989	 0.6698511709	 0.284322
C	 0.0338623	-0.8644708675	 1.1845925064	 0.238403
O	 0.0817237438	-0.8955339629	 2.5243854038	-0.230306
N	 0.098323752	-2.2534562499	 2.8970213659	-0.115588
C	 0.0608198909	-2.9775929945	 1.7959309055	-0.119469
H	 0.884141077	 1.9164930785	 0.4452621213	 0.152023
H	-0.0525339274	 1.810688362	-1.0644552289	 0.161068
H	-0.8804986994	 1.9122305782	 0.507783471	 0.152028
H	 0.0664372815	-4.0535032973	 1.8799482924	 0.159351
