19
gdb 40683	3.56339	1.00368	0.90432	3.0943	76.53	-0.2437	0.0666	0.3103	1330.0912	0.158645	-422.95682	-422.948398	-422.947454	-422.990765	31.061	
C	-0.0037360675	 1.4859802887	-0.042506955	-0.186795
O	 1.1656853928	 0.6653903885	-0.0690791252	-0.2398
C	-0.112548956	 0.0222937797	-0.0078844672	 0.092196
C	-0.4318725884	-0.7269443529	 1.2400803556	-0.098079
C	-1.6358128141	-1.6509239345	 1.2678892609	-0.369692
C	-0.2527930218	-2.2171074642	 1.2874104703	 0.286676
C	 0.4281154366	-3.1392254195	 0.2783280562	-0.1401
O	 1.0247558243	-3.90079305	 1.3509822964	-0.274994
C	 0.4236575323	-3.0623229094	 2.3615189686	-0.136811
H	-0.1554850249	 2.054052366	 0.874808675	 0.113385
H	-0.220206589	 2.0273668955	-0.9626658489	 0.114978
H	-0.3955858661	-0.4832205352	-0.9338530763	 0.089612
H	-0.2051257072	-0.1855414304	 2.1553392089	 0.092222
H	-2.2271732362	-1.6918807652	 2.1770075249	 0.119271
H	-2.2156027958	-1.7548682045	 0.3547107141	 0.11675
H	-0.2397724395	-3.7544238497	-0.3391924987	 0.100293
H	 1.1866744959	-2.6724854423	-0.3633630964	 0.114443
H	 1.1781207611	-2.5479329884	 2.9714612944	 0.105364
H	-0.2480349265	-3.6292145622	 3.0200652425	 0.101082
