21
gdb 105179	2.22518	1.02301	0.78936	1.8681	89.51	-0.2413	0.0369	0.2782	1570.4526	0.17868	-387.060285	-387.04917	-387.048226	-387.09809	38.657	
C	 0.1327223171	 1.4268398701	-0.5163965384	-0.377291
C	 0.0230527463	 0.140724205	 0.3106535586	-0.267478
C	-1.3621887611	-0.4809413269	 0.2247832225	 0.167312
O	-1.6918197226	-1.0907380748	-1.0470309587	-0.289535
C	-1.589021061	-1.9435846551	 0.0929908427	 0.036632
C	-0.5170565548	-3.0031343318	 0.0890270436	-0.428694
C	-2.4222792921	 0.3116469544	 0.8126135264	 0.039123
C	-3.2865143989	 0.9827222108	 1.3171080203	 0.119428
C	-4.3404452275	 1.7858098679	 1.9193157994	-0.503518
H	 1.1368522251	 1.8537118479	-0.4383438467	 0.109549
H	-0.0717461696	 1.2211760197	-1.5711876805	 0.131878
H	-0.5851515556	 2.1770377275	-0.1723314534	 0.127229
H	 0.7655259496	-0.5820827644	-0.0360234823	 0.102645
H	 0.2411769049	 0.3496449156	 1.3647694268	 0.10489
H	-2.5576856403	-2.2941838555	 0.4556678621	 0.088919
H	 0.4349387051	-2.6281199525	-0.2895560833	 0.130021
H	-0.3660709978	-3.3966830521	 1.0999538731	 0.124809
H	-0.8273310938	-3.8365800227	-0.5503814099	 0.131301
H	-5.3112432138	 1.2835267766	 1.8466590871	 0.151906
H	-4.1408242319	 1.9695421514	 2.9808465294	 0.14966
H	-4.4318314271	 2.7594375191	 1.4254196713	 0.151214
