19
gdb 52693	3.01497	0.86641	0.70599	3.2343	80.22	-0.2432	0.0315	0.2747	1606.6813	0.157031	-422.971112	-422.960814	-422.95987	-423.00891	34.971	
C	 0.0579686251	 1.4449811462	 0.0973172857	-0.499989
C	 0.0458263701	-0.0097082205	 0.0478822915	 0.08619
C	 0.0402574386	-1.214480214	 0.0276713501	 0.032803
C	-0.0008586054	-2.6766845993	-0.0523923121	-0.069665
O	-1.3243066407	-3.1898218185	 0.0939355831	-0.421563
C	 0.6417659315	-3.1817077514	-1.3494249072	-0.029776
C	 2.1795260659	-3.0711051798	-1.4212709751	-0.083462
O	 2.3295328783	-4.501607667	-1.3143441926	-0.274254
C	 0.9008428076	-4.7012380285	-1.3871678624	-0.090705
H	 0.8814389532	 1.8111423551	 0.7200189969	 0.154538
H	 0.1762279552	 1.8797280923	-0.9011202192	 0.150062
H	-0.8746876772	 1.8324997882	 0.5215747705	 0.153784
H	 0.5559367442	-3.1033297192	 0.7924517652	 0.119477
H	-1.8966136845	-2.6769007843	-0.4874605482	 0.282517
H	 0.1021749896	-2.7720751953	-2.2070052969	 0.075547
H	 2.5754003901	-2.6848834169	-2.3690597041	 0.098788
H	 2.6621488389	-2.5380024761	-0.5926024587	 0.106001
H	 0.5131475005	-5.2716928002	-0.535348256	 0.11427
H	 0.6051558988	-5.2026107007	-2.3173709906	 0.095438
