21
gdb 102298	2.57396	0.86376	0.7599	2.8984	81.1	-0.2555	0.0466	0.3021	1595.9761	0.17902	-424.191001	-424.179951	-424.179007	-424.227547	39.97	
C	-0.025538071	 1.5821286495	-0.0402744978	-0.401692
C	 0.0088794633	 0.053915269	-0.0163313757	 0.118477
O	 0.8443382398	-0.4591173971	-1.0542458322	-0.433009
C	 0.5763276215	-0.4889741833	 1.2942415701	-0.188289
C	 0.5562459773	-2.029238895	 1.382635393	-0.161069
C	 1.3463251066	-2.5290832365	 2.6143260013	-0.067976
O	 1.3712132442	-3.9351800498	 2.7163585174	-0.422179
C	-0.8056158698	-2.5598902437	 1.4344652027	 0.318546
C	-1.9136281368	-3.0199755516	 1.535579352	-0.495724
H	 0.9817847952	 1.9901185739	 0.0911490445	 0.12397
H	-0.4172715596	 1.9462641475	-0.9968275758	 0.105132
H	-0.6696703459	 1.9755357681	 0.7530261977	 0.116509
H	-1.0160715268	-0.3314457529	-0.1359413327	 0.079586
H	 0.4593568635	-0.2093237532	-1.8996598282	 0.283404
H	 1.6157710629	-0.1496999726	 1.3835657369	 0.105352
H	 0.0163939403	-0.0635336589	 2.1340481609	 0.102706
H	 1.04794115	-2.4255687802	 0.48698215	 0.133797
H	 2.388278396	-2.2070061749	 2.5205314927	 0.111169
H	 0.9295879666	-2.0619411605	 3.5215900776	 0.087689
H	 0.4535460035	-4.2334586391	 2.7214419413	 0.284213
H	-2.8967935506	-3.4173390387	 1.5955452042	 0.199387
