18
gdb 39693	5.08414	0.89021	0.80518	4.1059	75.28	-0.2371	0.0145	0.2516	1419.1522	0.147829	-439.04994	-439.041536	-439.040592	-439.085236	29.679	
C	-0.0849562015	 1.421787815	 0.1635021651	-0.077638
C	 1.4269555338	 1.3059528655	-0.1221704264	-0.373462
C	 1.2888522036	-0.0278006288	 0.579511055	 0.470562
O	-0.0697622277	 0.1122317541	 0.8132875954	-0.262202
N	 2.0568938038	-0.966906068	 0.8823608193	-0.338092
C	 1.5097934121	-2.1101901329	 1.5798480783	-0.013093
C	 2.5271752361	-3.0342202355	 2.2766378801	-0.08727
O	 1.7836793447	-2.9821860077	 3.5137211124	-0.276492
C	 0.9332230264	-1.9345115803	 3.0091272051	-0.076001
H	-0.3875992868	 2.2015341145	 0.8660624347	 0.12727
H	-0.7457200279	 1.4168913401	-0.7062486713	 0.126948
H	 1.7128013069	 1.2428172368	-1.1733356254	 0.142068
H	 2.0685536711	 2.0273038729	 0.38626184	 0.142612
H	 0.8216056594	-2.6615808557	 0.9298655292	 0.094454
H	 2.6265247805	-4.0582065369	 1.8995271825	 0.099037
H	 3.520557848	-2.5762115806	 2.3684151949	 0.101929
H	 1.1670567873	-0.9587500226	 3.4562034763	 0.093725
H	-0.1301813199	-2.1543721499	 3.150890235	 0.105646
