19
gdb 69980	2.46689	1.85498	1.37464	2.393	74.24	-0.2122	0.0625	0.2747	991.6361	0.158829	-422.968315	-422.960359	-422.959414	-423.000005	32.788	
O	 0.1170397584	 1.3907140439	-0.0910462808	-0.463664
C	 0.0075184068	 0.0235835686	-0.0017620894	 0.402101
C	-0.3385743537	-0.794523966	-1.1871206386	-0.342909
C	-1.200813432	-0.9410748115	 0.0572788396	-0.161713
C	-0.4899191946	-1.7677825141	 1.1515073578	-0.086607
C	 0.4798911862	-2.9262923546	 0.7482386929	-0.244369
C	 1.6910930578	-1.9346815197	 0.7797917756	-0.309276
C	 0.7102157967	-0.7757944339	 1.1222755945	 0.344344
O	 1.0068904511	 0.1203729927	 2.1585929328	-0.501997
H	 0.1941993541	 1.7132130924	 0.8166138838	 0.294408
H	-0.8154309986	-0.2161362615	-1.9730504431	 0.121527
H	 0.2934323511	-1.5967497492	-1.5598550972	 0.106353
H	-2.2674064137	-0.7555707074	 0.0117724323	 0.087359
H	-1.0681871574	-1.8983279746	 2.0673431818	 0.066158
H	 0.5463502528	-3.7207343913	 1.4948809397	 0.097439
H	 0.2768201912	-3.3888231533	-0.2197457805	 0.107402
H	 2.3859446829	-2.1371393375	 1.6015127868	 0.091211
H	 2.2735547135	-1.8252501909	-0.1388417901	 0.108436
H	 1.2166007873	-0.377372812	 2.9549576922	 0.283797
