19
gdb 91280	3.43956	1.28821	1.11345	3.6245	77.72	-0.2239	0.033	0.2569	1149.124	0.160562	-419.205332	-419.197354	-419.196409	-419.238072	30.598	
C	-0.0298265545	 1.4782663491	-0.0274885253	-0.327756
N	 0.017735629	 0.0405238565	 0.099947269	-0.071266
C	-1.2214206811	-0.6940988762	 0.4215625477	-0.190915
C	-0.4033587748	-1.6115892472	 1.350648854	 0.086538
O	 0.092689356	-2.789879337	 0.7203138944	-0.252817
C	 1.4126608273	-2.663149988	 0.3572008823	 0.413
N	 2.0532641343	-3.5319087163	-0.2938082506	-0.534023
C	 1.9756033755	-1.3537190916	 0.8801353389	-0.307635
C	 0.731364969	-0.5606082878	 1.2494515588	-0.013542
H	 0.9797439303	 1.871977976	-0.185180069	 0.125101
H	-0.6333092977	 1.7526860837	-0.8989668294	 0.126961
H	-0.4609976112	 1.9829004205	 0.858742622	 0.09054
H	-1.9543215636	-0.0995611457	 0.9913827369	 0.088713
H	-1.7199048033	-1.1655967462	-0.4313539261	 0.115875
H	-0.8319477478	-1.8783555142	 2.3169100202	 0.094141
H	 1.4527833344	-4.3273655595	-0.5175343958	 0.221286
H	 2.6051349697	-1.5531338781	 1.7545267987	 0.126899
H	 2.5897906009	-0.8687493836	 0.1204858456	 0.141397
H	 0.8459906977	 0.1064011056	 2.1131315077	 0.067504
