17
gdb 11267	4.40591	1.36103	1.15356	5.4216	75.91	-0.2063	-0.0267	0.1796	1047.2963	0.143023	-363.896283	-363.888513	-363.887569	-363.928521	28.791	
C	 0.1181821771	 1.5208908065	 0.0464695079	-0.394028
C	-0.0603195435	 0.0027957337	-0.0251790036	 0.036714
C	 0.6808357012	-0.6431629071	-1.2344940933	-0.329241
C	 1.9093627369	-1.2633591642	-0.597770729	 0.181896
C	 3.0254332647	-1.8314906071	-1.3033699135	 0.05211
O	 3.1437768153	-1.8600435747	-2.5164095613	-0.312661
C	 1.7579125223	-1.2242730357	 0.7487487272	-0.076014
N	 0.5702550124	-0.6709247116	 1.1362174834	-0.282214
H	 1.1807023668	 1.7853491996	 0.0355121405	 0.131222
H	-0.3624436842	 1.999752619	-0.8124317225	 0.128544
H	-0.3324719233	 1.9350203826	 0.9554950604	 0.11052
H	-1.127975228	-0.236712766	-0.0388962415	 0.091419
H	 0.0631757827	-1.4074014656	-1.7199030949	 0.120318
H	 0.9308394203	 0.0947335168	-2.0024635734	 0.123432
H	 3.8168601689	-2.2580344728	-0.6427067021	 0.04202
H	 2.4443438287	-1.6031194408	 1.4971697664	 0.13102
H	 0.4811490719	-0.2548330126	 2.0510770193	 0.244945
