23
gdb 68188	2.90398	1.31723	1.29325	1.2971	85.26	-0.2537	0.0766	0.3303	1154.5937	0.205815	-388.294695	-388.285832	-388.284888	-388.327121	36.502	
C	-0.0207368509	 1.5337768281	 0.0669316718	-0.497191
C	 0.0213893868	 0.02330355	 0.0377151316	 0.350095
C	 0.9869264119	-0.7706766977	-0.8970565093	-0.271249
C	 0.6973909845	-1.925652148	 0.1022440223	-0.038308
C	 0.640752531	-0.8224854759	 1.1959752713	-0.265271
C	-0.8004429938	-2.2145234139	-0.1294662311	 0.431845
C	-1.1044579793	-3.0609608227	-1.3645679449	-0.463019
O	-1.283697644	-2.8884107767	 1.0348725875	-0.488156
C	-1.3054113733	-0.729585418	-0.212610495	-0.306999
H	 0.9745744586	 1.9567707111	 0.2410542762	 0.110509
H	-0.3948718431	 1.9394661013	-0.8806226223	 0.111314
H	-0.6812658236	 1.8958045228	 0.8635873294	 0.113915
H	 0.7109280636	-0.8916771236	-1.949054368	 0.083634
H	 2.0184327314	-0.4158630477	-0.8258415824	 0.093037
H	 1.3447595479	-2.7987579594	 0.1891764286	 0.058133
H	 1.6344345026	-0.4643253673	 1.4776890622	 0.086006
H	 0.0346848935	-1.0181410127	 2.0819249934	 0.104932
H	-0.6914868489	-4.067095726	-1.2422212274	 0.12124
H	-2.188413924	-3.1543020191	-1.5093976301	 0.102721
H	-0.6926049378	-2.6237817403	-2.2780340192	 0.117537
H	-2.2186068745	-3.0749063568	 0.9000478627	 0.271161
H	-2.0509129793	-0.5323401955	 0.5640914939	 0.089257
H	-1.7434758495	-0.480687592	-1.185616271	 0.084855
