20
gdb 126613	4.47783	0.83464	0.74455	2.8276	82.42	-0.2463	0.018	0.2643	1595.5447	0.17183	-399.374738	-399.365277	-399.364333	-399.410208	33.344	
C	 0.0102381708	 1.5114133421	-0.0555407024	-0.382169
C	 0.1716188447	-0.0100647724	-0.0687012179	-0.171133
C	 0.5998592464	-0.5531768996	 1.2983123408	-0.14657
N	 0.7268643243	-1.9994382706	 1.3132868404	 0.055785
C	 1.8306166799	-2.7678487583	 1.3899960678	-0.003163
N	 1.5138392949	-4.0474185514	 1.3400519542	-0.317401
C	 0.1523402808	-4.0173404983	 1.2257393199	 0.351647
C	-0.6870443821	-5.2474422767	 1.1370673615	-0.480561
N	-0.3671217072	-2.7960742	 1.2048367337	-0.305837
H	 0.9487206271	 2.0126689807	 0.2069802908	 0.116291
H	-0.2987391047	 1.8799456797	-1.0376081176	 0.123375
H	-0.7478159867	 1.8250180959	 0.670476247	 0.122103
H	-0.7693953553	-0.4933151526	-0.3494950918	 0.13247
H	 0.9154731095	-0.3075109019	-0.8173123705	 0.106186
H	 1.5703964012	-0.1413903503	 1.5936784739	 0.119105
H	-0.1289010142	-0.2693790392	 2.0647529975	 0.131782
H	 2.8243283383	-2.3546943616	 1.4846917493	 0.135651
H	-0.5519702684	-5.8733825911	 2.0247628061	 0.138178
H	-1.7412024504	-4.9791713582	 1.0495696987	 0.136395
H	-0.3998814789	-5.8499688963	 0.2696018987	 0.137866
