18
gdb 76536	2.67431	1.21148	1.19618	5.175	73.4	-0.2425	0.0006	0.2431	1163.3181	0.146216	-439.075358	-439.066378	-439.065434	-439.109069	32.528	
C	-0.1279064141	 1.5535492777	 0.2660480449	-0.421429
C	 0.0403577773	 0.0561584408	 0.1274784726	-0.061933
N	 1.2934449599	-0.5906939628	-0.2519319041	-0.135686
C	 2.4919667539	 0.1874773459	-0.5374024559	-0.325194
C	 0.8510613051	-0.7179852283	 1.1162999569	 0.106539
C	 1.4774171926	-0.2619202493	 2.4360259322	-0.155959
O	 1.0816837064	-1.5349685326	 3.0352883191	-0.252949
C	 0.5422015135	-2.005109974	 1.849840934	 0.432494
O	 0.0340803757	-3.0578510812	 1.6476385495	-0.3331
H	 0.7089404648	 2.0304846352	 0.7814756375	 0.123628
H	-0.232297538	 2.0228804895	-0.717846161	 0.135443
H	-1.0376162504	 1.7719995295	 0.8343882611	 0.136587
H	-0.8273927936	-0.4536377655	-0.2892641458	 0.116579
H	 2.6427397591	 1.065754745	 0.106862243	 0.106578
H	 3.3636829591	-0.465120413	-0.4327774385	 0.138307
H	 2.4482080274	 0.5277716031	-1.575922477	 0.13628
H	 2.5645281032	-0.1490267536	 2.4448693902	 0.127434
H	 0.9999612081	 0.5752153437	 2.9505290813	 0.126382
