18
gdb 72596	2.24546	1.64187	1.45453	4.4504	72.51	-0.2334	0.0153	0.2486	1023.9079	0.146156	-439.092735	-439.083979	-439.083034	-439.125678	32.944	
C	-0.1238633078	 1.5807030401	-0.0976062482	-0.477672
C	-0.0130725337	 0.0819354923	 0.0311805858	 0.262096
C	 0.9239432971	-0.7215728577	-0.9004478368	-0.116244
O	 1.4745649647	-1.4651678383	 0.2074419519	-0.322121
C	 0.6932134659	-0.7219546424	 1.180119721	 0.219693
C	 1.4826269159	-0.2128971921	 2.3476606632	-0.48943
C	-0.6800142846	-1.4299000102	 1.3735839076	 0.418448
O	-1.11219898	-2.3272577431	 2.0425840395	-0.360882
N	-1.24265483	-0.6388140513	 0.3842229796	-0.387596
H	 0.8668227829	 2.0407079591	-0.161715401	 0.129835
H	-0.6761542526	 1.8566764811	-1.0037521017	 0.126497
H	-0.652863303	 2.0058579565	 0.7599809073	 0.132622
H	 0.4347040553	-1.3634374212	-1.6418228296	 0.104345
H	 1.6981297402	-0.1181695873	-1.3903116398	 0.106182
H	 2.347473595	 0.3681185142	 2.0145722834	 0.12599
H	 0.8591443121	 0.4099555193	 2.9963584381	 0.131049
H	 1.843077505	-1.0604357832	 2.9395220356	 0.153306
H	-2.0629905225	-0.8225989256	-0.1792387357	 0.24388
