17
gdb 115578	2.85974	1.12002	1.02176	3.1045	65.54	-0.2554	-0.0488	0.2065	1209.9511	0.132946	-496.069743	-496.060273	-496.059328	-496.104803	33.418	
O	-0.0774045587	 1.4039323001	-0.1301522682	-0.422198
C	-0.0404795011	 0.061867069	 0.3148776903	-0.068526
C	-1.3879724289	-0.5891940432	 0.031590628	 0.080481
O	-1.6802187554	-0.534908639	-1.3850556563	-0.299915
C	-1.635112051	-1.973367848	-1.5057795031	-0.123701
C	-1.4476142616	-2.1465707012	 0.0175757801	 0.204958
O	-0.2624687428	-2.7363855953	 0.4990381545	-0.465637
C	-2.65470266	-2.6977172949	 0.7589667515	 0.096488
O	-3.7564925785	-2.8100664683	 0.2890783469	-0.236524
H	-0.3532852971	 1.3697527294	-1.0546819069	 0.294047
H	 0.7607511409	-0.5112447553	-0.1698281271	 0.101387
H	 0.1590005466	 0.0788022765	 1.3907218628	 0.116651
H	-2.1765819603	-0.0904604359	 0.6075974384	 0.097813
H	-2.5713326626	-2.3774791619	-1.9011816464	 0.131451
H	-0.7787518364	-2.3184788623	-2.0964065162	 0.106861
H	-0.2755617293	-3.6785407355	 0.2972650337	 0.292814
H	-2.4217720437	-2.9936692542	 1.807103378	 0.093551
