20
gdb 91973	2.48673	1.60156	1.20599	1.7342	83.34	-0.2299	0.0452	0.2751	1099.2072	0.171203	-365.95884	-365.950255	-365.949311	-365.991758	33.593	
C	 0.7668841104	 1.4509065914	-0.4256183056	-0.404883
C	 0.1695209467	 0.1101976235	 0.0188764504	-0.01323
C	 0.205941389	-0.9910012533	-1.0756131687	-0.245102
C	 1.2827864578	-1.9715239351	-0.6408936515	-0.010856
C	 2.6215031797	-1.4472923705	-0.2698569256	-0.250507
N	 1.638230702	-1.7676884492	 0.7763020269	-0.093571
C	 0.8585064588	-0.5959830145	 1.2522092082	-0.174902
C	 1.6551066587	 0.279237583	 2.1029723647	 0.363062
C	 2.3049789385	 1.0042684464	 2.8079349403	-0.468909
H	 1.7921277868	 1.3596366241	-0.7951180139	 0.122861
H	 0.1628792366	 1.873120079	-1.2358364956	 0.11145
H	 0.7778336467	 2.1680541067	 0.398989075	 0.129833
H	-0.8696427228	 0.3064097982	 0.2997222851	 0.085608
H	-0.7538119146	-1.5153145336	-1.1309623437	 0.105795
H	 0.3975799992	-0.5694056421	-2.0677526877	 0.107532
H	 1.1860557116	-3.0055899825	-0.9610141876	 0.08968
H	 3.4837190711	-2.1077500667	-0.285253946	 0.116693
H	 2.8539577365	-0.4065053686	-0.4683214667	 0.120939
H	 0.0594146498	-1.0250930519	 1.8696285964	 0.112078
H	 2.8821720875	 1.6359590056	 3.4367754057	 0.196429
