21
gdb 64504	3.38417	1.21973	1.09541	1.7138	81.93	-0.2303	0.0784	0.3088	1199.052	0.182366	-387.028121	-387.019621	-387.018677	-387.061072	33.375	
C	-0.1027834583	 1.623274723	-0.3975988746	-0.471004
C	-0.0069287662	 0.1512350425	-0.0434371569	 0.281887
C	-1.2422169013	-0.3861966977	 0.6315844146	-0.042522
C	-1.2516425954	-1.5779846953	 1.5578195349	-0.284691
C	-1.4771983648	-0.1927476184	 2.1107156533	-0.268062
C	 0.6770748157	-0.8658834382	-0.9605678999	-0.171661
C	 1.9264693752	-0.2654858937	-1.5913548161	-0.109905
O	 2.4102197517	 0.1869771523	-0.2959634488	-0.290595
C	 1.3101154856	-0.4605611886	 0.3520307062	 0.045755
H	 0.8587873331	 2.0181692561	-0.7305288505	 0.135652
H	-0.844430935	 1.7933409217	-1.1866187433	 0.109678
H	-0.4136011251	 2.2002016601	 0.4798897593	 0.118045
H	-2.1302019836	-0.2890632362	 0.0096010129	 0.084524
H	-2.0985674452	-2.252853383	 1.4991987852	 0.110503
H	-0.3171840472	-2.0746559922	 1.7919181076	 0.115568
H	-0.6732368498	 0.250555748	 2.6888903389	 0.115104
H	-2.4714978624	 0.0768226342	 2.4491465333	 0.111388
H	 0.1988975305	-1.7924289496	-1.2488000477	 0.096475
H	 2.6082596741	-1.0154280169	-2.0084442502	 0.109476
H	 1.8038319976	 0.5581864019	-2.3043311464	 0.104812
H	 1.5282147006	-0.9947986499	 1.2698477482	 0.099573
