23
gdb 109970	1.76651	1.50116	1.10484	0.6764	91.05	-0.2517	0.0493	0.301	1284.9312	0.204222	-351.121812	-351.111645	-351.110701	-351.156648	38.505	
C	-0.1973441043	 1.8235727886	 0.5408301408	-0.385733
C	-0.3096694505	 0.3076756739	 0.3423011892	-0.200996
C	 0.6332686097	-0.4775201962	 1.2428103574	 0.042176
C	 0.6925373906	-2.039325638	 1.1817170719	-0.006583
C	 0.2559570543	-2.6837249175	-0.1329684407	-0.401016
C	 2.2356221432	-1.9523385404	 1.355302949	-0.235999
C	 2.1923788963	-0.4268278646	 0.9986621848	-0.202423
C	 2.6143492009	-0.1072222468	-0.3521776096	 0.365181
C	 2.9676695471	 0.1574534962	-1.4723420953	-0.503106
H	 0.8097046423	 2.1771147966	 0.2979162983	 0.126543
H	-0.9011103039	 2.3601147324	-0.1030759775	 0.11006
H	-0.4122331392	 2.1062971162	 1.5778213354	 0.108095
H	-1.3389854765	-0.0148617864	 0.5483394342	 0.090116
H	-0.1108597428	 0.0639876854	-0.7067340789	 0.108695
H	 0.4624823751	-0.1742104392	 2.2825859612	 0.070272
H	 0.1705210624	-2.5288067952	 2.0100323474	 0.06406
H	 0.7829225564	-2.252826912	-0.9897641742	 0.13115
H	 0.4737035526	-3.7574196801	-0.1162916861	 0.109446
H	-0.8194329928	-2.5652106694	-0.3028332038	 0.11211
H	 2.5607746903	-2.1103579785	 2.3864522655	 0.09964
H	 2.8381670778	-2.5785699878	 0.6939888136	 0.106416
H	 2.7316907162	 0.2166705664	 1.7000945872	 0.097496
H	 3.2858813747	 0.3922931566	-2.4576501797	 0.194402
