13
gdb 15328	3.29787	1.32513	1.00664	3.5567	67.98	-0.2669	-0.0124	0.2545	1126.6236	0.093308	-361.420896	-361.412525	-361.411581	-361.45633	27.792	
C	 0.0770881139	 1.4986708395	 0.0321117808	-0.503285
C	 0.0428906437	 0.0458815916	 0.0539943781	 0.140083
C	 0.0007376489	-1.1571216871	 0.0779561566	 0.087244
C	-0.0281366625	-2.588891817	 0.0902376614	-0.162024
O	-0.6299078422	-3.2481895832	 1.2165847468	-0.215037
C	-1.2946072832	-3.3631873234	-0.0345674264	-0.097813
C	-2.5676309533	-2.6895778251	-0.1709654595	 0.313392
N	-3.5951453883	-2.179687103	-0.3096606692	-0.320921
H	 0.8796482733	 1.8634857185	-0.6175016997	 0.157663
H	-0.8693528472	 1.9077970667	-0.3362917301	 0.165622
H	 0.249428177	 1.9004809602	 1.0362429087	 0.161817
H	 0.8667886415	-3.0909194801	-0.2764792595	 0.12996
H	-1.2582782617	-4.3495371075	-0.4944343278	 0.143298
