20
gdb 79448	2.71594	1.73838	1.36652	2.6751	77.89	-0.2251	0.0723	0.2974	1013.742	0.173081	-403.089561	-403.082047	-403.081103	-403.121055	30.828	
C	-0.2213637601	 1.6366269774	 0.095575175	-0.441091
C	 0.0527804151	 0.1427149232	 0.0206685416	 0.038793
C	 0.7163461012	-0.5410889558	-1.180003507	-0.020259
C	 2.2821042327	-0.2822066149	-1.2181572711	-0.130607
C	 2.393288851	-1.8023052328	-1.0084498531	-0.161669
N	 1.0834489761	-1.7167058024	-0.2727213666	-0.155946
C	 1.224826726	-0.5636947944	 0.7533631523	-0.048091
C	 2.4628677037	 0.195102635	 0.24452129	 0.151305
O	 3.6361289964	-0.2496324665	 0.9039796261	-0.448274
H	 0.6204486729	 2.2459745789	-0.2440789836	 0.118241
H	-1.0806318629	 1.8938289448	-0.5331430605	 0.119192
H	-0.4632999989	 1.9404484413	 1.1201708338	 0.122252
H	-0.8622736359	-0.4183604419	 0.2362929669	 0.09244
H	 0.2094391964	-0.7577643663	-2.1226905144	 0.073087
H	 2.7913460433	 0.2657036947	-2.0142146389	 0.054125
H	 2.2333661445	-2.3863629178	-1.9190662594	 0.099653
H	 3.2433775507	-2.1889676318	-0.4449945551	 0.115003
H	 1.1969054899	-0.8332174946	 1.8081926045	 0.077455
H	 2.3658869051	 1.2800684197	 0.3572453566	 0.063298
H	 4.3906608128	 0.1962293842	 0.505864243	 0.281094
