20
gdb 83028	2.72731	1.44071	1.2822	1.6134	79.61	-0.2392	0.0363	0.2756	1109.1991	0.171588	-403.159448	-403.150763	-403.149819	-403.192716	32.836	
C	 0.3329938329	 1.6393082576	 0.0826702826	-0.417401
C	 0.105672902	 0.1470837883	-0.0172994404	-0.04778
C	 0.5403351291	-0.6637925836	-1.2309259176	-0.112661
C	 1.3593663635	-0.0408447072	-2.3496455579	-0.18458
N	 2.7456047295	 0.2827293091	-2.0390569753	-0.302694
C	 3.2099562522	 0.0976809155	-0.8765549843	 0.388836
C	 4.6344422825	 0.4168422706	-0.5288586386	-0.451141
O	 2.5577446806	-0.3777601371	 0.2281372956	-0.253269
C	 1.236950112	-0.842207755	 0.0859975336	 0.079438
H	 1.2547824127	 1.9514827212	-0.4133118892	 0.13846
H	-0.4938804377	 2.187587456	-0.3809039128	 0.119554
H	 0.3960696379	 1.9540848606	 1.129608737	 0.121922
H	-0.8181589478	-0.193119568	 0.4445499702	 0.087351
H	-0.1228367009	-1.4648329437	-1.5417449367	 0.089929
H	 1.375003545	-0.7352382607	-3.1984365753	 0.115463
H	 0.8823661338	 0.8731786342	-2.728898123	 0.111776
H	 5.1378618624	 0.832984557	-1.4003760879	 0.142919
H	 4.6712998656	 1.1328134231	 0.2984670365	 0.136028
H	 5.1559919717	-0.4866906069	-0.1967406815	 0.135826
H	 1.105232143	-1.7504074809	 0.6636273448	 0.102024
