22
gdb 68301	2.92561	1.31219	1.09488	0.9964	88.01	-0.232	0.0974	0.3294	1215.824	0.194703	-367.135973	-367.127575	-367.12663	-367.168943	33.303	
C	-0.1829362349	 1.4472009694	 0.0030255839	-0.518497
C	-0.0161123326	-0.0489293288	 0.0120656048	 0.31357
C	 0.6688272535	-0.9412529914	-1.0695778357	-0.260813
C	 0.1819846671	-1.930848547	 0.0250680409	-0.081786
C	 0.7264863699	-0.9224075957	 1.0760075063	-0.255965
C	-1.1488841644	-1.1284836878	 0.0266554637	 0.067062
N	-1.9939164087	-1.2067363846	 1.1982253242	-0.079438
C	-3.3324024065	-0.6392232807	 1.0620696017	-0.226947
C	-3.1353071947	-2.1127207277	 1.1044397899	-0.226102
H	 0.7898624004	 1.9511982498	-0.0060338021	 0.117501
H	-0.73945255	 1.779295057	-0.8809021951	 0.112904
H	-0.7270042987	 1.7857942244	 0.8913172765	 0.124502
H	 0.1795709314	-0.9978805198	-2.0474886152	 0.081821
H	 1.7512623318	-0.8285995272	-1.1705344202	 0.088814
H	 0.2905069051	-3.0159442437	 0.0276116309	 0.066023
H	 1.8136243274	-0.8067031921	 1.1139302464	 0.078689
H	 0.2799382503	-0.9616025094	 2.0688267995	 0.109666
H	-1.7289083254	-1.1959779415	-0.9115480486	 0.039752
H	-3.7114759955	-0.1048812699	 1.9285268892	 0.115509
H	-3.6038518103	-0.2023917424	 0.1018135658	 0.108839
H	-3.2743953566	-2.6592683579	 0.1725483707	 0.109014
H	-3.3658926685	-2.6780567631	 2.0028482424	 0.115882
