20
gdb 40770	2.87898	1.32668	1.02271	2.4236	79.75	-0.2251	0.0771	0.3022	1211.6667	0.170391	-403.072717	-403.064258	-403.063314	-403.106455	32.166	
C	 1.368478665	 0.1339234118	-0.3480685333	-0.224252
C	 0.9646459907	-1.2312963846	-0.77690544	-0.224099
N	 0.0068195181	-0.3464226293	-0.1136895978	-0.058522
C	-0.3186324446	-0.6739390984	 1.2588122745	-0.113832
C	-1.0303280448	 0.4429459113	 2.0529562088	-0.091197
O	-2.1741465015	-0.4050851494	 2.3053763372	-0.308404
C	-1.6246909585	-1.4360213816	 1.4832950375	 0.470027
C	-2.4527942674	-2.2010618054	 0.5088646194	-0.327115
C	-1.8795115086	-2.8813057954	 1.7469567469	-0.341384
H	 2.0391555776	 0.2085093313	 0.5065479791	 0.111974
H	 1.4646494242	 0.9354864849	-1.0741274827	 0.121058
H	 0.761496815	-1.4450417099	-1.8219028446	 0.120951
H	 1.3658533599	-2.0691550753	-0.2086480529	 0.112404
H	 0.5348020342	-1.1154942508	 1.7997702119	 0.063569
H	-0.5511605062	 0.767280177	 2.982634347	 0.101392
H	-1.290317452	 1.3124604925	 1.4389872807	 0.110001
H	-3.5170652892	-1.9915634466	 0.5047538387	 0.124045
H	-2.0282438103	-2.430000811	-0.462519787	 0.120611
H	-1.0615024975	-3.5850377366	 1.6267021183	 0.109329
H	-2.5690210541	-3.1195212645	 2.5499433082	 0.123442
