21
gdb 79996	2.67112	1.73447	1.52394	0.2954	86.91	-0.2147	0.0115	0.2261	1003.7741	0.184193	-349.877989	-349.870638	-349.869693	-349.90903	31.507	
C	-0.0264155795	 1.6666241249	 0.0756154217	-0.438036
C	 0.0662881312	 0.15071725	 0.0596756106	 0.038206
C	 1.1739444898	-0.6061884896	-0.7427816299	-0.1416
C	 2.4372268084	-0.0377051932	-0.0307076178	-0.076541
C	 2.1404927819	-0.0547409625	 1.2795703153	-0.211519
C	 0.7431936879	-0.6649041689	 1.2566907131	 0.296915
C	-0.2178137555	-1.5285547771	 2.0910816173	-0.335326
C	-0.4043316429	-2.430337398	 0.805362625	-0.28362
C	 0.9232186226	-1.8138364921	 0.2317539448	 0.023092
H	 0.9335758522	 2.1356415405	 0.3031534723	 0.117607
H	-0.3637642142	 2.0389964343	-0.8986936531	 0.110172
H	-0.7564240318	 2.0018998995	 0.8213678893	 0.109411
H	-0.9239491386	-0.2534676082	-0.1657821793	 0.066981
H	 1.1950818793	-0.6582342971	-1.8340519699	 0.048485
H	 3.3282778328	 0.3236710804	-0.5247525197	 0.095594
H	 2.7296090055	 0.2720555804	 2.1248241486	 0.100227
H	 0.2870788084	-2.0765283696	 2.8926285579	 0.105199
H	-1.1093007752	-1.0451592678	 2.5016346473	 0.095791
H	-0.3476823043	-3.5069624914	 0.978185682	 0.098191
H	-1.3224265816	-2.2243920305	 0.2534393626	 0.111627
H	 1.7763255336	-2.4806777841	 0.3718659519	 0.069143
