21
gdb 121026	3.1577	0.98995	0.81428	1.0637	80.56	-0.2492	0.0106	0.2599	1454.5382	0.182185	-424.221672	-424.212147	-424.211203	-424.256584	34.876	
C	 0.2220691507	 1.3371211748	-0.2511168538	-0.224181
O	 0.0761631071	-0.028279856	 0.0515813302	-0.236852
C	-1.2266057228	-0.5120083006	-0.2100971516	-0.061448
C	-1.2719618259	-1.9803456696	 0.1791181875	-0.04132
C	-0.9947483418	-2.2636089901	 1.6781598921	-0.263882
C	-1.9130570174	-3.4213495963	 1.9830922311	-0.063595
C	-2.7679533655	-3.6724549109	 0.9907261653	-0.113502
C	-2.6334719576	-2.6728097739	-0.1328371524	 0.072331
O	-3.758209784	-1.7856701962	-0.1807768919	-0.430477
H	 1.2522382385	 1.6181517202	-0.0177488026	 0.123828
H	 0.0303873844	 1.5435256293	-1.3163448603	 0.102934
H	-0.4608316323	 1.964714071	 0.3441516507	 0.100731
H	-1.971778253	 0.0631410048	 0.363141586	 0.078117
H	-1.4808628486	-0.3846938706	-1.2753790744	 0.09115
H	-0.5046150689	-2.5009224848	-0.4046617418	 0.087082
H	 0.0581359047	-2.4992900391	 1.8623187685	 0.117063
H	-1.2220437055	-1.3973211039	 2.315456246	 0.105472
H	-1.8695993993	-3.967929747	 2.9198024197	 0.097124
H	-3.5374391203	-4.4363447774	 0.9889535018	 0.097295
H	-2.6201485699	-3.1325225363	-1.1262750088	 0.086861
H	-3.9833610726	-1.5623619374	 0.7292425189	 0.275268
