19
gdb 103507	3.068	1.32773	1.19717	2.7635	75.39	-0.2439	0.0027	0.2466	1102.9248	0.158474	-423.005003	-422.996379	-422.995435	-423.037897	33.141	
C	-0.0454278572	 1.5718931097	 0.0459109772	-0.426889
C	-0.0139137267	 0.0343521877	-0.0054152767	 0.20739
C	-1.4389953789	-0.5382959708	-0.0281822655	-0.105222
O	-2.0915311263	-0.0663766026	-1.1966171728	-0.425244
C	 0.7940145894	-0.4833304151	-1.1906997721	-0.091268
C	 1.7973881544	-1.2859898739	-0.8285010736	-0.11038
C	 1.8565755975	-1.3919118983	 0.6597164599	-0.007085
O	 2.1003197326	-0.1184971922	 1.3107383546	-0.263746
C	 0.7535163831	-0.5692156811	 1.1808588798	-0.010014
H	 0.9707676397	 1.9634393169	 0.1253982153	 0.134406
H	-0.5191670681	 1.9769741534	-0.8510876413	 0.130888
H	-0.6181511418	 1.9169510043	 0.9141256363	 0.10775
H	-1.3911464991	-1.6383321461	-0.0157879234	 0.089272
H	-1.9705773245	-0.2146997655	 0.8829884762	 0.083689
H	-2.9697362332	-0.4556869839	-1.2308292357	 0.290168
H	 0.5556370816	-0.1807237184	-2.2034527961	 0.111432
H	 2.5020659431	-1.770468805	-1.493171838	 0.101468
H	 2.2715353515	-2.2532970388	 1.174056439	 0.096329
H	 0.236744523	-0.7747487103	 2.116666717	 0.087057
