16
gdb 76064	2.65642	1.28314	1.10877	4.1009	70.08	-0.2599	0.0156	0.2755	1125.5284	0.12342	-437.848488	-437.839959	-437.839015	-437.882127	30.644	
O	-0.0280516244	 1.3918763322	-0.0586175087	-0.402363
C	 0.0271491685	 0.0098332125	 0.0065473722	 0.034067
C	-0.494381427	-0.7099134031	 1.2633078882	-0.324654
C	-0.9417257585	 0.0766058644	 2.3740121496	 0.299901
N	-1.2937356189	 0.7218150336	 3.2679572201	-0.33711
C	-1.2799308216	-0.6843484055	-0.0377153076	 0.245788
C	-2.6447364277	-0.0599531061	-0.2959802058	-0.132149
O	-3.0231775025	-1.1996226762	-1.1060545536	-0.272632
C	-1.75982993	-1.857097845	-0.8838104373	-0.140718
H	 0.6255040764	 1.7654670659	 0.5435561627	 0.305831
H	 0.8829081909	-0.4620807407	-0.4782110303	 0.108458
H	-0.0078255828	-1.6437613171	 1.5297083459	 0.136768
H	-3.287499599	 0.0574148953	 0.583882988	 0.126781
H	-2.6278011049	 0.8734083486	-0.8680452371	 0.128927
H	-1.2073413992	-2.0256483475	-1.8172938782	 0.112131
H	-1.8759148394	-2.8103184814	-0.3523148382	 0.110976
