11
gdb 2642	159.93458	0.78344	0.78344	1.5732	92.34	-0.2323	-0.0452	0.1871	1373.6247	0.075867	-268.9179	-268.91017	-268.909226	-268.948997	26.267	
C	-0.0181409	 1.4789111173	 0.0102490347	-0.519057
C	 0.0019144916	 0.0290550888	 0.0020205377	 0.179959
C	 0.018508616	-1.1834544862	-0.0047041307	-0.382676
C	 0.0369472982	-2.5347414947	-0.0121153862	 0.548146
C	 0.0533760028	-3.7531474412	-0.0187162201	 0.015104
C	 0.071361573	-5.1060620214	-0.0260502627	 0.178796
C	 0.087419718	-6.3157599887	-0.032574885	-0.6984
H	 0.998556377	 1.8878441129	 0.0028164056	 0.162167
H	-0.5431389055	 1.8714397578	-0.8679597169	 0.162168
H	-0.5262446694	 1.8615774572	 0.9026326594	 0.162173
H	 0.1015123884	-7.3773551718	-0.0382867758	 0.191621
