21
gdb 61240	1.90948	1.51829	0.95243	3.6898	83.24	-0.2353	0.0345	0.2697	1291.8871	0.181173	-383.263672	-383.253725	-383.25278	-383.298593	36.577	
C	 1.8236589073	 3.0643217861	-1.057760276	-0.390853
C	 1.1374791597	 1.7387483601	-0.7166081828	 0.043793
C	-0.3976977065	 1.9302662163	-0.788934092	-0.33393
C	-1.1679453669	 0.7636349213	-0.3681444873	 0.278862
N	-1.7766001857	-0.1555591763	-0.0205958025	-0.322333
N	 1.5239476291	 0.7292553958	-1.6950809368	-0.087001
C	 2.8924095953	 0.2204353258	-1.6834770189	-0.256961
C	 1.7567331061	-0.6767382115	-1.3291344653	 0.032641
C	 1.6247121821	-1.2318393379	 0.0726102285	-0.430448
H	 2.9100067433	 2.9630520185	-0.9932470308	 0.124145
H	 1.5727567087	 3.3714963588	-2.0779321184	 0.129326
H	 1.5156088962	 3.8545295096	-0.3665101042	 0.116244
H	 1.4009865457	 1.4611214653	 0.3159711982	 0.078633
H	-0.6928402226	 2.7774975331	-0.1602235507	 0.144672
H	-0.6675971268	 2.1725773731	-1.822408285	 0.157659
H	 3.3884954525	 0.1651540862	-2.6492812347	 0.114199
H	 3.5425216403	 0.5171381203	-0.8600681584	 0.10541
H	 1.3946051619	-1.3554886481	-2.0995515604	 0.098457
H	 2.0659629643	-0.5751930613	 0.8275384649	 0.115271
H	 0.5781920598	-1.4078109234	 0.3354660113	 0.159923
H	 2.153647206	-2.1895159418	 0.1275345511	 0.122291
