19
gdb 114978	2.62008	1.31693	0.91664	4.7169	78.43	-0.2609	-0.0441	0.2168	1282.5912	0.159659	-423.083287	-423.074699	-423.073755	-423.11676	32.164	
C	 0.0313280019	 1.560775296	 0.0385872124	-0.391718
C	-0.0496860063	 0.0346344307	-0.0475116658	-0.18719
C	 0.7380517503	-0.5499661042	-1.2144088609	 0.136716
C	 0.74624302	-2.0770246124	-1.2511961732	-0.285206
C	 1.3218070823	-2.55331354	-2.553374322	-0.068952
C	 1.2825269958	-1.7740827355	-3.6359798609	-0.182052
C	 0.5765705472	-0.4722379018	-3.6299268117	 0.410786
O	 0.3056461919	 0.1400919184	-4.6306786635	-0.338146
O	 0.1630892481	-0.00364699	-2.4219899492	-0.252456
H	 1.0647667507	 1.8941291966	 0.18455508	 0.113822
H	-0.3438037052	 2.019787164	-0.8789810672	 0.147249
H	-0.5613789732	 1.9347342319	 0.8782786148	 0.114671
H	 0.3333404617	-0.4178076808	 0.8757189159	 0.098856
H	-1.0948497782	-0.2830557408	-0.1460307064	 0.109736
H	 1.7806061362	-0.2011677822	-1.1643886624	 0.087835
H	 1.3333922308	-2.4545089067	-0.4066339834	 0.120424
H	-0.2720851159	-2.4721343621	-1.1217180324	 0.128844
H	 1.7558965777	-3.5484873665	-2.6003265182	 0.114792
H	 1.6742457044	-2.0765201546	-4.5995539258	 0.121988
