23
gdb 121228	3.00176	0.78857	0.67092	2.2109	82.49	-0.2407	0.0754	0.3161	1739.9956	0.204469	-425.406074	-425.395464	-425.39452	-425.443106	37.475	
C	-0.162393492	 1.6351779467	 0.162824012	-0.387561
C	 0.317411823	 0.2072157116	-0.1185213808	-0.18444
C	 0.712284602	-0.5138913237	 1.1595578772	 0.141278
O	-0.4076101282	-0.6828178033	 2.0657860649	-0.29311
C	-0.1774863167	-2.0996281306	 2.1720432763	-0.077472
C	 0.9864840718	-2.046761667	 1.1556997383	-0.073294
C	 0.8128321525	-2.8271125622	-0.1427163054	-0.191635
C	 1.0128766826	-4.3257340825	 0.053093569	-0.078926
O	 0.8122771214	-4.9588472651	-1.2006199583	-0.420548
H	 0.6320453539	 2.2382827851	 0.6164585703	 0.111553
H	-0.47857453	 2.1349557254	-0.7574764199	 0.109935
H	-1.0094785328	 1.6217649158	 0.854320234	 0.138343
H	-0.4742415709	-0.3547465	-0.62583101	 0.100895
H	 1.1829803536	 0.2238167409	-0.7937598351	 0.094856
H	 1.5146748727	 0.0519345019	 1.6578595514	 0.06578
H	 0.0938174666	-2.3963673306	 3.1934395965	 0.095731
H	-1.0550218963	-2.6816299133	 1.8587826899	 0.096881
H	 1.9553200496	-2.291846469	 1.6021415117	 0.072934
H	-0.1869073721	-2.6670341136	-0.5616634388	 0.112382
H	 1.5302654904	-2.4803617344	-0.8959095035	 0.10824
H	 2.0276545277	-4.5167272283	 0.4402474753	 0.084462
H	 0.3024690557	-4.7025287142	 0.8076568019	 0.087653
H	 0.9245848554	-5.9063893298	-1.0818033269	 0.286063
