16
gdb 64617	2.86691	1.44491	1.34918	2.7332	72.99	-0.2708	-0.0291	0.2416	1007.3679	0.12434	-400.747225	-400.73946	-400.738516	-400.779303	29.749	
C	-0.0470610612	 1.5657026694	 0.0531353917	-0.426483
C	-0.0011056873	 0.0220234289	 0.0070644044	 0.051658
C	 0.7977371817	-0.5064622276	-1.1887824101	-0.10409
C	 1.8122450502	-1.2888568807	-0.8207167671	-0.090742
C	 1.8840173986	-1.3853561481	 0.6677609883	-0.004865
O	 2.1106946672	-0.0997798198	 1.3034540009	-0.255338
C	 0.7781565693	-0.5793018275	 1.2012494347	 0.010913
C	-1.3647103825	-0.5242194182	-0.0163166099	 0.251149
N	-2.4375644603	-0.9548804538	-0.0237102493	-0.335929
H	 0.9730189207	 1.9410539481	 0.1511910425	 0.151555
H	-0.4944124098	 1.9665662868	-0.8597406948	 0.134961
H	-0.6397386426	 1.909241833	 0.9048802492	 0.138707
H	 0.5467323698	-0.2078376529	-2.1995244322	 0.124174
H	 2.5218741978	-1.7616976096	-1.48746938	 0.120332
H	 2.3187339223	-2.2360719662	 1.181589153	 0.113876
H	 0.2593638662	-0.7809644516	 2.1337012786	 0.120122
