21
gdb 62822	2.27536	1.43724	1.30226	2.8562	84.08	-0.2419	-0.0273	0.2145	1132.6893	0.181118	-387.04919	-387.039972	-387.039028	-387.083345	34.828	
C	-0.0886443859	 1.5201107197	 0.1159633723	-0.466961
C	 0.007177276	-0.0078572608	 0.0433307274	 0.314773
C	-1.4215209965	-0.5411452783	-0.1157528083	-0.472203
C	 1.1581500417	-0.6532939259	-0.8185162752	-0.086458
C	 2.1928849119	-0.1623162284	 0.2397680902	-0.277219
C	 1.0060164877	-0.7444406847	 1.0542283888	 0.232591
C	 1.035523099	-1.9429586278	 0.046376507	-0.286248
C	 0.8674998663	-0.8179932296	 2.5335520279	 0.021785
O	 1.6359918051	-0.3170844221	 3.3183393973	-0.248136
H	 0.8644729169	 2.0311672298	 0.2444673508	 0.124701
H	-0.5473986674	 1.9035680081	-0.8027406453	 0.118389
H	-0.7372886527	 1.820406632	 0.9462185797	 0.121265
H	-1.8613879525	-0.1390873657	-1.0357071852	 0.121004
H	-1.5070731912	-1.6263192019	-0.1634411825	 0.118181
H	-2.0504562119	-0.1967718881	 0.7126342192	 0.12016
H	 1.2606977477	-0.6055331799	-1.9044549076	 0.071911
H	 3.1184256521	-0.7389552967	 0.2959415311	 0.098935
H	 2.4021716271	 0.90129544	 0.3180959498	 0.10506
H	 0.1472300998	-2.5620785637	-0.055867197	 0.100137
H	 1.9334768532	-2.5625643391	 0.1019376883	 0.10149
H	-0.0309468264	-1.3755124171	 2.8894171814	 0.066842
