19
gdb 96057	2.84558	1.16062	0.93979	3.7888	72.32	-0.2701	0.0065	0.2765	1273.1845	0.159427	-460.199237	-460.190294	-460.18935	-460.234302	32.455	
O	 0.024318432	 0.8458004239	-0.9359645736	-0.439795
C	-0.0827960741	-0.2411828702	-0.0485249537	 0.137832
C	 0.302306876	 0.0228878346	 1.4144310271	-0.242934
C	-0.2306949306	-1.22169044	 2.1421757972	-0.212555
C	-1.5409880323	-1.5993762302	 1.3907367194	-0.233997
C	-1.5156637905	-0.8212500485	 0.0621669137	 0.082829
O	-2.4349168001	 0.2864694223	 0.1522767942	-0.207072
C	-3.0769178355	 0.668946729	-0.9703551089	 0.163793
O	-3.7556634223	 1.6508107655	-1.0178889012	-0.279591
H	-0.463959432	 1.5837719615	-0.5527882636	 0.293398
H	 0.5665105586	-1.0239331489	-0.4600281927	 0.094864
H	 1.3743355065	 0.1855921616	 1.5453388884	 0.107477
H	-0.2212123497	 0.9231749433	 1.7611957558	 0.108586
H	 0.4963497971	-2.0370275509	 2.0638633355	 0.106779
H	-0.4001007166	-1.049151646	 3.2071250327	 0.109583
H	-1.613454081	-2.6758950309	 1.2179074272	 0.110036
H	-2.4306630797	-1.3018128204	 1.9503366927	 0.129244
H	-1.7852896231	-1.4290678486	-0.8072629526	 0.085663
H	-2.9192721125	-0.0267069972	-1.8154756475	 0.08586
