20
gdb 103020	2.23935	1.75631	1.18756	1.5914	85.74	-0.2286	0.0287	0.2573	1112.6325	0.170451	-365.893589	-365.884986	-365.884042	-365.926568	33.851	
C	-0.4357738056	 1.5086182063	-0.1915842657	-0.376554
C	 0.0225962356	 0.0614902036	 0.0225448775	-0.286392
C	 0.6897966621	-0.5371387193	-1.2281267684	 0.181508
C	 2.001086223	 0.0829674989	-1.3882264495	 0.29257
C	 3.0780794862	 0.616325942	-1.4450868158	-0.435543
C	 0.56706024	-2.06215108	-1.5665279042	-0.112255
C	-0.9029434063	-1.7563730923	-1.9143549538	-0.186721
N	-0.1725787634	-0.5567559472	-2.5498378718	-0.173814
C	 0.827470516	-1.6332105571	-3.0251708292	-0.182936
H	 0.4080667211	 2.1492545931	-0.4626463102	 0.13096
H	-1.1716060466	 1.5669169912	-0.9983714224	 0.135413
H	-0.8881037574	 1.9087000258	 0.7206159793	 0.108804
H	 0.7580806119	 0.01874946	 0.833459834	 0.110927
H	-0.8218840518	-0.5507807445	 0.3469428582	 0.100253
H	 4.0297601394	 1.0829688349	-1.5136571107	 0.192552
H	 0.9903434029	-2.9029114776	-1.0055264964	 0.069206
H	-1.3776563119	-2.3965978742	-2.6612195746	 0.103584
H	-1.612208749	-1.4990533701	-1.1297381287	 0.105003
H	 1.8087609189	-1.2410142921	-3.289681256	 0.124298
H	 0.418070195	-2.2655262013	-3.8159821818	 0.099138
