16
gdb 297	5.17369	3.14505	2.90044	1.3454	56.29	-0.2526	0.0743	0.3269	562.0396	0.142376	-271.627826	-271.621262	-271.620317	-271.657345	25.093	
C	-0.1008924273	 1.5384095696	-0.0220823896	-0.444724
C	-0.0096294887	 0.015731568	-0.0155456101	 0.433966
O	-1.2867651768	-0.5707931057	-0.1887750924	-0.474846
C	 1.146236721	-0.5423033701	-0.9071577658	-0.267472
C	 2.0138574232	-0.688571899	 0.3723796561	-0.212233
C	 0.7202846121	-0.5642742674	 1.222417076	-0.244449
H	 0.8746507651	 1.9997498249	 0.1616812892	 0.118345
H	-0.456862413	 1.9019225268	-0.9948442253	 0.103311
H	-0.7969228239	 1.8807925092	 0.7502082021	 0.122358
H	-1.711224206	-0.1509399896	-0.9450335561	 0.271002
H	 0.8606998646	-1.5134312616	-1.319354459	 0.103887
H	 1.5209914987	 0.0958174746	-1.71276047	 0.086195
H	 2.5902388362	-1.6093813318	 0.4787992689	 0.099948
H	 2.690497106	 0.1580098878	 0.5157550582	 0.101027
H	 0.7484429997	 0.0539203202	 2.1234894165	 0.092099
H	 0.299751369	-1.541248086	 1.4723467313	 0.111584
