15
gdb 106999	2.96822	1.33799	1.05535	1.9295	61.52	-0.2402	-0.0459	0.1943	1107.574	0.110376	-494.854373	-494.845809	-494.844865	-494.888163	30.886	
O	 0.4946397808	 0.7026323254	-0.7624781017	-0.410263
C	-0.1164442695	 0.163045815	 0.3941152238	-0.21075
C	-1.3994562201	-0.5245664634	 0.0320056721	 0.289366
O	-2.1270688856	-1.2976415653	 1.019050138	-0.293802
C	-1.7959911817	-1.9375172193	-0.2189642344	-0.097906
C	-2.9476242457	-1.5548185981	-1.1683424475	 0.015231
O	-4.2362133197	-1.9478096511	-0.812975776	-0.421238
C	-2.4678231977	-0.061618538	-0.9472924209	 0.331687
O	-2.6969936244	 0.9858237806	-1.4789004801	-0.309689
H	-0.0926356153	 1.3826016405	-1.113303812	 0.304189
H	 0.5874745387	-0.5496709628	 0.8339659194	 0.133174
H	-0.3220524474	 0.9331627745	 1.1529194683	 0.117099
H	-1.173451676	-2.8232609905	-0.1849178124	 0.131904
H	-2.7810086071	-1.8433953671	-2.2112198959	 0.124287
H	-4.3409789994	-1.7415566405	 0.1247144591	 0.296712
