18
gdb 128425	4.90898	0.89182	0.82165	1.9299	74.12	-0.2248	-0.017	0.2077	1444.0898	0.147633	-435.26912	-435.259876	-435.258931	-435.304285	32.15	
C	-0.4962517064	 0.7444160331	 1.2606565787	-0.317046
N	 0.1836723347	 0.4462858681	 0.0020669422	-0.265749
C	 1.2981692337	-0.4737567952	 0.126111342	-0.28444
C	 0.9610132639	-1.9088638934	 0.4494319043	 0.345688
N	-0.2504235999	-2.3882285627	 0.3579304253	-0.183336
O	-0.0944403964	-3.7387725475	 0.7084557615	-0.195529
C	 1.2072758671	-3.9154286565	 0.9716144684	 0.410261
C	 1.6611276245	-5.2717206685	 1.3753407316	-0.494551
N	 1.9122989616	-2.8331239419	 0.8325865956	-0.345478
H	 0.2052282927	 1.2461027616	 1.937167888	 0.118456
H	-1.318608529	 1.4383726599	 1.0646282121	 0.119933
H	-0.9044902189	-0.1363433142	 1.7790131783	 0.114719
H	-0.4851316092	 0.0772130007	-0.6654369172	 0.230987
H	 1.875091811	-0.474411552	-0.8083519114	 0.131122
H	 1.9842317692	-0.1088349537	 0.8994923307	 0.133784
H	 1.1439166102	-5.5967103598	 2.2830676829	 0.158773
H	 1.4410965958	-6.0013627225	 0.5902372303	 0.158722
H	 2.7350313855	-5.2509688557	 1.5587425268	 0.163683
