17
gdb 32483	6.45209	0.83801	0.74685	3.7956	84.61	-0.1917	-0.0396	0.1521	1474.0461	0.137169	-418.053841	-418.045252	-418.044308	-418.087241	31.632	
C	 0.0713083822	 1.4442794731	 0.057081484	-0.323914
N	-0.1553683444	 0.0152070853	-0.0528045001	-0.385634
C	 0.5231154621	-0.6779370302	-1.0559204986	 0.323366
C	 1.1668037387	-0.1276335205	-2.1656165958	-0.139571
N	 1.6453100806	-1.1526486994	-2.9271821831	-0.301829
C	 1.3434437399	-2.3524667671	-2.340588444	 0.257343
C	 1.754752846	-3.5906259061	-2.9580475555	 0.073688
O	 2.3750140062	-3.6518941487	-4.0059650059	-0.32451
C	 0.6396008087	-2.0833468346	-1.1703784268	-0.353476
H	 1.1350183033	 1.7186951777	 0.1556096359	 0.108024
H	-0.3246452789	 1.9519855356	-0.8298802991	 0.130763
H	-0.4695741823	 1.8284800044	 0.9248679178	 0.124578
H	-0.1188732949	-0.4595751192	 0.8374621255	 0.23468
H	 1.3053779771	 0.9005958518	-2.4553285065	 0.12508
H	 2.1561820922	-1.0906514995	-3.7923570928	 0.276214
H	 1.4620375257	-4.5059217706	-2.4020832187	 0.072397
H	 0.2517005878	-2.8218525822	-0.4843253664	 0.102802
