18
gdb 109027	3.23766	1.30823	1.03389	3.3884	78.93	-0.2333	-0.0538	0.1795	1183.3139	0.148337	-401.953687	-401.945434	-401.94449	-401.98683	31.066	
C	-0.2553498782	 1.4956296	-0.012460452	-0.380245
C	 0.0962387336	-0.0030529394	 0.0214036171	-0.290255
C	 0.826437092	-0.4541034441	-1.2056189197	 0.195637
C	 2.0986683795	-0.864958367	-1.3363147102	-0.1594
C	 2.4020378486	-1.3084364732	-2.7340376665	-0.086823
N	 1.5873594741	-2.4963863245	-3.1137262567	-0.327022
C	 1.1601403835	-1.1188481622	-3.5087993552	-0.167069
C	 0.1451521884	-0.5369080171	-2.5403848145	 0.388074
O	-0.9832795422	-0.1871455621	-2.7986325165	-0.334593
H	 0.648968788	 2.109615446	-0.0724187446	 0.112883
H	-0.8824418727	 1.7205503465	-0.878209787	 0.147195
H	-0.8008828364	 1.7817928916	 0.8917086356	 0.113634
H	 0.6951089281	-0.2302337648	 0.9099852153	 0.101263
H	-0.8337102302	-0.5790359816	 0.1036918821	 0.12341
H	 2.818844806	-0.9408866285	-0.5289888506	 0.114235
H	 3.3883237005	-1.1817560283	-3.1652009235	 0.103122
H	 2.003370476	-2.9308469228	-3.9389897708	 0.235805
H	 1.1255160513	-0.8482712283	-4.556846032	 0.110149
