17
gdb 42851	3.27124	1.10671	0.99236	2.8007	78.4	-0.2461	0.0065	0.2526	1225.9013	0.135018	-384.621475	-384.613383	-384.612439	-384.654632	30.896	
O	-0.1937628614	-0.0040190533	 0.0100911905	-0.328137
C	-0.1089400355	 1.184051726	 0.0137798611	 0.443652
C	-0.9931493696	 2.4433084638	-0.0263452964	-0.167431
C	-0.0313341905	 2.9629711694	 1.0970761223	-0.244394
C	 0.9501033148	 2.3015562409	 0.0696822273	-0.193485
C	 0.0762115504	 2.9944587169	-1.0357372461	 0.035955
C	 0.1140907646	 2.4781107159	-2.4771346501	-0.408304
C	-0.9596555582	 3.0388924441	-3.289768711	 0.306491
C	-1.8539199919	 3.5187900904	-3.9334429039	-0.448933
H	-2.0743440639	 2.5405691718	-0.0836978457	 0.102152
H	 0.0449652996	 4.0508393654	 1.1579133661	 0.11246
H	-0.1122771066	 2.503226694	 2.0830009294	 0.118004
H	 2.0348016064	 2.2375480175	 0.1238932286	 0.094373
H	 0.1478206951	 4.0852239736	-1.0054853679	 0.0926
H	 1.0839874266	 2.7343367559	-2.9233995561	 0.135473
H	 0.0519657804	 1.3824205353	-2.4887502048	 0.150669
H	-2.6404803005	 3.9315606924	-4.5150702332	 0.198856
