19
gdb 67774	2.74823	2.10041	1.5567	0.0846	82.93	-0.2172	-0.0208	0.1964	915.6849	0.160691	-348.712927	-348.706034	-348.705089	-348.743455	29.801	
C	 0.0172909735	 1.5751949998	-0.0344192763	-0.514919
C	 0.0315457713	 0.0658934793	 0.007147102	 0.323398
C	 0.4631953296	-0.6993458298	-1.2509361124	-0.145496
C	 0.3725981414	-1.9834154887	-0.9059363146	-0.113591
C	-0.1086381108	-1.92505611	 0.5411647575	-0.061255
C	 0.737309909	-0.7541367247	 1.1838883486	-0.092756
C	-0.0603998629	-0.3806176154	 2.4306145626	-0.107297
C	-1.3281155921	-0.4041860015	 2.0099901988	-0.107298
C	-1.2096075956	-0.7903216052	 0.5379024803	-0.092756
H	 1.0150572583	 1.9703260165	-0.2568894606	 0.114901
H	-0.6622131248	 1.9391575436	-0.8134983673	 0.1149
H	-0.3081472943	 1.9925242307	 0.9228830415	 0.120439
H	 0.7655060487	-0.249411878	-2.1872771863	 0.096565
H	 0.580377388	-2.874163758	-1.4822503119	 0.100373
H	-0.276435038	-2.8477101187	 1.0985655931	 0.058112
H	 1.8260028162	-0.8196930331	 1.232506349	 0.054233
H	 0.3402484299	-0.1508035848	 3.4081871074	 0.099108
H	-2.2409649291	-0.1987914875	 2.5517468581	 0.099108
H	-2.1086164283	-0.8928206245	-0.0729914896	 0.054232
