17
gdb 51943	8.17486	0.41165	0.40817	0.255	80.65	-0.2526	-0.0341	0.2185	2517.4204	0.131487	-421.81587	-421.805348	-421.804404	-421.855433	34.042	
O	-0.1423910592	 0.0931050874	 0.3698202377	-0.229239
C	 0.1510673332	 0.8983240098	-0.4739906517	 0.156139
C	 1.411239222	 1.7356124201	-0.4718399781	-0.262185
C	 1.1006678979	 3.2373283158	-0.6753685163	-0.364913
C	 2.3041915376	 4.0514936791	-0.7857982933	 0.044774
C	 3.3127034534	 4.7060251453	-0.852822258	 0.092043
C	 4.5179450062	 5.5087593936	-1.0004675273	-0.414538
C	 4.9378411413	 5.6645995228	-2.4645230002	 0.171994
O	 5.4010320479	 6.673714778	-2.9199269317	-0.227982
H	-0.5171367107	 1.0801245868	-1.3498259404	 0.073396
H	 1.9557263999	 1.563070199	 0.4591878124	 0.136128
H	 2.0405388906	 1.392350235	-1.3041054332	 0.133847
H	 0.4860602806	 3.3628812738	-1.5768552069	 0.137529
H	 0.4893844659	 3.5984446729	 0.1613730976	 0.147388
H	 4.410243041	 6.5085643438	-0.5673801291	 0.156843
H	 5.360888265	 5.0264006608	-0.4815415068	 0.156623
H	 4.7918577276	 4.7505744159	-3.0804541545	 0.092153
