14
gdb 32040	3.01084	1.4408	0.98053	5.1627	69.96	-0.2417	-0.059	0.1827	1123.1333	0.100399	-473.879689	-473.871687	-473.870743	-473.912706	28.426	
C	-0.0676945734	 1.4406905877	 0.0091533403	-0.251743
O	-0.0260549176	 0.0015933195	 0.0051441619	-0.244177
C	-1.1712040566	-0.6559199429	 0.0118962327	 0.535938
C	-1.2072186699	-2.0345411712	 0.0084687065	-0.326595
C	-2.4853260786	-2.6001109296	 0.0165493314	 0.055722
N	-3.6324951987	-1.9485156964	 0.0268543496	-0.347755
C	-3.6398302147	-0.6042957608	 0.0302427771	 0.450677
O	-4.5262219244	 0.184917434	 0.0393980617	-0.311433
O	-2.2618613547	 0.0590643958	 0.0218891728	-0.282008
H	 0.9756186097	 1.7528792604	 0.0018571993	 0.150463
H	-0.5857283351	 1.8133983883	-0.8769750556	 0.157413
H	-0.5718707032	 1.8088120154	 0.9051432546	 0.157405
H	-0.2995816189	-2.6172145225	 0.000151682	 0.123351
H	-2.5719002238	-3.6861184478	 0.0143893557	 0.13274
