17
gdb 70402	2.46879	1.545	1.35688	3.442	72.83	-0.2303	0.015	0.2453	1021.9255	0.135302	-417.978667	-417.969919	-417.968975	-418.011558	33.437	
N	 0.2738766205	 1.419195578	-0.1613557424	-0.605641
C	 0.0633781085	 0.0250076049	-0.0346923877	 0.33027
C	-0.1638771353	-0.8885671015	-1.1961801069	-0.32871
C	-1.1580687457	-0.9362822898	-0.0637401522	-0.094942
C	-0.568084052	-1.7637778947	 1.0737682832	-0.300126
C	 0.668654345	-0.7776561754	 1.127954596	 0.239645
O	 1.9513694817	-1.2883561	 0.8523716903	-0.464006
C	 0.6725890646	 0.0009336859	 2.3772335116	 0.223297
N	 0.6767668437	 0.591465422	 3.3712635841	-0.345173
H	 0.0392563836	 1.7688345674	-1.0807523146	 0.237992
H	-0.2248553987	 1.9580476889	 0.538075231	 0.246282
H	-0.5100314434	-0.3780740731	-2.0905467933	 0.112738
H	 0.5028425195	-1.7241421406	-1.3916923654	 0.128145
H	-2.2074550659	-0.7101510162	-0.2008067754	 0.092899
H	-1.1549768455	-1.7577118262	 1.9934493129	 0.12593
H	-0.2813793875	-2.7909631762	 0.827008084	 0.108351
H	 2.287282597	-1.7344491133	 1.6382332548	 0.293048
