14
gdb 32562	2.70321	1.514	0.97632	3.7899	65.49	-0.2535	-0.0435	0.2101	1111.512	0.101523	-473.860728	-473.852902	-473.851958	-473.893618	28.049	
O	-0.0220097444	 1.4480047786	 0.0070247462	-0.428044
C	-0.0046376449	 0.0323465707	 0.0021359667	-0.152875
C	-1.4137907351	-0.4763653249	 0.012479739	 0.051316
C	-2.4783854322	 0.3374406154	 0.0242707146	 0.000327
O	-3.7545800789	-0.1402655811	 0.0335413276	-0.175313
C	-3.8962842269	-1.4854404829	 0.0302530246	 0.130074
N	-2.9752693593	-2.3612047889	 0.0194964236	-0.303534
C	-1.624257063	-1.9312660476	 0.0094500149	 0.350524
O	-0.7073768903	-2.7256150586	-0.0011026789	-0.342546
H	 0.8866387902	 1.7602245496	 0.0010377043	 0.298136
H	 0.5071064621	-0.3745068236	-0.8837261531	 0.124672
H	 0.5221667652	-0.38043448	 0.8763429652	 0.124671
H	-2.440611452	 1.417144382	 0.0275591749	 0.168953
H	-4.9495753004	-1.7522777287	 0.0383285006	 0.15364
