19
gdb 83239	2.95014	1.34461	1.21038	2.2549	77.89	-0.2179	0.0137	0.2316	1120.5314	0.159569	-423.010536	-423.002283	-423.001339	-423.043134	32.195	
C	 0.0208170377	 1.5081685388	 0.1025619626	-0.481074
C	-0.0429051945	 0.015135348	-0.0334710376	 0.275532
C	-1.1596917331	-0.7056914092	 0.0863732451	-0.147813
C	-1.1406631326	-2.1839529309	-0.0032910703	-0.170362
C	-1.0941868039	-2.9175912818	-1.349767272	 0.108517
O	-1.1307140837	-2.230019646	-2.5512433887	-0.422286
C	 0.1454077368	-2.8050808941	-0.5005334383	 0.003729
O	 1.0920848543	-1.9194348876	-1.0410950433	-0.271601
C	 1.26102267	-0.701875173	-0.3144755902	-0.162816
H	 0.7250772625	 1.8072539027	 0.890281821	 0.125492
H	 0.3720724006	 1.9809515139	-0.8239583981	 0.126591
H	-0.9579707544	 1.9270642944	 0.3502242033	 0.127129
H	-2.1152708812	-0.2182731951	 0.2627757591	 0.088976
H	-1.662858595	-2.7145099682	 0.789016527	 0.094137
H	-1.6060036082	-3.8739112009	-1.4022991444	 0.100964
H	-0.2756047277	-1.7810776405	-2.619749175	 0.289807
H	 0.582093291	-3.6706394573	-0.0070822511	 0.091755
H	 1.9137100793	-0.0830365142	-0.9396637891	 0.114276
H	 1.8027830922	-0.8952129091	 0.6261625101	 0.109049
