17
gdb 29121	2.99726	1.38698	0.9552	3.8068	83.02	-0.1892	-0.0357	0.1534	1198.4759	0.136855	-418.042463	-418.034034	-418.033089	-418.075184	32.306	
C	-0.017097468	 1.523392674	 0.0525441772	-0.469353
C	-0.0349200452	 0.0253837123	 0.015756239	 0.21233
C	-1.1606241671	-0.7148481204	 0.1154236001	-0.187199
C	-1.1292204455	-2.1572411498	 0.0682335555	 0.181226
N	-2.3321870233	-2.8682206296	 0.2531020469	-0.58971
C	 0.0760973257	-2.7412624087	-0.0765172243	-0.019778
O	 1.2368718941	-2.0290746351	-0.1470991638	-0.238284
C	 1.255345681	-0.6480442188	-0.1260196841	 0.330389
N	 2.3548612423	-0.0104016473	-0.2210511511	-0.544911
H	 0.608469904	 1.8799200611	 0.8771643289	 0.147641
H	 0.4329270253	 1.9252460252	-0.8609926135	 0.146076
H	-1.0263858567	 1.9272479542	 0.1652992069	 0.1098
H	-2.1232653741	-0.226818928	 0.2434865297	 0.1001
H	-3.0908945012	-2.4972236363	-0.3069509656	 0.246186
H	-2.2376104699	-3.858441452	 0.0642761742	 0.243077
H	 0.2565350337	-3.8073129211	-0.1293311734	 0.116181
H	 3.1370802148	-0.6594872298	-0.3092831426	 0.216229
