21
gdb 87165	2.79352	1.18538	1.06041	3.2071	78.41	-0.239	0.0761	0.315	1265.6386	0.180423	-424.195066	-424.185379	-424.184435	-424.229965	35.217	
C	-0.3105121397	 1.538951041	 0.5062776026	-0.427762
C	-0.2384835026	 0.0384720268	 0.6300974866	 0.037323
O	 0.6883493815	-0.6551059465	-0.2240372673	-0.305552
C	 0.8961692301	-0.7177297872	 1.1927758189	 0.346887
C	 2.1620152811	-0.0657456138	 1.7062791046	-0.470711
C	 0.6429987571	-2.0902450642	 1.7886684671	 0.087836
C	 0.2712708113	-2.1657284816	 3.2899971169	-0.294732
C	-0.9903389798	-2.8926486953	 2.7866518868	-0.063653
O	-0.6181596683	-2.6802836932	 1.4079393219	-0.28131
H	 0.6772671488	 2.0024516356	 0.4766229903	 0.123073
H	-0.8377356722	 1.8114767587	-0.4141449659	 0.131852
H	-0.8707052749	 1.9634897326	 1.3468770998	 0.118104
H	-1.2047658178	-0.4622442188	 0.684138607	 0.101205
H	 2.3690578625	 0.8655512318	 1.1782850068	 0.133643
H	 2.095519132	 0.1478602948	 2.7784701972	 0.121323
H	 3.0178164306	-0.7326094327	 1.5508187706	 0.126421
H	 1.4759358149	-2.7503475995	 1.5041628013	 0.081842
H	 0.9434758885	-2.7428457694	 3.925808937	 0.112817
H	 0.0804781409	-1.1951318648	 3.7523148352	 0.110945
H	-1.0414127892	-3.9609171694	 3.0309683288	 0.105261
H	-1.9529312748	-2.4273836548	 3.0280376339	 0.105186
