19
gdb 9664	3.44591	1.32498	1.09472	2.2474	73.97	-0.2546	-0.0325	0.2221	1147.7683	0.163624	-365.061755	-365.052519	-365.051574	-365.095799	32.826	
C	-0.2156988302	 1.5192958404	-0.271591991	-0.377246
C	-0.0711922755	 0.0952935569	 0.2811183312	-0.19537
C	-1.3818223284	-0.6547186599	 0.2167129239	-0.010519
N	-1.7450396757	-1.2942287687	-1.0420498102	-0.360616
C	-1.4917819407	-2.1616424834	 0.1222059061	 0.206061
C	-0.3000933145	-3.0920254271	 0.0824411885	-0.476875
C	-2.7160335336	-2.7022775052	 0.7867765098	 0.10307
O	-3.8301709175	-2.2725201928	 0.59339146	-0.275362
H	 0.7355368004	 2.0574448288	-0.2238243394	 0.114565
H	-0.5416696622	 1.4940396459	-1.3157502529	 0.133547
H	-0.954057547	 2.0940450387	 0.2981058405	 0.116097
H	 0.6896544826	-0.4411305999	-0.2925981488	 0.107846
H	 0.2723567959	 0.1305412038	 1.3226869672	 0.100223
H	-2.1968929204	-0.185637039	 0.7684375932	 0.099347
H	-2.756845867	-1.2431187742	-1.1681015405	 0.244167
H	 0.5679652493	-2.6072558957	-0.3644396656	 0.138741
H	-0.0283139619	-3.422037939	 1.0913554581	 0.121372
H	-0.5248008333	-3.9821753013	-0.515042535	 0.130141
H	-2.5415686204	-3.5470300983	 1.4882636648	 0.080811
