15
gdb 127933	5.07819	1.07175	0.88992	0.2057	75.43	-0.2101	-0.0738	0.1362	1241.8951	0.113634	-450.128266	-450.120269	-450.119324	-450.160859	29.7	
C	 0.2262266315	 1.3961481075	 0.1669717908	-0.344101
N	 0.1470941121	-0.0490372886	 0.1124283621	-0.324496
C	 0.4282445013	-0.6076401817	-1.0102367331	 0.395361
N	 0.8025881867	 0.0044472716	-2.1930407177	-0.325361
N	 1.09352371	-0.6291217478	-3.3678464934	-0.255468
C	 0.9983766684	-1.913890174	-3.3274401338	 0.482572
O	 1.2716299449	-2.5977962043	-4.4512280893	-0.396926
N	 0.6390032665	-2.6919290005	-2.2362984729	-0.321014
C	 0.3722344986	-2.0585004069	-1.1470538096	-0.000941
H	 1.2385969494	 1.7741242439	-0.0598108502	 0.109568
H	-0.4666368261	 1.8854454983	-0.5399135309	 0.109643
H	-0.0339558683	 1.7396008896	 1.1706881498	 0.130584
H	 0.8835272292	 1.005749025	-2.2492616965	 0.276955
H	 1.1493950177	-3.5308333402	-4.2347614361	 0.310217
H	 0.084407238	-2.6161640619	-0.2586876693	 0.153408
