20
gdb 81285	2.70339	1.54394	1.25238	3.4147	80.4	-0.2508	0.0358	0.2866	1085.2928	0.17341	-403.159737	-403.151884	-403.15094	-403.191872	31.11	
C	-0.1159482138	 1.4986753506	 0.0229403743	-0.433049
C	 0.0190881293	-0.0182011641	-0.0311332899	 0.032593
C	 0.8902247367	-0.5870574594	-1.1901767481	-0.043256
C	 2.12836758	-0.4528430322	-0.2660841819	-0.247032
C	 1.1168759818	-0.6262835011	 0.9060142547	-0.086834
C	 0.8331402419	-2.0920273365	 1.0681649478	 0.41423
N	 0.8261498125	-2.6686899225	 2.1945364959	-0.540464
O	 0.5801301549	-2.7724286567	-0.0932959824	-0.270267
C	 0.5680733793	-2.0665273494	-1.3507713661	-0.083994
H	 0.8490505764	 2.0076614027	-0.0641267268	 0.119168
H	-0.754820524	 1.8587096206	-0.7909034979	 0.117701
H	-0.5714926139	 1.8123228357	 0.9679085399	 0.125161
H	-0.9720636866	-0.4752858761	 0.0666571706	 0.078419
H	 0.8814373111	-0.0843443707	-2.1613610273	 0.06995
H	 2.9234040872	-1.1966631467	-0.3644642892	 0.107913
H	 2.5660914376	 0.5455710131	-0.2869041483	 0.1095
H	 1.3142994302	-0.1729039586	 1.8759408361	 0.090655
H	 0.6082097344	-3.6610375229	 2.0787316318	 0.21535
H	-0.4287044425	-2.2051857679	-1.7873566471	 0.111914
H	 1.2992518275	-2.5621460378	-2.0006237561	 0.112341
