19
gdb 122711	4.91186	0.51497	0.48293	1.2404	81.29	-0.247	-0.0252	0.2218	2211.323	0.157746	-456.356644	-456.346341	-456.345397	-456.393845	34.737	
C	-0.8457999382	 1.1689754311	 0.5494817939	-0.236239
O	-0.0444536605	 0.614035123	 1.5683428896	-0.226208
C	 1.0504102976	-0.1445514173	 1.1034479383	-0.057922
C	 0.656859163	-1.5678096333	 0.6721084456	-0.16448
N	 1.8539753019	-2.3362046209	 0.390490273	-0.235822
C	 1.9911760306	-2.8079151837	-0.7752621787	 0.113186
N	 3.1228059245	-3.5412023483	-1.1112535187	-0.304634
C	 3.3466496529	-4.0866639725	-2.3541546567	 0.160478
O	 2.5946389716	-3.9920247075	-3.2947140155	-0.295681
H	-1.3772360555	 0.4060382369	-0.0379668722	 0.107113
H	-1.5873333278	 1.807480407	 1.0361386466	 0.128971
H	-0.2496434636	 1.7831423502	-0.1436575624	 0.105256
H	 1.5592167884	 0.3677381703	 0.2706446773	 0.085749
H	 1.7594104333	-0.2157288895	 1.9338837658	 0.117384
H	 0.1257234186	-2.0338219384	 1.5108448361	 0.118523
H	-0.0348300605	-1.5352345239	-0.1850816357	 0.08816
H	 1.2841034005	-2.7094138871	-1.6036692067	 0.137201
H	 3.8079271925	-3.6690250287	-0.3796197457	 0.266053
H	 4.309538301	-4.6297011875	-2.3923312439	 0.092912
