21
gdb 108047	3.6023	1.38142	1.23401	0.8975	81.72	-0.2348	0.0881	0.3229	1100.0615	0.183495	-387.042973	-387.035123	-387.034179	-387.075072	31.579	
C	 0.0308924987	 1.4167208728	-0.0133659763	-0.264581
O	-0.0007760078	 0.0042175787	-0.0225368054	-0.294839
C	 0.6319925319	-0.5607101819	-1.1291001994	 0.459912
C	-0.0545527011	-0.4370022962	-2.517258423	-0.294149
C	 0.3119383341	-1.914983364	-2.8173505124	-0.035481
C	 1.8012392864	-2.1119208573	-3.196578755	-0.223773
C	 2.206851276	-1.9645642553	-1.7084974236	-0.035483
C	 2.1821841491	-0.4955328667	-1.2083534613	-0.294149
C	 0.6940716725	-2.1135637	-1.3046164908	-0.121626
H	 1.0600991096	 1.8045279251	 0.0109862395	 0.108682
H	-0.4784449479	 1.8448694437	-0.8894472941	 0.108682
H	-0.4889703816	 1.7449460798	 0.8896109505	 0.125454
H	-1.1345323725	-0.3314252268	-2.3745820814	 0.103673
H	 0.2962873182	 0.3304770111	-3.2150807814	 0.085495
H	-0.42940751	-2.511052069	-3.3495293197	 0.065652
H	 1.9779686423	-3.1343137022	-3.5443085909	 0.098583
H	 2.2425585897	-1.4166419701	-3.9196598718	 0.086548
H	 3.0099272503	-2.6010462173	-1.3369253295	 0.065652
H	 2.6485673601	 0.268931423	-1.838551013	 0.085496
H	 2.5901609274	-0.4289040782	-0.1949553127	 0.103674
H	 0.2708341145	-2.8378437993	-0.6137340181	 0.066578
