17
gdb 54814	3.07724	1.43669	1.32348	4.0122	72.72	-0.2394	-0.0313	0.2081	1030.6754	0.135729	-418.001058	-417.99286	-417.991916	-418.034838	29.757	
C	-0.3253158276	 1.5563212006	-0.0067071965	-0.481931
C	 0.054309954	 0.0883927638	 0.0802008429	 0.381736
O	 0.2328882867	-0.474405576	 1.1346045034	-0.291941
C	 0.1457534982	-0.6097588167	-1.2533529309	-0.129964
C	 1.4326588034	-0.8691984837	-1.9756893326	-0.053969
C	 2.7668473093	-0.880214924	-1.2266671535	-0.193338
N	 2.6501856852	-1.9664002794	-0.2402051911	-0.192436
C	 1.4860056026	-2.455696173	-0.3575890923	 0.059988
N	 0.63836444	-1.9913627023	-1.4247830504	-0.140405
H	 0.3698093324	 2.0983250019	-0.6571260901	 0.143674
H	-1.3231859595	 1.6630848799	-0.4473625286	 0.145717
H	-0.3215085235	 1.994253441	 0.9917492986	 0.150185
H	-0.7084414866	-0.3868065424	-1.8924168346	 0.114118
H	 1.4341411408	-0.7639680866	-3.056309797	 0.107079
H	 3.5937533504	-1.0853406347	-1.9156550552	 0.123691
H	 3.0059575662	 0.0574086605	-0.7113218458	 0.122127
H	 1.109522598	-3.2611584889	 0.2625352236	 0.135668
