25
gdb 122673	4.55687	0.67241	0.61269	0.7998	90.42	-0.248	0.0861	0.3341	1932.9732	0.229499	-389.507697	-389.497398	-389.496454	-389.544551	37.197	
C	 0.0771830063	 1.5239157829	-0.0181047066	-0.384277
C	 0.0044145384	 0.006174898	-0.0328278566	-0.023238
O	 0.7104743821	-0.4696182569	-1.1585991304	-0.247915
C	 0.6941085096	-1.876342345	-1.2777814698	-0.07671
C	 1.4819854805	-2.2794177567	-2.5133218048	 0.035313
C	 2.9743807512	-1.9033281686	-2.474613482	-0.193689
C	 3.5916754893	-2.8065931427	-3.5510826056	-0.201555
C	 2.8764885402	-4.1604275737	-3.3504222425	-0.19924
C	 1.4762559416	-3.8111427253	-2.7665053485	-0.22589
H	 1.1176238449	 1.8571423408	 0.0344586885	 0.125417
H	-0.3685954858	 1.9378716631	-0.9270837588	 0.125223
H	-0.4604403405	 1.9244321081	 0.8466241577	 0.112464
H	 0.437139176	-0.4106512616	 0.8931424132	 0.082351
H	-1.0462475662	-0.3300691734	-0.0724281527	 0.081987
H	 1.1395186159	-2.3431599191	-0.3799773617	 0.077317
H	-0.3460958416	-2.241362324	-1.3459477421	 0.079647
H	 1.0261605507	-1.7723100101	-3.373362339	 0.075765
H	 3.1459318836	-0.8371795311	-2.6388476377	 0.103177
H	 3.3922372396	-2.1547982478	-1.4896486625	 0.087028
H	 3.3630032432	-2.401433485	-4.5446784476	 0.094922
H	 4.6803506073	-2.8865564613	-3.4798435824	 0.089366
H	 2.8096171821	-4.736948359	-4.2772115813	 0.094064
H	 3.4369414773	-4.7762798873	-2.639253033	 0.097301
H	 1.3062050593	-4.3527306506	-1.8287948675	 0.093183
H	 0.6645561852	-4.0985766539	-3.4407352362	 0.097989
