19
gdb 31963	3.19246	0.98282	0.81655	1.9958	79.84	-0.2151	0.0223	0.2374	1447.88	0.160446	-419.252638	-419.243337	-419.242393	-419.288131	33.401	
C	-0.1653501341	 1.5907776518	 0.6210789207	-0.372332
C	 0.0912007986	 0.1395246036	 0.1758555696	-0.290177
C	 0.9452747081	-0.629806918	 1.1327314237	 0.341651
N	 2.2386106282	-0.8506403386	 1.0087488667	-0.302547
C	 2.6091589725	-1.5398450271	 2.1403495364	-0.181034
C	 1.5324033397	-1.7521381386	 2.9624502558	 0.256586
C	 1.3590291765	-2.4364080599	 4.2740776783	-0.19295
O	 0.6770100376	-1.6251193613	 5.2311209077	-0.418225
N	 0.4714560628	-1.1639107219	 2.2987427541	-0.323519
H	 0.7791216838	 2.1308724986	 0.731830298	 0.13563
H	-0.7795396923	 2.1189018338	-0.1145088082	 0.117313
H	-0.6876016063	 1.6278578161	 1.5829507766	 0.110124
H	-0.8665546945	-0.3763689985	 0.0320658653	 0.102934
H	 0.6065662849	 0.1338402955	-0.7879621658	 0.134924
H	 3.6293485861	-1.8584685692	 2.2975576535	 0.103897
H	 0.7351182724	-3.3336363456	 4.1798763657	 0.119589
H	 2.3433994375	-2.7647875017	 4.6365381992	 0.108445
H	 1.1916575358	-0.8171054255	 5.3352754136	 0.283673
H	-0.4655157273	-1.0970523134	 2.661704249	 0.266017
