19
gdb 76469	2.92557	1.43662	1.19997	1.6244	76.46	-0.2246	0.0509	0.2756	1086.5995	0.159274	-422.934483	-422.926416	-422.925472	-422.966899	31.934	
O	 0.0800849998	 1.3909184328	-0.0158775838	-0.439338
C	 0.0348724154	-0.0076386782	-0.0411285087	-0.03378
C	-0.4493568821	-0.7182205659	 1.2288571122	-0.108334
O	-0.9006682727	 0.1326322517	 2.2589736455	-0.430909
C	-1.275835885	-0.7203723734	-0.0112778373	 0.40056
C	-2.7139171485	-0.230314934	-0.2716306926	-0.107981
C	-2.511601129	-0.7152375176	-1.7410934431	-0.216107
C	-1.920397214	-1.8473778563	-0.8454219106	-0.140796
C	-3.17502685	-1.6823315068	 0.0663362836	-0.216165
H	-0.409518704	 1.653729337	 0.7760953049	 0.281463
H	 0.8746429688	-0.4219460453	-0.5930089867	 0.097289
H	 0.038909182	-1.6327958299	 1.5649924199	 0.087855
H	-0.1422727796	 0.3461919048	 2.815088124	 0.294222
H	-3.1602875139	 0.7043840582	 0.0651444725	 0.080046
H	-3.4202031428	-0.9646625305	-2.2962809822	 0.087167
H	-1.8038398993	-0.1482961932	-2.3492426428	 0.104549
H	-1.4503672936	-2.7764864762	-1.1705743177	 0.072115
H	-3.073290372	-1.9981313915	 1.1069025709	 0.100519
H	-4.1296778095	-1.9986017257	-0.3636686581	 0.087624
