21
gdb 36972	5.76061	0.59373	0.56502	2.2993	80.99	-0.2548	0.084	0.3388	1987.4858	0.180978	-424.173117	-424.1635	-424.162556	-424.209405	34.18	
C	-0.0626477374	 1.4654255152	 0.2965257702	-0.063689
O	-0.0007810818	 0.0646654863	 0.1042219213	-0.249228
C	-1.2427509643	-0.5745331284	 0.2830050514	-0.071635
C	-1.058882883	-2.0506575696	 0.0635926078	 0.084361
C	-2.1822034779	-2.9075676608	-0.3309212054	-0.182182
O	-1.1825803121	-2.5300585785	-1.2761527162	-0.226452
C	 1.3194118057	 2.0419091155	 0.1698575966	 0.011979
C	 1.8833672092	 2.3446185891	-1.1934707688	-0.245312
C	 1.4895584336	 3.4734111479	-0.2748491832	-0.273831
H	-0.7336515252	 1.9245492409	-0.4506615403	 0.081547
H	-0.4874555023	 1.6898478023	 1.2908732662	 0.083501
H	-1.6267768481	-0.3969875153	 1.3041628112	 0.085998
H	-1.995638946	-0.1938886384	-0.4269975248	 0.092518
H	-0.2346541605	-2.4929491521	 0.6237718906	 0.100634
H	-2.1877716612	-3.9569176072	-0.0399039663	 0.116127
H	-3.1664418531	-2.4675682289	-0.4903771704	 0.11202
H	 2.019977091	 1.6760309854	 0.9146796774	 0.088958
H	 2.9380343005	 2.1609371642	-1.3638278209	 0.113734
H	 1.2529697282	 2.1437158953	-2.0530718447	 0.117192
H	 0.5969778544	 4.0402730695	-0.5194914031	 0.110724
H	 2.2723313103	 4.0623874074	 0.1895267914	 0.113036
