19
gdb 82109	2.99826	1.29053	1.05517	1.762	74.85	-0.2444	0.0752	0.3196	1178.5891	0.159106	-422.965321	-422.957122	-422.956178	-422.998694	31.561	
O	 0.1001051501	 1.2944554119	-0.2311103453	-0.426539
C	-0.0599711806	-0.0868113866	-0.0823943524	 0.104963
C	 0.4175543121	-0.685820309	 1.2488669	-0.024261
O	-0.3804278134	-0.0327729664	 2.2537418209	-0.264009
C	-0.9329028179	-1.1724688576	 1.5697029259	 0.014226
C	-1.5149514274	-0.6625802233	 0.2447196785	-0.092144
C	-2.6776449393	 0.2866305966	 0.3028193835	 0.035484
C	-3.4672036044	 0.5978369845	-0.9424430097	-0.262719
C	-4.0904957216	-0.2297031849	 0.1527007191	-0.281418
H	-0.1286932188	 1.6839315519	 0.6223032514	 0.290472
H	 0.3771925493	-0.5620954245	-0.9635190434	 0.091633
H	 1.3968769244	-1.0383654025	 1.5514073994	 0.10688
H	-1.2415382722	-2.0078421729	 2.1874072463	 0.106518
H	-1.7336722918	-1.4970765311	-0.4310433754	 0.072225
H	-2.5483793108	 1.1055232733	 1.0032842204	 0.085081
H	-3.8172291068	 1.613457881	-1.0882213987	 0.113706
H	-3.1825310652	 0.0933557772	-1.8600580351	 0.109869
H	-4.2282819815	-1.2910902999	-0.0276441752	 0.107097
H	-4.8677332143	 0.2191199422	 0.7611747397	 0.112936
