15
gdb 25775	3.99024	1.10993	0.87303	1.0961	73.6	-0.2166	-0.0514	0.1653	1248.3083	0.112935	-454.016784	-454.008465	-454.007521	-454.050285	30.211	
C	 0.0167160313	 1.4884666837	-0.023855215	-0.480255
C	-0.0263133819	-0.0216683214	-0.0226863733	 0.318596
O	-0.0853638039	-0.6908411808	 0.9960095616	-0.347103
C	 0.0059149955	-0.6936563083	-1.3266256503	 0.252861
N	 0.0689394743	-0.1517823433	-2.5434481638	-0.39046
C	 0.0730401547	-1.1991809606	-3.3982637331	 0.340785
O	 0.1299718434	-1.042523368	-4.7356687635	-0.433905
C	 0.0124324402	-2.4059936618	-2.7204038106	-0.18128
N	-0.0293369309	-2.049211786	-1.4005293336	-0.253784
H	 0.9259766598	 1.8403715264	-0.5212564401	 0.15086
H	-0.8254063305	 1.8906093928	-0.5957032818	 0.150864
H	-0.0162742222	 1.8516430406	 1.003561443	 0.137579
H	 0.1631907059	-0.0921185906	-4.9003133258	 0.3049
H	-0.0029845414	-3.4264550552	-3.0600931713	 0.146174
H	-0.0780010544	-2.6421327178	-0.5864583522	 0.284167
