14
gdb 127730	4.19834	0.99471	0.87692	4.3887	68.18	-0.3022	-0.0399	0.2623	1282.4537	0.102033	-429.050788	-429.04261	-429.041666	-429.085517	27.626	
C	 0.0986978778	 1.42671583	 0.0400891658	-0.320553
N	-0.0119810914	-0.0199048844	 0.0348714082	 0.154996
N	-0.3522290198	-0.7083241685	-1.0466272947	-0.11848
N	-0.3458345902	-1.9693580459	-0.6914249386	-0.248302
C	 0.0037962443	-1.9897259086	 0.6142910383	 0.39321
C	 0.118351828	-3.2546139583	 1.4122954797	-0.424298
C	 1.4901246688	-3.5434374689	 1.8374144603	 0.269845
N	 2.5686306809	-3.7769349613	 2.1772899142	-0.299269
N	 0.2185661906	-0.7719869464	 1.1011839241	-0.286202
H	 1.1181476947	 1.7150038315	 0.3030303024	 0.171079
H	-0.1467939897	 1.7730950207	-0.96269621	 0.177953
H	-0.5982269501	 1.8456944444	 0.7683808247	 0.167011
H	-0.5170636847	-3.1990124457	 2.3027306789	 0.177427
H	-0.2469310891	-4.0802695185	 0.7949517269	 0.185583
