23
gdb 101255	3.15352	0.85699	0.82143	1.1273	82.9	-0.2538	0.0687	0.3225	1580.9745	0.201806	-425.420912	-425.409705	-425.408761	-425.45746	40.615	
C	 0.0152258765	 1.5341847744	 0.2112617989	-0.385244
C	-0.122899449	 0.0103641306	 0.231653778	-0.188815
C	-1.4421466932	-0.482337605	-0.3746098359	 0.091384
O	-1.6047396698	-0.0722684389	-1.7313551854	-0.430238
C	-1.5560363354	-1.9922876196	-0.2801430885	-0.009745
O	-1.7088519187	-2.5667874338	 1.0214222904	-0.302493
C	-2.7712162825	-2.7540245078	 0.0607053659	 0.396097
C	-4.0825337869	-2.0798017884	 0.3978593552	-0.457166
C	-2.9013612354	-4.1746554824	-0.4480950986	-0.452326
H	 0.9876243687	 1.8485622609	 0.6015949261	 0.110835
H	-0.0889701167	 1.9196158513	-0.8066440598	 0.124069
H	-0.759901049	 2.0065879855	 0.824664626	 0.116458
H	 0.709883908	-0.4508668329	-0.3210000446	 0.081752
H	-0.0576088026	-0.3717255225	 1.2567534405	 0.120362
H	-2.2728732164	-0.0136934145	 0.1614976313	 0.088138
H	-0.8401724318	-0.3886306937	-2.2261892908	 0.278412
H	-0.8164392706	-2.5083811561	-0.9038220458	 0.068254
H	-3.9332063939	-1.0992313108	 0.8514341586	 0.130397
H	-4.695856176	-1.9588692705	-0.501258242	 0.127073
H	-4.6464336537	-2.6946479332	 1.1079034868	 0.122513
H	-3.4075590089	-4.8018753892	 0.293856611	 0.123912
H	-3.4919848295	-4.2036403474	-1.3701240066	 0.122039
H	-1.9191523332	-4.609468206	-0.6490622807	 0.124332
