14
gdb 20653	3.39813	2.28779	1.37876	2.7744	67.29	-0.2354	-0.0568	0.1787	843.6567	0.109376	-378.772692	-378.765925	-378.76498	-378.803632	25.218	
C	-0.0286732592	 1.5175397755	 0.0129020035	-0.476146
C	-0.0069291933	 0.0232174491	-0.0396776335	 0.183069
C	-0.0378530338	-0.7183590441	-1.1792120053	-0.192199
C	-0.0129992086	-2.1433447707	-1.1201519322	 0.007062
N	 0.0394880767	-2.8097932543	-0.0017911183	-0.186358
N	 0.0694811221	-2.0679568327	 1.1132730801	-0.262052
C	 0.0523154676	-0.6776086856	 1.2443828033	 0.372136
O	 0.0852821288	-0.1532301237	 2.3461263225	-0.384207
H	 0.8596489671	 1.8932399539	 0.532006275	 0.153007
H	-0.0733776454	 1.954629888	-0.9870070396	 0.11991
H	-0.886764677	 1.865497096	 0.5979925543	 0.153015
H	-0.0819532627	-0.2339959352	-2.1505829866	 0.11136
H	-0.0373032341	-2.7430813072	-2.0228333514	 0.127361
H	 0.1102015719	-2.5927349791	 1.9775144582	 0.274042
