15
gdb 31678	6.74918	0.86156	0.76775	3.8372	72.08	-0.2138	-0.0473	0.1666	1404.3555	0.111437	-457.79011	-457.781581	-457.780637	-457.825512	29.502	
C	 0.0268491434	 1.4195505059	 0.0921510622	-0.248971
O	 0.0175186699	-0.0070484585	 0.0181960315	-0.267386
C	 0.6087973916	-0.6806517056	 1.0032161979	 0.499252
C	 0.7501915688	-2.0167591731	 1.1998355216	-0.473976
C	 1.4800447015	-2.1429785568	 2.4372830766	 0.18022
C	 1.8992310118	-3.374919053	 3.1102480265	 0.073837
O	 2.5133420401	-3.414166466	 4.1536030955	-0.274878
C	 1.7175689759	-0.8748457361	 2.8826854943	-0.090589
O	 1.1882394251	 0.029464599	 2.012234837	-0.185805
H	 1.049902893	 1.8083716506	 0.0896988695	 0.13978
H	-0.5021326304	 1.7610071255	-0.7974195333	 0.144719
H	-0.4891390904	 1.7716860707	 0.9908313278	 0.139685
H	 0.388107574	-2.8024378868	 0.5582654324	 0.126359
H	 1.6069997376	-4.3097107086	 2.5826089407	 0.070701
H	 2.2179257782	-0.4756418371	 3.7472426896	 0.167053
