20
gdb 126185	2.92324	1.19765	0.91327	3.1744	82.95	-0.2366	0.0048	0.2414	1345.9824	0.169511	-403.17381	-403.163939	-403.162994	-403.209156	35.12	
C	 0.0366405347	 1.6204530806	 0.3274627707	-0.372392
C	-0.018465227	 0.1387248075	-0.0849919786	-0.296442
C	-1.4100956357	-0.389420361	-0.1848936219	 0.369707
C	-2.178305609	-0.8424040528	-1.2159148839	-0.01459
C	-1.8416102911	-0.974208275	-2.6674075406	-0.515296
C	-3.4190025468	-1.1757071575	-0.5821735663	 0.335752
C	-4.65433636	-1.729008454	-1.2160121237	-0.49618
N	-3.3870666855	-0.9395548275	 0.7068789061	-0.213546
O	-2.1124760393	-0.4398359177	 0.9660489549	-0.228639
H	 1.0739417633	 1.9579892986	 0.4079909748	 0.116368
H	-0.4728061802	 2.2506738499	-0.4076391247	 0.122875
H	-0.44997225	 1.7699907268	 1.2945835027	 0.141375
H	 0.4769742972	-0.0029302027	-1.0504175476	 0.114
H	 0.5373493885	-0.4626973041	 0.6448281403	 0.12742
H	-1.9400742882	-2.0098940068	-3.0131646579	 0.132163
H	-2.5034770066	-0.3642611112	-3.2934752928	 0.132133
H	-0.8153588784	-0.6568991095	-2.8702052511	 0.128436
H	-4.4529157479	-2.6928663267	-1.6964434317	 0.133673
H	-5.4314340709	-1.8709446253	-0.4626966452	 0.149873
H	-5.0363180971	-1.0545726318	-1.9902921335	 0.133309
