15
gdb 90590	3.45851	1.35098	1.04483	3.1327	68.01	-0.2451	-0.0199	0.2252	1092.6024	0.113369	-453.950976	-453.943221	-453.942277	-453.983816	28.176	
O	 0.2349566694	 1.4048220921	 0.0943576652	-0.408656
C	 0.0380916632	 0.0221603475	 0.0169320795	-0.028794
C	-1.4884021672	-0.3634037226	-0.0202259028	-0.186722
N	-1.2105585321	-1.0581571597	-1.30007318	-0.124111
C	 0.0996202033	-0.6274213113	-1.3755999995	 0.382745
N	 0.7535922582	-0.7923154379	-2.4529600662	-0.365357
C	-0.2465569892	-1.4590677918	-3.3220970416	-0.298756
C	-1.6082564158	-1.5227585319	-2.5535122835	 0.368772
O	-2.6905774425	-1.8803326526	-2.9332196822	-0.347401
H	 1.1572142395	 1.5930374416	-0.1113326	 0.304167
H	 0.6025180501	-0.5302732355	 0.7795438976	 0.108021
H	-1.8481996018	-1.0192566577	 0.7735210864	 0.138481
H	-2.1327761716	 0.5113538946	-0.1282551133	 0.151993
H	-0.3706613861	-0.9106660754	-4.2609332985	 0.152769
H	 0.0746184424	-2.4750788694	-3.576546981	 0.152848
