19
gdb 33250	5.46437	0.63814	0.60975	1.7939	77.87	-0.2191	0.0234	0.2425	1803.3298	0.159435	-423.04816	-423.039038	-423.038094	-423.083523	32.688	
O	-0.0211585268	 1.4438938195	-0.22031651	-0.421663
C	 0.0430643259	 0.0437851961	 0.0039777717	-0.072248
C	-1.3746972672	-0.507906281	-0.0610051513	-0.155216
C	-1.4286752704	-2.0299339976	 0.1554764793	-0.338245
C	-2.8178048989	-2.5905766112	 0.0758952725	 0.256611
C	-3.5420887406	-3.1477001702	 1.0835664807	-0.103457
O	-4.771521294	-3.5380857733	 0.6487392685	-0.14255
C	-4.8351455422	-3.221972705	-0.6706831754	 0.006506
C	-3.6779838928	-2.6426552211	-1.0784192051	-0.278298
H	 0.8719349126	 1.7972055987	-0.1751454879	 0.284958
H	 0.6705541881	-0.4536256237	-0.7545617056	 0.082367
H	 0.4859663747	-0.1828558818	 0.9883080307	 0.082804
H	-1.9879678257	-0.0030202005	 0.693568731	 0.111116
H	-1.8048892766	-0.2503893421	-1.0356636738	 0.109268
H	-0.790589139	-2.5208703919	-0.5920467556	 0.106209
H	-0.9969785005	-2.2758478816	 1.133349765	 0.101151
H	-3.3318781473	-3.3350793652	 2.1240978458	 0.129912
H	-5.7575773462	-3.4731277858	-1.1678904106	 0.133379
H	-3.4517285831	-2.2942696423	-2.07464177	 0.107394
