21
gdb 118309	1.99467	0.98703	0.69799	0.6019	87.34	-0.2193	-0.0655	0.1538	1686.3766	0.179744	-420.422316	-420.411068	-420.410123	-420.461885	38.241	
C	-0.1576865751	 1.5596367147	-0.0244867229	-0.408409
C	-0.0576553923	 0.0401403446	 0.0559300835	-0.091226
N	-1.3645060715	-0.5683221486	-0.0731960018	-0.320751
C	-1.5530567687	-1.9154620812	-0.0909916595	 0.2662
C	-3.0213818903	-2.269938564	-0.1459962551	 0.112871
O	-3.8909669572	-1.4300996748	-0.1144511248	-0.267908
N	-0.5579923453	-2.7271841023	-0.0702330249	-0.294819
C	-0.6942596505	-4.1685694146	-0.1195682305	-0.148929
C	-0.1316192844	-4.7147702759	-1.4373788006	-0.356269
H	 0.8328911092	 2.0112543082	 0.0740248571	 0.12597
H	-0.5823165701	 1.8773895916	-0.982301358	 0.126298
H	-0.7883296794	 1.9586757012	 0.7777289095	 0.122221
H	 0.5931927532	-0.3496189799	-0.7360644219	 0.11984
H	 0.4085811679	-0.2673904566	 1.0031853115	 0.109882
H	-2.1986802153	-0.0068506435	-0.0048639338	 0.255327
H	-3.269667183	-3.341366674	-0.222109255	 0.108094
H	-0.1000369787	-4.5774242874	 0.708582473	 0.107654
H	-1.7151755721	-4.5500087929	 0.0244757356	 0.084487
H	-0.1283550512	-5.8095176092	-1.4335422476	 0.109044
H	-0.732752729	-4.3748310332	-2.2870567227	 0.112397
H	 0.892087844	-4.3607360024	-1.587251351	 0.128024
