17
gdb 19882	3.26697	2.31116	2.03215	3.5316	66.24	-0.2193	0.0608	0.2801	752.6425	0.1452	-363.825146	-363.819014	-363.81807	-363.855075	25.647	
O	 0.0500467363	 1.4151767124	-0.1360699451	-0.431712
C	-0.0333672668	 0.0403464346	-0.0038710409	 0.125728
C	-0.410655549	-0.6791340991	 1.2681123936	-0.111185
C	-1.1542580123	 0.081552281	 2.3745274187	-0.243834
C	-2.530279035	 0.4363503353	 1.8119209488	-0.031654
N	-2.5026161433	 1.4021303466	 0.6921354846	-0.361009
C	-2.6195430401	-0.0599209068	 0.4134714785	-0.037084
C	-1.3311455599	-0.7513977432	 0.0373463086	-0.116519
H	-0.8260653388	 1.767545403	 0.1188953804	 0.303153
H	 0.7652722587	-0.4399895066	-0.564996897	 0.094654
H	 0.1901988763	-1.5315415552	 1.5694119863	 0.080626
H	-1.2777979016	-0.5640449754	 3.2494911046	 0.105301
H	-0.6125949384	 0.9774517964	 2.6987066677	 0.121177
H	-3.3888089185	 0.4669972244	 2.4751264562	 0.091949
H	-3.4070124784	 1.8534593231	 0.5906187416	 0.236989
H	-3.5497107517	-0.4145127717	-0.015894146	 0.092755
H	-1.4207664175	-1.6498973087	-0.5630968006	 0.080664
