15
gdb 62305	3.54356	1.45633	1.18785	2.4867	68.89	-0.2511	0.02	0.2711	1001.0274	0.112753	-416.710869	-416.703611	-416.702667	-416.742475	28.293	
N	-0.0088122145	 1.4978721387	-0.0370829037	-0.559595
C	 0.03282363	 0.0438492366	-0.0510358656	 0.125807
C	 0.9847484095	-0.5164456922	-1.0222855499	 0.221168
N	 1.7426202133	-0.9230320909	-1.796330476	-0.337766
C	 0.0335304099	-0.6263396507	 1.3460149962	-0.112908
C	-1.4921399604	-0.3559197863	 1.5307766037	 0.078886
O	-1.8074286816	-1.7335549823	 1.8836610107	-0.32481
C	-0.7966246372	-1.8478319467	 0.8427436243	 0.086786
C	-1.3499191542	-0.65308953	 0.0055240965	-0.112908
H	 0.9120062711	 1.8735361039	 0.1740760353	 0.244289
H	-0.2561947904	 1.8509455822	-0.9578213659	 0.244289
H	 0.8146114784	-0.6158366619	 2.1045402446	 0.101741
H	-2.0024189107	 0.4556298323	 2.0412135059	 0.120567
H	-0.4687897173	-2.834761935	 0.5240968073	 0.122713
H	-2.1326079861	-0.6728265977	-0.7511577534	 0.101741
