18
gdb 85654	2.01064	1.68651	1.18372	2.1916	77.57	-0.213	-0.029	0.184	1107.8762	0.146246	-401.921236	-401.912287	-401.911343	-401.955307	33.258	
C	 1.0416684595	 1.1646321482	-0.3559535454	-0.337218
N	 0.1169262123	 0.0890296687	 0.0018761345	-0.063633
C	-0.0046066827	-0.9643464549	-1.0171403374	-0.197795
C	 1.0709371447	-2.0449019574	-0.7047988324	-0.2825
C	 2.3395120451	-1.8462052467	-1.3854745027	 0.345996
C	 3.3915204515	-1.6732067623	-1.9421955196	-0.477351
C	 1.2366995561	-1.8819994864	 0.8405583816	 0.388016
O	 1.8112998405	-2.6333760888	 1.5748911335	-0.291225
C	 0.4787778336	-0.6023839721	 1.2338855855	-0.286172
H	 2.0882444525	 0.8430127415	-0.4826840757	 0.117858
H	 0.7116611289	 1.6226589175	-1.2928366591	 0.124303
H	 1.0096852101	 1.9359786552	 0.4195618677	 0.123328
H	-0.9968867483	-1.4255957842	-0.935778846	 0.109862
H	 0.0948182105	-0.5461132457	-2.0191101415	 0.122582
H	 0.7072981382	-3.0601638995	-0.8974303891	 0.130584
H	 4.3200256878	-1.5300374135	-2.4371723256	 0.202325
H	 1.0776301737	 0.0166157918	 1.9059230135	 0.138192
H	-0.4176601441	-0.9154417813	 1.7905291982	 0.132848
