13
gdb 133303	2.33301	1.90944	1.05093	2.6842	69.24	-0.2156	-0.0533	0.1624	1025.2067	0.088908	-493.995724	-493.988122	-493.987177	-494.027769	28.648	
N	 0.0401910649	 1.3760360556	 0.1537342908	-0.563577
C	-0.026290686	 0.012375403	 0.0559666453	 0.3321
C	-1.1723480173	-0.7122908833	 0.0297933504	 0.119417
F	-2.3354708595	-0.0475322939	 0.0325940875	-0.073107
C	-1.146502164	-2.143099759	-0.0015122454	 0.179614
N	-2.1994385948	-2.8816153202	-0.0276299894	-0.549108
C	 0.2458691618	-2.628651402	-0.0097530916	-0.014218
N	 1.331760179	-1.9462912016	 0.0011356	-0.067801
O	 1.2027295507	-0.558868429	 0.0355635323	-0.272245
H	 0.8784740359	 1.7932604888	-0.2233356034	 0.273677
H	-0.8149511212	 1.8553149222	-0.0843338137	 0.278338
H	-1.9395351138	-3.8691420099	-0.0513950108	 0.212597
H	 0.4152706542	-3.7035688507	-0.034305912	 0.144313
