21
gdb 85275	2.40451	1.50125	1.12479	3.3864	82.67	-0.2315	-0.0057	0.2258	1169.7033	0.182381	-387.126832	-387.118006	-387.117062	-387.159859	34.529	
C	 0.0319418885	 1.5771084896	-0.0098719705	-0.404697
C	 0.0159219053	 0.0471493846	 0.0264646631	-0.030367
C	 0.664523831	-0.6274542789	-1.2023677039	-0.365985
C	 1.2376988229	-1.9552469936	-0.6841447622	 0.420052
O	 1.4008192528	-2.9560854571	-1.3382768634	-0.334986
C	 1.4769567507	-1.8077308528	 0.7807880283	-0.195374
C	 2.2230060679	-0.5416683327	 1.199683348	-0.335511
C	 0.7295239539	-0.5623320191	 1.2492635309	 0.348724
C	 0.0136930188	-0.5250421741	 2.578344129	-0.485231
H	 1.0580572447	 1.959340316	-0.0467788837	 0.115979
H	-0.4966774577	 1.9536414988	-0.8915228911	 0.117694
H	-0.452440139	 2.0048577384	 0.8738869845	 0.116376
H	-1.0297853441	-0.2853770264	 0.077838027	 0.079429
H	-0.0294088003	-0.8110929508	-2.0248137092	 0.126591
H	 1.4843931035	-0.02119725	-1.6093391388	 0.122848
H	 1.5822324938	-2.7022755742	 1.3823974985	 0.100748
H	 2.7578599321	-0.6101327073	 2.1410073124	 0.120675
H	 2.7420286716	 0.0337154504	 0.4402052082	 0.118
H	-0.1433473014	 0.5058780207	 2.9156130884	 0.12403
H	-0.9684301352	-1.00663556	 2.5109654728	 0.121805
H	 0.5879855102	-1.0403998115	 3.3542842215	 0.1192
