17
gdb 130453	6.2979	0.78559	0.71744	20.3686	86.77	-0.1198	-0.0597	0.06	1531.9659	0.13801	-451.222784	-451.214157	-451.213213	-451.25707	31.157	
N	-0.0292342727	 0.9787650898	 0.0603252271	-0.424152
H	-0.112152359	-0.0390257434	 0.0127164842	 0.333087
H	 0.9544777011	 1.2165879205	 0.2112399535	 0.334971
H	-0.3050748394	 1.3697018031	-0.8443817827	 0.332744
C	-0.8863393898	 1.5809779588	 1.1961007612	-0.206744
C	-0.7136274233	 3.0885182292	 1.2301923285	-0.34028
C	-1.3418450019	 3.5632643064	 2.5132353678	 0.38424
N	-1.2949398892	 2.7482627444	 3.5491389981	-0.297702
O	-1.9833578082	 3.502362251	 4.5308215188	-0.273718
C	-2.3761167713	 4.7216004585	 3.9381610136	 0.400839
N	-3.0226126952	 5.6239363706	 4.5764255142	-0.621319
N	-1.9528177744	 4.7344939565	 2.6286488161	-0.433753
H	-1.9117055918	 1.2716084988	 0.9917780181	 0.177059
H	-0.5450216722	 1.1293174961	 2.1279876564	 0.202887
H	 0.3545455217	 3.3524080054	 1.1942032377	 0.112747
H	-1.2070447526	 3.5749681982	 0.3823234054	 0.132164
H	-3.1798235817	 5.3017268061	 5.530730602	 0.186931
