24
gdb 119378	3.14396	0.93793	0.83383	1.9403	90.04	-0.2201	0.0816	0.3017	1536.6832	0.217516	-368.345758	-368.336106	-368.335161	-368.380595	36.639	
C	-0.554362232	 1.8326420209	-0.3215651825	-0.380104
C	-0.3493871989	 0.3183360302	-0.231775853	-0.162738
C	-1.6639426512	-0.457832062	-0.0720083739	-0.336788
C	-1.4778083847	-1.9552243593	 0.0230180751	 0.322233
C	-0.8562706187	-2.9411451881	-1.0002138368	-0.202955
N	-1.247648974	-3.8904669611	 0.1437914348	-0.16253
C	-0.6671562421	-2.7900885577	 1.0488787386	-0.218381
C	-2.5590889783	-3.0668497485	 0.1745500539	 0.042032
C	-3.4739561693	-3.2049372081	 1.3769263614	-0.443517
H	 0.3985136365	 2.3590402955	-0.4348939076	 0.111644
H	-1.1848902097	 2.0967037132	-1.1779302778	 0.114212
H	-1.0438762682	 2.2197094634	 0.5790739798	 0.114047
H	 0.1720578441	-0.035671882	-1.1302674016	 0.099388
H	 0.3114739373	 0.0868052495	 0.6134390346	 0.099221
H	-2.189719866	-0.1047617509	 0.8263326745	 0.095843
H	-2.326751521	-0.2344844437	-0.9199967383	 0.094512
H	-1.400071632	-3.1301024134	-1.9311670509	 0.093272
H	 0.2227898872	-2.8967249188	-1.1716859094	 0.094811
H	 0.424260653	-2.7332030404	 1.0033540243	 0.096276
H	-1.0010569323	-2.8342747732	 2.0864085219	 0.097079
H	-3.1405204877	-3.2529033179	-0.7372902008	 0.063989
H	-3.0008998157	-2.956540136	 2.3294638536	 0.118138
H	-4.3422960957	-2.5481389251	 1.2559328397	 0.118918
H	-3.8433051708	-4.2337583066	 1.4438549404	 0.131398
