17
gdb 123415	4.83987	0.9052	0.87583	1.1959	73.09	-0.2869	-0.0222	0.2647	1351.2174	0.137291	-417.998379	-417.990597	-417.989653	-418.032041	28.449	
C	-0.0797997074	 1.5764888409	-0.1553831434	-0.340544
C	-0.1352521294	 0.0608695828	-0.2471629308	 0.029698
C	-0.1346547392	-0.769490565	 1.0101738525	-0.252945
C	-1.3849249536	-0.6689961852	 0.1695995136	-0.276615
C	 1.3198186005	 2.0832475856	-0.0186160055	 0.386304
N	 1.7372763843	 2.7291039298	 1.0384247639	-0.179026
O	 3.0860177947	 2.9970689163	 0.7510351045	-0.153391
C	 3.3132673668	 2.4738406433	-0.4523644275	 0.107213
N	 2.2878837548	 1.8986819572	-0.9911831991	-0.30672
H	-0.5218977711	 2.0201608911	-1.0559369428	 0.127466
H	-0.6588124033	 1.9279670226	 0.7036057718	 0.126403
H	 0.4067765083	-0.3467133577	-1.0948597861	 0.10447
H	 0.4140174146	-1.7045571632	 1.0105458419	 0.114699
H	-0.1193538536	-0.2462630315	 1.9608179956	 0.120246
H	-2.2104082425	-0.0814328451	 0.558433766	 0.112844
H	-1.6912872931	-1.5340370666	-0.4079015686	 0.114954
H	 4.3103485292	 2.5798144148	-0.854715826	 0.164944
