12
gdb 24961	5.347	1.38307	1.10236	6.8027	61.57	-0.2086	0.0033	0.2119	976.3131	0.080945	-468.855472	-468.849149	-468.848205	-468.886183	24.335	
O	 0.0336334111	 0.0159828512	-0.0864111184	-0.364964
C	-0.0253604303	 1.2087000174	-0.0618871565	 0.454458
N	-1.1821104672	 2.0140394592	-0.091543444	-0.474008
C	-0.7633779092	 3.3182934849	 0.1553697246	 0.27507
C	 0.5930266608	 3.32199478	 0.1519285445	 0.342725
O	 1.0847921728	 2.0463661845	 0.025762449	-0.238022
N	 1.1339897719	 4.5548459125	 0.0404796336	-0.329526
C	 0.06726042	 5.3358518733	-0.0220954573	-0.002377
N	-1.1254600742	 4.6308534076	-0.0203282884	-0.363495
H	-2.051817217	 1.5889472514	 0.1884273131	 0.277423
H	 0.0799965904	 6.4142472347	-0.0115503952	 0.144352
H	-2.0450526793	 5.0353346134	 0.0343585252	 0.278365
