18
gdb 37209	3.18839	1.98522	1.64936	1.189	80.31	-0.2225	-0.0099	0.2126	869.866	0.15116	-364.721252	-364.715145	-364.714201	-364.751294	26.612	
C	 0.0623923507	 1.5474141256	 0.2126214137	-0.26354
C	 1.5366863232	 1.8145664807	 0.0124066236	-0.053533
C	 2.1601976546	 0.7799645941	-0.5746209195	 0.062684
C	 3.264054372	 0.0837487412	 0.193578317	-0.1178
N	 2.9739204253	 0.1888963002	 1.6596047686	-0.336321
C	 2.45717492	-0.9630060872	 0.8853536082	-0.015662
C	 1.0494169355	-1.0305418485	 0.2572772482	-0.050109
C	-0.0121830797	 0.0589252855	-0.127987775	-0.057723
C	 1.1343171617	-0.2609164031	-1.0326838912	-0.125842
H	-0.203042519	 1.7878239888	 1.249616985	 0.117893
H	-0.6251380234	 2.115466734	-0.4309433896	 0.105149
H	 2.0557401058	 2.5480081003	 0.6187626364	 0.105509
H	 4.2792644798	-0.0890477216	-0.1461708965	 0.088819
H	 3.7898189945	-0.1334876895	 2.1820645929	 0.220641
H	 2.8869541757	-1.9368507494	 1.1044753862	 0.085098
H	 0.6107390775	-2.0249701377	 0.2732503321	 0.078635
H	-0.9932241797	-0.3700099414	-0.3197310526	 0.077385
H	 1.0819666853	-0.6693622018	-2.0360913474	 0.078717
