19
gdb 92506	2.53984	1.61754	1.4252	2.3634	69.86	-0.2565	0.057	0.3135	998.5647	0.160321	-460.155654	-460.147863	-460.146919	-460.187473	31.65	
O	-0.0534258855	 1.3587866648	 0.6012626124	-0.449156
C	 0.0256856059	 0.0723980487	 0.004153415	 0.12749
C	 0.8800768297	-0.8995627393	 0.8493592702	-0.26961
C	-0.1027273837	-1.4105054797	 1.8883215127	 0.05941
O	-0.510725609	-0.3626428078	 2.8239699264	-0.311129
C	-1.9057703955	-0.5096484868	 2.4622575537	-0.145082
C	-1.5320328816	-1.3876383666	 1.2495637668	 0.355294
O	-2.2526178393	-2.5673354726	 1.0278103187	-0.480647
C	-1.3475975046	-0.637782674	-0.0783744563	-0.269711
H	-0.1135963293	 1.2152015294	 1.5557238782	 0.290066
H	 0.4430424831	 0.2320244294	-0.9939913073	 0.081389
H	 1.2287437321	-1.7426987218	 0.2410092197	 0.108617
H	 1.7540417999	-0.4065470019	 1.2845736654	 0.116761
H	 0.1952189853	-2.3213400367	 2.4198659608	 0.070025
H	-2.4663560581	-1.0511334373	 3.2383862896	 0.094172
H	-2.3876156358	 0.454353616	 2.2700654346	 0.119686
H	-2.3813394714	-3.0142800115	 1.8715954342	 0.27967
H	-2.1506025117	 0.0724210868	-0.2890461174	 0.110996
H	-1.3354218305	-1.3884603388	-0.8758232076	 0.111762
