19
gdb 40682	3.56677	1.02991	0.92837	1.9876	76.8	-0.2262	0.0714	0.2976	1313.3068	0.158364	-422.96164	-422.953162	-422.952218	-422.9958	31.356	
C	-0.0492940674	 1.5346763846	-0.0150522076	-0.185552
O	 1.1093595354	 0.7087057001	-0.1457799317	-0.242077
C	-0.1672149453	 0.0708504225	-0.0092178574	 0.094272
C	-0.401918116	-0.7124212623	 1.2350208611	-0.12367
C	-1.5953713514	-1.6653252207	 1.3205632506	-0.379992
C	-0.2068452958	-2.2000543867	 1.2447597385	 0.460531
C	 0.4669564691	-3.1050689852	 0.217736402	-0.362501
C	 1.1305069969	-3.7391736298	 1.459834964	-0.071536
O	 0.4062350802	-2.8572716402	 2.3515465467	-0.306731
H	-0.1311850703	 2.0792515797	 0.9250391321	 0.113916
H	-0.3259694297	 2.101433753	-0.903450825	 0.112507
H	-0.5180575366	-0.40621351	-0.9270238206	 0.087114
H	-0.1259545209	-0.2077041395	 2.156725624	 0.101818
H	-2.1068750519	-1.7350444075	 2.2742851631	 0.127248
H	-2.2377329046	-1.7640990943	 0.4499336398	 0.113543
H	-0.2060156554	-3.7632767789	-0.3353030967	 0.113866
H	 1.1449685285	-2.6060592436	-0.4766799314	 0.128233
H	 0.8894858672	-4.7906946128	 1.6493072895	 0.107485
H	 2.2133725479	-3.5941287983	 1.540886249	 0.111528
