15
gdb 33722	6.17445	0.92191	0.92187	0.0019	77.35	-0.3244	-0.0077	0.3167	1231.7203	0.114239	-379.652726	-379.645276	-379.644331	-379.684781	28.227	
N	 0.0210317854	-1.089313308	-0.0100868337	-0.33756
C	 0.0026625237	 0.0665851329	 0.0005065153	 0.166123
C	-0.0199673643	 1.5057684616	 0.0118612839	 0.197529
C	-0.6463741888	 2.4277441759	 1.106989366	-0.278998
C	-0.0493992458	 3.3861500375	 0.0267988223	 0.197528
C	 1.212785696	 2.4656052429	 0.0043140188	-0.278965
C	-0.6717175245	 2.4445159039	-1.0542153051	-0.278968
C	-0.0718319206	 4.825335375	 0.0382802864	 0.166125
N	-0.0898584405	 5.9812509868	 0.0474963589	-0.337561
H	-1.7339159368	 2.4100480068	 1.1913719495	 0.130813
H	-0.1542244188	 2.4277074213	 2.0806761133	 0.130749
H	 1.8308459391	 2.4681359498	 0.9033037855	 0.130751
H	 1.8087727326	 2.4821954845	-0.9092898873	 0.130813
H	-0.2018842309	 2.4596947223	-2.0387088	 0.130797
H	-1.7609536559	 2.4279422168	-1.1139627039	 0.130824
