18
gdb 22192	2.48951	0.81585	0.62166	2.0043	84.94	-0.2286	-0.0214	0.2073	1792.2536	0.143321	-439.002892	-438.99185	-438.990906	-439.041125	36.676	
C	 0.0449930551	 1.3781968739	 0.1177116722	-0.225338
O	-0.0024212257	-0.0233751299	-0.0029769117	-0.215037
C	 0.6360273325	-0.6714823365	 1.0581472803	-0.13513
C	 0.5726602823	-2.1763678764	 0.9075710619	 0.136152
N	-0.0233387608	-2.6672853088	-0.1180002631	-0.155964
O	-0.0012454987	-4.0583468893	-0.1208912167	-0.388291
C	 1.195001035	-2.9316076663	 1.9412543029	 0.080353
C	 1.7365436921	-3.5232655656	 2.8426489177	 0.07919
C	 2.3826056902	-4.2581660508	 3.9172123207	-0.503266
H	 1.0806843573	 1.7541958605	 0.1273924326	 0.104191
H	-0.4742853161	 1.7949500517	-0.748105567	 0.131383
H	-0.4545039768	 1.7279270726	 1.0354886036	 0.104187
H	 1.6985657632	-0.3748285057	 1.1287860587	 0.105398
H	 0.178782293	-0.4007419615	 2.0274546777	 0.105374
H	-0.4767015246	-4.2638033721	-0.9334529911	 0.308732
H	 2.2931617756	-5.3388616019	 3.7645020699	 0.159086
H	 3.4492481354	-4.0146764981	 3.9770435721	 0.15454
H	 1.932972981	-4.0175780358	 4.8870024393	 0.154439
