19
gdb 51090	3.73725	1.06791	0.99943	2.8901	75.32	-0.2462	-0.0276	0.2186	1225.9452	0.15933	-423.01122	-423.003203	-423.002259	-423.044761	30.493	
O	-0.1738045429	-0.0549350745	-0.1554412426	-0.237783
C	 0.0001360563	 1.1303177338	-0.0382506549	 0.160312
C	 1.3396997967	 1.8259850458	-0.1703752534	-0.393274
C	 1.3296310991	 2.9123559521	-1.2324507474	 0.269208
C	 0.423794983	 4.1937486876	-1.1734355857	-0.274368
C	 1.4370373117	 4.6558468802	-2.2475957254	 0.105841
C	 2.5233218979	 3.9033190646	-1.4431072593	-0.279694
O	 1.1735799778	 3.7793667064	-3.3544374493	-0.276331
C	 1.0849237547	 2.4987438627	-2.6954800893	-0.105141
H	-0.8518933495	 1.8137816919	 0.1851942108	 0.078775
H	 1.5709472033	 2.2817289922	 0.8030319374	 0.119419
H	 2.1026828139	 1.0693749898	-0.3814686132	 0.123422
H	-0.6219705506	 4.1112547576	-1.4793436761	 0.104935
H	 0.5157687348	 4.7296008702	-0.2265396211	 0.1018
H	 1.5324878754	 5.6802485409	-2.6020872018	 0.084612
H	 2.8142072748	 4.4091528773	-0.5203980115	 0.101246
H	 3.3994147917	 3.5490254721	-1.9918181646	 0.104186
H	 1.8507229959	 1.8155149684	-3.0821798931	 0.105447
H	 0.0967405761	 2.0532653511	-2.8636190194	 0.107386
