19
gdb 41631	2.80673	1.84423	1.52857	0.9211	73.24	-0.2453	0.0659	0.3112	937.0901	0.161939	-422.998833	-422.991919	-422.990975	-423.030273	27.877	
C	 0.3329753796	 1.4401814235	-0.5512463124	-0.249461
C	 1.5949672298	 1.556730814	 0.3515511969	-0.229748
C	 1.476701916	 0.0433140793	 0.6886037048	-0.074658
C	 0.0600427415	 0.0299011443	 0.0541824471	 0.12138
O	-0.0653648174	-1.0883367983	-0.812928911	-0.27168
C	 1.1981831632	-1.6647621304	-1.0657347756	 0.061236
C	 1.9801830867	-1.1070921663	-2.2712013799	-0.102779
O	 2.8286108713	-0.3184547774	-1.4043693384	-0.289718
C	 2.2576487572	-0.9162824816	-0.2140737244	 0.077559
H	-0.4518806497	 2.1855819486	-0.4035620807	 0.097227
H	 0.5751893142	 1.3906188699	-1.6140738635	 0.115335
H	 2.516550432	 1.8599246589	-0.1449937957	 0.121075
H	 1.4343478127	 2.1833299865	 1.2314897867	 0.098786
H	 1.5666296164	-0.2487305905	 1.736952684	 0.070495
H	-0.786246511	 0.0086498763	 0.745612802	 0.08063
H	 1.1114594222	-2.7515605985	-0.9983821342	 0.085933
H	 2.5600131766	-1.8562190986	-2.8251067508	 0.100588
H	 1.4003663235	-0.4959090787	-2.970372628	 0.110901
H	 3.0019038653	-1.5144938109	 0.3206874632	 0.0769
