18
gdb 117052	4.12754	0.7667	0.68052	1.065	71.78	-0.2397	-0.0598	0.1799	1659.6416	0.145036	-476.262779	-476.252318	-476.251373	-476.299809	35.656	
C	 0.402024852	 1.3388012765	 0.1510694138	-0.374026
C	-0.3655294556	 0.068088697	-0.2189940042	-0.146776
N	 0.1799470016	-0.5916553849	-1.3921078169	-0.306845
C	 0.7450860119	-1.8154866315	-1.3699158927	 0.313463
O	 0.8626033362	-2.5463859402	-0.3983683261	-0.379096
C	 1.2620415828	-2.2435310542	-2.7606493061	 0.292808
O	 1.1544400482	-1.5198438452	-3.7205022314	-0.293817
C	 1.8955767797	-3.6166518387	-2.7891775027	-0.168767
O	 2.3294320703	-3.9024895313	-4.0922492595	-0.401913
H	 1.4468621705	 1.1094895594	 0.3787954027	 0.133096
H	 0.3830758483	 2.0674706357	-0.6663690069	 0.119452
H	-0.0480516633	 1.8099352242	 1.0302430144	 0.124017
H	-0.3196407371	-0.6638724371	 0.590809102	 0.148774
H	-1.422418286	 0.3031456515	-0.3960009535	 0.11448
H	 0.1827797474	-0.1291272762	-2.2914420399	 0.264215
H	 2.70740142	-3.6159798547	-2.0434452726	 0.132571
H	 1.1456288431	-4.3287602619	-2.4072068829	 0.132555
H	 2.7315099797	-4.7757037284	-4.0842041074	 0.295811
