23
gdb 106411	2.67178	1.33651	1.14356	0.2393	90.68	-0.262	0.0936	0.3556	1225.4745	0.205909	-351.095465	-351.086677	-351.085733	-351.128745	34.959	
C	-0.030470843	 1.5258526962	 0.0507651002	-0.379715
C	 0.0290559804	-0.0023609237	-0.0571602252	-0.315208
C	 0.7332897343	-0.4923786757	-1.2973016878	 0.27558
C	 0.3493398347	-0.2313157058	-2.7949523454	-0.257448
C	 1.6145018216	-1.1378555386	-2.8491437002	-0.135116
C	 2.2187209525	-0.2386007231	-1.7303657522	-0.257436
C	 0.9697296728	-1.9610561014	-1.7225690396	 0.426896
C	 1.4163441949	-3.162798679	-0.9676073591	-0.375852
C	 0.0853803625	-3.1575163608	-1.7255063393	-0.375852
H	 0.9744805507	 1.9600266086	 0.0718534922	 0.119005
H	-0.5626498214	 1.9617725749	-0.8010686698	 0.119034
H	-0.5482660038	 1.8365420917	 0.9632191859	 0.110905
H	 0.537688972	-0.4140374298	 0.8250493848	 0.097941
H	-0.9899004446	-0.4122612666	-0.0430435608	 0.09792
H	-0.5878088356	-0.6740971427	-3.1420567982	 0.089447
H	 0.473669221	 0.7933535587	-3.1572329558	 0.083396
H	 2.119910823	-1.5147667683	-3.7392491816	 0.06797
H	 2.4729588382	 0.7855408306	-2.0187336442	 0.083388
H	 2.9927333864	-0.6880675553	-1.1029348035	 0.089446
H	 2.2228362629	-3.768402097	-1.3702086088	 0.109492
H	 1.3739274985	-3.1503219537	 0.1177357105	 0.108358
H	-0.8262968331	-3.1415811051	-1.1351472982	 0.108356
H	 0.0164354851	-3.7596527842	-2.6265904939	 0.109493
