14
gdb 129180	3.38255	1.63323	1.1104	3.9532	70.58	-0.2392	-0.0248	0.2144	1001.9621	0.104122	-432.86247	-432.855809	-432.854865	-432.893508	25.75	
N	-0.0242757969	 1.3473284429	 0.0869965735	-0.549467
C	-0.0210322312	 0.0769520613	 0.0032928158	 0.255422
N	 1.0709355674	-0.8090160846	-0.1263382227	-0.367939
C	 0.7119311017	-2.230985948	-0.0160801879	-0.295618
C	-0.7742143192	-2.0954813847	-0.0026932714	 0.383163
C	-1.1899875009	-0.808062728	 0.0048395509	 0.171031
C	-2.6029958397	-0.9280093824	 0.0058232459	-0.131299
N	-2.9785439382	-2.1865789715	-0.0015060189	-0.131854
O	-1.7800007166	-2.9550504838	-0.0098701726	-0.228846
H	 0.9232102209	 1.7273385225	 0.0646338864	 0.20624
H	 1.9757316313	-0.5092355594	 0.2001277471	 0.245043
H	 1.0813562596	-2.8159695008	-0.8679363798	 0.146108
H	 1.0956453357	-2.6967562291	 0.9024958263	 0.141237
H	-3.364742364	-0.1619457543	 0.0129846174	 0.15678
