20
gdb 111562	3.1971	1.4232	1.20851	1.2297	77.41	-0.2271	0.0684	0.2955	1101.86	0.173046	-403.086121	-403.078687	-403.077743	-403.118135	30.012	
C	 0.0278714892	 1.5532116449	-0.0956386063	-0.38616
C	 0.0083240209	 0.0266390164	 0.0434738841	-0.204046
C	-1.4063514748	-0.544811377	 0.133589401	 0.075745
C	-1.5225884131	-2.0777883505	 0.2793645441	-0.115173
N	-0.7399673674	-2.2988339204	 1.5500009947	-0.32606
C	-1.9183624505	-1.6691765703	 2.1991188381	-0.057237
C	-2.9035410531	-2.1071463995	 1.1095224644	 0.088239
O	-3.5313898133	-0.8259495106	 1.0346656077	-0.294066
C	-2.2204329755	-0.3113431143	 1.4316919729	 0.051221
H	 1.0535295239	 1.9255397749	-0.1803026523	 0.112241
H	-0.5197976686	 1.8819274666	-0.9861471315	 0.113214
H	-0.4293378982	 2.0447526379	 0.7699718993	 0.113266
H	 0.5097487439	-0.4207366849	-0.8248219844	 0.091276
H	 0.584502508	-0.2851709891	 0.918031493	 0.120588
H	-2.0171980879	-0.1854707137	-0.7009172408	 0.078496
H	-1.2996852698	-2.7173531319	-0.5733923165	 0.070166
H	-0.7720357113	-3.2928426957	 1.7770891337	 0.217
H	-2.0595242983	-1.7297823829	 3.2769471653	 0.081871
H	-3.5653871795	-2.9734063228	 1.0951423957	 0.085137
H	-2.2568178645	 0.666860833	 1.9068858976	 0.084283
