15
gdb 3628	4.40559	4.3555	3.24966	0.0269	61.98	-0.2174	0.0936	0.3111	514.9266	0.128173	-271.336957	-271.332362	-271.331418	-271.364834	20.053	
C	-0.0129483271	 1.5596490161	-0.0746529173	-0.228041
C	 1.469799099	 1.8525994658	 0.0590339891	-0.069558
C	 2.2956382598	 0.7164958534	-0.5168014592	-0.07876
C	 2.1336976106	 0.8483721376	 0.9837214727	-0.078882
C	 1.1706841534	-0.3663482529	 0.986239241	-0.078759
C	 0.0392666025	 0.0495520314	 0.0636096084	-0.069558
C	 1.3318515851	-0.4976110593	-0.5144205446	-0.078883
H	-0.6046295341	 2.0310446248	 0.7185237487	 0.096795
H	-0.415077486	 1.8762949963	-1.0439081006	 0.096794
H	 1.8598476467	 2.8626068269	 0.0122400248	 0.080945
H	 3.1747198197	 0.8465311877	-1.1325609799	 0.081748
H	 2.8646771473	 1.0990492749	 1.7398200031	 0.081733
H	 1.0949757398	-1.1334197084	 1.7443440998	 0.081748
H	-0.8557044957	-0.56007744	 0.0209390639	 0.080945
H	 1.4034159891	-1.3846631643	-1.1283198096	 0.081733
