19
gdb 117066	4.57224	0.7174	0.62732	1.7836	75.26	-0.2269	-0.0566	0.1702	1755.1724	0.157071	-456.360337	-456.349391	-456.348447	-456.398081	37.033	
C	 0.0335941813	 1.4098601428	-0.0956699237	-0.308257
N	-0.0960338768	-0.0278212234	-0.1179535848	-0.286293
C	-1.2969527527	-0.6477110648	-0.0430935655	 0.26328
N	-2.398688187	 0.0075042556	 0.052662087	-0.541687
C	-1.1559883174	-2.1700496293	-0.0872212603	 0.3421
O	-0.0541253043	-2.6710428502	-0.1796257495	-0.327671
C	-2.4151844036	-3.0044069909	-0.0128296026	-0.307184
C	-2.1361863197	-4.5000631003	-0.0661883725	-0.08101
O	-3.3922343231	-5.1549152649	 0.0120861877	-0.423781
H	 1.0903174639	 1.6739300309	-0.1678470263	 0.120946
H	-0.5096065335	 1.8676690856	-0.9305130897	 0.139016
H	-0.3796814551	 1.8286788759	 0.8292149697	 0.139009
H	 0.708709051	-0.6278750188	-0.1905750791	 0.260992
H	-3.1957218828	-0.6215880919	 0.0975236682	 0.21788
H	-2.9572431921	-2.7604473173	 0.9095689293	 0.14682
H	-3.0855804017	-2.7221226124	-0.8344487741	 0.146826
H	-1.6046114444	-4.743184777	-0.9970666219	 0.104588
H	-1.4746459613	-4.7817929108	 0.7652046266	 0.104584
H	-3.2377281407	-6.1033696788	-0.0202612686	 0.28984
