23
gdb 41888	2.03242	1.94099	1.67327	0.2634	88.39	-0.2303	0.0308	0.2612	1016.2881	0.211171	-351.185976	-351.178426	-351.177482	-351.217632	31.494	
C	 0.0039772405	 1.5460852881	-0.121515744	-0.203423
C	 1.3988645822	 2.1554702229	 0.175160796	-0.200589
C	 2.3328481578	 1.15201913	 0.8955491969	-0.034546
C	 1.5338566879	 0.4085008405	 1.9862911865	-0.199108
C	 0.3953615777	-0.4514934352	 1.3792076927	-0.201961
C	-0.0112590315	 0.0094433202	-0.041341289	 0.007065
C	 0.8461896312	-0.6661743998	-1.1331137409	-0.257557
C	 2.3393543308	-0.5704593077	-0.9609309895	-0.030305
C	 2.9873085322	 0.1926340595	-0.0811379696	-0.079889
H	-0.7241918312	 1.9264953794	 0.6054386789	 0.090379
H	-0.352810485	 1.8721123967	-1.1049365183	 0.089577
H	 1.8793301902	 2.4841792248	-0.7511997906	 0.095922
H	 1.2819323192	 3.0489126387	 0.7996890481	 0.088323
H	 3.1295314708	 1.7227349319	 1.3846381237	 0.059057
H	 2.2013510536	-0.2177702991	 2.5869566426	 0.09228
H	 1.114901489	 1.1577359438	 2.6700694818	 0.08794
H	 0.6970024245	-1.5036143619	 1.3412133841	 0.094992
H	-0.4788053902	-0.4082353741	 2.0384040424	 0.089605
H	-1.0428533301	-0.3173131076	-0.2207829049	 0.060831
H	 0.578260471	-1.7323433144	-1.1727870302	 0.098798
H	 0.5626779181	-0.2685129378	-2.1204107722	 0.097353
H	 2.9226731554	-1.2068014557	-1.6249324973	 0.077489
H	 4.073840736	 0.1444802269	-0.0567193472	 0.077767
