19
gdb 59636	3.12252	1.1346	1.02613	2.5398	73.01	-0.2282	0.0501	0.2783	1241.9968	0.160208	-456.373948	-456.364868	-456.363924	-456.407896	34.164	
C	 0.1096045277	 1.518728973	-0.1234208839	-0.402823
C	 0.0004806023	 0.0138103436	 0.1222610003	 0.129635
O	 0.5860174865	-0.3619094472	 1.3602826028	-0.441595
C	-1.4592169017	-0.4780172578	 0.0690345344	 0.003341
C	-1.5782233704	-2.0223358694	 0.1754794528	-0.129049
O	-2.51258103	-2.2330320341	 1.2597823726	-0.249856
C	-2.7237152307	-1.0049414454	 1.7919761706	 0.473266
N	-3.4698933745	-1.0181259956	 2.9351070968	-0.57461
N	-2.2064569532	 0.0222967431	 1.2325275337	-0.377191
H	 1.1495756542	 1.839091024	-0.0196832941	 0.117344
H	-0.2367305567	 1.7803951516	-1.129316721	 0.105782
H	-0.5028191486	 2.0659707289	 0.5994936286	 0.132213
H	 0.5749888544	-0.5216466062	-0.6451137472	 0.078488
H	-0.0110216269	-0.0203133487	 2.0401143116	 0.283193
H	-1.9203890793	-0.1059259334	-0.8558252457	 0.07277
H	-1.9827542298	-2.5020152447	-0.7182650474	 0.113247
H	-0.6278534776	-2.4875753913	 0.4522295253	 0.130031
H	-4.0582384369	-1.8256520733	 3.0643078159	 0.266117
H	-3.8863903287	-0.1334848972	 3.1770405238	 0.269699
