22
gdb 73931	2.5832	1.30797	0.93888	1.8965	89.34	-0.2266	0.0221	0.2487	1313.6519	0.195447	-367.2079	-367.198766	-367.197822	-367.242047	34.347	
C	-0.1761441885	 1.3934525014	-0.4381195596	-0.499654
C	-0.1013214825	-0.083192959	-0.203550915	 0.225168
C	-1.0946108182	-0.9359839635	 0.0898559851	 0.200368
C	-0.5636019204	-2.3304713289	 0.3786957436	-0.291577
C	 0.8851607174	-2.2832501909	-0.1581648834	-0.21091
C	 1.2446465137	-0.7804623361	-0.1916085755	-0.28294
C	-2.5444320127	-0.6513612927	 0.246082435	-0.105237
C	-3.3242038837	 0.1240333089	-0.7523807142	-0.239277
N	-3.5262876922	-1.3312366052	-0.6349316826	-0.322535
H	 0.4608463065	 1.9271177599	 0.2795777867	 0.124266
H	 0.2002733377	 1.6573040653	-1.4351727749	 0.121383
H	-1.1916075377	 1.780192959	-0.3387930969	 0.129916
H	-0.5934414696	-2.5296971383	 1.4603933398	 0.102653
H	-1.1632702816	-3.1203804531	-0.0878690375	 0.100871
H	 1.5823731744	-2.8763236559	 0.4389710629	 0.096362
H	 0.9088890608	-2.6862998009	-1.1759080002	 0.101769
H	 1.8660986129	-0.5110644208	-1.0546444232	 0.097331
H	 1.8157744721	-0.4744036652	 0.6979703743	 0.102152
H	-2.8947220669	-0.6223154366	 1.2786612792	 0.095926
H	-4.1678486802	 0.729586523	-0.4322267901	 0.11547
H	-2.8020514498	 0.5016193077	-1.6263197563	 0.111787
H	-3.0199863714	-1.7904520181	-1.3899948573	 0.226708
