18
gdb 78629	5.54834	0.97328	0.94324	3.7546	77.83	-0.2335	-0.0257	0.2077	1274.33	0.146794	-401.85655	-401.848678	-401.847733	-401.889178	29.899	
C	-0.2256421541	 1.5993397842	-0.000148045	-0.420882
C	-0.0569412005	 0.0954752553	-0.0643917411	 0.06053
C	 0.8816069907	-0.566254354	-1.0779395062	-0.082285
C	 2.1035518395	-0.2063888893	-0.1821816964	-0.031782
C	 2.6337254156	-1.6556233402	-0.1337348366	-0.120262
C	 3.4042411437	-2.0775884111	 1.0853521256	 0.141878
O	 4.4131665986	-2.7389531032	 1.0419016539	-0.259237
C	 1.0946136397	-1.735246557	-0.0757904257	-0.021402
N	 0.9971092013	-0.508485006	 0.8706787342	-0.174255
H	 0.7217688789	 2.127279964	-0.1438879012	 0.119302
H	-0.9211428145	 1.9395213361	-0.7746852813	 0.122687
H	-0.6337300401	 1.8940333105	 0.9719305465	 0.133008
H	-1.0227917751	-0.4088610523	 0.0678561513	 0.076136
H	 0.8429009923	-0.6177594743	-2.1714311815	 0.071961
H	 2.6784283598	 0.7189064613	-0.1480502179	 0.097343
H	 3.1055777885	-2.0297075112	-1.0457399124	 0.091047
H	 2.9755560497	-1.7335963145	 2.049624471	 0.101753
H	 0.4568691561	-2.6066313184	 0.0821537129	 0.094459
