22
gdb 105809	2.38953	1.45654	1.22238	0.7844	86.25	-0.2056	0.0692	0.2748	1177.247	0.19301	-367.1194	-367.110242	-367.109298	-367.153031	35.509	
C	-0.2118125632	 1.405382135	-0.4981232533	-0.378556
C	-0.3197374649	-0.1253015581	-0.4474390028	-0.271851
C	 0.4922846465	-0.7933322803	-1.522367255	 0.326938
C	-0.019397386	-0.8473562475	-3.0144836094	-0.105919
C	 1.013154744	-1.1885320613	-4.0537139808	-0.31586
C	 0.5120364776	-2.2672496786	-3.1348027054	-0.064535
C	 1.0344194165	-2.1910570079	-1.6589096542	-0.145819
N	 1.8824615628	-1.084264766	-1.3181526608	-0.109757
C	 3.0957376639	-0.5685966612	-1.9440387599	-0.328776
H	 0.8230520242	 1.7272456294	-0.3428993189	 0.120783
H	-0.5405186804	 1.7946295869	-1.46788417	 0.116776
H	-0.8296269433	 1.8714844756	 0.2755173136	 0.110507
H	 0.025409068	-0.4934327495	 0.5244225021	 0.104764
H	-1.3709364436	-0.4243658118	-0.5527953795	 0.094198
H	-1.0065672988	-0.4923577325	-3.2831457231	 0.084876
H	 0.6064426612	-1.2535219291	-5.0599593235	 0.110989
H	 2.0250127955	-0.814246216	-4.0299655217	 0.111937
H	-0.0165633048	-3.1375724435	-3.5020757379	 0.086988
H	 0.9645230087	-3.0354463142	-0.9787376803	 0.087967
H	 2.9095839026	 0.3572500395	-2.4986638653	 0.12491
H	 3.829864861	-0.3432853123	-1.1607627493	 0.113237
H	 3.5490392723	-1.3001592866	-2.6208249347	 0.126203
