16
gdb 17903	2.96148	2.42	2.22632	2.7441	68.21	-0.2371	-0.0006	0.2366	733.3819	0.133385	-346.630064	-346.623973	-346.623029	-346.660032	24.638	
O	 0.0009394859	 0.0636505184	-0.0050461948	-0.322326
C	-0.0149777633	 1.2565426698	 0.0038112296	 0.432453
C	-1.1830683185	 2.2779469649	 0.0291896693	-0.161749
C	-0.8026190332	 3.0341544607	 1.3444386864	-0.216085
C	 0.7622188954	 3.0551910772	 1.3222915896	-0.216084
C	 1.1254699342	 2.3089983227	-0.0034970578	-0.161751
C	 0.6154446294	 3.1293961553	-1.1659452977	-0.083001
C	-0.7284132378	 3.1112746095	-1.1469484068	-0.082999
H	-2.1914359291	 1.8705491315	-0.0040898174	 0.081754
H	-1.2328547795	 4.0372933754	 1.3607844315	 0.108814
H	-1.1792158085	 2.4904383073	 2.2156888756	 0.110772
H	 1.1656231768	 4.0695397648	 1.326811782	 0.108814
H	 1.1778089248	 2.5221404904	 2.1823312951	 0.110772
H	 2.1430830207	 1.9288588176	-0.0654828531	 0.081754
H	 1.2525504334	 3.6439845108	-1.8739278591	 0.104432
H	-1.3989146609	 3.6082418636	-1.8364380025	 0.104431
