16
gdb 20048	5.4572	1.42977	1.25145	2.2695	66.38	-0.2128	0.0195	0.2323	972.978	0.132277	-379.907274	-379.900056	-379.899112	-379.93919	26.319	
C	 0.7704312091	 1.0018878425	-0.053312453	-0.173317
O	 0.1334775875	-0.0128430151	-0.8262733199	-0.235597
C	-0.5721337262	 0.5089744493	 0.3039268734	-0.002995
C	-0.7653609176	-0.4209005523	 1.4459955117	 0.366307
N	-1.4837390937	-0.1380636117	 2.4673262809	-0.328635
C	-1.3955496518	-1.314494219	 3.3550639076	-0.158434
C	-0.2511927778	-2.2001050982	 2.780886532	-0.181867
N	-0.1633870126	-1.6624314714	 1.4225066635	-0.335789
H	 1.6328420523	 0.6795377615	 0.5279746999	 0.117515
H	 0.8674023235	 1.9722615186	-0.5367798527	 0.128786
H	-1.4295668624	 1.137895936	 0.0774865642	 0.123201
H	-1.2121773608	-1.0082087742	 4.3885837659	 0.109511
H	-2.3551874312	-1.8480633231	 3.3398811112	 0.110795
H	 0.6889027378	-2.0607436671	 3.3346365067	 0.099617
H	-0.491549454	-3.2666852196	 2.7781757849	 0.111783
H	 0.6275002778	-1.8297748962	 0.8215421439	 0.249118
