18
gdb 111675	2.78181	1.27638	1.18959	2.4147	72.03	-0.2368	-0.0254	0.2114	1115.4371	0.148041	-439.070967	-439.062657	-439.061713	-439.104285	31.153	
O	-0.0466694836	 1.2121601312	 0.6148908013	-0.413569
C	 0.012738474	 0.0130022559	-0.1472294517	-0.130758
C	-1.3623604974	-0.6094295459	-0.0995211426	 0.025628
C	-1.6174681312	-2.0871027269	-0.1346276672	-0.188229
N	-1.9309502133	-1.2825005338	 1.0627176032	-0.10781
C	-0.9486820222	-1.6360176267	 2.1298665652	-0.173272
C	 0.009096794	-2.7178068507	 1.5911777601	-0.348251
C	-0.4696401797	-3.0113078398	 0.1607769149	 0.406906
O	-0.0515651899	-3.8758466804	-0.5663841309	-0.318439
H	 0.7792542777	 1.6895717268	 0.4903421898	 0.292282
H	 0.2551611141	 0.2182076175	-1.2012345274	 0.105934
H	 0.7905184389	-0.6602031909	 0.2344501522	 0.097321
H	-2.1020394802	 0.0031270654	-0.6127269284	 0.111237
H	-2.431138487	-2.4815207083	-0.7353684731	 0.114728
H	-0.4363626735	-0.7270522385	 2.4530284958	 0.134233
H	-1.5271077794	-2.01212943	 2.976874056	 0.117176
H	 1.0652257656	-2.4307402451	 1.5798795974	 0.135292
H	-0.052698447	-3.6494301497	 2.1616296654	 0.139591
