18
gdb 16186	4.31743	1.56572	1.36239	1.8939	66.76	-0.2575	0.0795	0.337	949.8062	0.154832	-384.937642	-384.930112	-384.929168	-384.969563	28.756	
O	 0.0212527893	 1.3407585633	-0.4544931771	-0.417534
C	 0.0325447703	 0.0437660913	 0.1221506812	-0.154277
C	-1.3598971921	-0.5108472131	 0.2521913942	 0.391207
C	-2.3789683087	 0.1064220411	 1.195648786	-0.27206
C	-3.5830055628	-0.8638469833	 1.1401949649	-0.215863
C	-2.9824693285	-2.2490290078	 0.7918417699	-0.241593
C	-1.7327304221	-1.9105374424	 0.0032201014	-0.007467
O	-1.9507493626	-0.9127794311	-1.0083332511	-0.312435
H	-0.411911387	 1.2549905187	-1.3115704612	 0.292534
H	 0.6491331096	-0.652561813	-0.4654005158	 0.091587
H	 0.4932935687	 0.1538742328	 1.1099300298	 0.109044
H	-1.9420703562	 0.1471065556	 2.2014862613	 0.100843
H	-2.6408223942	 1.1296103857	 0.9134734121	 0.115422
H	-4.1524726118	-0.8784085705	 2.0723478201	 0.098489
H	-4.2635832567	-0.5543108971	 0.3445689263	 0.120034
H	-2.6897622126	-2.8019495439	 1.6934187917	 0.103218
H	-3.6778145597	-2.8814835663	 0.2315141885	 0.110062
H	-1.0047191229	-2.6773805698	-0.252539712	 0.088791
