18
gdb 51415	4.37297	0.99324	0.96648	3.0396	77.24	-0.2251	-0.0222	0.2029	1255.0536	0.147079	-401.88673	-401.878958	-401.878014	-401.919838	29.861	
O	-0.2840578455	 0.2908662489	 0.4958425805	-0.239976
C	 0.2567252607	 0.8980975842	-0.3910392874	 0.159209
C	 1.5225502118	 1.72565914	-0.219623775	-0.248683
N	 1.4988097594	 2.8510342139	-1.1427972144	-0.10753
C	 0.847823885	 4.1400110878	-0.6311991138	-0.06206
C	 2.1746022836	 4.4694820827	 0.1282427202	-0.22243
C	 2.7260694532	 3.7608212581	-1.1512476142	-0.049606
C	 2.2801583279	 4.7453360572	-2.2388001568	-0.066889
C	 1.0171088693	 5.0000516722	-1.8888947948	-0.063837
H	-0.1298456159	 0.8967018302	-1.4344121773	 0.086993
H	 1.6486343527	 1.9434198354	 0.8519492223	 0.108236
H	 2.3568172857	 1.0715789239	-0.5171455897	 0.127678
H	-0.1265759998	 4.0699176722	-0.1481359368	 0.079871
H	 2.4279541985	 5.5204342058	 0.2831920119	 0.101995
H	 2.3166572374	 3.9010785421	 1.0502985098	 0.105958
H	 3.7088118587	 3.2929162928	-1.2106592442	 0.071724
H	 2.8679786879	 5.0944382555	-3.0745080941	 0.109369
H	 0.2643252794	 5.6195126473	-2.3529718463	 0.109978
