14
gdb 24479	4.01008	1.67961	1.18379	1.979	80.83	-0.2012	-0.0534	0.1479	953.4974	0.104522	-399.596002	-399.589997	-399.589052	-399.626224	24.437	
O	-0.0313668974	 1.3397335292	 0.0096953787	-0.178885
C	 1.1416226244	 2.045230509	 0.0022322448	 0.083373
N	 2.3228468503	 1.5570072074	-0.0118649443	-0.318144
C	 2.4231182297	 0.1895721749	-0.0203302482	 0.300841
C	 3.5106935	-0.6401481589	-0.0354043229	-0.279727
C	 3.0122730558	-1.9945644863	-0.0379991213	-0.072889
C	 1.6361462184	-2.0191230433	-0.024823646	-0.277072
C	 1.2070017056	-0.6538482458	-0.0132017061	 0.190454
C	 0.0216528018	-0.0126964759	 0.0017662658	-0.041758
H	 0.9412285139	 3.1091261423	 0.0099918009	 0.142937
H	 4.5487700643	-0.3423647644	-0.043815391	 0.10151
H	 3.6470963881	-2.872043695	-0.0489462985	 0.101339
H	 0.9986367216	-2.8908069275	-0.0234323575	 0.097916
H	-0.9675846065	-0.4542088157	 0.0089097155	 0.150106
