16
gdb 16992	3.98869	2.19938	2.07518	0.6363	64.39	-0.248	0.0272	0.2752	725.1938	0.131454	-383.600915	-383.594963	-383.594019	-383.630563	24.705	
C	 0.0092157972	 1.5629796093	 0.1275590327	-0.1993
O	 1.4756743233	 1.5924204235	-0.1402426228	-0.322526
C	 1.2327743248	 0.3716838658	-0.9620556965	 0.116782
C	 1.33932034	-1.2096924105	-1.0204858103	-0.00406
C	 1.6433260888	-1.6938580973	 0.3915818021	-0.21062
C	 0.6661920454	-0.7359857354	 1.1264513319	-0.234426
C	 0.112245525	 0.0265922942	-0.0957025956	 0.327191
O	-0.1631627938	-1.1292914646	-1.0314346713	-0.366572
H	-0.2220372838	 1.9264740881	 1.1319268924	 0.123723
H	-0.5372468224	 2.1202058573	-0.639236881	 0.124316
H	 0.9274551636	 0.7073281676	-1.9565172901	 0.102404
H	 1.7316577261	-1.7355009715	-1.8913869659	 0.092155
H	 1.3909412677	-2.7489717989	 0.5139077265	 0.111999
H	 2.6912189792	-1.5474835739	 0.6669624895	 0.110847
H	-0.1449159942	-1.2615910532	 1.635836798	 0.109689
H	 1.166151053	-0.0753987404	 1.8363586403	 0.118398
