20
gdb 38187	4.20136	1.05692	0.9461	1.7997	78.99	-0.2223	0.0796	0.3019	1286.4647	0.172461	-403.077029	-403.069013	-403.068069	-403.110472	30.454	
C	-0.0019149308	 1.3564423649	-0.2618074331	-0.05881
C	 1.4575269836	 1.5190910389	 0.2053742126	-0.299474
C	 1.2782156621	 0.0950875032	 0.7823986976	 0.149086
O	-0.0403515	-0.0156109086	 0.1776478231	-0.301618
C	 2.2097983106	-0.9935207107	 0.3040933164	 0.007447
C	 3.6763545645	-1.0383264998	 0.8811813441	-0.258395
C	 3.3884841473	-2.4563341157	 1.3872617856	-0.037514
N	 2.2500269756	-2.3260479858	 2.3280557868	-0.330516
C	 1.9955706247	-2.4092166061	 0.8680598964	-0.064836
H	-0.729530202	 1.9783069339	 0.2766744038	 0.097423
H	-0.1894904397	 1.4502299342	-1.3381964893	 0.099418
H	 2.187218154	 1.5822908408	-0.6055608431	 0.103902
H	 1.6531308707	 2.3138574142	 0.926498395	 0.107776
H	 1.2064326415	 0.0621060826	 1.8760795685	 0.092314
H	 2.2231370877	-1.0081767036	-0.7898473715	 0.072061
H	 4.431695328	-0.9946420171	 0.0942130501	 0.102855
H	 3.9179762663	-0.3125913603	 1.6625655257	 0.105437
H	 4.0790550789	-3.2868387933	 1.4668188766	 0.091465
H	 2.0669196324	-3.2526425215	 2.7119265609	 0.228164
H	 1.3676175445	-3.1913398503	 0.4606299238	 0.093813
