15
gdb 109424	2.37231	1.62512	1.00238	3.3234	68.75	-0.2596	-0.1049	0.1547	1105.6333	0.112679	-457.807838	-457.79991	-457.798966	-457.840801	29.112	
O	 0.0368768819	 1.4591477571	 0.0980398818	-0.422686
C	 0.0792773863	 0.0527138868	 0.0851260595	-0.059946
C	-1.3378364143	-0.5492291333	 0.0165475476	-0.274145
C	-2.02778839	-0.2441999974	-1.3078712763	 0.379482
O	-2.0642505121	 0.8353493382	-1.8592755495	-0.333016
C	-2.5839081344	-1.519083813	-1.8426144465	-0.153848
C	-2.2292508533	-2.5479922983	-1.0576335842	-0.162188
C	-1.4103453593	-2.0739289063	 0.1011045799	 0.37572
O	-0.8930554847	-2.7757021372	 0.9351248081	-0.309678
H	-0.4899509292	 1.7326317636	-0.6654452233	 0.298329
H	 0.6801765457	-0.334874237	-0.7539914609	 0.093425
H	 0.5596866709	-0.2744538537	 1.0112007233	 0.133501
H	-1.9218507947	-0.1148476011	 0.8379019072	 0.145409
H	-3.1579831373	-1.5545786524	-2.7604948032	 0.144168
H	-2.4600780955	-3.5966916057	-1.2010793036	 0.145474
