18
gdb 123786	5.2198	0.97031	0.84756	3.8284	79.21	-0.1943	0.0465	0.2407	1346.8384	0.150404	-398.125129	-398.117117	-398.116173	-398.158371	30.512	
C	 0.8778273834	 0.0002213053	-0.7037635118	-0.259188
C	 1.0726688272	 1.1411501691	 0.2622839083	-0.286646
C	 0.4736561908	-0.1474565362	 0.747773594	 0.012461
N	-0.9268915347	-0.1433235605	 1.0581951824	-0.39105
C	-1.6277740665	-1.3430868085	 1.0208533958	 0.451767
C	-2.8148734042	-1.7288540553	 1.6222171853	-0.339562
C	-3.0376417522	-3.0383289568	 1.1423253838	 0.009594
N	-2.0854336448	-3.4518579468	 0.3175457929	-0.249568
N	-1.2288102229	-2.3943934615	 0.2615023178	-0.252612
H	 0.0772058099	 0.0953363573	-1.4277981466	 0.133021
H	 1.7523418649	-0.5399507717	-1.049262265	 0.119817
H	 2.0787891739	 1.385132932	 0.5824124012	 0.121597
H	 0.4039384026	 1.9889536057	 0.1690334025	 0.125854
H	 1.1084064395	-0.7857782913	 1.3652425181	 0.09565
H	-1.1628384544	 0.4146526445	 1.8668399261	 0.244818
H	-3.4192157393	-1.1477894869	 2.2994163055	 0.088834
H	-3.8633012532	-3.6961742468	 1.3739097071	 0.103749
H	-0.4140263599	-2.4451995917	-0.3238324276	 0.271465
