19
gdb 60284	3.27967	0.88766	0.83112	2.0538	77.14	-0.2391	-0.0634	0.1757	1448.3304	0.15772	-456.361454	-456.351472	-456.350527	-456.396609	36.42	
C	-0.3205435583	 0.7284628635	 1.1830782531	-0.406485
C	-0.7322918288	 0.5646262419	-0.2770344949	 0.133816
O	 0.2738973679	-0.1325220037	-1.0249818465	-0.434701
C	-2.1065843289	-0.1145470827	-0.4486098655	-0.185035
N	-2.1723326246	-1.4483328694	 0.1247589266	-0.272834
C	-1.8248386419	-2.4469561838	-0.6043665267	 0.238399
N	-1.3617852331	-2.4735697711	-1.89195376	-0.550896
C	-2.005085307	-3.7990784624	 0.0230877358	 0.140209
O	-1.7012519919	-4.8287814526	-0.5299607672	-0.267224
H	 0.6636391498	 1.2006214028	 1.2503620211	 0.122661
H	-1.0408137023	 1.3505553137	 1.7226408862	 0.125548
H	-0.2870251464	-0.2450570171	 1.6837168681	 0.129321
H	-0.8009545617	 1.5517612349	-0.7499664412	 0.091868
H	 0.6303989416	-0.8218277995	-0.4540971103	 0.287503
H	-2.8539209234	 0.5080316207	 0.0580922822	 0.104263
H	-2.3507455739	-0.1185824491	-1.5220751787	 0.101467
H	-0.8071764138	-1.6860423446	-2.1958369666	 0.270621
H	-1.0690373054	-3.3882549248	-2.2065268472	 0.264892
H	-2.4430358279	-3.7546091567	 1.0376768618	 0.106608
