21
gdb 111788	2.44565	1.37462	1.10916	0.7572	77.87	-0.2299	0.0674	0.2973	1203.1694	0.183371	-424.199051	-424.190506	-424.189561	-424.232152	33.396	
C	 0.0420367302	 1.6319112015	-0.0574125693	-0.380956
C	 0.075586728	 0.0988965111	-0.028138407	-0.226389
C	-1.3178867276	-0.5079241898	 0.0302476396	 0.042801
C	-1.5567204938	-2.0616000073	 0.0779367333	-0.126949
C	-0.7813383346	-2.4442866157	 1.3392207776	-0.094703
O	-1.1904409743	-1.3686554736	 2.2261856724	-0.280926
C	-2.0741678355	-0.6122122474	 1.3827463895	 0.036351
C	-2.9350117459	-1.735537934	 0.7289579397	 0.126
O	-3.8918120968	-1.3489562483	-0.2282564917	-0.43865
H	 1.052251452	 2.0505691548	-0.0989123073	 0.111456
H	-0.5088990414	 2.0008638954	-0.9296640807	 0.113225
H	-0.4464026627	 2.0336604509	 0.836952173	 0.117471
H	 0.5928999194	-0.2722497303	-0.9228884847	 0.093031
H	 0.6627060512	-0.231007661	 0.83506039	 0.111483
H	-1.9707097426	-0.0756787301	-0.7298577811	 0.090556
H	-1.4696127731	-2.7022349889	-0.7989361484	 0.075
H	-1.0836211928	-3.4096606705	 1.7611653941	 0.101633
H	 0.3067422338	-2.4382729502	 1.2136869969	 0.103085
H	-2.4816236308	 0.2324360356	 1.9389141358	 0.070601
H	-3.3321425391	-2.480094354	 1.4320520784	 0.068971
H	-4.6313739336	-0.945323088	 0.23714826	 0.286909
