15
gdb 125574	3.12407	1.44314	0.99326	4.8036	74.49	-0.2196	-0.0358	0.1838	1129.9153	0.114199	-450.163172	-450.155147	-450.154202	-450.195947	29.896	
C	-0.284573557	 1.4886417318	 0.0249964087	-0.483251
C	-0.0145900591	 0.0190881266	-0.05211609	 0.428506
N	 0.0351419977	-0.5736520369	-1.1896758436	-0.266221
N	 0.2879763402	-1.9200238082	-1.1598619462	-0.3288
C	 0.4990182371	-2.7381201852	-0.061067176	 0.284206
N	 0.7330768394	-3.9917246389	-0.0722183464	-0.504936
C	 0.4344089486	-2.0183937435	 1.2661004941	 0.421595
O	 0.5875771241	-2.5424160613	 2.3401743743	-0.323685
N	 0.1762647341	-0.6588368933	 1.1420115663	-0.409796
H	 0.5432951819	 2.0167818176	 0.5120844065	 0.142892
H	-0.4104616129	 1.8826704888	-0.9830396781	 0.162938
H	-1.1937522619	 1.6929664619	 0.6022713489	 0.142919
H	 0.3171177262	-2.3366876693	-2.0777014163	 0.261802
H	 0.7522868933	-4.3629346107	-1.0247586819	 0.208036
H	 0.1277568282	-0.1567459695	 2.0183483597	 0.263796
