17
gdb 31628	3.56937	1.06155	0.85847	3.7754	73.29	-0.1941	0.0225	0.2166	1323.4509	0.13654	-455.199595	-455.190507	-455.189563	-455.233881	32.558	
C	 0.0038031782	 1.4453737861	 0.0343872037	-0.345428
N	-0.0487540246	 0.0018632778	 0.0212791195	-0.088686
C	-1.1832256652	-0.8027221872	 0.0256913583	-0.22279
C	-0.7872546496	-2.0952763068	 0.0038232824	 0.290538
C	-1.5647939328	-3.3630939605	 0.0129296706	-0.180109
O	-1.2103330562	-4.2323209559	-1.0598714851	-0.413376
N	 0.6082452461	-2.0822914591	-0.014694363	-0.411625
C	 1.1023268248	-0.786772094	-0.0272702636	 0.457771
O	 2.2588242928	-0.4111533815	-0.0722767823	-0.442503
H	 1.0586137923	 1.7247054599	 0.0102614681	 0.17301
H	-0.5007423745	 1.8707404896	-0.8400495949	 0.130374
H	-0.4559351603	 1.8524572862	 0.9414437565	 0.131539
H	-2.1761628733	-0.3870954041	 0.0702076184	 0.136694
H	-1.3589932346	-3.9451793954	 0.9193956033	 0.123603
H	-2.6376695429	-3.1217305766	 0.0160780601	 0.103942
H	-1.3511728063	-3.7476527983	-1.8808058997	 0.284538
H	 1.1978294461	-2.8865625902	-0.1408016824	 0.272507
