16
gdb 78120	2.25274	1.62298	1.32987	2.3807	74.39	-0.2635	-0.0179	0.2457	1021.3596	0.124397	-396.898022	-396.889881	-396.888937	-396.930809	30.232	
C	-0.0059939573	 1.5146314723	 0.1783712975	-0.425292
C	 0.047446694	 0.0296768371	-0.0853877458	 0.013497
C	 0.6637178601	-0.6591601089	-1.2340604234	-0.069466
C	 1.9522060629	-0.0072527487	-1.7517755975	-0.269293
C	 1.916492693	 1.247720369	-2.4829273732	 0.288291
N	 1.9036775375	 2.2581860163	-3.0449133828	-0.328015
C	 2.3991629254	-0.0411480256	-0.2645062595	 0.36087
N	 3.3784304777	 0.324689631	 0.4232416521	-0.494237
N	 1.2623284443	-0.8126461523	 0.172747885	-0.15523
H	 0.8395217321	 2.0635064502	-0.2379918348	 0.149892
H	-0.9213681708	 1.9290016409	-0.2552348273	 0.137697
H	-0.0283228977	 1.6953784221	 1.2573868624	 0.143996
H	-0.8193908243	-0.503877036	 0.2991006877	 0.120785
H	 0.2021561191	-1.5057210284	-1.7285860775	 0.123775
H	 2.5473731788	-0.7354420181	-2.3123714014	 0.160976
H	 4.0626890853	 0.8373598093	-0.1343068815	 0.241753
