18
gdb 54766	2.63327	1.55814	1.19435	10.1043	73.42	-0.194	0.0139	0.2079	1067.6782	0.148042	-439.013163	-439.004994	-439.00405	-439.046236	30.879	
C	-0.0400880743	 1.4980987	 0.0047891315	-0.523692
C	 0.0274123376	 0.0046836443	 0.0050876433	 0.306248
C	 0.56459776	-0.9834461309	-1.084469432	-0.234606
N	 0.0835919638	-1.8900422957	 0.0364211612	-0.082828
H	 0.087983313	-2.9083771704	 0.0997136161	 0.290532
C	 0.7537659175	-0.9418778697	 1.0213219564	-0.214659
C	-1.1906127562	-0.9677566278	 0.1443456241	-0.106437
C	-1.9803642203	-1.0399203568	 1.4775655238	 0.347973
O	-1.7127408775	-2.0256823497	 2.1886483499	-0.488981
O	-2.7249988448	-0.0576658107	 1.5938768455	-0.448686
H	 0.9520610446	 1.9532923987	 0.0801286245	 0.12329
H	-0.5182084269	 1.8624144443	-0.9096448779	 0.136408
H	-0.6548783036	 1.8186340864	 0.850526297	 0.181596
H	-0.0093770047	-1.0923737486	-2.0060147013	 0.1436
H	 1.6431232874	-1.0472353429	-1.2495096362	 0.134177
H	 1.8439349711	-0.9948624491	 0.972707348	 0.122907
H	 0.343315098	-1.0504089061	 2.0222034124	 0.199111
H	-1.8128105148	-1.0764543254	-0.7477020963	 0.114048
