21
gdb 118655	2.72775	0.80524	0.6496	2.8026	81.3	-0.2339	0.0155	0.2493	1786.5506	0.180622	-420.400772	-420.389742	-420.388798	-420.438053	37.687	
C	 0.035796676	 1.6567849684	-0.8440447165	-0.386738
C	 0.0615440727	 0.205129501	-0.4021227867	-0.051741
O	-1.2351895449	-0.1320235133	 0.0837366121	-0.243346
C	-1.3573810082	-1.4474841352	 0.5588010227	-0.006103
C	-2.7135223277	-1.5669111688	 1.2704829765	-0.157512
N	-2.8830421241	-2.893106419	 1.8354207254	-0.299102
C	-4.0836881567	-3.0187762807	 2.6529219877	-0.310477
C	-1.2613256888	-2.4351490854	-0.5453013208	 0.262673
N	-1.2045260232	-3.2058820052	-1.4050299857	-0.335828
H	 1.0194898443	 1.9528343975	-1.2196973716	 0.122548
H	-0.6982442858	 1.8017857702	-1.6412820512	 0.134492
H	-0.2288034789	 2.3104340812	-0.0082233954	 0.128944
H	 0.3313486967	-0.4536425754	-1.2404036234	 0.116226
H	 0.8054336503	 0.0490503417	 0.3953252672	 0.095399
H	-0.5620249544	-1.691716951	 1.2799858309	 0.121651
H	-2.7065560097	-0.8326119353	 2.0831551722	 0.119941
H	-3.5056908761	-1.2619675151	 0.5645962005	 0.105427
H	-2.9123715499	-3.5788479602	 1.0870069985	 0.234064
H	-4.1795005017	-4.0511097871	 3.000223532	 0.124948
H	-3.9939951583	-2.3762987498	 3.5360987049	 0.124133
H	-5.0171583516	-2.7419937585	 2.1320691709	 0.1004
