20
gdb 5845	3.13954	1.50059	1.32093	1.7153	71.53	-0.2624	0.0183	0.2807	1061.968	0.17386	-386.188291	-386.178203	-386.177259	-386.223234	35.712	
C	 0.0466737987	 1.3541232591	 0.0088651962	-0.238949
O	-0.0303600678	-0.0754094349	 0.0016817109	-0.240775
C	-1.2808632006	-0.5893111427	 0.0109388043	 0.45427
O	-2.2696921908	 0.1005852866	 0.024435501	-0.370445
C	-1.2569006953	-2.1203678151	 0.0025486178	 0.128463
C	-2.7025647121	-2.6361751591	 0.0135514751	-0.398404
C	-0.5270447021	-2.6023531168	-1.2698333409	-0.409028
C	-0.503089015	-2.6156830518	 1.2557162204	-0.409024
H	 1.1099918087	 1.5950381376	 0.0004481414	 0.130624
H	-0.4475009315	 1.7723545238	-0.8718756418	 0.139374
H	-0.4312733127	 1.762568552	 0.9030441654	 0.139398
H	-3.2543657554	-2.2824213835	-0.8608702181	 0.123069
H	-2.7063334205	-3.7307806192	 0.0078545444	 0.104552
H	-3.2376525456	-2.2916358597	 0.9019238053	 0.123088
H	 0.5009649974	-2.234600625	-1.3018207013	 0.128563
H	-0.5038295513	-3.6968818804	-1.2907206591	 0.114433
H	-1.0418170371	-2.2613658068	-2.17414971	 0.118891
H	-1.0006456009	-2.2843846746	 2.1731739869	 0.118901
H	-0.4794986179	-3.7103671158	 1.2645617768	 0.114437
H	 0.5253502817	-2.2480995637	 1.2721165354	 0.128563
