21
gdb 47552	2.40841	1.56561	1.08185	2.8611	82.15	-0.2314	-0.0084	0.2231	1162.5555	0.185063	-387.114725	-387.106705	-387.105761	-387.147209	32.013	
O	 0.0261508127	-0.0969615238	-0.026672174	-0.311432
C	 0.024014234	 1.111995305	 0.0227518257	 0.393697
C	-1.27697001	 1.9115793895	 0.0457777515	-0.287693
C	-1.5419846917	 2.806573039	-1.1872236635	-0.194249
C	-0.462119721	 3.867010466	-1.4687983777	-0.225649
C	 0.7786812468	 3.2907293472	-2.1299861548	 0.013167
C	 2.1711835359	 3.7038705248	-1.720585254	-0.326934
C	 1.669217899	 2.3195173227	-1.3881670732	 0.004855
C	 1.326229412	 1.9112022696	 0.038809788	-0.321001
H	-2.0920455092	 1.1922094501	 0.1613829945	 0.116913
H	-1.261558918	 2.5498922454	 0.9405327573	 0.106846
H	-1.6688131653	 2.1729545174	-2.0738808178	 0.108669
H	-2.5050520758	 3.3038954467	-1.0251160729	 0.100835
H	-0.8805660161	 4.6415090126	-2.1225130632	 0.101028
H	-0.1992395277	 4.3782188924	-0.5342484268	 0.093491
H	 0.6426918752	 3.0713845884	-3.186207747	 0.086307
H	 2.9326835388	 3.8095286471	-2.4857562573	 0.113623
H	 2.2648768811	 4.4117719745	-0.9021993615	 0.11024
H	 2.0700845654	 1.5025432964	-1.9804630325	 0.099247
H	 1.2186478842	 2.7960253301	 0.6741023023	 0.100141
H	 2.1167117496	 1.2818452589	 0.456481267	 0.1179
