14
gdb 1412	6.26198	1.36444	1.19241	2.3599	58.72	-0.2714	-0.0443	0.2271	940.0741	0.111437	-324.603558	-324.595663	-324.594719	-324.636362	26.519	
C	-0.0451831372	 1.6046724571	 0.1575791252	-0.390236
C	 0.0293192686	 0.0708570499	 0.0241335966	-0.157215
C	 0.7545393847	-0.3707299553	-1.2706056371	-0.274446
C	-0.0485795471	-0.0198159528	-2.5073697516	 0.155745
O	 0.3904129926	 0.5419648835	-3.4746163427	-0.226141
C	 0.6805906389	-0.5215156443	 1.1959362131	 0.272742
N	 1.2030291621	-0.9837789908	 2.117306616	-0.313878
H	 0.9581452605	 2.0369219672	 0.2014098931	 0.147316
H	-0.563910372	 2.0315449908	-0.7054811273	 0.138438
H	-0.5840451621	 1.8922414556	 1.0630596958	 0.14472
H	-0.9935119505	-0.3295440021	-0.003793312	 0.134167
H	 1.7476470959	 0.0795934201	-1.3440864744	 0.143002
H	 0.8747700189	-1.4622374241	-1.2609116705	 0.146366
H	-1.1158241234	-0.3443924648	-2.4644212342	 0.07942
