18
gdb 13534	2.97163	1.49585	1.13976	1.2375	73.66	-0.259	0.0481	0.3072	1094.039	0.150813	-347.756832	-347.747691	-347.746747	-347.790797	33.095	
C	 0.1964335825	 1.3830104219	 0.1320097525	-0.3932
C	-0.2456993516	-0.0876114246	-0.0200166501	-0.18634
C	-1.7017655499	-0.2185932471	-0.0340944974	 0.328207
C	-2.8992288662	-0.3176417158	-0.0723957879	-0.477232
C	 0.3423089348	-0.6830006527	-1.2936886388	 0.071349
O	 1.7449070127	-0.9518700516	-1.2825332219	-0.267901
C	 0.8408598889	-2.0599220828	-1.427106522	 0.07993
C	 0.8288045202	-3.1025026122	-0.3391701725	-0.422024
H	 1.2881802103	 1.4375092259	 0.1434224227	 0.135535
H	-0.1757646421	 1.9863603357	-0.7013122529	 0.125984
H	-0.1910175033	 1.8093660258	 1.0604723847	 0.125382
H	 0.1500562641	-0.648384692	 0.8338723641	 0.108691
H	-3.9568445055	-0.410097911	-0.0931050773	 0.197242
H	-0.0105301473	-0.1872709295	-2.200976504	 0.095129
H	 0.8325386354	-2.4736592054	-2.4378984596	 0.090035
H	 0.8491084631	-2.6584890911	 0.6578680808	 0.12883
H	-0.0661931343	-3.7277416285	-0.4248732942	 0.12968
H	 1.7039467682	-3.753561635	-0.4347588862	 0.130704
