17
gdb 65016	1.9637	1.7238	1.07824	2.3409	74.07	-0.2543	-0.0441	0.2102	1128.625	0.132372	-421.780946	-421.77178	-421.770836	-421.814892	34.286	
O	-0.249176402	 1.2973543409	-0.5408793559	-0.472513
C	-0.0604264321	-0.0032013831	-0.0693240179	 0.43826
C	-0.4160711855	-0.3073297794	 1.3633346626	-0.319255
C	-1.3145900103	-0.7601486031	 0.2268133642	-0.320643
C	 1.1404532066	-0.6871275225	-0.7367361965	-0.343489
C	 2.447752117	 0.0719456193	-0.4541840889	 0.168033
O	 2.4994382205	 1.1830035686	 0.0084572732	-0.254411
C	 1.3296963966	-2.0940451019	-0.4066533355	 0.292572
C	 1.5291709576	-3.2424568842	-0.1128076488	-0.437909
H	 0.5212324372	 1.801161601	-0.2423349042	 0.293075
H	 0.1511774984	-1.0631659258	 1.8948295343	 0.120893
H	-0.7478180042	 0.5322124107	 1.9627087845	 0.120559
H	-2.2383117808	-0.2158192508	 0.0693093797	 0.126571
H	-1.3518330985	-1.8183279568	-0.0038143598	 0.123689
H	 0.9977276018	-0.598445243	-1.8275980718	 0.145977
H	 3.3690715375	-0.4835947993	-0.7254999243	 0.111328
H	 1.6876735505	-4.2628293005	 0.1368059552	 0.207261
