18
gdb 96983	3.84681	1.23108	1.03131	3.327	84.43	-0.2242	-0.0328	0.1914	1190.6473	0.148264	-401.943057	-401.934928	-401.933984	-401.976379	30.669	
C	 0.1146517395	 1.5139805158	-0.4731859902	-0.323283
N	 0.0545267796	 0.1061122848	-0.1659584214	-0.268404
C	-1.0122147581	-0.4610845102	 0.2198272149	 0.362303
O	-0.8911688655	-1.8174477628	 0.4175882224	-0.250612
C	-1.8509049775	-2.5360825126	 1.1355625374	 0.126734
C	-2.2252226622	-2.1847229741	 2.5380427479	-0.31929
C	-3.2178344849	-1.9466100026	 1.3913778623	-0.127754
C	-3.3830374093	-0.572360653	 0.8965531016	-0.065988
C	-2.350172358	 0.118732338	 0.3964122618	-0.177148
H	 0.9961028874	 1.9427934948	 0.0175734127	 0.128419
H	 0.2657351496	 1.6481594865	-1.5521755262	 0.126769
H	-0.7546091441	 2.116810187	-0.1752601753	 0.099567
H	-1.7764976779	-3.5840729245	 0.8698095481	 0.115199
H	-2.4330889661	-2.9958192129	 3.2272394377	 0.123304
H	-1.7796962666	-1.3005706585	 2.9800097385	 0.134457
H	-4.0851116605	-2.5960950928	 1.3420964892	 0.099952
H	-4.3699037819	-0.1206188966	 0.9476729488	 0.107033
H	-2.4902801936	 1.1361183538	 0.0570389299	 0.108742
