17
gdb 125685	3.05594	1.31658	0.99049	1.4406	75.1	-0.2311	-0.0069	0.2242	1185.8799	0.138599	-414.173924	-414.165742	-414.164798	-414.20755	29.597	
C	 0.2005788811	 1.5269050463	-0.1127739382	-0.507445
C	 0.0552548821	 0.0441394355	-0.0054567569	 0.233149
N	 0.070430008	-0.7486682583	-1.0806283657	-0.256823
N	-0.0850186335	-1.9633960587	-0.5741581218	-0.078937
N	-0.1969228903	-2.0441340293	 0.7444057599	-0.302008
C	-0.1154301696	-0.7704176117	 1.139022321	 0.278977
C	-0.1953367751	-0.3872761759	 2.5619055405	-0.114713
C	-1.2443488045	-0.985323577	 3.4400579777	-0.23023
N	 0.161830504	-1.3655683073	 3.6047322967	-0.317155
H	 1.0452090235	 1.8902089265	 0.4825303915	 0.137389
H	 0.3683778085	 1.8085293576	-1.1540376608	 0.147026
H	-0.6959061735	 2.0461661712	 0.2428053898	 0.13683
H	-0.0982026196	-2.7831996179	-1.1582590215	 0.292157
H	 0.1363992103	 0.6257240453	 2.7737210374	 0.091744
H	-1.6634084942	-0.4002675216	 4.2543310777	 0.119254
H	-1.9250290752	-1.6926944794	 2.9749828076	 0.12389
H	 0.320759358	-2.2637881453	 3.1515069751	 0.246895
