21
gdb 73696	2.64112	1.8757	1.29877	2.0853	81.4	-0.2299	0.0739	0.3039	1033.9225	0.184368	-387.044756	-387.037278	-387.036334	-387.076097	31.242	
C	 0.0143817739	 1.5496126503	-0.050444713	-0.483198
C	-0.0152294778	 0.028787176	-0.0225834222	 0.356606
C	 0.3256463866	-0.5925763683	-1.3855376971	-0.283555
C	-0.2068393288	-2.0236694065	-1.5188832769	-0.209395
C	 0.0410146231	-2.8069004171	-0.2239999284	-0.243343
C	-0.2500749904	-1.9240369319	 0.9843191758	 0.003912
C	 0.6032239784	-0.6547020847	 1.2393855191	 0.004499
O	-0.4993844303	-0.1177918801	 2.065220568	-0.315695
C	-1.1387163816	-0.6496691661	 0.8441329798	-0.017483
H	 0.9888403055	 1.9085567547	-0.4023560796	 0.109784
H	-0.7418891204	 1.9384665478	-0.7420738862	 0.109485
H	-0.1734073382	 1.9612979164	 0.9418137691	 0.138475
H	-0.0808652825	 0.0354269729	-2.1868286754	 0.096911
H	 1.4171943887	-0.5733918948	-1.5126658869	 0.097767
H	-1.28879423	-1.9786825249	-1.6974295742	 0.100572
H	 0.2310215655	-2.5303241802	-2.3848694866	 0.093155
H	-0.5835417782	-3.7065926469	-0.1952515863	 0.099462
H	 1.0818433681	-3.1541114139	-0.1723247966	 0.099503
H	-0.4517083794	-2.4723686771	 1.9066670182	 0.078837
H	 1.6173328391	-0.5726828678	 1.6380685953	 0.080808
H	-2.2246119011	-0.5578083577	 0.7745852141	 0.082893
