18
gdb 57621	4.34284	0.86291	0.85009	4.7651	78.08	-0.2773	0.014	0.2913	1384.6873	0.144007	-401.935954	-401.925812	-401.924868	-401.970885	37.146	
C	 0.0826145333	 1.5972816589	-0.0027335786	-0.430401
C	 0.0113758715	 0.0659835962	 0.0020458193	 0.331209
O	 0.6502252659	-0.4739143281	 1.145932772	-0.455368
C	-1.4653699301	-0.4280136726	-0.058558367	-0.378404
C	-2.1966901761	-0.0842425916	 1.1537270888	 0.265588
C	-2.7486896416	 0.2056196849	 2.182340185	-0.414389
C	 0.7644651655	-0.5466545217	-1.2007052475	-0.3536
C	 2.1582683413	-0.118162764	-1.2897370864	 0.279416
N	 3.2568962202	 0.2272884544	-1.3804413507	-0.314833
H	 1.1212980231	 1.9232728806	 0.0841384402	 0.153726
H	-0.3402061891	 2.0143941174	-0.9228142689	 0.116383
H	-0.4842900001	 2.0005325704	 0.8411218093	 0.12922
H	 0.1535592123	-0.1836035275	 1.9211059181	 0.288642
H	-1.9668716042	-0.0011472413	-0.935685509	 0.13267
H	-1.464831027	-1.5176026445	-0.1828538519	 0.137977
H	-3.2651329549	 0.4552668382	 3.0765214926	 0.206062
H	 0.7413459309	-1.6373809957	-1.1077756921	 0.158505
H	 0.2568969691	-0.279911074	-2.1338610131	 0.147596
