20
gdb 8715	2.42123	1.65271	1.26431	1.4023	66.55	-0.2601	0.0469	0.3071	1054.1941	0.175141	-423.269521	-423.259787	-423.258843	-423.304729	35.862	
C	-1.4841055277	 0.1121792039	 0.1359760215	-0.40552
C	 0.0402486727	 0.1356393429	-0.0043535568	-0.167668
C	 0.605093417	-0.6248394208	-1.2143544885	 0.253464
O	 2.0417685044	-0.4436266006	-1.1087915379	-0.481834
C	 0.3267788015	-2.1339989929	-1.1548632446	-0.082585
O	 0.8530982938	-2.7184488488	 0.0179765567	-0.421143
C	 0.1636923889	-0.0241883167	-2.5570668224	-0.082584
O	 0.5397104364	 1.3319671329	-2.6737769052	-0.421167
H	-1.9827307795	 0.5702456268	-0.7237019588	 0.124749
H	-1.8699972549	-0.9048720656	 0.2551586193	 0.124682
H	-1.7839249209	 0.6778644176	 1.0230143956	 0.119969
H	 0.3849863255	 1.1706270542	-0.0803732526	 0.106927
H	 0.4970988036	-0.2931313488	 0.8918986498	 0.106958
H	 2.4495855509	-0.906156036	-1.8524094058	 0.281389
H	-0.7489267347	-2.3350109043	-1.1634281124	 0.114858
H	 0.7506167661	-2.6067838883	-2.0599950585	 0.072144
H	 1.7290280444	-2.3283725327	 0.1344453624	 0.285177
H	 0.5980010769	-0.6294644506	-3.3740416842	 0.07214
H	-0.9239707211	-0.070493329	-2.6687337237	 0.114858
H	 1.4416863967	 1.3838609667	-2.332127554	 0.285185
