22
gdb 76441	2.56669	1.1575	1.02381	3.4487	83.48	-0.2406	0.0322	0.2729	1308.5205	0.191922	-404.37192	-404.36119	-404.360246	-404.40761	38.796	
C	-0.9190484928	 1.1729246519	-1.5399365522	-0.413753
C	-0.4892710854	-0.0781041323	-0.8041368707	-0.090393
C	 0.9499779277	-0.5522351644	-0.7149220884	-0.0175
C	 2.1211704456	 0.1675068457	-1.3458413414	-0.418994
C	 0.2432996172	-0.0445605854	 0.5250065712	 0.307429
C	 0.6447028328	 1.2550171406	 1.1979003305	-0.450821
N	-0.1615675799	-1.0675723558	 1.4639989643	-0.319682
C	 0.7211003194	-1.7684151864	 2.2271002427	 0.149917
O	 1.9290300727	-1.6842552815	 2.1577174569	-0.32843
H	-0.1785138432	 1.9736919386	-1.4850286198	 0.119997
H	-1.0840254521	 0.9546868522	-2.6006481583	 0.121878
H	-1.8579305023	 1.566627544	-1.1344866404	 0.115986
H	-1.2143735996	-0.8859345242	-0.8816875793	 0.07838
H	 1.0617298491	-1.6320571423	-0.7295720998	 0.095531
H	 1.9940538741	 1.2522404215	-1.3752546918	 0.112388
H	 3.0387452717	-0.0452835358	-0.7879090596	 0.138383
H	 2.2691264971	-0.1711752993	-2.3770686254	 0.116623
H	 0.9553584647	 2.0178687817	 0.482125432	 0.116099
H	-0.1899343548	 1.6626839674	 1.7794849661	 0.107514
H	 1.4799037935	 1.0701895514	 1.8795233907	 0.147693
H	-1.1418664764	-1.1508359255	 1.6892942029	 0.241503
H	 0.201318861	-2.4543147522	 2.9279889799	 0.070251
