20
gdb 106582	2.4277	1.69841	1.31307	2.0551	79.06	-0.216	0.0075	0.2235	1050.5645	0.170862	-403.079073	-403.070707	-403.069763	-403.111651	33.314	
C	-0.2868777575	 1.4130486968	 0.0807059944	-0.340056
N	-0.0117933289	-0.0215837698	 0.1202261441	-0.133303
C	 1.144458498	-0.4935681331	-0.7600267203	-0.055033
C	 2.1495820581	-0.0218332876	 0.3416341195	-0.290471
C	 0.9528725712	-0.513351759	 1.2211621803	 0.273549
C	 0.6469126283	-0.0967774216	 2.6348161106	-0.179511
O	-0.614666444	-0.604728514	 3.0422982218	-0.426634
C	 0.9409771281	-2.0099312372	 0.8642932568	-0.10006
C	 1.0753890527	-1.9949143425	-0.462383601	-0.078848
H	 0.5818656973	 2.0877069748	 0.1478480619	 0.097887
H	-0.8084011807	 1.6340273303	-0.8568141192	 0.123361
H	-0.9691926068	 1.6679442974	 0.8989556219	 0.121847
H	 1.1739793694	-0.1434619142	-1.791815244	 0.069431
H	 3.0989399453	-0.5543026157	 0.4301369581	 0.099728
H	 2.3147122969	 1.0575894616	 0.3712125034	 0.101267
H	 1.3979365614	-0.5048824247	 3.3214312968	 0.109545
H	 0.6847519212	 1.0006032851	 2.7250643064	 0.089027
H	-1.1924621761	-0.5627748251	 2.2706899883	 0.295993
H	 0.8181668196	-2.824223826	 1.5627912655	 0.115163
H	 1.1058706666	-2.8004291857	-1.1811235653	 0.107118
