17
gdb 28103	5.10206	1.24137	1.00468	0.3435	84.67	-0.1646	0.0381	0.2027	1157.9714	0.138716	-380.927121	-380.919255	-380.91831	-380.95913	30.571	
C	-0.0168906694	 1.4921389976	 0.0634014028	-0.502952
C	-0.0006985576	 0.0036571316	-0.0467384649	 0.337303
C	-0.0385507436	-0.7994761228	-1.1719652909	-0.414173
C	 0.0016070283	-2.1381328807	-0.6945007808	 0.341479
C	 0.0623645823	-2.1207799228	 0.697971624	 0.325564
N	 0.0603603684	-0.7974784922	 1.0844817478	-0.459375
C	 0.1019178844	-3.4563984336	 1.1788371777	-0.323202
C	 0.0635217954	-4.2505294758	 0.0495748734	-0.068045
N	 0.002853489	-3.4581739439	-1.083212805	-0.403591
H	 0.8837444906	 1.8824136967	 0.5554474684	 0.123174
H	-0.0672328004	 1.9385503259	-0.9323418113	 0.1342
H	-0.8812642464	 1.8574367178	 0.6334736302	 0.123155
H	-0.0881101256	-0.4415004227	-2.188632601	 0.084985
H	 0.0965012029	-0.4506335572	 2.0259676763	 0.250191
H	 0.1514710487	-3.8112298278	 2.1960996923	 0.086364
H	 0.0749284204	-5.3253734756	-0.0365604248	 0.110368
H	-0.0333601974	-3.8040648546	-2.0243442943	 0.254556
