18
gdb 50553	2.94906	1.30209	1.221	4.1818	71.67	-0.242	-0.0271	0.2149	1096.431	0.147601	-439.061221	-439.052999	-439.052055	-439.094949	30.432	
O	 0.7058482572	 0.0837440171	 1.1700531246	-0.230652
C	 0.311290987	 1.1006854608	 0.667421063	 0.153559
C	 1.1404495952	 1.9997482191	-0.2438176622	 0.006362
C	 1.5107693785	 3.3183139213	 0.4741212596	-0.336622
C	 2.8225002229	 2.9331368614	 1.1551376012	 0.311022
C	 3.687706029	 3.9233669713	 1.8341777237	-0.298752
N	 2.969817949	 2.8983267764	 2.6160999147	-0.342396
C	 3.3467478701	 1.7191776916	 0.3805342265	-0.123012
O	 2.3674671812	 1.4228391098	-0.6190822495	-0.249584
H	-0.7238247574	 1.481939586	 0.8478859652	 0.06902
H	 0.5508499277	 2.1797125527	-1.1523211364	 0.102212
H	 1.6674547612	 4.1039126028	-0.2709851434	 0.124717
H	 0.7494767987	 3.66720986	 1.179065716	 0.108486
H	 4.7686840468	 3.8084809034	 1.8144040479	 0.12278
H	 3.3465998257	 4.9554341641	 1.8796117798	 0.112014
H	 2.1588399222	 3.3099412854	 3.0720016167	 0.228903
H	 4.2914149866	 1.916299163	-0.1365919082	 0.10778
H	 3.4758528884	 0.8728877837	 1.0632691006	 0.134165
