19
gdb 64246	3.07708	0.92851	0.85873	4.6426	72.87	-0.2463	-0.0215	0.2248	1403.3112	0.155764	-460.150101	-460.140246	-460.139302	-460.185796	35.073	
C	-0.0996801631	 1.574070305	-0.1747699151	-0.45921
C	-0.055589935	 0.0605303056	-0.0280202925	 0.311335
O	-1.332766258	-0.5184178586	-0.1720096629	-0.468735
C	 1.11287108	-0.6247379334	-0.7913055943	-0.113079
O	 1.8334338309	-0.8330045723	 0.4413623221	-0.299499
C	 0.6637770378	-0.505430503	 1.2256923792	 0.115431
C	 0.9885180568	 0.3687831433	 2.4309582564	-0.312173
C	 1.8931279592	-0.3540981739	 3.4106949624	 0.156345
O	 1.6500227107	-0.4976841636	 4.5814772644	-0.239911
H	 0.8896954221	 2.0200364492	-0.0416453338	 0.134375
H	-0.4434912842	 1.8431745343	-1.1814924006	 0.11421
H	-0.7865717976	 2.0175462314	 0.5521698139	 0.132777
H	-1.7993303708	-0.0665276277	-0.8828118663	 0.281759
H	 0.808870441	-1.5695169122	-1.2591033242	 0.104591
H	 1.6857662753	-0.0197943137	-1.5031619655	 0.100662
H	 0.1444295772	-1.4182847035	 1.5510261401	 0.095956
H	 1.5179271793	 1.2684684853	 2.0921086411	 0.118064
H	 0.0738176138	 0.6659917933	 2.9523853228	 0.127194
H	 2.8267798947	-0.7547936355	 2.9605612629	 0.099908
