17
gdb 77773	2.38924	1.55316	1.31741	4.2145	74.31	-0.2386	-0.0562	0.1824	1039.3688	0.135161	-421.838093	-421.829869	-421.828925	-421.870489	31.729	
C	-0.1148798363	 1.5510659894	 0.0047422735	-0.423779
C	 0.0484570967	 0.0511274947	 0.0934639817	-0.067723
C	 1.3563679496	-0.7046302111	-0.1763939515	-0.240392
C	 2.6563776949	 0.0672154563	-0.0533503028	 0.394717
O	 3.4558781162	 0.2777320872	-0.9350159723	-0.330865
C	 2.7578101511	 0.5022615692	 1.3725353116	-0.196073
C	 1.7064167204	 0.0439673853	 2.0639316041	-0.137249
C	 0.7499299832	-0.7228202078	 1.1982132612	 0.337288
O	 0.1757502499	-1.8881646427	 1.703892096	-0.462463
H	 0.7272938097	 2.0876281218	 0.4469231143	 0.130548
H	-0.1975765375	 1.8627424836	-1.0415372316	 0.133338
H	-1.0269105766	 1.871619127	 0.520144541	 0.117492
H	-0.8055442221	-0.5070023687	-0.2876190264	 0.102814
H	 1.3217270004	-1.5628972323	-0.8347478668	 0.11888
H	 3.5700852981	 1.1180304721	 1.7362305637	 0.120581
H	 1.5134938903	 0.2078938368	 3.1189723609	 0.115478
H	-0.6090783981	-1.645817791	 2.2072570635	 0.287408
