25
gdb 103299	2.3304	1.32374	1.28665	0.248	92.94	-0.2724	0.0857	0.3581	1232.5209	0.228365	-352.314753	-352.304951	-352.304007	-352.348726	38.614	
C	-0.0548065446	 1.3671508318	 0.2780652627	-0.376831
C	-0.3656105254	-0.0388067036	-0.252756092	-0.265587
C	 0.5722639579	-0.5000493514	-1.3915853759	 0.364978
C	 0.0121477373	 0.0488201854	-2.7106489439	-0.485278
C	 2.1289419641	-0.4446563437	-1.1599393486	-0.088038
C	 1.9748066106	-1.5999639103	-0.1318791865	-0.271074
C	 1.0799657325	-2.0031883095	-1.3511084541	 0.297949
C	 0.2449861259	-3.2483838415	-1.5022615791	-0.519177
C	 2.2914112493	-1.5623761069	-2.2307088293	-0.279119
H	 0.9308514747	 1.4013607421	 0.7537315124	 0.118141
H	-0.0591825332	 2.1145651665	-0.5222940706	 0.11542
H	-0.7943824354	 1.6785791582	 1.0226950768	 0.108702
H	-0.3568271395	-0.7417119219	 0.584581351	 0.093994
H	-1.3943535815	-0.0568785352	-0.6337604456	 0.08817
H	 0.6809050455	-0.0542678015	-3.5653897222	 0.113795
H	-0.9288935737	-0.4548731261	-2.9627890759	 0.113529
H	-0.2165738817	 1.1155756862	-2.6111517917	 0.114869
H	 2.7464645301	 0.4490610744	-1.0520919187	 0.062287
H	 2.8631442354	-2.2190167567	 0.0221748002	 0.082066
H	 1.4921133416	-1.384162325	 0.820826236	 0.089433
H	-0.5264813844	-3.3058638151	-0.7260377255	 0.117265
H	-0.2577343328	-3.2725532185	-2.4758366711	 0.116967
H	 0.8637427442	-4.1493802972	-1.4247048142	 0.117502
H	 2.1094060392	-1.3201304818	-3.2769677707	 0.087384
H	 3.191066924	-2.1769945986	-2.1340093836	 0.082653
