20
gdb 9252	5.8419	0.75222	0.70919	1.1779	80.34	-0.2407	0.0599	0.3006	1629.6648	0.174117	-348.983783	-348.97321	-348.972265	-349.020566	36.107	
C	 0.0572145137	 1.4937645262	 0.0184079782	-0.497992
C	 0.0353868835	 0.0378256017	-0.0124999458	 0.106936
C	 0.0272170886	-1.1662371195	-0.0384462935	 0.029149
C	-0.0038159934	-2.6246843274	-0.060504818	-0.363716
C	-1.4330744543	-3.2169536672	-0.038964993	 0.044424
C	-2.242578253	-2.8110374192	-1.2740456016	-0.386289
C	-1.3535208	-4.7371349857	 0.1028271611	-0.079686
O	-2.6718785122	-5.2435486473	 0.246760533	-0.424373
H	 0.9144166922	 1.8677588507	 0.589541314	 0.145275
H	 0.124407059	 1.9148145673	-0.9910235714	 0.145089
H	-0.8492435106	 1.8966595184	 0.4839237875	 0.145971
H	 0.5209675841	-2.9891706982	-0.9554781807	 0.119946
H	 0.5608558262	-3.0111785574	 0.7990138205	 0.119094
H	-1.9418169105	-2.8357864865	 0.8553376249	 0.0918
H	-1.7562566968	-3.1687759048	-2.1905044566	 0.102472
H	-3.2440037012	-3.2441165034	-1.2326258843	 0.131058
H	-2.3280684702	-1.7234705437	-1.3426210155	 0.122398
H	-0.8583333178	-5.1631396539	-0.7867501668	 0.081126
H	-0.7348103499	-4.995531986	 0.9779044196	 0.080979
H	-2.6251413073	-6.2032689542	 0.2746635085	 0.286339
