20
gdb 106103	3.56344	1.20585	1.17604	2.0667	78.66	-0.2284	0.0761	0.3044	1157.1233	0.171502	-403.070058	-403.061639	-403.060695	-403.103176	32.488	
C	-0.0287044883	 1.5739341514	 0.047873351	-0.42861
C	 0.0792291012	 0.0638822594	-0.0726905035	 0.074607
C	 0.8335970988	-0.6188857634	-1.2063577493	-0.182621
C	 2.3037769131	-0.7362985034	-0.7338885863	-0.137155
C	 2.3470988857	-0.1251225023	 0.6530207557	-0.182522
N	 0.9656245845	-0.694214607	 0.9184397145	-0.240999
C	 1.2513959695	-1.6878719688	-0.2443811379	 0.388743
C	 1.0965397446	-3.1594174235	-0.0894470558	-0.219718
O	 1.8449625051	-3.6432494761	 1.0157925031	-0.414225
H	 0.9032505197	 2.0868209569	-0.2007840034	 0.122058
H	-0.7999613136	 1.9449840387	-0.6354558466	 0.118683
H	-0.3193467246	 1.8537221216	 1.0664808851	 0.127666
H	-0.9172842671	-0.3793546302	 0.0286583388	 0.080847
H	 0.5722585276	-0.7256817332	-2.2527171622	 0.088966
H	 3.1021905495	-0.9329429903	-1.4390138432	 0.092162
H	 3.0610162024	-0.636737786	 1.302952433	 0.112826
H	 2.4438049818	 0.9562426786	 0.7868816507	 0.096325
H	 0.0298519722	-3.4174416093	 0.0141940259	 0.094
H	 1.4724002018	-3.6745646151	-0.9802753712	 0.115473
H	 1.5593114861	-3.1249400277	 1.7778555814	 0.293494
