14
gdb 585	13.64625	1.58265	1.55333	0.1421	63.06	-0.2264	0.0572	0.2837	812.7972	0.118893	-233.262752	-233.255758	-233.254814	-233.294462	23.778	
C	-0.0015729614	 1.4726264433	 0.0026529071	-0.496589
C	 0.0082916687	 0.0168642863	 0.0239132178	 0.046055
C	 0.0174423017	-1.1882718639	 0.0412212388	 0.085089
C	 0.0347977539	-2.6229423	 0.0581228382	-0.150122
C	-0.5210207478	-3.3856707908	 1.2505205801	-0.252234
C	-1.2615395015	-3.4099792587	-0.0540826997	-0.252229
H	 0.9265344838	 1.8678572983	-0.4255441747	 0.146382
H	-0.8319574052	 1.8613277201	-0.5978904542	 0.144163
H	-0.1002858502	 1.8885419668	 1.0118621671	 0.144316
H	 0.8974764167	-3.0754210961	-0.4231058804	 0.1059
H	 0.0108878415	-4.2773543595	 1.5629274759	 0.115596
H	-0.9349051326	-2.7972981929	 2.0606399304	 0.124031
H	-2.178530081	-2.8380646019	-0.1303590155	 0.124052
H	-1.2427395266	-4.3185187111	-0.6455424909	 0.115591
