19
gdb 82383	2.69694	1.79849	1.3848	2.3682	72.73	-0.2559	0.0677	0.3236	974.6117	0.161558	-422.997045	-422.98985	-422.988905	-423.02831	29.982	
O	 0.0453463943	 1.4392171903	 0.0305480798	-0.436856
C	-0.0221476987	 0.026283969	-0.0089640796	 0.06429
C	-1.4744753418	-0.4755984711	-0.0195264211	-0.031665
C	-2.6162708503	 0.4988292201	-0.1304886234	-0.291919
C	-2.2176621867	-0.3233336988	-1.3298115676	-0.025226
C	-1.4137377308	 0.2826502255	-2.48401732	-0.275644
C	-0.0174745007	-0.3291190549	-2.5442563672	 0.056961
O	 1.1085345824	 0.5112983358	-2.1982727216	-0.268268
C	 0.6917118793	-0.5016603278	-1.2712707433	 0.011709
H	 0.5585271315	 1.7025212821	-0.7480264764	 0.294856
H	 0.483048181	-0.3762517477	 0.8784676429	 0.072793
H	-1.6379438159	-1.3844440004	 0.5510350929	 0.081087
H	-3.5460855188	 0.2554463441	 0.3721492418	 0.105875
H	-2.3531968968	 1.5499555403	-0.128971051	 0.1337
H	-2.8846024922	-1.1326994657	-1.6101067717	 0.081978
H	-1.9327877932	 0.1256684524	-3.4332232722	 0.105037
H	-1.3098643309	 1.3632577002	-2.3530502925	 0.123226
H	 0.2025549133	-1.005095593	-3.368318367	 0.09959
H	 1.4020407153	-1.3149466004	-1.1392139128	 0.098475
