18
gdb 50983	2.01147	1.33196	0.92453	3.5527	79.69	-0.2586	0.0185	0.2771	1301.7531	0.144835	-401.892488	-401.883023	-401.882079	-401.92742	34.632	
N	-2.3253126466	 0.5769138008	-1.8432893927	-0.439358
C	-2.1266043153	-0.5994867472	-1.4347022994	 0.112733
O	-1.4726102876	-0.8046030144	-0.2687971304	-0.221567
C	-1.2054409493	-2.146821849	 0.0786526558	 0.425805
C	-0.0065403811	-2.7454906768	-0.6480840138	-0.424324
C	 1.2477847636	-2.0606622442	-0.353980668	 0.325172
C	 2.2788003064	-1.4975241372	-0.1046066301	-0.442847
C	-1.4460761182	-2.4660326518	 1.5174569799	-0.300425
C	-2.3770880404	-3.0186134327	 0.4556516358	-0.335559
H	-2.841364202	 0.5555215391	-2.7203595	 0.229243
H	-2.4482685979	-1.5276887297	-1.9244104288	 0.091508
H	 0.0741964624	-3.8032407017	-0.3699949	 0.134186
H	-0.1914046591	-2.7298914834	-1.7305380488	 0.13132
H	 3.186843918	-0.9919802325	 0.1127113832	 0.200362
H	-0.7560982321	-3.1406171256	 2.0112936003	 0.124941
H	-1.8187343063	-1.6578987828	 2.1350360612	 0.138403
H	-3.3657382797	-2.5796306885	 0.3864618444	 0.130018
H	-2.333593935	-4.0762637924	 0.2188954314	 0.120391
