16
gdb 51711	3.07031	1.18718	0.95649	5.6309	65.02	-0.2614	-0.0457	0.2157	1196.4072	0.124607	-475.083426	-475.07527	-475.074326	-475.117046	29.229	
O	-0.777628011	 1.0391277898	-0.8898022603	-0.240912
C	 0.0353788076	 1.1218226212	-0.0018722221	 0.155905
C	 1.2246044586	 2.0551917517	-0.0160953896	-0.311728
C	 1.2358705535	 3.0355341845	-1.1987720644	 0.006741
C	 2.5481492142	 3.8429954408	-1.3078944033	-0.103449
O	 3.3544300347	 3.1120838906	-2.2356284957	-0.241068
C	 2.5502710764	 2.2861730449	-2.9862101817	 0.473554
O	 2.9533767404	 1.6290459348	-3.9029795961	-0.388002
N	 1.2699698577	 2.380802427	-2.4911936395	-0.357774
H	-0.0484719006	 0.485822982	 0.9065098908	 0.098246
H	 1.239730856	 2.5972911959	 0.9402013655	 0.130951
H	 2.1328174553	 1.4336283223	-0.0169698195	 0.14976
H	 0.3704769848	 3.7004542343	-1.1211735745	 0.106471
H	 2.363641151	 4.8478218531	-1.7038832146	 0.123783
H	 3.0885171712	 3.9235552502	-0.3618633614	 0.122289
H	 0.5856913801	 1.6826504369	-2.7333789535	 0.275234
