14
gdb 42554	2.71502	1.79716	1.3419	2.2037	70.93	-0.2407	-0.0175	0.2232	934.3262	0.100151	-399.453281	-399.446232	-399.445288	-399.484849	27.383	
O	 0.0363286191	 0.0904273565	-0.1210348188	-0.326584
C	 0.005834036	 1.2848402927	-0.0916456787	 0.448004
C	-1.077272716	 2.3081745867	 0.1084466812	-0.166291
C	-0.0733658462	 3.1451409142	 0.8625699407	-0.062064
C	 1.0782230909	 2.3855584907	 0.0998239354	-0.212124
C	 0.7640053658	 3.3430394379	-1.0711899751	-0.15497
C	 0.7718353479	 2.8364589608	-2.4281631539	 0.331805
C	 0.7787200364	 2.3978940418	-3.5471389524	-0.415892
N	-0.5944768392	 3.6260171109	-0.424227322	-0.134455
H	-2.1413944116	 2.1940133147	 0.2589155307	 0.126763
H	-0.1550466146	 3.6418814314	 1.8184126529	 0.128294
H	 2.084428967	 2.1402945371	 0.4265530393	 0.105682
H	 1.3222153683	 4.2803928168	-0.9985326689	 0.122809
H	 0.7825298661	 2.0094369479	-4.5359756804	 0.209023
