15
gdb 4878	4.75968	1.41827	1.16395	4.6702	63.9	-0.2115	0.027	0.2385	1014.3182	0.119364	-399.864771	-399.857186	-399.856242	-399.896973	27.53	
C	-0.14920859	 1.5703409145	-0.0321340766	-0.375019
C	 0.0749470332	 0.0488798917	 0.0110991788	-0.292898
C	 0.8529638855	-0.4644108206	-1.1452104092	 0.370855
C	 2.0332543623	-1.088068648	-1.2643615251	-0.215421
N	 2.2339110022	-1.3128691012	-2.6287607253	-0.361234
C	 1.1711608609	-0.8237431091	-3.3520006319	 0.476388
O	 0.9728770178	-0.8253352002	-4.5358889907	-0.401152
O	 0.3079278226	-0.291584803	-2.4085011119	-0.246595
H	 0.8040359524	 2.1067223846	-0.0064824697	 0.121982
H	-0.6739274677	 1.857215219	-0.9470640234	 0.142671
H	-0.7492988965	 1.8939110794	 0.823054742	 0.117294
H	 0.6077698974	-0.2327264609	 0.9256026577	 0.114281
H	-0.8980114947	-0.4586975206	 0.0445575427	 0.124373
H	 2.7424809577	-1.3915227307	-0.5139911927	 0.148156
H	 3.0171917667	-1.7637206749	-3.0659969247	 0.276318
