19
gdb 120617	3.46803	0.77468	0.70642	2.0274	73.95	-0.2482	-0.0271	0.2211	1603.1937	0.156002	-460.149603	-460.139438	-460.138494	-460.185297	36.148	
O	-0.00105985	 1.3217430018	 0.024511524	-0.420133
C	-0.0291715337	-0.0762219368	 0.2635719122	-0.066484
C	-1.364134398	-0.603458108	-0.254946787	-0.220838
C	-1.4963037375	-2.0990872256	-0.0798242908	-0.062182
C	-1.9527891552	-2.6943739189	 1.2173722754	-0.305556
C	-2.8846529787	-2.7320382452	 0.0205990539	 0.258648
O	-4.0211603604	-1.9233342838	 0.098506005	-0.462065
C	-3.086294419	-4.0514684351	-0.6394733937	 0.10228
O	-2.2200704899	-4.8786659092	-0.7962243842	-0.270228
H	 0.8372676096	 1.6661516848	 0.3455308958	 0.287609
H	 0.7990290768	-0.588101469	-0.2529603405	 0.08827
H	 0.0654628785	-0.3048836687	 1.336850528	 0.091865
H	-2.1739794893	-0.0881685698	 0.2709621992	 0.118687
H	-1.447365577	-0.3342090098	-1.315514156	 0.106452
H	-0.7966034698	-2.7105434979	-0.6443955335	 0.112794
H	-1.5308268759	-3.6412252915	 1.5337817797	 0.136789
H	-2.2612559303	-2.0175302019	 2.0069288229	 0.131072
H	-4.1337254333	-1.46673821	-0.7425517287	 0.292815
H	-4.132369587	-4.2176225855	-0.9822390815	 0.080205
