19
gdb 93889	2.20068	1.4788	1.10401	4.7975	71.58	-0.2326	-0.0087	0.2239	1152.4705	0.158534	-460.172295	-460.163052	-460.162107	-460.207086	33.984	
O	-0.3077372629	 1.4771281412	 0.6799098334	-0.433354
C	-0.061257418	 0.1829706541	 0.1361403079	 0.093132
C	 0.7491085141	-0.6909250662	 1.1059373611	-0.237347
C	-0.2739253543	-1.0295732443	 2.2001265127	-0.234993
C	-1.6123118351	-1.2317604908	 1.4448783002	 0.115013
O	-2.7263871063	-0.643804196	 2.104167058	-0.429126
C	-1.4173099682	-0.5541987473	 0.0506708724	-0.104271
C	-2.5652851014	 0.3496219551	-0.3730136901	 0.174507
O	-3.1522726744	 0.2144309555	-1.4175503705	-0.275413
H	 0.5359253309	 1.9322598305	 0.763139826	 0.286451
H	 0.4066473659	 0.2674824369	-0.8537036329	 0.073254
H	 1.0877562878	-1.5958101697	 0.586711889	 0.103353
H	 1.6405264195	-0.178375048	 1.4832917391	 0.092125
H	 0.0091105214	-1.8941851648	 2.8067824745	 0.091989
H	-0.4017621726	-0.1684581641	 2.8622989754	 0.119452
H	-1.8052521252	-2.3017589718	 1.2856772487	 0.074008
H	-2.8762808853	-1.1224278917	 2.9248387533	 0.286315
H	-1.3333055535	-1.3274108567	-0.7171169896	 0.093285
H	-2.8186687722	 1.1543848981	 0.3372105114	 0.111618
