18
gdb 25629	3.41989	0.96164	0.75768	2.0732	93.5	-0.188	0.0263	0.2144	1504.1472	0.147399	-364.843212	-364.833622	-364.832678	-364.879257	33.913	
C	-0.0435976501	 1.4925887292	-0.0395968751	-0.509057
C	-0.0114002449	 0.0377430933	-0.0430886402	 0.183223
C	 0.0115015287	-1.1698743251	-0.0462846335	-0.117624
C	 0.0249290685	-2.5851775817	-0.0510385887	 0.119669
C	 1.1569073139	-3.387870186	 0.0305842444	 0.188446
C	 2.5958168624	-3.0144347529	 0.1400107047	-0.522597
N	 0.7294583504	-4.6891056649	-0.0067699547	-0.286252
C	-0.6422356804	-4.7453034959	-0.1098666445	-0.081219
C	-1.1097629696	-3.4592256494	-0.1396915834	-0.279713
H	 0.5192638494	 1.9119075563	-0.8820121129	 0.142428
H	-1.0718061089	 1.8642550565	-0.1157256549	 0.14584
H	 0.3861148534	 1.904729904	 0.8811595567	 0.142427
H	 3.0551699204	-3.3981677488	 1.0597568657	 0.125559
H	 3.1874318636	-3.3909529617	-0.7040364001	 0.12556
H	 2.6829628713	-1.9260222227	 0.1509974187	 0.151265
H	 1.337409443	-5.4885247871	 0.0355677807	 0.258463
H	-1.1579021036	-5.6908183622	-0.1523866692	 0.117812
H	-2.1400908072	-3.1503905808	-0.2157013037	 0.095771
