21
gdb 116914	4.03686	0.58457	0.53744	1.6183	90.1	-0.2281	0.0549	0.2829	2080.7938	0.180695	-387.051914	-387.041248	-387.040303	-387.089544	37.558	
C	-0.3535570882	 1.4217486663	 0.2803237823	-0.405676
C	 0.030292865	-0.0243655753	 0.0745709669	 0.017347
C	 1.4127725405	-0.4032451114	-0.3693774404	-0.286393
C	 0.9645509518	-0.7400838728	 1.0481716676	-0.188871
C	 1.5347951142	-0.0567686418	 2.172962026	 0.110123
C	 2.017066046	 0.5033650651	 3.1262425464	 0.020409
C	 2.574900687	 1.1853063417	 4.2869506299	-0.325307
C	 1.4984474691	 1.8071518621	 5.1835241606	-0.061561
O	 2.1690657319	 2.4344835633	 6.2639203975	-0.415978
H	 0.4745420432	 1.9897975596	 0.7126382035	 0.127533
H	-0.6303036158	 1.8906279649	-0.6702588428	 0.114806
H	-1.2070933764	 1.5115363954	 0.9610077657	 0.117552
H	-0.7709390739	-0.6541421742	-0.3035529377	 0.087612
H	 1.5402939197	-1.226431618	-1.0636395808	 0.113514
H	 2.1448197945	 0.390613419	-0.4692196566	 0.121591
H	 0.7332889313	-1.7867425152	 1.2266029138	 0.104552
H	 3.1674068827	 0.4885679044	 4.8929285718	 0.135063
H	 3.26321855	 1.9800775145	 3.9733577727	 0.133676
H	 0.9068968987	 2.5266747697	 4.5977770517	 0.09533
H	 0.8132337868	 1.0194058036	 5.530496072	 0.096613
H	 1.5088010019	 2.8255249591	 6.8429848099	 0.288067
