19
gdb 96848	3.30326	1.14229	0.89247	4.8085	86.02	-0.2032	0.0044	0.2076	1329.8025	0.158858	-419.239688	-419.230145	-419.229201	-419.274636	34.895	
C	-0.0596347241	 1.4442068878	-0.0545605576	-0.329562
N	 0.0183054341	-0.0050625399	-0.0525878054	-0.351027
C	-1.0441011064	-0.6892287303	-0.0283206939	 0.458599
O	-2.3283650622	-0.1526385516	-0.0054484618	-0.274042
C	-3.2926453747	-1.2029735841	 0.0413080183	 0.04537
C	-4.2680891874	-1.0583367175	-1.1263965559	-0.401916
C	-2.4648152005	-2.4714811026	 0.0239248094	 0.34263
N	-3.0716024779	-3.6986479997	 0.1336998604	-0.593322
C	-1.1629160008	-2.1394771316	-0.0215727143	-0.348322
H	 0.6679778881	 1.8430550617	 0.6616091672	 0.114689
H	 0.2299844528	 1.8291069782	-1.0415376868	 0.115347
H	-1.0497279688	 1.8466647915	 0.190168909	 0.115266
H	-3.8442018842	-1.1262157379	 0.9903991997	 0.10379
H	-3.7407083489	-1.1589152767	-2.079048307	 0.133217
H	-5.0597476377	-1.8143648951	-1.0771778907	 0.108396
H	-4.7438350619	-0.075123357	-1.091575465	 0.138966
H	-4.0092511395	-3.7739593198	-0.2303351823	 0.255146
H	-2.5010814009	-4.50132325	-0.0856057402	 0.26056
H	-0.3044367592	-2.7933278254	-0.0415798731	 0.106217
