17
gdb 35905	3.20767	1.41661	1.10243	1.8067	73.7	-0.2541	0.0306	0.2847	1087.9293	0.136074	-421.765301	-421.75757	-421.756626	-421.79756	30.125	
C	-0.0522987582	-1.2051142658	-0.0280135865	-0.423688
C	-0.0402380707	-0.0059173351	 0.0327654746	 0.313056
C	 0.0034653656	 1.4527607427	 0.0613214331	-0.091524
O	-0.7050942018	 1.9116287332	 1.2173656042	-0.249136
C	-0.5804201819	 3.3037525913	 1.352823882	 0.021374
O	 0.7065594931	 3.6870231392	 1.7608917728	-0.242896
C	 1.7170091512	 3.1996124539	 0.917833614	 0.089369
C	 2.3202034973	 1.8614967785	 1.2539200023	-0.303349
C	 1.4274883637	 2.0004479632	 0.04498598	-0.07475
H	-0.0683122936	-2.2661647393	-0.0724526896	 0.199728
H	-0.5155653683	 1.8374595608	-0.8339201256	 0.101322
H	-0.8462865231	 3.7952804599	 0.3991398369	 0.08013
H	-1.2643885304	 3.613232613	 2.1447146094	 0.122274
H	 2.3557158146	 3.9908652958	 0.5348422991	 0.101129
H	 3.3808080663	 1.7049020853	 1.0933713087	 0.114189
H	 1.9016744036	 1.3655480095	 2.1224200391	 0.139149
H	 1.8967627426	 1.9700274038	-0.9328068545	 0.103625
