18
gdb 71722	2.56526	2.08402	1.52684	1.1247	73.85	-0.221	0.0616	0.2825	918.7888	0.148132	-401.89071	-401.88333	-401.882386	-401.921903	30.199	
C	-0.0095391606	 1.5039901429	-0.034500809	-0.519235
C	 0.0217788551	 0.0138044647	 0.0058008824	 0.303087
C	 0.5741996218	-1.0445413225	-0.9270650892	-0.199526
C	-0.6972129398	-1.8500646191	-0.6482683205	-0.050115
C	-0.717275581	-2.0806573094	 0.8208669361	-0.049442
C	 0.6591718314	-1.9221809603	 1.4163933205	-0.311517
C	 1.1732981506	-0.8605367663	 0.4597668472	 0.335937
O	 2.4639100123	-0.353860342	 0.5183167254	-0.476495
N	-1.2418920182	-0.7863782387	 0.2607528489	-0.20077
H	 0.9947531294	 1.893816481	-0.2285834441	 0.124716
H	-0.6786212736	 1.8722069446	-0.8185776904	 0.131057
H	-0.3616849764	 1.9107322972	 0.9212773532	 0.122044
H	 1.1435043359	-0.95684664	-1.8414995609	 0.098069
H	-1.3239497852	-2.352526226	-1.3761280919	 0.095335
H	-1.4736603544	-2.7069355109	 1.2797331641	 0.097293
H	 0.6308483232	-1.5697272913	 2.4543361688	 0.099001
H	 1.2435143685	-2.8471381239	 1.3727945435	 0.113114
H	 2.5321216409	 0.2104526501	 1.2969383159	 0.287448
