19
gdb 66070	2.07915	1.33694	1.0784	2.9031	82.84	-0.2456	-0.0322	0.2134	1221.2333	0.156447	-385.856275	-385.846769	-385.845825	-385.890906	35.273	
C	-0.0977672544	 1.5352571414	 0.0727202392	-0.450825
C	-0.030014786	 0.0002968745	 0.0104943698	 0.104385
C	 1.1421398435	-0.5013177082	-0.9036899714	-0.249057
C	 2.0173142704	-0.7047421756	 0.3555362184	-0.259391
C	 0.7365255278	-0.6729086507	 1.2359754134	-0.090378
C	 0.7982372949	 0.0665725298	 2.543799718	 0.151815
O	 0.3354938509	-0.3345055751	 3.5816387796	-0.250012
C	-1.3405533502	-0.5607524384	-0.2623288518	 0.278641
C	-2.42329886	-1.032441424	-0.4906486748	-0.444416
H	 0.8895078333	 1.9704665747	 0.2549142821	 0.117043
H	-0.4677501226	 1.9234312782	-0.8805462755	 0.132155
H	-0.7766528524	 1.8728319962	 0.8609752696	 0.136533
H	 0.8905487018	-1.4454607071	-1.389812853	 0.120098
H	 1.4914459122	 0.2058572766	-1.659834453	 0.107082
H	 2.6181531556	-1.6135576186	 0.4122013327	 0.116241
H	 2.6689267927	 0.1517186354	 0.5550970435	 0.10986
H	 0.3330577591	-1.6698733151	 1.4189687202	 0.104901
H	 1.3316019166	 1.0447046917	 2.5002063879	 0.06884
H	-3.3797103934	-1.4495936058	-0.6881176251	 0.196485
