23
gdb 114042	2.6632	1.18716	1.00213	1.4117	86.48	-0.2265	0.0805	0.307	1344.8148	0.204145	-388.265396	-388.255461	-388.254517	-388.299834	37.55	
C	-0.4263761851	 1.2947706744	-0.3533512353	-0.383331
C	 0.8668939723	 0.6373588674	 0.1414403233	-0.214506
C	 1.5160550277	-0.2061300224	-0.9435234842	 0.153791
O	 2.7986717437	-0.7986229232	-0.581376132	-0.345327
C	 2.4062317523	-2.0509680769	-1.1759368027	 0.441546
C	 3.4150391958	-2.7336322662	-2.0415917419	-0.488222
C	 1.3023534416	-2.6752795201	-0.3796610999	-0.054162
C	 1.2002255085	-2.61862973	 1.1301126448	-0.424543
C	 0.9781596901	-1.5672918335	-1.3809758104	-0.232788
H	-0.2412153133	 1.9357455218	-1.222638572	 0.115308
H	-1.1660999398	 0.5421688148	-0.6470237084	 0.120894
H	-0.875668337	 1.915409162	 0.4270784603	 0.116477
H	 1.5869573098	 1.4080852891	 0.4445734885	 0.10447
H	 0.6625280724	 0.0301910361	 1.0263241689	 0.104615
H	 1.671310467	 0.4233173116	-1.8333997364	 0.075353
H	 4.2840538164	-3.0414775674	-1.4484212448	 0.130314
H	 2.9852360479	-3.6294277478	-2.4992455214	 0.120636
H	 3.7687119582	-2.0686131668	-2.8360229355	 0.125213
H	 1.005005075	-3.6333975017	-0.8052065767	 0.083458
H	 1.7934068661	-1.792851533	 1.52684488	 0.138854
H	 0.164870795	-2.5011311948	 1.4677016824	 0.112348
H	 1.5871737787	-3.5455084525	 1.5676494388	 0.110257
H	 0.3062775071	-1.7290238909	-2.2144456155	 0.089345
