16
gdb 130721	3.22498	1.35827	1.03515	2.8012	70.54	-0.2194	0.012	0.2315	1126.8306	0.126289	-434.088365	-434.080624	-434.07968	-434.12172	28.689	
O	 0.0689310185	-0.0281103803	-0.2350392752	-0.432903
C	 0.0112565147	 1.173303913	-0.0721824443	 0.475761
N	-1.0729081979	 2.0202927593	-0.0394258575	-0.315455
N	-0.7501613347	 3.3399801143	 0.1698563483	-0.224192
C	 0.543525174	 3.3266743794	 0.2697353051	 0.040692
N	 1.075409897	 2.069682537	 0.1363850552	-0.124542
C	 2.4377140501	 1.6276440863	 0.1820649201	 0.071726
C	 3.5507321998	 2.4668749959	-0.3803452718	-0.287449
C	 3.433073339	 2.2587609126	 1.1150008878	-0.28746
H	-2.0322321102	 1.7449138498	-0.1532334227	 0.281946
H	 1.1362632829	 4.2114793191	 0.4396300762	 0.150856
H	 2.4651634895	 0.5547857759	 0.0349050492	 0.140917
H	 4.343864091	 1.963264761	-0.921054251	 0.131341
H	 3.2954966679	 3.4451648122	-0.7737865454	 0.123709
H	 3.0997000489	 3.0987650333	 1.7152052266	 0.123709
H	 4.1444027196	 1.6104486312	 1.6137506193	 0.131341
