17
gdb 75872	2.28106	1.844	1.0281	6.7339	79.79	-0.2025	-0.0028	0.1997	1114.6701	0.137711	-418.074966	-418.066455	-418.065511	-418.107767	32.423	
C	-0.9571457341	 0.75019935	-0.0146179539	-0.523869
C	 0.4055603759	 0.1109410029	-0.0032014276	 0.08689
C	 1.0258806229	-0.2847661581	-1.1535798623	 0.31686
N	 0.5286144124	-0.0744176284	-2.4420545177	-0.58726
H	-0.4157702917	 0.2837275326	-2.4376998227	 0.262347
H	 0.591529734	-0.8851950022	-3.0464140917	 0.248325
N	 2.2581455442	-0.8979113148	-1.123594241	-0.380295
C	 2.9167529685	-1.1132400799	 0.0616197023	 0.011861
C	 2.3655027	-0.7501643923	 1.2365705508	-0.238458
C	 1.0581184025	-0.0916189849	 1.2964236385	 0.328431
O	 0.5400867284	 0.2478898681	 2.3608474543	-0.411376
H	-0.9492601183	 1.7535191554	-0.4598513683	 0.121238
H	-1.69742649	 0.1504479353	-0.560829457	 0.105994
H	-1.2884273195	 0.8478921805	 1.021072798	 0.164043
H	 2.7490651697	-1.0208332194	-1.9939169902	 0.258751
H	 3.8847429549	-1.5914308542	-0.0287086457	 0.128527
H	 2.8810676002	-0.9358279705	 2.1701196741	 0.107991
