25
gdb 122018	5.022	0.51331	0.48493	0.4776	87.55	-0.2497	0.0801	0.3297	2332.3864	0.225977	-426.621785	-426.609785	-426.608841	-426.6602	41.719	
C	 0.0159176801	 1.4875682631	 0.0172173507	-0.385107
C	 0.0321870823	-0.0318388811	 0.0131802587	-0.026965
O	 0.701531299	-0.4798636832	 1.1726515642	-0.247534
C	 0.7780343716	-1.8857395265	 1.2696298755	-0.052668
C	 1.4809266447	-2.265000875	 2.574690798	-0.000108
C	 0.6964334266	-1.7389371178	 3.7853453051	-0.391142
C	 1.7062362006	-3.7848395829	 2.6135052161	-0.170007
C	 2.5669890586	-4.2643500418	 3.7761367968	-0.08538
O	 2.7741447029	-5.6601497458	 3.6071360307	-0.421576
H	 1.0360643973	 1.8818952437	 0.0255741739	 0.125767
H	-0.4961825396	 1.8665743743	-0.8723022453	 0.113517
H	-0.5031657902	 1.8634851603	 0.9035764313	 0.125218
H	-0.996855431	-0.4299728328	-0.01053	 0.084008
H	 0.5411586807	-0.4102804675	-0.8900730345	 0.083717
H	-0.2347896382	-2.3272805359	 1.2426477529	 0.079956
H	 1.331497566	-2.2963859996	 0.407807373	 0.08132
H	 2.4613399062	-1.7682386434	 2.5562766768	 0.07962
H	 1.2515500984	-1.866835998	 4.7190542816	 0.109247
H	 0.4816342339	-0.6754385687	 3.6604117493	 0.131332
H	-0.2588592837	-2.2685328924	 3.8889798308	 0.107307
H	 0.7417699925	-4.3076929599	 2.6553890364	 0.101143
H	 2.1965838272	-4.1107850751	 1.6877702794	 0.102566
H	 3.5247875291	-3.7172991715	 3.7770997581	 0.08314
H	 2.0708561901	-4.0549343049	 4.7357036273	 0.088219
H	 3.2848159149	-5.9801015574	 4.3563348133	 0.284409
