19
gdb 51635	4.18892	1.00693	0.99637	2.8564	76.82	-0.2298	0.0284	0.2582	1249.6728	0.162331	-419.193333	-419.185637	-419.184693	-419.226566	29.631	
O	-0.0198047235	 0.0531419672	 0.735478022	-0.321797
C	-0.0102684871	 1.1510802292	 0.2210480471	 0.151582
N	 1.0902974723	 1.7825984784	-0.2732979324	-0.297394
C	 2.4192099182	 1.2040341294	-0.250328729	 0.047283
C	 3.1787980148	 1.2461251195	-1.6277770472	-0.20456
N	 4.4264398202	 1.9921744065	-1.3024422365	-0.117557
C	 4.7672251153	 1.3422773244	 0.0310149684	-0.179074
C	 3.4677651405	 1.9982415126	 0.5569297077	-0.047093
C	 3.8532792575	 3.1094785253	-0.4521463903	-0.188161
H	-0.9236001901	 1.7662773112	 0.0945572903	 0.073242
H	 0.9608844227	 2.6955659457	-0.6806504546	 0.243886
H	 2.2903063422	 0.1921332353	 0.1345482272	 0.122682
H	 3.4255572491	 0.2526893028	-2.0088612866	 0.117385
H	 2.6097969066	 1.7792927275	-2.3949022266	 0.103766
H	 4.8412566256	 0.2509555814	 0.0084101069	 0.106902
H	 5.6828647952	 1.7761069021	 0.4381719028	 0.112278
H	 3.2549018887	 2.1739955785	 1.6122316213	 0.074985
H	 4.6546749774	 3.7641794407	-0.103445639	 0.114812
H	 3.0741428445	 3.7087470522	-0.9355334015	 0.086834
