16
gdb 417	5.26363	3.09609	2.52678	1.104	56.8	-0.245	0.0897	0.3348	596.0747	0.141327	-271.611366	-271.604301	-271.603357	-271.641692	25.705	
C	 0.1365429964	 1.2762244005	 0.199214884	-0.244995
O	-0.2253517317	-0.0177867356	-0.2390734084	-0.277129
C	 0.5911183671	-0.5422833478	-1.253194227	 0.456398
C	 0.427128358	 0.1053316966	-2.6115093416	-0.45437
C	 1.9346187536	-1.0868360253	-0.8274494231	-0.318192
C	 0.7851074741	-2.0237078607	-1.1513452566	-0.309889
H	 1.1878123454	 1.3185041881	 0.5186677211	 0.104598
H	-0.0211234566	 2.0410516661	-0.5743595051	 0.106656
H	-0.5037425934	 1.5114491552	 1.0530122105	 0.124452
H	 0.7461327602	 1.1530842473	-2.6062053538	 0.116517
H	 1.0280989851	-0.4166613469	-3.361370289	 0.116543
H	-0.6213505871	 0.0697712975	-2.9256125453	 0.124292
H	 2.7682843858	-1.0253011233	-1.5189912571	 0.109008
H	 2.2040297467	-0.9827683777	 0.2176302138	 0.115597
H	 0.3003613445	-2.5173525537	-0.3172800424	 0.121866
H	 0.8269715018	-2.6039212903	-2.0666868799	 0.108647
