17
gdb 19366	4.33721	1.71118	1.53506	1.2058	67.85	-0.2086	0.0782	0.2869	880.6286	0.141594	-363.754553	-363.747293	-363.746349	-363.785969	28.147	
C	-0.2548838797	 1.324119522	-0.0551831056	-0.255922
O	 0.1645967934	-0.0246194611	 0.0894958164	-0.276619
C	 0.7409631859	-0.5350413703	-1.049950372	 0.446442
C	-0.0334794119	-1.0014387702	-2.2526370624	-0.352168
C	 0.8284342121	-1.9809132295	-1.4703953071	-0.161345
C	 2.347031879	-1.7815120393	-1.7558669674	-0.045531
N	 2.5215539028	-0.7078022376	-2.7719792209	-0.337162
C	 2.2729811078	-0.3672449055	-1.348446038	-0.13626
H	 0.5896338207	 1.9893504865	-0.2842130674	 0.110688
H	-1.0037312397	 1.4257092619	-0.8521037765	 0.115336
H	-0.6956092523	 1.6246028248	 0.8979238255	 0.125544
H	-1.0939056573	-1.1223814224	-2.051533948	 0.110437
H	 0.2282582087	-0.706375589	-3.2605451946	 0.139083
H	 0.4194691227	-2.8573237646	-0.9862123141	 0.098837
H	 3.120269957	-2.517962484	-1.5811784633	 0.094772
H	 3.52402679	-0.6099999821	-2.9339687323	 0.228764
H	 2.9598488208	 0.2334824107	-0.7661587923	 0.095105
