20
gdb 47046	3.35827	1.32321	1.04886	3.9115	79.18	-0.2338	0.0377	0.2715	1164.6234	0.174523	-403.192561	-403.184869	-403.183925	-403.22488	30.623	
O	-0.018793559	-0.0985303684	-0.1774368435	-0.378222
C	-0.0361948186	 1.1165088801	-0.1047385728	 0.386696
C	-1.3245403164	 1.9288643859	-0.1890450703	-0.312723
C	-1.2525992999	 3.2373973156	 0.6062392345	-0.22991
C	-0.0877134799	 4.0869578553	 0.0979633093	-0.00297
C	 0.537712187	 5.0498447756	 1.1474023355	-0.242036
C	 1.6141415631	 3.9721096443	 1.4576680199	-0.239746
C	 1.2413397143	 3.2828071188	 0.1104010877	 0.054979
N	 1.1137969323	 1.8446562512	 0.0541362951	-0.310723
H	-1.5161329318	 2.1415121553	-1.2493043566	 0.122297
H	-2.1310107994	 1.2763896102	 0.1523511893	 0.127129
H	-2.1927384948	 3.7940318053	 0.5293819114	 0.102548
H	-1.1139847095	 3.0046141237	 1.6694159514	 0.10599
H	-0.3472830039	 4.5266551547	-0.8696284123	 0.07135
H	 0.9659277323	 5.9433542113	 0.6861666893	 0.105074
H	-0.1089570028	 5.361370885	 1.9710563522	 0.104117
H	 2.6468251473	 4.3056844978	 1.5802987383	 0.100293
H	 1.3419881853	 3.3449769911	 2.3101449334	 0.111449
H	 1.9119162687	 3.6276883548	-0.6858169626	 0.083557
H	 1.9515913756	 1.2806372325	 0.0948254708	 0.240847
