15
gdb 67078	2.74223	1.58169	1.34767	4.2091	71.12	-0.2529	-0.006	0.247	975.7887	0.113231	-416.742694	-416.735348	-416.734404	-416.774351	28.843	
N	-0.2067427304	 1.4882046703	 0.143280405	-0.620378
C	-0.0372717994	 0.1162639667	-0.0048860502	 0.224622
C	-1.044987102	-1.0215572321	-0.0478471187	-0.154312
C	-0.43823046	-1.6376186448	-1.3025429832	-0.264516
C	 0.8806142139	-0.9395955327	-0.875334617	 0.248771
O	 1.2517722782	-1.6116964482	 0.3524925179	-0.312278
C	 0.1233726773	-0.9997731689	 0.9685190794	 0.064392
C	 1.9596925175	-0.6578578718	-1.7786229514	 0.175911
N	 2.7961051112	-0.3651139297	-2.5223782651	-0.337655
H	 0.6444679333	 1.9748375932	 0.4005229127	 0.253933
H	-0.6249747404	 1.9368390416	-0.6635729011	 0.248099
H	-2.0808236229	-0.9917913423	 0.2624888524	 0.108191
H	-0.3762685317	-2.7260575212	-1.3842123999	 0.119361
H	-0.8517602223	-1.2000879324	-2.2135097459	 0.121776
H	 0.0185905976	-1.0500813779	 2.0430884552	 0.124084
