21
gdb 89358	2.42343	1.5363	1.32947	2.8537	82.19	-0.2276	0.0001	0.2277	1105.11	0.1827	-387.111539	-387.102832	-387.101888	-387.144425	33.916	
C	-0.0905937537	 1.534274839	 0.030280822	-0.416002
C	 0.0519490782	 0.0136814112	 0.0464230995	 0.029889
C	 1.0001644609	-0.5639705313	-1.0704223596	-0.273708
C	 2.0373901663	-1.3277084648	-0.2122030124	 0.211974
C	 3.1866214554	-2.0277362011	-0.8909921528	-0.498312
C	 1.0935702623	-2.0118364806	 0.8449422969	-0.290902
C	 0.7711828848	-0.5500195291	 1.2979582625	-0.144703
C	 2.2427611583	-0.303991653	 0.9247348582	 0.41293
O	 3.1817870998	 0.2648167888	 1.400533679	-0.337776
H	 0.8846507623	 2.0266396004	 0.114828764	 0.130165
H	-0.5569716197	 1.8734223931	-0.9007564721	 0.116141
H	-0.7123287696	 1.8831928602	 0.8617157727	 0.116371
H	-0.9419330005	-0.44006482	-0.0318759619	 0.074653
H	 0.4784242606	-1.2353149463	-1.759512445	 0.100152
H	 1.4669926025	 0.2286031823	-1.6644802015	 0.105283
H	 3.7777461781	-1.3183289192	-1.4799219055	 0.128457
H	 3.8569675704	-2.4889758292	-0.1590050141	 0.12512
H	 2.8323811156	-2.8111206642	-1.5700818049	 0.116875
H	 0.2556279617	-2.5867884316	 0.4415616837	 0.102347
H	 1.6368582691	-2.592062144	 1.5935920862	 0.112497
H	 0.3657225174	-0.3088890908	 2.2787868249	 0.078549
