15
gdb 15129	9.43174	0.72561	0.69539	3.9549	73.82	-0.2533	-0.0605	0.1928	1546.7642	0.116979	-362.598663	-362.590239	-362.589295	-362.633153	28.309	
O	-0.085634907	 0.0326840414	 0.1456667607	-0.229813
C	 0.0344866884	 1.2360968466	 0.1785897499	 0.020996
C	 1.2756275741	 1.9392946395	-0.0133274067	 0.035268
C	 2.2967956328	 2.5637950556	-0.173148091	 0.126446
C	 3.5449326558	 3.2930112266	-0.357621471	-0.323176
N	 3.3543747328	 4.7398138793	-0.2685761957	-0.05749
C	 3.4178296365	 5.308697277	 1.0749197438	-0.212409
C	 4.5393402099	 5.5030341689	 0.1152943426	-0.220315
H	-0.8343149888	 1.8997528995	 0.3655389275	 0.100818
H	 4.2823771663	 2.9139885426	 0.3753969818	 0.123537
H	 3.9499868244	 3.0611570388	-1.3512103912	 0.151254
H	 2.7157315555	 6.1116273537	 1.2767280783	 0.126232
H	 3.58846496	 4.6309398265	 1.9097058874	 0.117784
H	 5.4608618062	 4.9563536514	 0.3099562854	 0.114324
H	 4.6725119931	 6.4496050025	-0.399463652	 0.126543
