14
gdb 45975	3.04638	1.63896	1.17958	1.8434	62.62	-0.2688	-0.0355	0.2333	977.7673	0.101855	-473.846013	-473.838857	-473.837913	-473.878035	26.476	
O	-0.0860398711	 0.0533068543	 0.655484149	-0.305297
C	-0.0564049249	 1.150164478	 0.1616039343	 0.362751
C	-1.2844696814	 1.9266094463	-0.2937241102	-0.177315
O	-1.3393400746	 3.2059719753	 0.3732356357	-0.232238
C	-0.2303509064	 3.9891561613	 0.4087769989	 0.434154
O	-0.3068040497	 5.1383326925	 0.7373265194	-0.315147
C	 1.0636037546	 3.323530199	 0.0238417818	-0.189795
C	 1.8285079938	 2.5107497434	 1.0341669848	-0.23685
N	 1.1226107925	 1.873235173	-0.0647522647	-0.093139
H	-1.2766566155	 2.0745700342	-1.3802613129	 0.142813
H	-2.1886314774	 1.3937086757	-0.0042472893	 0.161438
H	 1.6306041905	 3.8731747939	-0.7223462682	 0.143455
H	 2.912109356	 2.4925821068	 0.9786313614	 0.148848
H	 1.4096004035	 2.3993389463	 2.0302698698	 0.15632
