23
gdb 118187	2.38488	0.87625	0.72064	1.8655	83.4	-0.2645	0.0199	0.2844	1704.7269	0.202467	-425.485463	-425.474047	-425.473103	-425.523339	39.767	
C	-0.0193058912	 1.5425841447	 0.0975581926	-0.380841
C	-0.02011401	 0.0135764602	 0.0225672425	-0.171983
C	 0.7235336531	-0.5214596548	-1.2055505095	-0.174711
C	 0.7390220567	-2.0439555711	-1.3095648536	 0.13242
C	 1.4094379096	-2.558627872	-2.5788317409	-0.411949
O	 1.4674921257	-2.5290405343	-0.1481886104	-0.254769
C	 1.1697738302	-3.7674412266	 0.2960010049	 0.432844
C	 2.0023133523	-4.1079552504	 1.5103097524	-0.478009
O	 0.3491061884	-4.4916757719	-0.2104178405	-0.357351
H	 1.002340043	 1.9359101119	 0.1448501551	 0.114576
H	-0.501631878	 1.9846281511	-0.7816184718	 0.112985
H	-0.5537661414	 1.8986150484	 0.9836847622	 0.112645
H	 0.4395530386	-0.4023057543	 0.9258185813	 0.106267
H	-1.0548678032	-0.353498804	 0.0065214381	 0.096036
H	 0.2584556488	-0.1289507537	-2.1190144107	 0.096749
H	 1.7594985015	-0.157380684	-1.2028497801	 0.100277
H	-0.2781377479	-2.443205452	-1.2462122717	 0.105555
H	 1.3925253806	-3.6503814184	-2.6028305879	 0.140192
H	 0.8782040303	-2.1889880493	-3.461444711	 0.118136
H	 2.4479599201	-2.2167957354	-2.6337372661	 0.118999
H	 1.801575523	-3.3940239345	 2.3143254678	 0.147909
H	 1.7640454844	-5.1176243913	 1.8425051059	 0.146442
H	 3.0663928153	-4.0337589283	 1.2691633715	 0.14758
