17
gdb 124799	2.53109	1.45454	0.99831	5.1757	70.68	-0.2184	0.0165	0.2348	1166.9272	0.135633	-455.156861	-455.147576	-455.146632	-455.191312	33.708	
C	 0.071027061	 1.4591016714	-0.2454019509	-0.393525
C	 0.011051896	 0.0087077033	 0.2514379033	 0.058934
O	 0.4370835468	-0.0605049005	 1.6004021736	-0.447682
C	-1.3668588444	-0.5796396847	 0.0914115409	 0.272125
N	-2.063562784	-0.9476523671	 1.1635872844	-0.314213
N	-3.2280169256	-1.4169485753	 0.6938674318	-0.19462
C	-3.3078034614	-1.3666448639	-0.6655428748	-0.149424
C	-2.1104053055	-0.8257434065	-1.0871211973	 0.167401
O	-1.6535077158	-0.5544574471	-2.3417632261	-0.442755
H	 1.0827227617	 1.8502034808	-0.1067707383	 0.119028
H	-0.1891504976	 1.5166018817	-1.3065801012	 0.123416
H	-0.6238660825	 2.0820488354	 0.3258977114	 0.113996
H	 0.7072770067	-0.5869958037	-0.3602315799	 0.084705
H	-0.3113941537	-0.3869560072	 2.1159872968	 0.293336
H	-3.9167629325	-1.7623021997	 1.3387538562	 0.277326
H	-4.1769847896	-1.7078131831	-1.2049357265	 0.131025
H	-2.3228057896	-0.7992408338	-2.9876039534	 0.300926
