14
gdb 48350	4.48117	0.75252	0.67573	1.6984	87.83	-0.2478	-0.052	0.1957	1579.1393	0.098495	-399.473155	-399.464356	-399.463411	-399.507159	31.58	
O	-0.2201337239	 0.3688857373	 0.7986625829	-0.263353
C	 0.1089522131	 1.0696817532	-0.126519889	 0.089405
C	 1.3562464748	 1.9121793176	-0.0933386945	-0.08501
C	 1.5185053157	 2.7238756325	 1.1801787023	-0.244648
N	 2.3405147569	 1.5555471996	 0.9591516235	-0.320935
C	 1.8422717884	 2.3951590487	-1.3501818058	 0.303895
C	 2.1951446045	 2.7919714703	-2.438317173	-0.038948
C	 2.6034075249	 3.2437817584	-3.6537732918	 0.276683
C	 2.9632399452	 3.6443490329	-4.7346212577	-0.568155
H	-0.4827687761	 1.1361979811	-1.0598227139	 0.107632
H	 2.0267961797	 3.6794134749	 1.0975812223	 0.145777
H	 0.6984828141	 2.671395251	 1.8913207811	 0.143461
H	 1.9335718017	 0.7659613963	 1.46490516	 0.257418
H	 3.283060791	 3.9968867261	-5.6838692463	 0.196777
