22
gdb 121292	4.3062	0.8331	0.73114	2.2943	83.84	-0.2441	0.0291	0.2732	1611.8904	0.195419	-404.377034	-404.367768	-404.366824	-404.411636	34.304	
C	 0.0215410229	 1.5665185518	-0.0510271218	-0.381843
C	 0.008104985	 0.0371401714	 0.0087988198	-0.172757
C	-1.4103776639	-0.5440483797	 0.0126210453	-0.186492
C	-1.4562094375	-2.0659759513	 0.0627658789	 0.137535
C	-2.8641232642	-2.6513835512	 0.1333684766	-0.242439
C	-2.7819073524	-4.1785963469	 0.0417146945	-0.163069
N	-1.9038340681	-4.6432053471	-1.0293547224	-0.267329
C	-1.0576393731	-3.828082129	-1.4946005645	 0.131542
O	-0.7855390135	-2.5536893786	-1.1219518166	-0.242165
H	 1.044462837	 1.9552896457	-0.0506449668	 0.113731
H	-0.4722788171	 1.9317887372	-0.9583826771	 0.115738
H	-0.5010169385	 2.004286294	 0.8072001754	 0.11192
H	 0.5585632384	-0.3747038938	-0.8434192385	 0.117197
H	 0.5378615211	-0.3005695506	 0.9095880644	 0.092677
H	-1.9659761261	-0.1628184156	 0.8796946919	 0.095593
H	-1.9539808421	-0.2096372852	-0.880589171	 0.1029
H	-0.8739016522	-2.4220588742	 0.9262563938	 0.083516
H	-3.3536374896	-2.3342720419	 1.0601929491	 0.102162
H	-3.455193399	-2.2577703481	-0.702444427	 0.110579
H	-2.4266504448	-4.6021433898	 0.9910559215	 0.110147
H	-3.7755735183	-4.608020394	-0.1270245186	 0.11088
H	-0.4120699739	-4.111096133	-2.324764487	 0.119978
