21
gdb 96049	2.99504	0.98731	0.81949	1.4944	79.15	-0.2486	-0.0247	0.2238	1426.715	0.181616	-424.245439	-424.23592	-424.234976	-424.281063	34.227	
C	 0.2252610732	 1.5459808315	-0.3441192444	-0.391915
C	-0.0033167914	 0.0899147207	 0.0566534024	 0.129532
O	 0.2536875129	-0.7457117416	-1.0792209366	-0.2752
C	 1.3138657801	-1.659444584	-0.8102761064	-0.070401
C	 2.0621830134	-1.0913567465	 0.3946622827	-0.238194
C	 0.907865727	-0.456082434	 1.1885464566	-0.021341
C	 1.3276093246	 0.5562965112	 2.2625494583	-0.30924
C	 2.0597517681	-0.1154397856	 3.4034874764	 0.164894
O	 3.1511687353	 0.1946428673	 3.80443021	-0.239692
H	 1.2773240008	 1.7391759654	-0.5764105148	 0.117074
H	-0.3611194087	 1.7653001432	-1.2403542092	 0.127823
H	-0.0906483922	 2.2342028348	 0.4464613612	 0.11075
H	-1.0585298647	-0.0349367522	 0.3372780295	 0.075368
H	 0.9068873294	-2.6570362585	-0.5816285857	 0.091233
H	 1.9316910305	-1.7464369481	-1.7098069331	 0.107358
H	 2.6078107073	-1.8531645855	 0.9575909178	 0.10947
H	 2.7807453305	-0.3251156189	 0.0824604278	 0.113645
H	 0.3567266733	-1.2671154645	 1.6842063005	 0.08285
H	 1.9654182663	 1.3463100875	 1.8582309042	 0.125032
H	 0.4288742498	 1.0259363035	 2.6895866125	 0.120555
H	 1.4967027945	-0.9586463657	 3.8714197704	 0.070398
