20
gdb 105012	2.00956	1.38883	1.24496	3.0073	78.91	-0.2647	0.0304	0.2951	1175.9141	0.168746	-403.141479	-403.131431	-403.130487	-403.176571	36.337	
C	 0.470628769	 0.3565050189	 0.9804898031	-0.261851
O	-0.0324841066	-0.5496735004	 0.0052979567	-0.293014
C	 0.7454958579	-0.7133568879	-1.1408299754	 0.436317
C	 2.0542523128	-1.4483484535	-1.0146653357	-0.323852
C	 0.8434472628	-2.133723667	-1.6169076239	-0.318754
C	 0.5956098743	 0.3799922841	-2.2092919783	-0.198329
C	-0.8839355522	 0.6709969262	-2.5252243007	-0.39326
C	 1.3109258267	 1.6132344835	-1.8501031699	 0.273687
N	 1.8766952019	 2.5855356726	-1.5828432406	-0.334006
H	 1.5119000305	 0.1288013023	 1.2413882609	 0.11605
H	 0.415827939	 1.3984504009	 0.6466847719	 0.137817
H	-0.1567122694	 0.2318211282	 1.8659891378	 0.127541
H	 2.8754464797	-1.1677137993	-1.6653657277	 0.123903
H	 2.3530117372	-1.7560167272	-0.0194027039	 0.127039
H	 0.3377562634	-2.8738015211	-1.0084688355	 0.130962
H	 0.8317681718	-2.3313341178	-2.6834266918	 0.114635
H	 1.0835103038	 0.0065491166	-3.1177959223	 0.125175
H	-1.3671836746	-0.2459036404	-2.8726125456	 0.130049
H	-1.4059119723	 1.0126213491	-1.6297853922	 0.14837
H	-0.9746872757	 1.4344522423	-3.3011549769	 0.131518
