19
gdb 124627	4.32712	0.90594	0.82857	5.8615	78.77	-0.2092	0.0187	0.2279	1427.4604	0.15996	-415.385864	-415.376778	-415.375834	-415.420085	33.633	
C	-0.008883702	 1.5113008299	 0.0728527986	-0.389759
C	 0.0354068644	-0.0192971584	-0.0431724447	 0.055728
C	 0.7923148898	-0.4759578216	-1.2910220584	-0.398574
N	 0.6350541556	-0.6688555727	 1.1302195248	-0.407224
C	-0.0521548738	-0.6642124259	 2.3269522573	 0.420913
C	-1.3678788997	-0.4049966257	 2.6694521018	-0.144421
N	-1.5248344758	-0.6372723512	 4.0050883156	-0.183206
N	-0.4031580516	-1.0177724904	 4.5233835341	-0.128906
N	 0.5077326889	-1.0387062503	 3.5046416127	-0.276494
H	 1.0058605295	 1.926021772	 0.0931845681	 0.110757
H	-0.5330078011	 1.9500205143	-0.7820872961	 0.120946
H	-0.5230641583	 1.8222890792	 0.9859442388	 0.136222
H	-0.9908317855	-0.4004130495	-0.1037784364	 0.10564
H	 1.8371847664	-0.1430198785	-1.2560032397	 0.112512
H	 0.7836689278	-1.5654568545	-1.3762045157	 0.129606
H	 0.342379249	-0.048886759	-2.1914150946	 0.124964
H	 1.6244452519	-0.4745762027	 1.2204069955	 0.230731
H	-2.1849841266	-0.0744387305	 2.0514274302	 0.111345
H	 1.4484650011	-1.3463431145	 3.688720768	 0.269219
