17
gdb 91994	2.81135	1.52261	1.26022	6.1898	71.78	-0.2681	0.0379	0.306	1021.625	0.138559	-418.007904	-418.000425	-417.999481	-418.039804	29.414	
O	-0.1174279929	 1.1247990293	 1.2741008054	-0.418234
C	-0.0349444783	 0.1678793124	 0.2510235562	 0.098411
C	 0.9590368123	-0.9785361365	 0.5806874912	-0.243871
C	 0.1159696875	-2.0107416905	 1.3048813292	-0.035292
N	-0.7883042977	-1.3972221153	 2.3065658373	-0.345538
C	-1.3122781173	-1.7783349466	 0.979978487	-0.038989
C	-1.3966110278	-0.5907609445	 0.0237582	-0.191396
C	-2.5777553127	 0.2456319101	 0.2101444768	 0.290469
N	-3.5379050151	 0.8739015229	 0.3455551341	-0.327642
H	-0.3758849708	 0.6365438363	 2.0721447808	 0.296157
H	 0.2515518551	 0.7097196792	-0.6527885127	 0.099868
H	 1.3699605591	-1.4200565203	-0.3348532981	 0.107502
H	 1.7886180258	-0.5906798764	 1.1772123886	 0.124153
H	 0.4982874407	-3.0085861379	 1.4912884986	 0.100595
H	-1.070891511	-2.0799736315	 3.0033665649	 0.246445
H	-2.0397111204	-2.5787711427	 0.907678554	 0.110513
H	-1.4188742065	-0.983664598	-1.0009384832	 0.12685
