18
gdb 38041	3.6048	1.53413	1.23395	2.5813	76.55	-0.2294	0.0027	0.2321	1013.76	0.151145	-401.919344	-401.912545	-401.911601	-401.95053	27.478	
C	 0.0107376631	 1.5683851914	 0.0084860805	-0.098572
O	 1.4224897886	 1.8225234784	-0.0702532139	-0.274437
C	 2.1452237911	 0.7570224033	 0.5671826177	-0.162452
C	 1.1182203563	-0.3113425508	 0.7924478146	 0.280438
C	 0.8714167351	-1.2506052808	 1.7052655125	-0.217211
C	-0.5795772169	-1.6185000299	 1.6640668068	-0.070688
N	-1.4267746723	-0.45125526	 2.0573526878	-0.332473
C	-1.2131414206	-0.7486349924	 0.6260221266	-0.090475
C	-0.0995534519	 0.039952149	-0.0434544799	-0.063573
H	-0.411925588	 1.9466919499	 0.949338858	 0.112773
H	-0.4530673963	 2.0889456731	-0.8332619178	 0.103558
H	 2.9578680155	 0.4500132237	-0.1048782718	 0.111363
H	 2.5970404987	 1.1036981313	 1.5068521948	 0.111469
H	 1.5529458925	-1.6031458201	 2.4702505744	 0.099818
H	-0.9361624502	-2.6166925469	 1.8951451762	 0.090145
H	-2.3529197071	-0.791755881	 2.3114256457	 0.228452
H	-2.05452879	-1.0965318307	 0.0371180459	 0.087162
H	 0.0235893125	-0.2924279674	-1.0833790881	 0.084702
