17
gdb 74154	2.71928	1.53858	1.07311	5.3923	77.64	-0.252	-0.0365	0.2155	1115.7737	0.135534	-421.873486	-421.865457	-421.864513	-421.905996	30.663	
C	-0.0323073047	 1.5044057868	 0.0422081145	-0.506987
C	-0.0088129487	 0.0143105297	-0.019807834	 0.286209
C	-0.0207515444	-0.7850665581	-1.0965233888	-0.399536
C	 0.0132447519	-2.1930152395	-0.6632604347	 0.414726
O	 0.0154842602	-3.2111698155	-1.2960109116	-0.351593
O	 0.0458713177	-2.1897683516	 0.7210278239	-0.268263
C	 0.0341118946	-0.8572812489	 1.1763033067	 0.366183
C	 0.8128981805	-0.5617711717	 2.4355438987	-0.320542
C	-0.6940316283	-0.5872504986	 2.4710679053	-0.320553
H	 0.8551175225	 1.8934643927	 0.5551102915	 0.144225
H	-0.0645040121	 1.9391267777	-0.958802925	 0.144416
H	-0.9055927575	 1.8639812292	 0.5989933422	 0.144176
H	-0.0501439289	-0.5016470518	-2.1382425088	 0.126835
H	 1.3433373727	-1.4031521682	 2.8652685192	 0.145582
H	 1.3222430195	 0.3925261553	 2.5105235198	 0.124767
H	-1.2312485887	 0.3493376606	 2.5707501997	 0.124771
H	-1.1748968864	-1.4457512779	 2.9246052913	 0.145584
