21
gdb 102562	2.30568	1.08093	0.91571	3.6803	75.1	-0.2511	0.0683	0.3194	1382.2162	0.181022	-461.332708	-461.322602	-461.321657	-461.367895	37.044	
C	-1.7426298855	 0.2733826475	 2.0205043018	-0.435383
C	-0.864224936	-0.7027175599	 1.2825738205	 0.070264
O	-0.05165887	-0.1722562574	 0.2202512353	-0.274871
C	 0.6066471327	-0.7163815285	 1.3861357083	 0.042696
C	 1.4217135058	 0.2190210454	 2.2759599841	-0.043258
C	 2.5652833071	-0.5729521541	 2.9151450156	-0.100354
O	 3.1837183706	 0.2530820684	 3.8863235667	-0.419858
C	 1.9565982079	 1.4450535414	 1.5089489181	-0.061268
O	 0.9245479121	 2.3057369585	 1.0694985845	-0.430953
H	-1.2246826176	 1.2216926623	 2.1788402591	 0.151819
H	-2.6533131857	 0.4703159037	 1.4455982363	 0.129133
H	-2.0424904867	-0.138695714	 2.990343062	 0.123575
H	-1.344442086	-1.6452039231	 1.013962535	 0.093335
H	 1.0978337345	-1.6657424829	 1.1604816213	 0.088556
H	 0.7961664495	 0.5982161889	 3.091696682	 0.099678
H	 2.1667265977	-1.4942688657	 3.3708294883	 0.088884
H	 3.2809005088	-0.880065648	 2.133515923	 0.090956
H	 3.9410735379	-0.2161703638	 4.2475468955	 0.290099
H	 2.5947971373	 2.0240864512	 2.1804240741	 0.124756
H	 2.5820843397	 1.1028713136	 0.6672552914	 0.081259
H	 0.3952390459	 1.7801844667	 0.4544511672	 0.290937
