14
gdb 132089	3.00941	1.45671	0.98759	3.2292	71.05	-0.2285	-0.0738	0.1547	1101.6776	0.099949	-477.995206	-477.987373	-477.986429	-478.028151	28.539	
C	 0.0836478686	 1.4925346173	 0.0344335061	-0.489041
C	-0.0287518994	 0.0098590233	-0.0020943959	 0.274684
C	-1.1640423631	-0.7074881034	-0.1384454019	 0.113283
F	-2.3612902822	-0.1205033652	-0.2603271104	-0.073571
C	-1.0745990325	-2.1313515382	-0.1518511555	-0.052587
N	 0.043686988	-2.770029895	-0.0394728443	-0.303655
C	 1.2196854009	-2.0398497201	 0.1015999303	 0.42876
N	 2.3871576565	-2.5102808403	 0.2221847067	-0.522479
O	 1.1446673476	-0.6373824704	 0.116188858	-0.231983
H	 0.7327840468	 1.8401173016	-0.7760268138	 0.162416
H	-0.8998824834	 1.9514868115	-0.0659649614	 0.15445
H	 0.5404501478	 1.8115003356	 0.9771024397	 0.162417
H	-1.9920892951	-2.7097667645	-0.2620450143	 0.139957
H	 2.3243247596	-3.5263737523	 0.1987293266	 0.23735
