15
gdb 46450	3.65662	1.21678	1.1171	1.9958	73.38	-0.2408	-0.0327	0.2081	1094.8764	0.110869	-420.590763	-420.582914	-420.58197	-420.623287	29.864	
O	-0.0201918431	 0.0381661323	 0.1802467212	-0.313146
C	-0.0061576253	 1.2308471202	 0.020648501	 0.391398
C	-1.2399374699	 2.1123953566	-0.2231423349	-0.206787
O	-0.7835803372	 3.3905398195	-0.6418852314	-0.299143
C	 0.6251468412	 3.4716597931	-0.5160949816	 0.246526
C	 1.1607287454	 3.3429489617	 0.8784110781	-0.339319
C	 1.1819218357	 2.1308616469	-0.0514719332	-0.240616
C	 1.2614985006	 4.2894492119	-1.503099529	 0.254512
C	 1.803383962	 4.9817543829	-2.3221942868	-0.389703
H	-1.8681609197	 1.6685820065	-1.0028523694	 0.146916
H	-1.8390104543	 2.1871616432	 0.6948161976	 0.134845
H	 2.1271170351	 3.7832059346	 1.0919433116	 0.144862
H	 0.447302826	 3.3676997583	 1.6950873427	 0.136248
H	 2.1297428073	 1.7290185232	-0.3827849728	 0.132461
H	 2.2780425263	 5.5911879692	-3.0511947631	 0.200945
