19
gdb 35908	2.71559	1.48742	1.18254	5.0184	78.42	-0.2579	0.0384	0.2963	1091.0266	0.162785	-382.079422	-382.071655	-382.070711	-382.111842	30.326	
N	-0.1587361988	-1.1223608948	-0.4769164026	-0.335356
C	-0.0751438315	 0.0058274025	-0.2403509388	 0.291499
C	 0.0015954944	 1.4440838499	 0.042942899	-0.157263
C	-0.751539276	 1.808059337	 1.3523015031	-0.213628
C	 0.1165184599	 1.638668364	 2.602995965	-0.207928
C	 1.3108993856	 2.6022689912	 2.5641427103	-0.202694
C	 2.0937815069	 2.4801040809	 1.2726914618	-0.015729
N	 2.4030582657	 1.1127928128	 0.8404921235	-0.315717
C	 1.4642162482	 1.9126822759	 0.0450122328	-0.04376
H	-0.5090242224	 1.9466068941	-0.7871799513	 0.121769
H	-1.0630363087	 2.8567140337	 1.2715302593	 0.101363
H	-1.6634472915	 1.2087401999	 1.4203402085	 0.118758
H	-0.4853361344	 1.8334976809	 3.4960989757	 0.098608
H	 0.4748443015	 0.6067849179	 2.6714679532	 0.136617
H	 0.9528892162	 3.6364294366	 2.657821743	 0.097189
H	 1.9802579068	 2.4204288767	 3.413040876	 0.105822
H	 2.8556508405	 3.2418140651	 1.1143879221	 0.085646
H	 3.307414448	 1.0572737113	 0.3824960476	 0.238244
H	 1.8146798896	 2.2831545043	-0.9149037381	 0.096561
