20
gdb 12418	2.80686	2.10261	1.47819	0.2107	70.86	-0.2311	0.0867	0.3178	933.1729	0.17778	-386.146049	-386.138024	-386.13708	-386.177848	31.112	
C	-0.0688362746	 1.5136337373	-0.0951224062	-0.416503
C	 0.0594551421	 0.0013804434	-0.0042067649	 0.129412
O	 0.7041116802	-0.4502386416	-1.1940355809	-0.264997
C	 0.7467337158	-1.8672651282	-1.2470620314	-0.079566
C	 1.4825893397	-2.4218565428	-0.0335152656	-0.082543
O	 0.9044264266	-1.9378900994	 1.1690752188	-0.272052
C	 0.8257151165	-0.5083062729	 1.2309788861	 0.117527
C	 2.2036022452	 0.1322246172	 1.4244479292	-0.412852
H	 0.9110531553	 1.9838993201	-0.2105607899	 0.129162
H	-0.6783631571	 1.7845249864	-0.9611369325	 0.125771
H	-0.5463965095	 1.915551231	 0.804018368	 0.115446
H	-0.9466631587	-0.4502740359	 0.0404925756	 0.067317
H	-0.2776304727	-2.2743361358	-1.2776524142	 0.091273
H	 1.2587863575	-2.1382507072	-2.1758424227	 0.10392
H	 1.4042743482	-3.5132006672	 0.0043959032	 0.105675
H	 2.5492232952	-2.1584556585	-0.0943406683	 0.094394
H	 0.2132857393	-0.3146648462	 2.119309512	 0.080489
H	 2.786636601	 0.1258928634	 0.4999867135	 0.128601
H	 2.1039685066	 1.1713128348	 1.7509006183	 0.117496
H	 2.7551087836	-0.4146236478	 2.1939633018	 0.122029
