19
gdb 76053	2.5432	1.34557	1.1293	3.3018	81.22	-0.2469	0.0125	0.2594	1167.4846	0.158906	-382.045198	-382.03629	-382.035346	-382.078918	32.965	
C	-0.1710063475	 1.4790300733	-0.2605424807	-0.332014
N	 0.028707438	 0.0443433718	-0.0732369941	-0.147727
C	 1.3955541301	-0.5013933269	-0.176239519	-0.254563
C	 2.525647569	 0.3678248838	-0.3862816749	 0.304835
N	 3.431932317	 1.0680425273	-0.5545064942	-0.350665
C	 0.6587141233	-0.4187335412	 1.1337224539	 0.374246
C	 1.1224762215	 0.3630743505	 2.3737966614	-0.308133
C	 0.9827149195	-0.9615685834	 3.1833553904	-0.212142
C	 0.1994221961	-1.5977807801	 1.9961257145	-0.302475
H	 0.6290212445	 2.1042018089	 0.158132722	 0.132804
H	-0.2490742754	 1.6888529499	-1.3306657474	 0.138089
H	-1.117563098	 1.755618604	 0.2126461217	 0.130539
H	 1.4653939945	-1.4529440889	-0.6973993701	 0.132222
H	 2.109448895	 0.8281818757	 2.3324227096	 0.130868
H	 0.3914040262	 1.1193225367	 2.6759569219	 0.113222
H	 1.947514772	-1.4443865167	 3.3520319089	 0.115759
H	 0.4537393283	-0.8951376533	 4.1351066096	 0.108445
H	-0.8844711403	-1.5835629745	 2.1432164658	 0.116618
H	 0.4964217963	-2.5980358567	 1.6729469304	 0.110074
