20
gdb 86028	3.16768	0.96238	0.8799	3.6059	78.79	-0.2692	0.0278	0.297	1373.2974	0.169699	-403.15778	-403.14828	-403.147335	-403.192111	35.706	
C	-0.5220262245	 1.7724723207	 0.1339076937	-0.462766
C	-0.0227303811	 0.3333156347	 0.0664109886	 0.320942
C	-1.1897889408	-0.6430549974	-0.2141892911	-0.390834
C	-1.8260498598	-0.4134040214	-1.5111305814	 0.272035
N	-2.3112680676	-0.218996723	-2.5420104969	-0.316194
C	 1.2075294591	 0.0547713082	-0.8550908524	-0.309629
C	 1.812397801	-0.8300813924	 0.2673734675	 0.178118
O	 3.192212945	-0.7995265042	 0.5178970184	-0.431498
C	 0.8295325073	-0.1720182479	 1.274069615	-0.32023
H	 0.3053304722	 2.4597419313	 0.3348609084	 0.112891
H	-0.9911745486	 2.0767931761	-0.8077086358	 0.143917
H	-1.2618065265	 1.8975419601	 0.9335635582	 0.117432
H	-0.8416987463	-1.6815198902	-0.186800662	 0.151479
H	-1.9512446002	-0.5464360535	 0.569228104	 0.149079
H	 1.0267462852	-0.3960227195	-1.8339763099	 0.119626
H	 1.800614259	 0.9647064236	-0.9976128314	 0.096148
H	 1.5759394798	-1.8867038186	 0.1130459096	 0.095084
H	 3.4566479111	 0.119270846	 0.6347765465	 0.277192
H	 1.3061633568	 0.66724378	 1.7920061974	 0.095529
H	 0.345372529	-0.8096406824	 2.0192544436	 0.101679
