16
gdb 13786	3.65374	1.22669	1.20034	1.3557	61.59	-0.2543	-0.0312	0.223	1065.1649	0.127506	-420.863385	-420.854539	-420.853595	-420.897782	30.557	
C	 0.6204967395	-0.2088708812	-0.4499633538	-0.475149
C	-0.3107908533	 0.8498164831	 0.0970352644	 0.33703
O	 0.0027287297	 2.010913506	 0.223201968	-0.294165
C	-1.731717055	 0.441307504	 0.4245018579	-0.04977
O	-2.088255508	-0.9410294712	 0.3792408005	-0.25584
C	-2.1189247147	-0.2811877651	 1.6531293777	 0.047078
C	-1.1533885186	-0.7812653528	 2.6984475139	-0.092899
O	-1.5918821466	-2.0121565829	 3.2438932483	-0.413242
H	 1.6337254217	 0.1895642061	-0.5101515303	 0.143697
H	 0.5936708042	-1.1249372207	 0.143720341	 0.144518
H	 0.2783330112	-0.4883423475	-1.4543694438	 0.153581
H	-2.4694149685	 1.1287850657	 0.0092341974	 0.123425
H	-3.1290945467	-0.1095048496	 2.0278939651	 0.112647
H	-0.1382847345	-0.8572909979	 2.2852332058	 0.097309
H	-1.1191638946	-0.0696556868	 3.5301965491	 0.127778
H	-1.6623717457	-2.6382779193	 2.5145488389	 0.294001
