17
gdb 83475	3.16071	1.03918	0.94495	2.1626	68.75	-0.2442	-0.0305	0.2137	1259.6618	0.133866	-458.913331	-458.904696	-458.903752	-458.9477	31.301	
O	-0.1112851523	 1.489019552	 0.1531614657	-0.433993
C	-0.0894022135	 0.104015253	 0.0470098182	 0.074746
C	-0.4444163374	-0.7707126301	 1.2008611992	-0.03631
O	-1.4172225212	-0.0885778095	 2.0022589643	-0.302989
C	-2.3795786853	-0.1376131591	 0.9063801053	-0.142434
C	-1.3483945119	-0.7571454921	-0.0341925245	 0.211993
C	-1.6367156807	-1.7725194003	-1.1066611552	-0.402066
C	-2.296282655	-1.1299562462	-2.3165385746	 0.163395
O	-3.3245659931	-1.5080250697	-2.8133128773	-0.234277
H	-0.4223239984	 1.6845005069	 1.0481208537	 0.299146
H	 0.7244010376	-0.2502862521	-0.5811036004	 0.108566
H	 0.164723969	-1.5293781931	 1.6804788285	 0.111318
H	-3.2041547977	-0.8116146004	 1.1605500349	 0.123416
H	-2.7669415329	 0.8538278582	 0.6483390334	 0.120505
H	-0.6910331425	-2.2175992201	-1.4472670209	 0.125511
H	-2.2802142053	-2.5834118364	-0.7496954877	 0.124943
H	-1.7472036893	-0.2490491411	-2.7203111827	 0.08853
