21
gdb 86177	2.31702	1.37492	1.19809	1.3925	73.89	-0.249	0.0714	0.3205	1160.8081	0.18054	-461.37125	-461.361236	-461.360292	-461.406121	38.099	
C	-0.3951554847	 1.5147310484	 0.0176587429	-0.453936
C	 0.0547516854	 0.0593102043	 0.0314739829	 0.376122
O	-1.0769006039	-0.8212234831	 0.1082248286	-0.489805
C	 0.9622914502	-0.3479102729	-1.1396521158	-0.252515
C	 1.5847077676	-1.689168198	-0.716463209	 0.140975
O	 2.9110721991	-1.748403171	-1.2280225657	-0.4375
C	 1.5020900771	-1.7010106684	 0.8418904688	-0.278333
C	 0.910776238	-0.3392564746	 1.2528907239	 0.116362
O	 1.9070272473	 0.665402756	 1.4032850519	-0.444813
H	 0.4611408485	 2.1891628642	 0.0751393728	 0.139781
H	-0.9482239082	 1.7363674245	-0.9032340878	 0.097676
H	-1.0566185927	 1.7126158368	 0.8664408285	 0.118139
H	-1.6134730784	-0.6717516385	-0.6770323626	 0.275584
H	 0.4210795092	-0.4041129664	-2.0894064112	 0.080528
H	 1.7715426287	 0.3792478864	-1.2498993419	 0.12625
H	 0.9955185132	-2.5242772371	-1.1166928776	 0.06685
H	 3.2503839537	-2.6345503245	-1.0691275784	 0.27831
H	 0.855017441	-2.5093027058	 1.1914257798	 0.109373
H	 2.4967425669	-1.8517593572	 1.2755187173	 0.081284
H	 0.284595455	-0.4074719019	 2.1529653976	 0.065266
H	 2.574931067	 0.3338863287	 2.0101109949	 0.284402
