21
gdb 71246	2.20994	2.01683	1.62016	1.2947	81.5	-0.246	0.0717	0.3178	972.5362	0.18369	-387.06728	-387.059455	-387.058511	-387.098758	32.69	
C	-0.0331537187	 1.4981455891	 0.1111675736	-0.522334
C	 0.014271747	-0.0083940135	 0.0421383011	 0.279536
C	 0.9200604964	-0.7644785387	-0.9754690065	-0.285841
C	 0.8326143168	-1.9082093115	 0.0427928077	-0.068368
C	-0.6901195966	-2.1385368552	 0.4492920038	-0.049722
C	-0.3191487768	-1.752680633	 1.9093722595	-0.310326
C	 0.7245739933	-0.8787381756	 1.1985895147	 0.393544
O	 1.8663901868	-0.3579333041	 1.7970503804	-0.488711
C	-1.2950943076	-0.8183416398	-0.0747013643	-0.247026
H	 0.9633697802	 1.9144404405	 0.2986673914	 0.114777
H	-0.396002661	 1.9281974955	-0.8295738816	 0.120626
H	-0.7024854954	 1.8450577403	 0.9080869356	 0.108569
H	 0.5376539926	-0.9036822022	-1.9920904598	 0.082594
H	 1.9330711776	-0.3547893671	-1.0098840364	 0.104669
H	 1.5032466934	-2.7655914283	 0.0768530121	 0.068477
H	-1.2022858587	-3.07257439	 0.2266441562	 0.064384
H	-1.0959746925	-1.2994645094	 2.5354046264	 0.080348
H	 0.1740502794	-2.565659333	 2.4502383668	 0.099592
H	 1.6178957316	 0.4293946126	 2.294271952	 0.280106
H	-2.1032653755	-0.4496075903	 0.5656242119	 0.085903
H	-1.6647772623	-0.8662599165	-1.1039914347	 0.089203
