20
gdb 124443	3.09872	1.16974	1.04523	3.3422	79.71	-0.2537	-0.0077	0.246	1236.5215	0.169934	-403.154275	-403.145188	-403.144244	-403.188098	34.472	
C	-0.0243517454	 1.5410159409	 0.0176094535	-0.401031
C	-0.012480905	-0.0035285829	 0.0113956727	 0.126649
C	 0.7431947504	-0.5136702285	 1.2581798902	-0.401065
C	-1.4612180309	-0.5215356147	 0.0497797183	-0.416649
C	 0.687572192	-0.4951229774	-1.2360046262	 0.175572
C	 0.2252333366	-1.2779276875	-2.2482464188	-0.038711
O	 1.1734220175	-1.4846995438	-3.176716829	-0.1712
N	 2.3303017399	-0.819944468	-2.7897023263	-0.133596
C	 2.0322085971	-0.2452068507	-1.6524963016	-0.056974
H	 0.9913510183	 1.9486382391	-0.001325577	 0.114381
H	-0.5591831752	 1.9334439357	-0.8526535934	 0.119729
H	-0.5179333425	 1.9161236294	 0.9205612871	 0.112827
H	 0.2566963638	-0.1576123865	 2.1726140836	 0.112834
H	 0.7635848826	-1.6074044448	 1.2852354609	 0.119738
H	 1.7785636811	-0.1586849428	 1.2711087087	 0.114379
H	-2.0338398305	-0.169198382	-0.8144886533	 0.116196
H	-1.4933567219	-1.616009573	 0.0589441202	 0.116207
H	-1.967178837	-0.1654916123	 0.9525897727	 0.114452
H	-0.7244707796	-1.749712957	-2.4435581769	 0.147983
H	 2.7929796188	 0.3392241967	-1.1536363556	 0.128281
