18
gdb 14687	14.83109	0.52114	0.5098	0.2338	97.08	-0.2248	0.0022	0.227	2197.445	0.151412	-310.640716	-310.630604	-310.62966	-310.678672	33.8	
C	-0.023501152	 1.5799195454	 0.0185052435	-0.381284
C	-0.0036555834	 0.0503588732	 0.0115602875	-0.155523
C	 0.706532199	-0.518784653	-1.2357903198	-0.37175
C	 0.7398008616	-1.9728057119	-1.267836588	 0.207037
C	 0.7569805605	-3.1838246941	-1.2757523934	-0.114238
C	 0.7770947568	-4.5439916318	-1.2861203314	-0.213971
C	 0.7948557424	-5.7542876463	-1.2951134834	 0.25012
C	 0.8163075276	-7.2059604863	-1.3061554375	-0.518034
H	 0.9921464479	 1.9910583896	 0.0104741268	 0.116751
H	-0.547539513	 1.9750383469	-0.8589392285	 0.11675
H	-0.5303714865	 1.9630321827	 0.9090758128	 0.116117
H	 0.5015489982	-0.3259324638	 0.9077923793	 0.11238
H	-1.0259573492	-0.3418329366	 0.0453418523	 0.112379
H	 0.20628795	-0.1442898811	-2.1398931592	 0.130631
H	 1.733030454	-0.128372913	-1.2778951599	 0.130634
H	 1.3269437218	-7.5888191978	-2.1972214213	 0.15416
H	 1.3389531268	-7.6026509785	-0.4282030238	 0.153921
H	-0.1990383026	-7.6187346735	-1.3026510759	 0.15392
