23
gdb 120744	3.46484	0.78456	0.70731	1.3022	83.72	-0.2417	0.073	0.3146	1705.6873	0.20358	-425.398911	-425.388136	-425.387191	-425.435479	38.9	
C	-0.3296394611	 1.3399697606	-0.0109027824	-0.222518
O	-0.2669981284	-0.0563463845	-0.1546303007	-0.233701
C	 0.8092275495	-0.4702643716	-0.979274575	-0.092214
C	 0.8114590959	-1.9758111263	-1.0240593358	-0.027285
C	-0.06284129	-2.7206381255	-2.004399455	-0.301831
C	 1.4404820413	-2.7643410963	-2.1492664297	-0.019167
C	 2.1672066058	-2.1551557286	-3.3476879711	 0.097565
C	 2.583611412	-3.2397654207	-4.345092927	-0.401944
O	 1.4226006826	-1.1308448354	-4.0028993786	-0.416554
H	 0.5830491955	 1.7478456147	 0.4544147562	 0.098084
H	-0.4705356747	 1.8482288306	-0.9787788731	 0.100608
H	-1.1831547663	 1.5671650185	 0.6332858116	 0.121368
H	 0.7136056424	-0.0496236251	-1.9894242563	 0.111854
H	 1.762474958	-0.1007409078	-0.5600749059	 0.076645
H	 0.9041553889	-2.4244805693	-0.0383804097	 0.087561
H	-0.5873431676	-3.6111382391	-1.6768265338	 0.110252
H	-0.6218243956	-2.107939467	-2.7046780748	 0.105095
H	 1.9070302219	-3.6924759406	-1.8274714401	 0.082963
H	 3.0694289139	-1.6413878719	-2.9922327766	 0.092419
H	 1.7058491073	-3.7937713756	-4.7003366692	 0.111937
H	 3.08120009	-2.7873493922	-5.2070642269	 0.122326
H	 3.2679112405	-3.9606327424	-3.8865869961	 0.117551
H	 0.6722656784	-1.5529938344	-4.4360393402	 0.278984
