21
gdb 117762	2.12391	1.0865	0.96531	0.4288	81.36	-0.2566	0.0329	0.2896	1408.5963	0.177734	-424.178913	-424.167555	-424.166611	-424.215369	40.385	
C	-0.060117777	 1.6342843236	-0.2440248412	-0.410221
C	-0.1309975079	 0.1277448914	-0.4956598845	-0.176315
C	-1.5163817868	-0.4917251234	-0.203625057	 0.148408
O	-2.519907218	 0.089221594	-1.0481188732	-0.465608
C	-1.5378514718	-1.9820835544	-0.5885452022	-0.074437
O	-0.5172031077	-2.6564288317	 0.1030851142	-0.234118
C	-0.4880945656	-4.0366652434	-0.1718303699	-0.222992
C	-1.8836146752	-0.3231842808	 1.2088953717	 0.343971
C	-2.2104826349	-0.1446469125	 2.3521684206	-0.511566
H	 0.9364899256	 2.0175582993	-0.4810466441	 0.115723
H	-0.7773382221	 2.1729532125	-0.8718273606	 0.111766
H	-0.2721484153	 1.8732586901	 0.8027402939	 0.126813
H	 0.0908693999	-0.0846995637	-1.5481507244	 0.098457
H	 0.6119269235	-0.4027789283	 0.1060437148	 0.122549
H	-2.8430011474	 0.8850044227	-0.6147557024	 0.289223
H	-2.528068178	-2.3972454748	-0.3485556625	 0.10016
H	-1.3972674157	-2.0509789514	-1.6797281851	 0.096011
H	-1.4294848078	-4.5291455676	 0.1175939236	 0.107693
H	-0.3107001256	-4.2367510996	-1.2403761928	 0.105416
H	 0.3302724825	-4.4678899896	 0.4094637046	 0.12845
H	-2.4948011248	-0.0023848825	 3.3656736565	 0.200617
