17
gdb 33656	2.87055	1.50448	1.50088	4.8732	77.19	-0.2375	0.0158	0.2533	971.3092	0.139122	-380.836216	-380.829366	-380.828422	-380.867372	27.549	
N	-0.0161737167	-1.1730403919	-0.0254087499	-0.353194
C	-0.0136907084	-0.0152408459	-0.0151758161	 0.112857
C	-0.0216586884	 1.4099998965	 0.0158774093	 0.292538
C	-0.6655723843	 2.3368802182	 1.1321794708	-0.097303
C	 0.7171125508	 3.0048626469	 1.3345902297	-0.240618
C	 1.2257475521	 2.3701550191	 0.0124516988	-0.05113
N	 0.7124260767	 2.9885346936	-1.2245879737	-0.305727
C	-0.6233971931	 2.38330791	-1.0651009258	-0.051127
C	-1.5161700129	 3.0207549437	 0.0331849355	-0.240618
H	-1.1781021534	 1.9404936957	 2.0068681676	 0.094482
H	 0.749199916	 4.0961716875	 1.4103423875	 0.09782
H	 1.2384964109	 2.5735622354	 2.1949374103	 0.116605
H	 2.2625488649	 2.0337847347	-0.0372771742	 0.0975
H	 0.7371286486	 4.0049300801	-1.2545715602	 0.215985
H	-1.0948016366	 2.0576669227	-1.9937078311	 0.097502
H	-2.5262646252	 2.6003543268	 0.001091658	 0.116606
H	-1.5862949011	 4.1127918669	 0.0493717437	 0.097821
