20
gdb 60224	3.72813	1.01484	0.86388	2.4157	76.34	-0.2549	0.0239	0.2788	1382.573	0.170299	-440.307382	-440.298164	-440.29722	-440.342306	33.579	
C	-0.1246178761	 1.5422340015	 0.1775905219	-0.388013
C	-0.0399724761	 0.0232382968	 0.0281507046	 0.141586
C	-1.4116341272	-0.6292565068	-0.0998108568	-0.386381
O	 0.695761423	-0.3434458605	-1.1527133053	-0.251096
C	 2.0650612464	-0.4547025337	-1.0325860951	 0.187342
C	 2.6515859167	-1.0991392025	-2.3074843645	-0.205207
N	 3.3878518955	-0.0273358332	-2.9929156445	-0.259939
C	 3.3524337444	 0.9617505664	-2.2036687601	 0.113381
O	 2.7170370937	 0.852076715	-1.0083457377	-0.230538
H	 0.8690691476	 1.9843339732	 0.265555144	 0.136365
H	-0.6194150676	 1.9784847577	-0.6961213173	 0.122414
H	-0.7061212418	 1.8022515506	 1.0681854031	 0.110386
H	 0.4837883246	-0.399457014	 0.89996625	 0.072831
H	-1.9307409818	-0.248384249	-0.9848899003	 0.127826
H	-1.3170788934	-1.713890197	-0.1981156156	 0.119456
H	-2.024086049	-0.4094973672	 0.7795769583	 0.116124
H	 2.3410716441	-0.9412784409	-0.0888784602	 0.083093
H	 3.3297676054	-1.9270779413	-2.0774869314	 0.118999
H	 1.8426785331	-1.4814791565	-2.935442311	 0.132278
H	 3.8053556386	 1.9301436115	-2.3859343419	 0.139093
