16
gdb 65454	4.06457	0.78028	0.74518	3.5854	72.05	-0.2592	-0.0339	0.2253	1490.0495	0.121523	-437.884206	-437.874904	-437.87396	-437.919278	32.786	
O	-0.0528140605	 1.3282184609	 0.2044732048	-0.440069
C	 0.0060327395	-0.049618604	-0.0009415943	 0.232924
C	-0.5256776246	-0.9752525312	 1.0805064091	-0.341344
C	-1.3275273953	-0.7496372359	-0.1797922926	-0.063052
C	-2.6078308038	 0.0619392971	-0.1696245139	-0.308304
C	-3.7694996677	-0.7211479048	 0.4123927192	 0.167978
O	-4.8559374964	-0.8096946074	-0.0952014248	-0.232336
C	 1.1271078859	-0.4969920434	-0.8007172445	 0.249619
N	 2.0375048927	-0.8447735248	-1.423607122	-0.336295
H	 0.6755779601	 1.5832678429	 0.7826754178	 0.302574
H	-0.0399364519	-1.9317136218	 1.2322783786	 0.145441
H	-0.8524466058	-0.4702873491	 1.9834704683	 0.133962
H	-1.3123168472	-1.5677210927	-0.893163784	 0.130804
H	-2.4610375134	 0.9550794218	 0.4504791805	 0.143819
H	-2.8798121957	 0.3960946902	-1.1744241171	 0.137256
H	-3.5444443359	-1.221968758	 1.3824669751	 0.077024
