16
gdb 2430	5.45213	2.82377	2.40274	1.6544	63.69	-0.2367	0.0929	0.3297	625.3227	0.138325	-288.590006	-288.584129	-288.583185	-288.619206	23.365	
C	-0.0599184802	 1.469793853	 0.045822013	-0.497879
C	 0.1013535921	-0.0162350238	-0.0415185654	 0.346118
C	 0.0607337388	-0.8812133416	-1.2931574176	-0.282164
C	-0.2657294461	-2.019449666	-0.3109241937	-0.00167
C	 0.999998131	-2.2313118946	 0.5411942832	-0.234805
C	 0.6813285537	-0.8437611113	 1.0651461702	-0.076725
N	-0.7846518496	-0.9670761668	 0.724914594	-0.197043
H	 0.8345645624	 1.9832923289	-0.3251433308	 0.120378
H	-0.9164554807	 1.8072802469	-0.5472617604	 0.123656
H	-0.2244462339	 1.7813051784	 1.0819626855	 0.12879
H	-0.8054292376	-0.6221525029	-1.9090932381	 0.10618
H	 0.951688149	-0.9701703764	-1.9249914919	 0.091153
H	-0.9085526172	-2.850578702	-0.5940176453	 0.080791
H	 0.8392982659	-2.9866356721	 1.3149007074	 0.110817
H	 1.9517160143	-2.4166017809	 0.0311065557	 0.093399
H	 0.9994342981	-0.394420329	 2.0000121242	 0.089005
