16
gdb 102962	2.6346	0.87411	0.72581	3.5019	66.7	-0.2752	-0.0458	0.2295	1515.358	0.120625	-475.015013	-475.004989	-475.004045	-475.051751	33.297	
O	 0.0358370117	 1.3948900155	 0.1769283064	-0.403682
C	 0.0669854793	 0.0013274448	 0.0144543324	-0.073883
C	-1.3447854596	-0.6032060731	-0.0063590318	-0.038951
O	-1.9278084401	-0.2774772422	 1.2408375579	-0.264241
C	-3.2093574648	-0.8306406008	 1.479003669	-0.162698
C	-3.6776508939	-0.3516309371	 2.8428424323	 0.14665
O	-4.6442768431	-0.7942449969	 3.3999531915	-0.226555
C	-2.1510043518	-0.0743972999	-1.1273920329	 0.283017
N	-2.8055374377	 0.3144749968	-1.9961482441	-0.314956
H	-0.4690272931	 1.5754771699	 0.9782050257	 0.297434
H	 0.5673817087	-0.2073643295	-0.9351013539	 0.136057
H	 0.6212438376	-0.5042929803	 0.819513035	 0.110599
H	-1.273259072	-1.6956753057	-0.1288042435	 0.121905
H	-3.9366633546	-0.5009641199	 0.7210272827	 0.157372
H	-3.1859454713	-1.9301645296	 1.4664520961	 0.135231
H	-3.0483999352	 0.4563893679	 3.2765435571	 0.096702
