20
gdb 97435	5.26551	0.59008	0.54824	2.2511	87.39	-0.2512	0.0222	0.2734	2024.4166	0.16707	-403.111674	-403.100724	-403.09978	-403.149343	37.868	
C	 0.0114068819	 1.387071594	 0.0021818476	-0.314927
N	-0.1189332252	-0.0538179051	 0.0484901024	-0.205068
C	 0.5485230842	-0.6672085728	 0.918857521	 0.132957
O	 0.4862347033	-2.0119165011	 1.0117514671	-0.20877
C	 1.23117642	-2.6050198269	 2.073507321	-0.073705
C	 1.1955943091	-4.1272256439	 1.8707865067	-0.163964
C	 1.8550137789	-4.5439353969	 0.5421001566	-0.390247
C	 1.8220046859	-4.7811882574	 3.0174873785	 0.308291
C	 2.3590624266	-5.3011633489	 3.9587330264	-0.463747
H	 0.6957584566	 1.8014644798	 0.7609915886	 0.095558
H	 0.3710382097	 1.6922965284	-0.9871477104	 0.128565
H	-0.9727599465	 1.8496741421	 0.1383811715	 0.128753
H	 1.2204349675	-0.1906501509	 1.6505469	 0.074662
H	 2.270020934	-2.2489404237	 2.0615332065	 0.11497
H	 0.7862399733	-2.3431486613	 3.0412057771	 0.119271
H	 0.1367296542	-4.4162598374	 1.8374099348	 0.124307
H	 1.3692345312	-4.0303268775	-0.2900028939	 0.143559
H	 2.9185273487	-4.2855160101	 0.5435259038	 0.122854
H	 1.7686618292	-5.6228186997	 0.3935789066	 0.127911
H	 2.8224100976	-5.7730515105	 4.7896185379	 0.198771
