19
gdb 84164	2.78286	1.33433	0.94979	4.3609	79.1	-0.2532	0.008	0.2612	1254.5399	0.15855	-423.079824	-423.070609	-423.069665	-423.115468	33.245	
C	-0.3142415629	 1.5127871721	 0.0070702563	-0.38429
C	 0.1239813224	 0.0343345205	 0.0413358455	-0.203527
C	 0.8138422933	-0.3841246877	-1.2232078318	-0.138766
C	 1.977258455	-1.0255509947	-1.2499752313	 0.242292
C	 2.6764910097	-1.454254693	-2.5096066924	-0.476517
C	 2.6795916452	-1.3851650677	 0.0238658188	-0.133236
O	 2.0991841082	-0.8998250574	 1.2361662508	-0.23635
C	 0.9272378388	-0.2303673094	 1.3131070536	 0.420795
O	 0.5476447975	 0.1345408197	 2.3937129751	-0.332203
H	 0.5500079934	 2.1719515624	-0.120388868	 0.123076
H	-0.9978321672	 1.6836050634	-0.8299766345	 0.113076
H	-0.8175115192	 1.7750592865	 0.9386601781	 0.14775
H	-0.7912227532	-0.5653033316	 0.1636986445	 0.12242
H	 0.309270169	-0.1340635177	-2.1543906552	 0.089897
H	 3.6656606436	-0.9870683877	-2.5960725364	 0.131097
H	 2.8393648327	-2.5394555285	-2.5270655344	 0.12988
H	 2.0946215152	-1.1851088403	-3.3941408725	 0.131683
H	 2.7517243494	-2.4783394821	 0.1193111561	 0.126387
H	 3.7115734792	-1.0085436368	 0.0069892179	 0.126537
