19
gdb 58783	2.60601	1.27692	1.23264	0.469	71.45	-0.2329	0.0625	0.2954	1142.0502	0.157	-460.11371	-460.104464	-460.10352	-460.147725	34.991	
C	 0.0159164142	 1.4761122067	-0.1146453638	-0.401108
C	-0.0045601238	-0.0407418568	 0.1009504663	 0.009381
O	 0.6012407666	-0.4007195607	 1.3403932967	-0.439968
C	-1.3916588878	-0.6026912326	 0.0490775907	 0.388086
C	-2.2278770987	-1.0052828262	-1.1368858692	-0.385007
C	-1.97119954	-1.9984516783	-0.031114748	 0.263454
O	-1.4218316295	-3.231525142	-0.3015378593	-0.449456
C	-2.7855509211	-1.6144070777	 1.2012534854	-0.147677
O	-2.2520013466	-0.2585136245	 1.1567056853	-0.339678
H	 1.0357167584	 1.8526612027	-0.002366493	 0.122502
H	-0.3505086723	 1.7350078086	-1.1129862513	 0.117811
H	-0.6230237181	 1.9748783595	 0.6216025293	 0.127416
H	 0.5923845191	-0.5317550781	-0.6766484369	 0.095625
H	-0.0300719067	-0.1399901134	 2.0229820182	 0.28484
H	-3.2083553723	-0.5624681908	-1.2927687488	 0.114723
H	-1.6625406207	-1.2239404838	-2.0379474497	 0.126841
H	-0.7735257618	-3.430001109	 0.3845696006	 0.295424
H	-3.8786018361	-1.635078216	 1.1288048995	 0.112534
H	-2.4618881727	-2.1273590475	 2.1154163182	 0.104257
