19
gdb 95532	2.52881	1.49052	1.01445	4.381	82.06	-0.2344	0.0004	0.2348	1182.4897	0.16056	-382.082023	-382.073554	-382.07261	-382.115079	32.084	
C	-0.0896734752	 1.5003450201	 0.0796120398	-0.337367
N	-0.0213669267	 0.046568781	 0.0469538196	-0.080166
C	-1.3223737443	-0.5653909308	-0.2115347997	-0.146578
C	-1.1725254425	-2.0589730107	-0.5005162708	-0.264133
C	-0.3092019306	-2.7099350956	 0.5411330578	-0.063869
C	 0.4807542811	-2.0066311722	 1.3440033115	-0.062772
C	 0.605357775	-0.4980070207	 1.2495740945	-0.118429
C	 2.0358949828	-0.1289816455	 1.277686374	 0.283136
N	 3.1545160075	 0.1546109704	 1.3313181436	-0.331182
H	 0.9115714052	 1.9180400657	 0.2159347258	 0.147228
H	-0.482549831	 1.865515976	-0.8732881063	 0.126174
H	-0.7377131336	 1.8843922329	 0.8901023211	 0.096809
H	-2.0171452694	-0.4216639796	 0.6394584253	 0.08396
H	-1.7639420793	-0.0535411198	-1.0719216011	 0.1067
H	-2.1620376775	-2.5310449612	-0.5233734781	 0.108977
H	-0.7340931379	-2.2088991031	-1.4960100975	 0.126491
H	-0.3484151039	-3.7915315373	 0.6376196832	 0.101792
H	 1.0877934521	-2.4781520952	 2.1093820275	 0.116113
H	 0.1637440282	-0.0585648744	 2.1710827997	 0.107115
