21
gdb 60012	4.47935	0.70239	0.63488	2.2091	81.75	-0.2528	0.0398	0.2926	1768.119	0.179118	-424.195861	-424.185129	-424.184185	-424.231855	39.49	
C	-0.0437572462	 1.6141604681	 0.0733161475	-0.383125
C	 0.0008501145	 0.0904985052	 0.0914433336	 0.14068
O	 0.6721295895	-0.2913874758	 1.2810634503	-0.448862
C	-1.4057252195	-0.5277289003	 0.006429798	-0.218515
C	-1.4029410244	-2.0572541262	-0.1100654955	 0.111969
O	-0.7396106207	-2.6802156688	 0.9952789436	-0.421865
C	-2.8299571159	-2.6185118035	-0.2862925565	-0.391683
C	-2.8716602027	-4.0643321824	-0.4596736611	 0.308512
C	-2.8997032824	-5.2555464018	-0.613105787	-0.430893
H	 0.9681846866	 2.0157565728	 0.1722749097	 0.125137
H	-0.4779320585	 1.9860003312	-0.8597771548	 0.105943
H	-0.6399238094	 1.9881010743	 0.9121953815	 0.117065
H	 0.5706700929	-0.2523434944	-0.7921494525	 0.058581
H	 0.5754296035	-1.2514017391	 1.3526548027	 0.284404
H	-1.978075502	-0.2270217873	 0.8960665782	 0.092356
H	-1.9271936113	-0.1135749601	-0.8658849446	 0.097672
H	-0.8051069557	-2.353689642	-0.979573284	 0.108226
H	-1.2782939655	-2.5391979057	 1.7833359756	 0.287208
H	-3.43386079	-2.3281078012	 0.5860198779	 0.12302
H	-3.2956500675	-2.1270323548	-1.1497212964	 0.1367
H	-2.9239971756	-6.308746848	-0.7452769761	 0.19747
