17
gdb 52247	5.48108	0.73798	0.70838	3.6262	69.46	-0.2566	-0.0297	0.2269	1554.2054	0.132968	-458.907936	-458.899232	-458.898288	-458.943044	30.466	
O	-0.1444214554	 0.126531093	 0.4547256031	-0.237457
C	 0.0231920784	 1.1873208689	-0.0845810902	 0.139464
C	 1.3910971809	 1.8145874462	-0.2947567245	-0.151181
O	 1.2100404062	 3.0549414804	-0.9318595916	-0.256156
C	 2.3973073295	 3.7603969668	-1.1546504799	 0.139522
C	 3.3774854282	 3.3051016417	-2.3086145367	-0.298922
C	 3.1940724464	 4.7042813595	-2.9086719026	 0.032488
O	 1.8055998063	 4.8322611965	-3.2149971059	-0.232028
C	 2.2189826613	 5.097490375	-1.8732329336	-0.01559
H	-0.8141711922	 1.8036349679	-0.4784816039	 0.102649
H	 1.8866358452	 1.9208376128	 0.685274863	 0.121993
H	 2.0067079539	 1.1245252943	-0.8944193207	 0.127711
H	 2.9565066972	 3.8925852799	-0.2155023507	 0.077604
H	 4.3846876733	 3.0819827177	-1.9510881495	 0.110127
H	 3.013460614	 2.4996922448	-2.9499197626	 0.120321
H	 3.8936253088	 5.3111001093	-3.4701724053	 0.111651
H	 1.9634486979	 6.0630184454	-1.4532467483	 0.107804
