14
gdb 49778	2.11807	1.79252	1.0732	2.6067	67.98	-0.254	-0.0362	0.2177	1062.0933	0.09936	-436.658369	-436.650169	-436.649225	-436.69236	28.942	
O	-0.8649340113	 0.9701010242	 0.5309169963	-0.236959
C	 0.194412367	 0.8705718319	-0.0249212654	 0.1714
C	 1.2561274321	 1.9712307114	-0.026839559	-0.095983
N	 2.5791298672	 1.3854988894	 0.2271934704	-0.268188
C	 3.3202943709	 1.7446802515	-0.7356520212	 0.127105
O	 2.826658162	 2.5249229257	-1.7222786059	-0.211725
C	 1.4115233277	 2.7033068945	-1.4153418757	-0.104181
C	 0.5970180993	 2.1751350587	-2.4993041135	 0.341408
C	-0.1002025387	 1.7446323203	-3.3775347495	-0.448445
H	 0.4971918761	-0.0467918633	-0.5721535366	 0.095779
H	 0.9916547833	 2.6816815695	 0.7607280192	 0.117495
H	 4.36626759	 1.4846378393	-0.8543274442	 0.156263
H	 1.2411387085	 3.7778037309	-1.3095751601	 0.138899
H	-0.7170294144	 1.363919896	-4.1546732848	 0.217131
