14
gdb 10006	2.64605	1.26929	0.89825	2.7063	73.71	-0.2489	-0.0363	0.2126	1251.871	0.102741	-345.346259	-345.336836	-345.335892	-345.382586	31.115	
C	-0.0827029729	 1.485616293	 0.0543681869	-0.498712
C	 0.0132576052	 0.0342306319	 0.0153357148	 0.079563
C	 0.114594837	-1.1645945421	-0.0170458439	 0.071471
C	 0.1548275304	-2.6272987783	-0.0429083861	-0.403952
C	-1.3026710816	-3.1504280801	 0.0689397879	 0.178739
O	-1.6976692761	-3.8173371432	 0.981099207	-0.232798
C	 0.7461716832	-3.1650308488	-1.2689170355	 0.311992
C	 1.1765183883	-3.6430809623	-2.283287186	-0.434628
H	 0.7914508163	 1.925080086	 0.5466288725	 0.155908
H	-0.143777724	 1.9050067957	-0.9554615552	 0.155286
H	-0.9725580062	 1.8083770308	 0.6053614215	 0.155318
H	 0.6874419191	-3.0147482352	 0.8342864874	 0.149699
H	-1.9460825253	-2.8370711186	-0.778372156	 0.105079
H	 1.5787347167	-4.0555448788	-3.1756623253	 0.207035
