14
gdb 18463	4.09196	1.65743	1.54719	4.6717	57.98	-0.2678	-0.0005	0.2672	855.2092	0.106059	-419.650916	-419.643767	-419.642822	-419.682806	25.625	
C	 0.1624524475	 0.9297141231	 0.322110744	-0.240231
O	-0.438556839	-0.0408595045	-0.5231395762	-0.226774
C	 0.452831165	-0.6307281902	-1.3933045356	 0.113326
C	 1.4402411919	-1.6643788521	-0.960470834	 0.02863
O	 0.9275733695	-2.3762904833	 0.1915885571	-0.25459
C	-0.1437626196	-2.8488724468	-0.5613343281	 0.482163
O	-0.965369711	-3.634929203	-0.2308355197	-0.316206
C	 0.2414934758	-2.0777694803	-1.80450844	-0.338539
H	 0.9296982147	 0.4753373248	 0.9615996076	 0.129305
H	 0.6162995278	 1.7444788058	-0.2602479921	 0.110026
H	-0.6344584279	 1.3378951653	 0.9459316368	 0.140988
H	 0.8001402127	 0.0060362232	-2.2121970851	 0.106481
H	 2.5042643135	-1.7167240392	-1.1442390113	 0.131625
H	 0.1337590991	-2.4079298429	-2.8272532835	 0.133797
