16
gdb 16210	3.05394	2.33807	1.52706	1.867	65.72	-0.2377	-0.0225	0.2152	838.5443	0.130588	-383.751312	-383.744266	-383.743322	-383.782621	26.863	
O	 0.0508768834	 0.0046020557	 0.0031578447	-0.326472
C	 0.0025674285	 1.2091150273	 0.0075923138	 0.32945
C	-1.2386977549	 2.1018883852	 0.0941733488	-0.338162
C	-0.628840015	 3.4623424454	 0.4511363449	-0.105438
O	 0.681084998	 3.4586882336	-0.1344665776	-0.296498
C	 1.1663138546	 2.1468779651	-0.0516747208	 0.336242
C	 2.412505599	 1.8286866684	 0.759600064	-0.315482
C	 2.4437960074	 1.7875769143	-0.745148279	-0.318232
H	-1.7124880606	 2.1230967995	-0.8942359076	 0.141848
H	-1.963394466	 1.7151835582	 0.812496317	 0.134777
H	-1.1670706438	 4.3177437042	 0.0391553308	 0.119217
H	-0.5572785775	 3.5840797258	 1.5423216789	 0.104231
H	 2.8812781098	 2.6736334954	 1.2507511796	 0.128897
H	 2.4240820803	 0.8900378038	 1.3025254898	 0.135071
H	 2.4741410056	 0.8193456363	-1.2331089463	 0.137925
H	 2.9458419011	 2.5966042218	-1.263399701	 0.132625
