19
gdb 85741	3.34042	1.20122	1.03498	3.255	79.15	-0.2486	0.0327	0.2813	1194.6622	0.161084	-382.074968	-382.066811	-382.065867	-382.107678	31.444	
C	-0.0021281385	 1.5707234984	-0.0380135686	-0.398947
C	 0.0605880419	 0.0489127731	-0.0019494311	 0.056765
C	 0.7235186284	-0.5998502391	-1.2411993446	-0.26852
C	 1.2754056066	-1.9416695081	-0.6902622867	-0.161105
C	 2.4483671492	-2.4356071508	-1.4072315546	 0.271015
N	 3.3812583329	-2.8194668709	-1.9718322086	-0.326282
C	 1.535505112	-1.642247597	 0.7919549519	-0.025885
C	 2.242168417	-0.3784588571	 1.1140501689	-0.250616
N	 0.7743200958	-0.4542434141	 1.1954374853	-0.097456
H	 0.999854674	 2.0055679405	-0.1161655897	 0.119892
H	-0.5863660038	 1.9122829793	-0.8979230901	 0.120718
H	-0.4708851526	 1.9558830157	 0.8713907534	 0.133018
H	-0.9601780573	-0.3431514476	 0.0915217205	 0.089245
H	 0.0208436811	-0.7533470561	-2.0624271076	 0.12278
H	 1.5388299296	 0.0179575864	-1.6264506479	 0.127153
H	 0.498282765	-2.7125601198	-0.7525836396	 0.129605
H	 1.5565147821	-2.4847638061	 1.475848355	 0.108338
H	 2.7392766189	-0.2729613858	 2.072947177	 0.127244
H	 2.7108335675	 0.1749835791	 0.3045507973	 0.123036
