16
gdb 36993	3.07342	2.70761	2.46857	1.048	76.08	-0.186	-0.0825	0.1035	689.0248	0.126135	-363.40841	-363.403115	-363.402171	-363.437618	23.509	
C	 0.1077914905	 1.4766913325	 0.2114217371	-0.062301
C	 1.4231511287	 1.773693578	-0.0640217596	-0.070708
C	 1.4394126897	 1.225863853	-1.5746821361	-0.117295
C	 0.5018671819	-0.0919136033	-1.4157328963	 0.007369
C	 0.0062934445	-0.0203503698	 0.1066150897	-0.101928
C	 1.4090882991	-0.6182599381	 0.4178152278	-0.018769
C	 2.3551057079	 0.6165615842	 0.3522948395	-0.079685
C	 2.5947426168	 0.2746757312	-1.1355072959	 0.027846
N	 1.6917107487	-0.9552334466	-1.0416259717	-0.169708
H	-0.6932934134	 2.0503878017	-0.2608526603	 0.116245
H	 1.4032615807	 1.8225746855	-2.4849262942	 0.084469
H	-0.1436241959	-0.4213998412	-2.2361732095	 0.074646
H	-0.9007501687	-0.5579586586	 0.3780537845	 0.083783
H	 1.5251972536	-1.4086273595	 1.1580386399	 0.075779
H	 3.1503132128	 0.7780992594	 1.077347209	 0.072752
H	 3.563728933	 0.2236502517	-1.6333918441	 0.077505
