19
gdb 13874	3.96185	1.53564	1.18807	1.86	71.23	-0.245	0.0262	0.2712	1039.0115	0.16593	-365.088405	-365.080141	-365.079197	-365.121381	30.297	
C	 0.108038641	 1.4732850306	-0.186448358	-0.398516
C	-0.0330089554	-0.0404040864	 0.0322560193	 0.014487
C	 0.7167310556	-0.4866609484	 1.2936416797	-0.393487
C	-1.5125191881	-0.4284804097	 0.0916667004	 0.115717
C	-2.313387548	-0.2553624544	-1.2295148034	-0.203382
N	-2.8371100637	-1.5945386028	-1.5527498681	-0.265544
C	-2.405441535	-2.3557796012	-0.6377885619	 0.116903
O	-1.6422890103	-1.8581410147	 0.3613951327	-0.235698
H	 1.1633064896	 1.7549447139	-0.2506188603	 0.119989
H	-0.3807151838	 1.8082097921	-1.1067037767	 0.120369
H	-0.3322131801	 2.0307584546	 0.6490025074	 0.116575
H	 0.4004220603	-0.5615778049	-0.8331220358	 0.080938
H	 0.3210330632	 0.0191421075	 2.1826273243	 0.111454
H	 0.6211055632	-1.5634721083	 1.4484961004	 0.131981
H	 1.7807175704	-0.2407081533	 1.2181491719	 0.111001
H	-1.9922702445	 0.0878345021	 0.9321453193	 0.086844
H	-3.14004175	 0.4547796995	-1.1320549823	 0.117864
H	-1.6792347741	 0.0949305244	-2.0522606522	 0.114325
H	-2.5914251103	-3.4221881605	-0.5686398668	 0.13818
