23
gdb 121303	4.01015	0.78739	0.68819	1.2264	87.54	-0.2363	0.0317	0.268	1666.2777	0.207055	-388.306948	-388.297502	-388.296558	-388.341518	35.693	
O	-0.1279303179	 1.5094081545	 0.1061770967	-0.421587
C	 0.0260426717	 0.1037955257	-0.0369798445	-0.084905
C	-1.3654631126	-0.5178604775	-0.0010162819	-0.180814
C	-1.3829116327	-2.0523110222	-0.0215641481	 0.020242
C	-2.812128021	-2.5933849716	 0.1470029743	-0.200812
C	-2.8316410791	-4.1232355208	 0.2674946495	-0.264916
C	-1.9440187611	-4.7785106596	-0.7578890645	-0.038453
C	-1.0331533582	-4.1128222878	-1.466114931	-0.062229
C	-0.7555524114	-2.6402759218	-1.300487626	-0.242709
H	 0.7418262297	 1.9143921501	 0.0430075629	 0.283847
H	 0.5340952251	-0.1397143247	-0.9826491826	 0.086247
H	 0.6393204246	-0.3138358639	 0.7794662592	 0.08189
H	-1.8634966981	-0.1592753899	 0.9081784353	 0.100753
H	-1.9457457771	-0.1264772167	-0.8469418086	 0.09963
H	-0.7909557163	-2.4133982448	 0.8334567269	 0.069292
H	-3.2864744347	-2.1388574604	 1.0242223898	 0.089525
H	-3.4092816654	-2.2910796457	-0.7240970662	 0.096412
H	-2.5153385304	-4.428164129	 1.276681372	 0.104751
H	-3.8586340369	-4.4958877604	 0.1622305804	 0.100143
H	-2.0725975634	-5.8473362113	-0.9133445259	 0.080299
H	-0.4372705906	-4.6398464121	-2.2081544417	 0.079724
H	-1.1293952748	-2.0924731654	-2.1803836142	 0.103057
H	 0.3298328907	-2.4783253946	-1.3004307917	 0.100613
