21
gdb 63210	2.66983	1.50212	1.24978	0.2077	93.04	-0.2117	-0.0328	0.179	1120.3918	0.183286	-349.979721	-349.971208	-349.970263	-350.011931	34.494	
C	-0.2966391625	 1.5891795019	 0.0135772134	-0.40523
C	-0.0729025255	 0.0602857621	 0.0030982375	 0.178268
C	-1.4438014509	-0.6411654797	 0.0126517481	-0.431
C	 0.7030088311	-0.3732883416	-1.228027843	-0.090728
C	 1.9653307635	-0.0177382195	-1.540246972	-0.074505
C	 2.9167096699	 0.6673423005	-0.7020463068	-0.107552
C	 2.9299483833	 0.6599696803	 0.6563919446	-0.107552
C	 1.9950135566	-0.0342690328	 1.5054897168	-0.074504
C	 0.7268093194	-0.386543611	 1.2140907745	-0.090728
H	 0.650223116	 2.1314382777	 0.0072878681	 0.129481
H	-0.8725108721	 1.8931323876	-0.8674878716	 0.105751
H	-0.8551904445	 1.8834907607	 0.9089498655	 0.105751
H	-2.0321975956	-0.3554493608	-0.8651802206	 0.112022
H	-1.3309191079	-1.7307651808	 0.0056083813	 0.112815
H	-2.0149244884	-0.3651017908	 0.9048624383	 0.112022
H	 0.1641359389	-1.0028575217	-1.9340414763	 0.084917
H	 2.3339163979	-0.3081797963	-2.5226778935	 0.088854
H	 3.7597132189	 1.1296821835	-1.2102151721	 0.089074
H	 3.7827442793	 1.1168557094	 1.1530234998	 0.089074
H	 2.3826458394	-0.3353174777	 2.4773401835	 0.088854
H	 0.2017307432	-1.0237939009	 1.9235984145	 0.084917
