21
gdb 57204	2.19883	1.35103	1.14682	2.5182	78.54	-0.2406	-0.0132	0.2274	1213.6134	0.178738	-424.236745	-424.226319	-424.225375	-424.272209	37.832	
C	-0.2956890501	 1.7087627142	 0.3213863379	-0.40749
C	 0.013243802	 0.2394168454	 0.0131668257	-0.146573
C	 0.910998274	 0.1013300233	-1.2293679224	 0.388625
C	 0.7299709323	-1.1598173622	-2.0458954655	-0.485928
O	 1.7298015855	 0.9477037955	-1.510466405	-0.312414
C	 0.694620864	-0.4729778004	 1.1910322333	 0.421212
C	 1.9942924345	 0.1100801978	 1.7027725789	-0.467264
C	-0.1382217082	-1.2876244149	 2.0899327815	-0.238101
O	 0.6754408525	-1.9090647175	 1.0905949209	-0.279218
H	 0.6243773525	 2.2945174524	 0.3647230032	 0.146311
H	-0.9223406594	 2.1405520112	-0.4641675205	 0.120936
H	-0.8276198199	 1.8057871659	 1.2726984844	 0.110805
H	-0.9159168482	-0.3079718813	-0.1806528527	 0.080055
H	-0.2546226613	-1.1437733678	-2.5296064615	 0.136674
H	 1.5062026413	-1.2318447451	-2.8087536083	 0.135769
H	 0.7444600934	-2.033574521	-1.3866333518	 0.166645
H	 1.8292941787	 1.088921474	 2.1631180233	 0.128232
H	 2.4290664469	-0.5570411075	 2.4505674863	 0.126553
H	 2.7131287875	 0.2429159299	 0.8896911569	 0.147511
H	 0.1824294862	-1.4547014516	 3.1174620661	 0.115117
H	-1.2132504443	-1.3511551503	 1.9254370892	 0.112543
