20
gdb 116687	4.97953	0.79131	0.77055	2.9355	85.93	-0.2447	0.0167	0.2614	1563.8671	0.170644	-403.093307	-403.084489	-403.083545	-403.128	32.428	
C	 0.0453794868	 1.249741961	 0.280501939	-0.249896
O	-0.1564052395	 0.0594048404	-0.4722390177	-0.192717
C	-1.2346133157	-0.6692890985	-0.1303341558	 0.096394
N	-1.5020514358	-1.7411328454	-0.7363260335	-0.332957
C	-2.6502149729	-2.4638154011	-0.3309386857	 0.396024
C	-3.8477364179	-2.8488092564	-1.253598158	-0.247558
C	-4.1487674049	-3.5014648702	 0.1248701496	-0.045197
C	-2.6590728256	-3.9445286981	 0.1599346052	-0.247561
C	-3.7125461069	-2.1682638149	 0.7914837308	-0.265217
H	 0.9472701855	 1.7155889303	-0.1178898813	 0.147426
H	-0.7964048864	 1.94382391	 0.1682779734	 0.128067
H	 0.1945282975	 1.0316774613	 1.3449996927	 0.128069
H	-1.8298343831	-0.2509948193	 0.6945800127	 0.083101
H	-4.5011503821	-2.0293261178	-1.5667810196	 0.084991
H	-3.6207852407	-3.5245441152	-2.0820187013	 0.094021
H	-5.016920464	-4.1019635974	 0.3894507709	 0.074045
H	-2.3492275805	-4.6966972043	-0.5698918916	 0.094021
H	-2.2209933074	-4.1312146889	 1.1447315867	 0.08499
H	-3.3673048011	-2.2306015833	 1.8280076239	 0.084976
H	-4.3693768654	-1.3068854623	 0.6363776696	 0.084978
