15
gdb 42532	3.42641	1.2809	1.07186	2.6633	68.18	-0.2461	-0.0609	0.1852	1105.1284	0.110375	-457.709761	-457.701888	-457.700944	-457.742714	28.904	
O	 0.012324648	 0.116058783	-0.5483036851	-0.295944
C	 0.0097005505	 1.2797540941	-0.2770963764	 0.281546
C	-1.0672516876	 2.3463660125	-0.0641301762	 0.320959
C	-2.3820693785	 2.4426100412	-0.7145771372	-0.244349
O	-2.2556792972	 2.1469186743	 0.6752050865	-0.250934
C	 0.0048741715	 3.4179958398	 0.2211380572	-0.447818
C	 1.0818633938	 2.3352447918	 0.0044113653	 0.320964
C	 2.3968724215	 2.1396750945	 0.6317852615	-0.244347
O	 2.2704297953	 2.4882293192	-0.7456870701	-0.250935
H	-2.7761259355	 3.4293767279	-0.9528884591	 0.129773
H	-2.7277556364	 1.6205366111	-1.338703914	 0.141
H	 0.0435930589	 4.2324879294	-0.5053235133	 0.134657
H	-0.0366078954	 3.8273454621	 1.2327474729	 0.134657
H	 2.7869110198	 2.9211377555	 1.2821439205	 0.129773
H	 2.7466813511	 1.1278776135	 0.8286026274	 0.141
