17
gdb 110962	2.84628	1.29024	1.13698	1.2235	68.76	-0.2457	-0.0013	0.2444	1111.9396	0.135066	-458.91569	-458.907134	-458.90619	-458.948995	32.06	
O	 0.2716662607	 0.444479527	 1.0320542767	-0.421631
C	-0.1558810813	 0.3697628452	-0.3195759015	-0.122204
C	-1.4955601019	-0.3513056531	-0.3992941681	-0.042075
C	-2.0215809635	-1.0537101529	-1.7022250181	-0.217121
C	-0.9491300528	-2.1765470582	-1.476209588	-0.287846
C	-1.5061903901	-1.9002622935	-0.0436043482	 0.250398
O	-1.0500897471	-2.4906547411	 1.1142628786	-0.473372
C	-2.8810220454	-1.8849414265	-0.7274251542	 0.390535
O	-3.9944280042	-2.277030398	-0.5627579828	-0.329261
H	 0.2930983885	-0.4571437335	 1.3744874261	 0.29307
H	-0.2718266331	 1.4040408589	-0.6599788126	 0.114932
H	 0.6109345448	-0.0906172452	-0.9568872347	 0.095376
H	-2.2469257445	 0.2352611388	 0.138145247	 0.094324
H	-2.3088647062	-0.5888756478	-2.6388471992	 0.107397
H	-1.1587200535	-3.1579618617	-1.9043372078	 0.120631
H	 0.0843020088	-1.8829754398	-1.6469387089	 0.121359
H	-1.7878553994	-2.5740492387	 1.7302280558	 0.305487
