17
gdb 16649	3.37117	2.16993	1.4928	3.7031	68.98	-0.2333	0.0309	0.2642	863.1143	0.144112	-363.898236	-363.890988	-363.890043	-363.929631	27.221	
C	-0.0444386211	 1.3971853794	-0.1202268163	-0.342037
N	-0.0180565414	-0.0442310399	-0.0834083123	-0.079445
C	-1.2277632405	-0.8417849187	 0.0178660662	-0.183279
C	-0.726922729	-2.2815330866	-0.0208584469	-0.05009
C	 0.0685698932	-2.6858853668	-1.2259941075	-0.283508
C	 0.7832857485	-2.2193299317	 0.0268194716	-0.150513
C	 1.1527231126	-0.7605462453	 0.0393033074	 0.416754
O	 2.2646733666	-0.2819806004	 0.133128688	-0.401086
H	 0.9903566182	 1.7440316057	-0.1350569393	 0.164804
H	-0.5652453538	 1.7646979344	-1.0130662817	 0.119809
H	-0.5470275074	 1.8109360129	 0.7644005285	 0.119185
H	-1.7579186332	-0.6311159521	 0.9591175179	 0.105962
H	-1.9195702529	-0.6149218801	-0.8052124876	 0.108819
H	-1.2826914284	-3.0315085818	 0.5272045067	 0.09907
H	 0.1267109846	-3.7448904148	-1.4515740414	 0.121472
H	 0.0769013217	-2.036722546	-2.0962637683	 0.123625
H	 1.4086064424	-2.9025415481	 0.5851571551	 0.110457
