19
gdb 61547	3.7074	0.89016	0.85844	1.2617	73.25	-0.2579	-0.0403	0.2176	1400.656	0.156553	-460.151926	-460.142427	-460.141483	-460.186865	35.22	
O	-0.1788515375	 1.3475193582	-0.1026065934	-0.445285
C	 0.0077815625	-0.040948895	 0.0124357502	 0.037262
C	 0.6348179305	-0.6387275821	-1.2649290392	-0.301746
C	-0.0616952402	-0.1025603576	-2.5100148431	 0.454835
O	-1.4571674872	-0.0124275996	-2.3937597961	-0.478552
C	 0.6260799337	 0.9172627348	-3.378051552	-0.305963
C	 0.4358766012	-0.5071400586	-3.8643509147	-0.313709
C	 0.8457939878	-0.3592564259	 1.227312284	 0.137677
O	 1.2617533936	 0.5088709123	 1.9577615686	-0.264044
H	 0.266711715	 1.7405376298	 0.6647955889	 0.297207
H	-0.9673929644	-0.537988935	 0.1567068717	 0.107464
H	 1.7037575387	-0.402066109	-1.3132414775	 0.107482
H	 0.5382239765	-1.7308137807	-1.2128899164	 0.107642
H	-1.6346284745	 0.7695292476	-1.8547557627	 0.296014
H	-0.0018537238	 1.6807233933	-3.8231310755	 0.116325
H	 1.6229956986	 1.2474709196	-3.1071615862	 0.110956
H	 1.3032162845	-1.1561339644	-3.9251137741	 0.109728
H	-0.3190777716	-0.6808443082	-4.6220857266	 0.125073
H	 1.0618539267	-1.4310220695	 1.4117130042	 0.101634
