16
gdb 22019	4.83425	1.04493	0.86421	3.0788	84.19	-0.1814	-0.0276	0.1539	1287.2782	0.124944	-434.026804	-434.018397	-434.017453	-434.060182	30.713	
C	 0.0311055951	 1.4263517378	 0.2031269825	-0.321138
N	 0.0061694397	-0.0084193416	-0.0191244915	-0.006147
C	-1.167445909	-0.7208863135	-0.065331259	 0.038162
C	-1.190209894	-2.0316352491	-0.3843527319	-0.21728
C	 0.0495927618	-2.7034110885	-0.6986863848	 0.310042
C	 1.2203171344	-1.8294571465	-0.6324079901	-0.043904
N	 1.195914546	-0.5715958419	-0.3220560326	-0.213749
N	 0.0487983049	-3.9631349645	-1.001756791	-0.268905
O	 1.3635028712	-4.4131165483	-1.2722994067	-0.406424
H	 1.0023816359	 1.6900156637	 0.6215466791	 0.15958
H	-0.1163516855	 1.9852242526	-0.7295245344	 0.138852
H	-0.7552524046	 1.7028284693	 0.9098205621	 0.137118
H	-2.0593431857	-0.1575965996	 0.1806871617	 0.128328
H	-2.120803604	-2.5834124907	-0.4016668781	 0.116179
H	 2.1979636994	-2.23662573	-0.8533750372	 0.146376
H	 1.2139711046	-5.3416291691	-1.4729829481	 0.30291
