13
gdb 1390	4.77468	1.42045	1.14772	1.9816	64.01	-0.2555	0.0123	0.2678	1005.2562	0.098387	-307.24543	-307.23695	-307.236006	-307.279618	28.527	
C	-0.0363264934	 1.4907352426	 0.0239727738	-0.498924
C	 0.0164647457	 0.0368713846	 0.0008698936	 0.04643
C	 0.0660112183	-1.1656098752	-0.0148248387	 0.103886
C	 0.0877984275	-2.634314634	-0.0345598695	-0.231628
O	-1.1997530717	-3.2004548196	 0.1992583696	-0.390699
C	 0.6866837473	-3.1346716856	-1.282636856	 0.332462
C	 1.150431246	-3.5578140606	-2.3068193606	-0.458951
H	 0.7158512384	 1.9022156038	 0.7056348074	 0.153897
H	 0.1472414936	 1.9116784071	-0.9703971739	 0.152973
H	-1.0171503532	 1.8437831669	 0.3605840175	 0.153665
H	 0.694337097	-2.9924540985	 0.8074132257	 0.146404
H	-1.7771579577	-2.8924094974	-0.5090014857	 0.288262
H	 1.5671128124	-3.9314727642	-3.2094946832	 0.202223
