17
gdb 39307	2.71156	2.12963	1.82534	2.503	65.27	-0.2408	0.073	0.3138	826.685	0.139691	-458.942651	-458.936613	-458.935668	-458.97292	25.146	
C	-0.1001591827	 1.5543152079	-0.0937080363	-0.11217
O	 1.2170843519	 2.0155641514	 0.2497154934	-0.267646
C	 1.947210484	 0.9496877435	 0.8230050181	 0.188445
O	 1.6964810824	 0.7968761208	 2.198419933	-0.253831
C	 0.4239346875	 0.2179631332	 2.4961711886	-0.090159
C	 0.0051137828	-0.7015438939	 1.3543662455	 0.043404
O	 1.2114082278	-1.4125656936	 0.9511355674	-0.286627
C	 1.4668486164	-0.3181129475	 0.0512113726	 0.049856
C	-0.0244686891	 0.0364553015	-0.0244819068	-0.078811
H	-0.8423789865	 1.9881276112	 0.5893815124	 0.106276
H	-0.3304698927	 1.9001228825	-1.1072590509	 0.111641
H	 3.0056757776	 1.1950989314	 0.7325882693	 0.099641
H	 0.5522462157	-0.3584431613	 3.4173580707	 0.120695
H	-0.3298589246	 0.9981275423	 2.6792986949	 0.101261
H	-0.8195680297	-1.369231388	 1.6152415484	 0.086914
H	 2.0721976562	-0.5865271545	-0.8157451243	 0.089343
H	-0.612395037	-0.4930307969	-0.7727268059	 0.091769
