19
gdb 32782	3.02284	0.99012	0.79019	3.8134	78.88	-0.2102	0.0325	0.2427	1444.8587	0.160063	-419.251029	-419.241623	-419.240678	-419.286191	33.757	
C	-0.236121736	 1.5672276873	 0.2680810904	-0.510969
C	-0.0436737934	 0.1066816839	 0.0340215526	 0.221177
C	 0.1067594617	-0.6491856799	-1.1062435652	 0.203895
C	 0.152945353	-0.2062104199	-2.5346187298	-0.327168
C	 1.5606982495	-0.3263722282	-3.1406084857	-0.051108
O	 1.6071048136	 0.0749295846	-4.5011439895	-0.420455
N	 0.255846136	-1.9863338378	-0.7813506695	-0.311334
C	 0.1947331745	-2.0422064905	 0.525806105	-0.00062
N	 0.0141861169	-0.8065200053	 1.0718171883	-0.290662
H	 0.5912868793	 2.0086509421	 0.8376107447	 0.130641
H	-0.2935683103	 2.0953871993	-0.6859502189	 0.146116
H	-1.1618160373	 1.7785962187	 0.8177589942	 0.12836
H	-0.5336241655	-0.8280988144	-3.1248580056	 0.10088
H	-0.1872541467	 0.8296041805	-2.6354113629	 0.10069
H	 2.2499573018	 0.338530231	-2.6092195449	 0.105125
H	 1.9259945465	-1.3540655402	-3.0041360221	 0.108567
H	 1.0807830242	-0.5524996234	-5.0068604764	 0.280186
H	 0.2693165442	-2.9345425745	 1.1297275092	 0.125873
H	-0.071385522	-0.5921438434	 2.0513588061	 0.260805
