17
gdb 26188	4.05328	0.97421	0.93177	0.2978	71.25	-0.2146	0.004	0.2186	1303.9963	0.136559	-455.174612	-455.165787	-455.164843	-455.208722	32.571	
C	-0.0353305632	 1.551046966	 0.1339603272	-0.382151
C	-0.0606303112	 0.0255506635	-0.0083700865	-0.06967
N	 0.7449111963	-0.5782439721	 1.0658003035	-0.506002
C	-1.4653592729	-0.5043608004	-0.0666882813	 0.392872
N	-1.9981868361	-1.2760764684	-0.9699147185	-0.394511
C	-3.2813140725	-1.5077490667	-0.5154932707	 0.317894
O	-4.1443166076	-2.2753112883	-1.2057840385	-0.429211
C	-3.4786412853	-0.8640835753	 0.6608974817	-0.157156
O	-2.298630945	-0.2097729559	 0.953196847	-0.184259
H	 1.0006948479	 1.8960329815	 0.1621314911	 0.130629
H	-0.5513675987	 2.0318369834	-0.7016462794	 0.124957
H	-0.5302024213	 1.8612930167	 1.0598335418	 0.126628
H	 0.3994144473	-0.256947946	-0.9601816088	 0.113028
H	 0.3063883951	-0.3842085054	 1.9629998163	 0.23184
H	 0.7457130631	-1.589885885	 0.9655955297	 0.233243
H	-3.6778690588	-2.5702253911	-1.99719246	 0.306851
H	-4.2913258371	-0.7585163864	 1.3545713853	 0.145018
