21
gdb 81704	2.59425	1.594	1.31161	0.4815	77.81	-0.2363	0.08	0.3163	1074.5148	0.184375	-424.204175	-424.196309	-424.195365	-424.235937	32.014	
C	-0.0413202669	 1.5527170067	 0.0470338213	-0.42869
C	-0.0050706491	 0.0264884164	 0.0429858679	-0.016823
C	 1.055448054	-0.5801359736	-0.9288283739	 0.120192
C	 2.0411668395	-0.651110136	 0.2734111558	-0.28567
C	 0.8087365734	-0.6089515711	 1.2177935621	 0.117664
O	 0.3116452661	-1.8691864399	 1.635532434	-0.27096
C	 0.4744255279	-2.9590822657	 0.7422345264	-0.09119
C	-0.035264642	-2.7324100653	-0.6839059859	-0.090736
O	 0.7336933367	-1.8457695713	-1.4816383206	-0.272102
H	 0.9577930012	 1.9883122654	 0.1560373885	 0.116568
H	-0.4668164992	 1.9355242228	-0.8865768635	 0.121165
H	-0.65549802	 1.9255510359	 0.8735579371	 0.120719
H	-1.0206105744	-0.3627217701	-0.0595368056	 0.076777
H	 1.3559508734	 0.035918687	-1.7804868002	 0.076829
H	 2.7175492861	-1.5054532684	 0.32284057	 0.106753
H	 2.6307952112	 0.2643151529	 0.3645951493	 0.10532
H	 0.8924676805	-0.0138814646	 2.1311671152	 0.076022
H	 1.5240330577	-3.2851267845	 0.7021305428	 0.099412
H	-0.1062366388	-3.7764017665	 1.1834724102	 0.109617
H	-0.0010026043	-3.6912428185	-1.2125237993	 0.108496
H	-1.088060413	-2.4167705819	-0.6433563717	 0.100637
