22
gdb 118545	2.22719	0.98044	0.76047	3.9223	81.09	-0.2465	0.0357	0.2822	1583.2648	0.192312	-441.507994	-441.496952	-441.496007	-441.545431	38.087	
C	-0.1638472319	 1.5526074424	 0.375836391	-0.384345
C	 0.0128718943	 0.038580406	 0.2499025019	-0.168984
C	 0.6202223986	-0.4035424015	-1.0943694835	 0.013416
C	 0.8320797116	-1.9161535743	-1.1573093165	-0.079656
O	-0.440072166	-2.5368205715	-1.1502901386	-0.244845
C	-0.3748425753	-3.9404641274	-1.2503977914	-0.227017
N	-0.1997486103	 0.0014112151	-2.231077055	-0.269993
C	 0.1640953263	 0.9631005444	-3.1172490765	 0.155691
O	 1.1664948969	 1.6445536671	-3.0460048186	-0.332581
H	 0.788872018	 2.0768984743	 0.2498209205	 0.12801
H	-0.8514992426	 1.9346745093	-0.3841079422	 0.122086
H	-0.5693620945	 1.8159820866	 1.3574199331	 0.108941
H	 0.6724592133	-0.3251812458	 1.0481720411	 0.094476
H	-0.9469998141	-0.4718486084	 0.3877823107	 0.106769
H	 1.5873498506	 0.0890124499	-1.2336797215	 0.117402
H	 1.3796512294	-2.182474068	-2.0756568423	 0.096109
H	 1.4319560511	-2.2529285347	-0.296262964	 0.092042
H	-1.4001703815	-4.3178616997	-1.2432560186	 0.129769
H	 0.1173057365	-4.2595572351	-2.1822340142	 0.109221
H	 0.1729944701	-4.3821988976	-0.4039621621	 0.110139
H	-1.0211441109	-0.5538958307	-2.4157637448	 0.252335
H	-0.5771513997	 1.0669923096	-3.9351485686	 0.071013
