19
gdb 83613	2.49478	1.8736	1.25818	1.6923	74.81	-0.241	0.0557	0.2967	1029.4888	0.159664	-422.962558	-422.954896	-422.953952	-422.994537	30.075	
C	-0.1196429755	 1.5700002325	 0.0676206289	-0.409929
C	 0.0209062921	 0.056341529	-0.0118414897	-0.009596
C	 0.742146193	-0.526264334	-1.2708921271	-0.151569
C	 0.4121441873	-1.9822259378	-1.6885225161	-0.113114
O	 1.5290360906	-2.5182868267	-0.9145218923	-0.326743
C	 1.7833246179	-1.2391579008	-0.3812786777	 0.420301
C	 3.0821803272	-0.6164009289	 0.0831923299	-0.168925
O	 2.3253605835	 0.2020751209	 1.0197273811	-0.292235
C	 1.1220978304	-0.6005795769	 0.8718738802	 0.023788
H	 0.8576203836	 2.0523374544	-0.0181448122	 0.133044
H	-0.7654903451	 1.9449738196	-0.7333349588	 0.111489
H	-0.5579787129	 1.8738570624	 1.024038854	 0.117862
H	-0.9496188485	-0.425685248	 0.1579669662	 0.073261
H	 1.0137594387	 0.157289183	-2.0760489077	 0.078304
H	-0.548986339	-2.3733421661	-1.3341684909	 0.106651
H	 0.5317029187	-2.2119982101	-2.7518430074	 0.113558
H	 3.7538871438	-1.3094646071	 0.6082963185	 0.111122
H	 3.6551506363	-0.0158465205	-0.6319934467	 0.10806
H	 0.8512992378	-1.1136401248	 1.7990898376	 0.074669
