19
gdb 63217	2.12384	1.93541	1.40187	2.246	75.53	-0.251	0.0143	0.2653	1010.7435	0.158223	-423.019893	-423.0115	-423.010556	-423.052271	33.325	
C	 0.4277841273	 1.5901390134	-0.3045165154	-0.41092
C	 0.0252062674	 0.1419084211	-0.0046817953	 0.29128
O	-1.362086959	 0.1456193976	 0.2698669379	-0.479589
C	 0.4365726569	-0.7903215038	-1.1351211663	-0.114881
C	 1.4992260339	-1.5307049586	-0.8259696751	-0.082733
C	 1.9874787416	-1.2711486342	 0.5837792087	-0.343256
C	 0.8292936991	-0.4733756369	 1.1696430739	 0.343263
C	 0.7147228644	 0.0062465117	 2.5445751774	-0.245138
O	 0.0103459067	-1.1748117277	 2.1232426417	-0.283667
H	 1.5016729726	 1.6736538911	-0.4951803294	 0.114069
H	-0.1066893782	 1.9459184698	-1.1903621511	 0.125884
H	 0.1611368032	 2.238208002	 0.53526002	 0.118088
H	-1.5075893855	-0.5701964733	 0.9051280845	 0.28874
H	-0.0881953595	-0.7829788734	-2.0835021658	 0.101177
H	 1.9943702208	-2.2312451652	-1.4890084829	 0.09893
H	 2.1638889839	-2.1820674045	 1.1652631239	 0.123137
H	 2.9239322337	-0.696730205	 0.5891286167	 0.115171
H	 1.5206948291	-0.1694408471	 3.2554152758	 0.117242
H	 0.0805348817	 0.8646202133	 2.7602801808	 0.123202
