17
gdb 44663	2.92005	1.78584	1.56892	3.067	75.54	-0.2345	-0.0162	0.2184	905.002	0.138698	-384.713381	-384.706969	-384.706025	-384.744063	26.772	
O	 0.0025807496	 0.013635016	-0.3130997533	-0.323726
C	-0.0124268777	 1.1860309723	-0.0350799175	 0.401847
C	-1.2706985453	 2.0453093803	 0.1692126139	-0.307815
C	-0.7591577331	 3.3143853776	 0.8978760126	-0.115949
C	-0.5696392851	 2.9571643589	 2.3630101169	-0.080419
C	 0.6906851534	 2.5935402422	 2.6066955141	-0.080635
C	 1.5427785735	 2.8011410069	 1.3994423949	-0.071821
C	 0.6972131026	 3.487407741	 0.3711883775	-0.09073
C	 1.1840526002	 2.0923297834	 0.065059208	-0.164284
H	-1.6531326185	 2.3022065379	-0.8279031446	 0.12552
H	-2.0517661058	 1.491364555	 0.6951430942	 0.122537
H	-1.3995283493	 4.1810473769	 0.7232631325	 0.081087
H	-1.4032918539	 2.8620783426	 3.0491873938	 0.102137
H	 1.0738880727	 2.1933015218	 3.5372761686	 0.102667
H	 2.5970520649	 3.0300935605	 1.5096661719	 0.097366
H	 1.0078801064	 4.3625663551	-0.1855198996	 0.094522
H	 2.0155185153	 1.8852001116	-0.5984796038	 0.107697
