16
gdb 44973	3.85166	1.20944	1.04735	2.4453	77.15	-0.2476	0.0177	0.2653	1135.1918	0.124008	-400.719827	-400.712036	-400.711092	-400.752178	30.369	
N	 0.08161074	 1.0045675983	-0.8289037733	-0.527592
C	 0.0383236239	-0.016169805	-0.0929825111	 0.398296
C	-1.2279435789	-0.7355572303	 0.3447157258	-0.381732
C	-0.7315574491	-1.9872951919	 1.0594847788	 0.120415
C	 0.1764032097	-2.9052870039	 0.2332764747	-0.344554
C	 0.7808674176	-1.836344301	 1.0842140371	 0.056059
O	 1.144858725	-0.6395411646	 0.4382167797	-0.23293
C	-1.4702226271	-2.5209319657	 2.1616076178	 0.168777
C	-2.1008252101	-2.9650038591	 3.084633856	-0.370665
H	 1.0465188676	 1.3017451812	-0.9815646284	 0.227233
H	-1.7927189423	-0.0983384441	 1.0308427446	 0.149804
H	-1.8675921872	-0.9408765827	-0.5164402854	 0.146336
H	 0.2624030838	-3.9296816153	 0.5754328599	 0.137718
H	 0.1927206751	-2.7680809349	-0.8433453668	 0.132476
H	 1.3893011087	-2.052348198	 1.9524890037	 0.128737
H	-2.6569826567	-3.3573085729	 3.8996703969	 0.191624
