17
gdb 11417	3.74898	1.57791	1.24973	4.2316	65.65	-0.2519	0.0573	0.3093	999.3504	0.143003	-401.029016	-401.02124	-401.020296	-401.061679	28.177	
C	 0.1893697918	 1.4896471771	-0.0675859987	-0.388293
C	 0.1731389339	-0.0381515404	 0.0130090052	-0.190468
C	 0.5951689213	-0.5699644052	 1.3812079482	 0.097466
C	 0.734845224	-2.0991865209	 1.4501435019	-0.124973
O	 2.1359017071	-2.3104034687	 1.259557807	-0.250487
C	 2.8010441822	-1.1454329864	 1.5154860043	 0.490811
N	 4.0461263843	-0.9829265751	 1.5721482091	-0.577706
O	 1.9251766085	-0.1323436437	 1.7099405134	-0.233734
H	 1.1874423926	 1.8768479353	 0.1516373901	 0.148054
H	-0.0999253304	 1.8308534549	-1.0654106085	 0.11865
H	-0.5086319163	 1.930911349	 0.6525632183	 0.116293
H	-0.8345880228	-0.4202944307	-0.1960583319	 0.102043
H	 0.8369162511	-0.4674205222	-0.7483007184	 0.115268
H	-0.0676212582	-0.1837223331	 2.161460476	 0.099565
H	 0.4343224004	-2.5049067215	 2.4226456115	 0.120662
H	 0.1911016863	-2.6179217309	 0.6572707592	 0.126545
H	 4.5191376639	-1.8733812174	 1.4383129532	 0.230304
