21
gdb 111807	2.84512	1.39953	1.33903	1.0628	77.31	-0.2326	0.079	0.3116	1092.694	0.184788	-424.226189	-424.218137	-424.217193	-424.25881	31.351	
C	-0.0166066371	 1.3506948274	 0.0948228201	-0.24249
O	-0.0223469827	-0.0393439675	-0.1492252726	-0.258159
C	-1.2914283812	-0.6305533688	-0.0264966071	 0.14586
C	-1.2494482155	-2.1316345127	-0.3662421385	-0.0879
C	-0.3012240976	-2.6797256116	 0.7282018031	-0.209605
C	-0.6911811898	-1.8262035217	 1.9791076245	-0.213128
C	-1.7892034712	-0.9088324821	 1.4132723919	 0.071732
O	-2.9702619909	-1.6812395455	 1.1712783517	-0.283113
C	-2.6864208887	-2.5066441402	 0.0186171313	-0.078152
H	 1.0002057908	 1.7061698143	-0.0881616625	 0.12826
H	-0.7054949147	 1.8817015672	-0.5799696423	 0.108114
H	-0.2940049096	 1.5948778448	 1.1306115778	 0.109817
H	-2.0416492652	-0.0761128505	-0.6096152086	 0.065695
H	-0.9757722456	-2.3851989276	-1.3908477422	 0.070074
H	-0.4490920922	-3.7518349188	 0.8851783238	 0.093531
H	 0.7417363467	-2.5190259332	 0.4498861026	 0.111239
H	-1.088452152	-2.425483126	 2.8013236823	 0.10327
H	 0.1577265691	-1.2477775575	 2.3529811561	 0.10196
H	-2.0663820635	-0.0558829597	 2.0338822086	 0.069051
H	-3.4111830735	-2.2800031228	-0.7743769056	 0.096354
H	-2.7889649755	-3.5656485077	 0.2864299259	 0.097592
