18
gdb 95272	2.72198	1.80599	1.29452	1.0556	70.44	-0.2584	0.0157	0.2741	994.7527	0.150412	-439.118022	-439.110659	-439.109715	-439.149951	28.433	
C	-0.0861581946	 1.5736321856	-0.0340602268	-0.402795
C	 0.0789480391	 0.0571425982	-0.0033627422	 0.009995
C	 0.9425559442	-0.5245994101	-1.1296838627	-0.110361
O	 1.3211709599	-1.8296121981	-0.6708246177	-0.243959
C	 1.4920452134	-1.7896906832	 0.7069350953	 0.200229
O	 2.8860740985	-1.5786707016	 1.0676955026	-0.232127
C	 2.9407150367	-0.3353095594	 1.5971429881	 0.108283
N	 1.8771683091	 0.3384787394	 1.7525937632	-0.264311
C	 0.786906174	-0.5123304999	 1.2505025624	-0.078625
H	 0.8817771537	 2.0720528743	 0.0556798008	 0.137041
H	-0.5614034589	 1.8933879095	-0.96733212	 0.111284
H	-0.7119824788	 1.9165018812	 0.7951351088	 0.122709
H	-0.9063450424	-0.4212525801	-0.0626578583	 0.083686
H	 0.4082420473	-0.6534867295	-2.0734913199	 0.115829
H	 1.8331302623	 0.0936333899	-1.31248328	 0.106714
H	 1.2089928012	-2.7581822894	 1.1203134976	 0.102891
H	 3.937799671	-0.0039034109	 1.8677438652	 0.142053
H	 0.0816537941	-0.7097149459	 2.0617003037	 0.091463
