20
gdb 101397	3.15698	0.95158	0.86018	2.7334	75.73	-0.2439	-0.0279	0.216	1399.7042	0.169208	-440.271542	-440.261658	-440.260714	-440.306912	35.661	
C	 0.1210998923	 1.4949911744	-0.166829074	-0.430758
C	 0.0574782636	-0.0290113207	-0.0118934775	 0.020186
C	 0.7239044495	-0.5020059327	 1.2914690025	-0.0738
O	 2.0975666505	-0.161308893	 1.3823429478	-0.422813
C	-1.3771817147	-0.5659036471	-0.0724349537	-0.111739
N	-2.3682533373	 0.0535479817	 0.8603790952	-0.324491
C	-3.3681313482	 0.2787547355	-0.2179122215	-0.281601
C	-2.2881896244	-0.1244470554	-1.2346694245	 0.386249
O	-2.1797579124	-0.082633269	-2.4227020961	-0.29033
H	 1.1578085571	 1.8427963558	-0.1281682049	 0.108087
H	-0.2870181733	 1.8125099696	-1.1309233701	 0.131525
H	-0.4492851274	 1.989931615	 0.6253210172	 0.130257
H	 0.6000951797	-0.4922754171	-0.846541169	 0.096179
H	 0.157249958	-0.1123450472	 2.1516644823	 0.095948
H	 0.6878252421	-1.5965601609	 1.344055128	 0.101981
H	 2.1596180435	 0.7821269909	 1.5571121585	 0.286062
H	-1.3574767725	-1.6668051194	-0.0194307736	 0.091985
H	-2.6906046407	-0.57211524	 1.5885101187	 0.226757
H	-4.2250670245	-0.4088660304	-0.2290905385	 0.124984
H	-3.7423718912	 1.30593977	-0.288537037	 0.135333
