23
gdb 62575	3.25663	1.41531	1.25427	0.021	89.4	-0.2441	0.0926	0.3367	1130.7296	0.208132	-351.113289	-351.105356	-351.104412	-351.145087	33.405	
C	 0.0238467063	 1.4487814416	 0.0273202381	-0.455145
C	-0.0514559382	-0.0776669876	 0.0007998523	 0.319432
C	-1.3824860701	-0.5477191649	-0.599510412	-0.489127
C	 1.3191508932	-0.7009897644	-0.2141570539	-0.069235
C	 0.6888229262	-0.694168704	 1.1777186649	-0.069236
C	 0.7318556263	-2.2014512238	 1.4930488012	-0.056724
C	 2.2014726347	-2.5226393531	 1.0330335117	-0.202291
C	 1.5791071989	-2.2105837599	-0.3775749434	-0.056713
C	 0.3133518894	-2.9170248463	 0.1797635467	-0.237412
H	 0.9671161568	 1.8047934039	 0.4525937991	 0.110307
H	-0.0638031115	 1.8578906536	-0.9858665221	 0.113295
H	-0.7937875258	 1.8658907168	 0.6265642804	 0.113292
H	-1.2482931419	-1.1408205056	-1.5080122675	 0.126656
H	-1.9783053138	-1.1339243753	 0.1051081303	 0.126678
H	-1.9863668733	 0.3223120915	-0.8764907244	 0.107528
H	 2.1385587935	-0.036535122	-0.4726508929	 0.074774
H	 1.0375535681	-0.0246970845	 1.9587085297	 0.074774
H	 0.349554122	-2.5207143979	 2.4632046688	 0.055783
H	 2.9985348432	-1.8647599885	 1.3908377706	 0.085535
H	 2.4801351909	-3.572436796	 1.1643707329	 0.08763
H	 2.0550011046	-2.5390575912	-1.3021911249	 0.055779
H	 0.474411503	-3.9949757722	 0.2579926284	 0.091281
H	-0.6597723428	-2.7344548699	-0.2619415439	 0.093139
