12
gdb 5457	3.53553	2.00024	1.28768	2.9367	64.05	-0.2643	-0.0532	0.2111	866.0085	0.084929	-377.573281	-377.566454	-377.56551	-377.604619	23.979	
C	-0.0049101815	 1.5250647464	 0.1302637688	-0.49904
C	 0.0155538373	 0.0424313504	 0.0139076674	 0.180431
C	-0.0039886332	-0.7404307793	-1.1072407342	 0.177795
O	 0.0285257843	-2.0586569414	-0.712605246	-0.169261
C	 0.065855334	-1.9903356886	 0.6294789181	 0.078875
N	 0.0606544906	-0.7924418862	 1.1200449946	-0.290431
C	-0.048187023	-0.442250361	-2.48222841	 0.228572
N	-0.0849113881	-0.1595970533	-3.6054812155	-0.336368
H	 0.8865539933	 1.8784245442	 0.6580776476	 0.155226
H	-0.0412394064	 1.9968116432	-0.853836737	 0.150181
H	-0.8749458101	 1.8500463439	 0.7095490739	 0.155227
H	 0.0961514029	-2.9293657282	 1.1602647321	 0.168795
