25
gdb 113072	2.87828	0.90695	0.76848	1.3164	89.61	-0.2503	0.0699	0.3202	1634.6543	0.227833	-389.490669	-389.479914	-389.478969	-389.526653	39.891	
C	 0.1475924994	 1.5801731003	 0.1171340096	-0.378803
C	-0.0857534026	 0.0711009039	-0.0105115669	-0.213879
C	 0.6461663102	-0.5473173745	-1.1944101379	 0.029733
C	 2.2011476794	-0.5999071133	-1.1914522114	-0.250528
C	 2.116079327	-2.0150154803	-1.8340122093	 0.040488
C	 3.1001124172	-3.0983862001	-1.4117523558	-0.19042
C	 4.5382384008	-2.7865137554	-1.8385679828	-0.38217
C	 0.6402651642	-2.1018978703	-1.3574069192	 0.056325
O	 0.5829638004	-2.8048105053	-0.125939221	-0.428813
H	 1.2126471725	 1.8055520484	 0.2359140323	 0.120973
H	-0.2051771955	 2.1125953537	-0.7731960565	 0.112299
H	-0.378609236	 1.9933266987	 0.9833492221	 0.110149
H	 0.2399756825	-0.4316367549	 0.908062499	 0.100426
H	-1.1645281182	-0.1208286077	-0.1060818868	 0.083072
H	 0.2926237433	-0.0937123525	-2.12882187	 0.063472
H	 2.7395154335	 0.1787211307	-1.7367597302	 0.09124
H	 2.5950718109	-0.6512749327	-0.1707892641	 0.100872
H	 2.1195710908	-1.9178378173	-2.9266875453	 0.065184
H	 3.0481875998	-3.2229232955	-0.3254254857	 0.110152
H	 2.7877289789	-4.0582962419	-1.8432497659	 0.091052
H	 4.6203268801	-2.6959604057	-2.927900923	 0.108358
H	 4.8865006952	-1.8434442208	-1.403237816	 0.115915
H	 5.2275269224	-3.5738273277	-1.517600537	 0.109216
H	-0.0856347103	-2.5185360251	-2.0700895293	 0.050788
H	-0.3064043558	-2.7092855948	 0.2286541309	 0.2849
