19
gdb 66942	2.54537	1.93339	1.38807	2.5632	78.9	-0.226	0.0691	0.2951	987.8066	0.160406	-381.985208	-381.977599	-381.976655	-382.016855	30.499	
C	 0.0357106417	 1.493347115	 0.0835069083	-0.520123
C	-0.0600206619	 0.0069537596	-0.0607516223	 0.240998
C	-0.9763100431	-0.8557957709	 0.7570446622	-0.088168
C	-1.062610395	-2.2404272347	 0.1366641023	-0.245581
C	 0.4213665486	-2.0016609496	-0.2020802375	-0.1002
N	 0.5118100915	-0.9496433255	 0.9621150687	-0.196085
C	 0.4262700963	-0.8534378357	-1.1995270265	 0.372311
C	 0.2396758386	-0.7698189705	-2.6605513369	-0.329818
N	 1.575236218	-0.5610565547	-2.042139621	-0.382601
H	 1.0308933386	 1.8570181168	-0.1958359111	 0.125424
H	-0.7051343424	 2.0019247374	-0.5438345386	 0.124603
H	-0.1413399828	 1.7872015859	 1.1221451028	 0.138877
H	-1.6176773425	-0.4278935601	 1.5210263042	 0.093028
H	-1.1833670723	-3.003834303	 0.9094213834	 0.112789
H	-1.7594917	-2.4258503963	-0.68730483	 0.098427
H	 1.1548035141	-2.8020567307	-0.2660125934	 0.094602
H	 0.1556350336	-1.6711054459	-3.2621688735	 0.119759
H	-0.2886246297	 0.0920131094	-3.0618579819	 0.110706
H	 1.7981708585	 0.4318651834	-2.0166220591	 0.231051
