17
gdb 45942	2.19947	1.94934	1.13957	0.8205	73.81	-0.2395	-0.0413	0.1982	1053.633	0.135637	-421.876867	-421.868726	-421.867782	-421.91032	30.234	
O	 0.0379446224	 0.0060049343	-0.1402944353	-0.331655
C	 0.0080354076	 1.2049918444	 0.0013699655	 0.321898
C	-1.2566049766	 2.0489778399	 0.2233565505	-0.342218
C	-0.8194394138	 3.5229024941	 0.137307478	-0.342223
C	 0.7170922833	 3.5232547166	 0.1397517526	 0.321879
O	 1.4204039791	 4.5014239892	 0.2238189206	-0.331649
C	 1.18402383	 2.1167076497	 0.0062798929	 0.108341
C	 2.508854671	 1.6721487848	 0.6390434502	-0.279675
C	 2.4288706466	 1.7872190845	-0.827337952	-0.27969
H	-2.0212105378	 1.7641785108	-0.5035305853	 0.139856
H	-1.6552054523	 1.7937615888	 1.2116489679	 0.14328
H	-1.1487274082	 3.9973458139	-0.7939342929	 0.143282
H	-1.1887308172	 4.1492059202	 0.9530691361	 0.139858
H	 3.0260884914	 2.4491288328	 1.1909991606	 0.147736
H	 2.4906094656	 0.6827584385	 1.0822194411	 0.146623
H	 2.3493249642	 0.8783949154	-1.4135087907	 0.147737
H	 2.8941163149	 2.6419633622	-1.3054470298	 0.146622
