18
gdb 6024	2.67913	1.74236	1.40404	2.4843	69.49	-0.2623	0.0346	0.2969	974.3105	0.149077	-384.902454	-384.892504	-384.89156	-384.936207	36.669	
C	 0.0202727988	 1.5653151313	-0.1295456889	-0.445556
C	-0.0408634689	 0.0435247417	-0.0132553151	 0.151813
O	 0.5103667534	-0.583263672	-1.161351124	-0.443961
C	 0.7493185667	-0.498017476	 1.2168432603	 0.175118
C	 0.8480631118	-2.0286987117	 1.1684698855	-0.405976
O	 2.0968717779	-0.0202046707	 1.2161028683	-0.448289
C	 0.0604868631	-0.0679190085	 2.4442747016	 0.314372
C	-0.4821289902	 0.3054497129	 3.4505069687	-0.495553
H	 1.0528345129	 1.8872280723	-0.2929828004	 0.128536
H	-0.5807600124	 1.9068458557	-0.9796460313	 0.108768
H	-0.3735652774	 2.0484492897	 0.7692563014	 0.131046
H	-1.0890155232	-0.2680355998	 0.1270763563	 0.071851
H	 0.1392699154	-0.156452583	-1.9391636394	 0.283448
H	 1.4120093751	-2.3184196809	 0.2817160678	 0.148033
H	 1.3603143805	-2.3887672448	 2.0626537985	 0.124441
H	-0.1469308046	-2.4783177967	 1.1217953188	 0.117611
H	 2.0931584095	 0.8813499791	 1.5535117497	 0.284712
H	-0.9603727883	 0.6250998514	 4.3435086023	 0.199587
