16
gdb 37143	3.32474	1.70112	1.69652	3.0261	66.59	-0.2438	0.0604	0.3041	864.2342	0.126144	-437.787752	-437.781335	-437.780391	-437.818317	26.111	
C	 0.0057792809	 1.5576525647	 0.1261085846	-0.147694
O	 1.3812208902	 1.9455710841	 0.0096640738	-0.263514
C	 2.090247427	 1.019085777	-0.8238748832	-0.147694
C	 1.3228808303	-0.2699280807	-0.7018053622	 0.261589
O	 0.9917852757	-0.6576163111	 0.6309604914	-0.277174
C	 0.0072976428	 0.0699807698	-0.1022321417	 0.261589
C	-0.686877925	-0.8618202696	-1.0839458423	-0.136598
N	-0.3291641422	-0.3610251948	-2.4356178505	-0.329295
C	 0.6381408526	-1.2041678908	-1.6878167704	-0.136598
H	-0.3305618969	 1.8747116643	 1.1173408381	 0.11917
H	-0.6220343155	 2.0348915022	-0.6400637165	 0.113672
H	 2.0932011523	 1.3333565645	-1.8775123852	 0.113671
H	 3.1192035991	 0.9833874255	-0.4548653536	 0.11917
H	-1.5510601079	-1.4933405943	-0.9235057066	 0.107949
H	-0.7953331433	-0.9616835799	-3.1179682517	 0.233808
H	 0.9888019101	-2.1495688011	-2.0810389938	 0.107949
