22
gdb 106410	2.49219	1.36197	1.28302	1.469	82.78	-0.2362	0.0815	0.3178	1170.172	0.19276	-404.2635	-404.253806	-404.252862	-404.297979	36.324	
C	-0.2680068461	 1.4577668647	-0.3791899684	-0.263828
O	-0.1673353117	 0.0465085044	-0.3325147639	-0.288575
C	 0.6530299065	-0.4968598874	-1.3004741387	 0.362013
C	 0.5561422068	-0.4435394347	-2.8488420967	-0.252491
N	 1.7668711721	-1.3593034193	-2.598511597	-0.178638
C	 2.1739823731	-0.2979819412	-1.5648067003	-0.250962
C	 0.921783162	-2.0168611688	-1.4501948582	 0.320473
C	 1.7343559364	-2.7520187367	-0.3779102489	-0.474324
C	-0.1857993675	-2.9657947505	-1.9100152349	-0.477529
H	 0.7086415251	 1.9390202004	-0.2280050349	 0.112906
H	-0.6828487749	 1.8031147081	-1.3367175349	 0.113068
H	-0.9398169572	 1.7591338196	 0.4271041692	 0.13059
H	-0.2817611771	-0.9088582121	-3.3613755574	 0.10336
H	 0.8393994276	 0.4884175583	-3.3426724449	 0.097938
H	 2.4885016024	 0.6381945854	-2.0310129105	 0.097395
H	 2.9075522601	-0.6301125029	-0.8344603118	 0.105189
H	 2.3178354432	-2.1039017781	 0.2754665131	 0.11998
H	 1.0599148221	-3.3277777484	 0.2620611719	 0.121282
H	 2.4186435418	-3.4601116812	-0.858027689	 0.129816
H	 0.2524572943	-3.9309372806	-2.185046828	 0.124782
H	-0.8771103885	-3.1414511394	-1.0794802591	 0.128403
H	-0.7727871306	-2.6184777694	-2.7586821166	 0.119153
