19
gdb 121762	4.25933	0.64081	0.57668	2.6017	70.42	-0.2682	0.0092	0.2774	1917.6739	0.155988	-497.307499	-497.296792	-497.295848	-497.345495	35.693	
C	-0.256933669	 1.3721164098	-0.0187088515	-0.225302
O	-0.0664689955	-0.0205413163	 0.0841943008	-0.210419
C	-1.2576723901	-0.7350854622	-0.0340740546	-0.171705
C	-0.9655108068	-2.2231785378	 0.0742793183	 0.418631
O	 0.1106348864	-2.7306548707	 0.2163410071	-0.326506
O	-2.1287912767	-2.9082105006	-0.0131115397	-0.266169
C	-2.0225248488	-4.3464203187	 0.0499479548	-0.075568
C	-3.4400555879	-4.8818274265	-0.032223449	-0.069607
O	-4.072644703	-4.5372125329	-1.2484318783	-0.417347
H	 0.7247429095	 1.8389285288	 0.0841601331	 0.137133
H	-0.6871863796	 1.6546548829	-0.9924828068	 0.107433
H	-0.9195602315	 1.7540612009	 0.7739333352	 0.10728
H	-1.9860282569	-0.4669268113	 0.7505658709	 0.117381
H	-1.7593959629	-0.5513495028	-1.0002318115	 0.114887
H	-1.4165134149	-4.6959429118	-0.79111009	 0.131194
H	-1.5284173216	-4.637637306	 0.9820880925	 0.124012
H	-3.4099540518	-5.9753439118	 0.0119927804	 0.118654
H	-4.0138032887	-4.5271981651	 0.8385802829	 0.096858
H	-4.0296903503	-3.577338838	-1.3183602748	 0.28916
