19
gdb 61571	3.0695	1.0226	0.84203	4.4401	73.22	-0.2528	0.0273	0.2801	1376.133	0.159335	-456.347572	-456.33846	-456.337516	-456.381863	34.135	
N	-1.1572685096	 0.8599157897	-0.3135387854	-0.515084
C	-0.2487983049	-0.1010257372	-0.0415732405	 0.371184
O	 0.9454165983	-0.0218419773	-0.2934971516	-0.389068
C	-0.7968811853	-1.3926201651	 0.5999609634	 0.041172
O	 0.2873207016	-2.2058586666	 0.9522110838	-0.439874
C	-1.6631156676	-1.130485963	 1.8436379535	-0.177706
N	-2.9406850548	-0.5200807006	 1.4744006803	-0.075731
C	-4.0583373074	-1.4354812701	 1.2386186184	-0.222433
C	-4.0110230168	-0.5926223854	 2.463747326	-0.221961
H	-0.821958467	 1.74484921	-0.6593446241	 0.257848
H	-2.0775291026	 0.7835978355	 0.10879755	 0.267024
H	-1.4295041597	-1.8902641884	-0.1559236972	 0.090631
H	 1.0594854228	-1.7461722081	 0.5747192579	 0.293602
H	-1.7942191176	-2.0901287834	 2.3679929497	 0.106507
H	-1.1358236824	-0.4528831643	 2.5243186473	 0.116501
H	-4.7188012309	-1.17563078	 0.417224489	 0.125089
H	-3.8682475898	-2.5002087193	 1.3561504841	 0.125939
H	-3.79009584	-1.0917954288	 3.4048226517	 0.12203
H	-4.6367490664	 0.2904945126	 2.5501273736	 0.124329
