19
gdb 52777	2.50759	1.19907	0.93545	1.5997	84.91	-0.2266	0.0407	0.2673	1329.4764	0.157503	-385.830973	-385.821545	-385.820601	-385.866593	34.562	
C	-0.000681769	 1.4941535144	-0.0124491352	-0.502274
C	-0.0432404907	 0.0391157265	-0.010835286	 0.033087
C	-0.083836382	-1.1659880003	-0.0231939986	 0.066689
C	-0.0843895312	-2.607707316	-0.0325273526	 0.229125
O	 0.8693063109	-3.1973072404	-0.8858161354	-0.465384
C	-0.3816672274	-3.4369702607	 1.207821293	-0.119737
C	-1.4499301562	-2.7693056073	 2.0776763285	-0.245036
C	-2.4254964882	-2.7780393633	 0.8508791715	-0.243166
C	-1.3359188903	-3.4466826121	 0.0092874152	-0.088364
H	 0.6607697651	 1.8806905193	 0.7710189754	 0.146595
H	 0.3616652316	 1.8770273743	-0.9729704185	 0.151369
H	-0.9968285654	 1.9182492373	 0.1557222513	 0.150731
H	 1.7385050223	-2.9063840563	-0.5883482402	 0.282876
H	 0.3392742774	-4.1856697149	 1.514646201	 0.086857
H	-1.7985466633	-3.413589073	 2.887591319	 0.103384
H	-1.1877622019	-1.7904739308	 2.4892754988	 0.104694
H	-3.2866814419	-3.4292063744	 1.0131934119	 0.104455
H	-2.7761238209	-1.8057094951	 0.4940167499	 0.106915
H	-1.4717659791	-4.2014926572	-0.7557257388	 0.097183
