20
gdb 109832	2.15478	1.37016	0.97134	3.8806	76.73	-0.2362	-0.0428	0.1933	1263.163	0.169052	-440.251162	-440.241376	-440.240432	-440.285948	35.441	
C	 0.0655901955	 1.3495958148	 1.0401946445	-0.416013
C	 0.2256160752	-0.0312638138	 0.4400400236	-0.013351
C	 0.5276876774	-0.2864676951	-1.005514389	-0.036949
C	 0.6905533092	 0.8145973815	-2.0373022196	-0.089736
O	 1.4625187448	 0.4054977233	-3.1453160344	-0.427858
N	 1.5254272773	-0.585207017	 0.0390029359	-0.120339
C	 2.7377407666	 0.2192425533	 0.1382061851	-0.226311
C	 3.7765104706	-0.5550461558	-0.6589133008	 0.167267
O	 3.9795923959	-0.3701882196	-1.8353120831	-0.236614
H	 0.3540680215	 1.3424110381	 2.0972595155	 0.125562
H	 0.6552822857	 2.1167868685	 0.5360256969	 0.12416
H	-0.9849327394	 1.6548949857	 0.9915585187	 0.130733
H	-0.3913007305	-0.7768225577	 0.9418269794	 0.095351
H	 0.1188813123	-1.1927284977	-1.4507294979	 0.101047
H	-0.3044667296	 1.0575648407	-2.4290873951	 0.11153
H	 1.080188367	 1.739735034	-1.5894448358	 0.082126
H	 2.3695249374	 0.2491018463	-2.8414563339	 0.298454
H	 2.6767610057	 1.2405186429	-0.2604930829	 0.110226
H	 3.0387206418	 0.2706843509	 1.1907342037	 0.115027
H	 4.3129006458	-1.3562615134	-0.111619131	 0.105687
