17
gdb 80276	2.59492	1.53539	1.28742	4.1035	67.76	-0.2614	0.0133	0.2747	1037.0542	0.135209	-458.990741	-458.982483	-458.981539	-459.023374	31.331	
C	-0.0811943788	 1.4967122686	 0.0845903947	-0.484113
C	-0.0205229207	-0.0085011944	-0.0039883299	 0.244431
C	-1.2603733815	-0.7949367281	-0.3854662298	-0.428715
C	-1.1791303282	-2.0986966083	 0.409764084	 0.434822
O	-1.9107767562	-3.0402595475	 0.3781993458	-0.326769
O	-0.0780683717	-2.06402458	 1.2337449635	-0.222188
C	 0.6537525384	-0.8754764451	 1.0402082624	-0.010735
C	 1.2848721815	-0.7132890052	-0.3236766918	 0.031805
O	 1.2456842515	-1.7673912899	-1.2321859839	-0.417881
H	 0.8570728338	 1.9105601391	 0.4672733396	 0.121328
H	-0.2623674899	 1.9430092373	-0.8994274145	 0.131529
H	-0.8855056423	 1.820068424	 0.7547320821	 0.125473
H	-2.1769521586	-0.2658114342	-0.1053250637	 0.135567
H	-1.3244676821	-1.0417278879	-1.4474900337	 0.156782
H	 1.1133309979	-0.5094046821	 1.9504797242	 0.112469
H	 2.171885042	-0.0814338403	-0.3764366807	 0.094525
H	 1.693472645	-2.5268035561	-0.8426548684	 0.301668
