18
gdb 77533	3.06896	1.30964	1.08653	3.7526	79.3	-0.2439	0.012	0.2559	1145.1299	0.148578	-398.07861	-398.070114	-398.06917	-398.111328	32.841	
C	 0.0134515915	 1.4519437002	 0.0791863906	-0.513979
C	-0.008188833	-0.041915723	-0.030979819	 0.304337
C	 0.5810604631	-0.9629532087	-1.1382969508	-0.301819
C	 0.0632841299	-1.8881054204	-0.01093998	 0.210833
N	 0.6203490175	-0.9456382703	 1.0427945079	-0.391534
C	 0.166458894	-3.3189852048	 0.0961543912	 0.147083
N	 0.2127098998	-4.4726165848	 0.1717812095	-0.350252
C	-1.2482133626	-0.9828305314	 0.0368579639	 0.014173
N	-2.0729777972	-0.8950946099	 1.1936769238	-0.530107
H	 1.0390475035	 1.8343424825	 0.1069104685	 0.124739
H	-0.4947462851	 1.9047755895	-0.778119256	 0.131446
H	-0.5020892754	 1.7704096138	 0.989742732	 0.146221
H	 0.0746824367	-1.0011766926	-2.1078175923	 0.10817
H	 1.668129175	-0.9338720042	-1.2468333714	 0.108701
H	 1.6415387913	-0.9175891816	 0.9574249408	 0.214082
H	-1.8487941372	-1.0324362977	-0.8738574744	 0.087641
H	-2.7615627754	-1.6385889729	 1.2206644806	 0.239953
H	-1.4972368365	-0.9510178737	 2.028583855	 0.250312
