22
gdb 112978	4.85388	0.78932	0.74946	1.5658	85.21	-0.21	0.0851	0.2951	1612.4919	0.193231	-404.292422	-404.282971	-404.282027	-404.327339	34.825	
C	 0.2824698524	 1.2920358233	 0.1859332006	-0.237124
O	-0.2297678273	 0.0415450194	-0.2129969131	-0.241862
C	 0.501916329	-0.5512369529	-1.2545996417	 0.132673
C	 1.8026551268	-1.293457064	-0.830737032	-0.201235
N	 1.0494010705	-2.5644167063	-0.8464145843	-0.065883
C	-0.0618768709	-1.9442120478	-1.5988473308	-0.193414
C	 1.6717197667	-3.7366830873	-1.3587504725	 0.058158
C	 2.4349510951	-4.6105868709	-0.3970084739	-0.274775
C	 1.1092619512	-5.0736367973	-0.9502140059	-0.275142
H	 1.3072103475	 1.2157825269	 0.579509863	 0.10673
H	 0.2880217152	 2.012913402	-0.6474665025	 0.10258
H	-0.3683568972	 1.6716279808	 0.9771747371	 0.128423
H	 0.6133309182	 0.1508090328	-2.0920136499	 0.065442
H	 2.5873416841	-1.2338638696	-1.6017934277	 0.08169
H	 2.2355801289	-1.0282061342	 0.1400972749	 0.103108
H	-1.0615739227	-2.158137228	-1.2084141742	 0.1118
H	-0.0384227364	-2.1532388794	-2.6795767446	 0.083582
H	 2.073089364	-3.669695793	-2.3778458192	 0.059737
H	 3.3409686186	-5.0913012282	-0.7484461714	 0.108552
H	 2.4567841119	-4.2904153598	 0.6379507894	 0.118524
H	 0.2582027407	-5.0600108734	-0.2795999239	 0.119602
H	 1.1030456536	-5.8726608531	-1.6830618573	 0.108832
