12
gdb 11153	5.91358	1.3676	1.11837	2.1411	63.86	-0.2466	-0.0616	0.185	960.1125	0.084672	-377.580878	-377.574071	-377.573127	-377.612074	24.759	
O	 0.0332685916	-0.0050542419	 0.0030756965	-0.351979
C	-0.0261027666	 1.1981945522	 0.0101518436	 0.411196
C	-1.2714663114	 2.1047569777	 0.0322300644	-0.380502
C	-0.7089660362	 3.4964425081	 0.0316848149	-0.216177
C	 0.6325948598	 3.4082775964	 0.0126114602	 0.283481
N	 1.0562638334	 2.0683923013	-0.0002644398	-0.395112
C	 1.5828296127	 4.4642051111	 0.0049617074	 0.226847
N	 2.3716508171	 5.311231375	-0.0015457288	-0.322321
H	-1.9009438874	 1.8884531629	-0.8387211692	 0.163556
H	-1.8764941332	 1.8792652042	 0.918053289	 0.163562
H	-1.2752054869	 4.4140191623	 0.0443524241	 0.1392
H	 2.0151811971	 1.7614143608	-0.0151877322	 0.278248
