17
gdb 39201	2.71844	2.23358	1.8849	2.3565	70.25	-0.2327	-0.0065	0.2262	812.0611	0.139697	-421.800209	-421.794347	-421.793403	-421.83005	25.322	
C	-0.0145478543	 1.5003907109	 0.1001392897	-0.085244
O	 1.3050777936	 2.0183791552	-0.0691011013	-0.256661
C	 2.0958061749	 1.2379214723	-0.9717653451	 0.027749
C	 1.5117279738	 1.3413481876	-2.3737005134	-0.08975
C	 0.5816165571	 0.3972368145	-2.5476959678	-0.099878
C	 0.5667887577	-0.5309093188	-1.364349251	-0.081374
C	 0.0242564703	-0.0282696049	 0.0273592054	 0.044967
O	 1.2686925774	-0.4326377286	 0.66208011	-0.284854
C	 1.8909854659	-0.2771547516	-0.628546948	 0.078958
H	-0.3463171668	 1.836229762	 1.0870753282	 0.115509
H	-0.7055742457	 1.9023125821	-0.656715504	 0.092732
H	 3.1174702504	 1.6031745897	-0.8565010963	 0.08234
H	 1.7314247383	 2.1610025266	-3.0472313987	 0.105955
H	-0.0716030883	 0.2970449797	-3.4067719271	 0.102781
H	 0.3096088512	-1.5722415573	-1.5597493717	 0.079733
H	-0.8548702936	-0.511256262	 0.4606935234	 0.082466
H	 2.7704914481	-0.9067609775	-0.7785880823	 0.084572
