17
gdb 112693	3.3231	1.07918	0.86518	2.1354	64.66	-0.2773	-0.0044	0.2729	1292.2702	0.135847	-496.138316	-496.12971	-496.128766	-496.172022	31.692	
O	-0.1118832959	 1.4540072435	-0.1521356794	-0.417834
C	 0.0029585961	 0.0526024953	-0.0497415006	-0.065518
C	-1.3522219471	-0.6358438848	-0.0348506755	 0.090898
C	-1.3223070294	-2.1661493331	 0.1020797783	-0.27927
C	-2.5987079673	-2.4392106223	 0.8958118838	 0.014724
O	-2.557644149	-3.5916272535	 1.6904735569	-0.434942
C	-2.7223762478	-1.1743368255	 1.7446620836	 0.406649
O	-3.2930930571	-1.085166015	 2.7953343695	-0.35296
O	-2.0629295171	-0.1588991747	 1.1486908298	-0.242198
H	-0.625172121	 1.7518460045	 0.6075848304	 0.297688
H	 0.5659268159	-0.2863522342	-0.9262182401	 0.12021
H	 0.5632078464	-0.251857528	 0.8487527155	 0.100012
H	-1.9331687774	-0.3130083084	-0.9063290752	 0.106568
H	-1.2833078881	-2.6694455462	-0.86479212	 0.126244
H	-0.4619526603	-2.485484106	 0.7005559681	 0.128149
H	-3.4670637516	-2.4542745092	 0.2130014503	 0.103144
H	-3.0532126094	-3.3816991224	 2.4949843045	 0.298436
