21
gdb 8422	3.3668	1.8132	1.53153	1.0329	78.54	-0.2248	0.0806	0.3054	949.3635	0.187743	-329.081777	-329.073292	-329.072348	-329.113803	33.184	
C	-0.1166476709	 1.5019810651	-0.3422161012	-0.314091
N	 0.1570362511	 0.10138192	-0.0660113286	-0.080009
C	 1.4322394076	-0.5341615619	-0.2781790589	-0.039276
C	 2.6275116492	 0.3311296035	 0.1731983311	-0.312834
C	 2.0546562547	 0.3276956012	 1.6362411052	 0.318425
C	 2.8673808147	-0.6186832487	 2.5277699241	-0.425648
C	 1.845886307	 1.6613537721	 2.3547972743	-0.455903
C	 0.8126804809	-0.439510039	 1.0991769085	-0.079412
H	 0.7533278925	 2.1705183408	-0.3019153957	 0.107469
H	-0.5426009116	 1.5746264119	-1.3487377593	 0.119012
H	-0.8654810111	 1.868876005	 0.3663755463	 0.122547
H	 1.4882053883	-1.378900597	-0.9573259276	 0.087925
H	 3.5860101871	-0.1875455532	 0.0971389005	 0.100621
H	 2.7244218182	 1.3043496688	-0.3176207785	 0.095914
H	 3.853251351	-0.1954544462	 2.7500725135	 0.111421
H	 2.3559670935	-0.7940543574	 3.4816919674	 0.110529
H	 3.0161693872	-1.5910154032	 2.0466178665	 0.113704
H	 1.2972781492	 2.3879564641	 1.7537225284	 0.114432
H	 1.2877663775	 1.5132826791	 3.2867337664	 0.112722
H	 2.8106571602	 2.1102586368	 2.6201857475	 0.110516
H	 0.2805214836	-1.195954942	 1.6710224701	 0.081934
