21
gdb 120496	3.10761	0.89427	0.80753	1.2674	76.06	-0.2479	0.051	0.2989	1527.955	0.179794	-461.328634	-461.318235	-461.317291	-461.3654	36.593	
C	 0.2401148085	 1.2982730924	-0.1219915017	-0.225807
O	 0.1000534501	-0.0958676732	 0.0074797046	-0.231502
C	 0.750368964	-0.608398779	 1.1459009404	-0.061381
C	 0.5758731574	-2.1118970358	 1.167596077	 0.079666
O	 1.4381793195	-2.8186555318	 0.246008366	-0.311008
C	 1.9214678614	-3.7064289946	 1.282903077	 0.117606
C	 3.4336168653	-3.7877591513	 1.3314408154	-0.405605
C	 1.1660612527	-2.8923571071	 2.3721420897	 0.04744
O	 1.922707213	-2.1788156905	 3.3202516741	-0.424857
H	 1.2957963577	 1.5955587912	-0.2259381822	 0.104353
H	-0.3007839194	 1.5986295383	-1.022492089	 0.129404
H	-0.1823796702	 1.8342089108	 0.7432576036	 0.102671
H	 1.8234590937	-0.3518946192	 1.1266326564	 0.071455
H	 0.3251322629	-0.184139384	 2.0721311381	 0.097472
H	-0.4798015164	-2.3419441946	 0.9698958963	 0.083566
H	 1.4993521351	-4.7134358784	 1.1541756509	 0.07584
H	 3.8920052195	-2.801699896	 1.4609466614	 0.103046
H	 3.7601521907	-4.4349874243	 2.1513463363	 0.127794
H	 3.8108709736	-4.2010815099	 0.3913815986	 0.13499
H	 0.4367425028	-3.4611198062	 2.951503896	 0.097538
H	 2.6517440583	-1.7384851871	 2.871372221	 0.28732
