14
gdb 28547	3.27152	1.36268	0.96199	2.7337	68.1	-0.208	-0.0103	0.1977	1117.9993	0.102107	-473.893345	-473.885795	-473.884851	-473.925008	29.54	
O	 0.0398251402	 1.360946064	-0.1127119556	-0.451124
C	 0.0620651342	-0.0002309802	-0.0524602886	 0.267228
C	 0.0237532634	-0.7643289882	-1.2048131154	-0.074555
N	 0.0429344328	-2.1065259824	-1.2058815667	-0.374965
C	 0.1017829125	-2.7243236981	-0.0376737154	 0.442332
O	 0.1213426125	-4.0784304394	-0.0400626318	-0.428046
C	 0.1451686243	-2.0639551747	 1.1949591257	-0.368686
C	 0.1244656802	-0.6805157224	 1.1760783379	 0.310844
O	 0.1606999718	 0.10869915	 2.2859877938	-0.458317
H	 0.0742697696	 1.696270811	 0.7911610095	 0.307854
H	-0.0246846246	-0.2668053296	-2.1689741578	 0.120155
H	 0.0851903579	-4.3359433329	-0.9714595047	 0.296146
H	 0.1929594578	-2.6266298613	 2.1206604921	 0.102081
H	 0.2028691074	-0.4375037557	 3.0775531669	 0.309052
