18
gdb 17977	2.68718	2.43812	1.50568	0.7667	64.62	-0.2421	0.0962	0.3382	868.0675	0.155712	-422.057592	-422.050379	-422.049435	-422.088869	27.599	
C	-0.0353031081	 1.4025748426	 0.0485720935	-0.087895
C	 1.3992489305	 1.9516346525	 0.0108319099	-0.072238
O	 2.2494125749	 1.3549129263	-0.9554553079	-0.219866
C	 1.9170925973	 1.5545507898	-2.2956882601	 0.001655
O	 0.7176201212	 0.9355306639	-2.6899247222	-0.246657
C	 0.6019786987	-0.4361511678	-2.3158762799	-0.085579
C	-0.4279762586	-0.5995429012	-1.1996970643	-0.071524
O	-0.0652521535	-0.0143499095	 0.0344868805	-0.243041
H	-0.4910137071	 1.7372701195	 0.9911253251	 0.097031
H	-0.6297954792	 1.8099598624	-0.7758699464	 0.108961
H	 1.3574530931	 3.0452949035	-0.1268433979	 0.086881
H	 1.8897051505	 1.7484917565	 0.9670725516	 0.116923
H	 1.7777113827	 2.6198312948	-2.5320777464	 0.096782
H	 2.7722369855	 1.1523406134	-2.8573010872	 0.100582
H	 0.2610217436	-0.9968927601	-3.1962232593	 0.099667
H	 1.5692782974	-0.8371130496	-1.9949330543	 0.116992
H	-1.3899324806	-0.1911243083	-1.5488222529	 0.095719
H	-0.5684235783	-1.6676722888	-0.997967272	 0.105609
