21
gdb 91363	2.09537	1.99939	1.4324	2.2427	77.24	-0.231	0.0701	0.3011	1017.8223	0.18462	-424.238198	-424.230218	-424.229273	-424.27018	32.495	
C	-0.079613733	 1.5506065405	-0.0827524958	-0.404254
C	 0.0126102757	 0.0371730699	 0.0342948549	 0.162642
O	 0.6446298955	-0.5167822341	-1.1481904526	-0.301072
C	 1.6027867466	-1.4779213735	-0.6899071476	 0.116054
C	 2.825225204	-0.7090805787	-0.151053377	-0.264088
C	 2.2875868336	-0.1747121333	 1.2197127118	 0.143791
O	 2.4340643003	 1.2180833102	 1.4348033939	-0.436919
C	 0.8051391363	-0.6098187634	 1.1934740131	-0.078457
C	 0.963687654	-2.0286986364	 0.5962078746	-0.241039
H	 0.904245607	 2.0096638168	-0.1601901642	 0.135299
H	-0.6693318278	 1.8066738542	-0.9685499584	 0.111997
H	-0.585476909	 1.9670952978	 0.7948148638	 0.106767
H	-1.0146025881	-0.3598795541	 0.0839432423	 0.065459
H	 1.803622433	-2.1788652147	-1.5015050066	 0.069855
H	 3.7022466323	-1.3529394047	-0.0275245388	 0.088727
H	 3.0844452905	 0.1146772563	-0.8210859181	 0.108715
H	 2.7764933287	-0.7186931736	 2.0423190451	 0.066439
H	 3.3748000514	 1.4196377716	 1.4401638257	 0.282899
H	 0.3041620472	-0.53003823	 2.1592045379	 0.067743
H	 0.0136235293	-2.5371788425	 0.4170559521	 0.104898
H	 1.6245226924	-2.6807189284	 1.1740858437	 0.094542
