15
gdb 129935	3.22255	1.39094	1.00088	2.5867	71.36	-0.1905	0.0023	0.1929	1111.1712	0.115655	-450.166905	-450.15901	-450.158066	-450.199451	29.763	
N	 0.6165472403	 0.8985053179	-0.9097678948	-0.627897
C	 0.2188991758	-0.2909252292	-0.2992165959	 0.124892
C	-1.0595383497	-0.8039724936	-0.1557712806	-0.090491
N	-0.9553853668	-1.9186899937	 0.6188849844	-0.192398
N	 0.3034919221	-2.1901110929	 0.9816459553	-0.307319
C	 1.0210324938	-1.2118734552	 0.4295327527	 0.393659
N	 2.4035010799	-1.2102334129	 0.688229836	-0.382325
C	 3.4043627527	-0.7142338112	-0.0825296017	 0.147487
O	 3.2808371828	-0.1065780513	-1.1304180493	-0.328294
H	 1.5612193555	 0.8190915993	-1.2803323343	 0.272885
H	-0.0284059812	 1.2049906912	-1.6259022128	 0.235002
H	-2.0081443244	-0.4503515794	-0.5263589835	 0.124856
H	-1.6919601518	-2.5317357488	 0.9193753102	 0.275955
H	 2.6728888842	-1.7760353952	 1.480409407	 0.26433
H	 4.3928587969	-0.921462545	 0.3667703972	 0.089656
