18
gdb 85638	2.3351	1.39458	1.02188	2.4653	78.09	-0.2266	-0.0266	0.2	1208.4833	0.146516	-401.932276	-401.923357	-401.922413	-401.966166	33.518	
C	-0.0246625501	 1.5850728358	 0.0360853239	-0.415117
C	 0.0761231492	 0.0703580264	-0.0556372746	 0.054826
C	 0.9010728873	-0.4633263538	-1.2436243987	-0.344073
C	 1.4966267104	-1.7760854406	-0.7313808866	 0.398652
O	 2.1472426198	-2.5747854316	-1.344009575	-0.297444
C	 1.1377301516	-1.8582522349	 0.7913852695	-0.314492
N	 0.7041385166	-0.501775503	 1.1596794639	-0.290797
C	 0.0783071736	-2.8462147724	 0.9821931316	 0.384177
C	-0.7984643831	-3.6609425912	 1.0907701642	-0.460246
H	 0.9717672469	 2.0425307145	 0.0779103586	 0.1119
H	-0.542159096	 1.9952382531	-0.8358367756	 0.125459
H	-0.5740957923	 1.8793166452	 0.9347429171	 0.133806
H	-0.9347785389	-0.3528346356	-0.1108808229	 0.102222
H	 0.3430644498	-0.6281932454	-2.1690305633	 0.136303
H	 1.7317489224	 0.21503766	-1.4800658316	 0.128293
H	 2.0266310652	-2.1550868742	 1.3567211942	 0.125302
H	 1.5328954582	 0.0446565233	 1.3829271623	 0.218362
H	-1.5680112505	-4.3837934655	 1.205717473	 0.202869
