21
gdb 112737	2.43986	1.20339	0.92146	2.2021	78.77	-0.2559	0.0724	0.3283	1334.052	0.180971	-424.191247	-424.181668	-424.180724	-424.225812	35.611	
C	 0.0242445795	 1.6064945235	-0.079786623	-0.417217
C	 0.0804474005	 0.0928032156	 0.0537809728	-0.050692
C	 1.0313943148	-0.728013722	-0.8728443178	-0.250756
C	 1.424285957	-1.6251699654	 0.3389764612	-0.049714
C	 2.8763249103	-2.0131813653	 0.5225587917	-0.105582
O	 3.2156303643	-2.9222561473	-0.5148147373	-0.4212
C	 0.8168467165	-0.5441973857	 1.2397162868	 0.420989
C	 1.3999379628	 0.1106763963	 2.4153036899	-0.267356
O	 0.2647899326	-0.7602141779	 2.524567114	-0.277758
H	 1.0276396427	 2.0448288079	-0.042315625	 0.110946
H	-0.4325979828	 1.8997249165	-1.0310171711	 0.118202
H	-0.5707442757	 2.0539655475	 0.7240584724	 0.122006
H	-0.9320098605	-0.3262534138	 0.0108826321	 0.086205
H	 0.5831428414	-1.2259733934	-1.7332013624	 0.10742
H	 1.8792753108	-0.1264966016	-1.2160836284	 0.09898
H	 0.8047029308	-2.5280267335	 0.3697794489	 0.093304
H	 3.5076598541	-1.109945528	 0.4839706081	 0.07942
H	 3.0148229927	-2.4705612461	 1.5161785543	 0.091302
H	 4.1376351033	-3.173172267	-0.4064347954	 0.286734
H	 2.3216699627	-0.2688567778	 2.8551304796	 0.111106
H	 1.1999453223	 1.1643251375	 2.6059430286	 0.113658
