12
gdb 4398	4.01835	2.0544	1.37093	4.1879	58.54	-0.2875	-0.0845	0.203	828.0192	0.084058	-414.725565	-414.718778	-414.717834	-414.757099	23.722	
C	-0.0156856589	 1.476707802	 0.0631392967	-0.473086
C	-0.0047289695	-0.0090598987	-0.0639048651	 0.440748
N	-0.1089007293	-0.6096735656	-1.2070944621	-0.313958
C	-0.0802467671	-1.9792906896	-1.1297494452	 0.086294
N	 0.036211392	-2.7185088593	-0.0707067076	-0.303118
C	 0.1476948019	-2.0839870495	 1.1447534917	 0.454674
O	 0.2625336136	-2.5756023681	 2.2206898054	-0.31046
O	 0.1207914513	-0.640632698	 1.1007701112	-0.22276
H	 0.9104718647	 1.815144527	 0.538096467	 0.166601
H	-0.1199811566	 1.9293724884	-0.9215428975	 0.163501
H	-0.8416958853	 1.787379772	 0.7105769445	 0.166623
H	-0.1673001768	-2.4945564505	-2.0848798889	 0.144942
