15
gdb 1332	4.74434	1.71729	1.60716	4.244	59.3	-0.2462	-0.0197	0.2265	812.5437	0.122453	-345.650338	-345.642702	-345.641758	-345.681809	27.803	
C	-0.0577884855	 1.5778068608	-0.1143799936	-0.451764
C	 0.006355658	 0.0704768717	-0.0098768725	 0.40021
O	-1.1697998574	-0.5763265949	-0.4185487073	-0.456955
C	 1.2892104484	-0.6703379137	-0.2016213727	-0.355676
C	 0.6331460438	-0.6345216987	 1.1850293269	-0.128652
C	 1.2966846483	 0.1072422345	 2.2794500458	 0.159863
O	 1.2270478753	-0.1918510082	 3.4461720557	-0.266228
H	 0.8645848446	 2.0556883066	 0.2244445219	 0.124097
H	-0.2162247802	 1.8724769795	-1.1589975681	 0.114573
H	-0.8913165426	 1.9672241009	 0.4773293954	 0.139455
H	-1.2655756367	-0.4408834492	-1.3685216125	 0.284915
H	 1.258391438	-1.6221604178	-0.7184779675	 0.129518
H	 2.2050345176	-0.1008234462	-0.3289509007	 0.12141
H	 0.1099267746	-1.52934115	 1.5016791442	 0.122024
H	 1.9055977637	 0.9820622346	 1.9514275949	 0.063208
