16
gdb 14226	5.06938	1.73322	1.55413	0.435	63.94	-0.2249	0.0718	0.2967	844.2067	0.129745	-383.667813	-383.660824	-383.659879	-383.698519	27.446	
C	-0.0719097235	 1.4076900337	 0.0018879521	-0.505192
C	 0.027774255	-0.0784720199	 0.014145426	 0.468473
O	-1.1460115554	-0.859654304	-0.2757654191	-0.327823
C	-0.4022004941	-2.0011762342	 0.2247963979	 0.012399
C	 0.6162583565	-1.0634153915	 0.9646115255	-0.18241
C	 1.2471058031	-0.9102532293	-0.4247928397	-0.171627
C	 0.6703894091	-2.2411169494	-0.8810429802	 0.119453
O	 1.572748903	-3.284439882	-0.5783395529	-0.433782
H	 0.8812444842	 1.8528366319	 0.3022412673	 0.128127
H	-0.3187152493	 1.7729279235	-1.0006008482	 0.133881
H	-0.8476700161	 1.7493954869	 0.6940493395	 0.132889
H	-1.0196087023	-2.7994686122	 0.6344975583	 0.080803
H	 1.0164995093	-1.0026303142	 1.9665193896	 0.099489
H	 2.1999898806	-0.4701570369	-0.6897289343	 0.093091
H	 0.28382541	-2.3166239442	-1.9072894952	 0.068214
H	 1.1313231699	-4.1181992582	-0.7709919966	 0.284015
