20
gdb 5839	3.11298	1.38632	1.22719	3.7822	71.34	-0.2371	-0.0075	0.2295	1100.2709	0.173102	-386.155071	-386.144968	-386.144024	-386.189783	36.534	
C	 0.0786679427	 1.5117408796	 0.0743304643	-0.397179
C	-0.0327212161	-0.0187023757	-0.0144511497	 0.148988
C	 0.6658009008	-0.6675696953	 1.1956625539	-0.425063
C	-1.5264904621	-0.4253042405	-0.0326106892	-0.405326
C	 0.5657607299	-0.4843475731	-1.3602119425	 0.375559
O	 0.610638312	 0.2429301337	-2.3210367059	-0.29584
C	 1.069096112	-1.9267811452	-1.4499830529	-0.18603
O	 1.3527618727	-2.236331601	-2.7897832327	-0.395096
H	 1.1252936471	 1.8289297416	 0.1201373298	 0.113696
H	-0.3708806548	 1.9840618477	-0.8005526582	 0.136801
H	-0.4272882359	 1.8752492696	 0.9746226653	 0.10322
H	 0.2191495975	-0.2926617328	 2.1225370016	 0.118638
H	 0.5625265841	-1.7567793613	 1.2058265716	 0.114293
H	 1.7332374578	-0.4243986188	 1.2237442417	 0.119207
H	-2.0436999399	 0.0317171354	-0.8811649963	 0.134067
H	-1.656098972	-1.5105607084	-0.0981551901	 0.113121
H	-2.014629713	-0.0870733116	 0.8875580129	 0.118154
H	 1.9592585338	-2.0061756109	-0.8029328308	 0.112043
H	 0.309518293	-2.5966836799	-1.0133711545	 0.106003
H	 1.7207553703	-3.1243235431	-2.8154867885	 0.290743
