20
gdb 39460	2.60255	1.70557	1.22237	1.2985	80.54	-0.2149	0.0083	0.2232	1064.6751	0.173085	-403.102182	-403.094401	-403.093457	-403.134256	30.929	
C	 0.226670173	 1.262807675	-0.6703034248	-0.253817
C	 1.2791153312	 0.5286781177	 0.0810770852	 0.017497
C	 1.8575037445	 1.0208999632	 1.399465211	-0.119857
O	 0.8977754321	 1.5192692278	 2.3171364161	-0.242932
C	 0.6952213832	 0.6941706623	 3.4528923389	-0.136422
C	 0.1392741492	-0.6814970821	 3.1697641011	-0.054218
C	-0.5744101767	-1.0460030267	 2.1051140342	-0.058682
C	-1.0087494047	-0.1155899244	 1.0008828045	-0.195019
N	-0.0425481286	-0.0644413523	-0.1126625382	-0.096594
H	-0.2310591936	 2.1133135734	-0.1668834908	 0.117374
H	 0.2617058713	 1.3376658748	-1.7546178306	 0.108083
H	 2.0492124068	 0.0263399053	-0.5075714983	 0.085641
H	 2.4389605603	 0.2110451109	 1.8596855949	 0.102074
H	 2.5622877377	 1.8349385341	 1.1773687681	 0.109
H	 1.6410345565	 0.5833325162	 4.0095346536	 0.099782
H	 0.0167317616	 1.2591246796	 4.1052601136	 0.123379
H	 0.3793528733	-1.4275395073	 3.9254139003	 0.089432
H	-0.8698212027	-2.0880785791	 2.010929929	 0.094875
H	-1.9477693837	-0.4821774808	 0.5699586342	 0.099497
H	-1.2052884708	 0.8780210125	 1.4173291381	 0.110908
