18
gdb 56895	3.35268	0.98833	0.80595	4.5745	72.87	-0.2625	0.007	0.2695	1407.5766	0.146018	-439.076567	-439.067111	-439.066167	-439.111645	33.724	
C	-0.5778279758	 1.3496353152	 0.1294142311	-0.399356
C	 0.1898526652	 0.0512448188	 0.0042570384	 0.168874
C	 0.9066763219	-0.2532646269	-1.333073007	-0.324242
C	 2.1888128429	-0.2571719523	-0.4823846215	 0.128481
O	 1.4678771632	 0.0955873364	 0.7066217429	-0.302448
C	 2.8758956066	-1.6273081866	-0.3499508322	-0.039042
O	 3.4242230516	-2.0555561922	-1.5820294441	-0.408881
C	 3.8938582533	-1.5988380493	 0.7180797496	 0.262544
N	 4.7289023745	-1.5549839861	 1.5153915187	-0.313567
H	 0.0088432685	 2.1893806676	-0.2556395972	 0.122393
H	-1.5168950574	 1.291777286	-0.431921129	 0.120594
H	-0.8180054393	 1.5502988399	 1.1779735273	 0.134724
H	-0.4144439614	-0.7845042729	 0.3805429678	 0.084486
H	 0.6624196436	-1.200298571	-1.8165023553	 0.123918
H	 0.8502456042	 0.5509236608	-2.0683610927	 0.115055
H	 2.9445037558	 0.497321111	-0.7415242524	 0.086065
H	 2.1182099371	-2.3708739797	-0.0807347654	 0.141031
H	 4.1787958457	-1.4928819288	-1.7920371291	 0.299373
