19
gdb 91569	2.82622	1.24332	1.02647	1.8271	81.09	-0.2445	0.0534	0.2979	1215.7522	0.157543	-385.822894	-385.813816	-385.812871	-385.856971	34.483	
O	 0.1173338312	 1.3863155456	-0.0272987238	-0.427781
C	 0.1029292175	-0.0145178367	 0.1277830994	 0.050635
C	 0.1799635306	-0.6140267389	 1.5778051944	-0.267175
C	-1.1926666608	-1.251916282	 1.3474284188	-0.12416
C	-2.1969635384	-0.1769044671	 1.0353020099	-0.311669
C	-1.2774047803	-0.6415764812	-0.0585157564	 0.391393
C	-1.7770300578	-1.2529390693	-1.3488796606	-0.48785
C	-2.1660053771	-0.2627979633	-2.3511687991	 0.328805
C	-2.481873796	 0.5572176523	-3.1707169604	-0.459502
H	 1.0183586923	 1.6962676237	 0.108545458	 0.282891
H	 0.841304527	-0.4929128742	-0.531386645	 0.066529
H	 0.9961525158	-1.3306498775	 1.6962053313	 0.097961
H	 0.2280112896	 0.1249636704	 2.3842593473	 0.096676
H	-1.4891119379	-2.2448423798	 1.6637366856	 0.085864
H	-3.2248976566	-0.510380346	 0.932300665	 0.110337
H	-2.0872054565	 0.8184627092	 1.4557030631	 0.121004
H	-1.0027210171	-1.9085069017	-1.7711759231	 0.124955
H	-2.6344062359	-1.9029355157	-1.1292426371	 0.127643
H	-2.7594641199	 1.2862104323	-3.8907248272	 0.193443
