23
gdb 75304	2.30464	1.84141	1.24228	0.1837	90.75	-0.2184	0.0308	0.2492	1118.446	0.207262	-351.168336	-351.159948	-351.159004	-351.200433	34.696	
C	-0.0447740264	 1.5085975976	 0.0140784465	-0.502319
C	-0.0054659156	 0.0057999193	 0.0017942188	 0.303105
C	-0.0182584153	-0.7050364225	-1.130708106	-0.159697
C	 0.0225067759	-2.2132958002	-1.0931529536	-0.252319
C	 0.075766194	-2.6962522026	 0.3636451381	-0.023953
C	 1.1453196151	-1.8887310116	 1.1508926273	-0.242994
C	 0.0519470396	-0.7812482707	 1.3195364979	 0.245441
C	 0.0653210122	 0.0544441759	 2.5893515281	-0.49569
C	-0.9893591763	-1.9449444705	 1.2103107078	-0.242999
H	 0.8360916463	 1.9369274032	 0.5080579437	 0.122378
H	-0.0832876683	 1.9032981317	-1.004882718	 0.116618
H	-0.9184753605	 1.8906150893	 0.5564138639	 0.122383
H	-0.0582033541	-0.211623054	-2.098925525	 0.07288
H	-0.8579735176	-2.6328525201	-1.60140145	 0.099118
H	 0.8942193578	-2.5867173055	-1.6501654733	 0.099118
H	 0.1062440461	-3.7866672343	 0.4270562778	 0.055303
H	 1.3804108502	-2.3633630685	 2.1087636219	 0.086304
H	 2.0709315429	-1.6131660788	 0.6378840808	 0.08796
H	 0.9341987861	 0.7203687015	 2.6318081458	 0.113689
H	-0.8334352091	 0.6741738491	 2.6808645294	 0.113686
H	 0.1067502833	-0.5980182821	 3.4675755694	 0.107725
H	-1.9552650132	-1.7191921951	 0.7499490232	 0.08796
H	-1.1455573433	-2.4298843511	 2.1790704856	 0.086304
