17
gdb 1320	4.81793	1.84886	1.65677	0.9315	71.46	-0.2376	0.0512	0.2888	825.8861	0.146088	-272.548325	-272.540333	-272.539389	-272.579699	30.183	
C	-0.0763020802	 1.5339460946	-0.0398395692	-0.452679
C	 0.0030452371	 0.0213308499	-0.0134519316	 0.342029
C	-1.2383385708	-0.685454643	-0.5225191812	-0.448106
C	 1.3344165333	-0.6300407157	-0.2622374194	-0.320305
C	 0.7421693548	-0.656093565	 1.1441053355	-0.233675
C	 1.3438038343	 0.0975241567	 2.2034200801	 0.33031
C	 1.842411346	 0.7228313163	 3.1031006267	-0.460593
H	 0.8218569229	 1.9913801792	 0.3812064984	 0.129173
H	-0.1957316726	 1.8933553026	-1.0683919936	 0.112787
H	-0.9345016069	 1.8911351195	 0.5406069523	 0.118148
H	-1.4385270469	-0.415405154	-1.5660965178	 0.117406
H	-1.1303763234	-1.7736261768	-0.4754989858	 0.113558
H	-2.1195212104	-0.4085337237	 0.0673103747	 0.119985
H	 1.3654676953	-1.5707207667	-0.8020136311	 0.112482
H	 2.1971926066	 0.0085091089	-0.4153696566	 0.12126
H	 0.3278187487	-1.6110531103	 1.4566974774	 0.106644
H	 2.2834005421	 1.2729942177	 3.8965303712	 0.191577
