20
gdb 79915	2.42002	1.59137	1.32836	2.6631	80.53	-0.2168	0.0052	0.222	1075.0659	0.170214	-403.120954	-403.111902	-403.110957	-403.154138	34.451	
C	-0.2057043401	 1.5063639123	-0.1781335266	-0.302074
N	 0.0388766059	 0.08640361	 0.0321937503	-0.093382
C	 1.3552300604	-0.536254877	-0.1579619494	-0.071843
C	 2.5662562836	 0.3419952764	-0.1180036794	-0.192599
C	 2.712246889	 0.9368992069	 1.0696523735	 0.290029
C	 3.7184101785	 1.9632962051	 1.4801613041	-0.511381
C	 1.6426914727	 0.4514312752	 2.049894053	 0.005899
O	 0.9047413943	 1.4976367588	 2.6778485018	-0.427065
C	 0.7268842512	-0.4329255728	 1.2016735954	-0.054084
H	 0.6316260828	 2.1665348307	 0.074739292	 0.108661
H	-0.4659793293	 1.6551114483	-1.2315995887	 0.1094
H	-1.0621909617	 1.8002869739	 0.434253875	 0.127363
H	 1.3582463946	-1.4469239405	-0.7503444425	 0.087228
H	 3.2025255401	 0.508384586	-0.9811536775	 0.092443
H	 4.3961896677	 2.2168722136	 0.6611422165	 0.130646
H	 3.2235962213	 2.8873396025	 1.8051852363	 0.129937
H	 4.3247995581	 1.6134042444	 2.3267998557	 0.122245
H	 2.112327094	-0.1811944795	 2.8229378676	 0.073752
H	 1.4763394947	 1.9199960527	 3.326443222	 0.286247
H	 0.2360347223	-1.2663048669	 1.6958184109	 0.088578
