17
gdb 44939	2.66864	1.82197	1.56936	4.3094	71.19	-0.2588	-0.0088	0.25	915.1212	0.139505	-421.885305	-421.878723	-421.877779	-421.916135	26.882	
O	-0.0157408412	 0.0041826897	-0.0950057375	-0.348264
C	 0.0130074681	 1.1985373071	-0.0398773431	 0.443988
O	-1.1173984219	 1.9641529528	 0.0001765618	-0.231184
C	-0.7167300336	 3.3552633646	 0.1902936106	 0.050176
C	 0.6214708636	 3.4215729882	-0.5593015506	-0.242787
C	 1.2316383787	 2.1323854237	 0.0075122292	-0.16992
C	 1.6511230553	 2.3552787374	 1.4811449728	-0.266513
C	 0.6118954398	 3.1388599786	 2.2481655504	-0.050297
C	-0.4894628639	 3.6139299293	 1.6660807249	-0.060823
H	-1.5130695495	 3.96848531	-0.2301719413	 0.091933
H	 0.4675245078	 3.351253722	-1.6399128143	 0.114936
H	 1.1904658519	 4.3254360516	-0.3329421997	 0.112761
H	 2.0503482735	 1.7044373085	-0.571031186	 0.099762
H	 1.8322889859	 1.3903550271	 1.9702866531	 0.136308
H	 2.6107235618	 2.8903828057	 1.5067545868	 0.117791
H	 0.7942326576	 3.2978636307	 3.3077316488	 0.101839
H	-1.2426918238	 4.157150703	 2.2264421741	 0.100291
