18
gdb 78404	2.61547	1.68249	1.44027	1.1137	75.11	-0.2281	-0.0307	0.1974	979.0194	0.147455	-401.883521	-401.87587	-401.874926	-401.915379	30.297	
C	-0.0641013241	 1.5460182017	 0.0853383093	-0.45598
C	 0.0535337922	 0.0402172609	-0.0489376154	 0.026824
C	 0.4493506039	-0.778042832	-1.2088040205	-0.069851
C	 1.6993195414	-0.3255623667	-2.0006541479	-0.161802
C	 2.4640202993	-0.3881177912	-0.6574217275	 0.025218
C	 2.8819106542	 1.1022997579	-0.771431014	-0.369782
C	 2.0683088464	 1.1735004438	-2.0922219285	 0.390546
O	 1.899993546	 2.0256593355	-2.9142328515	-0.301439
N	 1.2346563056	-0.8491445408	 0.1078485902	-0.177014
H	 0.4293084357	 2.1183934234	-0.6977956171	 0.154232
H	-1.1269842472	 1.8058222489	 0.0465350382	 0.127828
H	 0.3174607241	 1.8792652832	 1.0563325283	 0.131014
H	-0.7453918401	-0.4492708231	 0.5093542377	 0.108391
H	-0.1456097734	-1.6214627481	-1.5482107368	 0.103182
H	 1.9382262799	-0.9397217691	-2.8686882966	 0.099758
H	 3.2682565762	-1.1013048308	-0.4856730522	 0.095497
H	 2.629544478	 1.8003056682	 0.0268020933	 0.13762
H	 3.9530610521	 1.1999427685	-0.9846882989	 0.135758
