21
gdb 77945	2.54847	1.5851	1.12621	1.5301	84.82	-0.208	0.0787	0.2867	1156.6779	0.182254	-383.157429	-383.14884	-383.147895	-383.189958	34.077	
C	-0.0675807268	 1.5255609409	-0.0810439811	-0.436818
C	-0.0400412792	 0.0649258216	 0.3282735568	 0.064996
C	 1.0152094267	-0.9059114836	-0.2993163407	-0.151334
N	 2.0580607849	-0.1515766471	 0.509369577	-0.102509
C	 3.343423552	-0.7952606185	 0.7752577643	-0.340436
C	 0.9105067368	-0.4109689462	 1.4758828729	-0.131974
C	 0.7386761612	-1.8327899295	 0.9023998306	 0.441393
C	-0.1806979458	-2.9596783101	 1.1368595081	-0.352693
N	 1.2915854512	-3.0955528911	 1.3348955628	-0.399706
H	 0.9429619511	 1.9318235492	-0.1347317476	 0.138678
H	-0.5478062766	 1.6421170968	-1.0590568557	 0.108988
H	-0.6472649171	 2.1146276713	 0.6383873445	 0.110426
H	-1.0426203071	-0.3662478457	 0.3877527114	 0.071587
H	 1.1687596789	-1.1596120382	-1.351159148	 0.073343
H	 3.9293164874	-0.7952564725	-0.150577694	 0.113052
H	 3.886212444	-0.1836077021	 1.5041537985	 0.119229
H	 3.2936710239	-1.8200084689	 1.1635267474	 0.125005
H	 0.9437181698	-0.0833611931	 2.5162427003	 0.0811
H	-0.7641677732	-3.0240215846	 2.0512183215	 0.122107
H	-0.6325448255	-3.4464850396	 0.2759566218	 0.113482
H	 1.7040682435	-3.5990914391	 0.5528010292	 0.232083
