13
gdb 129088	3.08558	1.48582	1.00289	0.4628	78.73	-0.2358	-0.0654	0.1704	1080.9405	0.08908	-415.545582	-415.538158	-415.537214	-415.577655	27.954	
N	-0.0536642675	 1.3122636983	-0.2049448059	-0.51901
C	-0.0175188538	 0.0426987697	-0.0339523368	 0.194013
C	 1.2049164216	-0.7493176074	 0.1622700723	 0.001545
N	 1.3112782431	-2.0162468363	 0.3381243048	-0.065532
O	 0.124343147	-2.7479142605	 0.3464831098	-0.23363
C	-1.0530026884	-2.121815511	 0.1756262758	 0.032891
C	-1.2202914143	-0.7913954981	-0.0131889758	 0.001556
C	-2.5156965393	-0.2420288842	-0.1827115672	 0.251256
C	-3.6177733463	 0.2192575752	-0.3260435915	-0.382168
H	 0.8905549482	 1.7045427615	-0.1864680936	 0.21739
H	 2.163338153	-0.2327001281	 0.1653521253	 0.143468
H	-1.8708903152	-2.8313308686	 0.2086061969	 0.158402
H	-4.5845904179	 0.6394352996	-0.4536223142	 0.199819
