16
gdb 56735	2.07774	1.46627	1.27095	2.4526	71.03	-0.2563	-0.0418	0.2145	1085.3938	0.121702	-437.821511	-437.812474	-437.81153	-437.855369	33.179	
O	 0.3721770918	 1.5704055338	-0.0868321593	-0.410862
C	 0.1107725234	 0.1856397243	 0.0082956425	-0.167559
C	 0.4836267922	-0.5518404723	-1.2088933586	 0.318453
C	 0.7906258992	-1.1569539735	-2.2005951606	-0.453577
C	 0.7861609458	-0.4281904455	 1.2392111533	 0.216712
C	 0.0101741537	-0.5148191648	 2.518507145	-0.276305
N	 0.3323851859	-1.7258674269	 1.7738028418	-0.341487
C	 2.2611675236	-0.2290746077	 1.3487328423	 0.148132
O	 2.8902158855	 0.5716072134	 0.6958956428	-0.280938
H	 1.3362679899	 1.6528413289	-0.1423484403	 0.302263
H	-0.9756205137	 0.0963951064	 0.1430683594	 0.112867
H	 1.0639701358	-1.6841176536	-3.0814699952	 0.204628
H	 0.517740309	-0.4124441897	 3.4737158432	 0.134711
H	-0.9989507941	-0.1118999068	 2.4917525804	 0.136809
H	-0.4646347262	-2.0558369209	 1.2335762759	 0.249261
H	 2.748737208	-0.883145075	 2.1012344076	 0.106892
