17
gdb 69171	2.17125	1.97146	1.28523	3.4625	75.11	-0.2505	-0.0093	0.2412	1017.6139	0.134881	-417.943035	-417.934838	-417.933894	-417.975609	31.041	
C	 0.0322905132	 1.5298323405	 0.0123318396	-0.487126
C	-0.0349495838	 0.0362859781	-0.0346271198	 0.223465
C	-0.850859246	-0.8290796361	 0.8332211162	-0.291649
N	 0.6323283651	-0.8679494044	 1.0250054671	-0.22149
C	 1.147645273	-1.6951160024	-0.0627429543	 0.294405
N	 1.907379748	-2.692805022	-0.0731889602	-0.52732
C	 0.5589531076	-0.8228241847	-1.1424556949	 0.37139
C	 0.1595929805	-1.0703965635	-2.5293350253	-0.267057
O	 1.3188754379	-0.2899657599	-2.2050495074	-0.262664
H	 1.0023475536	 1.8839668609	-0.3467850513	 0.146794
H	-0.7442138795	 1.9703205693	-0.6230697471	 0.130284
H	-0.1188982825	 1.889308777	 1.0336128634	 0.136036
H	-1.3601848413	-0.3720736396	 1.6765240393	 0.134956
H	-1.3446807397	-1.7098655505	 0.429214398	 0.127427
H	 2.1565088816	-2.9649824137	 0.8815712555	 0.232466
H	 0.3657396387	-2.0413843867	-2.9751214349	 0.138964
H	-0.6745451263	-0.5140431223	-2.9543283141	 0.121118
