23
gdb 38442	3.5865	1.24534	1.15383	0.2146	88.15	-0.2472	0.0797	0.3268	1188.2085	0.208474	-351.143804	-351.135709	-351.134765	-351.176907	32.571	
C	 0.1881522078	 1.5442122209	 0.1287083475	-0.291924
C	 1.4567629255	 0.7420430327	 0.0776285772	-0.031942
C	 1.6553685196	-0.014582986	 1.3953003461	-0.296991
C	 0.2776123464	-0.7458255632	 1.1618088896	 0.386336
C	 0.4273883377	-2.2612510451	 0.968936027	-0.26627
C	 0.4299456716	-2.8255246862	 2.4034150696	-0.208049
C	-0.4475225171	-1.8394228434	 3.2321350134	-0.202403
C	-0.7799708451	-0.6670961005	 2.2739321071	-0.26909
C	 0.1010432151	 0.0641841498	-0.1289763956	-0.116593
H	-0.159050317	 1.969305311	 1.0675168521	 0.102174
H	-0.0011587331	 2.1721340316	-0.7364484665	 0.10674
H	 2.2311685492	 0.9463288018	-0.6516333893	 0.080506
H	 2.5009905614	-0.707237138	 1.3805201354	 0.097621
H	 1.7346031557	 0.6109971687	 2.2918316622	 0.087175
H	-0.444268798	-2.6359370771	 0.4152094013	 0.089325
H	 1.316208229	-2.5352576398	 0.3920332233	 0.090278
H	 0.0618478155	-3.8542522188	 2.4441924828	 0.093671
H	 1.4516158317	-2.8425222743	 2.7967823223	 0.098234
H	-1.3571638827	-2.3162289481	 3.6077188066	 0.096284
H	 0.100611425	-1.4839131854	 4.1097071467	 0.097802
H	-0.7977164121	 0.3006623436	 2.7826150125	 0.089312
H	-1.772043385	-0.8098511432	 1.8276152033	 0.093572
H	-0.334686031	-0.327351051	-1.0422038244	 0.074232
