20
gdb 7542	4.64606	1.02824	0.95344	1.1573	71.8	-0.2568	0.0794	0.3362	1287.3797	0.174081	-386.125895	-386.115996	-386.115052	-386.160915	34.997	
C	 0.0734525917	 1.3688635286	-0.3761702913	-0.426769
C	 0.0453871505	-0.0524132186	 0.125802877	 0.032274
O	 1.2908871856	-0.7594435568	 0.189296735	-0.303732
C	 0.5744896711	-0.5298740974	 1.4205175698	 0.379569
C	 1.2470892251	 0.4102820287	 2.3997824026	-0.46572
C	-0.0283345636	-1.7903209579	 2.0209343791	-0.246251
C	 1.0182684065	-2.7891262881	 2.5094544127	-0.071663
O	 0.3199057224	-3.9337610231	 2.9794427338	-0.422191
H	 0.8825680211	 1.951011585	 0.0679176802	 0.126021
H	 0.2121181612	 1.376662973	-1.4625755831	 0.130517
H	-0.8774620528	 1.867644837	-0.1585669924	 0.121334
H	-0.7648114745	-0.6483077647	-0.3022732179	 0.082236
H	 1.6965541411	 1.2656686197	 1.8944511105	 0.127194
H	 0.5241526973	 0.778828205	 3.1357039048	 0.121404
H	 2.0432891519	-0.1043391372	 2.9468699323	 0.12751
H	-0.6888279674	-1.5271889035	 2.8560187312	 0.10385
H	-0.6433542102	-2.2968773138	 1.2706509772	 0.110587
H	 1.6898343083	-3.0381792961	 1.6748797987	 0.105807
H	 1.6321750468	-2.3486420255	 3.3105774275	 0.082783
H	 0.968773018	-4.5928281241	 3.2422188925	 0.28524
