14
gdb 19684	5.20942	1.6412	1.53359	3.4231	60.45	-0.2382	-0.0296	0.2086	820.1609	0.106929	-382.468674	-382.462426	-382.461482	-382.499527	23.643	
O	-0.0490824759	-0.0153172872	 0.1896740949	-0.252869
C	-0.023247943	 1.1889731824	 0.1157680226	 0.139962
C	 1.2483717912	 1.9952458581	 0.0254192308	-0.082121
C	 1.4474225656	 2.9813353997	-1.13698763	-0.141471
C	 0.7956948215	 4.2928909295	-0.6637426065	 0.09643
O	 0.1933489689	 4.0503412225	 0.6075818464	-0.286547
C	 1.3804345288	 3.2710395279	 0.9227946615	 0.038669
C	 2.1827309487	 3.9710318851	-0.2340311111	-0.143087
H	-0.9553385302	 1.7914427989	 0.1092518124	 0.093719
H	 2.116003477	 1.3411624947	 0.1390304829	 0.098571
H	 1.6320635966	 2.7541077427	-2.17864575	 0.106002
H	 0.3799544463	 5.0512455109	-1.3128824607	 0.120059
H	 1.6039815502	 3.2212258884	 1.9855910566	 0.101448
H	 3.1376922844	 4.4707199163	-0.30748986	 0.111234
