14
gdb 98949	4.22737	0.81397	0.68548	7.169	68.54	-0.2576	-0.0585	0.1991	1524.4265	0.097182	-473.818204	-473.808385	-473.807441	-473.854506	32.982	
O	 0.23642665	 1.2891605147	 0.0088045756	-0.384469
C	-0.0131419311	-0.0868811144	 0.001499808	-0.198485
C	-1.5315456522	-0.3040387073	 0.0153258924	 0.422173
O	-2.3395715802	 0.5790131066	 0.0275475679	-0.272128
N	-1.8452043283	-1.6756454125	 0.0110246118	-0.403168
C	-3.1154982353	-2.2594010515	 0.0195795771	 0.317561
O	-4.1598075957	-1.6609116598	 0.0324330064	-0.291397
C	-3.0340708333	-3.7161840229	 0.0110107239	 0.18794
C	-2.9961733351	-4.9180279618	 0.0042155221	-0.3826
H	 1.1887408509	 1.4219014824	-0.0054836979	 0.297469
H	 0.3930549353	-0.5901964903	-0.8934653835	 0.113087
H	 0.411230327	-0.6028269784	 0.8807590976	 0.112902
H	-1.0734535812	-2.3274911115	 0.0004811495	 0.262828
H	-2.9825851007	-5.9811677434	-0.0016020409	 0.218287
