19
gdb 65231	2.82782	1.2463	1.11045	2.9026	75.91	-0.2458	0.0344	0.2802	1172.8082	0.159721	-419.203089	-419.194215	-419.193271	-419.237167	32.973	
C	 0.1056672497	 1.4561967723	-0.4317974943	-0.49095
C	 0.0824084664	-0.0227146983	-0.0991365455	 0.33766
C	 1.2889396766	-0.8309321997	-0.4154264689	-0.274034
N	 0.9509540605	-0.5239052289	 0.9875623697	-0.357467
C	-1.2670077823	-0.7046656559	-0.1431650824	-0.182469
C	-2.4305217382	-0.1416898955	 0.7344064726	-0.18455
N	-3.1691451555	 0.0849311023	-0.5107450346	-0.321274
C	-2.1891996142	-0.3768176016	-1.3543716992	 0.410983
O	-2.1111387252	-0.4610407159	-2.5511473475	-0.368795
H	 1.1284082693	 1.8440395059	-0.3957464878	 0.112883
H	-0.2867975387	 1.6350751679	-1.4378975372	 0.150425
H	-0.4961942122	 2.0402761534	 0.2737443341	 0.120287
H	 1.1907414592	-1.8766262963	-0.6932891874	 0.121125
H	 2.132384199	-0.3218234222	-0.874361981	 0.112705
H	 1.5458373746	 0.2288083411	 1.3265047107	 0.226734
H	-1.1389477964	-1.7807574962	-0.009105364	 0.105483
H	-2.8923725573	-0.8692096288	 1.408309547	 0.117396
H	-2.1966079864	 0.7717572576	 1.2892017017	 0.113311
H	-4.0966064692	 0.4373936788	-0.695017906	 0.250548
