18
gdb 55432	2.68104	1.51653	0.99853	5.8113	74.26	-0.2401	0.0086	0.2487	1161.1013	0.150491	-435.333552	-435.325207	-435.324263	-435.366655	31.62	
N	 1.1590746174	-0.74689899	 0.1302198944	-0.567123
C	 0.0229570675	 0.0322121351	-0.0048033379	 0.461579
O	 0.071794568	 1.2495671751	 0.031398672	-0.390167
N	-1.1441064761	-0.6815466671	-0.2351147867	-0.16124
C	-1.1986135243	-2.1383831725	-0.3930877096	-0.182311
C	-2.5884823327	-2.3832501085	-1.002627029	-0.234216
C	-3.4262070358	-1.2280239114	-0.4400079491	-0.282457
C	-2.4377338451	-0.085471289	-0.2973897212	 0.387482
N	-2.7589453151	 1.135012336	-0.241600852	-0.5371
H	 1.9522353271	-0.2146345307	 0.4542825535	 0.265909
H	 1.084153262	-1.6754229306	 0.5136204586	 0.256733
H	-0.3884869137	-2.485955028	-1.0398579792	 0.128925
H	-1.1014030023	-2.6431600391	 0.5802663661	 0.1083
H	-2.5270242656	-2.3093059183	-2.0927051744	 0.123152
H	-2.9767772384	-3.3723191731	-0.7529564605	 0.111719
H	-4.2683096479	-0.9319419059	-1.0653589709	 0.136066
H	-3.822009509	-1.4777555826	 0.5522697346	 0.124818
H	-1.924585916	 1.7139242207	-0.1353199386	 0.24993
