19
gdb 90560	2.78889	1.18802	1.03409	4.0383	76.22	-0.2668	0.0027	0.2694	1227.9802	0.158504	-423.017313	-423.008563	-423.007619	-423.051561	32.115	
C	-0.2389205783	 1.6443784088	 0.0151618678	-0.417504
C	 0.1228113954	 0.1638653993	 0.0040474742	 0.04134
C	 1.4362064248	-0.3266777197	-0.6950396997	-0.261791
C	 1.8219796591	-1.0937597351	 0.5769391441	-0.110354
C	 1.9425650559	-0.1643592011	 1.7389600125	 0.10938
O	 2.4208790774	 1.1691512678	 1.6175019355	-0.190122
C	 3.7532507522	 1.3116949752	 1.4539901164	 0.175228
O	 4.2784455655	 2.3802322132	 1.3624724762	-0.275932
C	 0.5683029474	-0.5297370013	 1.303496761	-0.125815
H	 0.5781879325	 2.2548745607	 0.4030642386	 0.148319
H	-0.477102202	 1.9878028312	-0.9977726154	 0.111929
H	-1.1217420373	 1.8226123911	 0.6393836965	 0.112514
H	-0.7142019541	-0.4083257115	-0.4088479743	 0.08153
H	 1.2455023792	-0.9791295404	-1.5485276651	 0.108746
H	 2.1384420211	 0.4536844267	-1.0028569138	 0.110931
H	 2.2451365178	-2.091129501	 0.6048535439	 0.094446
H	 2.2510389718	-0.6257865441	 2.6739512714	 0.112755
H	 4.286230119	 0.3428909579	 1.4164193313	 0.08203
H	-0.1039960277	-1.0227886178	 1.9970310791	 0.09237
