19
gdb 90373	2.32028	1.51955	1.25245	3.882	75.65	-0.2317	-0.0318	0.2	1104.3939	0.157241	-423.015573	-423.006821	-423.005877	-423.048903	33.224	
C	-0.7468082077	 1.3258089689	 0.0521145108	-0.415052
C	 0.004237449	 0.0161199994	-0.0492194956	 0.124169
O	 1.1552143108	 0.0863151751	-0.9384000618	-0.312984
C	 2.0003785324	-0.5992779552	 0.0126875182	-0.049863
C	 2.8095365282	 0.4460111235	 0.8091532566	 0.426928
O	 3.885540646	 0.9482051237	 0.6764986364	-0.29284
C	 1.6944282801	 0.5629553138	 1.8703344211	-0.429686
C	 0.8784259295	-0.528311751	 1.1094540129	 0.262634
C	 0.3698824881	-1.7063061135	 1.9093441782	-0.499412
H	-0.0966175155	 2.1436620784	 0.3719060543	 0.127895
H	-1.1620981238	 1.591140884	-0.9252048208	 0.135001
H	-1.5787790337	 1.2361574804	 0.7591905705	 0.120607
H	-0.6769391319	-0.7705596463	-0.407577035	 0.076045
H	 2.4767413069	-1.4979817447	-0.3895560231	 0.088305
H	 2.0513288451	 0.2179709709	 2.8473110143	 0.133886
H	 1.2468193042	 1.5502412158	 2.0050708903	 0.131265
H	-0.4414527183	-1.4030888561	 2.5818248958	 0.125978
H	-0.0161024932	-2.4956351282	 1.2560940705	 0.124681
H	 1.1622803537	-2.1407011088	 2.5283228766	 0.122442
