16
gdb 50655	2.63122	1.37236	0.95021	4.0168	66.73	-0.2453	-0.0509	0.1944	1172.3879	0.124565	-475.058226	-475.050131	-475.049187	-475.09145	29.477	
O	-0.1123262314	-0.0126420546	-0.1422361402	-0.241024
C	-0.0335001084	 1.1794101972	 0.0035786965	 0.15288
C	 1.2790934408	 1.93279333	 0.0892655787	-0.067179
C	 1.3780057746	 2.82088409	 1.3380522159	-0.101179
O	 2.6436796805	 3.4396950937	 1.3514005929	-0.242677
C	 3.6925714281	 2.5010451838	 1.5317206814	-0.190147
C	 3.5741581442	 1.2027328686	 0.7292241689	 0.378306
O	 4.4725708078	 0.3862975928	 0.7338217131	-0.364958
N	 2.3975568278	 1.0220307547	 0.0611527497	-0.320106
H	-0.9374272585	 1.8242155356	 0.0548148687	 0.097307
H	 1.2875424553	 2.6126441581	-0.7827498845	 0.119853
H	 0.629252166	 3.6166877466	 1.3085010872	 0.124212
H	 1.2189033827	 2.2154951026	 2.2451837805	 0.111183
H	 4.6224755309	 2.9974248113	 1.2464406452	 0.150212
H	 3.780049929	 2.2079827312	 2.5896856251	 0.130628
H	 2.2503446207	 0.1162380185	-0.3651835793	 0.26269
