20
gdb 98281	2.61554	1.01124	0.84584	2.5095	76.09	-0.2502	-0.0305	0.2197	1420.876	0.169126	-440.270638	-440.260666	-440.259722	-440.306519	35.698	
C	-0.1271392881	 2.0740158723	-0.8658474975	-0.396997
C	-0.0580349066	 0.6308722309	-0.3401738506	-0.130188
C	-1.4473246664	 0.0124189607	-0.2273011385	 0.044814
C	-1.7468670835	-1.017791872	 0.7979688476	-0.250357
N	-2.3173234799	 0.3382489321	 0.9087557028	-0.324552
C	 0.7690315823	-0.2426407129	-1.2743780032	 0.376678
O	 0.5625615863	-0.2885147804	-2.469742252	-0.340905
C	 1.8714341248	-1.1018600983	-0.6785493775	-0.141142
O	 2.4988240346	-1.8818235979	-1.6476060871	-0.418268
H	 0.8634322858	 2.5384335779	-0.8832799623	 0.120914
H	-0.5228757629	 2.0804006199	-1.8843000842	 0.147716
H	-0.7801260924	 2.6805463204	-0.2323653073	 0.124916
H	 0.4058226448	 0.6160839596	 0.655744766	 0.074242
H	-1.97273533	-0.039086059	-1.1784332697	 0.114367
H	-2.4669745351	-1.8037836295	 0.5912704309	 0.128875
H	-0.9519523812	-1.3033798965	 1.4833261166	 0.111454
H	-1.800528329	 0.8732605131	 1.6038220203	 0.230349
H	 2.5859691106	-0.4272891591	-0.1739230115	 0.115813
H	 1.4277831554	-1.723861684	 0.1178210164	 0.117029
H	 2.0587294705	-1.6474260772	-2.4811272291	 0.29524
