21
gdb 86263	1.76105	1.64429	1.1302	3.1419	83.35	-0.2648	0.0306	0.2954	1214.3779	0.18241	-383.281945	-383.272117	-383.271172	-383.316005	37.162	
C	-0.6235304233	 0.8802237129	-1.5984922021	-0.433942
C	 0.3426156541	-0.1689595319	-1.0757418932	 0.033938
C	 1.8632744415	-0.0231768215	-1.3429991661	-0.261058
C	 2.1377325081	-0.6096556011	 0.0661877364	 0.033909
C	 3.2962746228	-0.0821336342	 0.8950433803	-0.433968
C	 0.666472048	-0.217676492	 0.4633176672	 0.09751
N	 0.6159200152	 1.1157654186	 1.0572708065	-0.53915
C	-0.075424278	-1.2165979013	 1.2438252451	 0.214552
N	-0.6649922751	-1.9895811956	 1.8720935798	-0.349771
H	-0.3271134319	 1.8831243501	-1.2794911717	 0.131685
H	-0.6373685834	 0.8665038563	-2.6934576232	 0.123677
H	-1.647658355	 0.6932757007	-1.2557320469	 0.121406
H	 0.0132453999	-1.1673792179	-1.3793115754	 0.091947
H	 2.2767803464	-0.5590464764	-2.1998304097	 0.100502
H	 2.1584009827	 1.0280282936	-1.4013161666	 0.114875
H	 2.1870194358	-1.7010367773	 0.0034514454	 0.091963
H	 3.2474293505	 1.0056597315	 0.9937743727	 0.131676
H	 3.3096513711	-0.523496542	 1.898189812	 0.121417
H	 4.247719824	-0.3333025284	 0.4144385579	 0.123694
H	-0.3493615041	 1.4208369315	 1.1443030653	 0.242575
H	 0.9962449009	 1.0910157343	 1.9991581361	 0.242562
