21
gdb 102603	3.25282	0.73449	0.63631	2.48	84.25	-0.2393	0.0525	0.2917	1797.8213	0.179152	-424.18969	-424.178201	-424.177257	-424.228423	38.979	
C	 0.147420658	 1.3071198848	-0.3068077864	-0.24243
O	 0.0233367601	-0.1036452267	-0.2896952264	-0.265657
C	-1.2709139675	-0.6122352287	 0.0073303626	 0.092505
C	-1.3180153435	-1.9890694182	-0.6626602831	-0.061184
O	-0.9957238801	-1.9033283204	-2.031423801	-0.427077
C	-1.527792046	-0.7315159655	 1.5262908055	-0.35912
C	-1.8358281344	 0.5215860273	 2.2072419221	 0.019402
C	-2.1167993654	 1.5485964569	 2.7707114135	 0.10943
C	-2.4513789417	 2.7897320066	 3.4553028265	-0.498708
H	 1.1524511648	 1.5304515447	-0.6743969663	 0.12363
H	-0.5892239026	 1.7650207798	-0.9832652592	 0.109844
H	 0.0225770555	 1.7411278707	 0.6910295582	 0.131565
H	-2.0340191798	 0.0343005172	-0.4506214688	 0.08254
H	-0.63459506	-2.6690529526	-0.1255758946	 0.086927
H	-2.3287891893	-2.4032855106	-0.5882858992	 0.107487
H	-0.2020972442	-1.3538621592	-2.0646611763	 0.284975
H	-2.360876481	-1.4325850586	 1.6751904382	 0.127592
H	-0.6437936724	-1.2018670539	 1.9747333403	 0.135313
H	-3.4983734614	 2.7976065113	 3.7780817112	 0.148285
H	-1.8298797458	 2.9335331971	 4.3461140438	 0.148434
H	-2.3006455433	 3.658255698	 2.8043304991	 0.146247
