20
gdb 76467	2.83999	1.45852	1.19218	1.6524	79.86	-0.2344	0.0564	0.2908	1111.7062	0.170603	-403.039067	-403.030535	-403.029591	-403.071958	32.974	
C	-0.1575608414	 1.5476511541	-0.1133371654	-0.403794
C	-0.0084770776	 0.0441291833	-0.0067435582	-0.17611
C	 1.3552047836	-0.6162583904	-0.215433633	-0.066839
O	 2.4284269101	 0.2406973822	-0.4985674213	-0.417277
C	 0.7205778917	-0.5865789098	 1.1298335214	 0.428023
C	 1.1722675123	-0.1329041593	 2.5202834742	-0.155388
C	-0.1977418919	-0.6977307509	 2.9651548409	-0.165245
N	 0.2816830373	-1.7796498355	 1.9715784406	-0.190703
C	 1.6495813234	-1.597601138	 2.662964812	-0.16795
H	 0.7492307187	 2.0539871754	 0.2239493822	 0.130025
H	-0.3371454875	 1.8487240669	-1.1505880895	 0.12181
H	-0.9992722756	 1.9044067324	 0.4898188407	 0.112702
H	-0.8407107666	-0.5346938666	-0.4019221554	 0.097029
H	 1.3616474758	-1.5621967017	-0.7585946248	 0.09239
H	 3.206321827	-0.0931849877	-0.0403423976	 0.288601
H	 1.6714052677	 0.7943650982	 2.8181621572	 0.07307
H	-0.2906381767	-1.0668172667	 3.9905315649	 0.098299
H	-1.1007301768	-0.1782590456	 2.6382810768	 0.107995
H	 2.4917120797	-1.9328875502	 2.0521320508	 0.093161
H	 1.6860552971	-2.0292218002	 3.6672322433	 0.100202
