14
gdb 16044	3.67443	1.74449	1.43322	3.8999	63.35	-0.2428	0.009	0.2518	865.408	0.107867	-378.676335	-378.669031	-378.668087	-378.707942	26.669	
N	-0.1552758888	 1.4785641106	-0.104448798	-0.522822
C	-0.0989737814	 0.0467035533	-0.0491402344	-0.060579
C	-0.4526152684	-0.7372510811	 1.1681085856	 0.028275
O	-1.4158088385	-0.0262516436	 1.9400919849	-0.289126
C	-2.398696408	-0.1222215152	 0.8697228073	-0.141075
C	-1.3857274792	-0.7975677586	-0.056133454	 0.133759
C	-1.6501865312	-1.8325808019	-0.9909487297	 0.181195
N	-1.8584432883	-2.6740217475	-1.7593700396	-0.349552
H	-0.4111667348	 1.8422196631	 0.8094377139	 0.250879
H	 0.7527934022	 1.8578050323	-0.3441323027	 0.244709
H	 0.6712886478	-0.4050089323	-0.6668044698	 0.1259
H	 0.135104224	-1.5028727984	 1.662920245	 0.127328
H	-3.2215036086	-0.777120861	 1.167500264	 0.13701
H	-2.7728361968	 0.8558569803	 0.5528403776	 0.134099
