19
gdb 92244	2.6109	1.72523	1.32386	1.1527	74.42	-0.231	0.0555	0.2864	1026.7904	0.159406	-422.966816	-422.959143	-422.958199	-422.998818	30.282	
C	-0.2137039483	 1.5713577857	-0.0176822634	-0.418312
C	 0.0375057944	 0.0713088724	 0.0199948595	-0.07909
C	 1.1956383538	-0.5550916359	-0.845776897	-0.272734
C	 1.6237321824	-1.4509031817	 0.3574732827	 0.031542
O	 2.8229487658	-1.0283467349	 1.0543681738	-0.304951
C	 2.0502564809	-0.1207706799	 1.8622687572	-0.012663
C	 1.4200618524	-0.7112460285	 3.1470365094	-0.114779
O	 0.1442220782	-0.929523978	 2.4721969141	-0.336747
C	 0.7130363879	-0.552348824	 1.2317652359	 0.428345
H	 0.7092231861	 2.1299956927	 0.1735929464	 0.114119
H	-0.5954306307	 1.8839312079	-0.995164166	 0.119744
H	-0.9495212592	 1.8657393342	 0.7380546702	 0.126564
H	-0.8929570906	-0.4731719933	-0.1825136455	 0.089265
H	 0.8727659285	-1.0903364918	-1.7402315077	 0.109356
H	 1.9760367214	 0.1601252735	-1.1159244953	 0.114905
H	 1.5514612565	-2.5336961967	 0.244085586	 0.087364
H	 2.4705302349	 0.8857525644	 1.9101907604	 0.090288
H	 1.8815999442	-1.6455661871	 3.4822695999	 0.117151
H	 1.3031700313	-0.0198057789	 3.9883323394	 0.110633
