18
gdb 68360	2.79316	1.75353	1.31211	2.1574	72.03	-0.2445	0.0241	0.2686	979.505	0.149187	-439.074705	-439.067069	-439.066125	-439.106668	30.16	
O	-0.0619388578	 1.4345643596	-0.0464803775	-0.469027
C	 0.050794658	 0.0334411946	 0.0810801133	 0.347756
C	 0.1697957136	-0.5812794045	 1.5007251473	-0.299281
C	-0.8195130192	-1.687881855	 1.0212479388	 0.012941
C	-1.2896380092	-0.7062803417	-0.0941792756	-0.265162
N	-0.1693006127	-2.8769781104	 0.5203448899	-0.258299
C	 0.781460209	-2.8460586049	-0.308227131	 0.133701
O	 1.4470770233	-1.8427755297	-0.9404683872	-0.24382
C	 1.1344688492	-0.4460107094	-0.8863720631	-0.104207
H	 0.7626310055	 1.8377812028	 0.2484615395	 0.280007
H	 1.1510913336	-0.910134933	 1.8524997825	 0.102544
H	-0.2905625354	 0.0816326663	 2.2379506108	 0.108257
H	-1.5803442088	-1.9917176361	 1.7409847262	 0.08219
H	-2.1126334733	-0.0710789625	 0.2415315959	 0.113906
H	-1.5232360753	-1.1350515512	-1.0713798412	 0.106217
H	 1.2355008522	-3.7815232718	-0.6337345314	 0.123155
H	 0.848594988	-0.1407464518	-1.899389127	 0.126362
H	 2.0788250392	 0.0560040687	-0.6368430602	 0.102759
