22
gdb 82171	2.58675	1.60086	1.30008	1.5061	84.97	-0.2255	0.0917	0.3172	1102.2335	0.195192	-367.191335	-367.182933	-367.181989	-367.223616	34.028	
C	-0.06080442	 1.5765471611	-0.0054578638	-0.406143
C	 0.0153569192	 0.0516807916	-0.0342490299	 0.038606
C	 0.7105289262	-0.5262224264	-1.2722981863	-0.091897
C	 0.5638477351	-2.0195410999	-1.4662911524	-0.35164
C	 1.8108311223	-1.465799666	-0.8226358652	 0.355884
C	 3.1465262951	-1.5898906332	-1.5187135721	-0.477932
C	 1.7748208422	-1.4255234762	 0.6840519791	-0.09655
C	 2.1216059749	-0.1201167328	 1.2975195844	-0.25657
N	 0.7115181591	-0.5178121326	 1.1564788582	-0.103281
H	 0.9215403743	 2.0406141383	-0.1373286162	 0.113998
H	-0.7106831033	 1.9375795104	-0.8088574863	 0.115511
H	-0.4746481425	 1.9182814645	 0.9476793498	 0.125471
H	-1.011109729	-0.3330126269	 0.0230907923	 0.081284
H	 0.8377864819	 0.104292154	-2.146164914	 0.079416
H	-0.1617571154	-2.542053079	-0.8488480353	 0.113001
H	 0.6595840324	-2.4107869864	-2.4740501093	 0.105298
H	 3.032625762	-1.5225557185	-2.6052334152	 0.114983
H	 3.8385434708	-0.8020915958	-1.2011597837	 0.116369
H	 3.6187356237	-2.5543005043	-1.2975430116	 0.119042
H	 1.9045487902	-2.3514253945	 1.2408852632	 0.084717
H	 2.4732404234	-0.0668542963	 2.3237352392	 0.112472
H	 2.5234509376	 0.647521349	 0.6406240849	 0.107962
