21
gdb 105238	2.15949	1.40519	1.05566	2.0481	74.41	-0.226	0.0659	0.2919	1230.8955	0.178989	-461.325252	-461.31471	-461.313766	-461.360318	39.061	
C	-1.2212526221	 0.253047734	 0.0253066773	-0.268305
O	 0.1659199738	-0.0766059272	 0.055275358	-0.306245
C	 0.6258824477	-0.7512328907	-1.0931735127	 0.367033
C	 1.7902341633	-1.6715001652	-0.7981630261	-0.403505
C	 0.4138299083	-2.2449029503	-1.0608521054	 0.089068
O	-0.3301450408	-2.8118383077	-0.0251271353	-0.435564
C	 0.5807945179	 0.050520578	-2.3937471563	 0.045431
C	 1.3846297252	 1.3455026806	-2.290087921	-0.408258
O	 1.0007368622	-0.7505422285	-3.4939175295	-0.427969
H	-1.4318539095	 1.0787207456	-0.6662621033	 0.118017
H	-1.8338472008	-0.6128768014	-0.2516384596	 0.134541
H	-1.4850617916	 0.5752719582	 1.0356760625	 0.128125
H	 2.5647789715	-1.8092203524	-1.5454528037	 0.099506
H	 2.1428381643	-1.6754422957	 0.2281183308	 0.119635
H	 0.2485246803	-2.7633208055	-1.9974716725	 0.12242
H	-0.2653769673	-2.2056513587	 0.7231288408	 0.287591
H	-0.4649214509	 0.2929712031	-2.6189334622	 0.08818
H	 1.3154793762	 1.9135463066	-3.221829673	 0.120908
H	 1.0213550689	 1.9654035374	-1.4662637034	 0.133515
H	 2.4406456835	 1.1248260296	-2.0908026014	 0.112838
H	 1.9636465601	-0.7477407597	-3.5080018941	 0.283039
