15
gdb 2832	5.08642	1.69035	1.41021	4.7201	62.24	-0.2761	0.0162	0.2923	868.4463	0.125409	-304.689816	-304.682458	-304.681514	-304.721526	26.072	
C	 0.2083585348	 1.5155210612	 0.1002487589	-0.381785
C	-0.2502059758	 0.0777243903	-0.1665655448	-0.190693
C	 0.4884432079	-0.5421798362	-1.3286960111	 0.011366
N	 1.8266809191	-1.0708306061	-1.0580451976	-0.310097
C	 0.7529342524	-2.0137422628	-1.4383043854	-0.204033
C	 0.3155947206	-2.943304622	-0.4243900477	 0.330472
N	-0.0620559517	-3.6958654928	 0.3679599597	-0.33518
H	 1.2771135326	 1.5419603374	 0.3334638559	 0.13329
H	 0.035916616	 2.1587808845	-0.7699842865	 0.112388
H	-0.334203658	 1.947668082	 0.9456708184	 0.121715
H	-0.090548681	-0.5386019208	 0.7236542048	 0.130353
H	-1.3257688848	 0.0553038333	-0.3812200435	 0.108425
H	 0.3368116677	-0.0460047327	-2.2876702355	 0.097621
H	 2.4505280266	-0.9368355397	-1.8493651671	 0.2453
H	 0.7696585136	-2.4415812455	-2.4372203983	 0.13086
