21
gdb 103988	2.56956	1.31043	1.20308	2.8927	78.18	-0.2437	0.0696	0.3132	1164.8956	0.179958	-424.193041	-424.183341	-424.182397	-424.226881	36.76	
C	-0.1657654905	 1.5283814558	 0.1236852679	-0.516134
C	 0.1298242052	 0.0661444155	 0.0204145628	 0.384852
O	-0.712621515	-0.8347040905	 0.7533498737	-0.298805
C	 0.7082923987	-0.9111754859	 0.9595069695	-0.044502
C	 1.2737308966	-1.7706786705	-0.1719280169	-0.294053
C	 0.6732435178	-0.7346698622	-1.2015038201	 0.275039
C	-0.3784325286	-1.2661609219	-2.1690885798	-0.462749
C	 1.7800468602	 0.0287080537	-1.9188088077	-0.137291
O	 2.4735483298	-0.8805437106	-2.7619929102	-0.423713
H	 0.6794503073	 2.1314294854	-0.2235241264	 0.123146
H	-1.0392726199	 1.7932103845	-0.4831824408	 0.131407
H	-0.3819907659	 1.7958399813	 1.1614904522	 0.134569
H	 1.060971419	-0.7891372565	 1.9781430989	 0.096456
H	 2.3643307529	-1.8097633132	-0.2102928988	 0.11042
H	 0.8720622133	-2.7855890268	-0.2192710321	 0.106757
H	-1.1699709427	-1.7809229248	-1.6197472208	 0.128673
H	-0.8331092187	-0.4512972673	-2.7456161345	 0.102223
H	 0.0739763767	-1.9641928886	-2.8785788154	 0.130823
H	 1.3404376126	 0.8534115778	-2.5036382023	 0.085481
H	 2.4626635364	 0.4773432894	-1.1776804197	 0.079423
H	 3.1589248549	-0.3953114446	-3.2301992795	 0.287976
