18
gdb 14786	13.48726	0.54793	0.53356	3.721	66.49	-0.2569	-0.0275	0.2294	1961.669	0.15	-422.062933	-422.052885	-422.051941	-422.099638	32.646	
O	-0.1188645832	 1.4360463886	 0.1271765442	-0.418138
C	 0.0138506024	 0.0258739023	 0.0596707476	-0.072034
C	-1.3891882093	-0.5657998344	 0.018831029	-0.185158
C	-1.3803185841	-2.0853090921	-0.0535922841	-0.054137
O	-2.7194476961	-2.5391855798	-0.0887953578	-0.246816
C	-2.8383545354	-3.9342757574	-0.1559741512	-0.144343
C	-4.3160052134	-4.2851490512	-0.1878914351	 0.138913
O	-4.73273427	-5.4109050487	-0.245340667	-0.237614
H	 0.7619600019	 1.8208456453	 0.1529611412	 0.287234
H	 0.576274416	-0.2798595235	-0.8383077865	 0.086602
H	 0.56107202	-0.3660926853	 0.9332275242	 0.086572
H	-1.9389075957	-0.2479182842	 0.910934779	 0.119484
H	-1.9232371395	-0.1641553217	-0.848672905	 0.119479
H	-0.8405977821	-2.4310923332	-0.9521859468	 0.090406
H	-0.8585033541	-2.5156090301	 0.818676866	 0.090431
H	-2.3566471892	-4.3509555397	-1.0576659278	 0.120552
H	-2.3750255905	-4.4345938903	 0.712201094	 0.120576
H	-4.9838916976	-3.3961876345	-0.1522283938	 0.097991
