20
gdb 116331	3.02383	1.30495	1.01015	1.6104	75.36	-0.2358	0.0681	0.3039	1215.0489	0.172429	-440.243592	-440.235124	-440.23418	-440.276977	31.895	
C	 0.0331980208	 1.3850095258	 0.0257643449	-0.234832
O	-0.1089626441	-0.0133819203	-0.0903963141	-0.248978
C	 0.6270990707	-0.5940278129	-1.1528193697	 0.134661
C	 2.1227841958	-0.750292734	-0.8279905513	-0.127133
O	 2.7757790465	-1.4257083036	-1.8903560268	-0.250531
C	 2.4231667192	-2.7970558857	-1.9758996323	-0.073804
C	 0.9241327776	-3.0513372605	-1.8800961303	-0.059042
N	 0.3585846301	-3.0268403613	-0.520347228	-0.325168
C	 0.0234294406	-1.9447402535	-1.4574742939	-0.057145
H	 1.049022765	 1.6876992424	 0.3181307312	 0.109424
H	-0.2207459049	 1.8988130613	-0.9148779254	 0.103529
H	-0.6605062181	 1.7137260061	 0.8037009958	 0.127642
H	 0.5367822663	 0.0302331321	-2.0578975049	 0.06756
H	 2.6084878074	 0.2249410928	-0.742029923	 0.100966
H	 2.2298081787	-1.2868766697	 0.1248195117	 0.118197
H	 2.7993683538	-3.1371782761	-2.9456410925	 0.106056
H	 2.932510704	-3.3718607574	-1.1864397993	 0.100356
H	 0.526645983	-3.782133493	-2.5806360144	 0.089066
H	-0.420128809	-3.6744676925	-0.440405895	 0.233077
H	-0.9853291533	-1.91599735	-1.8628369528	 0.086098
