20
gdb 120828	3.31929	0.7446	0.65622	2.2837	79.38	-0.2516	0.0187	0.2703	1741.5513	0.168825	-440.247664	-440.237512	-440.236568	-440.284425	34.994	
C	-0.1340083089	 1.3458288707	 0.3350549009	-0.225974
O	-0.2009641324	-0.0544023864	 0.4576114635	-0.234328
C	-1.1974905652	-0.6231030834	-0.3679807073	-0.071866
C	-1.1531252702	-2.1192796002	-0.1975807681	-0.056382
C	-1.8544439151	-2.7655303718	 0.9795273546	-0.313937
C	-2.3805640608	-2.9489574708	-0.419428892	 0.087733
O	-3.5455788076	-2.2633736701	-0.8163534589	-0.187532
C	-4.7157004038	-2.7896723481	-0.3898336253	 0.128879
N	-5.8049406879	-2.2642418419	-0.7476360378	-0.437467
H	 0.6554987657	 1.6957727361	 1.0046595502	 0.125681
H	 0.1088617094	 1.6565977663	-0.69387141	 0.103517
H	-1.0824925385	 1.8282887664	 0.6206622719	 0.104884
H	-2.1929460954	-0.2344589906	-0.1063311763	 0.104546
H	-1.0170031317	-0.3573998942	-1.4236551903	 0.091904
H	-0.2178610711	-2.5714011884	-0.5134312471	 0.100681
H	-1.3897365081	-3.6088762508	 1.4775474455	 0.120119
H	-2.4164249142	-2.103692834	 1.6297813057	 0.130852
H	-2.2657544791	-3.9156839001	-0.9040047822	 0.106792
H	-4.586233561	-3.6641303112	 0.2608806728	 0.091788
H	-6.5857758942	-2.7745080974	-0.3400590897	 0.230112
