21
gdb 68217	3.61719	1.30196	1.2357	1.5662	82.46	-0.2384	0.091	0.3294	1126.2987	0.182984	-387.065527	-387.057543	-387.056598	-387.097507	32.704	
C	 0.0266155064	 1.5002870192	 0.0840481185	-0.493252
C	 0.0077309723	 0.0026522779	-0.029263649	 0.415534
C	 0.8968669906	-0.8104034215	-1.0079464206	-0.273497
C	 0.6901538895	-1.8276290135	 0.1321254001	-0.006045
O	 0.6730143632	-0.7096478161	 1.0747903079	-0.329921
C	-0.792702171	-2.1733726832	 0.0289876294	 0.430005
C	-1.3128625836	-3.3784265368	-0.6995001822	-0.336701
C	-1.4300790548	-3.2818504936	 0.8079220366	-0.336887
C	-1.3538702456	-0.7420733	-0.0911708861	-0.353606
H	 1.0518238735	 1.8716929255	 0.1652089092	 0.125993
H	-0.4404295509	 1.9552445147	-0.7957108953	 0.120478
H	-0.5290502986	 1.8249211939	 0.9700433982	 0.128097
H	 0.5200028682	-1.0453582177	-2.0069841351	 0.09322
H	 1.9169185648	-0.4246144025	-1.0389203793	 0.102661
H	 1.3995238595	-2.6180112907	 0.3801694921	 0.071631
H	-2.2162546513	-3.271240299	-1.2915823831	 0.110054
H	-0.5968588086	-4.0837552254	-1.1111502104	 0.108696
H	-0.7936945929	-3.9207834702	 1.4125595582	 0.111686
H	-2.4137639403	-3.1077065106	 1.2322849639	 0.111029
H	-1.9904081329	-0.4615823155	 0.7527183359	 0.104773
H	-1.8972154475	-0.5566615149	-1.023106699	 0.096052
