20
gdb 52111	4.87787	0.72926	0.68934	2.3867	80.51	-0.2377	-0.0233	0.2144	1638.286	0.170043	-403.11301	-403.103975	-403.103031	-403.148173	32.784	
O	-0.183860166	-0.0615758857	-0.0530133876	-0.234186
C	-0.0897699932	 1.1336699867	-0.1571561301	 0.158711
C	 1.197320521	 1.9179406409	-0.0452425846	-0.272857
C	 1.4595256466	 2.7657497282	-1.3072378577	-0.323872
C	 2.6896223787	 3.6184428772	-1.1703781395	 0.376602
C	 2.676007787	 4.9900280588	-0.6192580301	-0.28205
N	 2.9592723512	 4.8224148249	-2.0603345022	-0.173916
C	 4.4026118733	 4.3932297153	-2.1259805378	-0.150092
C	 4.1304116577	 3.1130774495	-1.2947592811	-0.30948
H	-0.9892985494	 1.7629857661	-0.3597157318	 0.071184
H	 1.1059719863	 2.5896060215	 0.8203855522	 0.121586
H	 2.0160056576	 1.219318006	 0.149591695	 0.125129
H	 1.5647314615	 2.1038527143	-2.1760271919	 0.115441
H	 0.5983820447	 3.4143826244	-1.5083216457	 0.114911
H	 1.7098858707	 5.449532394	-0.431246504	 0.117055
H	 3.4740695693	 5.3298855917	 0.0389964494	 0.108204
H	 4.6881336493	 4.1980118907	-3.1611249589	 0.114485
H	 5.0936951181	 5.1276247476	-1.6990554384	 0.105762
H	 4.6858993518	 2.9711506768	-0.3631820774	 0.104098
H	 4.2101717038	 2.201500971	-1.8914866778	 0.113286
