12
gdb 133399	2.39342	1.87604	1.05169	0.279	63.39	-0.2397	-0.0687	0.171	1000.4453	0.076971	-513.88847	-513.881439	-513.880495	-513.920071	26.523	
O	 0.0639209297	 1.329112469	-0.1845167579	-0.400943
C	-0.015578247	 0.0096608262	-0.05803203	 0.201271
C	-1.1516414208	-0.7111521925	 0.0572336301	 0.146386
F	-2.3614627452	-0.1615565131	 0.0570652841	-0.049719
C	-1.0505592973	-2.130962394	 0.1854487707	-0.047646
N	 0.0421017824	-2.8158833276	 0.2031930921	-0.08677
O	 1.2297205615	-2.0753865932	 0.0839141333	-0.27607
C	 1.2517243035	-0.7199282911	-0.0434970421	 0.367228
N	 2.3218290693	-0.0379641843	-0.1523192109	-0.576925
H	 1.0259694328	 1.510216352	-0.2420652363	 0.319285
H	-1.9576797938	-2.7207390466	 0.2788117569	 0.159703
H	 3.1654871651	-0.6062399847	-0.13492232	 0.244199
