19
gdb 55083	3.91311	1.03518	0.99865	3.3392	76.5	-0.2343	-0.0108	0.2234	1270.2619	0.156563	-423.015422	-423.00625	-423.005306	-423.049644	33.89	
C	 0.5657091012	 0.4573305016	-0.8051413217	-0.493481
C	-0.150789291	 0.1516681568	 0.4941834847	 0.381248
O	 0.1259081317	 0.7176823893	 1.5291080922	-0.311886
C	-1.2289012112	-0.923911081	 0.4865479486	-0.10007
C	-2.1531068063	-1.1985676953	-0.7577417387	-0.334764
C	-1.6616613198	-2.6592807619	-0.7592047066	 0.422375
C	-2.3831372509	-3.8837606805	-1.2156193742	-0.500458
O	-0.2368998639	-2.5992812832	-0.9511780848	-0.274916
C	-0.7511715527	-2.3933184632	 0.3696839039	-0.065109
H	 0.8329730177	-0.4674389958	-1.3235588187	 0.161245
H	-0.1039261107	 1.0140394119	-1.4721822744	 0.136654
H	 1.4455995875	 1.0687468645	-0.6006316669	 0.134938
H	-1.8173655335	-0.7964570975	 1.3977207755	 0.101478
H	-3.2105654194	-1.0871668449	-0.5079246989	 0.115144
H	-1.9377059969	-0.6466393465	-1.6750413658	 0.113514
H	-2.5114146171	-3.8745986637	-2.3039821017	 0.134689
H	-1.8204546276	-4.7813249353	-0.9464908439	 0.138645
H	-3.3771619287	-3.9399816193	-0.7608061181	 0.128586
H	-0.3649749884	-3.031345806	 1.1567300795	 0.112167
