20
gdb 98830	3.17374	1.05033	0.83651	4.7745	77.38	-0.246	0.0205	0.2666	1397.5551	0.170039	-440.305648	-440.295925	-440.294981	-440.341119	34.578	
C	-0.3553574449	 1.3630093167	 0.2604852074	-0.401713
C	 0.0612131581	-0.0753707619	-0.0005071446	 0.064445
C	 0.931241505	-0.3703885084	-1.2625410829	-0.264866
C	 2.0206587615	-0.9578610171	-0.3216522859	-0.176767
N	 1.1832706174	-0.5690224416	 0.8175359496	-0.078157
C	 1.2295422909	-0.8386046192	 2.1344438608	 0.351376
O	 0.3189091073	-0.5619925875	 2.9089378261	-0.403286
C	 2.4986816655	-1.5118277619	 2.6660812	-0.139431
O	 2.3942802013	-1.6806990966	 4.0479487045	-0.422036
H	 0.4998133905	 2.0404588831	 0.1682272131	 0.11449
H	-1.1197372057	 1.6696233071	-0.4614084215	 0.118649
H	-0.7673056642	 1.4579603311	 1.267842041	 0.154826
H	-0.8094603813	-0.7365477098	 0.087485558	 0.096148
H	 0.5024873742	-1.0761848531	-1.9738345414	 0.11935
H	 1.2446050933	 0.5297047837	-1.7940174711	 0.118082
H	 2.1712962744	-2.0402081637	-0.4091753995	 0.120923
H	 2.9980617207	-0.4646443088	-0.3521139721	 0.122194
H	 2.6319186107	-2.4794639173	 2.1534721844	 0.10455
H	 3.3723259985	-0.8938172991	 2.4028769628	 0.107735
H	 1.5145058769	-1.3234529258	 4.2637793613	 0.293489
