15
gdb 16046	3.50727	1.75065	1.45068	4.976	66.77	-0.2693	0.0146	0.2839	879.4402	0.119524	-362.64494	-362.637688	-362.636744	-362.676249	27.278	
O	-0.2714514807	 1.4367188939	-0.0232992477	-0.413623
C	-0.1340814911	 0.0521200039	 0.0423877159	 0.060062
C	-0.4707059706	-0.7447980172	 1.264424185	-0.160826
C	-1.6035946044	-0.0810246523	 2.0549128402	-0.222982
C	-2.5147095647	-0.1071098482	 0.7902089945	-0.282153
C	-1.3824437691	-0.7832581915	-0.0074206652	 0.1796
C	-1.5609350497	-1.8239461672	-0.9656051782	 0.190844
N	-1.715034256	-2.674970641	-1.7356553951	-0.35044
H	 0.4558837734	 1.8355973991	 0.4667818555	 0.295442
H	 0.6834516862	-0.3592007026	-0.5496785752	 0.11296
H	 0.1846654325	-1.5277105864	 1.6273205321	 0.111551
H	-1.9848124004	-0.7177039511	 2.8542267029	 0.117266
H	-1.3712703157	 0.9053086214	 2.4635837245	 0.107476
H	-3.3775203727	-0.7628117109	 0.9091925947	 0.126394
H	-2.836904687	 0.8567248402	 0.3938682261	 0.128428
