16
gdb 26630	3.30984	1.26843	0.92389	5.965	80.7	-0.1984	-0.0014	0.197	1209.378	0.125753	-396.990511	-396.981594	-396.980649	-397.024068	32.431	
C	-0.0473029256	 1.521945089	 0.0814131326	-0.513954
C	 0.0005432271	 0.0348506779	-0.0124370701	 0.283595
C	-0.0368176788	-0.7902067138	-1.1155594374	 0.072478
N	-0.1737212164	-0.3944526899	-2.4546557055	-0.622931
C	 0.0203248137	-2.1451357004	-0.6374509252	 0.132054
C	 0.0913141664	-2.0946314995	 0.7465606221	-0.183608
N	 0.0906967614	-0.7866467529	 1.1017012087	-0.303773
C	 0.0145659405	-3.2966633072	-1.4539456513	 0.186886
N	 0.0134368244	-4.2090958102	-2.170566997	-0.371834
H	 0.9420691853	 1.9797881217	 0.2147770138	 0.130287
H	-0.4803369594	 1.9305362117	-0.8360618139	 0.148238
H	-0.6763650633	 1.8548312921	 0.9152604605	 0.12719
H	 0.5004644618	 0.3051596117	-2.737692567	 0.24631
H	-0.1192647805	-1.1811104218	-3.0899417035	 0.257211
H	 0.1424056232	-2.8898066212	 1.4709659526	 0.144653
H	 0.1275361702	-0.4517996073	 2.0490506705	 0.267199
