23
gdb 107472	2.37477	1.43904	1.22011	0.9725	85.79	-0.2191	0.0906	0.3097	1193.5171	0.20389	-388.256335	-388.246573	-388.245629	-388.290399	37.692	
C	-1.0438031833	-1.5228977245	 0.4479374724	-0.255352
O	 0.0657008101	-0.732528159	 0.0857731531	-0.283558
C	 0.7875805098	-1.139317369	-1.0210361876	 0.438458
C	 0.2285287936	-1.7949399031	-2.2477170386	-0.365469
C	 1.3490281974	-2.4876638158	-1.4886485233	-0.140933
C	 2.6767866797	-1.8146622677	-1.8449215199	-0.272663
C	 2.1363413254	-0.4434113471	-1.2874510956	 0.253461
C	 2.1233681537	 0.7469630354	-2.2457965079	-0.452372
C	 2.8315117249	-0.0751560582	 0.0259286901	-0.430651
H	-1.8558799539	-1.4602173085	-0.2899366988	 0.11355
H	-0.7662390414	-2.5792295075	 0.5772846309	 0.110892
H	-1.4078038869	-1.1352630359	 1.4021375788	 0.12892
H	-0.7456325918	-2.2563231597	-2.1221584992	 0.10883
H	 0.3949664263	-1.3976955405	-3.2474814737	 0.101748
H	 1.230093578	-3.49258615	-1.1022908046	 0.084108
H	 3.5329637741	-2.1835033694	-1.2751975364	 0.09826
H	 2.9318824391	-1.8279253225	-2.910820396	 0.088804
H	 1.6360452125	 0.5050642145	-3.1949383986	 0.109531
H	 1.5938359064	 1.5981239483	-1.803498094	 0.11821
H	 3.1451773163	 1.0724721085	-2.4720796188	 0.110291
H	 3.8684245967	 0.2225674291	-0.1658426475	 0.103576
H	 2.3214548098	 0.7553063282	 0.5229113444	 0.12064
H	 2.8410855235	-0.9201476657	 0.7212395308	 0.111717
