15
gdb 130149	4.68972	0.87535	0.80391	2.4745	69.21	-0.218	-0.0351	0.1829	1378.9688	0.11371	-450.164655	-450.156202	-450.155258	-450.199491	29.947	
N	-0.2242793985	 1.375057788	-0.078306636	-0.582733
C	-0.0666013953	 0.0060434051	-0.0468864249	 0.391479
N	-1.0571719206	-0.8411020871	-0.2974956402	-0.292363
N	-0.4089556996	-2.0416523535	-0.2240061988	-0.241286
C	 0.8895781769	-1.865056403	 0.0776645194	 0.346164
C	 1.8875087493	-2.9693558793	 0.1877129971	-0.39196
C	 2.7693609	-3.0529230048	-1.0587449455	 0.158271
O	 3.0194731007	-4.0783035103	-1.6321495706	-0.227006
N	 1.1482727802	-0.5717306917	 0.1947532657	-0.356517
H	 0.4436001089	 1.8666675682	 0.4965112252	 0.25939
H	-1.175219123	 1.6810061214	 0.0658464365	 0.258867
H	-0.9205649077	-2.8952050595	-0.3727780991	 0.279536
H	 2.5472939503	-2.7545334628	 1.0376016444	 0.158925
H	 1.4169154438	-3.9421632089	 0.3488895473	 0.129583
H	 3.1695947747	-2.0727106018	-1.3936068006	 0.10965
