24
gdb 118343	2.38666	0.93013	0.82092	3.7739	87.21	-0.2373	0.0324	0.2697	1591.8732	0.215635	-405.587373	-405.576201	-405.575256	-405.62401	40.2	
C	-0.1011632103	 1.5493495908	 0.1074208044	-0.381078
C	-0.1104919024	 0.0188193628	 0.0772914136	-0.167875
C	 0.8365175294	-0.5863493744	 1.1228232947	-0.175693
N	 0.8458636154	-2.0430587122	 1.1477101194	-0.028967
C	 1.913652232	-2.7292614606	 0.6594428503	 0.148708
O	 2.0405223658	-3.9388946108	 0.6373244112	-0.357591
C	-0.3036734232	-2.7484768404	 1.75573033	 0.040956
C	-1.0190102005	-3.6612311312	 0.7506764478	-0.390958
C	 0.1104512285	-3.4978194748	 3.0299928576	-0.389357
H	 0.9007675822	 1.9452593915	-0.0923773025	 0.119032
H	-0.7778966787	 1.9636109526	-0.6452011762	 0.120975
H	-0.4178770609	 1.9299656101	 1.0848586577	 0.118241
H	-1.1292929885	-0.3484009315	 0.2499804262	 0.106866
H	 0.1850491402	-0.3441899929	-0.9143000403	 0.10722
H	 1.8588545407	-0.2454110796	 0.9254285007	 0.114225
H	 0.5729920613	-0.213498702	 2.121998311	 0.108734
H	 2.6946120546	-2.0464406365	 0.2662536029	 0.069393
H	-1.0006975051	-1.9538644495	 2.0435410722	 0.082964
H	-0.3581011275	-4.4675495627	 0.4302273655	 0.158755
H	-1.9096361939	-4.0966908615	 1.2148663732	 0.109646
H	-1.3356198251	-3.0976675205	-0.1321655314	 0.110009
H	 0.5831391186	-2.8180853144	 3.745979985	 0.107854
H	-0.7712679486	-3.9359046502	 3.5082841838	 0.110563
H	 0.8142287161	-4.2965395921	 2.7905606132	 0.157379
