16
gdb 16352	2.69773	2.26868	1.41024	3.6239	67.47	-0.2394	0.0142	0.2535	895.3672	0.130057	-379.889058	-379.881385	-379.880441	-379.920804	28.769	
C	-0.4474682172	 1.4515333005	 0.0138990453	-0.40438
C	 0.1162007786	 0.0419826607	-0.0086728098	-0.015434
N	 1.426660683	-0.1114766051	-0.6908333745	-0.370851
C	 2.0308949309	-0.8055185477	 0.3646837019	 0.320194
N	 3.1054082321	-1.4376776554	 0.5655837735	-0.547532
C	 0.8347238181	-0.5085454219	 1.2445236028	 0.354581
C	 0.766057287	-0.1293297154	 2.6549955809	-0.256793
O	 0.2720912983	-1.391401067	 2.1814330191	-0.259317
H	 0.2961980432	 2.1593592613	 0.3906709335	 0.125645
H	-0.7469457454	 1.7706650978	-0.9898194509	 0.121082
H	-1.3347899235	 1.4970667262	 0.6542635407	 0.126032
H	-0.6334897053	-0.6777555296	-0.3615667632	 0.096188
H	 1.5519344113	-0.3191955036	-1.6713602793	 0.240275
H	 3.686012343	-1.4813334694	-0.2737655507	 0.211763
H	 1.669258282	-0.1822423893	 3.2593051646	 0.138743
H	 0.004538694	 0.573905338	 2.9883899663	 0.119805
