19
gdb 39271	2.47243	2.22322	1.54924	2.0453	73.97	-0.2334	0.072	0.3054	914.63	0.162159	-423.000621	-422.993879	-422.992935	-423.031405	28.335	
C	 0.0084177063	 1.4453324962	-0.0825299468	-0.424193
C	 1.3532862378	 0.7493819058	 0.0105140849	 0.051177
O	 2.1139313355	 0.4704110147	-1.1225992536	-0.240511
C	 2.2886471401	-0.9449925267	-1.260364608	-0.087702
C	 0.9545519471	-1.7126797425	-0.9783010136	 0.060496
C	 0.7529418175	-2.2139048909	 0.49035879	-0.232789
C	-0.1002741683	-1.0769482584	 1.1463616447	-0.298457
C	 0.0677963384	-0.0389827876	 0.062507	 0.398222
O	-0.091012373	-0.7536016737	-1.1476824395	-0.266858
H	-0.2822149582	 2.0538664036	 0.7669959511	 0.119884
H	-0.315797599	 1.8102816481	-1.0504292415	 0.137158
H	 1.9243106193	 0.8896284875	 0.9296183523	 0.079268
H	 2.6064242079	-1.0995970454	-2.2950050312	 0.112624
H	 3.0926630694	-1.3003270305	-0.5972931852	 0.08838
H	 0.8202335727	-2.5105988428	-1.7115403801	 0.082915
H	 0.227732712	-3.1716540626	 0.50542579	 0.108026
H	 1.7088602014	-2.3524351864	 1.0029741783	 0.103006
H	-1.1434449687	-1.3813196773	 1.2710184872	 0.107225
H	 0.2881379518	-0.7555069412	 2.1153709211	 0.102129
