12
gdb 48387	2.84094	1.25902	1.05479	3.8902	61.92	-0.2792	-0.0928	0.1864	1095.3399	0.073649	-472.606273	-472.597738	-472.596794	-472.640138	28.754	
O	-0.3997755198	 0.4566509083	-0.7736300915	-0.226446
C	-0.0289246534	 1.1228263739	 0.1529631174	 0.096826
C	 1.2284865285	 1.9677162976	 0.0934874612	 0.191881
O	 2.1997127634	 1.6091792949	-0.8895755638	-0.229596
C	 1.5049692061	 2.8118076904	-1.1185358025	-0.155198
C	 0.573962826	 2.8713434087	-2.2241377751	 0.339616
N	-0.1443122946	 3.0019607892	-3.1190910658	-0.306289
C	 1.7992616668	 2.4693052406	 1.3923653453	 0.10728
O	 1.1572033196	 2.5404641729	 2.4061256182	-0.231015
H	-0.5594294316	 1.1753401333	 1.1207832112	 0.13835
H	 2.0868670725	 3.7231782648	-0.9798800794	 0.158149
H	 2.8692607766	 2.7618373654	 1.3268806447	 0.116443
