15
gdb 15318	5.44217	0.93525	0.84842	2.3942	64.12	-0.2545	-0.0476	0.207	1273.4463	0.116635	-399.783501	-399.775206	-399.774262	-399.817744	28.187	
O	-0.3361678941	 0.0586201562	-0.2096299836	-0.231045
C	 0.0016603616	 1.2042347538	-0.0650006022	 0.157402
C	 1.4203773665	 1.7136752444	-0.243237199	-0.286898
C	 1.4585665269	 2.8599064932	-1.2383225732	-0.023667
N	 1.0917543467	 4.1840821038	-0.7538875555	-0.328662
C	 2.4764127942	 3.9679974992	-1.2197251294	-0.129363
C	 3.5389920105	 4.0654027564	-0.1779212732	 0.174427
O	 4.6946794651	 4.2928576371	-0.4304793978	-0.250489
H	-0.7314371665	 1.9936066685	 0.2153961057	 0.090362
H	 1.7673112815	 2.065566475	 0.7349479443	 0.13092
H	 2.0564566868	 0.8852138533	-0.5670739611	 0.132637
H	 1.1316447872	 2.584045035	-2.2404019961	 0.113322
H	 0.5642482235	 4.7081705339	-1.4459629852	 0.249815
H	 2.7807338567	 4.3540942947	-2.18949937	 0.113221
H	 3.1794339634	 3.9241848854	 0.8642365063	 0.08802
