15
gdb 4763	6.64087	1.3315	1.12459	3.3431	66.59	-0.2082	0.0245	0.2326	1049.2774	0.117679	-399.819713	-399.811664	-399.81072	-399.853181	27.942	
C	 0.0228362355	 1.3896654956	-0.1038054718	-0.331029
N	-0.0609964309	-0.0475840011	-0.2848174796	-0.361147
C	-1.1484289629	-0.6322647821	-0.0918344613	 0.522176
O	-2.3597744588	-0.0966907261	 0.2902233633	-0.226762
C	-3.250773929	-1.1546401211	 0.3669787749	-0.151151
C	-2.6270124183	-2.2855075449	 0.0498814984	 0.315808
C	-3.0418199212	-3.7028437884	-0.0444601425	-0.490352
O	-1.3048421541	-1.9847896217	-0.2426111981	-0.247492
H	 0.7853444627	 1.6158829699	 0.6503567073	 0.125959
H	 0.3550165644	 1.853883817	-1.0395052679	 0.125958
H	-0.9176884801	 1.8635144759	 0.2024138847	 0.119909
H	-4.2616148873	-0.9272328852	 0.6549431679	 0.155805
H	-2.8881757329	-4.0900522459	-1.0575995911	 0.150578
H	-2.4582504519	-4.3288332072	 0.63933411	 0.150582
H	-4.0994215552	-3.8014325048	 0.2096164958	 0.141158
