15
gdb 20818	5.03328	1.5308	1.2779	3.3109	68.68	-0.2356	-0.0697	0.1659	949.6333	0.120416	-358.860811	-358.853714	-358.85277	-358.893076	25.373	
C	 0.1743480067	 1.5333925367	 0.1602136088	-0.375605
C	-0.0934957686	 0.0340746475	-0.0595385974	-0.280127
C	 0.641258082	-0.4979781401	-1.2592468498	 0.326592
C	 1.7325763743	-1.3724802992	-1.1571458556	-0.027319
N	 2.3897528661	-1.8244144014	-2.2189015617	-0.167527
N	 1.9918091433	-1.4275030095	-3.4264800196	-0.186512
C	 0.951517414	-0.5974730916	-3.4893581829	 0.098391
N	 0.2457054404	-0.1045393117	-2.4686201449	-0.282879
H	 1.2334844634	 1.7204386357	 0.3630907035	 0.124188
H	-0.1082471384	 2.1029286248	-0.7288738602	 0.14421
H	-0.4053905029	 1.9048593673	 1.0094838295	 0.123808
H	 0.193104836	-0.5375777543	 0.8291001918	 0.111515
H	-1.1657655793	-0.121495121	-0.2208161666	 0.131631
H	 2.089645288	-1.723572541	-0.1930241142	 0.123985
H	 0.6526498151	-0.2971764121	-4.4900665808	 0.135649
