19
gdb 52697	3.39098	0.7212	0.64299	3.74	82.3	-0.2388	0.0474	0.2862	1780.5829	0.157236	-419.229713	-419.218645	-419.217701	-419.26823	38.177	
C	-0.0111662903	 1.4789999934	 0.0251035538	-0.499604
C	-0.0049689922	 0.0233276905	-0.0081155332	 0.110189
C	 0.0107648167	-1.1804828851	-0.0211549808	 0.024232
C	-0.0115125092	-2.6436917562	-0.0545928783	-0.121799
C	-1.4512835271	-3.1933087116	-0.0740276192	-0.386061
N	 0.7837427239	-3.1214521609	-1.1875008304	-0.33788
C	 1.3112940592	-4.3909997099	-1.1688909037	 0.465429
N	 1.8954576334	-4.7786902477	-2.3713137639	-0.569734
O	 1.258451922	-5.123076905	-0.1962631137	-0.398285
H	 0.8018340754	 1.8930885509	-0.5814296234	 0.148361
H	-0.9529678527	 1.8852098647	-0.3599083853	 0.147924
H	 0.1175721788	 1.8515959635	 1.0472663911	 0.151687
H	 0.4871252222	-3.0412174485	 0.8356219096	 0.140393
H	-2.004164546	-2.8422880638	 0.8017848712	 0.12351
H	-1.9808863198	-2.8576413958	-0.9708689495	 0.111412
H	-1.4189712155	-4.2850860578	-0.059712177	 0.143124
H	 0.6109065622	-2.6781664553	-2.0761707836	 0.240718
H	 2.3319077196	-4.0575181161	-2.9267424984	 0.246986
H	 2.4633386993	-5.6060579795	-2.2647424654	 0.259399
