20
gdb 108066	2.58981	1.58774	1.22949	1.2404	78.36	-0.218	0.0645	0.2824	1094.49	0.170836	-403.070225	-403.061788	-403.060844	-403.103148	33.066	
C	 0.2153969268	 1.4615523764	 0.2160599429	-0.379262
C	-0.0341420232	-0.0166219485	-0.1159697925	-0.302179
C	 0.6808614222	-0.4590448941	-1.3600769014	 0.304863
C	 0.4521352709	-0.0731977311	-2.8119144389	-0.228564
N	 1.3040895212	-1.2592909324	-3.231644654	-0.167081
C	 2.6769405111	-0.827815482	-2.7430927852	-0.237176
C	 2.1449794136	-0.951841	-1.3270533759	 0.320983
O	 2.8153534645	-0.943746924	-0.1221963161	-0.460186
C	 1.0436727831	-1.8514377161	-1.8289821479	-0.196976
H	 1.2795132296	 1.6438342727	 0.3936196844	 0.131775
H	-0.1058173909	 2.1129847206	-0.6038819111	 0.11416
H	-0.3350512997	 1.760377437	 1.1132535021	 0.110291
H	 0.2967922892	-0.6390758842	 0.7228638688	 0.108398
H	-1.1110410021	-0.1946221682	-0.2342928244	 0.09583
H	-0.5802610459	-0.2350537657	-3.1368459782	 0.104523
H	 0.8067545034	 0.8948948739	-3.1851289569	 0.095257
H	 3.4093028414	-1.6021465122	-2.9941679407	 0.098383
H	 3.0182362681	 0.141850921	-3.1235598204	 0.099416
H	 3.4029597815	-1.7069656646	-0.09258626	 0.28967
H	 0.6913495952	-2.8504298686	-1.6126649046	 0.097875
