17
gdb 1249	6.6296	1.2486	1.12472	4.0394	62.11	-0.2771	0.0095	0.2866	1052.1515	0.146269	-346.886411	-346.877908	-346.876964	-346.92005	29.086	
C	 0.2271611341	 1.5047545863	-0.1341118663	-0.3936
C	 0.0527225727	-0.0139070551	-0.0195689017	 0.029491
C	-1.4276545838	-0.4127089792	 0.0409016464	-0.394695
C	 0.7323163279	-0.7506168121	-1.17441165	-0.071576
O	 2.1473953177	-0.5180111327	-1.1573868181	-0.181291
C	 2.7382641333	-0.0494144187	-2.2708020416	 0.171915
O	 3.9124106949	 0.15500783	-2.3447761707	-0.276049
H	 1.2837341842	 1.7839584907	-0.1592388467	 0.135229
H	-0.2493450414	 1.8878436748	-1.0450572582	 0.110516
H	-0.2341660438	 2.0126808704	 0.7182125049	 0.119343
H	 0.5417746661	-0.3500033902	 0.9039358504	 0.095387
H	-1.9574999919	-0.1061094061	-0.8689085462	 0.116814
H	-1.5519210575	-1.4950049141	 0.1528761449	 0.116878
H	-1.9232151976	 0.0697257147	 0.8883641784	 0.123059
H	 0.581057727	-1.8318776338	-1.0849101529	 0.118027
H	 0.3132884539	-0.4272112894	-2.1380317519	 0.105007
H	 2.0199946842	 0.1229454146	-3.0969945205	 0.075545
