19
gdb 82075	2.41225	1.65744	1.17715	2.2488	74.31	-0.2363	0.0265	0.2627	1084.546	0.159629	-419.196097	-419.187266	-419.186321	-419.229575	33.486	
C	 0.2919635484	 1.7505612323	-0.8402982489	-0.405504
C	 0.0909878249	 0.3260876454	-0.3399440465	-0.008629
C	 0.815372494	-0.8267861479	-1.0431787432	-0.030277
C	 2.2687425196	-0.7690255051	-0.8231942709	-0.246285
N	 1.4291027358	-1.355717992	 0.2486106451	-0.16992
C	 0.7835895695	-0.1938375693	 0.9615839149	-0.082415
C	 1.6853619596	 0.7153755049	 1.7853108661	 0.376012
N	 2.8378292011	 0.1238824741	 2.2038443112	-0.518039
O	 1.3679205284	 1.8552820672	 2.0703247469	-0.370196
H	 1.3489538143	 1.9969312705	-0.9725023144	 0.117015
H	-0.2097554236	 1.8860275483	-1.804844771	 0.107198
H	-0.1189750719	 2.4672629859	-0.125845008	 0.14524
H	-0.9799805594	 0.1161235462	-0.2759309939	 0.086744
H	 0.3653017138	-1.5016572748	-1.7642216775	 0.097992
H	 2.8812322082	-1.5159508693	-1.3185627007	 0.122637
H	 2.7669786862	 0.1814131807	-0.6523773881	 0.126909
H	 0.0424235382	-0.5970080219	 1.6589433038	 0.11595
H	 3.0277045713	-0.841210394	 1.990032357	 0.274819
H	 3.4381844419	 0.6248335989	 2.8377058282	 0.260751
