16
gdb 29031	2.58234	1.75373	1.16212	1.7642	83.97	-0.2357	-0.0871	0.1485	1047.12	0.125461	-396.94101	-396.933188	-396.932244	-396.973416	29.302	
C	-0.409913749	 1.5031105825	 0.0436587349	-0.472491
C	-0.1006747289	 0.0348472475	-0.0030102406	 0.2542
C	 0.0277800782	-0.6267813091	-1.178977388	-0.057911
N	 0.4355798512	-1.9226343287	-1.416960678	-0.212889
C	 0.2990721538	-2.8978460474	-0.5886322577	-0.008929
C	-0.3777015916	-2.8590819593	 0.7060212579	-0.019084
N	-0.4927251276	-1.8666356019	 1.5060942991	-0.229036
C	 0.1553591475	-0.6351183924	 1.2939785447	 0.229241
N	 0.8196358619	-0.0445191075	 2.2064178295	-0.492603
H	 0.4049045262	 2.039561688	 0.5388065432	 0.165879
H	-0.5603578273	 1.9137612174	-0.9574525581	 0.123631
H	-1.3110816661	 1.6873828901	 0.6398728327	 0.141391
H	-0.106297137	-0.0583985731	-2.0969540297	 0.111303
H	 0.6330598187	-3.8803072274	-0.9286555666	 0.119525
H	-0.8668040367	-3.7904073709	 1.0070923955	 0.125254
H	 0.8428399867	-0.6268915276	 3.0473445113	 0.222518
