16
gdb 85514	2.58383	1.40203	1.06978	3.4261	65.64	-0.2541	-0.0396	0.2145	1110.1424	0.123749	-475.070854	-475.062383	-475.061439	-475.104474	30.871	
O	 0.0710167796	 1.4421233651	 0.0222331342	-0.423869
C	 0.0432468257	 0.024989087	 0.0148334763	 0.10277
C	 0.6282556963	-0.5890252803	 1.2938112713	-0.360661
C	-0.5777559109	-0.7263899397	 2.2353582143	 0.390416
O	-0.5676930523	-0.8488230902	 3.4374180169	-0.365729
N	-1.6900744672	-0.6872409246	 1.430744664	-0.299894
C	-1.4232806982	-0.5148697813	 0.0247765467	-0.111599
C	-2.3892811143	 0.4353720165	-0.6546420104	 0.171719
O	-3.3323130385	 0.9351036134	-0.099053581	-0.25216
H	-0.3155215983	 1.7546536256	 0.849397635	 0.296985
H	 0.5711588017	-0.2704228061	-0.8932300669	 0.104339
H	 1.0432174748	-1.5862137827	 1.1096379252	 0.137073
H	 1.413047211	 0.0287264234	 1.733146492	 0.142647
H	-2.6246419968	-0.6756439746	 1.8083422161	 0.266459
H	-1.467998539	-1.4679236419	-0.5323152356	 0.105775
H	-2.1733014635	 0.6150912404	-1.728676988	 0.095728
