17
gdb 74763	2.99192	1.51088	1.30669	0.4564	73.45	-0.2332	0.0039	0.2372	1031.1682	0.135146	-421.75361	-421.746069	-421.745125	-421.785465	29.524	
C	 0.077467329	 1.4304242917	 0.0722637629	-0.517125
C	 0.0182058934	-0.0544592898	 0.0057316599	 0.360542
C	 0.0109567529	-0.9192669696	-1.0172248958	-0.189186
C	-0.0154246602	-2.2735908042	-0.3010480061	-0.090722
O	-0.9796833974	-2.0246616667	 0.7776356752	-0.280436
C	-0.0102475685	-1.0178551752	 1.2106220703	-0.15004
C	 1.0705172292	-2.0461847003	 0.7851228685	 0.495732
C	 1.9401530727	-2.939071177	 1.5306868781	-0.291462
O	 2.447783165	-1.8938908602	 0.6557125709	-0.27081
H	 0.9726451676	 1.7651552363	 0.6114310591	 0.137414
H	 0.1002112234	 1.8735318347	-0.9268964538	 0.131644
H	-0.7862694074	 1.8409287717	 0.6099671458	 0.133218
H	 0.0486181217	-0.742696716	-2.0819056871	 0.110393
H	-0.1666258324	-3.2010534891	-0.8499792468	 0.087591
H	-0.1534418478	-0.6416355957	 2.2227887725	 0.084177
H	 2.1154085763	-2.7754926187	 2.5924789779	 0.124133
H	 2.1124281024	-3.9550063819	 1.1800603684	 0.124937
