19
gdb 104377	2.17702	1.59552	1.38894	3.227	71.16	-0.248	0.0049	0.2529	1064.7997	0.158433	-460.201915	-460.19279	-460.191846	-460.235578	33.513	
C	 0.0513639452	 1.2995378399	-0.1086263213	-0.257276
O	 0.1491870542	-0.1101831448	 0.0424954996	-0.296628
C	 0.64926722	-0.599606485	 1.292160813	 0.255874
C	-0.1512608424	-0.1192458883	 2.4936761764	-0.464879
C	 0.7487846045	-2.1148840383	 1.1122017744	-0.271438
C	 2.079499444	-2.2676092419	 0.3657200394	-0.087324
O	 2.9028827442	-1.1748747897	 0.8225770523	-0.223939
C	 2.1426961739	-0.2006241375	 1.375625431	 0.428757
O	 2.6037799278	 0.8188690178	 1.8077267456	-0.354758
H	 0.9993261695	 1.8063541546	 0.1045214583	 0.140973
H	-0.2222597828	 1.4705493792	-1.1522883249	 0.128763
H	-0.7295552695	 1.7266919196	 0.5332216725	 0.113464
H	-1.2161052708	-0.3193865835	 2.3427918324	 0.124495
H	 0.176701002	-0.6349532663	 3.4005461091	 0.125154
H	-0.0041725887	 0.9510345747	 2.6549603382	 0.144756
H	 0.7985512737	-2.6069729006	 2.0876447563	 0.114512
H	-0.1010454774	-2.5112167104	 0.5543957741	 0.124715
H	 2.6101270538	-3.1948760666	 0.589131942	 0.123869
H	 1.953047489	-2.1741318231	-0.7166765184	 0.130911
