17
gdb 68468	2.48949	1.95492	1.33067	1.4862	67.86	-0.2584	-0.0304	0.228	955.5321	0.136303	-458.968591	-458.96109	-458.960146	-459.000622	29.592	
O	-0.0347413455	 1.398730221	-0.0728760306	-0.488036
C	-0.0102299151	 0.0234976137	 0.0315987949	 0.3282
C	 0.2557996454	-0.6759074754	 1.407168113	-0.309269
C	-0.5883606877	-1.8455707722	 0.8427063712	 0.116407
C	-1.3310660503	-0.8142849699	-0.0428355232	-0.309293
O	 0.1979167167	-2.7423718702	 0.0679027126	-0.273533
C	 1.0309876757	-2.1282213951	-0.9030308161	-0.171244
C	 0.9467842103	-0.6053062638	-0.9556345338	 0.320934
O	 1.5951107161	 0.0637482185	-1.7285422508	-0.353198
H	 0.5923277532	 1.6236810023	-0.7801268793	 0.292406
H	 1.284347215	-0.8806470988	 1.7137481389	 0.110558
H	-0.2726517793	-0.1379342086	 2.1973504664	 0.123767
H	-1.161276009	-2.4673040425	 1.5290283822	 0.093787
H	-2.1205562532	-0.2991104028	 0.5088551003	 0.123774
H	-1.7036925258	-1.1411745389	-1.016547469	 0.110553
H	 2.0790882594	-2.3982826861	-0.7155112195	 0.142103
H	 0.7798860241	-2.5109355312	-1.9015959372	 0.142084
