19
gdb 116084	2.58073	1.28025	0.90284	3.6351	72.57	-0.2526	0.0088	0.2614	1298.015	0.159171	-460.200531	-460.191689	-460.190745	-460.234592	32.332	
C	 0.0657918076	 1.562201828	 0.0238377575	-0.388292
C	-0.0515739563	 0.0384605599	-0.0703323381	-0.189702
C	 0.7883371819	-0.5635339137	-1.1913853713	 0.129064
C	 0.7315173376	-2.0802557287	-1.2544311678	-0.117889
O	 1.4633760558	-2.5370399164	-2.3743831185	-0.238977
C	 0.8625717689	-2.1085918382	-3.5759497671	-0.217871
C	 0.3935740189	-0.6559379829	-3.6060077708	 0.381562
O	 0.047658475	-0.1298445815	-4.6278721117	-0.321751
O	 0.3194279741	 0.0142843563	-2.437243848	-0.238534
H	 1.0972837686	 1.8665225787	 0.2319691918	 0.116824
H	-0.2417804756	 2.0323051467	-0.9131051556	 0.147039
H	-0.5662180204	 1.9507583619	 0.8272072824	 0.117302
H	 0.267328399	-0.4233312385	 0.8726045263	 0.10383
H	-1.0980332555	-0.2499638769	-0.2273637439	 0.110646
H	 1.838315159	-0.2611490076	-1.0801345295	 0.100045
H	 1.2019166283	-2.5110408058	-0.3666410592	 0.124457
H	-0.315231003	-2.4260318055	-1.2971966218	 0.099274
H	 1.5901150781	-2.2406890771	-4.3794366776	 0.153053
H	-0.0197634921	-2.7232068487	-3.8218793372	 0.12992
