21
gdb 58918	2.78208	1.55753	1.21007	1.2334	82.11	-0.2211	0.0659	0.287	1107.5759	0.182992	-383.160111	-383.151691	-383.150747	-383.193209	33.11	
C	-0.0463324197	 1.5458939832	-0.0273399422	-0.399408
C	-0.0565619777	 0.0097234694	 0.0260049128	-0.120287
C	 0.7664378503	-0.5140387259	 1.2114664391	-0.382208
C	-1.4699492622	-0.5149944705	 0.0356850665	 0.412182
N	-2.448108437	-0.2349937788	-1.0788296659	-0.391239
C	-3.2286046041	-1.0793379671	-0.1234526895	-0.043373
C	-1.9973551774	-1.9794280314	 0.1919305743	-0.074985
N	-2.0966035762	-1.8612738569	 1.6848802707	-0.350907
C	-2.556793215	-0.5260411579	 1.1782483688	-0.090551
H	 0.980425727	 1.9216955883	-0.0773148347	 0.114711
H	-0.5809203306	 1.9226375415	-0.9049069865	 0.118176
H	-0.513350073	 1.9728366183	 0.867819	 0.113096
H	 0.3970020036	-0.3610258406	-0.9040896215	 0.08672
H	 0.7785229485	-1.6059794281	 1.2443720342	 0.127002
H	 1.7990973902	-0.1576497615	 1.1371772896	 0.103313
H	 0.3543535136	-0.1655278855	 2.1634227207	 0.123206
H	-2.7698476623	 0.7355658696	-1.027719629	 0.205493
H	-4.2662203894	-1.3771685421	-0.2883360942	 0.078328
H	-1.6575933851	-2.8760693097	-0.3270744053	 0.086534
H	-2.8995859092	-2.4004700272	 2.02083159	 0.207037
H	-2.8805567843	 0.287747613	 1.8314677921	 0.077159
