21
gdb 70350	2.64429	1.75016	1.47426	1.2045	80.86	-0.2427	0.0852	0.3279	995.3155	0.185325	-387.072764	-387.065434	-387.064489	-387.103805	31.504	
O	-0.0385751713	 1.3381891984	 0.1788268046	-0.478685
C	 0.0219269159	-0.0481137428	-0.0333951088	 0.427087
C	-0.5543361201	-0.6004972921	-1.3117862629	-0.377708
C	-1.2930613965	-0.7684629538	 0.0127531479	-0.059865
C	-1.3266615574	-2.0849199541	 0.7940017407	-0.23496
C	 0.0226877645	-2.3860840616	 1.4711992259	 0.001769
C	 0.6061983419	-1.0999860739	 2.1341928206	-0.220032
C	 1.14997904	-0.7473548707	 0.7161636682	-0.077349
C	 1.1877954782	-2.2768269374	 0.4495872804	-0.242419
H	 0.7047372939	 1.7382621049	-0.2867128361	 0.276515
H	-0.9764659715	 0.1281323682	-1.9955536043	 0.10755
H	-0.1090210354	-1.4637487239	-1.7932632976	 0.109204
H	-2.1679995615	-0.1354362087	 0.1148192264	 0.093984
H	-2.0996162178	-2.0117123471	 1.5683592946	 0.0992
H	-1.6157059641	-2.9233175539	 0.1466679317	 0.095105
H	-0.039692809	-3.2925891844	 2.0782263117	 0.05593
H	-0.0858224761	-0.3895023844	 2.5934838185	 0.101311
H	 1.4086225375	-1.3418981387	 2.8361279063	 0.089831
H	 2.0857298171	-0.1868999301	 0.628554217	 0.047379
H	 2.1083683013	-2.7104415694	 0.8504235651	 0.095514
H	 1.0403745605	-2.6534797546	-0.5653485199	 0.09064
