15
gdb 18309	3.77168	2.23886	1.45264	1.6641	69.13	-0.2245	-0.0016	0.2228	830.2227	0.121551	-358.838212	-358.831679	-358.830735	-358.869106	24.606	
N	 0.0931878289	 1.3795706663	 0.0209421651	-0.532542
C	 0.081221356	 0.1128358264	 0.076988631	 0.308727
C	 1.1952942791	-0.9769827942	-0.0205193137	-0.273451
N	 0.5997257072	-2.2782733759	 0.386621312	-0.353941
C	-0.6315098323	-1.9816762855	 0.5067662933	 0.394352
C	-2.0012716772	-2.392576633	 1.0320825015	-0.361909
C	-2.357270455	-0.8602816175	 0.9033958022	-0.173757
N	-1.0394627467	-0.6878519487	 0.2534286252	-0.065842
H	 1.0446780253	 1.7227283461	-0.1075961264	 0.221223
H	 1.5752171866	-1.0337317601	-1.0476776966	 0.140109
H	 2.0414236757	-0.7299624164	 0.6288958781	 0.136095
H	-2.5724746135	-3.0451734897	 0.3696680141	 0.143839
H	-2.0065371361	-2.8015959834	 2.0429205854	 0.145146
H	-3.2033289346	-0.6080983449	 0.2615739487	 0.134001
H	-2.4420273434	-0.3341555494	 1.8579889003	 0.137951
