18
gdb 54937	3.95054	0.90583	0.83137	1.577	73.41	-0.2491	-0.0234	0.2257	1382.7943	0.146612	-439.120627	-439.111195	-439.110251	-439.156703	33.136	
N	-0.765506133	 1.3320724732	 0.5192694412	-0.530612
C	-0.1349658996	 0.2147510396	 0.0574918541	 0.404168
O	 1.0754015867	 0.0833157188	 0.0986764471	-0.372512
C	-1.0393590535	-0.8530675771	-0.5300024687	-0.077102
C	-0.8236157949	-1.1534347045	-2.0488494738	-0.238305
C	-0.830747587	-2.6669939693	-1.7370063407	-0.098958
C	-0.6280968955	-2.3189428202	-0.2211998524	-0.248751
C	-2.1521009972	-3.3513945263	-1.9635263733	 0.14681
O	-3.1562721426	-2.8135453292	-2.3602328091	-0.247157
H	-0.2016106002	 2.0970333627	 0.8528176161	 0.261021
H	-1.7571853713	 1.46454071	 0.4299153929	 0.260838
H	-2.0935220434	-0.6668309837	-0.3099797058	 0.076655
H	-1.6020404275	-0.8054177754	-2.7285564337	 0.122897
H	 0.1578115124	-0.8101056022	-2.380219368	 0.124195
H	-0.0379638346	-3.2822712219	-2.1747161509	 0.093192
H	 0.424930299	-2.3642651355	 0.0605629816	 0.14088
H	-1.2303704905	-2.8663051587	 0.5084810894	 0.105954
H	-2.1549242174	-4.4336981003	-1.6951024659	 0.076787
