18
gdb 69277	2.69651	1.54895	1.16081	3.8806	73.78	-0.25	0.0185	0.2685	1075.0193	0.148717	-439.084742	-439.076737	-439.075792	-439.117369	31.292	
O	-0.0237955541	 1.3799675621	 0.0656661322	-0.468216
C	 0.0287502219	-0.0174320141	-0.0224256146	 0.377789
C	-0.5504910999	-0.6747800391	-1.2393241186	-0.343271
C	-1.3104010671	-0.6981378989	 0.0902305386	-0.126653
C	-1.4453582551	-1.9787351594	 0.8318485327	 0.381286
N	-2.5630859584	-2.5638454935	 0.9386803984	-0.522862
O	-0.2930602183	-2.5227949906	 1.3408279494	-0.255445
C	 0.6954535377	-1.5932454529	 1.8095381158	-0.088233
C	 1.2029216342	-0.6934893415	 0.6886756895	-0.288924
H	 0.6241202766	 1.740561491	-0.5501776542	 0.28363
H	-0.9731723715	-0.0355576605	-2.0057790092	 0.122435
H	-0.1071344612	-1.599819531	-1.5924448218	 0.124059
H	-2.185840559	-0.0636542263	 0.1321673435	 0.127269
H	-2.4509954518	-3.4225871344	 1.4821178826	 0.217488
H	 0.2656772708	-0.9885802766	 2.6190572075	 0.116245
H	 1.493818049	-2.2098165403	 2.2285432014	 0.118232
H	 1.8060520912	-1.279371129	-0.0130819817	 0.111086
H	 1.8450305349	 0.0828464751	 1.1155183585	 0.114087
