16
gdb 128492	2.13057	1.75256	1.00451	2.0157	68.79	-0.2308	0.0027	0.2335	1149.3617	0.122655	-475.009111	-475.000069	-474.999125	-475.043288	31.941	
C	 0.2701336078	 1.3399032977	 0.3169699678	-0.261856
O	-0.1832109384	 0.0443496282	-0.079633702	-0.277387
C	 0.5074177706	-0.5161982714	-1.1040224626	 0.054934
C	-0.0056792749	-1.0078575621	-2.266080317	 0.352361
C	-1.3877825035	-1.0497734833	-2.8039229309	-0.495592
O	 0.9827294827	-1.5639461574	-2.9970593564	-0.226074
N	 2.2005519141	-1.4306134975	-2.3172923387	-0.254488
C	 1.9011452572	-0.8205054722	-1.1998907003	 0.376497
O	 2.8264385773	-0.5223224099	-0.2714068818	-0.424097
H	 1.3117459853	 1.3110270276	 0.6527451324	 0.144313
H	 0.1752600469	 2.0569740324	-0.5082799704	 0.11751
H	-0.3721337597	 1.6488387063	 1.1435105115	 0.134716
H	-1.443411074	-0.5719054999	-3.7874250287	 0.147452
H	-1.7395066031	-2.08103487	-2.915221836	 0.150017
H	-2.0553398482	-0.5266776322	-2.1161696699	 0.149469
H	 3.6794521398	-0.8415144563	-0.5964552971	 0.312224
