22
gdb 116069	2.58063	1.13311	0.83031	3.8866	82.99	-0.2333	0.035	0.2683	1428.8087	0.196166	-404.409891	-404.400657	-404.399713	-404.444184	34.808	
C	 0.092128087	 1.5687048003	 0.0061769687	-0.392507
C	 0.0122467229	 0.0388105361	-0.0166351731	-0.184663
C	-1.4152322908	-0.5299519988	 0.0116816511	 0.024157
C	-1.4212636049	-2.0562835575	-0.1378619136	-0.204389
C	-2.8494949248	-2.5869799465	-0.2408287665	-0.16747
N	-3.6829338622	-2.0541406324	 0.8278906267	-0.301074
C	-3.5126850276	-0.8700620342	 1.4930973533	 0.37665
O	-4.3662099528	-0.432263051	 2.2433110318	-0.376843
C	-2.1744223109	-0.1629507985	 1.2961921685	-0.304821
H	 1.1298877717	 1.9050942952	-0.079253518	 0.114814
H	-0.4680203578	 2.0065465044	-0.827740028	 0.115616
H	-0.3118416598	 1.9867345422	 0.9331466567	 0.124862
H	 0.5140535744	-0.3319227441	-0.9198061487	 0.092208
H	 0.5751822616	-0.3716331654	 0.8333581022	 0.094703
H	-1.9634706949	-0.1070589667	-0.8445925747	 0.073671
H	-0.8639868859	-2.3631900544	-1.0294856587	 0.099573
H	-0.9210361464	-2.5091647378	 0.7282015226	 0.104348
H	-3.2671424422	-2.3216322299	-1.2248661097	 0.105253
H	-2.8551116667	-3.6810946097	-0.1784480969	 0.109965
H	-4.5966366536	-2.4619345194	 0.9668678644	 0.242878
H	-1.5582067681	-0.4162870841	 2.1707945381	 0.123459
H	-2.3805106881	 0.906998682	 1.367535174	 0.129611
