13
gdb 28548	3.2645	1.44274	1.00055	3.7693	63.85	-0.2218	-0.0288	0.193	1068.8495	0.090973	-489.957371	-489.95012	-489.949176	-489.98888	28.027	
O	 0.0119067337	 1.3881932988	-0.0841234523	-0.446456
C	 0.0414305734	 0.0279896601	-0.0639700514	 0.248649
C	-0.0440679153	-0.723588102	-1.2229550234	-0.056902
N	-0.0179939464	-2.0636423627	-1.2312803147	-0.300334
C	 0.0963251493	-2.6432980742	-0.0493712464	 0.444095
O	 0.1237898001	-3.9876680305	-0.0445776275	-0.395978
N	 0.1877663415	-2.0325897904	 1.1416842155	-0.437843
C	 0.1592006317	-0.712798975	 1.1192310243	 0.323627
O	 0.2467664421	-0.0272143749	 2.2786823942	-0.431956
H	 0.0878824234	 1.7028096395	 0.8244351413	 0.310847
H	-0.1374178082	-0.2212926069	-2.1821160891	 0.130723
H	 0.2095025261	-4.2600859985	 0.8775948188	 0.303223
H	 0.3220660784	-0.6759362333	 2.9915891307	 0.308306
