16
gdb 66706	2.80773	1.71887	1.29565	2.3613	80.57	-0.2193	0.013	0.2323	994.2438	0.122379	-363.460166	-363.45248	-363.451536	-363.492048	30.168	
C	-0.0178062533	 1.5044056481	 0.0599156672	-0.525002
C	 0.0253647036	 0.016439789	-0.0069483197	 0.270746
C	 0.2476217668	-1.001749089	-1.1603872232	-0.121941
C	 0.8088810382	-1.9918210828	-0.2070543194	-0.05356
C	 0.6043884474	-1.0085916001	 0.9677806795	-0.230405
C	-0.884156552	-1.0277233013	 0.6349892074	 0.319686
C	-2.0372943116	-0.9103389879	 1.4367207504	 0.035582
C	-3.0228732464	-0.7968973595	 2.1201805523	-0.370859
N	-0.6626380982	-2.018616753	-0.5227826627	-0.216083
H	 0.9513265973	 1.9455577116	-0.1993678483	 0.127401
H	-0.7702101581	 1.9117493357	-0.6245862147	 0.132992
H	-0.2768728288	 1.8318358933	 1.0721044345	 0.135622
H	 0.3287986005	-0.8976796556	-2.2358234285	 0.101494
H	 1.4444364671	-2.8570241195	-0.3489093764	 0.103805
H	 1.0910089884	-0.858175029	 1.9209788094	 0.106979
H	-3.8922041308	-0.7035041098	 2.7224594721	 0.183544
