16
gdb 12432	3.4905	1.95946	1.31782	3.4766	75.69	-0.2397	-0.0704	0.1693	904.6163	0.132469	-346.639983	-346.633069	-346.632124	-346.671318	26.328	
O	 0.0358290719	-0.02145697	 0.6957327855	-0.325066
C	 0.0028605674	 1.1453215836	 0.3475025475	 0.358236
C	-1.3335620386	 1.8431018293	 0.1280169411	-0.30326
C	-1.4612249596	 3.2244557046	 0.790982349	-0.270693
C	-0.7304553776	 4.3225011575	 0.0719902645	-0.067187
C	 0.5270326184	 4.2545714353	-0.3925558348	-0.068497
C	 1.4657886147	 3.1514241473	-0.2551420525	-0.060459
C	 1.2683797528	 1.8618445518	 0.0898720653	-0.162743
H	-1.4881827244	 1.9470492848	-0.9547779445	 0.122563
H	-2.1005307811	 1.161745496	 0.5041352067	 0.122783
H	-2.5219319891	 3.4848134403	 0.8575237603	 0.115009
H	-1.1022742826	 3.1658919658	 1.8305476773	 0.128038
H	-1.2681489301	 5.2578614023	-0.0619464111	 0.102451
H	 0.9347996626	 5.1392201924	-0.8749451743	 0.095323
H	 2.4991822517	 3.4317791323	-0.4533244456	 0.106376
H	 2.1329017039	 1.2093556767	 0.1738876258	 0.107126
