18
gdb 124692	3.86174	1.00149	0.84477	2.1744	72.96	-0.255	0.0113	0.2663	1341.2204	0.149483	-435.292089	-435.283314	-435.28237	-435.326471	31.789	
C	 0.2006325145	 1.6117896718	-0.0965186387	-0.420434
C	 0.0941523293	 0.0857031928	-0.0113915588	-0.119161
C	 0.6713314804	-0.5909572987	-1.2776648948	-0.070099
O	 0.0093130928	-0.1755813193	-2.4591546533	-0.415137
C	 0.7457353997	-0.4953244742	 1.2076929072	 0.381381
N	 0.7185308597	-1.7706818202	 1.5688157429	-0.324114
C	 1.4573718252	-1.7870966679	 2.7108821511	 0.022524
N	 1.94198179	-0.616112568	 3.0881458342	-0.218678
N	 1.4760335553	 0.1981747461	 2.1088355491	-0.2468
H	 1.2481820545	 1.9368014642	-0.1124102407	 0.115888
H	-0.2568417187	 1.9540174068	-1.0266118279	 0.14463
H	-0.3045325178	 2.1044384131	 0.7401299661	 0.118731
H	-0.967805014	-0.1923078123	 0.0387964007	 0.101735
H	 1.7205860619	-0.2983651518	-1.3995458574	 0.114387
H	 0.6412739313	-1.6794178804	-1.1480407137	 0.124027
H	-0.8538521488	-0.6008878119	-2.4809933382	 0.287016
H	 1.6421227436	-2.6852675312	 3.2812545212	 0.125492
H	 1.6849283011	 1.1821180711	 2.1366621609	 0.278612
