19
gdb 119863	3.25075	0.98819	0.77232	2.41	80.29	-0.2371	-0.0377	0.1994	1481.0549	0.15844	-423.05736	-423.048105	-423.047161	-423.09246	32.663	
C	 0.0067217941	 1.4280560957	-0.0338511795	-0.224356
O	-0.0058664825	 0.0208721406	 0.0138691144	-0.238096
C	 0.628564795	-0.5677546566	-1.0965032407	-0.156802
C	 0.578284491	-2.0541339396	-0.9812157263	 0.168487
C	 0.0355379954	-2.8026709122	-0.0125936648	-0.141945
C	 0.184723281	-4.2853194191	-0.2484861041	-0.268124
C	 0.9453909745	-4.380373637	-1.5858474829	-0.329153
C	 1.1775652016	-2.9261537383	-2.0198038546	 0.327268
O	 1.7445232852	-2.5558201033	-3.0241022958	-0.336652
H	 1.0332790993	 1.8268671362	-0.0446422516	 0.107963
H	-0.5185416683	 1.8109739583	-0.9229318808	 0.107947
H	-0.5039108399	 1.7894101806	 0.8618266748	 0.127999
H	 0.1492118532	-0.2551217953	-2.0410325195	 0.110867
H	 1.6801957586	-0.2397607066	-1.1746253244	 0.11091
H	-0.464304211	-2.3988431759	 0.8599222815	 0.124119
H	 0.7263442791	-4.7607279233	 0.5784410853	 0.120719
H	-0.7954154329	-4.776334894	-0.285965918	 0.120706
H	 1.9094083585	-4.8898286915	-1.4973418697	 0.134063
H	 0.383355858	-4.9048124688	-2.3641810834	 0.134079
