16
gdb 17101	4.48986	1.75145	1.73513	3.4521	64.57	-0.2429	-0.0277	0.2152	808.9747	0.131352	-383.719539	-383.71306	-383.712116	-383.750361	24.997	
O	-0.1295595609	 0.0599923808	-0.2118109496	-0.235665
C	 0.0391017594	 1.2012114114	 0.1266360277	 0.138453
C	 1.3270113912	 1.985232246	-0.0295631293	 0.039066
O	 2.4720468238	 1.1595601718	-0.256202553	-0.273452
C	 2.9526612059	 1.6468183076	-1.5272081629	 0.115856
C	 2.8795978932	 3.1838088235	-1.3623511756	-0.233656
C	 1.3536927456	 2.8534266086	-1.3166056012	-0.089175
C	 1.6655683557	 1.7461356008	-2.3775049276	-0.2395
H	-0.7855607636	 1.8028126843	 0.5786763458	 0.072239
H	 1.4630963721	 2.5981789154	 0.8742932594	 0.088531
H	 3.8446771838	 1.0936166833	-1.8130878565	 0.087322
H	 3.3464644506	 3.6185629313	-0.4752454196	 0.103691
H	 3.1582546849	 3.7321456858	-2.2635872526	 0.107653
H	 0.5745066914	 3.6040311676	-1.4402231344	 0.08308
H	 1.8312026466	 2.1658887779	-3.3705957062	 0.104722
H	 1.0286778304	 0.861827734	-2.4162072545	 0.130834
