15
gdb 24910	4.89058	1.32031	1.04638	3.6523	73.46	-0.1958	0.011	0.2068	1071.6016	0.115709	-416.845081	-416.838214	-416.837269	-416.876363	27.06	
N	-0.0589587667	 1.2279929361	 0.0073408129	-0.528941
C	-0.0249177691	-0.0292838289	 0.0007378355	 0.398737
C	-1.2632210255	-0.951752878	 0.0025878741	-0.455393
C	-0.5816343211	-2.2754849395	-0.007802588	 0.232437
C	 0.768982742	-2.1076676178	-0.0141243113	 0.362441
O	 1.1492438454	-0.7768601065	-0.0093240153	-0.262469
C	 1.4165670262	-3.3605837774	-0.0239967174	-0.330002
C	 0.3833222156	-4.2850990939	-0.0233603924	-0.063587
N	-0.8257410715	-3.6232339586	-0.0134177468	-0.376023
H	 0.8854549966	 1.6163100706	 0.0043119719	 0.229797
H	-1.8739127618	-0.7419534575	 0.8883336599	 0.146623
H	-1.8832759339	-0.7329365366	-0.8744284262	 0.146625
H	 2.4711354975	-3.5807158127	-0.030722499	 0.109548
H	 0.4185579494	-5.362213005	-0.0291462264	 0.124413
H	-1.7251800531	-4.0702053844	-0.0108849816	 0.265794
