11
gdb 23676	3.76214	1.90712	1.26557	3.3585	54.92	-0.26	-0.0357	0.2243	827.2788	0.072805	-446.720144	-446.714459	-446.713515	-446.75014	21.651	
F	 0.031222854	 0.0590440326	 0.0029978693	-0.065394
C	-0.0146407433	 1.3846698102	 0.0105746562	 0.355453
C	-1.2532112342	 2.0140938062	 0.0308286172	-0.273658
C	-1.2444520265	 3.4051925543	 0.0380432545	-0.045697
C	-0.0341343295	 4.0909365631	 0.0251256375	-0.273657
C	 1.1191717047	 3.316251138	 0.0053087568	 0.355453
F	 2.2989498493	 3.9223873537	-0.0076396526	-0.065394
N	 1.1503087628	 1.9993905555	-0.0020756133	-0.360923
H	-2.1651065156	 1.4324286779	 0.0402275213	 0.123529
H	-2.1794978546	 3.9540930881	 0.0537078175	 0.126761
H	 0.0292222328	 5.1707228904	 0.0299427255	 0.123529
