18
gdb 51702	5.03853	0.80116	0.72318	1.3251	73.12	-0.2312	-0.0271	0.204	1497.4248	0.146856	-439.111663	-439.102883	-439.101938	-439.146279	31.66	
O	-0.1320143188	-0.0762892696	-0.0233534382	-0.240973
C	-0.0476212721	 1.1178440356	-0.1402787418	 0.176211
C	 1.2473841843	 1.9012067559	-0.0400624448	-0.315227
C	 1.3910442752	 2.9069388734	-1.1783006183	 0.030302
C	 2.6988799484	 3.7194660762	-1.1930537636	-0.350146
C	 2.9026899169	 4.0332870238	-2.6808810434	 0.385914
O	 3.6736583999	 4.8241075331	-3.1541593401	-0.298701
C	 1.9163722233	 3.1433068042	-3.460288909	-0.27914
N	 1.3159585393	 2.2251566408	-2.4897175466	-0.298976
H	-0.9499179958	 1.7464281685	-0.3194776934	 0.078364
H	 1.2403666961	 2.4402213682	 0.9173276202	 0.131526
H	 2.08460022	 1.1943317209	-0.0170111274	 0.119023
H	 0.5439146892	 3.6075807819	-1.1334045888	 0.093203
H	 2.695509942	 4.6336878961	-0.5950826871	 0.133557
H	 3.5441065871	 3.1044480914	-0.855694959	 0.130475
H	 1.1503857647	 3.7945231713	-3.9052508814	 0.138651
H	 2.4113999565	 2.6216044626	-4.282602783	 0.138444
H	 1.869702804	 1.3739019459	-2.4454984042	 0.227493
