14
gdb 128724	2.34601	1.56362	0.94386	1.1683	73.16	-0.2408	-0.024	0.2168	1169.2387	0.099841	-436.639503	-436.631357	-436.630413	-436.672476	29.572	
C	-0.0266723235	 1.3409215652	 0.0335203661	-0.248154
O	 0.0106246682	-0.090249615	-0.0118500732	-0.25665
C	 0.6143115342	-0.6208494761	-1.0692852364	 0.399012
N	 1.1547030017	 0.0867729157	-2.032119417	-0.244011
O	 1.6709348879	-0.8588412819	-2.9295578594	-0.178257
C	 1.4186654781	-2.0850132664	-2.4677168425	-0.002754
C	 0.7462086232	-2.0390965888	-1.2822035214	-0.076614
C	 0.2903000742	-3.0914505932	-0.4635676488	 0.24724
C	-0.1033138754	-3.9819774598	 0.2436688895	-0.431711
H	 0.9871139965	 1.7518600885	 0.0448362124	 0.14636
H	-0.5613415529	 1.7393579983	-0.8337345608	 0.146373
H	-0.5513791703	 1.5930423843	 0.9547422136	 0.139481
H	 1.7677373144	-2.9078025389	-3.0720642993	 0.16564
H	-0.4504434862	-4.7664906418	 0.8693076972	 0.194044
