20
gdb 55797	3.7911	1.00019	0.9057	3.0156	80.69	-0.2259	-0.0074	0.2185	1343.7139	0.169615	-403.085515	-403.076727	-403.075783	-403.12048	32.688	
C	-1.7916010956	 0.0031600456	 2.0286172114	-0.459224
C	-2.7375333504	 0.0175493248	 0.8459365222	 0.377304
O	-3.8227846809	 0.5496483423	 0.8881449203	-0.295276
C	-2.2519067894	-0.6381852658	-0.4528024142	-0.269389
N	-1.4116781499	-1.8034840904	-0.1997562959	-0.115943
C	-0.8567883766	-2.5770152314	-1.3859908884	-0.002483
C	-0.6370334646	-3.7446757481	-0.3898317937	-0.207802
C	-2.0624947993	-3.1839965621	-0.1531973677	-0.011811
C	-2.2599184339	-3.1727645283	-1.6971026067	-0.240437
H	-2.2078373417	 0.6068153272	 2.8360250651	 0.130759
H	-1.6310017564	-1.0248019524	 2.3668934591	 0.147266
H	-0.8057677014	 0.3792137655	 1.7359291334	 0.136098
H	-3.1393768205	-0.7878270411	-1.0819212701	 0.109371
H	-1.6241919957	 0.1124083749	-0.9564818543	 0.122339
H	-0.1369238379	-2.1250226961	-2.0710153984	 0.082379
H	-0.5656835912	-4.7473273247	-0.813278432	 0.0977
H	 0.0829148571	-3.5555294983	 0.4064940108	 0.104534
H	-2.7766021133	-3.455970225	 0.6259993458	 0.087447
H	-3.0141435575	-2.5021185626	-2.1072145596	 0.108954
H	-2.2893181311	-4.1429976239	-2.199959047	 0.098212
