19
gdb 42397	5.12091	0.75113	0.73501	3.5181	77.49	-0.2473	-0.014	0.2333	1597.0366	0.157714	-423.009279	-423.000157	-422.999213	-423.044843	32.672	
O	-0.0421456185	-0.1128959686	-0.105670439	-0.331324
C	-0.0162543883	 1.1004566579	-0.110869397	 0.390882
C	 1.2897675379	 1.8769766985	-0.2658639417	-0.355049
C	 2.5188823143	 1.0157061605	-0.1230921295	 0.110076
C	 3.8286729664	 1.5955725035	 0.1938347455	-0.18846
O	 3.0696710074	 0.9138876893	 1.1927320353	-0.231565
C	-1.2577423346	 1.9168354258	 0.0051814278	-0.106462
C	-2.5386888673	 1.329927112	-0.5713680814	-0.247492
C	-2.3620532089	 1.3749256881	 0.9054485149	-0.24551
H	 1.2649039872	 2.3503792638	-1.259201619	 0.131488
H	 1.3205134326	 2.6961399521	 0.4618803018	 0.1293
H	 2.4816028477	 0.0706570742	-0.661323029	 0.112617
H	 4.7376207358	 1.0919735136	-0.1325622634	 0.115544
H	 3.9228851747	 2.6726871877	 0.3316647342	 0.107892
H	-1.1346105697	 2.9932495274	-0.0380245948	 0.087364
H	-3.2292393461	 2.021020333	-1.0406599738	 0.118679
H	-2.4304746119	 0.3671978092	-1.0573292789	 0.139768
H	-2.1345069932	 0.4438083357	 1.4112884752	 0.142296
H	-2.9250760355	 2.0990096765	 1.4827171228	 0.119954
