14
gdb 49783	2.21794	1.61196	1.00665	3.1011	69.45	-0.2709	-0.0437	0.2273	1109.1298	0.102133	-432.906872	-432.898959	-432.898015	-432.940393	27.483	
O	-0.0414618568	-0.0417249184	 0.0328288323	-0.296203
C	-0.0140652858	 1.1636892802	-0.002854245	 0.157811
N	 1.1516102662	 1.9032241613	-0.0212082653	-0.084903
C	 2.4477092157	 1.371473021	 0.0006728453	 0.096758
N	 3.4040866271	 2.2053230147	 0.014285927	-0.243962
C	 2.8280307796	 3.5516064695	-0.0040950251	-0.186884
C	 1.2597559445	 3.3694696227	-0.0204009964	-0.162695
C	 0.6145238135	 3.9813981495	-1.1849345985	 0.28705
N	 0.1082634883	 4.4798818744	-2.0960435066	-0.306186
H	-0.9151020809	 1.8026909453	-0.027271778	 0.108687
H	 2.5492255981	 0.293863687	 0.0058295749	 0.181549
H	 3.1462994371	 4.1097196931	 0.8803075643	 0.142613
H	 3.1745866819	 4.0968737739	-0.8856461139	 0.154216
H	 0.8033665014	 3.7896457058	 0.8815880649	 0.15215
