16
gdb 13118	4.14597	1.28113	1.04926	3.3893	61.74	-0.2536	-0.002	0.2516	1118.8784	0.129403	-420.889412	-420.88124	-420.880296	-420.92293	28.256	
C	-0.00730885	 1.4714532767	-0.0221434212	-0.387701
C	-0.0500821219	-0.0355861225	-0.1929817636	-0.053885
O	-1.3231619142	-0.4974635242	 0.2629602232	-0.251272
C	-1.4766669674	-1.8770374141	 0.1766463099	-0.042697
C	-2.8749286331	-2.388797645	 0.5538901273	-0.11217
O	-3.0331633442	-2.9776379833	-0.7787801938	-0.237097
C	-1.8330201472	-2.4695517895	-1.2103333944	 0.429469
O	-1.3664008242	-2.5193150908	-2.3021923485	-0.319667
H	 0.9593269703	 1.8601556142	-0.3552196596	 0.122447
H	-0.794363979	 1.9475081861	-0.6133257372	 0.133456
H	-0.1500924798	 1.7454516287	 1.0269404107	 0.127696
H	 0.0940806123	-0.3197104777	-1.2435281401	 0.127407
H	 0.7455085341	-0.5210338703	 0.3953666187	 0.093254
H	-0.6480465429	-2.4188861443	 0.6576571069	 0.101973
H	-2.9356148375	-3.1542922468	 1.328526711	 0.12897
H	-3.6023373654	-1.5925427774	 0.7190701506	 0.139817
