15
gdb 13842	4.16841	1.64755	1.3146	1.5896	61.75	-0.2434	-0.0222	0.2213	916.7889	0.118761	-399.831966	-399.824324	-399.82338	-399.865189	26.531	
C	-0.9170233268	 0.8467159109	 0.24590441	-0.471676
C	 0.3834252307	 0.1333321065	-0.0391292575	 0.379707
O	 1.2910663421	 0.0715955625	 0.7564111113	-0.292377
C	 0.5033694741	-0.5153400727	-1.4342867387	-0.097552
C	 1.7453036327	-1.4197413093	-1.5895016393	-0.124829
O	 1.1850337964	-2.7305107081	-1.8684818531	-0.214625
C	-0.1497239874	-2.5555401966	-1.8887367187	 0.132206
N	-0.6504774197	-1.4056614616	-1.689191065	-0.284161
H	-1.072066327	 1.6497240783	-0.4840590242	 0.139212
H	-1.7503040574	 0.1491780465	 0.1223517866	 0.168308
H	-0.9019925302	 1.2608030801	 1.2543864255	 0.138903
H	 0.4867717673	 0.3038203498	-2.165383635	 0.10746
H	 2.3906398831	-1.1441352027	-2.4258617832	 0.121371
H	 2.327147867	-1.4692910359	-0.6672458833	 0.150182
H	-0.7199792051	-3.4565625676	-2.0864367754	 0.147872
