13
gdb 129092	2.57087	1.79316	1.19029	2.1032	71.18	-0.2756	-0.085	0.1905	978.6359	0.08969	-448.868162	-448.860799	-448.859855	-448.900861	26.666	
N	-0.1383776363	 1.3650521837	 0.2157191154	-0.437367
C	-0.0487734004	 0.111356476	 0.0224255583	 0.231076
C	 1.2460269793	-0.5958899411	-0.1423973243	-0.005618
N	 1.6312395327	-1.5805524696	-0.8588400848	-0.038692
O	 0.7687150443	-2.1980555527	-1.7756353217	-0.234048
C	-0.5880736182	-2.0846525218	-1.8469134734	 0.154842
N	-1.4709823674	-1.5419194759	-1.1272657495	-0.291592
C	-1.2763794461	-0.7520207145	 0.0080790357	 0.299024
N	-2.0776300878	-0.7096046072	 0.9903888064	-0.458446
H	 0.7865796819	 1.8059775296	 0.2169548064	 0.23373
H	 2.0646566006	-0.2067143103	 0.4644074854	 0.157612
H	-0.8822702063	-2.6538393457	-2.7279196015	 0.156127
H	-2.8559442462	-1.3525055505	 0.8198991576	 0.233353
