19
gdb 38431	3.97335	1.32491	1.21328	1.1415	81.68	-0.2247	0.0157	0.2404	1084.3364	0.16022	-385.861622	-385.854222	-385.853278	-385.893546	29.71	
C	 0.1807211898	 1.5964309249	 0.1235190474	-0.289977
C	 1.3932808445	 0.7368088086	-0.0797908097	-0.038949
C	 1.7266429329	-0.0042150004	 1.221171943	-0.297288
C	 0.2994779165	-0.6681622049	 1.196143536	 0.415336
O	 0.3950486495	-2.0737345415	 0.9439883794	-0.320537
C	-0.3952155025	-2.808479078	 1.8720161375	-0.134832
C	-1.018365311	-1.7710677347	 2.7610978036	-0.106501
C	-0.622530142	-0.5640735534	 2.3740954229	-0.143854
C	-0.0030620559	 0.1172218031	-0.0952015427	-0.094372
H	-0.0181267396	 2.0509960792	 1.0918934428	 0.101362
H	-0.1042159236	 2.2199683987	-0.7181376733	 0.112295
H	 2.0762629536	 0.893128559	-0.9051714143	 0.084999
H	 2.4745610346	-0.7890728181	 1.0972578398	 0.118531
H	 1.984425367	 0.615197076	 2.087393879	 0.087022
H	-1.1474164744	-3.4067896326	 1.3337445404	 0.105218
H	 0.2395995977	-3.5154067563	 2.4293201699	 0.104876
H	-1.6841432529	-2.0119816702	 3.5802486831	 0.105324
H	-0.9022168701	 0.383192129	 2.8159380011	 0.103745
H	-0.5787424243	-0.2845436784	-0.920228116	 0.087602
