21
gdb 86786	3.20891	0.99735	0.8403	4.1892	84.26	-0.226	0.0346	0.2606	1422.0163	0.18159	-383.274807	-383.264981	-383.264037	-383.30985	35.783	
C	 0.145761594	 1.5909289808	 0.0913080433	-0.401165
C	 0.0384548581	 0.0826734493	-0.0476474074	 0.089793
C	 0.6778034354	-0.623483111	-1.271372271	-0.296107
C	 1.1913517207	-1.6724906504	-0.2571322794	 0.06817
C	 2.6480699609	-2.1413601285	-0.3917501766	-0.349302
C	 3.0539321547	-3.0474175908	 0.6809073349	 0.267179
N	 3.350994579	-3.7653143004	 1.5368581266	-0.316506
N	 0.9301149626	-0.7131616396	 0.8267381124	-0.082068
C	 0.418399558	-1.1980623251	 2.0932673627	-0.345091
H	 1.1838103636	 1.9152905354	-0.0286882405	 0.118074
H	-0.4693567847	 2.0938870346	-0.6628840999	 0.115649
H	-0.2009900757	 1.920438133	 1.0767331119	 0.120254
H	-1.0152442151	-0.2297492922	 0.0617620444	 0.058726
H	 0.0100918372	-0.9766074853	-2.0572876374	 0.110127
H	 1.4867071463	-0.0363337971	-1.7152233761	 0.105635
H	 0.528844582	-2.5531993723	-0.2179338103	 0.074079
H	 2.7836515048	-2.6541569833	-1.3515310269	 0.148155
H	 3.3065505244	-1.2665594339	-0.3842456071	 0.151316
H	 1.1642372886	-1.8325980042	 2.5799079302	 0.148103
H	 0.213939114	-0.3508498166	 2.7559057826	 0.121913
H	-0.514598019	-1.7822899422	 1.9844689535	 0.093067
