16
gdb 44703	3.38469	1.31117	1.10601	3.2346	69.37	-0.2391	-0.0393	0.1998	1080.3962	0.125509	-437.938113	-437.93066	-437.929716	-437.970746	28.354	
O	 0.0783018614	 0.2028081565	-0.9780826422	-0.282165
C	 0.0359127606	 1.2039755284	-0.3280532774	 0.40998
C	-1.0712955593	 1.9430913862	 0.443056501	-0.369776
C	-0.0858198564	 3.1357498216	 0.6611170653	-0.024575
C	 0.3465700928	 3.4302281232	 2.0971158411	-0.351257
C	 1.5333284409	 2.492970613	 2.3631466394	 0.39601
O	 2.0643644175	 2.2637102083	 3.4243408081	-0.362435
N	 1.908106309	 1.9596618051	 1.1506964271	-0.293457
C	 1.0825304282	 2.2994535042	 0.0171188574	-0.136502
H	-1.9645369339	 2.1501215776	-0.1521770324	 0.140738
H	-1.3831424154	 1.4319119371	 1.3599026506	 0.142107
H	-0.360913914	 4.0230959759	 0.0929175907	 0.093764
H	 0.6881383743	 4.4617695208	 2.2300117712	 0.136712
H	-0.4362724495	 3.2513212931	 2.8381209757	 0.136909
H	 2.6535483503	 1.2820067519	 1.1051279492	 0.262468
H	 1.6505245337	 2.7146638574	-0.8218081046	 0.10148
