19
gdb 74877	2.75087	1.69454	1.2087	2.4892	81.88	-0.2263	0.0147	0.241	1065.05	0.161915	-382.029607	-382.022082	-382.021138	-382.061311	30.379	
C	-0.0133110049	 1.5071334186	 0.0778653202	-0.487172
C	-0.0026215734	 0.0056916231	-0.0033590149	 0.367606
C	-0.0054294071	-0.6550678869	-1.1693994941	-0.140837
C	 0.0073126435	-2.1298185202	-1.2776572671	-0.086402
N	 1.2513997152	-2.8444365629	-0.8790930752	-0.318404
C	 0.0619511208	-2.9422582814	-0.0253606198	-0.046108
C	 0.0615709713	-2.2196078536	 1.2931712827	-0.034219
N	 1.247510949	-1.4428990738	 1.672760628	-0.3174
C	 0.0015818564	-0.7273255796	 1.290799496	-0.156623
H	 0.8911384407	 1.8780763483	 0.5764484395	 0.134084
H	-0.0670936173	 1.9639891114	-0.9138894478	 0.120046
H	-0.8664900118	 1.8679927137	 0.6670475288	 0.118625
H	-0.0216014427	-0.0920111995	-2.0999254277	 0.080131
H	-0.5361681055	-2.5424747667	-2.1250105386	 0.080658
H	 1.3328722747	-3.6961359778	-1.430515274	 0.226763
H	-0.4876957174	-3.8803476186	-0.0220722277	 0.076899
H	-0.4858622528	-2.7277001274	 2.0834756798	 0.077082
H	 1.3332826782	-1.4418120303	 2.6868666223	 0.227937
H	-0.5456969469	-0.2420648164	 2.0973881297	 0.077334
