23
gdb 90765	3.17581	1.30927	1.13612	1.3966	84.51	-0.2372	0.0771	0.3144	1203.9721	0.206952	-388.297267	-388.288431	-388.287487	-388.330555	34.453	
C	 0.2567874945	 1.5861814279	 0.261920398	-0.402593
C	 0.1202069089	 0.0880485638	 0.0399258737	 0.020061
C	 1.0524971139	-0.6133514434	-0.9944518158	-0.28336
C	 1.3962951227	-1.7108850365	 0.0569140457	-0.018213
C	 0.6546357198	-0.876621694	 1.1453821852	 0.096655
O	 1.6495731671	-0.3477813545	 2.0105124274	-0.262799
C	 2.934926488	-0.5138936159	 1.4146902339	-0.096721
C	 2.8473281657	-1.786987866	 0.5500479963	 0.001247
C	 3.1143396938	-3.0563455114	 1.3672280843	-0.4042
H	 1.2843761874	 1.8588597022	 0.519530741	 0.122068
H	-0.0253659536	 2.1410779029	-0.6397259726	 0.108605
H	-0.3860202069	 1.9260491882	 1.0808915207	 0.117017
H	-0.9263708031	-0.1602394933	-0.170091064	 0.067538
H	 0.571798829	-0.9665026592	-1.9097837318	 0.096162
H	 1.9185125154	-0.0068840276	-1.2804644657	 0.092847
H	 0.9721203386	-2.6915885922	-0.1663167885	 0.064477
H	-0.103305845	-1.3531854327	 1.7731784887	 0.068955
H	 3.1961112387	 0.3614718258	 0.8007894656	 0.086108
H	 3.6683494602	-0.5885546508	 2.2237463912	 0.103423
H	 3.5524127097	-1.7304139754	-0.2870169023	 0.071782
H	 2.4466133885	-3.1086486299	 2.2337054834	 0.128325
H	 2.9554049217	-3.9563766156	 0.7643959044	 0.111303
H	 4.1443629651	-3.0788012722	 1.738172131	 0.111314
