17
gdb 35396	3.10305	1.5799	1.3267	1.939	76.77	-0.2436	0.0198	0.2633	989.8374	0.135834	-384.585656	-384.578375	-384.57743	-384.617205	29.397	
C	-0.3134966203	-1.2586348657	-0.289544418	-0.431835
C	-0.1502543934	-0.0825478601	-0.0995645078	 0.334961
C	 0.0242032072	 1.3473746572	 0.0754780431	-0.095304
O	-0.1456944411	 1.832335267	 1.4434511189	-0.308228
C	 1.0779352342	 2.6153489851	 1.3624039752	 0.106297
C	 2.341325957	 2.0011452484	 1.9981637396	-0.061963
C	 2.3205219356	 0.5097472036	 1.8668899879	-0.288617
C	 2.6542821548	 1.3196974843	 0.6454981001	-0.070963
C	 1.4317932488	 2.0052959036	-0.0006015688	-0.08607
H	-0.450611142	-2.2998282255	-0.4485035001	 0.200101
H	-0.6826623487	 1.872748071	-0.5822291112	 0.105651
H	 0.9066740838	 3.6807726701	 1.5285103853	 0.081027
H	 3.0038542699	 2.5200911225	 2.6800216653	 0.086249
H	 3.1756489746	 0.0066323034	 2.3074151472	 0.111303
H	 1.3875808408	-0.033217528	 1.9548640276	 0.141981
H	 3.6095381691	 1.2147778394	 0.1465074111	 0.090949
H	 1.6480879398	 2.6132308737	-0.8770640753	 0.08446
