13
gdb 132167	3.36731	1.40171	0.99064	2.9067	65.31	-0.2181	-0.0278	0.1904	1069.9099	0.090504	-494.061969	-494.054749	-494.053805	-494.093638	27.725	
N	 0.027251569	 1.3669916153	 0.1526009817	-0.586761
C	-0.0221519544	-0.0022420191	 0.0460231727	 0.239997
C	-1.1392178659	-0.7516281626	 0.0097788569	-0.06821
O	-1.0792568868	-2.1408211239	-0.0338633011	-0.190991
C	 0.133142901	-2.6694427195	-0.0323960622	 0.39383
F	 0.0418022416	-3.9757278227	-0.0569061127	-0.040466
N	 1.2622487693	-2.0956484119	-0.0153928514	-0.421935
C	 1.284689086	-0.6953599017	 0.0054888573	 0.327341
N	 2.3506271684	 0.0073941934	-0.0192355641	-0.54365
H	 0.9429434614	 1.732797733	-0.0768116326	 0.275129
H	-0.7539217475	 1.8957059407	-0.2012251805	 0.250928
H	-2.1611145896	-0.4058677242	 0.0199044741	 0.135414
H	 3.1694219076	-0.6002209968	-0.0546397282	 0.229375
