15
gdb 54752	4.11065	1.08578	0.91727	1.2145	67.71	-0.2431	-0.0316	0.2115	1210.5284	0.111846	-453.94736	-453.939262	-453.938318	-453.980824	30.009	
N	-0.042084091	 1.3044425046	 0.0353280137	-0.533063
C	-0.0536735324	-0.0608054562	-0.0474654362	 0.410376
O	 0.7508081477	-0.7176446138	-0.6706941953	-0.355247
N	-1.1123227821	-0.6276779379	 0.7248342367	-0.163017
C	-1.6413943488	-1.8950354228	 0.2611336286	-0.016037
C	-2.554060288	-2.4072680382	 1.3845463129	-0.37594
C	-3.4102776128	-1.1209932194	 1.1627490166	 0.427144
O	-4.4697662026	-0.749739427	 1.5673759393	-0.294778
C	-2.4625727131	-0.6417012473	 0.072018744	-0.190004
H	 0.7898298974	 1.7612593162	-0.3011007525	 0.268845
H	-0.5435268802	 1.7481484601	 0.78703827	 0.268802
H	-1.1120604073	-2.452763615	-0.497791229	 0.143047
H	-3.1385559502	-3.2916944913	 1.1149329427	 0.139069
H	-2.0918334832	-2.5445890139	 2.3635726064	 0.138794
H	-2.6429067934	-0.0348240882	-0.8063070278	 0.132009
