19
gdb 32452	3.10326	1.22671	0.89391	0.5441	80.11	-0.1972	0.0338	0.231	1317.9595	0.157548	-423.056426	-423.046675	-423.04573	-423.091267	34.644	
C	 0.0179102959	 1.3742775655	 0.0520331834	-0.249131
O	-0.0205891277	-0.0395191642	 0.0031163125	-0.257022
C	 0.6235088095	-0.5927829483	-1.0511217015	 0.278955
C	 1.304419656	-0.0127867984	-2.0776917203	-0.192597
O	 1.784197229	-0.9934886235	-2.9060485874	-0.197073
C	 1.3984777371	-2.1945876	-2.3903499732	 0.30469
C	 1.8241595071	-3.3998927781	-3.150242983	-0.490315
C	 0.678803544	-2.0178278186	-1.2456441251	 0.015586
C	 0.0563749513	-3.0361675058	-0.3445075146	-0.505719
H	 1.0519575926	 1.7391440033	 0.1196263332	 0.121119
H	-0.4544307735	 1.8133238544	-0.8374105067	 0.121111
H	-0.5337113894	 1.6763638282	 0.9436093474	 0.133393
H	 1.5313195217	 1.0000434558	-2.3575245084	 0.126957
H	 1.4274936163	-3.3900675234	-4.1720580254	 0.136703
H	 2.9160282326	-3.4611089411	-3.2249536393	 0.136711
H	 1.466633776	-4.305807236	-2.6564731672	 0.132657
H	 0.4550326806	-2.964606408	 0.6737780059	 0.132235
H	-1.0274639527	-2.8927295511	-0.269161087	 0.132255
H	 0.2355450436	-4.0528712408	-0.7037483733	 0.119484
