18
gdb 92411	2.21161	1.63706	1.29134	1.7805	78.36	-0.2176	0.0231	0.2408	1063.7697	0.146516	-401.860388	-401.851748	-401.850804	-401.89374	32.902	
O	 0.2624099735	 1.1525619819	-0.7184083424	-0.42491
C	 0.1515265176	-0.0920642463	-0.0738898219	 0.046972
C	 0.205328986	-0.1341254924	 1.4775975254	-0.214336
N	-1.1324944046	-0.8052672548	 1.5575103448	-0.166452
C	-2.2353925813	 0.1796384168	 1.8056073202	-0.163572
C	-2.3786416543	 0.5017241668	 0.2977566857	-0.306045
C	-1.3104962634	-0.6011266929	 0.0398381191	 0.166643
C	-1.6931443968	-1.7209346784	-0.7851463398	 0.216546
C	-2.0075548773	-2.6457699152	-1.4874240973	-0.392195
H	 1.1944887604	 1.3442306557	-0.8587439164	 0.29089
H	 0.7957940234	-0.8451115779	-0.5419719071	 0.086426
H	 1.0044096842	-0.7420016458	 1.9117829342	 0.105207
H	 0.2286401801	 0.8646342747	 1.9284481594	 0.101185
H	-3.1076431786	-0.3172866844	 2.2401847613	 0.110825
H	-1.9473612572	 1.008343641	 2.4604200617	 0.1031
H	-3.3536814414	 0.290109236	-0.1415020984	 0.11613
H	-2.0494181047	 1.4940955045	-0.011678093	 0.13264
H	-2.2875785357	-3.4657647994	-2.1012813356	 0.190948
