16
gdb 55530	3.01611	1.12926	0.87392	3.0079	67.53	-0.2677	-0.036	0.2317	1300.1432	0.121804	-475.033238	-475.024113	-475.023169	-475.068503	31.556	
C	-0.1782690445	 1.2121778014	-0.5772689211	-0.444358
C	 0.1192681161	-0.0565454116	 0.1603884784	 0.401361
N	 1.0009799537	-0.1765272631	 1.0447698217	-0.47864
O	-0.7611087803	-1.0560163051	-0.3252573943	-0.264256
C	-0.7464530312	-2.3386932536	 0.1029677529	 0.435043
O	-0.026557475	-2.8044274428	 0.9495300306	-0.349833
C	-1.7849116799	-3.1602367766	-0.6051570449	-0.028216
C	-3.1211621994	-2.6098367556	-0.9092898327	-0.166523
O	-2.1515338413	-2.7887154896	-1.9288415591	-0.208167
H	 0.4912453013	 1.9957830527	-0.2255465814	 0.154784
H	-0.0476293352	 1.0651507337	-1.6538011579	 0.149434
H	-1.2180920585	 1.5134282282	-0.415162596	 0.141174
H	 1.0413757688	-1.1228265848	 1.4188673567	 0.261577
H	-1.6696491198	-4.2251028471	-0.4189395233	 0.129068
H	-3.969159776	-3.2919110081	-0.9332942859	 0.132905
H	-3.3392947088	-1.5770323181	-0.6480918837	 0.134647
